data_functionalizedCrystal
_audit_creation_method	'MofGen! by Chris Wilmer'
_symmetry_space_group_name_H-M	'P1'
_symmetry_Int_Tables_number	1
_symmetry_cell_setting	triclinic
loop_
_symmetry_equiv_pos_as_xyz
  x,y,z
_cell_length_a	21.295419
_cell_length_b	29.839131
_cell_length_c	21.295412
_cell_angle_alpha	89.962957
_cell_angle_beta	89.976510
_cell_angle_gamma	90.050029
loop_
_atom_site_label
_atom_site_type_symbol
_atom_site_fract_x
_atom_site_fract_y
_atom_site_fract_z
Zn1	Zn	0.962328	-0.178687	-0.355883
Zn2	Zn	1.295662	0.154646	-0.022550
Zn3	Zn	1.628995	0.487980	0.310783
Zn4	Zn	0.962224	-0.253814	-0.250597
Zn5	Zn	1.295557	0.079519	0.082736
Zn6	Zn	1.628891	0.412852	0.416070
Zn7	Zn	0.857054	-0.178719	-0.250628
Zn8	Zn	1.190387	0.154615	0.082705
Zn9	Zn	1.523720	0.487948	0.416038
Zn10	Zn	0.857012	-0.253810	-0.355829
Zn11	Zn	1.190346	0.079523	-0.022495
Zn12	Zn	1.523679	0.412856	0.310838
O13	O	0.909655	-0.216258	-0.303234
O14	O	1.242988	0.117076	0.030099
O15	O	1.576321	0.450409	0.363432
O16	O	1.050404	-0.188641	-0.341927
O17	O	1.383737	0.144692	-0.008593
O18	O	1.717071	0.478025	0.324740
O19	O	0.948247	-0.243868	-0.162512
O20	O	1.281580	0.089465	0.170822
O21	O	1.614913	0.422799	0.504155
O22	O	0.871079	-0.115847	-0.264627
O23	O	1.204413	0.217486	0.068707
O24	O	1.537746	0.550819	0.402040
O25	O	1.050327	-0.243837	-0.264573
O26	O	1.383661	0.089496	0.068760
O27	O	1.716994	0.422829	0.402094
O28	O	0.948424	-0.115824	-0.341957
O29	O	1.281758	0.217509	-0.008624
O30	O	1.615091	0.550843	0.324710
O31	O	0.870978	-0.188695	-0.162535
O32	O	1.204312	0.144638	0.170799
O33	O	1.537645	0.477971	0.504132
O34	O	0.768959	-0.188691	-0.264574
O35	O	1.102292	0.144642	0.068760
O36	O	1.435625	0.477976	0.402093
O37	O	0.871009	-0.243830	-0.443925
O38	O	1.204342	0.089503	-0.110592
O39	O	1.537676	0.422837	0.222741
O40	O	0.768928	-0.243861	-0.341864
O41	O	1.102262	0.089473	-0.008531
O42	O	1.435595	0.422806	0.324803
O43	O	0.948384	-0.188637	-0.443965
O44	O	1.281718	0.144696	-0.110632
O45	O	1.615051	0.478029	0.222701
O46	O	0.948207	-0.316681	-0.264520
O47	O	1.281540	0.016652	0.068813
O48	O	1.614873	0.349986	0.402146
O49	O	0.870908	-0.316678	-0.341834
O50	O	1.204241	0.016655	-0.008500
O51	O	1.537575	0.349989	0.324833
C52	C	0.746103	-0.216279	-0.303217
C53	C	1.079436	0.117054	0.030117
C54	C	1.412770	0.450387	0.363450
C55	C	0.676135	-0.216299	-0.303224
C56	C	1.009468	0.117034	0.030109
C57	C	1.342801	0.450367	0.363443
C58	C	0.643331	-0.187606	-0.343564
C59	C	0.976664	0.145728	-0.010231
C60	C	1.309997	0.479061	0.323102
C61	C	0.577588	-0.187594	-0.343567
C62	C	0.910921	0.145740	-0.010233
C63	C	1.244255	0.479073	0.323100
C64	C	0.544652	-0.216283	-0.303236
C65	C	0.877986	0.117050	0.030098
C66	C	1.211319	0.450384	0.363431
C67	C	0.577465	-0.244979	-0.262888
C68	C	0.910798	0.088355	0.070446
C69	C	1.244131	0.421688	0.403779
C70	C	0.643206	-0.244987	-0.262882
C71	C	0.976539	0.088347	0.070452
C72	C	1.309872	0.421680	0.403785
N73	N	0.441372	-0.255591	-0.298310
N74	N	0.774706	0.077742	0.035024
N75	N	1.108039	0.411076	0.368357
N76	N	0.378921	-0.255582	-0.298319
N77	N	0.712254	0.077751	0.035015
N78	N	1.045588	0.411085	0.368348
C79	C	0.346578	-0.216260	-0.303249
C80	C	0.679911	0.117073	0.030084
C81	C	1.013244	0.450407	0.363417
N82	N	0.379045	-0.176946	-0.308183
N83	N	0.712378	0.156387	0.025150
N84	N	1.045712	0.489721	0.358484
N85	N	0.441502	-0.176956	-0.308177
N86	N	0.774835	0.156378	0.025156
N87	N	1.108169	0.489711	0.358490
C88	C	0.473367	-0.216277	-0.303237
C89	C	0.806700	0.117056	0.030096
C90	C	1.140034	0.450389	0.363430
C91	C	0.242488	-0.187551	-0.343594
C92	C	0.575821	0.145782	-0.010261
C93	C	0.909155	0.479116	0.323072
C94	C	0.176744	-0.187538	-0.343592
C95	C	0.510077	0.145795	-0.010259
C96	C	0.843411	0.479129	0.323074
C97	C	0.176622	-0.244927	-0.262917
C98	C	0.509955	0.088406	0.070417
C99	C	0.843289	0.421740	0.403750
C100	C	0.242364	-0.244936	-0.262915
C101	C	0.575698	0.088398	0.070418
C102	C	0.909031	0.421731	0.403751
C103	C	0.275293	-0.216248	-0.303258
C104	C	0.608627	0.117085	0.030076
C105	C	0.941960	0.450418	0.363409
C106	C	0.909559	-0.332980	-0.303181
C107	C	1.242892	0.000353	0.030152
C108	C	1.576225	0.333686	0.363485
C109	C	0.909575	-0.382915	-0.303180
C110	C	1.242908	-0.049581	0.030154
C111	C	1.576242	0.283752	0.363487
C112	C	0.949919	-0.692511	-0.343558
C113	C	1.283253	-0.359178	-0.010224
C114	C	1.616586	-0.025844	0.323109
C115	C	0.949988	-0.880184	-0.343595
C116	C	1.283321	-0.546851	-0.010262
C117	C	1.616654	-0.213517	0.323071
O118	O	0.984196	-0.904409	-0.377887
O119	O	1.317529	-0.571076	-0.044554
O120	O	1.650862	-0.237742	0.288780
N121	N	0.909761	-0.903700	-0.303304
N122	N	1.243095	-0.570366	0.030029
N123	N	1.576428	-0.237033	0.363363
C124	C	0.869512	-0.880294	-0.263003
C125	C	1.202846	-0.546961	0.070330
C126	C	1.536179	-0.213627	0.403663
O127	O	0.835295	-0.904602	-0.228739
O128	O	1.168628	-0.571268	0.104595
O129	O	1.501961	-0.237935	0.437928
C130	C	0.869441	-0.692622	-0.262969
C131	C	1.202775	-0.359289	0.070364
C132	C	1.536108	-0.025955	0.403697
C133	C	0.909675	-0.669109	-0.303259
C134	C	1.243008	-0.335775	0.030075
C135	C	1.576341	-0.002442	0.363408
C136	C	0.990149	-0.668998	-0.383844
C137	C	1.323482	-0.335664	-0.050511
C138	C	1.656816	-0.002331	0.282822
C139	C	0.990134	-0.622082	-0.383832
C140	C	1.323467	-0.288749	-0.050499
C141	C	1.656800	0.044584	0.282835
C142	C	0.949889	-0.598680	-0.343533
C143	C	1.283223	-0.265347	-0.010200
C144	C	1.616556	0.067987	0.323134
C145	C	0.909660	-0.622193	-0.303246
C146	C	1.242993	-0.288860	0.030087
C147	C	1.576326	0.044473	0.363420
C148	C	0.829190	-0.669217	-0.222672
C149	C	1.162523	-0.335884	0.110661
C150	C	1.495856	-0.002551	0.443994
C151	C	0.829174	-0.622296	-0.222668
C152	C	1.162508	-0.288963	0.110665
C153	C	1.495841	0.044370	0.443998
C154	C	0.869408	-0.598783	-0.262958
C155	C	1.202741	-0.265450	0.070375
C156	C	1.536074	0.067884	0.403709
C157	C	0.869400	-0.551876	-0.262935
C158	C	1.202733	-0.218542	0.070398
C159	C	1.536067	0.114791	0.403731
N160	N	0.909626	-0.528360	-0.303227
N161	N	1.242959	-0.195027	0.030107
N162	N	1.576293	0.138307	0.363440
C163	C	0.949871	-0.551762	-0.343525
C164	C	1.283204	-0.218429	-0.010192
C165	C	1.616537	0.114904	0.323141
C166	C	0.869553	-0.978825	-0.263023
C167	C	1.202887	-0.645491	0.070310
C168	C	1.536220	-0.312158	0.403643
C169	C	0.869572	-1.025743	-0.263031
C170	C	1.202905	-0.692409	0.070302
C171	C	1.536239	-0.359076	0.403636
C172	C	0.950046	-1.025629	-0.343624
C173	C	1.283380	-0.692296	-0.010291
C174	C	1.616713	-0.358963	0.323043
C175	C	0.950031	-0.978711	-0.343613
C176	C	1.283364	-0.645377	-0.010279
C177	C	1.616697	-0.312044	0.323054
C178	C	0.909780	-0.955309	-0.303315
C179	C	1.243113	-0.621976	0.030019
C180	C	1.576446	-0.288642	0.363352
C181	C	0.949836	-0.453236	-0.343496
C182	C	1.283170	-0.119903	-0.010163
C183	C	1.616503	0.213430	0.323170
C184	C	0.949820	-0.406317	-0.343478
C185	C	1.283153	-0.072984	-0.010145
C186	C	1.616486	0.260350	0.323188
C187	C	0.869343	-0.406434	-0.262888
C188	C	1.202676	-0.073101	0.070445
C189	C	1.536010	0.260232	0.403778
C190	C	0.869362	-0.453350	-0.262903
C191	C	1.202695	-0.120016	0.070430
C192	C	1.536029	0.213317	0.403763
C193	C	0.909611	-0.476750	-0.303212
C194	C	1.242944	-0.143416	0.030121
C195	C	1.576277	0.189917	0.363454
O196	O	0.835205	-0.527622	-0.228667
O197	O	1.168538	-0.194288	0.104667
O198	O	1.501872	0.139045	0.438000
O199	O	0.984074	-0.527447	-0.377795
O200	O	1.317407	-0.194113	-0.044462
O201	O	1.650740	0.139220	0.288872
C202	C	0.949934	-0.739426	-0.343570
C203	C	1.283268	-0.406093	-0.010237
C204	C	1.616601	-0.072760	0.323097
C205	C	0.909705	-0.762940	-0.303283
C206	C	1.243038	-0.429606	0.030050
C207	C	1.576372	-0.096273	0.363383
C208	C	0.869460	-0.739537	-0.262984
C209	C	1.202794	-0.406204	0.070349
C210	C	1.536127	-0.072871	0.403682
C211	C	0.909723	-0.809857	-0.303291
C212	C	1.243057	-0.476524	0.030042
C213	C	1.576390	-0.143191	0.363376
C214	C	0.949968	-0.833260	-0.343590
C215	C	1.283301	-0.499926	-0.010256
C216	C	1.616635	-0.166593	0.323077
C217	C	0.990194	-0.809744	-0.383881
C218	C	1.323527	-0.476411	-0.050548
C219	C	1.656861	-0.143077	0.282786
C220	C	0.990179	-0.762829	-0.383869
C221	C	1.323512	-0.429495	-0.050535
C222	C	1.656846	-0.096162	0.282798
C223	C	0.829234	-0.763053	-0.222693
C224	C	1.162567	-0.429720	0.110640
C225	C	1.495901	-0.096386	0.443974
C226	C	0.829253	-0.809968	-0.222708
C227	C	1.162586	-0.476635	0.110625
C228	C	1.495920	-0.143302	0.443958
C229	C	0.869498	-0.833371	-0.263007
C230	C	1.202831	-0.500037	0.070326
C231	C	1.536164	-0.166704	0.403660
C232	C	1.073845	-0.216236	-0.303252
C233	C	1.407178	0.117097	0.030081
C234	C	1.740512	0.450430	0.363414
C235	C	1.143813	-0.216227	-0.303260
C236	C	1.477146	0.117106	0.030073
C237	C	1.810480	0.450439	0.363407
C238	C	0.909704	-0.216230	-0.467425
C239	C	1.243037	0.117104	-0.134091
C240	C	1.576371	0.450437	0.199242
C241	C	0.909725	-0.216218	-0.537393
C242	C	1.243058	0.117116	-0.204059
C243	C	1.576391	0.450449	0.129274
C244	C	0.909768	-0.099079	-0.303301
C245	C	1.243101	0.234254	0.030032
C246	C	1.576435	0.567587	0.363365
C247	C	0.909816	-0.049145	-0.303330
C248	C	1.243150	0.284189	0.030003
C249	C	1.576483	0.617522	0.363337
C250	C	0.869502	-0.187486	-0.570262
C251	C	1.202835	0.145847	-0.236928
C252	C	1.536169	0.479181	0.096405
C253	C	0.869500	-0.187478	-0.636004
C254	C	1.202833	0.145856	-0.302671
C255	C	1.536166	0.479189	0.030663
C256	C	0.909732	-0.216196	-0.668875
C257	C	1.243065	0.117137	-0.335542
C258	C	1.576398	0.450470	-0.002209
C259	C	0.949957	-0.244934	-0.635999
C260	C	1.283291	0.088400	-0.302665
C261	C	1.616624	0.421733	0.030668
C262	C	0.949954	-0.244944	-0.570257
C263	C	1.283287	0.088389	-0.236924
C264	C	1.616621	0.421722	0.096409
N265	N	0.964836	-0.219617	-0.772113
N266	N	1.298169	0.113716	-0.438780
N267	N	1.631502	0.447049	-0.105446
N268	N	0.964837	-0.219604	-0.834565
N269	N	1.298170	0.113729	-0.501231
N270	N	1.631504	0.447062	-0.167898
C271	C	0.909743	-0.216166	-0.866950
C272	C	1.243077	0.117167	-0.533617
C273	C	1.576410	0.450500	-0.200284
N274	N	0.854647	-0.212733	-0.834525
N275	N	1.187980	0.120600	-0.501192
N276	N	1.521313	0.453934	-0.167858
N277	N	0.854646	-0.212743	-0.772068
N278	N	1.187979	0.120590	-0.438735
N279	N	1.521313	0.453923	-0.105401
C280	C	0.909739	-0.216188	-0.740161
C281	C	1.243073	0.117145	-0.406827
C282	C	1.576406	0.450479	-0.073494
C283	C	0.869514	-0.187424	-0.971105
C284	C	1.202848	0.145909	-0.637771
C285	C	1.536181	0.479242	-0.304438
C286	C	0.869511	-0.187419	-1.036848
C287	C	1.202845	0.145914	-0.703515
C288	C	1.536178	0.479248	-0.370182
C289	C	0.949974	-0.244872	-1.036842
C290	C	1.283308	0.088461	-0.703508
C291	C	1.616641	0.421794	-0.370175
C292	C	0.949972	-0.244880	-0.971099
C293	C	1.283305	0.088453	-0.637766
C294	C	1.616639	0.421787	-0.304432
C295	C	0.909743	-0.216153	-0.938235
C296	C	1.243076	0.117180	-0.604901
C297	C	1.576410	0.450513	-0.271568
C298	C	0.909642	-0.216253	-0.139683
C299	C	1.242975	0.117080	0.193651
C300	C	1.576308	0.450414	0.526984
C301	C	0.909743	-0.216138	-0.069715
C302	C	1.243076	0.117195	0.263618
C303	C	1.576409	0.450528	0.596952
H304	H	0.269074	-0.268303	-0.230068
H305	H	0.602407	0.065030	0.103265
H306	H	0.935741	0.398364	0.436598
H307	H	0.982711	-0.268340	-0.543496
H308	H	1.316044	0.064993	-0.210163
H309	H	1.649378	0.398326	0.123171
H310	H	0.550874	-0.164226	-0.376415
H311	H	0.884207	0.169108	-0.043082
H312	H	1.217540	0.502441	0.290251
H313	H	0.836817	-1.044883	-0.230217
H314	H	1.170150	-0.711550	0.103117
H315	H	1.503483	-0.378216	0.436450
H316	H	0.982585	-0.387174	-0.376287
H317	H	1.315918	-0.053841	-0.042954
H318	H	1.649251	0.279493	0.290380
H319	H	0.269300	-0.164189	-0.376439
H320	H	0.602633	0.169144	-0.043106
H321	H	0.935967	0.502478	0.290227
H322	H	0.836606	-0.472495	-0.230091
H323	H	1.169939	-0.139162	0.103242
H324	H	1.503272	0.194171	0.436575
H325	H	0.836752	-0.164024	-1.063609
H326	H	1.170086	0.169310	-0.730276
H327	H	1.503419	0.502643	-0.396942
H328	H	1.022893	-0.602941	-0.416641
H329	H	1.356227	-0.269607	-0.083307
H330	H	1.689560	0.063726	0.250026
N331	N	0.678844	-0.156654	-0.387059
N332	N	1.012178	0.176680	-0.053726
N333	N	1.345511	0.510013	0.279608
H334	H	0.725470	-0.161010	-0.380933
H335	H	1.058803	0.172324	-0.047600
H336	H	1.392137	0.505657	0.285734
H337	H	0.667370	-0.163682	-0.432001
H338	H	1.000703	0.169652	-0.098668
H339	H	1.334037	0.502985	0.234665
N340	N	0.826105	-0.156494	-0.671464
N341	N	1.159438	0.176840	-0.338131
N342	N	1.492771	0.510173	-0.004797
H343	H	0.832208	-0.160849	-0.718098
H344	H	1.165542	0.172484	-0.384764
H345	H	1.498875	0.505817	-0.051431
H346	H	0.781143	-0.163500	-0.659947
H347	H	1.114476	0.169833	-0.326614
H348	H	1.447810	0.503166	0.006720
H349	H	0.836775	-0.959774	-0.230206
H350	H	1.170109	-0.626441	0.103127
H351	H	1.503442	-0.293108	0.436460
N352	N	0.541946	-0.275919	-0.219382
N353	N	0.875279	0.057414	0.113951
N354	N	1.208612	0.390747	0.447285
H355	H	0.495321	-0.271561	-0.225507
H356	H	0.828654	0.061773	0.107826
H357	H	1.161987	0.395106	0.441160
H358	H	0.553395	-0.308016	-0.229086
H359	H	0.886728	0.025318	0.104247
H360	H	1.220062	0.358651	0.437580
H361	H	0.982607	-0.472283	-0.376324
H362	H	1.315940	-0.138950	-0.042991
H363	H	1.649273	0.194383	0.290343
H364	H	0.982733	-0.268255	-1.063605
H365	H	1.316067	0.065079	-0.730271
H366	H	1.649400	0.398412	-0.396938
N367	N	1.033543	-0.694234	-0.427329
N368	N	1.366876	-0.360901	-0.093996
N369	N	1.700210	-0.027568	0.239337
H370	H	1.059016	-0.672213	-0.452850
H371	H	1.392349	-0.338879	-0.119517
H372	H	1.725683	-0.005546	0.213816
H373	H	1.062704	-0.713695	-0.401752
H374	H	1.396037	-0.380362	-0.068419
H375	H	1.729371	-0.047029	0.264914
H376	H	1.022965	-0.828806	-0.416692
H377	H	1.356298	-0.495473	-0.083358
H378	H	1.689632	-0.162140	0.249975
N379	N	0.993366	-0.275865	-0.935647
N380	N	1.326699	0.057469	-0.602314
N381	N	1.660032	0.390802	-0.268980
H382	H	1.022552	-0.257606	-0.908393
H383	H	1.355885	0.075728	-0.575060
H384	H	1.689218	0.409061	-0.241726
H385	H	0.967720	-0.296686	-0.908384
H386	H	1.301053	0.036647	-0.575051
H387	H	1.634387	0.369980	-0.241718
H388	H	0.982792	-0.959569	-0.376420
H389	H	1.316125	-0.626236	-0.043087
H390	H	1.649458	-0.292902	0.290247
N391	N	0.993455	-1.050874	-0.387089
N392	N	1.326788	-0.717541	-0.053756
N393	N	1.660122	-0.384208	0.279577
H394	H	0.987358	-1.084164	-0.380977
H395	H	1.320691	-0.750830	-0.047644
H396	H	1.654024	-0.417497	0.285690
H397	H	0.983626	-1.042659	-0.432036
H398	H	1.316960	-0.709325	-0.098703
H399	H	1.650293	-0.375992	0.234630
N400	N	0.785827	-0.737816	-0.179224
N401	N	1.119161	-0.404482	0.154110
N402	N	1.452494	-0.071149	0.487443
H403	H	0.760351	-0.759836	-0.153704
H404	H	1.093684	-0.426502	0.179630
H405	H	1.427017	-0.093169	0.512963
H406	H	0.811462	-0.718348	-0.150110
H407	H	1.144796	-0.385015	0.183223
H408	H	1.478129	-0.051682	0.516557
N409	N	0.825942	-0.381189	-0.219421
N410	N	1.159275	-0.047856	0.113913
N411	N	1.492608	0.285478	0.447246
H412	H	0.832039	-0.347899	-0.225532
H413	H	1.165373	-0.014566	0.107802
H414	H	1.498706	0.318767	0.441135
H415	H	0.780981	-0.389418	-0.229180
H416	H	1.114315	-0.056084	0.104154
H417	H	1.447648	0.277249	0.437487
N418	N	0.826125	-0.156445	-0.935652
N419	N	1.159458	0.176889	-0.602318
N420	N	1.492792	0.510222	-0.268985
H421	H	0.800639	-0.138244	-0.966453
H422	H	1.133972	0.195089	-0.633119
H423	H	1.467305	0.528423	-0.299786
H424	H	0.796977	-0.174740	-0.908352
H425	H	1.130310	0.158594	-0.575018
H426	H	1.463643	0.491927	-0.241685
N427	N	0.993345	-0.275910	-0.671454
N428	N	1.326678	0.057423	-0.338121
N429	N	1.660012	0.390757	-0.004787
H430	H	1.022537	-0.257645	-0.698751
H431	H	1.355870	0.075688	-0.365417
H432	H	1.689204	0.409021	-0.032084
H433	H	1.018785	-0.294110	-0.640616
H434	H	1.352118	0.039224	-0.307283
H435	H	1.685452	0.372557	0.026050
H436	H	0.150036	-0.164170	-0.376441
H437	H	0.483369	0.169164	-0.043108
H438	H	0.816703	0.502497	0.290226
H439	H	0.669915	-0.268353	-0.230031
H440	H	1.003248	0.064980	0.103302
H441	H	1.336581	0.398314	0.436636
N442	N	0.785796	-0.694570	-0.179216
N443	N	1.119129	-0.361237	0.154118
N444	N	1.452462	-0.027904	0.487451
H445	H	0.760300	-0.672619	-0.153692
H446	H	1.093633	-0.339286	0.179641
H447	H	1.426967	-0.005952	0.512975
H448	H	0.756656	-0.714045	-0.204816
H449	H	1.089990	-0.380712	0.128517
H450	H	1.423323	-0.047378	0.461851
H451	H	0.149806	-0.268286	-0.230078
H452	H	0.483140	0.065047	0.103255
H453	H	0.816473	0.398380	0.436589
H454	H	0.796395	-0.603245	-0.189854
H455	H	1.129728	-0.269912	0.143480
H456	H	1.463062	0.063422	0.476813
N457	N	1.033573	-0.737471	-0.427325
N458	N	1.366906	-0.404138	-0.093992
N459	N	1.700239	-0.070805	0.239342
H460	H	1.059065	-0.759422	-0.452853
H461	H	1.392399	-0.426088	-0.119520
H462	H	1.725732	-0.092755	0.213813
H463	H	1.007929	-0.718010	-0.456431
H464	H	1.341262	-0.384677	-0.123098
H465	H	1.674595	-0.051343	0.210235
N466	N	0.785860	-0.835327	-0.179246
N467	N	1.119194	-0.501993	0.154088
N468	N	1.452527	-0.168660	0.487421
H469	H	0.760365	-0.813378	-0.153718
H470	H	1.093698	-0.480044	0.179616
H471	H	1.427031	-0.146711	0.512949
H472	H	0.756720	-0.854800	-0.204848
H473	H	1.090054	-0.521466	0.128486
H474	H	1.423387	-0.188133	0.461819
N475	N	0.826121	-0.156499	-0.534815
N476	N	1.159454	0.176834	-0.201481
N477	N	1.492788	0.510168	0.131852
H478	H	0.800642	-0.138294	-0.565617
H479	H	1.133975	0.195039	-0.232284
H480	H	1.467308	0.528372	0.101050
H481	H	0.796965	-0.174787	-0.507513
H482	H	1.130299	0.158546	-0.174180
H483	H	1.463632	0.491879	0.159154
