data_functionalizedCrystal
_audit_creation_method	'MofGen! by Chris Wilmer'
_symmetry_space_group_name_H-M	'P1'
_symmetry_Int_Tables_number	1
_symmetry_cell_setting	triclinic
loop_
_symmetry_equiv_pos_as_xyz
  x,y,z
_cell_length_a	12.759401
_cell_length_b	12.759387
_cell_length_c	12.759400
_cell_angle_alpha	89.969069
_cell_angle_beta	90.014845
_cell_angle_gamma	89.980294
loop_
_atom_site_label
_atom_site_type_symbol
_atom_site_fract_x
_atom_site_fract_y
_atom_site_fract_z
Zn1	Zn	1.606268	-0.593982	-0.418206
Zn2	Zn	1.606159	-0.418302	-0.593923
Zn3	Zn	1.430566	-0.418321	-0.418259
Zn4	Zn	1.430559	-0.593943	-0.593844
O5	O	1.518388	-0.506137	-0.506058
O6	O	1.753275	-0.570685	-0.441526
O7	O	1.582823	-0.271283	-0.570676
O8	O	1.453922	-0.441647	-0.271231
O9	O	1.753194	-0.441614	-0.570625
O10	O	1.583010	-0.570704	-0.271192
O11	O	1.453816	-0.271297	-0.441617
O12	O	1.283544	-0.441610	-0.441540
O13	O	1.453909	-0.740970	-0.570490
O14	O	1.283539	-0.570639	-0.570542
O15	O	1.583002	-0.740998	-0.441450
O16	O	1.582816	-0.441577	-0.740934
O17	O	1.453803	-0.570620	-0.740876
C18	C	1.245421	-0.506123	-0.506039
C19	C	1.128644	-0.506141	-0.506056
C20	C	1.073807	-0.573216	-0.573335
C21	C	0.964082	-0.573227	-0.573348
C22	C	0.964043	-0.439081	-0.438801
C23	C	1.073765	-0.439076	-0.438783
C24	C	1.128685	-0.640281	-0.640607
C25	C	1.073848	-0.707360	-0.707892
C26	C	0.964124	-0.707372	-0.707906
C27	C	0.909237	-0.640304	-0.640634
C28	C	1.518467	-0.780170	-0.505955
C29	C	1.518501	-0.896947	-0.505912
C30	C	1.652935	-0.896996	-0.371551
C31	C	1.720166	-0.951882	-0.304354
C32	C	1.720192	-1.061603	-0.304316
C33	C	1.652976	-1.116442	-0.371479
C34	C	1.585745	-1.061557	-0.438675
C35	C	1.585729	-0.951833	-0.438708
C36	C	1.451308	-1.061508	-0.573029
C37	C	1.451286	-0.951786	-0.573075
C38	C	1.384092	-1.116347	-0.640192
C39	C	1.316865	-1.061461	-0.707395
C40	C	1.316843	-0.951733	-0.707432
C41	C	1.384054	-0.896901	-0.640271
C42	C	1.792421	-0.506152	-0.506079
C43	C	1.909198	-0.506158	-0.506087
C44	C	1.518326	-0.506115	-0.779026
C45	C	1.518395	-0.506141	-0.895802
C46	C	1.518369	-0.233169	-0.506085
C47	C	1.518539	-0.116393	-0.505833
C48	C	1.585646	-0.439022	-0.950660
C49	C	1.585711	-0.439055	-1.060384
C50	C	1.451264	-0.573327	-1.060383
C51	C	1.451205	-0.573299	-0.950661
C52	C	1.652836	-0.371864	-0.895801
C53	C	1.720092	-0.304739	-0.950658
C54	C	1.720157	-0.304772	-1.060382
C55	C	1.652965	-0.371929	-1.115249
C56	C	1.518479	-0.506182	-0.232025
C57	C	1.518518	-0.506201	-0.115248
H58	H	1.118415	-0.384466	-0.383991
C59	C	1.410855	-1.273500	-0.740095
C60	C	1.384117	-1.236954	-0.640155
H61	H	1.410864	-1.347958	-0.740074
H62	H	1.478634	-1.248685	-0.758272
H63	H	1.361188	-1.248652	-0.789715
H64	H	1.433789	-1.261796	-0.590536
H65	H	1.316328	-1.261779	-0.621965
C66	C	0.752134	-0.740332	-0.613931
C67	C	0.788626	-0.640332	-0.640605
H68	H	0.677675	-0.740349	-0.613910
H69	H	0.777006	-0.758598	-0.546169
H70	H	0.776959	-0.789863	-0.663638
H71	H	0.763807	-0.590801	-0.590894
H72	H	0.763743	-0.622053	-0.708376
C73	C	1.285813	-0.540274	-0.667247
C74	C	1.249295	-0.640271	-0.640596
H75	H	1.360271	-0.540270	-0.667246
H76	H	1.260980	-0.490748	-0.617554
H77	H	1.260965	-0.521998	-0.735026
H78	H	1.274136	-0.658544	-0.572813
H79	H	1.274139	-0.689813	-0.690291
C80	C	0.795826	-0.379511	-0.379107
C81	C	0.903713	-0.365349	-0.364876
H82	H	0.758585	-0.333982	-0.333475
H83	H	0.777876	-0.450118	-0.363808
H84	H	0.777849	-0.364021	-0.449689
H85	H	0.921692	-0.380847	-0.294295
H86	H	0.921671	-0.294726	-0.380167
H87	H	1.118544	-0.761971	-0.762656
H88	H	1.774804	-0.250068	-0.905980
C89	C	1.483972	-0.739744	-0.667109
C90	C	1.384042	-0.776293	-0.640303
H91	H	1.483967	-0.665285	-0.667118
H92	H	1.502098	-0.764544	-0.734901
H93	H	1.533620	-0.764602	-0.617476
H94	H	1.334395	-0.751441	-0.689941
H95	H	1.365904	-0.751481	-0.572502
C96	C	1.771457	-1.095440	-0.126411
C97	C	1.794093	-1.121938	-0.230453
H98	H	1.817085	-1.132684	-0.080814
H99	H	1.700885	-1.113419	-0.111026
H100	H	1.781067	-1.022244	-0.116829
H101	H	1.784475	-1.195133	-0.240037
H102	H	1.864681	-1.103966	-0.245843
C103	C	0.840716	-0.721732	-0.849255
C104	C	0.903841	-0.781105	-0.781857
H105	H	0.803498	-0.767253	-0.894907
H106	H	0.883496	-0.675892	-0.889377
H107	H	0.792332	-0.681797	-0.809184
H108	H	0.952231	-0.821034	-0.821927
H109	H	0.861058	-0.826963	-0.741730
H110	H	1.652930	-0.807655	-0.371585
H111	H	1.774890	-0.907220	-0.249670
H112	H	1.774927	-0.250123	-1.105044
H113	H	1.652994	-1.205783	-0.371433
C114	C	1.183972	-0.962716	-0.840252
C115	C	1.242950	-0.891407	-0.781310
H116	H	1.138362	-0.925473	-0.885869
H117	H	1.143805	-1.005504	-0.794455
H118	H	1.229752	-1.005520	-0.880418
H119	H	1.197170	-0.848607	-0.741137
H120	H	1.283120	-0.848601	-0.827112
H121	H	1.396444	-0.627954	-0.905996
H122	H	1.653031	-0.371958	-1.204593
H123	H	1.262138	-1.106120	-0.762068
H124	H	1.652788	-0.371827	-0.806458
C125	C	1.391651	-0.632978	-1.228582
C126	C	1.377401	-0.647133	-1.120691
H127	H	1.346043	-0.678538	-1.265810
H128	H	1.462234	-0.648423	-1.246491
H129	H	1.376321	-0.562374	-1.246618
H130	H	1.392739	-0.717735	-1.102654
H131	H	1.306802	-0.631695	-1.102776
