data_functionalizedCrystal
_audit_creation_method	'MofGen! by Chris Wilmer'
_symmetry_space_group_name_H-M	'P1'
_symmetry_Int_Tables_number	1
_symmetry_cell_setting	triclinic
loop_
_symmetry_equiv_pos_as_xyz
  x,y,z
_cell_length_a	15.297475
_cell_length_b	18.050589
_cell_length_c	18.050582
_cell_angle_alpha	89.981795
_cell_angle_beta	80.321138
_cell_angle_gamma	80.331321
loop_
_atom_site_label
_atom_site_type_symbol
_atom_site_fract_x
_atom_site_fract_y
_atom_site_fract_z
Zn1	Zn	1.379108	-0.492498	-0.616076
Zn2	Zn	1.378999	-0.616666	-0.491880
Zn3	Zn	1.228258	-0.470984	-0.470446
Zn4	Zn	1.228195	-0.595116	-0.594581
O5	O	1.303640	-0.543816	-0.543246
O6	O	1.505337	-0.526991	-0.617567
O7	O	1.358984	-0.597356	-0.385110
O8	O	1.248340	-0.369924	-0.489790
O9	O	1.505257	-0.618217	-0.526321
O10	O	1.359169	-0.385730	-0.596784
O11	O	1.248235	-0.490324	-0.369362
O12	O	1.102006	-0.469428	-0.468946
O13	O	1.248233	-0.581489	-0.701360
O14	O	1.101960	-0.560628	-0.560148
O15	O	1.359108	-0.506095	-0.717152
O16	O	1.358923	-0.717721	-0.505478
O17	O	1.248128	-0.701889	-0.580932
C18	C	1.069249	-0.510355	-0.509889
C19	C	0.968976	-0.496059	-0.495637
C20	C	0.686326	-0.646002	-0.645112
C21	C	0.780537	-0.659440	-0.658501
C22	C	0.827652	-0.618595	-0.617786
C23	C	0.780545	-0.564311	-0.563680
C24	C	0.686324	-0.550876	-0.550286
C25	C	0.827650	-0.523470	-0.522960
C26	C	0.780543	-0.469186	-0.468854
C27	C	0.686332	-0.455753	-0.455462
C28	C	0.639217	-0.496597	-0.496177
C29	C	0.921871	-0.536905	-0.536354
C30	C	0.921870	-0.441780	-0.441528
C31	C	0.827658	-0.428342	-0.428139
C32	C	1.303531	-0.736753	-0.543218
C33	C	1.303567	-0.819303	-0.543243
C34	C	1.243376	-1.010180	-0.584265
C35	C	1.221391	-1.056477	-0.513371
C36	C	1.303656	-0.970446	-0.543265
C37	C	1.325685	-1.071238	-0.614173
C38	C	1.303740	-1.116444	-0.543292
C39	C	1.281628	-1.015650	-0.472329
C40	C	1.385960	-1.030412	-0.573182
C41	C	1.364006	-1.076691	-0.502245
C42	C	1.303605	-0.886341	-0.543250
C43	C	1.303790	-1.200547	-0.543300
C44	C	1.538946	-0.577408	-0.576733
C45	C	1.639219	-0.591722	-0.591003
C46	C	1.303675	-0.543788	-0.736956
C47	C	1.303690	-0.543776	-0.819504
C48	C	1.303774	-0.350129	-0.543293
C49	C	1.303831	-0.267592	-0.543314
C50	C	1.243443	-0.584714	-1.010374
C51	C	1.325749	-0.614612	-1.071472
C52	C	1.303735	-0.543726	-0.970641
C53	C	1.221474	-0.513814	-1.056631
C54	C	1.303771	-0.543678	-1.116631
C55	C	1.386084	-0.573666	-1.030659
C56	C	1.281754	-0.472828	-1.015805
C57	C	1.364117	-0.502708	-1.076889
C58	C	1.303713	-0.543755	-0.886540
C59	C	1.303802	-0.543649	-1.200732
C60	C	1.303657	-0.543798	-0.350296
C61	C	1.303817	-0.543625	-0.267773
H62	H	0.818885	-0.703639	-0.702553
F63	F	1.350079	-0.692954	-1.103302
H64	H	1.455687	-0.599012	-1.018956
H65	H	0.647957	-0.679256	-0.678252
F66	F	1.430855	-0.457387	-1.114530
H67	H	1.263116	-0.412903	-0.991434
F68	F	1.257215	-0.983981	-0.393926
H69	H	1.151892	-0.488535	-1.068427
H70	H	1.151829	-1.068331	-0.488089
F71	F	0.971995	-0.594676	-0.593937
F72	F	0.538945	-0.482294	-0.481934
H73	H	1.415019	-1.105480	-0.467536
H74	H	0.904363	-0.629540	-0.628691
H75	H	0.647980	-0.411559	-0.411397
H76	H	1.455506	-1.018558	-0.598494
H77	H	1.344283	-1.095547	-0.674129
F78	F	0.972007	-0.398310	-0.398190
F79	F	0.777512	-0.370570	-0.370557
H80	H	1.192324	-0.981248	-0.618868
F81	F	1.176861	-0.630098	-0.972578
