data_functionalizedCrystal
_audit_creation_method	'MofGen! by Chris Wilmer'
_symmetry_space_group_name_H-M	'P1'
_symmetry_Int_Tables_number	1
_symmetry_cell_setting	triclinic
loop_
_symmetry_equiv_pos_as_xyz
  x,y,z
_cell_length_a	29.839131
_cell_length_b	29.839134
_cell_length_c	29.839125
_cell_angle_alpha	90.026045
_cell_angle_beta	89.982291
_cell_angle_gamma	89.966214
loop_
_atom_site_label
_atom_site_type_symbol
_atom_site_fract_x
_atom_site_fract_y
_atom_site_fract_z
Zn1	Zn	-0.179008	-0.686720	-0.254174
Zn2	Zn	0.070992	-0.436720	-0.004174
Zn3	Zn	0.320992	-0.186720	0.245826
Zn4	Zn	0.570992	0.063280	0.495826
Zn5	Zn	-0.254120	-0.686652	-0.179044
Zn6	Zn	-0.004120	-0.436652	0.070956
Zn7	Zn	0.245880	-0.186652	0.320956
Zn8	Zn	0.495880	0.063348	0.570956
Zn9	Zn	-0.178995	-0.611602	-0.179038
Zn10	Zn	0.071005	-0.361602	0.070962
Zn11	Zn	0.321005	-0.111602	0.320962
Zn12	Zn	0.571005	0.138398	0.570962
Zn13	Zn	-0.254101	-0.611550	-0.254127
Zn14	Zn	-0.004101	-0.361550	-0.004127
Zn15	Zn	0.245899	-0.111550	0.245873
Zn16	Zn	0.495899	0.138450	0.495873
O17	O	-0.216556	-0.649131	-0.216596
O18	O	0.033444	-0.399131	0.033404
O19	O	0.283444	-0.149131	0.283404
O20	O	0.533444	0.100869	0.533404
O21	O	-0.188985	-0.749578	-0.244230
O22	O	0.061015	-0.499578	0.005770
O23	O	0.311015	-0.249578	0.255770
O24	O	0.561015	0.000422	0.505770
O25	O	-0.244156	-0.676690	-0.116176
O26	O	0.005844	-0.426690	0.133824
O27	O	0.255844	-0.176690	0.383824
O28	O	0.505844	0.073310	0.633824
O29	O	-0.116129	-0.621617	-0.189022
O30	O	0.133871	-0.371617	0.060978
O31	O	0.383871	-0.121617	0.310978
O32	O	0.633871	0.128383	0.560978
O33	O	-0.244169	-0.749528	-0.189032
O34	O	0.005831	-0.499528	0.060968
O35	O	0.255831	-0.249528	0.310968
O36	O	0.505831	0.000472	0.560968
O37	O	-0.116139	-0.676805	-0.244224
O38	O	0.133861	-0.426805	0.005776
O39	O	0.383861	-0.176805	0.255776
O40	O	0.633861	0.073195	0.505776
O41	O	-0.188962	-0.621551	-0.116172
O42	O	0.061038	-0.371551	0.133828
O43	O	0.311038	-0.121551	0.383828
O44	O	0.561038	0.128449	0.633828
O45	O	-0.188945	-0.548728	-0.188977
O46	O	0.061055	-0.298728	0.061023
O47	O	0.311055	-0.048728	0.311023
O48	O	0.561055	0.201272	0.561023
O49	O	-0.244138	-0.621528	-0.317000
O50	O	0.005862	-0.371528	-0.067000
O51	O	0.255862	-0.121528	0.183000
O52	O	0.505862	0.128472	0.433000
O53	O	-0.244125	-0.548690	-0.244144
O54	O	0.005875	-0.298690	0.005856
O55	O	0.255875	-0.048690	0.255856
O56	O	0.505875	0.201310	0.505856
O57	O	-0.188967	-0.676755	-0.317035
O58	O	0.061033	-0.426755	-0.067035
O59	O	0.311033	-0.176755	0.182965
O60	O	0.561033	0.073245	0.432965
O61	O	-0.316985	-0.676639	-0.188986
O62	O	-0.066985	-0.426639	0.061014
O63	O	0.183015	-0.176639	0.311014
O64	O	0.433015	0.073361	0.561014
O65	O	-0.316971	-0.621462	-0.244150
O66	O	-0.066971	-0.371462	0.005850
O67	O	0.183029	-0.121462	0.255850
O68	O	0.433029	0.128538	0.505850
C69	C	-0.216532	-0.532408	-0.216555
C70	C	0.033468	-0.282408	0.033445
C71	C	0.283468	-0.032408	0.283445
C72	C	0.533468	0.217592	0.533445
C73	C	-0.216532	-0.482474	-0.216548
C74	C	0.033468	-0.232474	0.033452
C75	C	0.283468	0.017526	0.283452
C76	C	0.533468	0.267526	0.533452
C77	C	-0.187777	-0.125894	-0.187913
C78	C	0.062223	0.124106	0.062087
C79	C	0.312223	0.374106	0.312087
C80	C	0.562223	0.624106	0.562087
C81	C	-0.187766	-0.313567	-0.187891
C82	C	0.062234	-0.063567	0.062109
C83	C	0.312234	0.186433	0.312109
C84	C	0.562234	0.436433	0.562109
O85	O	-0.163282	-0.337838	-0.163512
O86	O	0.086718	-0.087838	0.086488
O87	O	0.336718	0.162162	0.336488
O88	O	0.586718	0.412162	0.586488
N89	N	-0.216539	-0.337029	-0.216566
N90	N	0.033461	-0.087029	0.033434
N91	N	0.283461	0.162971	0.283434
N92	N	0.533461	0.412971	0.533434
C93	C	-0.245314	-0.313569	-0.245251
C94	C	0.004686	-0.063569	0.004749
C95	C	0.254686	0.186431	0.254749
C96	C	0.504686	0.436431	0.504749
O97	O	-0.269783	-0.337831	-0.269644
O98	O	-0.019783	-0.087831	-0.019644
O99	O	0.230217	0.162169	0.230356
O100	O	0.480217	0.412169	0.480356
C101	C	-0.245323	-0.125897	-0.245275
C102	C	0.004677	0.124103	0.004725
C103	C	0.254677	0.374103	0.254725
C104	C	0.504677	0.624103	0.504725
C105	C	-0.216552	-0.102438	-0.216594
C106	C	0.033448	0.147562	0.033406
C107	C	0.283448	0.397562	0.283406
C108	C	0.533448	0.647562	0.533406
C109	C	-0.159008	-0.102435	-0.159235
C110	C	0.090992	0.147565	0.090765
C111	C	0.340992	0.397565	0.340765
C112	C	0.590992	0.647565	0.590765
C113	C	-0.159013	-0.055520	-0.159239
C114	C	0.090987	0.194480	0.090761
C115	C	0.340987	0.444480	0.340761
C116	C	0.590987	0.694480	0.590761
C117	C	-0.187787	-0.032063	-0.187921
C118	C	0.062213	0.217937	0.062079
C119	C	0.312213	0.467937	0.312079
C120	C	0.562213	0.717937	0.562079
C121	C	-0.216556	-0.055522	-0.216598
C122	C	0.033444	0.194478	0.033402
C123	C	0.283444	0.444478	0.283402
C124	C	0.533444	0.694478	0.533402
C125	C	-0.274096	-0.102438	-0.273961
C126	C	-0.024096	0.147562	-0.023961
C127	C	0.225904	0.397562	0.226039
C128	C	0.475904	0.647562	0.476039
C129	C	-0.274095	-0.055517	-0.273965
C130	C	-0.024095	0.194483	-0.023965
C131	C	0.225905	0.444483	0.226035
C132	C	0.475905	0.694483	0.476035
C133	C	-0.245323	-0.032058	-0.245285
C134	C	0.004677	0.217942	0.004715
C135	C	0.254677	0.467942	0.254715
C136	C	0.504677	0.717942	0.504715
C137	C	-0.245336	0.014849	-0.245284
C138	C	0.004664	0.264849	0.004716
C139	C	0.254664	0.514849	0.254716
C140	C	0.504664	0.764849	0.504716
N141	N	-0.216563	0.038311	-0.216609
N142	N	0.033437	0.288311	0.033391
N143	N	0.283437	0.538311	0.283391
N144	N	0.533437	0.788311	0.533391
C145	C	-0.187789	0.014854	-0.187927
C146	C	0.062211	0.264854	0.062073
C147	C	0.312211	0.514854	0.312073
C148	C	0.562211	0.764854	0.562073
C149	C	-0.245308	-0.412100	-0.245236
C150	C	0.004692	-0.162100	0.004764
C151	C	0.254692	0.087900	0.254764
C152	C	0.504692	0.337900	0.504764
C153	C	-0.245306	-0.459018	-0.245230
C154	C	0.004694	-0.209018	0.004770
C155	C	0.254694	0.040982	0.254770
C156	C	0.504694	0.290982	0.504770
C157	C	-0.187758	-0.459013	-0.187870
C158	C	0.062242	-0.209013	0.062130
C159	C	0.312242	0.040987	0.312130
C160	C	0.562242	0.290987	0.562130
C161	C	-0.187762	-0.412094	-0.187875
C162	C	0.062238	-0.162094	0.062125
C163	C	0.312238	0.087906	0.312125
C164	C	0.562238	0.337906	0.562125
C165	C	-0.216535	-0.388638	-0.216561
C166	C	0.033465	-0.138638	0.033439
C167	C	0.283465	0.111362	0.283439
C168	C	0.533465	0.361362	0.533439
C169	C	-0.187801	0.113380	-0.187937
C170	C	0.062199	0.363380	0.062063
C171	C	0.312199	0.613380	0.312063
C172	C	0.562199	0.863380	0.562063
C173	C	-0.187810	0.160300	-0.187942
C174	C	0.062190	0.410300	0.062058
C175	C	0.312190	0.660300	0.312058
C176	C	0.562190	0.910300	0.562058
C177	C	-0.245357	0.160291	-0.245303
C178	C	0.004643	0.410291	0.004697
C179	C	0.254643	0.660291	0.254697
C180	C	0.504643	0.910291	0.504697
C181	C	-0.245350	0.113375	-0.245297
C182	C	0.004650	0.363375	0.004703
C183	C	0.254650	0.613375	0.254703
C184	C	0.504650	0.863375	0.504703
C185	C	-0.216569	0.089921	-0.216612
C186	C	0.033431	0.339921	0.033388
C187	C	0.283431	0.589921	0.283388
C188	C	0.533431	0.839921	0.533388
O189	O	-0.269803	0.039149	-0.269653
O190	O	-0.019803	0.289149	-0.019653
O191	O	0.230197	0.539149	0.230347
O192	O	0.480197	0.789149	0.480347
O193	O	-0.163316	0.039124	-0.163545
O194	O	0.086684	0.289124	0.086455
O195	O	0.336684	0.539124	0.336455
O196	O	0.586684	0.789124	0.586455
C197	C	-0.187773	-0.172810	-0.187909
C198	C	0.062227	0.077190	0.062091
C199	C	0.312227	0.327190	0.312091
C200	C	0.562227	0.577190	0.562091
C201	C	-0.216542	-0.196269	-0.216586
C202	C	0.033458	0.053731	0.033414
C203	C	0.283458	0.303731	0.283414
C204	C	0.533458	0.553731	0.533414
C205	C	-0.245316	-0.172812	-0.245268
C206	C	0.004684	0.077188	0.004732
C207	C	0.254684	0.327188	0.254732
C208	C	0.504684	0.577188	0.504732
C209	C	-0.216540	-0.243187	-0.216580
C210	C	0.033460	0.006813	0.033420
C211	C	0.283460	0.256813	0.283420
C212	C	0.533460	0.506813	0.533420
C213	C	-0.187766	-0.266643	-0.187898
C214	C	0.062234	-0.016643	0.062102
C215	C	0.312234	0.233357	0.312102
C216	C	0.562234	0.483357	0.562102
C217	C	-0.158994	-0.243182	-0.159223
C218	C	0.091006	0.006818	0.090777
C219	C	0.341006	0.256818	0.340777
C220	C	0.591006	0.506818	0.590777
C221	C	-0.158998	-0.196266	-0.159227
C222	C	0.091002	0.053734	0.090773
C223	C	0.341002	0.303734	0.340773
C224	C	0.591002	0.553734	0.590773
C225	C	-0.274089	-0.196274	-0.273943
C226	C	-0.024089	0.053726	-0.023943
C227	C	0.225911	0.303726	0.226057
C228	C	0.475911	0.553726	0.476057
C229	C	-0.274082	-0.243189	-0.273936
C230	C	-0.024082	0.006811	-0.023936
C231	C	0.225918	0.256811	0.226064
C232	C	0.475918	0.506811	0.476064
C233	C	-0.245308	-0.266646	-0.245255
C234	C	0.004692	-0.016646	0.004745
C235	C	0.254692	0.233354	0.254745
C236	C	0.504692	0.483354	0.504745
C237	C	-0.333279	-0.649050	-0.216573
C238	C	-0.083279	-0.399050	0.033427
C239	C	0.166721	-0.149050	0.283427
C240	C	0.416721	0.100950	0.533427
C241	C	-0.383213	-0.649056	-0.216579
C242	C	-0.133213	-0.399056	0.033421
C243	C	0.116787	-0.149056	0.283421
C244	C	0.366787	0.100944	0.533421
C245	C	-0.692851	-0.677914	-0.187914
C246	C	-0.442851	-0.427914	0.062086
C247	C	-0.192851	-0.177914	0.312086
C248	C	0.057149	0.072086	0.562086
C249	C	-0.880524	-0.677969	-0.187931
C250	C	-0.630524	-0.427969	0.062069
C251	C	-0.380524	-0.177969	0.312069
C252	C	-0.130524	0.072031	0.562069
O253	O	-0.904784	-0.702441	-0.163543
O254	O	-0.654784	-0.452441	0.086457
O255	O	-0.404784	-0.202441	0.336457
O256	O	-0.154784	0.047559	0.586457
N257	N	-0.903998	-0.649224	-0.216629
N258	N	-0.653998	-0.399224	0.033371
N259	N	-0.403998	-0.149224	0.283371
N260	N	-0.153998	0.100776	0.533371
C261	C	-0.880551	-0.620465	-0.245327
C262	C	-0.630551	-0.370465	0.004673
C263	C	-0.380551	-0.120465	0.254673
C264	C	-0.130551	0.129535	0.504673
O265	O	-0.904824	-0.596020	-0.269740
O266	O	-0.654824	-0.346020	-0.019740
O267	O	-0.404824	-0.096020	0.230260
O268	O	-0.154824	0.153980	0.480260
C269	C	-0.692879	-0.620412	-0.245312
C270	C	-0.442879	-0.370412	0.004688
C271	C	-0.192879	-0.120412	0.254688
C272	C	0.057121	0.129588	0.504688
C273	C	-0.669407	-0.649156	-0.216609
C274	C	-0.419407	-0.399156	0.033391
C275	C	-0.169407	-0.149156	0.283391
C276	C	0.080593	0.100844	0.533391
C277	C	-0.669379	-0.706656	-0.159214
C278	C	-0.419379	-0.456656	0.090786
C279	C	-0.169379	-0.206656	0.340786
C280	C	0.080621	0.043344	0.590786
C281	C	-0.622463	-0.706640	-0.159208
C282	C	-0.372463	-0.456640	0.090792
C283	C	-0.122463	-0.206640	0.340792
C284	C	0.127537	0.043360	0.590792
C285	C	-0.599020	-0.677882	-0.187902
C286	C	-0.349020	-0.427882	0.062098
C287	C	-0.099020	-0.177882	0.312098
C288	C	0.150980	0.072118	0.562098
C289	C	-0.622492	-0.649140	-0.216603
C290	C	-0.372492	-0.399140	0.033397
C291	C	-0.122492	-0.149140	0.283397
C292	C	0.127508	0.100860	0.533397
C293	C	-0.669433	-0.591656	-0.274011
C294	C	-0.419433	-0.341656	-0.024011
C295	C	-0.169433	-0.091656	0.225989
C296	C	0.080567	0.158344	0.475989
C297	C	-0.622512	-0.591646	-0.274006
C298	C	-0.372512	-0.341646	-0.024006
C299	C	-0.122512	-0.091646	0.225994
C300	C	0.127488	0.158354	0.475994
C301	C	-0.599040	-0.620390	-0.245303
C302	C	-0.349040	-0.370390	0.004697
C303	C	-0.099040	-0.120390	0.254697
C304	C	0.150960	0.129610	0.504697
C305	C	-0.552133	-0.620367	-0.245292
C306	C	-0.302133	-0.370367	0.004708
C307	C	-0.052133	-0.120367	0.254708
C308	C	0.197867	0.129633	0.504708
N309	N	-0.528658	-0.649112	-0.216594
N310	N	-0.278658	-0.399112	0.033406
N311	N	-0.028658	-0.149112	0.283406
N312	N	0.221342	0.100888	0.533406
C313	C	-0.552102	-0.677869	-0.187899
C314	C	-0.302102	-0.427869	0.062101
C315	C	-0.052102	-0.177869	0.312101
C316	C	0.197898	0.072131	0.562101
C317	C	-0.979082	-0.620494	-0.245333
C318	C	-0.729082	-0.370494	0.004667
C319	C	-0.479082	-0.120494	0.254667
C320	C	-0.229082	0.129506	0.504667
C321	C	-1.026000	-0.620507	-0.245336
C322	C	-0.776000	-0.370507	0.004664
C323	C	-0.526000	-0.120507	0.254664
C324	C	-0.276000	0.129493	0.504664
C325	C	-1.025969	-0.678012	-0.187941
C326	C	-0.775969	-0.428012	0.062059
C327	C	-0.525969	-0.178012	0.312059
C328	C	-0.275969	0.071988	0.562059
C329	C	-0.979050	-0.677996	-0.187936
C330	C	-0.729050	-0.427996	0.062064
C331	C	-0.479050	-0.177996	0.312064
C332	C	-0.229050	0.072004	0.562064
C333	C	-0.955607	-0.649239	-0.216635
C334	C	-0.705607	-0.399239	0.033365
C335	C	-0.455607	-0.149239	0.283365
C336	C	-0.205607	0.100761	0.533365
C337	C	-0.453576	-0.677834	-0.187889
C338	C	-0.203576	-0.427834	0.062111
C339	C	0.046424	-0.177834	0.312111
C340	C	0.296424	0.072166	0.562111
C341	C	-0.406657	-0.677814	-0.187884
C342	C	-0.156657	-0.427814	0.062116
C343	C	0.093343	-0.177814	0.312116
C344	C	0.343343	0.072186	0.562116
C345	C	-0.406691	-0.620311	-0.245281
C346	C	-0.156691	-0.370311	0.004719
C347	C	0.093309	-0.120311	0.254719
C348	C	0.343309	0.129689	0.504719
C349	C	-0.453607	-0.620329	-0.245284
C350	C	-0.203607	-0.370329	0.004716
C351	C	0.046393	-0.120329	0.254716
C352	C	0.296393	0.129671	0.504716
C353	C	-0.477048	-0.649094	-0.216586
C354	C	-0.227048	-0.399094	0.033414
C355	C	0.022952	-0.149094	0.283414
C356	C	0.272952	0.100906	0.533414
O357	O	-0.527844	-0.595912	-0.269671
O358	O	-0.277844	-0.345912	-0.019671
O359	O	-0.027844	-0.095912	0.230329
O360	O	0.222156	0.154088	0.480329
O361	O	-0.527821	-0.702318	-0.163497
O362	O	-0.277821	-0.452318	0.086503
O363	O	-0.027821	-0.202318	0.336503
O364	O	0.222179	0.047682	0.586503
C365	C	-0.739766	-0.677930	-0.187920
C366	C	-0.489766	-0.427930	0.062080
C367	C	-0.239766	-0.177930	0.312080
C368	C	0.010234	0.072070	0.562080
C369	C	-0.763238	-0.649188	-0.216620
C370	C	-0.513238	-0.399188	0.033380
C371	C	-0.263238	-0.149188	0.283380
C372	C	-0.013238	0.100812	0.533380
C373	C	-0.739794	-0.620430	-0.245315
C374	C	-0.489794	-0.370430	0.004685
C375	C	-0.239794	-0.120430	0.254685
C376	C	0.010206	0.129570	0.504685
C377	C	-0.810156	-0.649200	-0.216624
C378	C	-0.560156	-0.399200	0.033376
C379	C	-0.310156	-0.149200	0.283376
C380	C	-0.060156	0.100800	0.533376
C381	C	-0.833599	-0.677958	-0.187929
C382	C	-0.583599	-0.427958	0.062071
C383	C	-0.333599	-0.177958	0.312071
C384	C	-0.083599	0.072042	0.562071
C385	C	-0.810125	-0.706703	-0.159231
C386	C	-0.560125	-0.456703	0.090769
C387	C	-0.310125	-0.206703	0.340769
C388	C	-0.060125	0.043297	0.590769
C389	C	-0.763210	-0.706687	-0.159225
C390	C	-0.513210	-0.456687	0.090775
C391	C	-0.263210	-0.206687	0.340775
C392	C	-0.013210	0.043313	0.590775
C393	C	-0.763269	-0.591685	-0.274013
C394	C	-0.513269	-0.341685	-0.024013
C395	C	-0.263269	-0.091685	0.225987
C396	C	-0.013269	0.158315	0.475987
C397	C	-0.810184	-0.591703	-0.274016
C398	C	-0.560184	-0.341703	-0.024016
C399	C	-0.310184	-0.091703	0.225984
C400	C	-0.060184	0.158297	0.475984
C401	C	-0.833628	-0.620461	-0.245321
C402	C	-0.583628	-0.370461	0.004679
C403	C	-0.333628	-0.120461	0.254679
C404	C	-0.083628	0.129539	0.504679
C405	C	-0.099378	-0.649225	-0.216628
C406	C	0.150622	-0.399225	0.033372
C407	C	0.400622	-0.149225	0.283372
C408	C	0.650622	0.100775	0.533372
C409	C	-0.049443	-0.649265	-0.216641
C410	C	0.200557	-0.399265	0.033359
C411	C	0.450557	-0.149265	0.283359
C412	C	0.700557	0.100735	0.533359
C413	C	-0.216552	-0.649143	-0.333774
C414	C	0.033448	-0.399143	-0.083774
C415	C	0.283448	-0.149143	0.166226
C416	C	0.533448	0.100857	0.416226
C417	C	-0.216550	-0.649148	-0.383708
C418	C	0.033450	-0.399148	-0.133708
C419	C	0.283450	-0.149148	0.116292
C420	C	0.533450	0.100852	0.366292
C421	C	-0.216579	0.233691	-0.216629
C422	C	0.033421	0.483691	0.033371
C423	C	0.283421	0.733691	0.283371
C424	C	0.533421	0.983691	0.533371
C425	C	-0.216584	0.183756	-0.216624
C426	C	0.033416	0.433756	0.033376
C427	C	0.283416	0.683756	0.283376
C428	C	0.533416	0.933756	0.533376
C429	C	-0.187747	-0.677935	-0.693373
C430	C	0.062253	-0.427935	-0.443373
C431	C	0.312253	-0.177935	-0.193373
C432	C	0.562253	0.072065	0.056627
C433	C	-0.187709	-0.677957	-0.881046
C434	C	0.062291	-0.427957	-0.631046
C435	C	0.312291	-0.177957	-0.381046
C436	C	0.562291	0.072043	-0.131046
O437	O	-0.163262	-0.702399	-0.905329
O438	O	0.086738	-0.452399	-0.655329
O439	O	0.336738	-0.202399	-0.405329
O440	O	0.586738	0.047601	-0.155329
N441	N	-0.216430	-0.649208	-0.904494
N442	N	0.033570	-0.399208	-0.654494
N443	N	0.283570	-0.149208	-0.404494
N444	N	0.533570	0.100792	-0.154494
C445	C	-0.245160	-0.620449	-0.881020
C446	C	0.004840	-0.370449	-0.631020
C447	C	0.254840	-0.120449	-0.381020
C448	C	0.504840	0.129551	-0.131020
O449	O	-0.269585	-0.595993	-0.905270
O450	O	-0.019585	-0.345993	-0.655270
O451	O	0.230415	-0.095993	-0.405270
O452	O	0.480415	0.154007	-0.155270
C453	C	-0.245196	-0.620424	-0.693348
C454	C	0.004804	-0.370424	-0.443348
C455	C	0.254804	-0.120424	-0.193348
C456	C	0.504804	0.129576	0.056652
C457	C	-0.216476	-0.649179	-0.669903
C458	C	0.033524	-0.399179	-0.419903
C459	C	0.283524	-0.149179	-0.169903
C460	C	0.533524	0.100821	0.080097
C461	C	-0.159030	-0.706687	-0.669928
C462	C	0.090970	-0.456687	-0.419928
C463	C	0.340970	-0.206687	-0.169928
C464	C	0.590970	0.043313	0.080072
C465	C	-0.159042	-0.706683	-0.623012
C466	C	0.090958	-0.456683	-0.373012
C467	C	0.340958	-0.206683	-0.123012
C468	C	0.590958	0.043317	0.126988
C469	C	-0.187771	-0.677927	-0.599542
C470	C	0.062229	-0.427927	-0.349542
C471	C	0.312229	-0.177927	-0.099542
C472	C	0.562229	0.072073	0.150458
C473	C	-0.216488	-0.649175	-0.622987
C474	C	0.033512	-0.399175	-0.372987
C475	C	0.283512	-0.149175	-0.122987
C476	C	0.533512	0.100825	0.127013
C477	C	-0.273924	-0.591663	-0.669875
C478	C	-0.023924	-0.341663	-0.419875
C479	C	0.226076	-0.091663	-0.169875
C480	C	0.476076	0.158337	0.080125
C481	C	-0.273929	-0.591659	-0.622954
C482	C	-0.023929	-0.341659	-0.372954
C483	C	0.226071	-0.091659	-0.122954
C484	C	0.476071	0.158341	0.127046
C485	C	-0.245210	-0.620414	-0.599509
C486	C	0.004790	-0.370414	-0.349509
C487	C	0.254790	-0.120414	-0.099509
C488	C	0.504790	0.129586	0.150491
C489	C	-0.245229	-0.620415	-0.552602
C490	C	0.004771	-0.370415	-0.302602
C491	C	0.254771	-0.120415	-0.052602
C492	C	0.504771	0.129585	0.197398
N493	N	-0.216508	-0.649164	-0.529154
N494	N	0.033492	-0.399164	-0.279154
N495	N	0.283492	-0.149164	-0.029154
N496	N	0.533492	0.100836	0.220846
C497	C	-0.187779	-0.677920	-0.552624
C498	C	0.062221	-0.427920	-0.302624
C499	C	0.312221	-0.177920	-0.052624
C500	C	0.562221	0.072080	0.197376
C501	C	-0.245140	-0.620464	-0.979551
C502	C	0.004860	-0.370464	-0.729551
C503	C	0.254860	-0.120464	-0.479551
C504	C	0.504860	0.129536	-0.229551
C505	C	-0.245132	-0.620471	-1.026469
C506	C	0.004868	-0.370471	-0.776469
C507	C	0.254868	-0.120471	-0.526469
C508	C	0.504868	0.129529	-0.276469
C509	C	-0.187680	-0.677979	-1.026491
C510	C	0.062320	-0.427979	-0.776491
C511	C	0.312320	-0.177979	-0.526491
C512	C	0.562320	0.072021	-0.276491
C513	C	-0.187691	-0.677974	-0.979573
C514	C	0.062309	-0.427974	-0.729573
C515	C	0.312309	-0.177974	-0.479573
C516	C	0.562309	0.072026	-0.229573
C517	C	-0.216419	-0.649214	-0.956103
C518	C	0.033581	-0.399214	-0.706103
C519	C	0.283581	-0.149214	-0.456103
C520	C	0.533581	0.100786	-0.206103
C521	C	-0.187806	-0.677910	-0.454098
C522	C	0.062194	-0.427910	-0.204098
C523	C	0.312194	-0.177910	0.045902
C524	C	0.562194	0.072090	0.295902
C525	C	-0.187821	-0.677904	-0.407179
C526	C	0.062179	-0.427904	-0.157179
C527	C	0.312179	-0.177904	0.092821
C528	C	0.562179	0.072096	0.342821
C529	C	-0.245271	-0.620395	-0.407160
C530	C	0.004729	-0.370395	-0.157160
C531	C	0.254729	-0.120395	0.092840
C532	C	0.504729	0.129605	0.342840
C533	C	-0.245257	-0.620402	-0.454076
C534	C	0.004743	-0.370402	-0.204076
C535	C	0.254743	-0.120402	0.045924
C536	C	0.504743	0.129598	0.295924
C537	C	-0.216521	-0.649161	-0.477543
C538	C	0.033479	-0.399161	-0.227543
C539	C	0.283479	-0.149161	0.022457
C540	C	0.533479	0.100839	0.272457
O541	O	-0.269659	-0.595982	-0.528290
O542	O	-0.019659	-0.345982	-0.278290
O543	O	0.230341	-0.095982	-0.028290
O544	O	0.480341	0.154018	0.221710
O545	O	-0.163351	-0.702366	-0.528366
O546	O	0.086649	-0.452366	-0.278366
O547	O	0.336649	-0.202366	-0.028366
O548	O	0.586649	0.047634	0.221634
C549	C	-0.187736	-0.677939	-0.740288
C550	C	0.062264	-0.427939	-0.490288
C551	C	0.312264	-0.177939	-0.240288
C552	C	0.562264	0.072061	0.009712
C553	C	-0.216453	-0.649187	-0.763734
C554	C	0.033547	-0.399187	-0.513734
C555	C	0.283547	-0.149187	-0.263734
C556	C	0.533547	0.100813	-0.013734
C557	C	-0.245182	-0.620431	-0.740263
C558	C	0.004818	-0.370431	-0.490263
C559	C	0.254818	-0.120431	-0.240263
C560	C	0.504818	0.129569	0.009737
C561	C	-0.216445	-0.649194	-0.810651
C562	C	0.033555	-0.399194	-0.560651
C563	C	0.283555	-0.149194	-0.310651
C564	C	0.533555	0.100806	-0.060651
C565	C	-0.187716	-0.677950	-0.834122
C566	C	0.062284	-0.427950	-0.584122
C567	C	0.312284	-0.177950	-0.334122
C568	C	0.562284	0.072050	-0.084122
C569	C	-0.158995	-0.706699	-0.810674
C570	C	0.091005	-0.456699	-0.560674
C571	C	0.341005	-0.206699	-0.310674
C572	C	0.591005	0.043301	-0.060674
C573	C	-0.159007	-0.706695	-0.763759
C574	C	0.090993	-0.456695	-0.513759
C575	C	0.340993	-0.206695	-0.263759
C576	C	0.590993	0.043305	-0.013759
C577	C	-0.273903	-0.591682	-0.763711
C578	C	-0.023903	-0.341682	-0.513711
C579	C	0.226097	-0.091682	-0.263711
C580	C	0.476097	0.158318	-0.013711
C581	C	-0.273889	-0.591689	-0.810627
C582	C	-0.023889	-0.341689	-0.560627
C583	C	0.226111	-0.091689	-0.310627
C584	C	0.476111	0.158311	-0.060627
C585	C	-0.245160	-0.620445	-0.834097
C586	C	0.004840	-0.370445	-0.584097
C587	C	0.254840	-0.120445	-0.334097
C588	C	0.504840	0.129555	-0.084097
C589	C	-0.216528	-0.649145	-0.099873
C590	C	0.033472	-0.399145	0.150127
C591	C	0.283472	-0.149145	0.400127
C592	C	0.533472	0.100855	0.650127
C593	C	-0.216403	-0.649227	-0.049939
C594	C	0.033597	-0.399227	0.200061
C595	C	0.283597	-0.149227	0.450061
C596	C	0.533597	0.100773	0.700061
H597	H	-0.268740	-0.478114	-0.268579
H598	H	-0.018740	-0.228114	-0.018579
H599	H	0.231260	0.021886	0.231421
H600	H	0.481260	0.271886	0.481421
H601	H	-0.297515	-0.262286	-0.297291
H602	H	-0.047515	-0.012286	-0.047291
H603	H	0.202485	0.237714	0.202709
H604	H	0.452485	0.487714	0.452709
H605	H	-0.135584	-0.036424	-0.135885
H606	H	0.114416	0.213576	0.114115
H607	H	0.364416	0.463576	0.364115
H608	H	0.614416	0.713576	0.614115
H609	H	-0.829221	-0.730117	-0.135866
H610	H	-0.579221	-0.480117	0.114134
H611	H	-0.329221	-0.230117	0.364134
H612	H	-0.079221	0.019883	0.614134
H613	H	-0.135569	-0.177170	-0.135873
H614	H	0.114431	0.072830	0.114127
H615	H	0.364431	0.322830	0.364127
H616	H	0.614431	0.572830	0.614127
H617	H	-0.297520	-0.177180	-0.297300
H618	H	-0.047520	0.072820	-0.047300
H619	H	0.202480	0.322820	0.202700
H620	H	0.452480	0.572820	0.452700
H621	H	-0.297310	-0.568248	-0.688956
H622	H	-0.047310	-0.318248	-0.438956
H623	H	0.202690	-0.068248	-0.188956
H624	H	0.452690	0.181752	0.061044
H625	H	-0.387596	-0.596895	-0.268642
H626	H	-0.137596	-0.346895	-0.018642
H627	H	0.112404	-0.096895	0.231358
H628	H	0.362404	0.153105	0.481358
H629	H	-0.297525	-0.121530	-0.297316
H630	H	-0.047525	0.128470	-0.047316
H631	H	0.202475	0.378470	0.202684
H632	H	0.452475	0.628470	0.452684
H633	H	-1.045065	-0.701427	-0.164577
H634	H	-0.795065	-0.451427	0.085423
H635	H	-0.545065	-0.201427	0.335423
H636	H	-0.295065	0.048573	0.585423
H637	H	-0.744102	-0.730093	-0.135853
H638	H	-0.494102	-0.480093	0.114147
H639	H	-0.244102	-0.230093	0.364147
H640	H	0.005898	0.019907	0.614147
H641	H	-0.268647	-0.596991	-0.473166
H642	H	-0.018647	-0.346991	-0.223166
H643	H	0.231353	-0.096991	0.026834
H644	H	0.481353	0.153009	0.276834
H645	H	-0.688462	-0.730076	-0.135847
H646	H	-0.438462	-0.480076	0.114153
H647	H	-0.188462	-0.230076	0.364153
H648	H	0.061538	0.019924	0.614153
H649	H	-0.959942	-0.701402	-0.164563
H650	H	-0.709942	-0.451402	0.085437
H651	H	-0.459942	-0.201402	0.335437
H652	H	-0.209942	0.048598	0.585437
H653	H	-0.744185	-0.568268	-0.297380
H654	H	-0.494185	-0.318268	-0.047380
H655	H	-0.244185	-0.068268	0.202620
H656	H	0.005815	0.181732	0.452620
H657	H	-0.297319	-0.568233	-0.603848
H658	H	-0.047319	-0.318233	-0.353848
H659	H	0.202681	-0.068233	-0.103848
H660	H	0.452681	0.181767	0.146152
H661	H	-0.164434	-0.701321	-0.388092
H662	H	0.085566	-0.451321	-0.138092
H663	H	0.335566	-0.201321	0.111908
H664	H	0.585566	0.048679	0.361908
H665	H	-0.164380	0.179398	-0.164586
H666	H	0.085620	0.429398	0.085414
H667	H	0.335620	0.679398	0.335414
H668	H	0.585620	0.929398	0.585414
H669	H	-0.297525	-0.036422	-0.297327
H670	H	-0.047525	0.213578	-0.047327
H671	H	0.202475	0.463578	0.202673
H672	H	0.452475	0.713578	0.452673
H673	H	-0.164304	-0.701388	-0.960487
H674	H	0.085696	-0.451388	-0.710487
H675	H	0.335696	-0.201388	-0.460487
H676	H	0.585696	0.048612	-0.210487
H677	H	-0.268741	-0.393007	-0.268597
H678	H	-0.018741	-0.143007	-0.018597
H679	H	0.231259	0.106993	0.231403
H680	H	0.481259	0.356993	0.481403
H681	H	-0.268663	-0.596984	-0.388042
H682	H	-0.018663	-0.346984	-0.138042
H683	H	0.231337	-0.096984	0.111958
H684	H	0.481337	0.153016	0.361958
H685	H	-0.135566	-0.262288	-0.135868
H686	H	0.114434	-0.012288	0.114132
H687	H	0.364434	0.237712	0.364132
H688	H	0.614434	0.487712	0.614132
H689	H	-0.135620	-0.730110	-0.744674
H690	H	0.114380	-0.480110	-0.494674
H691	H	0.364380	-0.230110	-0.244674
H692	H	0.614380	0.019890	0.005326
H693	H	-0.829291	-0.568292	-0.297389
H694	H	-0.579291	-0.318292	-0.047389
H695	H	-0.329291	-0.068292	0.202611
H696	H	-0.079291	0.181708	0.452611
H697	H	-0.135604	-0.730115	-0.829792
H698	H	0.114396	-0.480115	-0.579792
H699	H	0.364396	-0.230115	-0.329792
H700	H	0.614396	0.019885	-0.079792
H701	H	-0.297281	-0.568274	-0.829712
H702	H	-0.047281	-0.318274	-0.579712
H703	H	0.202719	-0.068274	-0.329712
H704	H	0.452719	0.181726	-0.079712
H705	H	-0.164404	-0.701327	-0.473200
H706	H	0.085596	-0.451327	-0.223200
H707	H	0.335596	-0.201327	0.026800
H708	H	0.585596	0.048673	0.276800
H709	H	-0.135654	-0.730097	-0.603927
H710	H	0.114346	-0.480097	-0.353927
H711	H	0.364346	-0.230097	-0.103927
H712	H	0.614346	0.019903	0.146073
H713	H	-0.268782	0.094274	-0.268647
H714	H	-0.018782	0.344274	-0.018647
H715	H	0.231218	0.594274	0.231353
H716	H	0.481218	0.844274	0.481353
H717	H	-0.472718	-0.596925	-0.268658
H718	H	-0.222718	-0.346925	-0.018658
H719	H	0.027282	-0.096925	0.231342
H720	H	0.277282	0.153075	0.481342
H721	H	-1.045106	-0.597097	-0.268705
H722	H	-0.795106	-0.347097	-0.018705
H723	H	-0.545106	-0.097097	0.231295
H724	H	-0.295106	0.152903	0.481295
H725	H	-0.135633	-0.730104	-0.689032
H726	H	0.114367	-0.480104	-0.439032
H727	H	0.364367	-0.230104	-0.189032
H728	H	0.614367	0.019896	0.060968
H729	H	-0.297299	-0.568265	-0.744606
H730	H	-0.047299	-0.318265	-0.494606
H731	H	0.202701	-0.068265	-0.244606
H732	H	0.452701	0.181735	0.005394
H733	H	-0.268523	-0.597061	-1.045554
H734	H	-0.018523	-0.347061	-0.795554
H735	H	0.231477	-0.097061	-0.545554
H736	H	0.481477	0.152939	-0.295554
H737	H	-0.164288	-0.701393	-1.045609
H738	H	0.085712	-0.451393	-0.795609
H739	H	0.335712	-0.201393	-0.545609
H740	H	0.585712	0.048607	-0.295609
H741	H	-0.164363	0.094290	-0.164582
H742	H	0.085637	0.344290	0.085418
H743	H	0.335637	0.594290	0.335418
H744	H	0.585637	0.844290	0.585418
H745	H	-0.164332	-0.392997	-0.164522
H746	H	0.085668	-0.142997	0.085478
H747	H	0.335668	0.107003	0.335478
H748	H	0.585668	0.357003	0.585478
H749	H	-0.135574	-0.121528	-0.135879
H750	H	0.114426	0.128472	0.114121
H751	H	0.364426	0.378472	0.364121
H752	H	0.614426	0.628472	0.614121
H753	H	-0.164329	-0.478119	-0.164516
H754	H	0.085671	-0.228119	0.085484
H755	H	0.335671	0.021881	0.335484
H756	H	0.585671	0.271881	0.585484
H757	H	-0.688536	-0.568248	-0.297382
H758	H	-0.438536	-0.318248	-0.047382
H759	H	-0.188536	-0.068248	0.202618
H760	H	0.061464	0.181752	0.452618
H761	H	-0.268786	0.179397	-0.268653
H762	H	-0.018786	0.429397	-0.018653
H763	H	0.231214	0.679397	0.231347
H764	H	0.481214	0.929397	0.481347
H765	H	-0.268537	-0.597044	-0.960446
H766	H	-0.018537	-0.347044	-0.710446
H767	H	0.231463	-0.097044	-0.460446
H768	H	0.481463	0.152956	-0.210446
H769	H	-0.387547	-0.701220	-0.164509
H770	H	-0.137547	-0.451220	0.085491
H771	H	0.112453	-0.201220	0.335491
H772	H	0.362453	0.048780	0.585491
H773	H	-0.603355	-0.730047	-0.135837
H774	H	-0.353355	-0.480047	0.114163
H775	H	-0.103355	-0.230047	0.364163
H776	H	0.146645	0.019953	0.614163
H777	H	-0.472656	-0.701258	-0.164521
H778	H	-0.222656	-0.451258	0.085479
H779	H	0.027344	-0.201258	0.335479
H780	H	0.277344	0.048742	0.585479
H781	H	-0.959998	-0.597076	-0.268704
H782	H	-0.709998	-0.347076	-0.018704
H783	H	-0.459998	-0.097076	0.231296
H784	H	-0.209998	0.152924	0.481296
H785	H	-0.603427	-0.568229	-0.297377
H786	H	-0.353427	-0.318229	-0.047377
H787	H	-0.103427	-0.068229	0.202623
H788	H	0.146573	0.181771	0.452623
