data_functionalizedCrystal
_audit_creation_method	'MofGen! by Chris Wilmer'
_symmetry_space_group_name_H-M	'P1'
_symmetry_Int_Tables_number	1
_symmetry_cell_setting	triclinic
loop_
_symmetry_equiv_pos_as_xyz
  x,y,z
_cell_length_a	23.532407
_cell_length_b	22.610064
_cell_length_c	12.811415
_cell_angle_alpha	84.573643
_cell_angle_beta	83.449244
_cell_angle_gamma	89.997146
loop_
_atom_site_label
_atom_site_type_symbol
_atom_site_fract_x
_atom_site_fract_y
_atom_site_fract_z
O1	O	0.755957	-0.055943	0.127393
O2	O	0.590194	-0.056949	0.145827
O3	O	0.677245	-0.048245	-0.016224
O4	O	0.668906	-0.064646	0.289444
O5	O	0.677230	0.050123	-0.016199
O6	O	0.590179	0.041419	0.145852
O7	O	0.755942	0.042425	0.127418
Zn8	Zn	0.673058	0.057540	0.136639
Zn9	Zn	0.673078	-0.072064	0.136606
O10	O	0.668891	0.033722	0.289469
C11	C	0.568968	-0.007742	0.145370
C12	C	0.505743	-0.007673	0.143959
C13	C	0.107114	-0.012316	0.231005
C14	C	0.047707	-0.012242	0.229694
O15	O	0.011402	-0.016551	0.310386
N16	N	0.024556	-0.007074	0.133354
C17	C	0.060816	-0.001974	0.038320
O18	O	0.035670	0.002430	-0.043744
C19	C	0.120222	-0.002043	0.039632
C20	C	0.143370	-0.007218	0.135978
C21	C	0.130262	-0.017490	0.327343
C22	C	0.189665	-0.017565	0.328653
C23	C	0.225921	-0.012466	0.233626
C24	C	0.202773	-0.007293	0.137289
C25	C	0.156481	0.003061	-0.055401
C26	C	0.215891	0.002992	-0.054080
C27	C	0.239038	-0.002183	0.042265
C28	C	0.298432	-0.002270	0.043572
N29	N	0.321582	-0.007438	0.139912
C30	C	0.285327	-0.012536	0.234939
C31	C	-0.063941	-0.001826	0.035572
C32	C	-0.123346	-0.001761	0.034258
C33	C	-0.136452	-0.012028	0.225632
C34	C	-0.077046	-0.012098	0.226945
C35	C	-0.040791	-0.006995	0.131911
C36	C	0.410079	-0.012694	0.237684
C37	C	0.469488	-0.012771	0.238986
C38	C	0.482588	-0.002500	0.047613
C39	C	0.423184	-0.002426	0.046310
C40	C	0.386930	-0.007522	0.141354
O41	O	0.334772	0.002039	-0.037078
O42	O	0.310482	-0.016931	0.316990
N43	N	0.673048	0.145991	0.136661
C44	C	0.711625	0.558489	0.064869
C45	C	0.711628	0.620409	0.064862
O46	O	0.744404	0.655705	0.003834
N47	N	0.673077	0.647532	0.136594
C48	C	0.634516	0.612732	0.208330
O49	O	0.601725	0.641488	0.269342
C50	C	0.634511	0.550813	0.208331
C51	C	0.673069	0.523693	0.136601
C52	C	0.750180	0.531368	-0.006855
C53	C	0.750177	0.469452	-0.006847
C54	C	0.711621	0.434657	0.064886
C55	C	0.673067	0.461777	0.136610
C56	C	0.595949	0.516015	0.280061
C57	C	0.595946	0.454092	0.280055
C58	C	0.634504	0.426972	0.208326
C59	C	0.634508	0.365065	0.208351
N60	N	0.673059	0.337942	0.136619
C61	C	0.711616	0.372738	0.064887
C62	C	0.634529	0.742766	0.208321
C63	C	0.634537	0.804684	0.208326
C64	C	0.711648	0.812356	0.064856
C65	C	0.711643	0.750437	0.064857
C66	C	0.673081	0.715643	0.136589
C67	C	0.711609	0.242709	0.064910
C68	C	0.711604	0.180787	0.064928
C69	C	0.634491	0.173120	0.208393
C70	C	0.634497	0.235036	0.208380
C71	C	0.673058	0.269830	0.136629
O72	O	0.601747	0.329731	0.269345
O73	O	0.744396	0.343974	0.003876
C74	C	0.777168	-0.006783	0.127875
C75	C	0.840393	-0.006856	0.129286
C76	C	0.676770	0.003035	-0.055310
C77	C	0.675369	0.009282	-0.171812
N78	N	0.673091	0.839485	0.136589
C79	C	0.672745	-0.086232	-0.390747
C80	C	0.671429	-0.080366	-0.500210
C81	C	0.671418	0.026881	-0.500204
C82	C	0.672734	0.021015	-0.390740
C83	C	0.673398	-0.035544	-0.336016
C84	C	0.674718	-0.041410	-0.226551
C85	C	0.674703	0.065837	-0.226546
C86	C	0.673387	0.071703	-0.336009
C87	C	0.669366	-0.017560	0.328555
C88	C	0.670767	-0.023811	0.445057
H89	H	0.137646	0.007276	-0.133856
Cl90	Cl	0.261465	0.009409	-0.173559
Cl91	Cl	0.670567	0.097977	-0.569015
H92	H	-0.034425	0.002325	-0.041821
Cl93	Cl	0.586070	0.838770	0.298517
H94	H	0.603129	0.714439	0.266742
H95	H	0.564551	0.538087	0.338468
H96	H	0.488331	-0.016985	0.317446
H97	H	0.100748	-0.021640	0.404730
Cl98	Cl	0.394084	0.004082	-0.074811
H99	H	0.743005	0.158708	0.006518
Cl100	Cl	0.670606	-0.144091	-0.569012
Cl101	Cl	0.673588	-0.157332	-0.321948
Cl102	Cl	0.675530	0.129563	-0.157736
Cl103	Cl	0.528177	0.003912	-0.071843
Cl104	Cl	0.760118	0.856112	-0.025324
Cl105	Cl	0.547464	0.410355	0.370237
H106	H	-0.058203	-0.016308	0.305398
H107	H	0.743008	0.271031	0.006484
Cl108	Cl	0.798648	0.435365	-0.097031
H109	H	0.380567	-0.016841	0.315078
H110	H	0.672844	0.117752	-0.380581
Cl111	Cl	0.586029	0.269128	0.298567
H112	H	0.781577	0.559694	-0.065273
H113	H	0.743040	0.728360	0.006449
Cl114	Cl	-0.152438	0.004730	-0.086867
Cl115	Cl	0.218755	-0.024066	0.449780
Cl116	Cl	0.675554	-0.112511	-0.157756
Cl117	Cl	-0.182041	-0.018435	0.345096
Cl118	Cl	0.586023	0.129367	0.298568
