data_functionalizedCrystal
_audit_creation_method	'MofGen! by Chris Wilmer'
_symmetry_space_group_name_H-M	'P1'
_symmetry_Int_Tables_number	1
_symmetry_cell_setting	triclinic
loop_
_symmetry_equiv_pos_as_xyz
  x,y,z
_cell_length_a	19.188905
_cell_length_b	19.188930
_cell_length_c	12.503572
_cell_angle_alpha	93.506241
_cell_angle_beta	86.486933
_cell_angle_gamma	83.139668
loop_
_atom_site_label
_atom_site_type_symbol
_atom_site_fract_x
_atom_site_fract_y
_atom_site_fract_z
O1	O	0.930203	0.083024	-0.089510
O2	O	0.726888	0.094778	-0.089475
O3	O	0.834412	-0.012754	-0.089472
O4	O	0.822679	0.190556	-0.089512
O5	O	0.826325	-0.004654	0.089169
O6	O	0.718801	0.102878	0.089167
O7	O	0.922117	0.091124	0.089132
Cu8	Cu	0.819721	0.097741	0.105461
Cu9	Cu	0.829284	0.088161	-0.105804
O10	O	0.814593	0.198657	0.089130
C11	C	0.696833	0.098451	-0.000149
C12	C	0.619327	0.097318	-0.000135
C13	C	0.829988	-0.034715	-0.000148
C14	C	0.828847	-0.112219	-0.000139
C15	C	0.891939	-0.157149	-0.000145
C16	C	0.890868	-0.229973	-0.000162
C17	C	0.826701	-0.257864	-0.000151
C18	C	0.763601	-0.212924	-0.000152
C19	C	0.764674	-0.140102	-0.000145
N20	N	0.774901	-0.363107	0.060652
N21	N	0.773885	-0.432286	0.060649
C22	C	0.823464	-0.477273	-0.000172
N23	N	0.874106	-0.450469	-0.060976
N24	N	0.875123	-0.381284	-0.060968
C25	C	0.825530	-0.336826	-0.000159
C26	C	0.885399	-0.601168	-0.000198
C27	C	0.884325	-0.673994	-0.000222
C28	C	0.757056	-0.656943	-0.000201
C29	C	0.758131	-0.584119	-0.000188
C30	C	0.822305	-0.556236	-0.000182
C31	C	0.587343	0.092358	-0.097515
C32	C	0.514520	0.091284	-0.097528
C33	C	0.473685	0.095157	-0.000155
C34	C	0.505677	0.100122	0.097238
C35	C	0.578497	0.101202	0.097248
N36	N	0.361384	0.057014	0.072318
N37	N	0.292208	0.055986	0.072301
C38	C	0.254280	0.091903	-0.000181
N39	N	0.288143	0.128877	-0.072662
N40	N	0.357326	0.129902	-0.072649
C41	C	0.394723	0.093986	-0.000156
C42	C	0.143333	0.085779	-0.097582
C43	C	0.070508	0.084710	-0.097591
C44	C	0.061667	0.093541	0.097178
C45	C	0.134490	0.094617	0.097184
C46	C	0.175319	0.090733	-0.000199
C47	C	0.952171	0.087452	-0.000196
C48	C	1.029678	0.088584	-0.000217
C49	C	0.819016	0.220617	-0.000197
C50	C	0.820158	0.298121	-0.000213
N51	N	0.812999	0.104478	0.254053
N52	N	0.836011	0.081418	-0.254396
C53	C	0.803112	0.114395	0.473168
C54	C	0.845895	0.071504	0.526496
C55	C	0.840394	0.077022	0.648419
C56	C	0.808613	0.108878	0.351234
H57	H	0.944194	-0.134452	-0.000143
H58	H	0.762356	0.155258	0.519075
C59	C	0.900979	0.016320	0.464481
H60	H	0.897512	0.019814	0.389483
H61	H	0.892668	-0.029427	0.482841
H62	H	0.946751	0.024548	0.482846
C63	C	0.613685	0.106654	0.204368
H64	H	0.662902	0.106745	0.190428
H65	H	0.605388	0.067587	0.244390
H66	H	0.594480	0.149004	0.244367
H67	H	0.942247	-0.266562	-0.000171
H68	H	0.711355	-0.235637	-0.000146
C69	C	0.632250	0.088095	-0.204632
H70	H	0.602767	0.084993	-0.262630
H71	H	0.666300	0.047629	-0.208672
H72	H	0.655381	0.129046	-0.208683
C73	C	0.695270	-0.090676	-0.000129
H74	H	0.656898	-0.117714	-0.000120
H75	H	0.695863	-0.064727	-0.062418
H76	H	0.690224	-0.059101	0.062183
H77	H	0.935705	-0.710576	-0.000232
H78	H	0.937652	-0.578465	-0.000198
H79	H	0.044468	0.080675	-0.176893
H80	H	0.704810	-0.679650	-0.000198
C81	C	0.688731	-0.534691	-0.000175
H82	H	0.698561	-0.487327	-0.000182
H83	H	0.659586	-0.540304	0.062122
H84	H	0.665235	-0.545942	-0.062479
C85	C	0.479329	0.085834	-0.204650
H86	H	0.514075	0.083675	-0.262645
H87	H	0.445650	0.125936	-0.208706
H88	H	0.456561	0.044519	-0.208694
H89	H	0.028419	0.096699	0.176460
C90	C	0.188250	0.081514	-0.204693
H91	H	0.236203	0.082857	-0.190741
H92	H	0.172680	0.120229	-0.244716
H93	H	0.183586	0.038811	-0.244696
H94	H	0.160531	0.098652	0.176482
C95	C	0.460755	0.104434	0.204345
H96	H	0.412802	0.103090	0.190392
H97	H	0.465434	0.147146	0.244298
H98	H	0.476306	0.065733	0.244418
