data_functionalizedCrystal
_audit_creation_method	'MofGen! by Chris Wilmer'
_symmetry_space_group_name_H-M	'P1'
_symmetry_Int_Tables_number	1
_symmetry_cell_setting	triclinic
loop_
_symmetry_equiv_pos_as_xyz
  x,y,z
_cell_length_a	6.817900
_cell_length_b	17.982959
_cell_length_c	17.110486
_cell_angle_alpha	96.531630
_cell_angle_beta	99.060439
_cell_angle_gamma	102.451857
loop_
_atom_site_label
_atom_site_type_symbol
_atom_site_fract_x
_atom_site_fract_y
_atom_site_fract_z
V1	V	-3.971755	-0.105185	-0.247050
O2	O	-3.965632	0.005288	-0.242007
O3	O	-3.918535	-0.208789	-0.245687
O4	O	-3.901697	-0.103465	-0.354648
O5	O	-3.982586	-0.100766	-0.132292
V6	V	-4.458814	-0.091984	-0.233284
O7	O	-4.225257	-0.134145	-0.277246
O8	O	-4.655509	-0.063024	-0.203088
O9	O	-4.288827	0.011620	-0.234647
O10	O	-4.582334	-0.202457	-0.238327
O11	O	-4.565379	-0.096403	-0.348042
O12	O	-4.305665	-0.093704	-0.125686
C13	C	-3.763064	-0.234049	-0.241874
C14	C	-3.800692	-0.318746	-0.241477
C15	C	-3.999490	-0.362414	-0.245250
C16	C	-4.034836	-0.441996	-0.244882
C17	C	-3.871380	-0.477908	-0.240735
C18	C	-3.672566	-0.434235	-0.236965
C19	C	-3.637225	-0.354655	-0.237339
C20	C	-3.815090	-0.755172	-0.235457
C21	C	-3.850447	-0.834758	-0.235081
C22	C	-4.212701	-0.842513	-0.243001
C23	C	-4.177360	-0.762933	-0.243375
C24	C	-3.978552	-0.719267	-0.239608
C25	C	-3.940229	-0.632976	-0.240009
C26	C	-3.909698	-0.564198	-0.240329
C27	C	-3.741585	-0.099696	-0.380863
C28	C	-3.765556	-0.098975	-0.468827
C29	C	-3.957928	-0.102439	-0.514196
C30	C	-3.980439	-0.101761	-0.596847
C31	C	-3.810580	-0.097625	-0.634129
C32	C	-3.618191	-0.094158	-0.588753
C33	C	-3.595679	-0.094831	-0.506103
C34	C	-3.869488	-0.095399	-0.883477
C35	C	-3.892016	-0.094729	-0.966133
C36	C	-4.254263	-0.102330	-0.974221
C37	C	-4.231736	-0.103007	-0.891569
C38	C	-4.039349	-0.099536	-0.846201
C39	C	-3.833587	-0.096934	-0.718612
C40	C	-4.016341	-0.100222	-0.761718
C41	C	-4.107641	0.036876	-0.238458
C42	C	-4.049249	0.121572	-0.238860
C43	C	-4.129120	-0.097475	-0.099467
C44	C	-4.084388	-0.098192	-0.011502
H45	H	-4.374584	-0.878076	-0.246069
F46	F	-4.173470	-0.324200	-0.249660
H47	H	-4.370058	-0.106374	-0.861220
H48	H	-4.310465	-0.733697	-0.246747
F49	F	-3.676462	-0.872976	-0.230668
F50	F	-4.459003	-0.106021	-1.022511
F51	F	-4.197111	-0.104622	-0.722038
F52	F	-4.246422	-0.488467	-0.248897
F53	F	-3.603504	-0.708709	-0.231444
H54	H	-3.753684	-0.091358	-0.996485
F55	F	-3.390929	-0.091139	-0.457817
H56	H	-3.712851	-0.092600	-0.846552
F57	F	-3.498605	-0.472458	-0.232556
F58	F	-3.425639	-0.308181	-0.233327
F59	F	-4.138725	-0.106847	-0.474526
F60	F	-4.185190	-0.105455	-0.645129
F61	F	-3.652822	-0.092541	-0.758298
H62	H	-3.479888	-0.090786	-0.619114
