data_functionalizedCrystal
_audit_creation_method	'MofGen! by Chris Wilmer'
_symmetry_space_group_name_H-M	'P1'
_symmetry_Int_Tables_number	1
_symmetry_cell_setting	triclinic
loop_
_symmetry_equiv_pos_as_xyz
  x,y,z
_cell_length_a	17.699083
_cell_length_b	23.532407
_cell_length_c	16.176319
_cell_angle_alpha	89.988536
_cell_angle_beta	89.998611
_cell_angle_gamma	83.065847
loop_
_atom_site_label
_atom_site_type_symbol
_atom_site_fract_x
_atom_site_fract_y
_atom_site_fract_z
O1	O	1.003713	0.072020	-0.068639
O2	O	0.783287	0.081390	-0.068667
O3	O	0.900147	-0.006208	-0.068637
O4	O	0.886853	0.159618	-0.068669
O5	O	0.900131	-0.006213	0.068856
O6	O	0.783271	0.081384	0.068826
O7	O	1.003697	0.072014	0.068854
Cu8	Cu	0.893483	0.076699	0.081394
Cu9	Cu	0.893502	0.076705	-0.081207
O10	O	0.886837	0.159612	0.068824
C11	C	0.755084	0.081051	0.000076
C12	C	0.671071	0.080044	0.000066
C13	C	0.622189	0.131462	0.000056
C14	C	0.543251	0.130512	0.000067
C15	C	0.513196	0.078144	0.000082
C16	C	0.562084	0.026722	0.000094
C17	C	0.641021	0.027672	0.000089
C18	C	0.243740	0.022888	0.000115
C19	C	0.164797	0.021942	0.000117
C20	C	0.145970	0.125728	0.000093
C21	C	0.224907	0.126678	0.000088
C22	C	0.273788	0.075257	0.000105
C23	C	0.359382	0.076287	0.000094
C24	C	0.427603	0.077113	0.000086
C25	C	0.899801	-0.027427	0.000111
C26	C	0.898783	-0.090647	0.000118
C27	C	0.961554	-0.489570	0.000080
C28	C	0.960609	-0.548973	0.000074
O29	O	1.018799	-0.585550	0.000051
N30	N	0.891136	-0.571799	0.000066
C31	C	0.822604	-0.535218	0.000055
O32	O	0.763424	-0.560088	0.000047
C33	C	0.823550	-0.475816	0.000056
C34	C	0.893028	-0.452994	0.000073
C35	C	1.031026	-0.466747	0.000096
C36	C	1.031972	-0.407348	0.000104
C37	C	0.963445	-0.370772	0.000096
C38	C	0.893973	-0.393595	0.000080
C39	C	0.755019	-0.439237	0.000040
C40	C	0.755971	-0.379832	0.000039
C41	C	0.825448	-0.357009	0.000056
C42	C	0.826391	-0.297620	0.000081
N43	N	0.895864	-0.274795	0.000089
C44	C	0.964391	-0.311371	0.000097
C45	C	0.820622	-0.659966	0.000053
C46	C	0.819674	-0.719367	0.000058
C47	C	0.957680	-0.733118	0.000075
C48	C	0.958626	-0.673716	0.000076
C49	C	0.890095	-0.637141	0.000061
C50	C	0.966371	-0.186628	0.000114
C51	C	0.967310	-0.127223	0.000125
C52	C	0.829305	-0.113478	0.000104
C53	C	0.828365	-0.172877	0.000097
C54	C	0.896904	-0.209452	0.000099
O55	O	0.768232	-0.261008	0.000100
O56	O	1.023560	-0.286493	0.000094
C57	C	1.031901	0.072353	0.000109
C58	C	1.115914	0.073360	0.000114
C59	C	0.887184	0.180832	0.000073
C60	C	0.888202	0.244052	0.000062
N61	N	0.893475	0.076694	0.195759
N62	N	0.893516	0.076706	-0.195573
C63	C	0.945236	0.037921	0.239037
C64	C	0.945240	0.037921	0.325584
C65	C	0.893486	0.076696	0.368852
C66	C	0.841719	0.115470	0.325568
C67	C	0.841713	0.115467	0.239023
C68	C	0.841745	0.115481	0.674597
C69	C	0.841758	0.115481	0.761148
C70	C	0.945273	0.037934	0.761158
C71	C	0.945266	0.037932	0.674612
C72	C	0.893497	0.076704	0.631336
C73	C	0.893493	0.076703	0.537492
C74	C	0.893493	0.076700	0.462695
H75	H	0.537607	-0.015917	0.000117
H76	H	0.646653	0.174106	0.000044
C77	C	1.042825	-0.102557	0.000097
C78	C	1.102633	-0.147307	0.000077
C79	C	1.172204	-0.124608	0.000038
H80	H	1.046169	-0.079687	0.048034
H81	H	1.046109	-0.079678	-0.047866
H82	H	1.099349	-0.170176	0.048036
H83	H	1.099314	-0.170180	-0.047856
H84	H	1.175489	-0.101730	-0.047925
H85	H	1.175540	-0.101739	0.047976
H86	H	1.212792	-0.154968	0.000017
H87	H	0.799610	0.147058	0.796376
H88	H	0.698442	-0.457808	0.000021
H89	H	0.987424	0.006362	0.796402
C90	C	0.490304	0.186400	0.000013
C91	C	0.533520	0.232465	-0.000027
C92	C	0.484773	0.283959	-0.000086
H93	H	0.459106	0.188268	0.047950
H94	H	0.459126	0.188218	-0.047950
H95	H	0.564685	0.230647	0.047931
H96	H	0.564717	0.230615	-0.047961
H97	H	0.453595	0.285778	-0.048049
H98	H	0.453576	0.285821	0.047852
H99	H	0.514087	0.315220	-0.000121
H100	H	0.249373	0.169322	0.000072
H101	H	1.086833	-0.496522	0.000099
C102	C	1.032106	-0.772810	0.000245
C103	C	1.073957	-0.762539	0.070997
C104	C	1.142512	-0.799099	0.071187
H105	H	1.060708	-0.765929	-0.047643
H106	H	1.021617	-0.811463	0.000284
H107	H	1.084449	-0.723895	0.070951
H108	H	1.045379	-0.769424	0.118896
H109	H	1.132023	-0.837752	0.071225
H110	H	1.171107	-0.792215	0.023295
H111	H	1.170914	-0.792139	0.119194
H112	H	1.088547	-0.388773	0.000114
C113	C	1.001290	-0.004204	0.627487
C114	C	0.990158	0.004058	0.542431
C115	C	1.041699	-0.034788	0.498996
H116	H	0.993271	-0.042188	0.641667
H117	H	1.051829	0.001834	0.641531
H118	H	0.939631	-0.001984	0.528394
H119	H	0.998183	0.042034	0.528226
H120	H	1.092238	-0.028751	0.513039
H121	H	1.033676	-0.072770	0.513183
H122	H	1.034158	-0.029185	0.441281
C123	C	0.681643	-0.340027	-0.000015
C124	C	0.697333	-0.283119	-0.000027
C125	C	0.628882	-0.246437	-0.000086
H126	H	0.653074	-0.346872	0.047912
H127	H	0.653139	-0.346896	-0.047988
H128	H	0.725824	-0.276252	0.047941
H129	H	0.725891	-0.276255	-0.047951
H130	H	0.600379	-0.253306	-0.048059
H131	H	0.600318	-0.253287	0.047842
H132	H	0.639518	-0.207820	-0.000102
C133	C	0.754850	-0.073826	-0.000039
C134	C	0.712998	-0.084123	-0.070779
C135	C	0.644402	-0.047610	-0.070941
H136	H	0.765264	-0.035162	-0.000080
H137	H	0.726288	-0.080745	0.047874
H138	H	0.741554	-0.077199	-0.118680
H139	H	0.702564	-0.122780	-0.070753
H140	H	0.615840	-0.054529	-0.023028
H141	H	0.654823	-0.008948	-0.070979
H142	H	0.615994	-0.054595	-0.118933
C143	C	0.744218	-0.744109	-0.000121
C144	C	0.702838	-0.725505	-0.070873
C145	C	0.633326	-0.748289	-0.071078
H146	H	0.715925	-0.731570	0.047766
H147	H	0.753429	-0.784727	-0.000169
H148	H	0.693625	-0.684895	-0.070818
H149	H	0.731108	-0.738043	-0.118773
H150	H	0.642537	-0.788908	-0.071126
H151	H	0.605041	-0.735748	-0.023187
H152	H	0.605245	-0.735674	-0.119086
C153	C	1.001462	-0.004242	0.192214
C154	C	1.046778	-0.038208	0.248643
C155	C	1.098575	-0.077063	0.205543
H156	H	1.032883	0.016146	0.158437
H157	H	0.974434	-0.027957	0.158482
H158	H	1.073805	-0.014496	0.282360
H159	H	1.015379	-0.058609	0.282421
H160	H	1.071546	-0.100777	0.171811
H161	H	1.129990	-0.056669	0.171768
H162	H	1.129323	-0.100116	0.243823
C163	C	1.040761	-0.226359	-0.000049
C164	C	1.044280	-0.260843	-0.070798
C165	C	1.112799	-0.297444	-0.070976
H166	H	1.043330	-0.249880	0.047841
H167	H	1.082288	-0.204272	-0.000081
H168	H	1.002764	-0.282928	-0.070758
H169	H	1.041723	-0.237338	-0.118699
H170	H	1.154327	-0.275357	-0.071009
H171	H	1.115363	-0.320960	-0.023083
H172	H	1.115199	-0.320841	-0.118982
H173	H	0.764811	-0.630189	0.000048
H174	H	0.987387	0.006349	0.360820
C175	C	0.785511	0.157642	0.627768
C176	C	0.740207	0.191610	0.684187
C177	C	0.688400	0.230462	0.641075
H178	H	0.754084	0.137252	0.594017
H179	H	0.812532	0.181355	0.594011
H180	H	0.713187	0.167900	0.717930
H181	H	0.771613	0.212013	0.717940
H182	H	0.715422	0.254176	0.607319
H183	H	0.656978	0.210067	0.607326
H184	H	0.657660	0.253518	0.679349
H185	H	1.015201	-0.655139	0.000089
H186	H	0.771791	-0.191460	0.000106
H187	H	0.799576	0.147040	0.360802
H188	H	0.799563	0.147039	0.203787
H189	H	0.106161	0.167598	0.000084
H190	H	0.140330	-0.020705	0.000130
H191	H	0.283530	-0.018983	0.000129
H192	H	0.680820	-0.014197	0.000096
