data_functionalizedCrystal
_audit_creation_method	'MofGen! by Chris Wilmer'
_symmetry_space_group_name_H-M	'P1'
_symmetry_Int_Tables_number	1
_symmetry_cell_setting	triclinic
loop_
_symmetry_equiv_pos_as_xyz
  x,y,z
_cell_length_a	34.408637
_cell_length_b	34.407814
_cell_length_c	34.404193
_cell_angle_alpha	60.004510
_cell_angle_beta	60.009006
_cell_angle_gamma	59.994604
loop_
_atom_site_label
_atom_site_type_symbol
_atom_site_fract_x
_atom_site_fract_y
_atom_site_fract_z
O1	O	0.053973	-0.567860	0.474801
O2	O	0.553973	-0.067860	0.974801
O3	O	0.020377	-0.442124	0.382567
O4	O	0.520377	0.057876	0.882567
O5	O	0.100004	-0.521670	0.382483
O6	O	0.600004	-0.021670	0.882483
O7	O	-0.025653	-0.488314	0.474886
O8	O	0.474347	0.011686	0.974886
O9	O	0.126426	-0.495253	0.408816
O10	O	0.626426	0.004747	0.908816
O11	O	0.046800	-0.415707	0.408900
O12	O	0.546800	0.084293	0.908900
O13	O	0.080396	-0.541443	0.501134
O14	O	0.580396	-0.041443	1.001134
Zn15	Zn	0.067793	-0.474381	0.459198
Zn16	Zn	0.567793	0.025619	0.959198
Zn17	Zn	0.032980	-0.509186	0.424503
Zn18	Zn	0.532980	-0.009186	0.924503
O19	O	0.000769	-0.461897	0.501219
O20	O	0.500769	0.038103	1.001219
N21	N	0.091552	-0.450631	0.482879
N22	N	0.591552	0.049369	0.982879
N23	N	0.009225	-0.532940	0.400823
N24	N	0.509225	-0.032940	0.900823
C25	C	0.142848	-0.268847	0.534081
C26	C	0.642848	0.231153	1.034081
C27	C	0.142979	-0.399386	0.664559
C28	C	0.642979	0.100614	1.164559
C29	C	0.142862	-0.399365	0.534081
C30	C	0.642862	0.100635	1.034081
C31	C	0.273409	-0.399338	0.533986
C32	C	0.773409	0.100662	1.033986
C33	C	0.157225	-0.311914	0.548422
C34	C	0.657225	0.188086	1.048422
C35	C	0.157300	-0.385019	0.621491
C36	C	0.657300	0.114981	1.121491
C37	C	0.230339	-0.384991	0.548370
C38	C	0.730339	0.115009	1.048370
C39	C	0.157235	-0.385007	0.548422
C40	C	0.657235	0.114993	1.048422
C41	C	0.124548	-0.214028	0.515827
C42	C	0.624548	0.285972	1.015827
C43	C	0.124571	-0.417639	0.515827
C44	C	0.624571	0.082361	1.015827
C45	C	0.175526	-0.366733	0.566676
C46	C	0.675526	0.133267	1.066676
C47	C	0.353121	-0.385580	0.491988
C48	C	0.853121	0.114420	0.991988
C49	C	0.402952	-0.402180	0.475348
C50	C	0.902952	0.097820	0.975348
C51	C	0.402981	-0.482812	0.506096
C52	C	0.902981	0.017188	1.006096
C53	C	0.353151	-0.466211	0.522737
C54	C	0.853151	0.033789	1.022737
C55	C	0.136544	-0.189099	0.466839
C56	C	0.636544	0.310901	0.966839
C57	C	0.119905	-0.139265	0.450247
C58	C	0.619905	0.360735	0.950247
C59	C	0.079280	-0.139291	0.531632
C60	C	0.579280	0.360709	1.031632
C61	C	0.095918	-0.189125	0.548224
C62	C	0.595918	0.310875	1.048224
C63	C	0.075577	-0.405615	0.527900
C64	C	0.575577	0.094385	1.027900
C65	C	0.058953	-0.422228	0.511301
C66	C	0.558953	0.077772	1.011301
C67	C	0.140315	-0.462889	0.470566
C68	C	0.640315	0.037111	0.970566
C69	C	0.156941	-0.446276	0.487159
C70	C	0.656941	0.053724	0.987159
C71	C	0.075772	-0.405653	0.744326
C72	C	0.575772	0.094347	1.244326
C73	C	0.059206	-0.422280	0.794159
C74	C	0.559206	0.077720	1.294159
C75	C	0.140607	-0.462951	0.794094
C76	C	0.640607	0.037049	1.294094
C77	C	0.157172	-0.446325	0.744260
C78	C	0.657172	0.053675	1.244260
C79	C	0.124753	-0.417674	0.719377
C80	C	0.624753	0.082326	1.219377
C81	C	0.328223	-0.417595	0.515681
C82	C	0.828223	0.082405	1.015681
C83	C	-0.172390	-0.583988	0.349141
C84	C	0.327610	-0.083988	0.849141
C85	C	-0.041751	-0.584138	0.218783
C86	C	0.458249	-0.084138	0.718783
C87	C	-0.041941	-0.584130	0.349402
C88	C	0.458059	-0.084130	0.849402
C89	C	-0.041957	-0.714607	0.349338
C90	C	0.458043	-0.214607	0.849338
C91	C	-0.129326	-0.598388	0.334853
C92	C	0.370674	-0.098388	0.834853
C93	C	-0.056165	-0.598473	0.261852
C94	C	0.443835	-0.098473	0.761852
C95	C	-0.056282	-0.671535	0.334962
C96	C	0.443718	-0.171535	0.834962
C97	C	-0.056272	-0.598469	0.334999
C98	C	0.443728	-0.098469	0.834999
C99	C	-0.227205	-0.565659	0.367327
C100	C	0.272795	-0.065659	0.867327
C101	C	-0.023703	-0.565882	0.367734
C102	C	0.476297	-0.065882	0.867734
C103	C	-0.074511	-0.616717	0.316667
C104	C	0.425489	-0.116717	0.816667
C105	C	-0.055754	-0.794298	0.391257
C106	C	0.444246	-0.294298	0.891257
C107	C	-0.039181	-0.844132	0.407888
C108	C	0.460819	-0.344132	0.907888
C109	C	0.041447	-0.844215	0.377269
C110	C	0.541447	-0.344215	0.877269
C111	C	0.024873	-0.794381	0.360637
C112	C	0.524873	-0.294381	0.860637
C113	C	-0.252183	-0.577666	0.416302
C114	C	0.247817	-0.077666	0.916302
C115	C	-0.302014	-0.561001	0.432833
C116	C	0.197986	-0.061001	0.932833
C117	C	-0.301886	-0.520329	0.351410
C118	C	0.198114	-0.020329	0.851410
C119	C	-0.252055	-0.536994	0.334880
C120	C	0.247945	-0.036994	0.834880
C121	C	-0.035709	-0.516892	0.355682
C122	C	0.464291	-0.016892	0.855682
C123	C	-0.019129	-0.500308	0.372353
C124	C	0.480871	-0.000308	0.872353
C125	C	0.021465	-0.581700	0.413115
C126	C	0.521465	-0.081700	0.913115
C127	C	0.004884	-0.598286	0.396450
C128	C	0.504884	-0.098286	0.896450
C129	C	-0.035389	-0.516907	0.139026
C130	C	0.464611	-0.016907	0.639026
C131	C	-0.018707	-0.500324	0.089193
C132	C	0.481293	-0.000324	0.589193
C133	C	0.021949	-0.581721	0.089240
C134	C	0.521949	-0.081721	0.589240
C135	C	0.005268	-0.598303	0.139074
C136	C	0.505268	-0.098303	0.639074
C137	C	-0.023402	-0.565894	0.163965
C138	C	0.476598	-0.065894	0.663965
C139	C	-0.023728	-0.769425	0.367633
C140	C	0.476272	-0.269425	0.867633
N141	N	0.427173	-0.450553	0.482630
N142	N	0.927173	0.049447	0.982630
O143	O	0.589997	-0.458460	0.365361
O144	O	1.089997	0.041540	0.865361
O145	O	0.590185	-0.550997	0.490963
O146	O	1.090185	-0.050997	0.990963
O147	O	0.590104	-0.550786	0.411309
O148	O	1.090104	-0.050786	0.911309
O149	O	0.590077	-0.458671	0.445016
O150	O	1.090077	0.041329	0.945016
O151	O	0.510940	-0.524462	0.437777
O152	O	1.010940	-0.024462	0.937777
O153	O	0.511020	-0.524674	0.517432
O154	O	1.011020	-0.024674	1.017432
O155	O	0.510832	-0.432136	0.391830
O156	O	1.010832	0.067864	0.891830
Zn157	Zn	0.498357	-0.474225	0.458833
Zn158	Zn	0.998357	0.025775	0.958833
Zn159	Zn	0.602660	-0.508908	0.423960
Zn160	Zn	1.102660	-0.008908	0.923960
O161	O	0.510913	-0.432348	0.471484
O162	O	1.010913	0.067652	0.971484
N163	N	0.673844	-0.532580	0.400158
N164	N	1.173844	-0.032580	0.900158
N165	N	0.091520	-0.115070	0.482873
N166	N	0.591520	0.384930	0.982873
O167	O	-0.025663	0.047841	0.474857
O168	O	0.474337	0.547841	0.974857
O169	O	0.099940	0.047877	0.382299
O170	O	0.599940	0.547877	0.882299
O171	O	0.020247	0.047844	0.382560
O172	O	0.520247	0.547844	0.882560
O173	O	0.054030	0.047874	0.474596
O174	O	0.554030	0.547874	0.974596
O175	O	0.046674	-0.031326	0.408942
O176	O	0.546674	0.468674	0.908942
O177	O	0.126367	-0.031293	0.408680
O178	O	0.626367	0.468707	0.908680
O179	O	0.000764	-0.031329	0.501238
O180	O	0.500764	0.468671	1.001238
Zn181	Zn	0.067761	-0.043881	0.459148
Zn182	Zn	0.567761	0.456119	0.959148
Zn183	Zn	0.032943	0.060429	0.424389
Zn184	Zn	0.532943	0.560429	0.924389
O185	O	0.080457	-0.031296	0.500977
O186	O	0.580457	0.468704	1.000977
N187	N	0.009178	0.131618	0.400665
N188	N	0.509178	0.631618	0.900665
N189	N	0.091852	-0.450680	0.818332
N190	N	0.591852	0.049320	1.318332
O191	O	0.083862	-0.567845	0.981235
O192	O	0.583862	-0.067845	1.481235
O193	O	-0.008657	-0.442198	0.981276
O194	O	0.491343	0.057802	1.481276
O195	O	-0.008441	-0.521875	0.981252
O196	O	0.491559	-0.021875	1.481252
O197	O	0.083646	-0.488168	0.981258
O198	O	0.583646	0.011832	1.481258
O199	O	0.017919	-0.495468	0.902085
O200	O	0.517919	0.004532	1.402085
O201	O	0.017703	-0.415791	0.902109
O202	O	0.517703	0.084209	1.402109
O203	O	0.110222	-0.541438	0.902067
O204	O	0.610222	-0.041438	1.402067
Zn205	Zn	0.068148	-0.474422	0.889518
Zn206	Zn	0.568148	0.025578	1.389518
Zn207	Zn	0.033417	-0.509214	0.993825
Zn208	Zn	0.533417	-0.009214	1.493825
O209	O	0.110006	-0.461761	0.902091
O210	O	0.610006	0.038239	1.402091
N211	N	0.009712	-0.532961	1.065011
N212	N	0.509712	-0.032961	1.565011
C213	C	0.030439	-0.413071	0.383027
C214	C	0.530439	0.086929	0.883027
C215	C	0.129046	-0.511580	0.382922
C216	C	0.629046	-0.011580	0.882922
C217	C	0.070334	-0.570496	0.500675
C218	C	0.570334	-0.070496	1.000675
C219	C	-0.028274	-0.471987	0.500780
C220	C	0.471726	0.028013	1.000780
C221	C	0.550625	-0.550579	0.520021
C222	C	1.050625	-0.050579	1.020021
C223	C	0.550527	-0.550317	0.421379
C224	C	1.050527	-0.050317	0.921379
C225	C	0.550389	-0.432554	0.362773
C226	C	1.050389	0.067446	0.862773
C227	C	0.550491	-0.432816	0.461414
C228	C	1.050491	0.067184	0.961414
C229	C	0.128944	0.008394	0.382712
C230	C	0.628944	0.508394	0.882712
C231	C	0.030287	0.008256	0.383068
C232	C	0.530287	0.508256	0.883068
C233	C	-0.028273	0.008252	0.500793
C234	C	0.471727	0.508252	1.000793
C235	C	0.070417	0.008292	0.500470
C236	C	0.570417	0.508292	1.000470
C237	C	-0.008218	-0.413165	0.941698
C238	C	0.491782	0.086835	1.441698
C239	C	-0.007945	-0.511830	0.941653
C240	C	0.492055	-0.011830	1.441653
C241	C	0.109783	-0.570471	0.941646
C242	C	0.609783	-0.070471	1.441646
C243	C	0.109516	-0.471800	0.941673
C244	C	0.609516	0.028200	1.441673
H245	H	0.019320	-0.412483	0.814467
H246	H	0.519320	0.087517	1.314467
H247	H	0.086148	-0.209418	0.588113
H248	H	0.586148	0.290582	1.088113
N249	N	0.020937	-0.365232	0.344647
N250	N	0.520937	0.134768	0.844647
H251	H	0.044297	-0.350016	0.335400
H252	H	0.544297	0.149984	0.835400
H253	H	-0.012572	-0.344060	0.356981
H254	H	0.487428	0.155940	0.856981
H255	H	0.077514	-0.606615	0.529644
H256	H	0.577514	-0.106615	1.029644
H257	H	0.550674	-0.579628	0.556096
H258	H	1.050674	-0.079628	1.056096
N259	N	-0.076080	-0.462580	0.539215
N260	N	0.423920	0.037420	1.039215
H261	H	-0.097335	-0.429088	0.526966
H262	H	0.402665	0.070912	1.026966
H263	H	-0.071633	-0.466407	0.567965
H264	H	0.428367	0.033593	1.067965
H265	H	0.164941	0.008624	0.353583
H266	H	0.664941	0.508624	0.853583
H267	H	0.550540	-0.579254	0.414165
H268	H	1.050540	-0.079254	0.914165
N269	N	0.176848	-0.520991	0.344482
N270	N	0.676848	-0.020991	0.844482
H271	H	0.198103	-0.554484	0.356730
H272	H	0.698103	-0.054484	0.856730
H273	H	0.191991	-0.497578	0.335256
H274	H	0.691991	0.002422	0.835256
H275	H	-0.064344	0.008241	0.529850
H276	H	0.435656	0.508241	1.029850
N277	N	0.550311	-0.394066	0.314994
N278	N	1.050311	0.105934	0.814994
H279	H	0.550297	-0.406272	0.293719
H280	H	1.050297	0.093728	0.793719
H281	H	0.579640	-0.384842	0.299854
H282	H	1.079640	0.115158	0.799854
H283	H	0.550485	-0.403881	0.468626
H284	H	1.050485	0.096119	0.968626
H285	H	0.023050	0.008252	0.354152
H286	H	0.523050	0.508252	0.854152
N287	N	0.079992	0.008314	0.538770
N288	N	0.579992	0.508314	1.038770
H289	H	0.113496	0.008329	0.526404
H290	H	0.613496	0.508329	1.026404
H291	H	0.076218	-0.021035	0.567555
H292	H	0.576218	0.478965	1.067555
N293	N	-0.046695	-0.365366	0.941709
N294	N	0.453305	0.134634	1.441709
H295	H	-0.034493	-0.344086	0.941714
H296	H	0.465507	0.155914	1.441714
H297	H	-0.075445	-0.369823	0.971060
H298	H	0.424555	0.130177	1.471060
H299	H	0.138447	-0.464586	0.941669
H300	H	0.638447	0.035414	1.441669
H301	H	-0.036863	-0.519031	0.941619
H302	H	0.463137	-0.019031	1.441619
N303	N	0.148256	-0.618272	0.941640
N304	N	0.648256	-0.118272	1.441640
H305	H	0.156226	-0.624468	0.912291
H306	H	0.656226	-0.124468	1.412291
H307	H	0.136642	-0.644001	0.971005
H308	H	0.636642	-0.144001	1.471005
N309	N	0.040805	-0.374732	0.717490
N310	N	0.540805	0.125268	1.217490
H311	H	0.007262	-0.369635	0.740858
H312	H	0.507262	0.130365	1.240858
H313	H	0.045895	-0.390897	0.696808
H314	H	0.545895	0.109103	1.196808
H315	H	0.197059	-0.456117	0.723950
H316	H	0.697059	0.043883	1.223950
N317	N	0.175574	-0.493841	0.820931
N318	N	0.675574	0.006159	1.320931
H319	H	0.196255	-0.523801	0.812244
H320	H	0.696255	-0.023801	1.312244
H321	H	0.157613	-0.502514	0.856276
H322	H	0.657613	-0.002514	1.356276
N323	N	0.040664	-0.374721	0.558810
N324	N	0.540664	0.125279	1.058810
H325	H	0.020003	-0.392684	0.588782
H326	H	0.520003	0.107316	1.088782
H327	H	0.020001	-0.344762	0.540825
H328	H	0.520001	0.155238	1.040825
N329	N	0.006109	-0.409263	0.524321
N330	N	0.506109	0.090737	1.024321
H331	H	-0.008756	-0.421457	0.560069
H332	H	0.491244	0.078543	1.060069
H333	H	0.000532	-0.424132	0.509423
H334	H	0.500532	0.075868	1.009423
N335	N	0.175231	-0.493783	0.439652
N336	N	0.675231	0.006217	0.939652
H337	H	0.208790	-0.498683	0.434330
H338	H	0.708790	0.001317	0.934330
H339	H	0.169926	-0.477704	0.408009
H340	H	0.669926	0.022296	0.908009
H341	H	0.196836	-0.456064	0.477324
H342	H	0.696836	0.043936	0.977324
H343	H	0.332881	-0.492283	0.542031
H344	H	0.832881	0.007717	1.042031
H345	H	0.423225	-0.376108	0.456057
H346	H	0.923225	0.123892	0.956057
N347	N	0.429869	-0.535246	0.513704
N348	N	0.929869	-0.035246	1.013704
H349	H	0.406535	-0.553010	0.531240
H350	H	0.906535	-0.053010	1.031240
H351	H	0.450566	-0.547643	0.533082
H352	H	0.950566	-0.047643	1.033082
H353	H	0.332825	-0.345993	0.486242
H354	H	0.832825	0.154007	0.986242
H355	H	0.159856	-0.209371	0.440456
H356	H	0.659856	0.290629	0.940456
H357	H	0.129672	-0.118967	0.410356
H358	H	0.629672	0.381033	0.910356
H359	H	0.014660	-0.638178	0.406265
H360	H	0.514660	-0.138178	0.906265
N361	N	0.048411	-0.112429	0.566573
N362	N	0.548411	0.387571	1.066573
H363	H	0.043342	-0.135784	0.600125
H364	H	0.543342	0.364216	1.100125
H365	H	0.016653	-0.091759	0.561485
H366	H	0.516653	0.408241	1.061485
H367	H	-0.028474	-0.460433	0.068892
H368	H	0.471526	0.039567	0.568892
H369	H	-0.058738	-0.490513	0.159288
H370	H	0.441262	0.009487	0.659288
H371	H	0.045284	-0.608113	0.068976
H372	H	0.545284	-0.108113	0.568976
H373	H	-0.058984	-0.490504	0.332300
H374	H	0.441016	0.009496	0.832300
N375	N	0.018201	-0.651143	0.165970
N376	N	0.518201	-0.151143	0.665970
H377	H	0.006039	-0.666022	0.157259
H378	H	0.506039	-0.166022	0.657259
H379	H	0.003286	-0.656694	0.201307
H380	H	0.503286	-0.156694	0.701307
N381	N	-0.032085	-0.447468	0.359369
N382	N	0.467915	0.052532	0.859369
H383	H	-0.052710	-0.429456	0.338647
H384	H	0.447290	0.070544	0.838647
H385	H	-0.002105	-0.438837	0.341467
H386	H	0.497895	0.061163	0.841467
H387	H	0.044746	-0.608091	0.436494
H388	H	0.544746	-0.108091	0.936494
H389	H	0.081021	-0.864532	0.371574
H390	H	0.581021	-0.364532	0.871574
N391	N	0.059418	-0.767555	0.335154
N392	N	0.559418	-0.267555	0.835154
H393	H	0.092720	-0.790930	0.333250
H394	H	0.592720	-0.290930	0.833250
H395	H	0.050509	-0.746876	0.353219
H396	H	0.550509	-0.246876	0.853219
H397	H	-0.065262	-0.864385	0.427124
H398	H	0.434738	-0.364385	0.927124
H399	H	-0.095331	-0.773979	0.396956
H400	H	0.404669	-0.273979	0.896956
H401	H	-0.231954	-0.601008	0.442726
H402	H	0.268046	-0.101008	0.942726
H403	H	-0.322352	-0.570775	0.472713
H404	H	0.177648	-0.070775	0.972713
H405	H	-0.322118	-0.496994	0.324987
H406	H	0.177882	0.003006	0.824987
H407	H	-0.231721	-0.527215	0.295000
H408	H	0.268279	-0.027215	0.795000
