data_functionalizedCrystal
_audit_creation_method	'MofGen! by Chris Wilmer'
_symmetry_space_group_name_H-M	'P1'
_symmetry_Int_Tables_number	1
_symmetry_cell_setting	triclinic
loop_
_symmetry_equiv_pos_as_xyz
  x,y,z
_cell_length_a	14.519709
_cell_length_b	10.489741
_cell_length_c	12.996460
_cell_angle_alpha	89.994152
_cell_angle_beta	90.000034
_cell_angle_gamma	84.109659
loop_
_atom_site_label
_atom_site_type_symbol
_atom_site_fract_x
_atom_site_fract_y
_atom_site_fract_z
O1	O	1.224780	0.167204	-0.085432
O2	O	0.956410	0.186894	-0.085464
O3	O	1.096702	-0.008613	-0.085441
O4	O	1.084488	0.362710	-0.085455
O5	O	1.096687	-0.008624	0.085693
O6	O	0.956395	0.186883	0.085670
O7	O	1.224765	0.167193	0.085702
Cu8	Cu	1.090579	0.177037	0.101312
Cu9	Cu	1.090596	0.177050	-0.101074
O10	O	1.084474	0.362699	0.085679
C11	C	0.922038	0.185971	0.000099
C12	C	0.819642	0.183221	0.000088
C13	C	1.095772	-0.056140	0.000125
C14	C	1.093012	-0.197741	0.000123
C15	C	0.444691	0.173098	0.000135
C16	C	0.549014	0.175909	0.000121
C17	C	0.632163	0.178159	0.000110
C18	C	0.736493	0.180971	0.000099
C19	C	1.003749	-0.264951	0.000105
C20	C	1.045909	-0.357518	0.084488
C21	C	1.045944	-0.357482	-0.084237
C22	C	1.135209	-0.288443	0.084575
C23	C	1.135232	-0.288398	-0.084225
C24	C	1.177457	-0.380938	0.000178
C25	C	1.259137	0.168116	0.000136
C26	C	1.361533	0.170866	0.000142
C27	C	1.085403	0.410227	0.000111
C28	C	1.088163	0.551828	0.000106
N29	N	1.090573	0.177027	0.243659
N30	N	1.090609	0.177049	-0.243421
C31	C	1.090595	0.177051	0.663473
C32	C	1.090586	0.177049	0.546668
C33	C	1.090585	0.177040	0.453570
C34	C	1.090575	0.177036	0.336757
H35	H	0.930357	-0.214534	0.000181
H36	H	1.008133	-0.388140	0.155819
H37	H	1.172939	-0.258009	0.155995
C38	C	1.186222	-0.246969	-0.180590
C39	C	1.148769	-0.273733	-0.288461
C40	C	1.199750	-0.232299	-0.384835
C41	C	1.288183	-0.164100	-0.373339
C42	C	1.325640	-0.137331	-0.265464
C43	C	1.274659	-0.178765	-0.169089
H44	H	1.083302	-0.324222	-0.296975
H45	H	1.172021	-0.252115	-0.464692
H46	H	1.325922	-0.133427	-0.444681
H47	H	1.391108	-0.086843	-0.256950
H48	H	1.302388	-0.158949	-0.089233
C49	C	1.276690	-0.448750	0.000245
C50	C	1.342905	-0.426715	0.089579
C51	C	1.442137	-0.494526	0.089650
C52	C	1.475155	-0.584373	0.000388
C53	C	1.408939	-0.606412	-0.088953
C54	C	1.309707	-0.538600	-0.089024
H55	H	1.318464	-0.360202	0.155663
H56	H	1.491155	-0.478211	0.155786
H57	H	1.548613	-0.634571	0.000440
H58	H	1.433380	-0.672925	-0.155037
H59	H	1.260690	-0.554916	-0.155160
H60	H	1.008170	-0.388048	-0.155583
