data_functionalizedCrystal
_audit_creation_method	'MofGen! by Chris Wilmer'
_symmetry_space_group_name_H-M	'P1'
_symmetry_Int_Tables_number	1
_symmetry_cell_setting	triclinic
loop_
_symmetry_equiv_pos_as_xyz
  x,y,z
_cell_length_a	17.699083
_cell_length_b	8.597275
_cell_length_c	7.088668
_cell_angle_alpha	90.785608
_cell_angle_beta	83.025543
_cell_angle_gamma	84.313517
loop_
_atom_site_label
_atom_site_type_symbol
_atom_site_fract_x
_atom_site_fract_y
_atom_site_fract_z
O1	O	1.011220	0.209671	-0.124178
O2	O	0.790872	0.235119	-0.120047
O3	O	0.907023	-0.002740	-0.159194
O4	O	0.895069	0.447530	-0.085031
O5	O	0.893133	-0.031032	0.154132
O6	O	0.776982	0.206827	0.193278
O7	O	0.997330	0.181379	0.189148
Cu8	Cu	0.885888	0.191520	0.219822
Cu9	Cu	0.902314	0.224978	-0.150722
O10	O	0.881179	0.419238	0.228294
C11	C	0.755730	0.220062	0.036457
C12	C	0.671710	0.217329	0.035984
C13	C	0.899569	-0.074496	-0.012025
C14	C	0.898041	-0.246158	-0.040313
C15	C	0.623243	0.356945	0.058980
C16	C	0.544296	0.354364	0.058580
C17	C	0.513817	0.212166	0.035169
C18	C	0.562290	0.072539	0.012176
C19	C	0.641235	0.075120	0.012591
C20	C	0.243913	0.062124	0.010508
C21	C	0.164962	0.059554	0.010090
C22	C	0.146974	0.341368	0.056497
C23	C	0.225919	0.343950	0.056911
C24	C	0.274384	0.204322	0.033929
C25	C	0.359988	0.207122	0.034367
C26	C	0.428216	0.209366	0.034717
C27	C	1.032473	0.196436	0.032639
C28	C	1.116493	0.199170	0.033100
C29	C	0.888634	0.490995	0.081121
C30	C	0.890163	0.662657	0.109397
N31	N	0.874340	0.167986	0.480443
N32	N	0.913868	0.248500	-0.411344
H33	H	0.504837	0.468054	0.077304
C34	C	0.905582	-0.318091	-0.242697
H35	H	0.910738	-0.237872	-0.332827
H36	H	0.861231	-0.368437	-0.258129
H37	H	0.949446	-0.392338	-0.262003
H38	H	0.884593	-0.284078	0.259213
H39	H	0.954820	0.331931	0.520709
C40	C	0.819018	0.055283	0.572200
H41	H	0.795467	0.007308	0.476167
H42	H	0.780839	0.111893	0.659621
H43	H	0.846623	-0.022905	0.637404
C44	C	0.656767	0.513362	0.084726
H45	H	0.710726	0.494910	0.081661
H46	H	0.635296	0.560974	0.203455
H47	H	0.644968	0.580697	-0.015087
C48	C	0.259442	0.500365	0.082671
H49	H	0.219268	0.583147	0.096329
H50	H	0.294702	0.517101	-0.025460
H51	H	0.285024	0.497354	0.193078
C52	C	0.297215	-0.091458	-0.014784
H53	H	0.267755	-0.176509	-0.028805
H54	H	0.323548	-0.106181	0.093677
H55	H	0.333223	-0.086447	-0.124864
H56	H	0.107504	0.455058	0.075221
H57	H	0.537467	-0.043244	-0.006858
C58	C	0.131436	-0.096873	-0.015644
H59	H	0.171606	-0.179663	-0.029253
H60	H	0.105851	-0.093880	-0.126035
H61	H	0.096176	-0.113586	0.092511
H62	H	0.680696	-0.038570	-0.006137
