data_functionalizedCrystal
_audit_creation_method	'MofGen! by Chris Wilmer'
_symmetry_space_group_name_H-M	'P1'
_symmetry_Int_Tables_number	1
_symmetry_cell_setting	triclinic
loop_
_symmetry_equiv_pos_as_xyz
  x,y,z
_cell_length_a	6.817900
_cell_length_b	17.982959
_cell_length_c	17.078481
_cell_angle_alpha	96.484289
_cell_angle_beta	99.306161
_cell_angle_gamma	102.451857
loop_
_atom_site_label
_atom_site_type_symbol
_atom_site_fract_x
_atom_site_fract_y
_atom_site_fract_z
V1	V	-3.974480	-0.105234	-0.247692
O2	O	-3.968302	0.005240	-0.242636
O3	O	-3.921245	-0.208838	-0.246326
O4	O	-3.905609	-0.103535	-0.355570
O5	O	-3.984046	-0.100792	-0.132636
V6	V	-4.461387	-0.092030	-0.233891
O7	O	-4.228316	-0.134200	-0.277967
O8	O	-4.657750	-0.063065	-0.203616
O9	O	-4.291416	0.011574	-0.235257
O10	O	-4.584963	-0.202504	-0.238947
O11	O	-4.569219	-0.096473	-0.348947
O12	O	-4.307052	-0.093729	-0.126013
C13	C	-3.765732	-0.234097	-0.242503
C14	C	-3.803356	-0.318794	-0.242105
C15	C	-4.002196	-0.362462	-0.245888
C16	C	-4.037538	-0.442045	-0.245519
C17	C	-3.874035	-0.477956	-0.241361
C18	C	-3.675180	-0.434282	-0.237581
C19	C	-3.639843	-0.354702	-0.237956
C20	C	-3.817687	-0.755219	-0.236070
C21	C	-3.853040	-0.834804	-0.235693
C22	C	-4.215382	-0.842561	-0.243633
C23	C	-4.180045	-0.762981	-0.244007
C24	C	-3.981196	-0.719315	-0.240231
C25	C	-3.942877	-0.633023	-0.240633
C26	C	-3.912350	-0.564246	-0.240954
C27	C	-3.745786	-0.099772	-0.381854
C28	C	-3.770728	-0.099068	-0.470046
C29	C	-3.963600	-0.102541	-0.515533
C30	C	-3.987024	-0.101879	-0.598399
C31	C	-3.817575	-0.097751	-0.635778
C32	C	-3.624686	-0.094275	-0.590285
C33	C	-3.601263	-0.094931	-0.507419
C34	C	-3.868202	-0.095376	-0.883173
C35	C	-3.891643	-0.094722	-0.966045
C36	C	-4.253979	-0.102325	-0.974154
C37	C	-4.230540	-0.102985	-0.891287
C38	C	-4.037652	-0.099506	-0.845801
N39	N	-3.841515	-0.097077	-0.720480
N40	N	-4.013713	-0.100174	-0.761099
C41	C	-4.110271	0.036829	-0.239078
C42	C	-4.051884	0.121525	-0.239481
C43	C	-4.130218	-0.097495	-0.099725
C44	C	-4.084515	-0.098195	-0.011532
H45	H	-3.719887	-0.864041	-0.232312
H46	H	-4.377299	-0.878124	-0.246709
C47	C	-3.438376	-0.089906	-0.631424
H48	H	-3.320175	-0.087978	-0.592470
H49	H	-3.462427	-0.134182	-0.670915
H50	H	-3.417587	-0.044903	-0.656262
H51	H	-4.101591	-0.105908	-0.485106
C52	C	-4.359899	-0.723483	-0.248584
H53	H	-4.483389	-0.760890	-0.250791
H54	H	-4.337099	-0.685671	-0.202396
H55	H	-4.370191	-0.699531	-0.295404
C56	C	-3.495330	-0.473782	-0.233007
H57	H	-3.544848	-0.527431	-0.233317
H58	H	-3.431646	-0.466075	-0.277937
H59	H	-3.398547	-0.452216	-0.184929
C60	C	-3.421118	-0.306666	-0.233788
H61	H	-3.328798	-0.339448	-0.231250
H62	H	-3.416347	-0.282386	-0.280269
H63	H	-3.383254	-0.268534	-0.187261
H64	H	-3.753645	-0.091357	-0.996476
C65	C	-3.656057	-0.091580	-0.833150
H66	H	-3.666361	-0.092560	-0.778444
H67	H	-3.607657	-0.134549	-0.852462
H68	H	-3.563274	-0.045282	-0.837672
H69	H	-3.655776	-0.719674	-0.232990
C70	C	-3.389106	-0.091116	-0.457384
H71	H	-3.291545	-0.088570	-0.491514
H72	H	-3.350284	-0.046584	-0.417503
H73	H	-3.394595	-0.135850	-0.432279
C74	C	-4.466132	-0.106141	-1.024188
H75	H	-4.455819	-0.105153	-1.078892
H76	H	-4.558889	-0.152438	-1.019661
H77	H	-4.514561	-0.063172	-1.004884
H78	H	-4.199450	-0.477597	-0.248600
H79	H	-4.135341	-0.333228	-0.249266
H80	H	-4.144076	-0.104703	-0.635430
H81	H	-4.368527	-0.106346	-0.860859
