data_functionalizedCrystal
_audit_creation_method	'MofGen! by Chris Wilmer'
_symmetry_space_group_name_H-M	'P1'
_symmetry_Int_Tables_number	1
_symmetry_cell_setting	triclinic
loop_
_symmetry_equiv_pos_as_xyz
  x,y,z
_cell_length_a	16.109301
_cell_length_b	23.532407
_cell_length_c	14.586319
_cell_angle_alpha	89.991566
_cell_angle_beta	89.999213
_cell_angle_gamma	83.155079
loop_
_atom_site_label
_atom_site_type_symbol
_atom_site_fract_x
_atom_site_fract_y
_atom_site_fract_z
O1	O	1.102555	0.073202	-0.076192
O2	O	0.860422	0.082312	-0.076208
O3	O	0.988790	-0.005148	-0.076183
O4	O	0.974187	0.160662	-0.076217
O5	O	0.988781	-0.005149	0.076298
O6	O	0.860413	0.082311	0.076273
O7	O	1.102546	0.073201	0.076289
Cu8	Cu	0.981479	0.077756	0.090204
Cu9	Cu	0.981489	0.077757	-0.090123
O10	O	0.974178	0.160660	0.076264
C11	C	0.829445	0.081942	0.000031
C12	C	0.737159	0.080836	0.000026
C13	C	0.514498	0.130160	0.000026
C14	C	0.427786	0.129116	0.000032
C15	C	0.448476	0.025348	0.000050
C16	C	0.535187	0.026393	0.000050
C17	C	0.568195	0.078801	0.000034
C18	C	0.394773	0.076712	0.000039
C19	C	0.300755	0.075580	0.000046
C20	C	0.662218	0.079933	0.000029
C21	C	0.988414	-0.026366	0.000060
C22	C	0.987296	-0.089587	0.000067
C23	C	1.056249	-0.488436	0.000021
C24	C	1.055210	-0.547840	0.000014
O25	O	1.119130	-0.584349	-0.000015
N26	N	0.978895	-0.570748	0.000010
C27	C	0.903614	-0.534248	0.000003
O28	O	0.838607	-0.559187	-0.000002
C29	C	0.904654	-0.474845	0.000004
C30	C	0.980973	-0.451941	0.000018
C31	C	1.132562	-0.465531	0.000034
C32	C	1.133601	-0.406131	0.000043
C33	C	1.058325	-0.369636	0.000039
C34	C	0.982012	-0.392541	0.000026
C35	C	0.829373	-0.438346	-0.000009
C36	C	0.830419	-0.378940	-0.000009
C37	C	0.906739	-0.356036	0.000004
C38	C	0.907774	-0.296645	0.000031
N39	N	0.984089	-0.273738	0.000035
C40	C	1.059365	-0.310233	0.000039
C41	C	0.901437	-0.658998	0.000001
C42	C	0.900396	-0.718400	0.000007
C43	C	1.051993	-0.731988	0.000016
C44	C	1.053032	-0.672585	0.000017
C45	C	0.977752	-0.636091	0.000005
C46	C	1.061539	-0.185488	0.000058
C47	C	1.062571	-0.126082	0.000071
C48	C	0.910975	-0.112499	0.000057
C49	C	0.909943	-0.171900	0.000049
C50	C	0.985232	-0.208394	0.000047
O51	O	0.843888	-0.260102	0.000057
O52	O	1.124361	-0.285285	0.000032
C53	C	1.133523	0.073570	0.000048
C54	C	1.225809	0.074677	0.000047
C55	C	0.974554	0.181878	0.000019
C56	C	0.975672	0.245100	0.000006
N57	N	0.981477	0.077754	0.217035
N58	N	0.981497	0.077754	-0.216954
C59	C	1.038338	0.039040	0.452053
C60	C	1.038340	0.039039	0.548034
C61	C	0.924631	0.116470	0.548021
C62	C	0.924625	0.116468	0.452042
C63	C	0.981483	0.077754	0.404060
C64	C	0.981491	0.077754	0.596021
C65	C	0.981494	0.077753	0.700088
C66	C	0.981480	0.077754	0.299986
H67	H	0.578910	-0.015433	0.000059
H68	H	1.084635	0.007514	0.587107
O69	O	1.207716	-0.383857	0.000206
C70	C	1.212855	-0.349899	0.079163
H71	H	1.169529	-0.363944	0.134363
H72	H	1.193288	-0.303050	0.061308
C73	C	1.356643	-0.339866	0.047169
C74	C	1.303434	-0.357120	0.114969
H75	H	1.412517	-0.344318	0.069254
H76	H	1.353181	-0.362742	-0.006029
H77	H	1.340326	-0.300826	0.032296
H78	H	1.319745	-0.396160	0.129832
H79	H	1.306902	-0.334250	0.168170
O80	O	0.546664	0.181031	0.000138
C81	C	0.596185	0.184744	0.079119
H82	H	0.618158	0.139853	0.105454
H83	H	0.557663	0.209943	0.134414
C84	C	0.645650	0.270536	0.022778
C85	C	0.672643	0.215399	0.055119
H86	H	0.692810	0.289448	0.007976
H87	H	0.612284	0.268036	-0.030431
H88	H	0.613547	0.291528	0.068863
H89	H	0.704735	0.194406	0.009030
H90	H	0.706016	0.217896	0.108320
H91	H	1.124722	-0.107437	0.000084
H92	H	0.840130	-0.629287	-0.000001
O93	O	1.125042	-0.767527	-0.000032
C94	C	1.107750	-0.824867	-0.000018
H95	H	1.042464	-0.827129	-0.028883
H96	H	1.111048	-0.842058	0.073132
C97	C	1.252782	-0.858445	-0.024371
C98	C	1.172600	-0.861224	-0.059831
H99	H	1.292786	-0.880873	-0.061263
H100	H	1.264433	-0.819815	-0.024377
H101	H	1.255519	-0.872770	0.036587
H102	H	1.169861	-0.846893	-0.120783
H103	H	1.160950	-0.899854	-0.059837
O104	O	0.869488	0.154057	0.594775
C105	C	0.881671	0.145750	0.689781
H106	H	0.947944	0.124477	0.702889
H107	H	0.834852	0.117179	0.717033
C108	C	0.787300	0.230137	0.722939
C109	C	0.868701	0.204012	0.739040
H110	H	0.779297	0.266075	0.753326
H111	H	0.779090	0.235732	0.658932
H112	H	0.748294	0.206321	0.745650
H113	H	0.907705	0.227824	0.716319
H114	H	0.876918	0.198422	0.803045
O115	O	0.835861	-0.194222	-0.000078
C116	C	0.830722	-0.228150	-0.079071
H117	H	0.896378	-0.242943	-0.105396
H118	H	0.793721	-0.201892	-0.134366
C119	C	0.705760	-0.262527	-0.022769
C120	C	0.786401	-0.280701	-0.055097
H121	H	0.678418	-0.294942	-0.007983
H122	H	0.709221	-0.239668	0.030449
H123	H	0.674937	-0.240645	-0.068854
H124	H	0.817226	-0.302575	-0.009009
H125	H	0.782945	-0.303565	-0.108307
H126	H	0.878324	0.147994	0.412964
O127	O	0.375660	0.179023	-0.000142
C128	C	0.390571	0.210847	-0.079110
H129	H	0.420457	0.180776	-0.134300
H130	H	0.434455	0.243802	-0.061265
C131	C	0.270498	0.278647	-0.047137
C132	C	0.307199	0.241713	-0.114925
H133	H	0.219072	0.297689	-0.069228
H134	H	0.260454	0.257208	0.006067
H135	H	0.307076	0.306105	-0.032272
H136	H	0.270625	0.214252	-0.129780
H137	H	0.317235	0.263148	-0.168133
H138	H	0.421590	-0.017320	0.000069
H139	H	1.122847	-0.215195	0.000053
O140	O	0.755162	-0.460491	-0.000067
C141	C	0.688956	-0.415531	-0.000054
H142	H	0.711936	-0.375179	-0.028911
H143	H	0.665750	-0.407130	0.073095
C144	C	0.588718	-0.481836	-0.024426
C145	C	0.616941	-0.432276	-0.059876
H146	H	0.544294	-0.492166	-0.061323
H147	H	0.633322	-0.512127	-0.024431
H148	H	0.569386	-0.474828	0.036531
H149	H	0.636282	-0.439287	-0.120827
H150	H	0.572339	-0.401987	-0.059882
H151	H	0.769115	-0.349228	-0.000020
O152	O	1.093496	0.001463	0.405301
C153	C	1.081272	0.009739	0.310294
H154	H	1.049874	0.055022	0.297159
H155	H	1.039788	-0.022482	0.283105
C156	C	1.204933	-0.054483	0.277119
C157	C	1.166376	0.001137	0.260985
H158	H	1.257428	-0.059791	0.246701
H159	H	1.213168	-0.060060	0.341126
H160	H	1.170354	-0.081327	0.254461
H161	H	1.200949	0.027980	0.283654
H162	H	1.158149	0.006719	0.196980
H163	H	1.193864	-0.495240	0.000034
H164	H	1.115179	-0.653941	0.000027
H165	H	0.838249	-0.737043	0.000012
H166	H	0.849688	-0.082774	0.000057
