data_functionalizedCrystal
_audit_creation_method	'MofGen! by Chris Wilmer'
_symmetry_space_group_name_H-M	'P1'
_symmetry_Int_Tables_number	1
_symmetry_cell_setting	triclinic
loop_
_symmetry_equiv_pos_as_xyz
  x,y,z
_cell_length_a	21.295418
_cell_length_b	15.297327
_cell_length_c	15.296720
_cell_angle_alpha	107.319222
_cell_angle_beta	99.639667
_cell_angle_gamma	99.725786
loop_
_atom_site_label
_atom_site_type_symbol
_atom_site_fract_x
_atom_site_fract_y
_atom_site_fract_z
Zn1	Zn	0.835360	-0.460955	-0.590189
Zn2	Zn	0.835288	-0.589577	-0.461583
Zn3	Zn	0.752127	-0.434110	-0.434671
Zn4	Zn	0.708045	-0.616460	-0.616973
O5	O	0.782705	-0.525276	-0.525854
O6	O	0.923435	-0.478001	-0.573183
O7	O	0.842675	-0.546468	-0.327897
O8	O	0.781646	-0.307528	-0.432829
O9	O	0.923383	-0.572499	-0.478696
O10	O	0.842797	-0.327252	-0.547087
O11	O	0.781577	-0.432248	-0.308125
O12	O	0.658195	-0.458315	-0.458800
O13	O	0.706515	-0.618318	-0.743536
O14	O	0.625808	-0.592287	-0.592737
O15	O	0.800053	-0.504069	-0.723858
O16	O	0.799931	-0.723286	-0.504668
O17	O	0.706446	-0.743037	-0.618833
C18	C	0.748411	-0.766910	-0.567597
C19	C	0.733793	-0.870287	-0.585486
C20	C	0.619162	-0.525306	-0.525756
C21	C	0.549191	-0.525345	-0.525739
C22	C	0.887395	-1.120460	-0.398316
C23	C	0.901130	-1.023331	-0.381504
C24	C	0.859297	-0.985065	-0.432498
C25	C	0.803727	-1.043938	-0.500307
C26	C	0.789988	-1.141075	-0.517116
C27	C	0.761890	-1.005681	-0.551298
C28	C	0.706320	-1.064553	-0.619108
C29	C	0.692584	-1.161681	-0.635914
C30	C	0.734417	-1.199947	-0.584919
C31	C	0.775629	-0.908543	-0.534489
C32	C	0.678222	-0.929159	-0.653290
C33	C	0.664487	-1.026288	-0.670102
C34	C	0.499478	-0.595168	-0.595405
C35	C	0.433733	-0.595152	-0.595443
C36	C	0.417704	-0.525321	-0.525800
C37	C	0.467426	-0.455486	-0.456128
C38	C	0.533170	-0.455498	-0.456098
N39	N	0.326989	-0.503981	-0.443215
N40	N	0.264534	-0.503975	-0.443247
C41	C	0.219624	-0.525279	-0.525888
N42	N	0.239524	-0.546607	-0.608501
N43	N	0.301984	-0.546617	-0.608468
C44	C	0.346418	-0.525300	-0.525825
C45	C	0.098621	-0.595088	-0.595600
C46	C	0.032876	-0.595066	-0.595639
C47	C	0.066571	-0.455404	-0.456317
C48	C	0.132315	-0.455422	-0.456286
C49	C	0.148336	-0.525269	-0.525927
C50	C	0.946887	-0.525246	-0.525954
C51	C	1.016851	-0.525233	-0.525996
C52	C	0.748375	-0.567187	-0.768378
C53	C	0.733745	-0.585047	-0.871728
C54	C	0.817147	-0.282702	-0.483968
C55	C	0.831824	-0.179331	-0.466119
C56	C	0.887311	-0.397465	-1.122072
C57	C	0.901060	-0.380686	-1.024970
C58	C	0.859232	-0.431774	-0.986655
C59	C	0.803654	-0.499645	-1.045450
C60	C	0.789906	-0.516431	-1.142562
C61	C	0.761827	-0.550740	-1.007145
C62	C	0.706249	-0.618611	-1.065941
C63	C	0.692503	-0.635393	-1.163043
C64	C	0.734331	-0.584305	-1.201359
C65	C	0.775575	-0.533955	-0.910033
C66	C	0.678170	-0.652921	-0.930524
C67	C	0.664421	-0.669699	-1.027625
C68	C	0.816947	-0.483461	-0.284262
C69	C	0.831736	-0.465339	-0.180868
H70	H	0.820874	-0.860617	-0.479278
O71	O	0.829543	-0.468083	-0.852796
C72	C	0.893864	-0.389441	-0.694113
C73	C	0.832731	-0.464093	-0.758830
H74	H	0.896454	-0.386176	-0.618126
H75	H	0.939624	-0.409047	-0.715984
H76	H	0.890746	-0.317777	-0.700319
H77	H	0.835785	-0.535783	-0.752657
H78	H	0.786996	-0.444406	-0.736941
O79	O	0.610393	-0.735637	-1.084606
C80	C	0.515253	-0.851908	-1.094697
C81	C	0.576407	-0.777247	-1.030058
H82	H	0.487765	-0.885585	-1.050624
H83	H	0.481923	-0.817111	-1.132750
H84	H	0.530826	-0.908351	-1.148592
H85	H	0.560894	-0.720782	-0.976110
H86	H	0.609722	-0.812112	-0.992074
H87	H	-0.007602	-0.651923	-0.652374
O88	O	0.955055	-0.314697	-0.967988
C89	C	1.050237	-0.198511	-0.957925
C90	C	0.989099	-0.273206	-1.022563
H91	H	1.077787	-0.164959	-1.002025
H92	H	1.034716	-0.141971	-0.904062
H93	H	1.083497	-0.233359	-0.919833
H94	H	0.955813	-0.238442	-1.060719
H95	H	1.004668	-0.329739	-1.076368
H96	H	0.393249	-0.652010	-0.652176
O97	O	0.051100	-0.387589	-0.388534
C98	C	0.059727	-0.314922	-0.222607
C99	C	0.077303	-0.391752	-0.299280
H100	H	0.080893	-0.318275	-0.150430
H101	H	0.081029	-0.242773	-0.226018
H102	H	0.004198	-0.326883	-0.234624
H103	H	0.132823	-0.379881	-0.287315
H104	H	0.055955	-0.463874	-0.295849
O105	O	0.180666	-0.387723	-0.388581
C106	C	0.274374	-0.353340	-0.260796
C107	C	0.219658	-0.430111	-0.337448
H108	H	0.305905	-0.387580	-0.219422
H109	H	0.306079	-0.312178	-0.295110
H110	H	0.251611	-0.303413	-0.211065
H111	H	0.242365	-0.480100	-0.387203
H112	H	0.187959	-0.471202	-0.303071
H113	H	0.946374	-0.975400	-0.326293
H114	H	0.870430	-0.418109	-0.907589
H115	H	0.921364	-0.355881	-1.153279
H116	H	0.723140	-0.597962	-1.280426
H117	H	0.647252	-0.690665	-1.210914
H118	H	0.921447	-1.151624	-0.356798
O119	O	0.451973	-0.387561	-0.388431
C120	C	0.492330	-0.249069	-0.250211
C121	C	0.509921	-0.325932	-0.326835
H122	H	0.539170	-0.199234	-0.200379
H123	H	0.462458	-0.207823	-0.284548
H124	H	0.462330	-0.283296	-0.208941
H125	H	0.539943	-0.291783	-0.368131
H126	H	0.539761	-0.367171	-0.292440
H127	H	0.644111	-0.694523	-0.899329
O128	O	0.872614	-0.890745	-0.416343
C129	C	0.895876	-0.766702	-0.481368
C130	C	0.880782	-0.873546	-0.499798
H131	H	0.902498	-0.752762	-0.548824
H132	H	0.853593	-0.737031	-0.457495
H133	H	0.942762	-0.731209	-0.424111
H134	H	0.833916	-0.909119	-0.557070
H135	H	0.923102	-0.903147	-0.523620
O136	O	0.720959	-1.294302	-0.601255
C137	C	0.644313	-1.429657	-0.601364
C138	C	0.659462	-1.322798	-0.582847
H139	H	0.594599	-1.452725	-0.586470
H140	H	0.643370	-1.468466	-0.677963
H141	H	0.683784	-1.446878	-0.553301
H142	H	0.620008	-1.305490	-0.630852
H143	H	0.660429	-1.284046	-0.506226
O144	O	0.638589	-1.218742	-0.701839
C145	C	0.543402	-1.228929	-0.817856
C146	C	0.604537	-1.164206	-0.743240
H147	H	0.515847	-1.184861	-0.851336
H148	H	0.558929	-1.282737	-0.874443
H149	H	0.510147	-1.267106	-0.782975
H150	H	0.637819	-1.125966	-0.778038
H151	H	0.588964	-1.110457	-0.686661
O152	O	0.610561	-1.083462	-0.736092
C153	C	0.553320	-1.140463	-0.899332
C154	C	0.614430	-1.075689	-0.824699
H155	H	0.556421	-1.134185	-0.970984
H156	H	0.550680	-1.216481	-0.902665
H157	H	0.507590	-1.118623	-0.879578
H158	H	0.660193	-1.097444	-0.844398
H159	H	0.617011	-0.999687	-0.821380
H160	H	0.644157	-0.898004	-0.694812
H161	H	0.512517	-0.652042	-0.652113
O162	O	0.114221	-0.663004	-0.663137
C163	C	0.168875	-0.790697	-0.697102
C164	C	0.151244	-0.713837	-0.620523
H165	H	0.198822	-0.831804	-0.662676
H166	H	0.122067	-0.840659	-0.746902
H167	H	0.198826	-0.756477	-0.738425
H168	H	0.121310	-0.747975	-0.579131
H169	H	0.198077	-0.663883	-0.570787
H170	H	0.573648	-0.398638	-0.399367
