data_functionalizedCrystal
_audit_creation_method	'MofGen! by Chris Wilmer'
_symmetry_space_group_name_H-M	'P1'
_symmetry_Int_Tables_number	1
_symmetry_cell_setting	triclinic
loop_
_symmetry_equiv_pos_as_xyz
  x,y,z
_cell_length_a	14.971482
_cell_length_b	14.971486
_cell_length_c	14.048226
_cell_angle_alpha	89.993360
_cell_angle_beta	89.994098
_cell_angle_gamma	83.613368
loop_
_atom_site_label
_atom_site_type_symbol
_atom_site_fract_x
_atom_site_fract_y
_atom_site_fract_z
O1	O	1.186949	0.116549	-0.079149
O2	O	0.926548	0.130511	-0.079153
O3	O	1.063728	-0.006670	-0.079144
O4	O	1.049769	0.253730	-0.079158
O5	O	1.063712	-0.006678	0.079177
O6	O	0.926532	0.130503	0.079168
O7	O	1.186933	0.116541	0.079173
Zn8	Zn	1.056730	0.123521	0.104307
Zn9	Zn	1.056751	0.123531	-0.104288
O10	O	1.049753	0.253722	0.079163
C11	C	0.893215	0.129883	0.000007
C12	C	0.793918	0.128014	0.000005
C13	C	0.747265	0.127129	0.086307
C14	C	0.653966	0.125358	0.086308
C15	C	0.607322	0.124479	0.000006
C16	C	0.653983	0.125361	-0.086302
C17	C	0.747280	0.127125	-0.086303
C18	C	0.459521	0.121686	-0.086296
C19	C	0.366216	0.119923	-0.086296
C20	C	0.366207	0.119918	0.086315
C21	C	0.459504	0.121683	0.086315
C22	C	0.506158	0.122567	0.000005
C23	C	1.063096	-0.039999	0.000016
C24	C	1.061225	-0.139296	0.000015
C25	C	1.141814	-0.196522	0.000017
C26	C	1.140051	-0.289822	0.000008
C27	C	1.057698	-0.325893	0.000003
C28	C	0.977102	-0.268659	-0.000002
C29	C	0.978866	-0.175362	0.000001
C30	C	0.973431	-0.463122	-0.000006
C31	C	0.971667	-0.556426	-0.000007
C32	C	1.134616	-0.577582	0.000001
C33	C	1.136380	-0.484284	0.000004
C34	C	1.055784	-0.427057	0.000001
C35	C	1.220266	0.117168	0.000010
C36	C	1.319563	0.119038	0.000006
C37	C	1.050385	0.287051	0.000001
C38	C	1.052256	0.386348	-0.000005
N39	N	1.056721	0.123513	0.246668
N40	N	1.056767	0.123532	-0.246649
C41	C	1.117484	0.062794	0.296490
C42	C	1.117490	0.062793	0.396148
C43	C	1.056737	0.123517	0.445981
C44	C	0.995968	0.184238	0.396152
C45	C	0.995959	0.184234	0.296496
C46	C	0.995994	0.184245	0.603866
C47	C	0.996005	0.184251	0.703529
C48	C	1.117525	0.062804	0.703518
C49	C	1.117515	0.062800	0.603862
C50	C	1.056748	0.123523	0.554040
H51	H	0.497503	0.122406	-0.156578
C52	C	0.890212	-0.112412	0.000001
N53	N	0.823434	-0.065000	-0.000002
H54	H	0.946532	0.233697	0.744099
C55	C	0.884771	-0.400173	-0.000004
N56	N	0.817993	-0.352761	0.000003
H57	H	0.946507	0.233689	0.563304
H58	H	0.946498	0.233677	0.436733
C59	C	0.602671	0.124391	-0.181236
N60	N	0.564024	0.123663	-0.252741
H61	H	0.785264	0.127847	-0.156579
H62	H	0.946479	0.233676	0.255932
H63	H	0.785234	0.127852	0.156584
H64	H	1.208876	-0.167161	0.000027
C65	C	1.184367	-0.003995	0.758324
N66	N	1.234712	-0.054305	0.799608
C67	C	1.184317	-0.004008	0.241682
N68	N	1.234655	-0.054328	0.200403
C69	C	1.184312	-0.004024	0.450947
N70	N	1.234637	-0.054362	0.492222
H71	H	0.615987	0.124623	0.156584
C72	C	0.510811	0.122651	0.181251
N73	N	0.549455	0.123377	0.252759
C74	C	0.314886	0.118940	0.181256
N75	N	0.276228	0.118205	0.252763
C76	C	0.881074	-0.596102	-0.000024
N77	N	0.812838	-0.625986	-0.000041
H78	H	1.205675	-0.336413	0.000012
H79	H	0.910049	-0.298036	-0.000012
C80	C	1.226973	-0.444608	0.000014
N81	N	1.295209	-0.414725	0.000019
C82	C	0.314910	0.118951	-0.181233
N83	N	0.276267	0.118219	-0.252740
H84	H	1.166989	0.013359	0.563287
C85	C	1.223273	-0.640534	-0.000002
N86	N	1.290046	-0.687953	-0.000003
