data_functionalizedCrystal
_audit_creation_method	'MofGen! by Chris Wilmer'
_symmetry_space_group_name_H-M	'P1'
_symmetry_Int_Tables_number	1
_symmetry_cell_setting	triclinic
loop_
_symmetry_equiv_pos_as_xyz
  x,y,z
_cell_length_a	10.967874
_cell_length_b	26.210047
_cell_length_c	11.026607
_cell_angle_alpha	89.999771
_cell_angle_beta	96.380181
_cell_angle_gamma	102.145139
loop_
_atom_site_label
_atom_site_type_symbol
_atom_site_fract_x
_atom_site_fract_y
_atom_site_fract_z
O1	O	1.694115	0.191378	0.170515
O2	O	1.334464	0.159757	0.186838
O3	O	1.484482	0.172945	0.001775
O4	O	1.544097	0.178190	0.355578
O5	O	1.484422	0.088082	0.001774
O6	O	1.334404	0.074894	0.186837
O7	O	1.694054	0.106514	0.170514
Cu8	Cu	1.514224	0.082956	0.178675
Cu9	Cu	1.514295	0.183316	0.178677
O10	O	1.544037	0.093327	0.355577
C11	C	1.287675	0.113215	0.185650
C12	C	1.148346	0.100965	0.182096
C13	C	1.086260	0.139465	0.180512
C14	C	0.942256	0.126805	0.176840
N15	N	1.514182	0.012368	0.178674
C16	C	1.606676	-0.332013	0.253075
C17	C	1.606713	-0.545669	0.253075
O18	O	1.685323	-0.566379	0.316319
N19	N	1.514322	-0.580514	0.178665
C20	C	1.421920	-0.561942	0.104243
O21	O	1.343345	-0.596481	0.040944
C22	C	1.421890	-0.348287	0.104238
C23	C	1.514279	-0.313445	0.178662
C24	C	1.699059	-0.297172	0.327492
C25	C	1.699045	-0.243762	0.327497
C26	C	1.606648	-0.225193	0.253084
C27	C	1.514265	-0.260034	0.178667
C28	C	1.329494	-0.329715	0.029811
C29	C	1.329497	-0.276297	0.029814
C30	C	1.421886	-0.241455	0.104239
C31	C	1.421854	-0.188056	0.104258
N32	N	1.514245	-0.153211	0.178668
C33	C	1.606642	-0.171779	0.253081
C34	C	1.421941	-0.674113	0.104253
C35	C	1.421948	-0.727527	0.104256
C36	C	1.606742	-0.711250	0.253086
C37	C	1.606729	-0.657836	0.253089
C38	C	1.514332	-0.639268	0.178663
C39	C	1.606604	-0.059615	0.253085
C40	C	1.606579	-0.006201	0.253087
C41	C	1.421789	-0.022482	0.104253
C42	C	1.421810	-0.075892	0.104255
C43	C	1.514228	-0.094456	0.178675
O44	O	1.343294	-0.167308	0.041037
O45	O	1.685222	-0.137230	0.316351
C46	C	1.606690	-0.385423	0.253071
C47	C	1.514308	-0.420265	0.178654
C48	C	1.421911	-0.401696	0.104241
C49	C	1.514314	-0.473679	0.178656
C50	C	1.606710	-0.492247	0.253069
C51	C	1.699101	-0.457402	0.327479
C52	C	1.699087	-0.403992	0.327484
C53	C	1.329520	-0.436541	0.029831
C54	C	1.329541	-0.489951	0.029834
C55	C	1.421938	-0.508520	0.104246
C56	C	1.740843	0.153058	0.171702
C57	C	1.880173	0.165311	0.175256
C58	C	1.473454	0.129547	-0.043528
C59	C	1.440669	0.126666	-0.178514
N60	N	1.514344	0.253905	0.178668
C61	C	1.531194	0.134626	-0.251567
C62	C	1.497311	0.131649	-0.391083
C63	C	1.555065	0.136726	0.400880
C64	C	1.587850	0.139610	0.535866
H65	H	0.888804	0.084469	0.175483
O66	O	1.723752	0.151564	-0.410190
H67	H	1.770923	0.121128	-0.440976
O68	O	1.667085	0.146576	-0.197604
H69	H	1.728243	0.151959	-0.272339
O70	O	1.304775	0.114715	-0.232466
H71	H	1.299487	0.114247	-0.333582
O72	O	0.950955	0.221394	0.177050
H73	H	1.052953	0.222538	0.179640
H74	H	1.139717	0.181799	0.181882
H75	H	1.774306	-0.312283	0.388088
H76	H	1.254262	-0.358075	-0.030794
O77	O	1.077600	0.044890	0.180784
H78	H	0.975618	0.043748	0.178354
H79	H	1.681814	0.022166	0.313698
O80	O	1.361410	0.119697	-0.445029
H81	H	1.356123	0.119229	-0.546145
H82	H	1.254294	-0.518317	-0.030769
O83	O	1.706273	-0.079635	0.333359
H84	H	1.770494	-0.046429	0.385109
H85	H	1.774282	-0.215397	0.388095
O86	O	1.706377	-0.620256	0.333356
H87	H	1.800369	-0.622231	0.307786
O88	O	1.706416	-0.731280	0.333333
H89	H	1.690897	-0.774274	0.320813
H90	H	1.346703	-0.755893	0.043666
H91	H	1.346696	-0.659002	0.043643
O92	O	1.229862	-0.256255	-0.050460
H93	H	1.135857	-0.274774	-0.024911
O94	O	1.322163	-0.113476	0.023990
H95	H	1.257916	-0.091588	-0.027756
O96	O	1.322200	-0.002444	0.023912
H97	H	1.337754	0.040554	0.036386
H98	H	1.774320	-0.375628	0.388088
O99	O	1.798773	-0.477433	0.407728
H100	H	1.783258	-0.520427	0.395202
H101	H	1.254279	-0.421429	-0.030769
