data_functionalizedCrystal
_audit_creation_method	'MofGen! by Chris Wilmer'
_symmetry_space_group_name_H-M	'P1'
_symmetry_Int_Tables_number	1
_symmetry_cell_setting	triclinic
loop_
_symmetry_equiv_pos_as_xyz
  x,y,z
_cell_length_a	12.645331
_cell_length_b	12.645330
_cell_length_c	12.759393
_cell_angle_alpha	89.971026
_cell_angle_beta	89.984002
_cell_angle_gamma	90.016927
loop_
_atom_site_label
_atom_site_type_symbol
_atom_site_fract_x
_atom_site_fract_y
_atom_site_fract_z
Zn1	Zn	1.620734	-0.422010	-0.593893
Zn2	Zn	1.620615	-0.599310	-0.418217
Zn3	Zn	1.443448	-0.422059	-0.418243
Zn4	Zn	1.443430	-0.599229	-0.593870
O5	O	1.532057	-0.510652	-0.506056
O6	O	1.769065	-0.445542	-0.570588
O7	O	1.597071	-0.575852	-0.271200
O8	O	1.467022	-0.273705	-0.441564
O9	O	1.768978	-0.575804	-0.441520
O10	O	1.597274	-0.273669	-0.570613
O11	O	1.466907	-0.445626	-0.271219
O12	O	1.295098	-0.445548	-0.441541
O13	O	1.466993	-0.575666	-0.740894
O14	O	1.295085	-0.575714	-0.570574
O15	O	1.597257	-0.445464	-0.740911
O16	O	1.597054	-0.747647	-0.441498
O17	O	1.466877	-0.747587	-0.570549
C18	C	1.256627	-0.510628	-0.506058
C19	C	1.138797	-0.510643	-0.506085
C20	C	0.971260	-0.592980	-0.586835
C21	C	1.093820	-0.592714	-0.587173
C22	C	1.094319	-0.398986	-0.536333
C23	C	0.971721	-0.399489	-0.536902
C24	C	0.971551	-0.539065	-0.394829
C25	C	1.094157	-0.541506	-0.395429
C26	C	1.531979	-0.786082	-0.506041
C27	C	1.532043	-0.903912	-0.506070
C28	C	1.450487	-1.071482	-0.587506
C29	C	1.450070	-0.948923	-0.587244
C30	C	1.501797	-0.948514	-0.395350
C31	C	1.501299	-1.071112	-0.395845
C32	C	1.644344	-1.071001	-0.534455
C33	C	1.643656	-0.948394	-0.536876
C34	C	1.808562	-0.510677	-0.506054
C35	C	1.926392	-0.510688	-0.506053
C36	C	1.532136	-0.510550	-0.780089
C37	C	1.532170	-0.510507	-0.896866
C38	C	1.532163	-0.234147	-0.506094
C39	C	1.532209	-0.116317	-0.506110
C40	C	1.600003	-0.442700	-0.951738
C41	C	1.600021	-0.442654	-1.061462
C42	C	1.464369	-0.578232	-1.061432
C43	C	1.464347	-0.578272	-0.951710
C44	C	1.637979	-0.317581	-1.211434
C45	C	1.705829	-0.249783	-1.266310
C46	C	1.809268	-0.233531	-1.230710
C47	C	1.844877	-0.285093	-1.140235
C48	C	1.777032	-0.352899	-1.085364
C49	C	1.673579	-0.369130	-1.120963
C50	C	1.426400	-0.703346	-0.801737
C51	C	1.358560	-0.771158	-0.746864
C52	C	1.255119	-0.787421	-0.782463
C53	C	1.219514	-0.735878	-0.872941
C54	C	1.287354	-0.668066	-0.927814
C55	C	1.390793	-0.651802	-0.892207
C56	C	1.532039	-0.510677	-0.233088
C57	C	1.532210	-0.510422	-0.116312
H58	H	1.123170	-0.573934	-0.669586
H59	H	1.123239	-0.623670	-0.372615
H60	H	1.806026	-0.394883	-1.011704
Br61	Br	1.145177	-0.448850	-0.289722
H62	H	1.558239	-1.100774	-0.333130
Br63	Br	1.481608	-0.898649	-0.724081
H64	H	1.367874	-1.102383	-0.568968
H65	H	1.707750	-0.917748	-0.481908
H66	H	0.942533	-0.479123	-0.334638
H67	H	0.940629	-0.619097	-0.367335
H68	H	0.943146	-0.375420	-0.618211
Br69	Br	1.481730	-1.120496	-0.724797
H70	H	1.366937	-0.919689	-0.568466
H71	H	1.676827	-0.207801	-1.339975
H72	H	1.559432	-0.919360	-0.333047
H73	H	0.942040	-0.335977	-0.480761
Br74	Br	1.985274	-0.263052	-1.091937
Br75	Br	1.364676	-1.118940	-0.355818
H76	H	1.135286	-0.749123	-0.901929
Br77	Br	1.497585	-0.339615	-1.259744
H78	H	1.655227	-0.387519	-0.907088
H79	H	1.258355	-0.626097	-1.001486
H80	H	1.510627	-0.690102	-0.772738
Br81	Br	1.366594	-0.897502	-0.354597
H82	H	1.125044	-0.374480	-0.616762
H83	H	1.123892	-0.675514	-0.568216
H84	H	1.199889	-0.842649	-0.737780
H85	H	1.671935	-1.101839	-0.613819
Br86	Br	1.681678	-0.899803	-0.672690
H87	H	1.705229	-1.099994	-0.475171
H88	H	1.864512	-0.178328	-1.275397
H89	H	1.409152	-0.633406	-1.106100
H90	H	1.387563	-0.813137	-0.673198
H91	H	0.940470	-0.574442	-0.668769
Br92	Br	1.142873	-0.294007	-0.441335
Br93	Br	0.922100	-0.731448	-0.555598
