data_functionalizedCrystal
_audit_creation_method	'MofGen! by Chris Wilmer'
_symmetry_space_group_name_H-M	'P1'
_symmetry_Int_Tables_number	1
_symmetry_cell_setting	triclinic
loop_
_symmetry_equiv_pos_as_xyz
  x,y,z
_cell_length_a	13.897449
_cell_length_b	13.897441
_cell_length_c	10.685194
_cell_angle_alpha	85.599334
_cell_angle_beta	94.377705
_cell_angle_gamma	89.976606
loop_
_atom_site_label
_atom_site_type_symbol
_atom_site_fract_x
_atom_site_fract_y
_atom_site_fract_z
Zn1	Zn	1.445333	-0.516007	-0.502344
Zn2	Zn	1.778667	-0.182674	-0.169011
Zn3	Zn	2.112000	0.150660	0.164322
Zn4	Zn	1.432888	-0.342338	-0.713404
Zn5	Zn	1.766221	-0.009005	-0.380070
Zn6	Zn	2.099554	0.324329	-0.046737
Zn7	Zn	1.284019	-0.354714	-0.502403
Zn8	Zn	1.617352	-0.021381	-0.169069
Zn9	Zn	1.950686	0.311952	0.164264
Zn10	Zn	1.271669	-0.503588	-0.713319
Zn11	Zn	1.605003	-0.170255	-0.379986
Zn12	Zn	1.938336	0.163079	-0.046653
O13	O	1.358477	-0.429162	-0.607868
O14	O	1.691811	-0.095828	-0.274534
O15	O	2.025144	0.237505	0.058799
O16	O	1.578663	-0.492987	-0.530353
O17	O	1.911997	-0.159654	-0.197019
O18	O	2.245330	0.173680	0.136314
O19	O	1.413100	-0.208994	-0.685474
O20	O	1.746433	0.124339	-0.352141
O21	O	2.079766	0.457672	-0.018807
O22	O	1.315794	-0.386487	-0.325796
O23	O	1.649128	-0.053154	0.007537
O24	O	1.982461	0.280180	0.340870
O25	O	1.569520	-0.365393	-0.685417
O26	O	1.902853	-0.032060	-0.352084
O27	O	2.236186	0.301273	-0.018751
O28	O	1.434311	-0.504988	-0.325754
O29	O	1.767645	-0.171655	0.007580
O30	O	2.100978	0.161679	0.340913
O31	O	1.303726	-0.218087	-0.530452
O32	O	1.637060	0.115246	-0.197119
O33	O	1.970393	0.448579	0.136214
O34	O	1.147400	-0.374445	-0.530370
O35	O	1.480733	-0.041112	-0.197037
O36	O	1.814066	0.292222	0.136296
O37	O	1.294747	-0.640221	-0.685273
O38	O	1.628080	-0.306887	-0.351940
O39	O	1.961413	0.026446	-0.018606
O40	O	1.138327	-0.483822	-0.685330
O41	O	1.471660	-0.150488	-0.351996
O42	O	1.804993	0.182845	-0.018663
O43	O	1.422337	-0.649345	-0.530271
O44	O	1.755670	-0.316011	-0.196937
O45	O	2.089003	0.017322	0.136396
O46	O	1.401125	-0.353351	-0.889991
O47	O	1.734458	-0.020018	-0.556658
O48	O	2.067792	0.313316	-0.223324
O49	O	1.282679	-0.471821	-0.889929
O50	O	1.616012	-0.138487	-0.556596
O51	O	1.949345	0.194846	-0.223262
C52	C	1.107864	-0.429129	-0.607848
C53	C	1.441197	-0.095796	-0.274515
C54	C	1.774531	0.237537	0.058819
C55	C	1.000649	-0.429136	-0.607870
C56	C	1.333982	-0.095803	-0.274537
C57	C	1.667316	0.237530	0.058796
C58	C	0.913579	-0.429152	-0.607874
C59	C	1.246912	-0.095819	-0.274541
C60	C	1.580246	0.237514	0.058792
C61	C	0.804346	-0.429181	-0.607883
C62	C	1.137679	-0.095848	-0.274550
C63	C	1.471013	0.237486	0.058783
C64	C	1.358552	-0.680761	-0.607756
C65	C	1.691886	-0.347428	-0.274423
C66	C	2.025219	-0.014095	0.058911
C67	C	1.358584	-0.787978	-0.607708
C68	C	1.691918	-0.454645	-0.274375
C69	C	2.025251	-0.121312	0.058958
C70	C	1.358615	-0.984278	-0.607623
C71	C	1.691949	-0.650945	-0.274290
C72	C	2.025282	-0.317612	0.059044
C73	C	1.358595	-0.875043	-0.607674
C74	C	1.691928	-0.541710	-0.274341
C75	C	2.025262	-0.208376	0.058993
C76	C	1.610069	-0.429195	-0.607888
C77	C	1.943402	-0.095862	-0.274555
C78	C	2.276736	0.237472	0.058779
C79	C	1.717282	-0.429209	-0.607897
C80	C	2.050616	-0.095876	-0.274563
C81	C	2.383949	0.237458	0.058770
C82	C	1.339237	-0.409916	-0.935750
C83	C	1.672571	-0.076583	-0.602417
C84	C	2.005904	0.256750	-0.269083
C85	C	1.331095	-0.401715	-1.076020
C86	C	1.664428	-0.068382	-0.742686
C87	C	1.997761	0.264951	-0.409353
C88	C	1.358463	-0.178546	-0.607888
C89	C	1.691797	0.154787	-0.274554
C90	C	2.025130	0.488120	0.058779
C91	C	1.358639	-0.071351	-0.607580
C92	C	1.691973	0.261982	-0.274246
C93	C	2.025306	0.595316	0.059087
C94	C	1.377819	-0.448503	-0.278705
C95	C	1.711152	-0.115170	0.054629
C96	C	2.044485	0.218163	0.387962
C97	C	1.386061	-0.456746	-0.138435
C98	C	1.719394	-0.123412	0.194898
C99	C	2.052727	0.209921	0.528232
H100	H	1.277797	-0.348331	-1.129893
H101	H	1.611130	-0.014998	-0.796560
H102	H	1.944463	0.318335	-0.463227
H103	H	1.439354	-0.510142	-1.084556
H104	H	1.772687	-0.176809	-0.751223
H105	H	2.106021	0.156525	-0.417890
