data_functionalizedCrystal
_audit_creation_method	'MofGen! by Chris Wilmer'
_symmetry_space_group_name_H-M	'P1'
_symmetry_Int_Tables_number	1
_symmetry_cell_setting	triclinic
loop_
_symmetry_equiv_pos_as_xyz
  x,y,z
_cell_length_a	19.288864
_cell_length_b	27.732048
_cell_length_c	17.766277
_cell_angle_alpha	89.988664
_cell_angle_beta	89.976791
_cell_angle_gamma	82.889449
loop_
_atom_site_label
_atom_site_type_symbol
_atom_site_fract_x
_atom_site_fract_y
_atom_site_fract_z
O1	O	0.920977	0.060300	-0.062844
O2	O	0.718666	0.068434	-0.062793
O3	O	0.826105	-0.006011	-0.062806
O4	O	0.813538	0.134745	-0.062831
O5	O	0.826086	-0.006014	0.062383
O6	O	0.718647	0.068430	0.062395
O7	O	0.920958	0.060296	0.062345
Cu8	Cu	0.819801	0.064363	0.073801
Cu9	Cu	0.819823	0.064367	-0.074249
O10	O	0.813519	0.134741	0.062357
C11	C	0.692781	0.068171	-0.000192
C12	C	0.615683	0.067385	-0.000172
C13	C	0.825831	-0.024020	-0.000209
C14	C	0.825037	-0.077678	-0.000203
C15	C	0.570714	0.111066	-0.000192
C16	C	0.498271	0.110328	-0.000200
C17	C	0.470801	0.065906	-0.000204
C18	C	0.515780	0.022219	-0.000180
C19	C	0.588220	0.022959	-0.000164
C20	C	0.362763	0.030987	-0.044082
C21	C	0.290324	0.030250	-0.044102
C22	C	0.247370	0.063624	-0.000249
C23	C	0.276863	0.097744	0.043615
C24	C	0.349304	0.098483	0.043631
C25	C	0.392252	0.065099	-0.000220
C26	C	0.123850	0.106507	-0.000277
C27	C	0.051406	0.105767	-0.000280
C28	C	0.068916	0.017658	-0.000267
C29	C	0.141358	0.018399	-0.000256
C30	C	0.168820	0.062825	-0.000264
C31	C	0.883526	-0.416316	-0.000256
C32	C	0.880579	-0.617985	-0.000266
O33	O	0.934063	-0.649079	-0.000312
N34	N	0.816872	-0.637301	-0.000249
C35	C	0.753897	-0.606196	-0.000235
O36	O	0.699643	-0.627253	-0.000229
C37	C	0.756845	-0.404529	-0.000231
C38	C	0.820556	-0.385216	-0.000240
C39	C	0.947232	-0.397002	-0.000266
C40	C	0.947968	-0.346588	-0.000259
C41	C	0.884998	-0.315488	-0.000243
C42	C	0.821292	-0.334801	-0.000233
C43	C	0.693871	-0.373425	-0.000222
C44	C	0.694614	-0.323006	-0.000223
C45	C	0.758325	-0.303693	-0.000232
C46	C	0.759059	-0.253287	-0.000210
N47	N	0.822766	-0.233971	-0.000227
C48	C	0.885735	-0.265071	-0.000243
C49	C	0.752354	-0.712075	-0.000236
C50	C	0.751617	-0.762492	-0.000236
C51	C	0.878299	-0.774276	-0.000268
C52	C	0.879035	-0.723859	-0.000263
C53	C	0.816061	-0.692759	-0.000253
C54	C	0.887276	-0.159197	-0.000229
C55	C	0.888007	-0.108778	-0.000219
C56	C	0.761325	-0.096998	-0.000191
C57	C	0.760595	-0.147412	-0.000197
C58	C	0.823576	-0.178511	-0.000218
O59	O	0.705603	-0.222164	-0.000172
O60	O	0.939982	-0.244005	-0.000266
C61	C	0.882790	-0.466730	-0.000263
C62	C	0.819084	-0.486044	-0.000253
C63	C	0.756114	-0.454943	-0.000236
C64	C	0.818347	-0.536461	-0.000253
C65	C	0.881317	-0.567561	-0.000269
C66	C	0.945023	-0.548245	-0.000285
C67	C	0.945760	-0.497831	-0.000279
C68	C	0.692407	-0.474260	-0.000220
C69	C	0.691676	-0.524674	-0.000226
C70	C	0.754646	-0.555775	-0.000242
C71	C	0.946842	0.060560	-0.000258
C72	C	1.023941	0.061345	-0.000282
C73	C	0.813792	0.152751	-0.000241
C74	C	0.814587	0.206408	-0.000252
N75	N	0.819790	0.064359	0.177931
N76	N	0.819839	0.064367	-0.178379
C77	C	0.867380	0.031411	0.217313
C78	C	0.867384	0.031409	0.296114
C79	C	0.819805	0.064363	0.335532
C80	C	0.772207	0.097314	0.296141
C81	C	0.772200	0.097312	0.217341
C82	C	0.810231	0.108406	0.460363
C83	C	0.810244	0.108408	0.539162
C84	C	0.819823	0.064369	0.578578
C85	C	0.829406	0.020325	0.539186
C86	C	0.829399	0.020323	0.460385
C87	C	0.819807	0.064369	0.420977
C88	C	0.867420	0.031416	0.703405
C89	C	0.867419	0.031413	0.782209
C90	C	0.772245	0.097322	0.782234
C91	C	0.772243	0.097321	0.703432
C92	C	0.819834	0.064368	0.664023
H93	H	0.593069	0.147241	-0.000200
H94	H	0.998512	-0.422320	-0.000282
O95	O	1.009815	-0.327775	-0.000378
C96	C	1.014051	-0.298969	-0.065227
H97	H	0.959171	-0.286288	-0.086823
H98	H	1.045020	-0.321307	-0.110638
C99	C	1.118383	-0.270031	-0.019021
C100	C	1.050978	-0.254453	-0.045543
H101	H	1.141163	-0.242573	-0.006882
H102	H	1.115530	-0.289440	0.024667
H103	H	1.144181	-0.288647	-0.056869
H104	H	1.025178	-0.235844	-0.007693
H105	H	1.053827	-0.235041	-0.089225
H106	H	0.046551	-0.018511	-0.000317
H107	H	0.938562	-0.184513	-0.000249
H108	H	0.733494	0.124152	0.671365
H109	H	0.733446	0.124143	0.185276
H110	H	0.939890	-0.093056	-0.000224
H111	H	0.733503	0.124152	0.814327
H112	H	0.930914	-0.708138	-0.000271
H113	H	0.906138	0.004578	0.328185
H114	H	0.701070	-0.686757	-0.000228
H115	H	0.906169	0.004582	0.671317
H116	H	0.177973	-0.017171	-0.000244
H117	H	0.643331	-0.297686	-0.000216
H118	H	0.929571	-0.799607	-0.000281
O119	O	0.631920	-0.392098	-0.000250
C120	C	0.576509	-0.353827	-0.000222
H121	H	0.595620	-0.319617	-0.023921
H122	H	0.557098	-0.346660	0.059840
C123	C	0.492913	-0.409937	-0.020205
C124	C	0.516385	-0.367920	-0.049318
H125	H	0.455824	-0.418630	-0.050487
H126	H	0.530244	-0.435721	-0.020221
H127	H	0.476742	-0.403958	0.029846
H128	H	0.532564	-0.373901	-0.099365
H129	H	0.479055	-0.342137	-0.049311
O130	O	0.698646	-0.166096	-0.000219
C131	C	0.643226	-0.127832	-0.000181
H132	H	0.662327	-0.093616	-0.023872
H133	H	0.623815	-0.120672	0.059883
C134	C	0.559647	-0.183952	-0.020175
C135	C	0.583106	-0.141928	-0.049279
H136	H	0.522560	-0.192647	-0.050458
H137	H	0.596983	-0.209731	-0.020198
H138	H	0.543476	-0.177980	0.029878
H139	H	0.599284	-0.147902	-0.099327
H140	H	0.545770	-0.116149	-0.049266
H141	H	0.996296	-0.573576	-0.000295
O142	O	0.800955	0.151233	0.422195
C143	C	0.792493	0.190106	0.473858
H144	H	0.817045	0.177617	0.530023
H145	H	0.734444	0.202581	0.482260
C146	C	0.798346	0.247925	0.374089
C147	C	0.828506	0.232587	0.443070
H148	H	0.820557	0.274131	0.355097
H149	H	0.804044	0.221736	0.339282
H150	H	0.749973	0.258317	0.381100
H151	H	0.876876	0.222190	0.436057
H152	H	0.822817	0.258775	0.477876
O153	O	0.150452	0.149690	-0.000375
C154	C	0.127473	0.176309	-0.065225
H155	H	0.077375	0.163249	-0.086849
H156	H	0.169480	0.170620	-0.110619
C157	C	0.174834	0.246753	-0.018976
C158	C	0.113299	0.230716	-0.045531
H159	H	0.166094	0.280314	-0.006829
H160	H	0.190318	0.228819	0.024714
H161	H	0.209834	0.242008	-0.056808
H162	H	0.078304	0.235455	-0.007695
H163	H	0.097809	0.248652	-0.089214
H164	H	0.710057	-0.071667	-0.000175
H165	H	0.266316	0.002469	-0.079822
O166	O	0.454677	0.152806	-0.000260
C167	C	0.494450	0.192175	-0.000244
H168	H	0.548671	0.179788	-0.023924
H169	H	0.499423	0.205804	0.059812
C170	C	0.391341	0.248715	-0.020280
C171	C	0.457934	0.233502	-0.049370
H172	H	0.368815	0.274209	-0.050580
H173	H	0.364544	0.222192	-0.020288
H174	H	0.395494	0.260070	0.029766
H175	H	0.453779	0.222143	-0.099411
H176	H	0.484729	0.260025	-0.049372
O177	O	0.838588	-0.022450	0.577492
C178	C	0.779684	-0.026246	0.623118
H179	H	0.732665	-0.002064	0.599391
H180	H	0.790563	-0.014155	0.682832
C181	C	0.821908	-0.109089	0.653487
C182	C	0.764157	-0.079392	0.624341
H183	H	0.812331	-0.141872	0.654244
H184	H	0.861594	-0.106532	0.622750
H185	H	0.830968	-0.099008	0.703246
H186	H	0.755103	-0.089469	0.574580
H187	H	0.724469	-0.081952	0.655069
H188	H	0.699737	-0.778212	-0.000215
H189	H	0.997640	-0.482111	-0.000286
H190	H	0.639791	-0.540394	-0.000212
H191	H	0.641128	-0.448942	-0.000208
H192	H	0.906170	0.004580	0.814274
H193	H	0.906129	0.004578	0.185228
H194	H	0.373314	0.126263	0.079349
O195	O	0.838678	-0.022501	0.422236
C196	C	0.847155	-0.061374	0.473915
H197	H	0.822609	-0.048887	0.530098
H198	H	0.905207	-0.073843	0.482264
C199	C	0.841300	-0.119194	0.374188
C200	C	0.811147	-0.103859	0.443192
H201	H	0.819092	-0.145402	0.355236
H202	H	0.835592	-0.093005	0.339371
H203	H	0.889675	-0.129582	0.381156
H204	H	0.762774	-0.093466	0.436222
H205	H	0.816846	-0.130047	0.478008
O206	O	0.404382	-0.001453	-0.086759
C207	C	0.362820	-0.031728	-0.125470
H208	H	0.307263	-0.012528	-0.130773
H209	H	0.362116	-0.067108	-0.092952
C210	C	0.461654	-0.066522	-0.198004
C211	C	0.393419	-0.042939	-0.204523
H212	H	0.480531	-0.073439	-0.246766
H213	H	0.489656	-0.046126	-0.171922
H214	H	0.461059	-0.096002	-0.170903
H215	H	0.394017	-0.013456	-0.231615
H216	H	0.365418	-0.063330	-0.230612
H217	H	0.802445	0.144271	0.571229
H218	H	0.733467	0.124145	0.328238
H219	H	0.241891	0.124920	0.079325
H220	H	0.493409	-0.013949	-0.000193
H221	H	0.624835	-0.012613	-0.000148
H222	H	0.014793	0.141339	-0.000292
