data_functionalizedCrystal
_audit_creation_method	'MofGen! by Chris Wilmer'
_symmetry_space_group_name_H-M	'P1'
_symmetry_Int_Tables_number	1
_symmetry_cell_setting	triclinic
loop_
_symmetry_equiv_pos_as_xyz
  x,y,z
_cell_length_a	19.188900
_cell_length_b	18.266242
_cell_length_c	9.065218
_cell_angle_alpha	90.003214
_cell_angle_beta	95.925812
_cell_angle_gamma	89.982676
loop_
_atom_site_label
_atom_site_type_symbol
_atom_site_fract_x
_atom_site_fract_y
_atom_site_fract_z
O1	O	-0.927592	0.061020	0.183964
O2	O	-0.724471	0.060990	0.208804
O3	O	-0.830230	0.061004	-0.018405
O4	O	-0.821833	0.061006	0.411173
O5	O	-0.830211	-0.060758	-0.018411
O6	O	-0.724452	-0.060772	0.208798
O7	O	-0.927574	-0.060742	0.183958
Zn8	Zn	-0.826010	-0.080089	0.196377
Zn9	Zn	-0.826034	0.080338	0.196385
O10	O	-0.821815	-0.060756	0.411167
C11	C	-0.698444	0.000105	0.208004
C12	C	-0.620920	0.000094	0.205611
C13	C	-0.584529	0.066468	0.204466
C14	C	-0.511688	0.066475	0.202201
C15	C	-0.475241	0.000105	0.201053
C16	C	-0.511641	-0.066277	0.202207
C17	C	-0.584480	-0.066283	0.204486
N18	N	-0.365533	-0.049290	0.113520
N19	N	-0.296339	-0.049280	0.111352
C20	C	-0.255781	0.000118	0.194189
N21	N	-0.287031	0.049517	0.279258
N22	N	-0.356232	0.049509	0.281419
C23	C	-0.396259	0.000104	0.198582
C24	C	-0.140407	0.066504	0.190590
C25	C	-0.067564	0.066508	0.188335
C26	C	-0.067519	-0.066246	0.188326
C27	C	-0.140360	-0.066248	0.190596
C28	C	-0.176800	0.000128	0.191721
N29	N	-0.825999	-0.189576	0.196370
C30	C	-0.868902	-0.227872	0.285621
C31	C	-0.868913	-0.304517	0.285617
C32	C	-0.826009	-0.342863	0.196379
C33	C	-0.783103	-0.304558	0.107110
C34	C	-0.783098	-0.227914	0.107106
N35	N	-0.764832	-0.463224	0.192759
N36	N	-0.764839	-0.536033	0.192771
C37	C	-0.826023	-0.573785	0.196384
N38	N	-0.887201	-0.535979	0.200013
N39	N	-0.887193	-0.463165	0.200009
C40	C	-0.826010	-0.425970	0.196373
C41	C	-0.868942	-0.695188	0.285635
C42	C	-0.868955	-0.771834	0.285620
C43	C	-0.783138	-0.771874	0.107123
C44	C	-0.783132	-0.695229	0.107129
C45	C	-0.826033	-0.656891	0.196393
C46	C	0.046400	0.000139	0.184768
C47	C	-0.031122	0.000138	0.187189
C48	C	-0.829414	0.000124	-0.073367
C49	C	-0.827001	0.000128	-0.237125
N50	N	-0.826051	0.189825	0.196380
C51	C	-0.822631	0.000126	0.466128
C52	C	-0.825044	0.000127	0.629887
H53	H	-0.482052	0.120526	0.201270
O54	O	-0.741481	-0.809228	0.020571
C55	C	-0.750657	-0.885089	0.039771
H56	H	-0.771235	-0.895528	0.151436
H57	H	-0.789857	-0.906867	-0.052917
C58	C	-0.654657	-0.911612	-0.102040
C59	C	-0.679926	-0.924434	0.035115
H60	H	-0.611028	-0.935884	-0.104918
H61	H	-0.648476	-0.860504	-0.114980
H62	H	-0.687330	-0.929761	-0.179265
H63	H	-0.647257	-0.906277	0.112336
H64	H	-0.686099	-0.975541	0.048069
H65	H	-0.481961	-0.120316	0.201276
H66	H	-0.614109	-0.120334	0.205421
H67	H	-0.903838	-0.196661	0.358301
O68	O	-0.175697	0.131044	0.191773
C69	C	-0.127954	0.189631	0.190261
H70	H	-0.073426	0.170173	0.235324
H71	H	-0.126802	0.210048	0.071700
C72	C	-0.217991	0.276230	0.232547
C73	C	-0.151019	0.252333	0.287906
H74	H	-0.232220	0.314910	0.292773
H75	H	-0.250157	0.236759	0.233560
H76	H	-0.217022	0.293239	0.133747
H77	H	-0.151991	0.235316	0.386697
H78	H	-0.118854	0.291803	0.286912
O79	O	-0.910609	-0.341614	0.372459
C80	C	-0.948488	-0.291340	0.451210
H81	H	-0.919641	-0.236715	0.459970
H82	H	-1.002908	-0.283174	0.390148
C83	C	-0.990750	-0.388338	0.597127
C84	C	-0.955317	-0.321248	0.607897
H85	H	-0.994966	-0.406786	0.693776
H86	H	-0.965233	-0.422209	0.544067
H87	H	-1.036096	-0.381523	0.546235
H88	H	-0.909969	-0.328065	0.658770
H89	H	-0.980826	-0.287378	0.660969
O90	O	-0.910537	-0.809120	0.372403
C91	C	-0.868602	-0.853457	0.473313
H92	H	-0.816514	-0.864961	0.427676
H93	H	-0.858607	-0.823923	0.584268
C94	C	-0.970633	-0.912115	0.551358
C95	C	-0.906660	-0.926250	0.495300
H96	H	-0.994110	-0.957015	0.564928
H97	H	-0.998886	-0.882242	0.483378
H98	H	-0.962295	-0.887501	0.643815
H99	H	-0.915000	-0.950854	0.402836
H100	H	-0.878410	-0.956128	0.563266
H101	H	-0.037935	0.120560	0.187411
O102	O	-0.175802	-0.130679	0.191491
C103	C	-0.225031	-0.134660	0.065050
H104	H	-0.238334	-0.077031	0.022813
H105	H	-0.201925	-0.167410	-0.025278
C106	C	-0.275708	-0.243396	0.157882
C107	C	-0.292052	-0.172615	0.106013
H108	H	-0.317049	-0.266811	0.183146
H109	H	-0.242540	-0.240716	0.243065
H110	H	-0.256452	-0.270678	0.082600
H111	H	-0.311299	-0.145331	0.181301
H112	H	-0.325225	-0.175291	0.020843
H113	H	-0.748171	-0.335784	0.034451
H114	H	-0.748160	-0.196734	0.034425
H115	H	-0.903875	-0.663971	0.358318
H116	H	-0.748192	-0.664049	0.034457
O117	O	-0.619813	0.131009	0.205629
C118	C	-0.572070	0.189594	0.204093
H119	H	-0.517542	0.170140	0.249163
H120	H	-0.570918	0.210000	0.085523
C121	C	-0.662106	0.276201	0.246344
C122	C	-0.595134	0.252308	0.301712
H123	H	-0.676334	0.314887	0.306554
H124	H	-0.694273	0.236732	0.247374
H125	H	-0.661137	0.293200	0.147537
H126	H	-0.596106	0.235300	0.400510
H127	H	-0.562968	0.291776	0.300701
O128	O	-0.032110	-0.130701	0.186940
C129	C	0.002926	-0.134661	0.057901
H130	H	-0.024006	-0.096992	-0.030685
H131	H	0.059732	-0.116829	0.085056
C132	C	0.033921	-0.260223	0.108734
C133	C	0.000839	-0.213962	-0.000074
H134	H	0.032636	-0.309140	0.072974
H135	H	0.010318	-0.257555	0.195673
H136	H	0.081256	-0.245355	0.131353
H137	H	-0.046498	-0.228825	-0.022677
H138	H	0.024433	-0.216635	-0.087018
