data_functionalizedCrystal
_audit_creation_method	'MofGen! by Chris Wilmer'
_symmetry_space_group_name_H-M	'P1'
_symmetry_Int_Tables_number	1
_symmetry_cell_setting	triclinic
loop_
_symmetry_equiv_pos_as_xyz
  x,y,z
_cell_length_a	10.654545
_cell_length_b	13.339070
_cell_length_c	9.730223
_cell_angle_alpha	89.998437
_cell_angle_beta	89.997859
_cell_angle_gamma	100.056187
loop_
_atom_site_label
_atom_site_type_symbol
_atom_site_fract_x
_atom_site_fract_y
_atom_site_fract_z
O1	O	1.715927	0.142411	-0.114271
O2	O	1.355031	0.155986	-0.114276
O3	O	1.494060	0.001645	-0.114270
O4	O	1.576898	0.296752	-0.114277
O5	O	1.494049	0.001642	0.114310
O6	O	1.355020	0.155983	0.114304
O7	O	1.715916	0.142408	0.114309
Zn8	Zn	1.535467	0.149195	0.150599
Zn9	Zn	1.535481	0.149199	-0.150565
O10	O	1.576887	0.296749	0.114303
C11	C	1.307892	0.154989	0.000013
C12	C	1.167442	0.152010	0.000011
C13	C	1.101458	0.150606	0.124611
C14	C	0.969488	0.147790	0.124611
C15	C	0.969498	0.147786	-0.124599
C16	C	1.101465	0.150595	-0.124598
C17	C	1.480062	-0.036144	0.000018
C18	C	1.438352	-0.148738	0.000012
C19	C	1.762665	-0.511259	0.000017
C20	C	1.801858	-0.405472	0.000031
C21	C	1.710985	-0.341283	0.000026
C22	C	1.580912	-0.382892	0.000008
C23	C	1.541716	-0.488690	0.000005
C24	C	1.490035	-0.318714	0.000013
C25	C	1.359963	-0.360322	-0.000004
C26	C	1.320773	-0.466110	-0.000008
C27	C	1.411646	-0.530298	-0.000003
C28	C	1.529232	-0.212916	0.000016
C29	C	1.308282	-0.190346	0.000004
C30	C	1.269090	-0.296134	-0.000010
C31	C	1.763056	0.143406	0.000017
C32	C	1.903505	0.146385	0.000010
C33	C	1.590886	0.334538	0.000012
C34	C	1.632596	0.447132	0.000009
N35	N	1.535466	0.149192	0.356135
N36	N	1.535489	0.149194	-0.356102
C37	C	1.597071	0.080876	0.571956
C38	C	1.597064	0.080877	0.428073
C39	C	1.473882	0.217518	0.428087
C40	C	1.473898	0.217521	0.571968
H41	H	1.635137	-0.179049	0.000031
H42	H	1.234285	-0.138083	0.000006
H43	H	1.155173	0.151758	0.226076
H44	H	1.214860	-0.499984	-0.000012
O45	O	1.413859	0.283838	0.358364
C46	C	1.215615	0.341581	0.314316
C47	C	1.283443	0.266432	0.393381
H48	H	1.110158	0.327520	0.342577
H49	H	1.260222	0.422951	0.342620
H50	H	1.226245	0.329859	0.199129
H51	H	1.272837	0.278061	0.508587
H52	H	1.238822	0.185089	0.364963
O53	O	1.656683	0.014303	0.358353
C54	C	1.668934	-0.161550	0.314733
C55	C	1.601297	-0.086222	0.393682
H56	H	1.624200	-0.242840	0.343289
H57	H	1.658374	-0.150005	0.199497
H58	H	1.774378	-0.147560	0.343040
H59	H	1.495832	-0.100166	0.365491
H60	H	1.611962	-0.097784	0.508900
H61	H	0.915769	0.146647	0.226073
H62	H	1.163183	-0.330027	-0.000023
H63	H	0.915763	0.146635	-0.226052
H64	H	1.647225	0.025242	0.630518
O65	O	1.165594	0.151783	-0.245606
C66	C	1.298343	0.067285	-0.390183
C67	C	1.225748	0.065806	-0.253117
H68	H	1.347018	-0.002207	-0.396288
H69	H	1.228568	0.065736	-0.479300
H70	H	1.373263	0.139474	-0.396393
H71	H	1.150828	-0.006371	-0.246773
H72	H	1.295601	0.067410	-0.164066
O73	O	1.748994	-0.238516	0.000281
C74	C	1.744553	-0.080505	0.118665
C75	C	1.701435	-0.196886	0.118566
H76	H	1.706098	-0.046810	0.214273
H77	H	1.853125	-0.061737	0.118767
H78	H	1.706282	-0.046802	0.022957
H79	H	1.739616	-0.230669	0.214257
H80	H	1.592860	-0.215582	0.118392
H81	H	1.907762	-0.371602	0.000047
H82	H	1.836640	-0.563530	0.000033
H83	H	1.423751	0.273158	0.630547
H84	H	1.379742	-0.616440	-0.000019
