data_functionalizedCrystal
_audit_creation_method	'MofGen! by Chris Wilmer'
_symmetry_space_group_name_H-M	'P1'
_symmetry_Int_Tables_number	1
_symmetry_cell_setting	triclinic
loop_
_symmetry_equiv_pos_as_xyz
  x,y,z
_cell_length_a	21.295419
_cell_length_b	21.295417
_cell_length_c	21.295411
_cell_angle_alpha	90.020597
_cell_angle_beta	90.024539
_cell_angle_gamma	90.044503
loop_
_atom_site_label
_atom_site_type_symbol
_atom_site_fract_x
_atom_site_fract_y
_atom_site_fract_z
Zn1	Zn	0.962359	-0.250432	0.355916
Zn2	Zn	1.462359	0.249568	0.855916
Zn3	Zn	0.962263	-0.355684	0.250643
Zn4	Zn	1.462263	0.144316	0.750643
Zn5	Zn	0.857082	-0.250460	0.250661
Zn6	Zn	1.357082	0.249540	0.750661
Zn7	Zn	0.857053	-0.355695	0.355875
Zn8	Zn	1.357053	0.144305	0.855875
O9	O	0.909689	-0.303068	0.303274
O10	O	1.409689	0.196932	0.803274
O11	O	1.050436	-0.264378	0.341961
O12	O	1.550436	0.235622	0.841961
O13	O	0.948282	-0.341733	0.162556
O14	O	1.448282	0.158267	0.662556
O15	O	0.871100	-0.162367	0.264648
O16	O	1.371100	0.337633	0.764648
O17	O	1.050365	-0.341706	0.264617
O18	O	1.550365	0.158294	0.764617
O19	O	0.948446	-0.162347	0.341978
O20	O	1.448446	0.337653	0.841978
O21	O	0.871007	-0.264425	0.162569
O22	O	1.371007	0.235575	0.662569
O23	O	0.768989	-0.264436	0.264608
O24	O	1.268989	0.235564	0.764608
O25	O	0.871050	-0.341724	0.443970
O26	O	1.371050	0.158276	0.943970
O27	O	0.768968	-0.341751	0.341908
O28	O	1.268968	0.158249	0.841908
O29	O	0.948418	-0.264388	0.444000
O30	O	1.448418	0.235612	0.944000
O31	O	0.948254	-0.443775	0.264578
O32	O	1.448254	0.056225	0.764578
O33	O	0.870957	-0.443783	0.341891
O34	O	1.370957	0.056217	0.841891
C35	C	0.746138	-0.303098	0.303256
C36	C	1.246138	0.196902	0.803256
C37	C	0.676170	-0.303126	0.303263
C38	C	1.176170	0.196874	0.803263
C39	C	0.643362	-0.262927	0.343598
C40	C	1.143362	0.237073	0.843598
C41	C	0.577620	-0.262910	0.343601
C42	C	1.077620	0.237090	0.843601
C43	C	0.544687	-0.303104	0.303275
C44	C	1.044687	0.196896	0.803275
C45	C	0.577502	-0.343305	0.262932
C46	C	1.077502	0.156695	0.762932
C47	C	0.643244	-0.343317	0.262926
C48	C	1.143244	0.156683	0.762926
N49	N	0.441412	-0.358181	0.298356
N50	N	0.941412	0.141819	0.798356
N51	N	0.378961	-0.358168	0.298365
N52	N	0.878961	0.141832	0.798365
C53	C	0.346612	-0.303071	0.303289
C54	C	0.846612	0.196929	0.803289
N55	N	0.379074	-0.247985	0.308215
N56	N	0.879074	0.252015	0.808215
N57	N	0.441532	-0.247999	0.308209
N58	N	0.941532	0.252001	0.808209
C59	C	0.473402	-0.303095	0.303276
C60	C	0.973402	0.196905	0.803276
C61	C	0.242519	-0.262850	0.343628
C62	C	0.742519	0.237150	0.843628
C63	C	0.176776	-0.262832	0.343626
C64	C	0.676776	0.237168	0.843626
C65	C	0.176660	-0.343233	0.262961
C66	C	0.676660	0.156767	0.762961
C67	C	0.242402	-0.343245	0.262960
C68	C	0.742402	0.156755	0.762960
C69	C	0.275328	-0.303055	0.303297
C70	C	0.775328	0.196945	0.803297
C71	C	0.909609	-0.466619	0.303242
C72	C	1.409609	0.033381	0.803242
C73	C	0.909632	-0.536588	0.303249
C74	C	1.409632	-0.036588	0.803249
C75	C	0.949884	-0.569386	0.343544
C76	C	1.449884	-0.069386	0.843544
C77	C	0.949906	-0.635129	0.343559
C78	C	1.449906	-0.135129	0.843559
C79	C	0.909683	-0.668070	0.303269
C80	C	1.409683	-0.168070	0.803269
C81	C	0.869424	-0.635263	0.262971
C82	C	1.369424	-0.135263	0.762971
C83	C	0.869399	-0.569522	0.262962
C84	C	1.369399	-0.069522	0.762962
N85	N	0.904924	-0.771324	0.248178
N86	N	1.404924	-0.271324	0.748178
N87	N	0.904952	-0.833775	0.248189
N88	N	1.404952	-0.333775	0.748189
C89	C	0.909757	-0.866145	0.303297
C90	C	1.409757	-0.366145	0.803297
N91	N	0.914545	-0.833704	0.358395
N92	N	1.414545	-0.333704	0.858395
N93	N	0.914521	-0.771247	0.358383
N94	N	1.414521	-0.271247	0.858383
C95	C	0.909706	-0.739355	0.303276
C96	C	1.409706	-0.239355	0.803276
C97	C	0.950034	-0.970229	0.343612
C98	C	1.450034	-0.470229	0.843612
C99	C	0.950052	-1.035973	0.343629
C100	C	1.450052	-0.535973	0.843629
C101	C	0.869574	-1.036106	0.263035
C102	C	1.369574	-0.536106	0.763035
C103	C	0.869553	-0.970363	0.263024
C104	C	1.369553	-0.470363	0.763024
C105	C	0.909786	-0.937429	0.303312
C106	C	1.409786	-0.437429	0.803312
C107	C	1.073880	-0.303038	0.303292
C108	C	1.573880	0.196962	0.803292
C109	C	1.143848	-0.303025	0.303299
C110	C	1.643848	0.196975	0.803299
C111	C	0.909742	-0.303055	0.467464
C112	C	1.409742	0.196945	0.967464
C113	C	0.909764	-0.303049	0.537432
C114	C	1.409764	0.196951	1.037432
C115	C	0.909787	-0.138878	0.303319
C116	C	1.409787	0.361122	0.803319
C117	C	0.909829	-0.068909	0.303339
C118	C	1.409829	0.431091	0.803339
C119	C	0.909674	-0.303036	0.139722
C120	C	1.409674	0.196964	0.639722
C121	C	0.909773	-0.302864	0.069754
C122	C	1.409773	0.197136	0.569754
C123	C	0.950048	-0.262778	0.570315
C124	C	1.450048	0.237222	1.070315
C125	C	0.950047	-0.262751	0.636058
C126	C	1.450047	0.237249	1.136058
C127	C	0.909769	-0.303006	0.668915
C128	C	1.409769	0.196994	1.168915
C129	C	0.869477	-0.343279	0.636023
C130	C	1.369477	0.156721	1.136023
C131	C	0.869475	-0.343301	0.570282
C132	C	1.369475	0.156699	1.070282
N133	N	0.904913	-0.358075	0.772131
N134	N	1.404913	0.141925	1.272131
N135	N	0.904919	-0.358052	0.834582
N136	N	1.404919	0.141948	1.334582
C137	C	0.909773	-0.302942	0.866989
C138	C	1.409773	0.197058	1.366989
N139	N	0.914633	-0.247853	0.834586
N140	N	1.414633	0.252147	1.334586
N141	N	0.914630	-0.247876	0.772128
N142	N	1.414630	0.252124	1.272128
C143	C	0.909767	-0.302986	0.740200
C144	C	1.409767	0.197014	1.240200
C145	C	0.950058	-0.262638	0.971158
C146	C	1.450058	0.237362	1.471158
C147	C	0.950052	-0.262610	1.036902
C148	C	1.450052	0.237390	1.536902
C149	C	0.869486	-0.343143	1.036866
C150	C	1.369486	0.156857	1.536866
C151	C	0.869488	-0.343166	0.971124
C152	C	1.369488	0.156834	1.471124
C153	C	0.909777	-0.302914	0.938274
C154	C	1.409777	0.197086	1.438274
H155	H	0.150065	-0.230094	0.376471
H156	H	0.650065	0.269906	0.876471
H157	H	0.836820	-1.062926	0.230234
H158	H	1.336820	-0.562926	0.730234
O159	O	0.830438	-0.938596	0.223816
O160	O	1.330438	-0.438596	0.723816
C161	C	0.750595	-0.945668	0.143905
C162	C	1.250595	-0.445668	0.643905
C163	C	0.794874	-0.981722	0.188267
C164	C	1.294874	-0.481722	0.688267
H165	H	0.721820	-0.980519	0.115162
H166	H	1.221820	-0.480519	0.615162
H167	H	0.779472	-0.914891	0.110971
H168	H	1.279472	-0.414891	0.610971
H169	H	0.717680	-0.914895	0.172780
H170	H	1.217680	-0.414895	0.672780
H171	H	0.827797	-1.012529	0.159443
H172	H	1.327797	-0.512529	0.659443
H173	H	0.765958	-1.012459	0.221203
H174	H	1.265958	-0.512459	0.721203
H175	H	0.269114	-0.375982	0.230117
H176	H	0.769114	0.124018	0.730117
O177	O	0.989198	-0.223615	0.538503
O178	O	1.489198	0.276385	1.038503
C179	C	1.069136	-0.143764	0.545480
C180	C	1.569136	0.356236	1.045480
C181	C	1.024821	-0.188075	0.581587
C182	C	1.524821	0.311925	1.081587
H183	H	1.097957	-0.115028	0.580297
H184	H	1.597957	0.384972	1.080297
H185	H	1.040284	-0.110820	0.514710
H186	H	1.540284	0.389180	1.014710
H187	H	1.102005	-0.172679	0.514695
H188	H	1.602005	0.327321	1.014695
H189	H	0.991943	-0.159211	0.612406
H190	H	1.491943	0.340789	1.112406
H191	H	1.053712	-0.221021	0.612317
H192	H	1.553712	0.278979	1.112317
O193	O	0.675416	-0.223853	0.382688
O194	O	1.175416	0.276147	0.882688
C195	C	0.749695	-0.138863	0.391303
C196	C	1.249695	0.361137	0.891303
C197	C	0.713442	-0.183085	0.346966
C198	C	1.213442	0.316915	0.846966
H199	H	0.780437	-0.105882	0.362439
H200	H	1.280437	0.394118	0.862439
H201	H	0.780506	-0.167783	0.424151
H202	H	1.280506	0.332217	0.924151
H203	H	0.714939	-0.110156	0.420147
H204	H	1.214939	0.389844	0.920147
H205	H	0.748152	-0.211801	0.318081
H206	H	1.248152	0.288199	0.818081
H207	H	0.682620	-0.154129	0.314159
H208	H	1.182620	0.345871	0.814159
H209	H	0.149847	-0.375959	0.230127
H210	H	0.649847	0.124041	0.730127
H211	H	0.836685	-0.375913	1.063618
H212	H	1.336685	0.124087	1.563618
H213	H	0.836689	-0.375963	0.944350
H214	H	1.336689	0.124037	1.444350
H215	H	0.982860	-0.229859	0.944410
H216	H	1.482860	0.270141	1.444410
O217	O	0.545839	-0.223844	0.382848
O218	O	1.045839	0.276156	0.882848
C219	C	0.552887	-0.144088	0.462843
C220	C	1.052887	0.355912	0.962843
C221	C	0.588954	-0.188306	0.418437
C222	C	1.088954	0.311694	0.918437
H223	H	0.587730	-0.115335	0.491620
H224	H	1.087730	0.384665	0.991620
H225	H	0.522118	-0.173011	0.495745
H226	H	1.022118	0.326989	0.995745
H227	H	0.522104	-0.111150	0.434001
H228	H	1.022104	0.388850	0.934001
H229	H	0.619771	-0.221253	0.447228
H230	H	1.119771	0.278747	0.947228
H231	H	0.619683	-0.159344	0.385534
H232	H	1.119683	0.340656	0.885534
O233	O	0.830433	-0.382455	0.538266
O234	O	1.330433	0.117545	1.038266
C235	C	0.821920	-0.467497	0.464066
C236	C	1.321920	0.032503	0.964066
C237	C	0.866204	-0.423183	0.500276
C238	C	1.366204	0.076817	1.000276
H239	H	0.850824	-0.500445	0.433352
H240	H	1.350824	-0.000445	0.933352
H241	H	0.789033	-0.438648	0.433230
H242	H	1.289033	0.061352	0.933230
H243	H	0.793114	-0.496235	0.498850
H244	H	1.293114	0.003765	0.998850
H245	H	0.895050	-0.394435	0.465537
H246	H	1.395050	0.105565	0.965537
H247	H	0.899049	-0.452068	0.531121
H248	H	1.399049	0.047932	1.031121
O249	O	0.989093	-0.223567	0.668039
O250	O	1.489093	0.276433	1.168039
C251	C	0.997630	-0.138588	0.742307
C252	C	1.497630	0.361412	1.242307
C253	C	0.953337	-0.182911	0.706119
C254	C	1.453337	0.317089	1.206119
H255	H	0.968740	-0.105715	0.773114
H256	H	1.468740	0.394285	1.273114
H257	H	1.026414	-0.109776	0.707565
H258	H	1.526414	0.390224	1.207565
H259	H	1.030536	-0.167495	0.773067
H260	H	1.530536	0.332505	1.273067
H261	H	0.920393	-0.154052	0.675358
H262	H	1.420393	0.345948	1.175358
H263	H	0.924597	-0.211725	0.740895
H264	H	1.424597	0.288275	1.240895
H265	H	0.269329	-0.230121	0.376469
H266	H	0.769329	0.269879	0.876469
O267	O	0.545487	-0.382418	0.223851
O268	O	1.045487	0.117582	0.723851
C269	C	0.471151	-0.467358	0.215234
C270	C	0.971151	0.032642	0.715234
C271	C	0.507379	-0.423113	0.259569
C272	C	1.007379	0.076887	0.759569
H273	H	0.440323	-0.500263	0.244093
H274	H	0.940323	-0.000263	0.744093
H275	H	0.505867	-0.496139	0.186414
H276	H	1.005867	0.003861	0.686414
H277	H	0.440409	-0.438390	0.182363
H278	H	0.940409	0.061610	0.682363
H279	H	0.538122	-0.452032	0.292477
H280	H	1.038122	0.047968	0.792477
H281	H	0.472630	-0.394330	0.288344
H282	H	0.972630	0.105670	0.788344
H283	H	0.982678	-0.661839	0.376379
H284	H	1.482678	-0.161839	0.876379
O285	O	0.675019	-0.382430	0.223726
O286	O	1.175019	0.117570	0.723726
C287	C	0.667966	-0.462146	0.143691
C288	C	1.167966	0.037854	0.643691
C289	C	0.631902	-0.417891	0.188062
C290	C	1.131902	0.082109	0.688062
H291	H	0.633122	-0.490819	0.114836
H292	H	1.133122	0.009181	0.614836
H293	H	0.698708	-0.495152	0.172501
H294	H	1.198708	0.004848	0.672501
H295	H	0.698775	-0.433193	0.110856
H296	H	1.198775	0.066807	0.610856
H297	H	0.601058	-0.446794	0.220907
H298	H	1.101058	0.053206	0.720907
H299	H	0.601200	-0.384883	0.159214
H300	H	1.101200	0.115117	0.659214
O301	O	0.988983	-0.537492	0.382740
O302	O	1.488983	-0.037492	0.882740
C303	C	1.068840	-0.544302	0.462644
C304	C	1.568840	-0.044302	0.962644
C305	C	1.024583	-0.580501	0.418297
C306	C	1.524583	-0.080501	0.918297
H307	H	1.097644	-0.579058	0.491394
H308	H	1.597644	-0.079058	0.991394
H309	H	1.039945	-0.513557	0.495573
H310	H	1.539945	-0.013557	0.995573
H311	H	1.101729	-0.513483	0.433756
H312	H	1.601729	-0.013483	0.933756
H313	H	0.991685	-0.611354	0.447134
H314	H	1.491685	-0.111354	0.947134
H315	H	1.053517	-0.611206	0.385367
H316	H	1.553517	-0.111206	0.885367
O317	O	0.830294	-0.667162	0.223812
O318	O	1.330294	-0.167162	0.723812
C319	C	0.750494	-0.660357	0.143851
C320	C	1.250494	-0.160357	0.643851
C321	C	0.794771	-0.624155	0.188175
C322	C	1.294771	-0.124155	0.688175
H323	H	0.721771	-0.625602	0.115017
H324	H	1.221771	-0.125602	0.615017
H325	H	0.717535	-0.691143	0.172695
H326	H	1.217535	-0.191143	0.672695
H327	H	0.779433	-0.691134	0.110993
H328	H	1.279433	-0.191134	0.610993
H329	H	0.765882	-0.593344	0.221042
H330	H	1.265882	-0.093344	0.721042
H331	H	0.827731	-0.593408	0.159292
H332	H	1.327731	-0.093408	0.659292
O333	O	0.830443	-0.382451	0.667965
O334	O	1.330443	0.117549	1.167965
C335	C	0.821927	-0.467395	0.742208
C336	C	1.321927	0.032605	1.242208
C337	C	0.866209	-0.423082	0.706064
C338	C	1.366209	0.076918	1.206064
H339	H	0.850826	-0.500248	0.773030
H340	H	1.350826	-0.000248	1.273030
H341	H	0.793145	-0.496229	0.707437
H342	H	1.293145	0.003771	1.207437
H343	H	0.789019	-0.438478	0.772949
H344	H	1.289019	0.061522	1.272949
H345	H	0.899156	-0.451951	0.675323
H346	H	1.399156	0.048049	1.175323
H347	H	0.894947	-0.394246	0.740869
H348	H	1.394947	0.105754	1.240869
O349	O	0.989155	-0.223399	1.068775
O350	O	1.489155	0.276601	1.568775
C351	C	1.019759	-0.116307	1.088923
C352	C	1.519759	0.383693	1.588923
C353	C	0.975446	-0.160644	1.052778
C354	C	1.475446	0.339356	1.552778
H355	H	1.008682	-0.065560	1.076013
H356	H	1.508682	0.434440	1.576013
H357	H	1.070520	-0.127310	1.076006
H358	H	1.570520	0.372690	1.576006
H359	H	1.012852	-0.123231	1.141551
H360	H	1.512852	0.376769	1.641551
H361	H	0.982296	-0.153745	1.000142
H362	H	1.482296	0.346255	1.500142
H363	H	0.924701	-0.149631	1.065747
H364	H	1.424701	0.350369	1.565747
O365	O	0.830320	-0.537561	0.223874
O366	O	1.330320	-0.037561	0.723874
C367	C	0.794647	-0.436341	0.188112
C368	C	1.294647	0.063659	0.688112
C369	C	0.838924	-0.472460	0.232422
C370	C	1.338924	0.027540	0.732422
H371	H	0.801597	-0.383701	0.194999
H372	H	1.301597	0.116299	0.694999
H373	H	0.743873	-0.449270	0.199123
H374	H	1.243873	0.050730	0.699123
H375	H	0.805723	-0.449320	0.137373
H376	H	1.305723	0.050680	0.637373
H377	H	0.827904	-0.459501	0.283177
H378	H	1.327904	0.040499	0.783177
H379	H	0.889684	-0.459528	0.221357
H380	H	1.389684	0.040472	0.721357
H381	H	0.982793	-0.943413	0.376419
H382	H	1.482793	-0.443413	0.876419
O383	O	0.989095	-1.067933	0.382754
O384	O	1.489095	-0.567933	0.882754
C385	C	1.024827	-1.169151	0.418461
C386	C	1.524827	-0.669151	0.918461
C387	C	0.980569	-1.133034	0.374130
C388	C	1.480569	-0.633034	0.874130
H389	H	1.017959	-1.221791	0.411494
H390	H	1.517959	-0.721791	0.911494
H391	H	1.013747	-1.156257	0.469222
H392	H	1.513747	-0.656257	0.969222
H393	H	1.075579	-1.156137	0.407453
H394	H	1.575579	-0.656137	0.907453
H395	H	0.929802	-1.146029	0.385081
H396	H	1.429802	-0.646029	0.885081
H397	H	0.991703	-1.145931	0.323382
H398	H	1.491703	-0.645931	0.823382
