data_functionalizedCrystal
_audit_creation_method	'MofGen! by Chris Wilmer'
_symmetry_space_group_name_H-M	'P1'
_symmetry_Int_Tables_number	1
_symmetry_cell_setting	triclinic
loop_
_symmetry_equiv_pos_as_xyz
  x,y,z
_cell_length_a	6.817900
_cell_length_b	19.263509
_cell_length_c	11.102288
_cell_angle_alpha	84.419270
_cell_angle_beta	108.605689
_cell_angle_gamma	81.428207
loop_
_atom_site_label
_atom_site_type_symbol
_atom_site_fract_x
_atom_site_fract_y
_atom_site_fract_z
V1	V	-3.998588	0.219002	-0.177199
O2	O	-3.959771	0.214833	0.007116
O3	O	-3.976138	0.217504	-0.350010
O4	O	-3.926112	0.314516	-0.175088
O5	O	-4.010144	0.117149	-0.169018
V6	V	-4.481974	0.206819	-0.155080
O7	O	-4.260149	0.245725	-0.225718
O8	O	-4.670611	0.180096	-0.106561
O9	O	-4.281218	0.208317	0.017731
O10	O	-4.638188	0.210988	-0.339395
O11	O	-4.587815	0.308672	-0.163262
O12	O	-4.331244	0.111305	-0.157192
C13	C	-3.828231	0.214049	-0.392119
C14	C	-3.891001	0.213461	-0.533398
C15	C	-4.102691	0.216689	-0.606266
C16	C	-4.161661	0.216142	-0.739014
C17	C	-3.797228	0.209136	-0.726012
C18	C	-3.738263	0.209688	-0.593268
C19	C	-4.156283	0.088021	-0.163298
C20	C	-4.113323	0.009937	-0.163874
C21	C	-3.920616	-0.023168	-0.170525
C22	C	-3.880256	-0.096535	-0.171075
C23	C	-4.032631	-0.136794	-0.165000
C24	C	-4.225361	-0.103681	-0.158342
C25	C	-4.265707	-0.030316	-0.157779
N26	N	-4.144207	-0.248374	-0.233864
N27	N	-4.105869	-0.318067	-0.234402
C28	C	-3.911078	-0.357839	-0.166693
N29	N	-3.756054	-0.325283	-0.098442
N30	N	-3.794393	-0.255582	-0.097910
C31	C	-3.988901	-0.216346	-0.165609
C32	C	-3.674594	-0.470497	-0.173938
C33	C	-3.634235	-0.543867	-0.174480
C34	C	-3.979355	-0.551010	-0.161759
C35	C	-4.019700	-0.477643	-0.161205
C36	C	-3.867316	-0.437390	-0.167300
C37	C	-3.764416	0.337797	-0.168986
C38	C	-3.786613	0.415880	-0.168403
C39	C	-4.092469	0.211770	0.059832
C40	C	-4.008935	0.212362	0.201110
H41	H	-3.565875	0.207062	-0.533937
H42	H	-3.796528	0.009602	-0.175486
H43	H	-3.672882	0.206063	-0.774775
O44	O	-4.373305	-0.142774	-0.152216
C45	C	-4.585259	-0.180839	-0.030881
C46	C	-4.417664	-0.136553	-0.037648
H47	H	-4.621207	-0.175813	0.061726
H48	H	-4.523380	-0.238980	-0.032344
H49	H	-4.735384	-0.160468	-0.117079
H50	H	-4.267486	-0.156861	0.048532
H51	H	-4.479714	-0.078419	-0.036247
H52	H	-4.422636	-0.003363	-0.152364
H53	H	-3.550507	-0.437722	-0.178891
H54	H	-3.477305	-0.570819	-0.179892
H55	H	-4.103426	-0.583788	-0.156819
O56	O	-4.206942	-0.445387	-0.154936
C57	C	-4.523602	-0.357193	-0.257634
C58	C	-4.311581	-0.393651	-0.264886
H59	H	-4.608283	-0.315367	-0.346530
H60	H	-4.494058	-0.330679	-0.167710
H61	H	-4.625499	-0.398586	-0.253326
H62	H	-4.209577	-0.352302	-0.269244
H63	H	-4.341280	-0.420179	-0.354797
H64	H	-4.334035	0.218772	-0.798339
O65	O	-4.250921	0.220234	-0.548011
C66	C	-4.370122	0.163812	-0.388005
C67	C	-4.202129	0.159698	-0.453887
H68	H	-4.330709	0.114883	-0.311873
H69	H	-4.531591	0.165983	-0.462824
H70	H	-4.372358	0.213651	-0.340482
H71	H	-4.199700	0.109863	-0.501407
H72	H	-4.040740	0.157566	-0.379013
O73	O	-3.693231	-0.128777	-0.177684
C74	C	-3.518141	-0.197911	-0.296382
C75	C	-3.730094	-0.161440	-0.289053
H76	H	-3.547869	-0.224316	-0.386430
H77	H	-3.433488	-0.239827	-0.207613
H78	H	-3.416128	-0.156541	-0.300565
H79	H	-3.832271	-0.202758	-0.284911
H80	H	-3.814582	-0.119511	-0.377820
