data_functionalizedCrystal
_audit_creation_method	'MofGen! by Chris Wilmer'
_symmetry_space_group_name_H-M	'P1'
_symmetry_Int_Tables_number	1
_symmetry_cell_setting	triclinic
loop_
_symmetry_equiv_pos_as_xyz
  x,y,z
_cell_length_a	6.817900
_cell_length_b	7.190339
_cell_length_c	16.305550
_cell_angle_alpha	89.317265
_cell_angle_beta	76.544750
_cell_angle_gamma	119.388276
loop_
_atom_site_label
_atom_site_type_symbol
_atom_site_fract_x
_atom_site_fract_y
_atom_site_fract_z
V1	V	4.113988	0.296891	-0.262431
O2	O	4.010172	-0.012415	-0.258049
O3	O	4.151148	0.586903	-0.260046
O4	O	4.064284	0.293136	-0.377156
O5	O	4.097637	0.283385	-0.140129
V6	V	4.586698	0.259798	-0.247875
O7	O	4.398965	0.378256	-0.294363
O8	O	4.751918	0.178433	-0.215944
O9	O	4.326331	-0.030214	-0.250260
O10	O	4.807910	0.569103	-0.252257
O11	O	4.720445	0.273303	-0.370177
O12	O	4.413195	0.263552	-0.133150
C13	C	3.906200	0.282845	-0.405138
C14	C	3.947412	0.281695	-0.498922
C15	C	4.017022	0.657579	-0.255758
C16	C	4.130783	0.899130	-0.254552
C17	C	4.097181	0.277237	-0.839677
C18	C	3.857222	0.264003	-0.798775
C19	C	3.814643	0.266083	-0.701276
C20	C	4.022877	0.279447	-0.670624
C21	C	4.252162	0.490086	-0.720825
C22	C	4.293673	0.488895	-0.818377
C23	C	4.094094	0.081516	-0.794229
C24	C	4.045672	0.079849	-0.696390
C25	C	3.980899	0.280704	-0.575084
C26	C	4.139173	0.275995	-0.935218
C27	C	4.234623	0.273850	-0.105164
C28	C	4.172646	0.274990	-0.011379
H29	H	3.643387	0.114634	-0.666558
H30	H	3.706114	0.111839	-0.811446
N31	N	3.824330	-0.126539	-0.651289
H32	H	3.709757	-0.090919	-0.614318
H33	H	3.862744	-0.211259	-0.614523
H34	H	3.853689	0.404620	-0.830003
N35	N	3.782229	0.454433	-0.679297
H36	H	3.795603	0.536445	-0.732982
H37	H	3.906785	0.553424	-0.651816
H38	H	4.410459	0.507484	-0.701877
H39	H	4.301317	0.637061	-0.848459
H40	H	4.472969	0.507368	-0.846332
H41	H	4.240528	0.638292	-0.703713
N42	N	3.910558	-0.129899	-0.812361
H43	H	3.827548	-0.100938	-0.850227
H44	H	3.793493	-0.221025	-0.756937
N45	N	4.239615	0.076260	-0.668062
H46	H	4.315812	0.204559	-0.638001
H47	H	4.360137	0.082987	-0.719487
H48	H	4.268471	0.089338	-0.821029
