data_functionalizedCrystal
_audit_creation_method	'MofGen! by Chris Wilmer'
_symmetry_space_group_name_H-M	'P1'
_symmetry_Int_Tables_number	1
_symmetry_cell_setting	triclinic
loop_
_symmetry_equiv_pos_as_xyz
  x,y,z
_cell_length_a	33.510554
_cell_length_b	33.509711
_cell_length_c	33.506470
_cell_angle_alpha	60.004186
_cell_angle_beta	60.008358
_cell_angle_gamma	59.994760
loop_
_atom_site_label
_atom_site_type_symbol
_atom_site_fract_x
_atom_site_fract_y
_atom_site_fract_z
O1	O	0.055430	-0.583081	0.487524
O2	O	0.020931	-0.453975	0.392819
O3	O	0.102693	-0.535652	0.392731
O4	O	-0.026332	-0.501404	0.487613
O5	O	0.129823	-0.508526	0.419767
O6	O	0.048062	-0.426850	0.419856
O7	O	0.082561	-0.555956	0.514561
Cu8	Cu	0.067789	-0.488926	0.469677
Cu9	Cu	0.035703	-0.521005	0.437703
O10	O	0.000799	-0.474279	0.514649
N11	N	0.090357	-0.466366	0.492168
N12	N	0.013139	-0.543569	0.415212
C13	C	0.143028	-0.279707	0.544737
C14	C	0.143165	-0.413746	0.678712
C15	C	0.143043	-0.413725	0.544739
C16	C	0.277090	-0.413694	0.544637
C17	C	0.157791	-0.323929	0.559462
C18	C	0.157869	-0.398994	0.634489
C19	C	0.232865	-0.398963	0.559407
C20	C	0.157801	-0.398982	0.559463
C21	C	0.124237	-0.223419	0.525994
C22	C	0.124262	-0.432490	0.525997
C23	C	0.176583	-0.380217	0.578205
C24	C	0.358938	-0.399566	0.501510
C25	C	0.410104	-0.416609	0.484423
C26	C	0.410135	-0.499402	0.515995
C27	C	0.358969	-0.482358	0.533084
C28	C	0.136554	-0.197822	0.475693
C29	C	0.119469	-0.146653	0.458657
C30	C	0.077755	-0.146680	0.542223
C31	C	0.094840	-0.197850	0.559260
C32	C	0.073954	-0.420144	0.538396
C33	C	0.056884	-0.437203	0.521352
C34	C	0.140427	-0.478952	0.479524
C35	C	0.157498	-0.461894	0.496561
C36	C	0.074158	-0.420182	0.760618
C37	C	0.057149	-0.437256	0.811786
C38	C	0.140732	-0.479014	0.811717
C39	C	0.157740	-0.461942	0.760547
C40	C	0.124452	-0.432525	0.734999
C41	C	0.333372	-0.432439	0.525839
C42	C	-0.020612	-0.577650	0.170305
C43	C	-0.020943	-0.788098	0.380897
C44	C	-0.020912	-0.577638	0.380991
C45	C	-0.231336	-0.577418	0.380585
C46	C	-0.129735	-0.611383	0.346870
C47	C	-0.054722	-0.611464	0.347017
C48	C	-0.073450	-0.630202	0.328195
C49	C	-0.087616	-0.712029	0.371239
C50	C	-0.070599	-0.763199	0.388315
C51	C	0.012191	-0.763282	0.356872
C52	C	-0.004828	-0.712113	0.339795
C53	C	-0.155381	-0.623711	0.397158
C54	C	-0.206547	-0.606601	0.414133
C55	C	-0.206417	-0.564839	0.330529
C56	C	-0.155251	-0.581949	0.313554
C57	C	-0.067051	-0.561160	0.334643
C58	C	-0.050026	-0.544131	0.351759
C59	C	-0.008343	-0.627704	0.393612
C60	C	-0.025368	-0.644736	0.376502
C61	C	-0.066922	-0.561168	0.246303
C62	C	-0.049794	-0.544141	0.195134
C63	C	-0.008048	-0.627719	0.195183
C64	C	-0.025175	-0.644745	0.246352
C65	C	-0.054614	-0.611468	0.271911
C66	C	-0.054732	-0.686488	0.346980
C67	C	-0.002117	-0.558258	0.114025
C68	C	-0.002879	-0.844379	0.399940
C69	C	-0.002504	-0.558243	0.399473
C70	C	-0.287615	-0.558285	0.398601
N71	N	0.434975	-0.466279	0.491900
O72	O	0.591199	-0.470749	0.375150
O73	O	0.591395	-0.565767	0.504116
O74	O	0.591311	-0.565550	0.422329
O75	O	0.591283	-0.470966	0.456937
O76	O	0.510024	-0.538522	0.449509
O77	O	0.510108	-0.538739	0.531297
O78	O	0.509913	-0.443721	0.402330
Cu79	Cu	0.502588	-0.488762	0.469295
Cu80	Cu	0.598719	-0.520726	0.437151
O81	O	0.509997	-0.443938	0.484117
N82	N	0.666332	-0.543209	0.414541
N83	N	0.090323	-0.121809	0.492157
O84	O	-0.026342	0.034503	0.487582
O85	O	0.102626	0.034543	0.392540
O86	O	0.020797	0.034507	0.392812
O87	O	0.055487	0.034539	0.487310
O88	O	0.047933	-0.046785	0.419900
O89	O	0.129763	-0.046749	0.419628
O90	O	0.000794	-0.046789	0.514670
Cu91	Cu	0.067756	-0.054192	0.469623
Cu92	Cu	0.035664	0.041946	0.437588
O93	O	0.082623	-0.046753	0.514399
N94	N	0.013091	0.109564	0.415054
N95	N	0.090671	-0.466416	0.836606
O96	O	0.086120	-0.583065	0.992910
O97	O	-0.008880	-0.454051	0.992954
O98	O	-0.008658	-0.535864	0.992931
O99	O	0.085897	-0.501252	0.992933
O100	O	0.018407	-0.508749	0.911642
O101	O	0.018185	-0.426936	0.911665
O102	O	0.113185	-0.555949	0.911621
Cu103	Cu	0.068156	-0.488967	0.904221
Cu104	Cu	0.036148	-0.521034	1.000355
O105	O	0.112963	-0.474136	0.911644
N106	N	0.013633	-0.543590	1.067970
C107	C	0.031262	-0.424144	0.393290
C108	C	0.132513	-0.525291	0.393180
C109	C	0.072229	-0.585787	0.514090
C110	C	-0.029022	-0.484640	0.514200
C111	C	0.550775	-0.565338	0.533954
C112	C	0.550672	-0.565070	0.432670
C113	C	0.550530	-0.444149	0.372492
C114	C	0.550635	-0.444418	0.473776
C115	C	0.132408	-0.005998	0.392963
C116	C	0.031106	-0.006142	0.393333
C117	C	-0.029021	-0.006147	0.514213
C118	C	0.072314	-0.006104	0.513878
C119	C	-0.008430	-0.424240	0.952316
C120	C	-0.008150	-0.525550	0.952271
C121	C	0.112735	-0.585760	0.952260
C122	C	0.112461	-0.484444	0.952286
H123	H	0.016194	-0.427197	0.832639
C124	C	0.592437	-0.420930	0.495158
C125	C	0.550622	-0.404306	0.483771
H126	H	0.592427	-0.396167	0.501331
H127	H	0.620758	-0.428507	0.468475
H128	H	0.592480	-0.449387	0.523396
H129	H	0.550582	-0.375852	0.455530
H130	H	0.522294	-0.396723	0.510456
C131	C	0.054338	-0.047944	0.340129
C132	C	0.021091	-0.006157	0.353246
H133	H	0.048158	-0.047952	0.315379
H134	H	0.050708	-0.076288	0.367927
H135	H	0.086695	-0.047926	0.328179
H136	H	-0.011267	-0.006177	0.365201
H137	H	0.024716	0.022194	0.325444
C138	C	0.076991	-0.047892	0.594933
C139	C	0.082336	-0.006098	0.553964
H140	H	0.083175	-0.047885	0.619681
H141	H	0.099540	-0.076231	0.586023
H142	H	0.044630	-0.047898	0.606883
H143	H	0.114699	-0.006093	0.542012
H144	H	0.059786	0.022249	0.562875
C145	C	-0.089624	-0.380546	0.994122
C146	C	-0.048697	-0.374222	0.952332
H147	H	-0.114484	-0.349667	0.994129
H148	H	-0.080732	-0.395168	1.022461
H149	H	-0.101419	-0.401087	0.994113
H150	H	-0.036901	-0.353684	0.952342
H151	H	-0.057590	-0.359594	0.923985
H152	H	0.550467	-0.414317	0.335455
C153	C	0.048904	-0.657483	0.567387
C154	C	0.082174	-0.635853	0.554248
H155	H	0.055042	-0.688390	0.592181
H156	H	0.052553	-0.661719	0.539612
H157	H	0.016552	-0.637012	0.579287
H158	H	0.114526	-0.656322	0.542344
H159	H	0.078529	-0.631619	0.582029
C160	C	0.193927	-0.629451	0.910448
C161	C	0.153002	-0.635777	0.952241
H162	H	0.218784	-0.660330	0.910435
H163	H	0.205723	-0.608916	0.910458
H164	H	0.185029	-0.614822	0.882107
H165	H	0.161899	-0.650403	0.980581
H166	H	0.141204	-0.656320	0.952235
C167	C	-0.072675	-0.047945	0.595425
C168	C	-0.079022	-0.006159	0.554490
H169	H	-0.103545	-0.047952	0.620288
H170	H	-0.052131	-0.047930	0.607209
H171	H	-0.058052	-0.076292	0.586541
H172	H	-0.093642	0.022189	0.563373
H173	H	-0.099574	-0.006169	0.542705
C174	C	0.212557	-0.005563	0.369925
C175	C	0.182302	-0.005674	0.352580
H176	H	0.243358	-0.005360	0.344992
H177	H	0.217020	-0.033972	0.397602
H178	H	0.197813	0.022724	0.378937
H179	H	0.197044	-0.033963	0.343572
H180	H	0.177840	0.022738	0.324895
C181	C	-0.030618	-0.583227	0.952192
C182	C	-0.048236	-0.535527	0.952222
H183	H	-0.055366	-0.589384	0.952159
H184	H	-0.021730	-0.605781	0.980543
H185	H	-0.002814	-0.586862	0.923848
H186	H	-0.076038	-0.531894	0.980568
H187	H	-0.057131	-0.512966	0.923868
H188	H	0.142166	-0.477036	0.952281
H189	H	0.047048	-0.396226	0.739820
H190	H	0.198696	-0.471996	0.739692
C191	C	0.225060	-0.518579	0.806509
C192	C	0.177323	-0.511349	0.839800
H193	H	0.247649	-0.538547	0.823847
H194	H	0.229955	-0.487907	0.786558
H195	H	0.229954	-0.534193	0.786548
H196	H	0.172429	-0.495732	0.859758
H197	H	0.172426	-0.542026	0.859759
C198	C	0.204121	-0.501830	0.339822
C199	C	0.182537	-0.535137	0.352954
H200	H	0.235002	-0.507908	0.314986
H201	H	0.208400	-0.505509	0.367586
H202	H	0.183603	-0.469485	0.327979
H203	H	0.203054	-0.567483	0.364800
H204	H	0.178261	-0.531462	0.325184
C205	C	0.031147	-0.712027	0.433261
C206	C	0.023924	-0.664279	0.426019
H207	H	0.051065	-0.734607	0.453271
H208	H	0.046808	-0.716955	0.402598
H209	H	0.000467	-0.716902	0.448832
H210	H	0.054604	-0.659403	0.410444
H211	H	0.008264	-0.659349	0.456687
H212	H	0.550826	-0.595166	0.570996
C213	C	-0.010342	-0.380581	0.578022
C214	C	0.037419	-0.387819	0.570746
H215	H	-0.032897	-0.360622	0.597991
H216	H	-0.015242	-0.411251	0.593645
H217	H	-0.015281	-0.364954	0.547361
H218	H	0.042359	-0.403450	0.601406
H219	H	0.042321	-0.357143	0.555123
C220	C	-0.109277	-0.427109	0.536958
C221	C	-0.079046	-0.474792	0.554425
H222	H	-0.140157	-0.421029	0.561793
H223	H	-0.113554	-0.423439	0.509197
H224	H	-0.094622	-0.404521	0.528045
H225	H	-0.093698	-0.497381	0.563334
H226	H	-0.074770	-0.478467	0.582194
H227	H	0.015920	-0.427139	0.531437
H228	H	0.430973	-0.540048	0.521891
H229	H	0.167497	-0.502899	0.455559
H230	H	0.023891	-0.387055	0.363546
H231	H	0.338156	-0.509129	0.552896
C232	C	0.238366	-0.504863	0.453489
C233	C	0.212798	-0.475455	0.482927
H234	H	0.272505	-0.513236	0.445073
H235	H	0.229940	-0.487499	0.424580
H236	H	0.229997	-0.533805	0.470855
H237	H	0.221164	-0.446512	0.465560
H238	H	0.221228	-0.492820	0.511842
H239	H	0.430920	-0.389838	0.464614
H240	H	0.550685	-0.594783	0.425263
H241	H	0.160490	-0.218637	0.448603
C242	C	0.364049	-0.319440	0.468589
C243	C	0.330800	-0.344693	0.493549
H244	H	0.346678	-0.285565	0.463676
H245	H	0.383984	-0.324182	0.437845
H246	H	0.384028	-0.331444	0.487323
H247	H	0.310823	-0.332691	0.474814
H248	H	0.310857	-0.339948	0.524298
C249	C	0.162416	-0.151762	0.377764
C250	C	0.133004	-0.118512	0.403364
H251	H	0.170773	-0.134390	0.343628
H252	H	0.145064	-0.171729	0.386166
H253	H	0.191364	-0.171713	0.386131
H254	H	0.104055	-0.098564	0.394999
H255	H	0.150357	-0.098538	0.394958
H256	H	0.015913	-0.654818	0.174378
H257	H	0.053825	-0.125861	0.569312
H258	H	0.084809	-0.218687	0.600218
H259	H	-0.059824	-0.503179	0.174290
H260	H	-0.090896	-0.534066	0.267110
H261	H	-0.015148	-0.685706	0.267200
H262	H	-0.090949	-0.534065	0.310634
H263	H	-0.015331	-0.685697	0.386578
C264	C	-0.046126	-0.467701	0.287266
C265	C	-0.063559	-0.488838	0.338153
H266	H	-0.054475	-0.433567	0.278866
H267	H	-0.060475	-0.473073	0.272858
H268	H	-0.011605	-0.482125	0.275564
H269	H	-0.098081	-0.474417	0.349855
H270	H	-0.049212	-0.483462	0.352566
C271	C	0.065896	-0.696440	0.271245
C272	C	0.031322	-0.684037	0.313130
H273	H	0.088215	-0.679109	0.254785
H274	H	0.049758	-0.688040	0.250152
H275	H	0.083170	-0.730583	0.280395
H276	H	0.014046	-0.649894	0.303980
H277	H	0.047462	-0.692434	0.334227
C278	C	0.075040	-0.841760	0.369094
C279	C	0.067047	-0.791453	0.348980
H280	H	0.108905	-0.859150	0.364224
H281	H	0.064482	-0.850130	0.353593
H282	H	0.057157	-0.850118	0.403109
H283	H	0.084927	-0.783095	0.314964
H284	H	0.077610	-0.783080	0.364480
C285	C	-0.130610	-0.778866	0.383972
C286	C	-0.106779	-0.791246	0.415030
H287	H	-0.152958	-0.796172	0.400481
H288	H	-0.107182	-0.787313	0.355572
H289	H	-0.147858	-0.744718	0.374806
H290	H	-0.089528	-0.825394	0.424193
H291	H	-0.130210	-0.782802	0.443439
C292	C	-0.149378	-0.654439	0.333768
C293	C	-0.142469	-0.683855	0.379127
H294	H	-0.183241	-0.637041	0.338637
H295	H	-0.137362	-0.674410	0.315028
H296	H	-0.132220	-0.631911	0.316882
H297	H	-0.159624	-0.706386	0.396012
H298	H	-0.154491	-0.663882	0.397875
H299	H	-0.134607	-0.647683	0.424287
H300	H	-0.227194	-0.540877	0.303400
C301	C	-0.201540	-0.649609	0.495071
C302	C	-0.234742	-0.620157	0.469414
H303	H	-0.218946	-0.657982	0.529199
H304	H	-0.181581	-0.632275	0.486729
H305	H	-0.181580	-0.678548	0.486691
H306	H	-0.254699	-0.591216	0.477791
H307	H	-0.254709	-0.637490	0.477760
H308	H	-0.134369	-0.571905	0.272603
