data_functionalizedCrystal
_audit_creation_method	'MofGen! by Chris Wilmer'
_symmetry_space_group_name_H-M	'P1'
_symmetry_Int_Tables_number	1
_symmetry_cell_setting	triclinic
loop_
_symmetry_equiv_pos_as_xyz
  x,y,z
_cell_length_a	15.944545
_cell_length_b	15.944551
_cell_length_c	15.021413
_cell_angle_alpha	89.996935
_cell_angle_beta	90.004532
_cell_angle_gamma	83.497455
loop_
_atom_site_label
_atom_site_type_symbol
_atom_site_fract_x
_atom_site_fract_y
_atom_site_fract_z
O1	O	1.114532	0.108296	0.073976
O2	O	1.614532	0.608296	0.573976
O3	O	0.869982	0.121657	0.073991
O4	O	1.369982	0.621657	0.573991
O5	O	0.998935	-0.007298	0.073975
O6	O	1.498935	0.492702	0.573975
O7	O	0.985579	0.237252	0.073992
O8	O	1.485579	0.737252	0.573992
O9	O	0.998915	-0.007280	-0.074089
O10	O	1.498915	0.492720	0.425911
O11	O	0.869961	0.121676	-0.074073
O12	O	1.369961	0.621676	0.425927
O13	O	1.114512	0.108314	-0.074088
O14	O	1.614512	0.608314	0.425912
Zn15	Zn	0.992233	0.114998	-0.097589
Zn16	Zn	1.492233	0.614998	0.402411
Zn17	Zn	0.992260	0.114974	0.097492
Zn18	Zn	1.492260	0.614974	0.597492
O19	O	0.985558	0.237270	-0.074072
O20	O	1.485558	0.737270	0.425928
C21	C	0.838677	0.121113	-0.000039
C22	C	1.338677	0.621113	0.499961
C23	C	0.745431	0.119453	-0.000034
C24	C	1.245431	0.619453	0.499966
C25	C	0.998370	-0.038583	-0.000057
C26	C	1.498370	0.461417	0.499943
C27	C	0.996708	-0.131829	-0.000057
C28	C	1.496708	0.368171	0.499943
C29	C	0.474798	0.034559	-0.000049
C30	C	0.974798	0.534559	0.499951
C31	C	0.525370	0.075497	-0.073052
C32	C	1.025370	0.575497	0.426948
C33	C	0.409787	0.113532	-0.000050
C34	C	0.909787	0.613532	0.499950
C35	C	0.525371	0.075500	0.072928
C36	C	1.025371	0.575500	0.572928
C37	C	0.574701	0.116437	-0.000040
C38	C	1.074701	0.616437	0.499960
C39	C	0.459131	0.154449	-0.073113
C40	C	0.959131	0.654449	0.426887
C41	C	0.459128	0.154440	0.072933
C42	C	0.959128	0.654440	0.572933
C43	C	0.509667	0.195436	-0.000088
C44	C	1.009667	0.695436	0.499912
C45	C	0.314785	0.111856	-0.000056
C46	C	0.814785	0.611856	0.499944
C47	C	0.669700	0.118119	-0.000041
C48	C	1.169700	0.618119	0.499959
C49	C	0.912803	-0.346684	-0.000040
C50	C	1.412803	0.153316	0.499960
C51	C	0.951756	-0.407693	-0.073047
C52	C	1.451756	0.092307	0.426953
C53	C	0.993701	-0.302555	-0.000050
C54	C	1.493701	0.197445	0.499950
C55	C	0.951795	-0.407695	0.072933
C56	C	1.451795	0.092305	0.572933
C57	C	0.990790	-0.467468	-0.000040
C58	C	1.490790	0.032532	0.499960
C59	C	1.032675	-0.362336	-0.073118
C60	C	1.532675	0.137664	0.426882
C61	C	1.032703	-0.362331	0.072928
C62	C	1.532703	0.137669	0.572928
C63	C	1.071715	-0.423322	-0.000097
C64	C	1.571715	0.076678	0.499903
C65	C	0.995375	-0.207553	-0.000057
C66	C	1.495375	0.292447	0.499943
C67	C	0.989122	-0.562469	-0.000039
C68	C	1.489122	-0.062469	0.499961
C69	C	1.145816	0.108859	-0.000056
C70	C	1.645816	0.608859	0.499944
C71	C	1.239062	0.110519	-0.000055
C72	C	1.739062	0.610519	0.499945
C73	C	0.986123	0.268555	-0.000038
C74	C	1.486123	0.768555	0.499962
C75	C	0.987785	0.361801	-0.000032
C76	C	1.487785	0.861801	0.499968
N77	N	0.992221	0.115014	-0.230727
N78	N	1.492221	0.615014	0.269273
C79	C	0.932584	0.174615	-0.470402
C80	C	1.432584	0.674615	0.029598
C81	C	1.008484	0.190920	-0.529740
C82	C	1.508484	0.690920	-0.029740
C83	C	0.992242	0.114993	-0.412333
C84	C	1.492242	0.614993	0.087667
C85	C	0.916362	0.098706	-0.529737
C86	C	1.416362	0.598706	-0.029737
C87	C	0.992256	0.114975	-0.587757
C88	C	1.492256	0.614975	-0.087757
C89	C	1.068181	0.131336	-0.470365
C90	C	1.568181	0.631336	0.029635
C91	C	0.976009	0.039089	-0.470357
C92	C	1.476009	0.539089	0.029643
C93	C	1.051965	0.055362	-0.529668
C94	C	1.551965	0.555362	-0.029668
C95	C	0.992233	0.115006	-0.311276
C96	C	1.492233	0.615006	0.188724
C97	C	0.992274	0.114961	-0.688813
C98	C	1.492274	0.614961	-0.188813
N99	N	0.992279	0.114951	0.230630
N100	N	1.492279	0.614951	0.730630
H101	H	0.459145	-0.033453	-0.000125
H102	H	0.959145	0.466547	0.499875
O103	O	0.563718	0.031286	0.154656
O104	O	1.063718	0.531286	0.654656
H105	H	0.596139	0.076393	0.194782
H106	H	1.096139	0.576393	0.694782
H107	H	0.525159	0.263501	-0.000126
H108	H	1.025159	0.763501	0.499874
H109	H	1.022227	0.255103	-0.555824
H110	H	1.522227	0.755103	-0.055824
H111	H	1.138922	-0.456483	-0.000142
H112	H	1.638922	0.043517	0.499858
H113	H	0.882183	0.225076	-0.444381
H114	H	1.382183	0.725076	0.055619
O115	O	0.420775	0.198566	0.154688
O116	O	0.920775	0.698566	0.654688
H117	H	0.447431	0.165632	0.215201
H118	H	0.947431	0.665632	0.715201
H119	H	1.132371	0.145180	-0.444394
H120	H	1.632371	0.645180	0.055606
H121	H	1.102477	0.004931	-0.555526
H122	H	1.602477	0.504931	-0.055526
H123	H	0.917531	-0.427793	-0.134765
H124	H	1.417531	0.072207	0.365235
H125	H	1.066854	-0.342338	-0.134907
H126	H	1.566854	0.157662	0.365093
O127	O	1.078001	-0.335663	0.154678
O128	O	1.578001	0.164337	0.654678
H129	H	1.044297	-0.353615	0.215195
H130	H	1.544297	0.146385	0.715195
H131	H	0.430313	0.187784	-0.134897
H132	H	0.930313	0.687784	0.365103
H133	H	0.962243	-0.025073	-0.444252
H134	H	1.462243	0.474927	0.055748
H135	H	0.917577	-0.427778	0.134659
H136	H	1.417577	0.072222	0.634659
H137	H	0.554292	0.042152	-0.134775
H138	H	1.054292	0.542152	0.365225
O139	O	0.831359	0.080461	-0.564290
O140	O	1.331359	0.580461	-0.064290
H141	H	0.788826	0.071975	-0.507298
H142	H	1.288826	0.571975	-0.007298
O143	O	0.823864	-0.302549	-0.000125
O144	O	1.323864	0.197451	0.499875
H145	H	0.790475	-0.320590	-0.060818
H146	H	1.290475	0.179410	0.439182
