data_functionalizedCrystal
_audit_creation_method	'MofGen! by Chris Wilmer'
_symmetry_space_group_name_H-M	'P1'
_symmetry_Int_Tables_number	1
_symmetry_cell_setting	triclinic
loop_
_symmetry_equiv_pos_as_xyz
  x,y,z
_cell_length_a	12.827893
_cell_length_b	18.050589
_cell_length_c	12.827885
_cell_angle_alpha	90.029551
_cell_angle_beta	90.019272
_cell_angle_gamma	90.028381
loop_
_atom_site_label
_atom_site_type_symbol
_atom_site_fract_x
_atom_site_fract_y
_atom_site_fract_z
Zn1	Zn	1.597576	-0.295620	0.590850
Zn2	Zn	1.597431	-0.419828	0.416111
Zn3	Zn	1.422818	-0.295657	0.416124
Zn4	Zn	1.422764	-0.419773	0.590811
O5	O	1.510147	-0.357720	0.503474
O6	O	1.743793	-0.312104	0.567682
O7	O	1.574230	-0.403395	0.269877
O8	O	1.446083	-0.191727	0.439323
O9	O	1.743687	-0.403359	0.439302
O10	O	1.574478	-0.191701	0.567694
O11	O	1.445943	-0.312167	0.269886
O12	O	1.276575	-0.312114	0.439286
O13	O	1.445991	-0.403266	0.737053
O14	O	1.276535	-0.403301	0.567628
O15	O	1.574425	-0.312051	0.737081
O16	O	1.574178	-0.523746	0.439264
O17	O	1.445851	-0.523705	0.567615
C18	C	1.238638	-0.357706	0.503454
C19	C	1.122484	-0.357718	0.503471
C20	C	1.070752	-0.312642	0.567096
C21	C	0.950702	-0.312654	0.567114
C22	C	1.510021	-0.550672	0.503457
C23	C	1.510063	-0.633218	0.503484
C24	C	1.440347	-0.832673	0.573257
C25	C	1.414870	-0.882121	0.477901
C26	C	1.510166	-0.784348	0.503498
C27	C	1.535694	-0.881982	0.598866
C28	C	1.510263	-0.930333	0.503520
C29	C	1.484639	-0.832708	0.408091
C30	C	1.605506	-0.832565	0.529120
C31	C	1.580066	-0.881990	0.433698
C32	C	1.510107	-0.700250	0.503487
C33	C	1.510322	-1.014430	0.503520
C34	C	1.782718	-0.357734	0.503495
C35	C	1.898871	-0.357740	0.503504
C36	C	1.510219	-0.357648	0.776045
C37	C	1.510249	-0.357618	0.892198
C38	C	1.510303	-0.164014	0.503515
C39	C	1.510369	-0.081468	0.503532
C40	C	1.510137	-0.357737	0.231964
C41	C	1.510309	-0.357558	0.115812
C42	C	1.573809	-0.312473	0.943997
C43	C	1.573842	-0.312441	1.064047
H44	H	1.077898	-0.396316	0.449010
O45	O	1.445502	-0.403781	1.062728
C46	C	1.468251	-0.477808	1.089333
H47	H	1.551711	-0.481568	1.119417
H48	H	1.459276	-0.514471	1.017498
H49	H	1.412165	-0.497243	1.152594
H50	H	1.628261	-0.273793	1.108593
H51	H	1.628197	-0.273845	0.899467
H52	H	1.381217	-0.811018	0.632167
H53	H	1.334289	-0.903904	0.456249
O54	O	1.701584	-0.806608	0.555184
C55	C	1.728159	-0.831683	0.655815
H56	H	1.654091	-0.845586	0.700836
H57	H	1.772979	-0.786424	0.698711
H58	H	1.778895	-0.883312	0.649273
H59	H	1.462993	-0.811153	0.327426
O60	O	1.561355	-0.907930	0.695018
C61	C	1.562002	-0.986031	0.693451
H62	H	1.510768	-1.006664	0.626853
H63	H	1.530583	-1.007984	0.770608
H64	H	1.645177	-1.006600	0.681626
H65	H	1.455850	-0.396239	0.936728
O66	O	1.650436	-0.907634	0.363113
C67	C	1.623200	-0.882376	0.262749
H68	H	1.536491	-0.868648	0.260683
H69	H	1.640802	-0.927457	0.203032
H70	H	1.670282	-0.830603	0.243374
H71	H	1.115339	-0.274040	0.621551
O72	O	0.952045	-0.403821	0.438658
C73	C	1.015163	-0.451803	0.498090
H74	H	1.031459	-0.425666	0.577359
H75	H	1.091934	-0.461664	0.455560
H76	H	0.973138	-0.506879	0.509407
O77	O	0.897683	-0.266692	0.632253
C78	C	0.924342	-0.282978	0.736386
H79	H	0.954389	-0.342288	0.741542
H80	H	0.852544	-0.276678	0.787976
H81	H	0.987649	-0.243137	0.763843
