data_functionalizedCrystal
_audit_creation_method	'MofGen! by Chris Wilmer'
_symmetry_space_group_name_H-M	'P1'
_symmetry_Int_Tables_number	1
_symmetry_cell_setting	triclinic
loop_
_symmetry_equiv_pos_as_xyz
  x,y,z
_cell_length_a	19.188931
_cell_length_b	19.188930
_cell_length_c	17.666332
_cell_angle_alpha	89.990320
_cell_angle_beta	89.995635
_cell_angle_gamma	83.144962
loop_
_atom_site_label
_atom_site_type_symbol
_atom_site_fract_x
_atom_site_fract_y
_atom_site_fract_z
O1	O	-0.926146	-0.087170	0.062931
O2	O	-0.722835	-0.098904	0.062939
O3	O	-0.830357	0.008619	0.062920
O4	O	-0.818623	-0.194693	0.062950
O5	O	-0.830345	0.008621	-0.062977
O6	O	-0.722823	-0.098901	-0.062958
O7	O	-0.926134	-0.087168	-0.062966
Cu8	Cu	-0.824477	-0.093034	-0.074457
Cu9	Cu	-0.824491	-0.093037	0.074430
O10	O	-0.818611	-0.194690	-0.062947
C11	C	-0.696818	-0.098522	-0.000008
C12	C	-0.619313	-0.097381	-0.000006
C13	C	-0.066064	-0.089240	0.068612
C14	C	-0.138888	-0.090308	0.068615
C15	C	-0.175299	-0.090843	-0.000011
C16	C	-0.138881	-0.090293	-0.068646
C17	C	-0.066059	-0.089218	-0.068647
N18	N	-0.284314	-0.132260	-0.051087
N19	N	-0.353491	-0.133283	-0.051081
C20	C	-0.394707	-0.094080	-0.000012
N21	N	-0.364131	-0.053825	0.051062
N22	N	-0.294947	-0.052806	0.051059
C23	C	-0.254262	-0.092008	-0.000018
C24	C	-0.510081	-0.095783	0.068621
C25	C	-0.582907	-0.096847	0.068621
C26	C	-0.582898	-0.096840	-0.068641
C27	C	-0.510074	-0.095769	-0.068639
C28	C	-0.473670	-0.095244	-0.000006
N29	N	-0.824472	-0.093032	-0.179177
C30	C	-0.829971	0.034631	-0.000031
C31	C	-0.828831	0.112135	-0.000037
C32	C	0.047849	-0.087550	-0.000017
C33	C	-0.029655	-0.088694	-0.000013
C34	C	-0.818997	-0.220702	0.000005
C35	C	-0.820138	-0.298207	0.000017
C36	C	-0.891921	0.157059	-0.000043
C37	C	-0.890850	0.229883	-0.000031
C38	C	-0.826684	0.257780	-0.000028
C39	C	-0.763585	0.212846	-0.000017
C40	C	-0.764658	0.140024	-0.000022
N41	N	-0.777632	0.365786	-0.042871
N42	N	-0.776617	0.434964	-0.042868
C43	C	-0.823446	0.477188	-0.000012
N44	N	-0.871339	0.447622	0.042831
N45	N	-0.872356	0.378437	0.042825
C46	C	-0.825513	0.336742	-0.000022
C47	C	-0.885379	0.601077	-0.000004
C48	C	-0.884304	0.673901	0.000012
C49	C	-0.757037	0.656863	0.000019
C50	C	-0.758114	0.584040	0.000009
C51	C	-0.822286	0.556151	-0.000006
C52	C	-0.872114	-0.045436	-0.781235
C53	C	-0.872115	-0.045438	-0.701988
C54	C	-0.824492	-0.093031	-0.662358
C55	C	-0.776876	-0.140638	-0.701983
C56	C	-0.776881	-0.140639	-0.781229
N57	N	-0.762680	-0.102079	-0.537942
N58	N	-0.762678	-0.102073	-0.462662
C59	C	-0.824475	-0.093030	-0.423594
N60	N	-0.886278	-0.083978	-0.462651
N61	N	-0.886280	-0.083981	-0.537938
C62	C	-0.824482	-0.093035	-0.576429
C63	C	-0.872093	-0.045431	-0.298050
C64	C	-0.872095	-0.045437	-0.218801
C65	C	-0.776850	-0.140634	-0.218797
C66	C	-0.776854	-0.140631	-0.298045
C67	C	-0.824475	-0.093026	-0.337666
N68	N	-0.824502	-0.093034	0.179150
H69	H	-0.480439	-0.095354	0.124506
H70	H	-0.738077	-0.179388	-0.186532
H71	H	-0.036428	-0.088810	0.124498
H72	H	-0.704792	0.679576	0.000025
C73	C	-0.469986	-0.095417	-0.144125
H74	H	-0.421392	-0.094769	-0.134298
H75	H	-0.476548	-0.136372	-0.172153
H76	H	-0.487270	-0.054952	-0.172494
H77	H	-0.612543	-0.097273	-0.124518
H78	H	-0.935683	0.710478	0.000012
C79	C	-0.724475	-0.192982	-0.341627
H80	H	-0.731302	-0.186170	-0.394498
H81	H	-0.677902	-0.185517	-0.328649
H82	H	-0.731919	-0.239564	-0.328629
H83	H	-0.168538	-0.090756	0.124499
C84	C	-0.178928	-0.090871	-0.144134
H85	H	-0.146812	-0.090383	-0.185007
H86	H	-0.201890	-0.131993	-0.146993
H87	H	-0.212782	-0.050575	-0.146980
H88	H	-0.711340	0.235564	-0.000013
C89	C	-0.962508	0.126385	-0.000046
H90	H	-0.999930	0.163574	-0.000041
H91	H	-0.965572	0.098337	-0.043948
H92	H	-0.965574	0.098327	0.043863
H93	H	-0.910870	-0.006680	-0.186545
C94	C	-0.924504	0.006918	-0.824815
H95	H	-0.952865	0.035261	-0.789867
H96	H	-0.899485	0.035920	-0.855743
H97	H	-0.953494	-0.018134	-0.855713
C98	C	-0.026007	-0.088625	-0.144137
H99	H	-0.058118	-0.089100	-0.185010
H100	H	-0.003044	-0.047502	-0.146996
H101	H	0.007848	-0.128920	-0.146984
C102	C	-0.622958	-0.097448	0.144113
H103	H	-0.590843	-0.096988	0.184984
H104	H	-0.656815	-0.057161	0.146968
H105	H	-0.645916	-0.138578	0.146964
C106	C	-0.924484	0.006926	-0.658398
H107	H	-0.917661	0.000106	-0.605528
H108	H	-0.917039	0.053503	-0.671398
H109	H	-0.971063	-0.000537	-0.671371
C110	C	-0.688713	0.534622	0.000003
H111	H	-0.650343	0.561664	0.000000
H112	H	-0.686488	0.505848	0.043903
H113	H	-0.686485	0.505872	-0.043909
H114	H	-0.942227	0.266467	-0.000033
C115	C	-0.695255	0.090606	-0.000022
H116	H	-0.656885	0.117647	-0.000022
H117	H	-0.693033	0.061831	0.043876
H118	H	-0.693026	0.061857	-0.043936
H119	H	-0.937632	0.578369	-0.000013
C120	C	-0.724492	-0.192988	-0.658394
H121	H	-0.731303	-0.186166	-0.605523
H122	H	-0.731932	-0.239568	-0.671368
H123	H	-0.677918	-0.185519	-0.671391
H124	H	-0.738109	-0.179400	-0.813484
H125	H	-0.910871	-0.006670	-0.330311
