data_functionalizedCrystal
_audit_creation_method	'MofGen! by Chris Wilmer'
_symmetry_space_group_name_H-M	'P1'
_symmetry_Int_Tables_number	1
_symmetry_cell_setting	triclinic
loop_
_symmetry_equiv_pos_as_xyz
  x,y,z
_cell_length_a	12.759400
_cell_length_b	14.908750
_cell_length_c	12.759393
_cell_angle_alpha	86.720511
_cell_angle_beta	89.968436
_cell_angle_gamma	93.280939
loop_
_atom_site_label
_atom_site_type_symbol
_atom_site_fract_x
_atom_site_fract_y
_atom_site_fract_z
Zn1	Zn	-0.510899	-1.379212	-0.501221
Zn2	Zn	-0.686612	-1.379121	-0.325547
Zn3	Zn	-0.500814	-1.228349	-0.335707
Zn4	Zn	-0.676396	-1.228339	-0.511329
O5	O	-0.593680	-1.303755	-0.418451
O6	O	-0.542703	-1.505440	-0.469435
O7	O	-0.662020	-1.359087	-0.179876
O8	O	-0.355134	-1.248403	-0.357684
O9	O	-0.671798	-1.505373	-0.340368
O10	O	-0.362543	-1.359242	-0.479286
O11	O	-0.525515	-1.248315	-0.187340
O12	O	-0.515610	-1.102108	-0.367486
O13	O	-0.654388	-1.248387	-0.657007
O14	O	-0.644609	-1.102101	-0.496515
O15	O	-0.532798	-1.359232	-0.649581
O16	O	-0.832275	-1.359078	-0.350170
O17	O	-0.824770	-1.248299	-0.486664
C18	C	-0.577908	-1.069372	-0.434200
C19	C	-0.571185	-0.969101	-0.440963
C20	C	-0.494616	-0.827806	-0.517789
C21	C	-0.500924	-0.922019	-0.511441
C22	C	-0.635147	-0.921965	-0.376832
C23	C	-0.628840	-0.827752	-0.383180
C24	C	-0.558571	-0.780676	-0.453661
C25	C	-0.552259	-0.686461	-0.460003
C26	C	-0.686487	-0.686409	-0.325400
C27	C	-0.692794	-0.780622	-0.319052
C28	C	-0.866644	-1.303702	-0.418433
C29	C	-0.983425	-1.303761	-0.418454
C30	C	-1.042164	-1.361508	-0.347452
C31	C	-1.151892	-1.361563	-0.347481
C32	C	-1.144131	-1.246118	-0.489517
C33	C	-1.034405	-1.246068	-0.489493
C34	C	-0.991183	-1.419202	-0.276414
C35	C	-1.049923	-1.476952	-0.205405
C36	C	-1.159651	-1.477008	-0.205433
C37	C	-1.210639	-1.419313	-0.276471
C38	C	-0.319652	-1.303834	-0.418491
C39	C	-0.202878	-1.303867	-0.418508
C40	C	-0.593578	-1.303818	-0.692480
C41	C	-0.593535	-1.303845	-0.809255
C42	C	-0.609505	-0.539054	-0.402633
C43	C	-0.616221	-0.639324	-0.395872
C44	C	-0.530217	-1.361571	-0.860251
C45	C	-0.530181	-1.361592	-0.969974
C46	C	-0.656789	-1.246160	-0.977695
C47	C	-0.656819	-1.246135	-0.867974
C48	C	-0.466933	-1.419281	-0.801532
C49	C	-0.403611	-1.477012	-0.852527
C50	C	-0.403574	-1.477033	-0.962250
C51	C	-0.466860	-1.419324	-1.020977
C52	C	-0.593709	-1.303744	-0.145484
C53	C	-0.593468	-1.303892	-0.028698
H54	H	-0.750007	-0.818964	-0.261671
C55	C	-0.870488	-1.419146	-0.276382
H56	H	-0.848536	-1.461781	-0.223913
H57	H	-0.841823	-1.360927	-0.262073
H58	H	-0.846644	-1.434715	-0.343145
C59	C	-0.756847	-0.634564	-0.254863
H60	H	-0.743035	-0.571711	-0.268742
H61	H	-0.742429	-0.649978	-0.183259
H62	H	-0.828492	-0.650008	-0.269091
H63	H	-0.466958	-1.419272	-0.712189
C64	C	-0.334001	-1.540484	-0.787934
H65	H	-0.343096	-1.532211	-0.715283
H66	H	-0.262517	-1.527310	-0.806814
H67	H	-0.353460	-1.601098	-0.801843
H68	H	-0.352006	-1.524033	-1.003768
C69	C	-0.466821	-1.419349	-1.141670
H70	H	-0.420050	-1.461997	-1.163633
H71	H	-0.444730	-1.361146	-1.170409
H72	H	-0.535666	-1.434942	-1.165423
C73	C	-1.331337	-1.419375	-0.276510
H74	H	-1.353288	-1.376746	-0.328987
H75	H	-1.355189	-1.403821	-0.209751
H76	H	-1.359996	-1.477598	-0.290837
C77	C	-0.726408	-1.182696	-1.042291
H78	H	-0.717329	-1.190986	-1.114940
H79	H	-0.706964	-1.122082	-1.028391
H80	H	-0.797894	-1.195884	-1.023402
H81	H	-1.185654	-1.199144	-0.547352
H82	H	-0.692359	-0.960310	-0.319453
C83	C	-0.726466	-1.182641	-0.811870
H84	H	-0.717410	-1.190886	-0.738115
H85	H	-0.797941	-1.195822	-0.828943
H86	H	-0.706995	-1.122034	-0.833927
C87	C	-0.969788	-1.182552	-0.567598
H88	H	-1.015863	-1.148192	-0.609901
H89	H	-0.929237	-1.217028	-0.611074
H90	H	-0.924409	-1.143240	-0.530002
H91	H	-0.495038	-0.648133	-0.517387
H92	H	-1.207474	-1.524037	-0.147622
C93	C	-0.417328	-0.776019	-0.595312
H94	H	-0.380144	-0.817583	-0.632601
H95	H	-0.369046	-0.739250	-0.557680
H96	H	-0.455120	-0.739287	-0.643501
C97	C	-0.430576	-0.973863	-0.581980
H98	H	-0.444401	-1.036716	-0.568113
H99	H	-0.358933	-0.958420	-0.567771
H100	H	-0.445013	-0.958448	-0.653586
C101	C	-0.993841	-1.540408	-0.127267
H102	H	-0.920078	-1.532099	-0.137409
H103	H	-1.015821	-1.601025	-0.138623
H104	H	-1.011014	-1.527234	-0.057554
