data_functionalizedCrystal
_audit_creation_method	'MofGen! by Chris Wilmer'
_symmetry_space_group_name_H-M	'P1'
_symmetry_Int_Tables_number	1
_symmetry_cell_setting	triclinic
loop_
_symmetry_equiv_pos_as_xyz
  x,y,z
_cell_length_a	10.685980
_cell_length_b	18.050589
_cell_length_c	18.050591
_cell_angle_alpha	89.999595
_cell_angle_beta	94.378389
_cell_angle_gamma	85.598513
loop_
_atom_site_label
_atom_site_type_symbol
_atom_site_fract_x
_atom_site_fract_y
_atom_site_fract_z
Zn1	Zn	1.928839	0.208889	0.507066
Zn2	Zn	1.928710	0.333040	0.382880
Zn3	Zn	1.717882	0.218372	0.373360
Zn4	Zn	1.717723	0.342559	0.497498
O5	O	1.823289	0.275715	0.440201
O6	O	2.105408	0.217406	0.498580
O7	O	1.900756	0.317815	0.277693
O8	O	1.745986	0.113184	0.391117
O9	O	2.105313	0.308619	0.407342
O10	O	1.900976	0.106217	0.489350
O11	O	1.745861	0.233568	0.270699
O12	O	1.541275	0.242798	0.381839
O13	O	1.745715	0.324842	0.602691
O14	O	1.541159	0.334037	0.473042
O15	O	1.900822	0.226636	0.609720
O16	O	1.900602	0.438233	0.398064
O17	O	1.745590	0.445226	0.482273
C18	C	1.495430	0.290480	0.425370
C19	C	1.355171	0.296814	0.419043
C20	C	1.823099	0.468676	0.440181
C21	C	1.823134	0.551220	0.440202
C22	C	1.738883	0.754498	0.485980
C23	C	1.708147	0.805297	0.416825
C24	C	1.823228	0.702346	0.440217
C25	C	1.853998	0.798628	0.509382
C26	C	1.823318	0.848327	0.440236
C27	C	1.792433	0.752060	0.371022
C28	C	1.938336	0.745384	0.463628
C29	C	1.907645	0.796158	0.394427
C30	C	1.823174	0.618250	0.440206
C31	C	1.823373	0.932421	0.440239
C32	C	2.152427	0.260893	0.455090
C33	C	2.292686	0.254577	0.461435
C34	C	1.823265	0.275743	0.633905
C35	C	1.823255	0.275755	0.716451
C36	C	1.823465	1.082002	0.440238
C37	C	1.823417	0.999458	0.440250
C38	C	1.738898	0.329153	0.912078
C39	C	1.854004	0.342133	0.966670
C40	C	1.823261	0.275744	0.867581
C41	C	1.708163	0.262788	0.960071
C42	C	1.823256	0.275736	1.013566
C43	C	1.938427	0.288757	0.921089
C44	C	1.792509	0.209384	0.914482
C45	C	1.907694	0.222334	0.969056
C46	C	1.823262	0.275751	0.783483
C47	C	1.823268	0.275728	1.097663
C48	C	1.823290	0.275712	1.247249
C49	C	1.823263	0.275723	1.164702
H50	H	1.667462	0.736084	0.524618
H51	H	1.301358	0.337823	0.377902
N52	N	2.002292	0.162501	1.001867
H53	H	2.001246	0.162547	1.057770
H54	H	1.979790	0.112523	0.982030
H55	H	1.610847	0.831458	0.397040
N56	N	1.758006	0.135080	0.884140
H57	H	1.671000	0.125344	0.898138
H58	H	1.759154	0.135543	0.828247
N59	N	2.002171	0.820385	0.343114
H60	H	2.067761	0.848198	0.372394
H61	H	2.044260	0.775224	0.319589
N62	N	1.363947	0.200259	0.515931
H63	H	1.457402	0.203283	0.512884
H64	H	1.340970	0.212942	0.567924
N65	N	1.888458	0.416460	0.996989
H66	H	1.967619	0.409343	1.031356
H67	H	1.903234	0.450340	0.954516
H68	H	1.610829	0.251833	0.977367
H69	H	1.766331	0.731653	0.312517
H70	H	1.667646	0.374351	0.887190
H71	H	2.035615	0.719226	0.483443
N72	N	1.888422	0.825790	0.586848
H73	H	1.903216	0.781998	0.622097
H74	H	1.967579	0.852978	0.586870
N75	N	2.067399	0.303353	0.898311
H76	H	2.066596	0.303288	0.842323
H77	H	2.090739	0.353292	0.917829
