data_functionalizedCrystal
_audit_creation_method	'MofGen! by Chris Wilmer'
_symmetry_space_group_name_H-M	'P1'
_symmetry_Int_Tables_number	1
_symmetry_cell_setting	triclinic
loop_
_symmetry_equiv_pos_as_xyz
  x,y,z
_cell_length_a	17.699083
_cell_length_b	10.489741
_cell_length_c	16.176319
_cell_angle_alpha	89.993511
_cell_angle_beta	89.998611
_cell_angle_gamma	83.911094
loop_
_atom_site_label
_atom_site_type_symbol
_atom_site_fract_x
_atom_site_fract_y
_atom_site_fract_z
O1	O	1.005134	0.161296	-0.068630
O2	O	1.505134	0.661296	0.431370
O3	O	0.784893	0.182281	-0.068657
O4	O	1.284893	0.682281	0.431343
O5	O	0.900025	-0.013903	-0.068638
O6	O	1.400025	0.486097	0.431362
O7	O	0.890002	0.357479	-0.068649
O8	O	1.390002	0.857479	0.431351
O9	O	0.900009	-0.013915	0.068855
O10	O	1.400009	0.486085	0.568855
O11	O	0.784877	0.182268	0.068836
O12	O	1.284877	0.682268	0.568836
O13	O	1.005118	0.161283	0.068863
O14	O	1.505118	0.661283	0.568863
Cu15	Cu	0.894996	0.171775	0.081404
Cu16	Cu	1.394996	0.671775	0.581404
Cu17	Cu	0.895015	0.171789	-0.081198
Cu18	Cu	1.395015	0.671789	0.418802
O19	O	0.889986	0.357467	0.068844
O20	O	1.389986	0.857467	0.568844
C21	C	0.756683	0.181523	0.000086
C22	C	1.256683	0.681523	0.500086
C23	C	0.672650	0.179267	0.000076
C24	C	1.172650	0.679267	0.500076
C25	C	0.624782	0.294422	0.000073
C26	C	1.124782	0.794422	0.500073
C27	C	0.545825	0.292295	0.000083
C28	C	1.045825	0.792295	0.500083
C29	C	0.514737	0.175011	0.000091
C30	C	1.014737	0.675011	0.500091
C31	C	0.562611	0.059847	0.000097
C32	C	1.062611	0.559847	0.500097
C33	C	0.641567	0.061975	0.000092
C34	C	1.141567	0.561975	0.500092
C35	C	0.244192	0.051260	0.000118
C36	C	0.744192	0.551260	0.500118
C37	C	0.165230	0.049140	0.000120
C38	C	0.665230	0.549140	0.500120
C39	C	0.148450	0.281580	0.000109
C40	C	0.648450	0.781580	0.500109
C41	C	0.227406	0.283709	0.000104
C42	C	0.727406	0.783709	0.500104
C43	C	0.275273	0.168545	0.000114
C44	C	0.775273	0.668545	0.500114
C45	C	0.360887	0.170853	0.000104
C46	C	0.860887	0.670853	0.500104
C47	C	0.429124	0.172702	0.000096
C48	C	0.929124	0.672702	0.500096
C49	C	0.899260	-0.061427	0.000108
C50	C	1.399260	0.438573	0.500108
C51	C	0.896995	-0.203014	0.000106
C52	C	1.396995	0.296986	0.500106
C53	C	0.823740	-0.269793	0.000091
C54	C	1.323740	0.230207	0.500091
C55	C	0.858337	-0.362565	0.067887
C56	C	1.358337	0.137435	0.567887
C57	C	0.858370	-0.362527	-0.067671
C58	C	1.358370	0.137473	0.432329
C59	C	0.931622	-0.293921	0.067958
C60	C	1.431622	0.206079	0.567958
C61	C	0.931645	-0.293874	-0.067661
C62	C	1.431645	0.206126	0.432339
C63	C	0.966296	-0.386619	0.000151
C64	C	1.466296	0.113381	0.500151
C65	C	1.033328	0.162042	0.000118
C66	C	1.533328	0.662042	0.500118
C67	C	1.117361	0.164297	0.000123
C68	C	1.617361	0.664297	0.500123
C69	C	0.890751	0.404991	0.000096
C70	C	1.390751	0.904991	0.500096
C71	C	0.893016	0.546578	0.000093
C72	C	1.393016	1.046578	0.500093
N73	N	0.894988	0.171764	0.195769
N74	N	1.394988	0.671764	0.695769
N75	N	0.895029	0.171790	-0.195563
N76	N	1.395029	0.671790	0.304437
C77	C	0.945984	0.084929	0.239042
C78	C	1.445984	0.584929	0.739042
C79	C	0.945988	0.084928	0.325589
C80	C	1.445988	0.584928	0.825589
C81	C	0.894999	0.171768	0.368862
C82	C	1.394999	0.671768	0.868862
C83	C	0.843997	0.258607	0.325583
C84	C	1.343997	0.758607	0.825583
C85	C	0.843990	0.258601	0.239037
C86	C	1.343990	0.758601	0.739037
C87	C	0.844023	0.258631	0.674611
C88	C	1.344023	0.758631	1.174611
C89	C	0.844036	0.258632	0.761163
C90	C	1.344036	0.758632	1.261163
C91	C	0.946021	0.084957	0.761162
C92	C	1.446021	0.584957	1.261162
C93	C	0.946014	0.084951	0.674617
C94	C	1.446014	0.584951	1.174617
C95	C	0.895010	0.171785	0.631346
C96	C	1.395010	0.671785	1.131346
C97	C	0.895006	0.171784	0.537502
C98	C	1.395006	0.671784	1.037502
C99	C	0.895006	0.171776	0.462704
C100	C	1.395006	0.671776	0.962704
H101	H	0.283156	-0.042514	0.000127
H102	H	0.783156	0.457486	0.500127
C103	C	0.261599	0.412720	0.000099
C104	C	0.761599	0.912720	0.500099
H105	H	0.221781	0.481000	0.000107
H106	H	0.721781	0.981000	0.500107
H107	H	0.292051	0.418391	-0.047848
H108	H	0.792051	0.918391	0.452152
H109	H	0.292050	0.418370	0.048052
H110	H	0.792050	0.918370	0.548052
H111	H	0.537293	-0.035648	0.000115
H112	H	1.037293	0.464352	0.500115
C113	C	0.095795	0.408260	0.000109
C114	C	0.595795	0.908260	0.500109
H115	H	0.044319	0.390202	0.000122
H116	H	0.544319	0.890202	0.500122
H117	H	0.105284	0.456365	-0.047841
H118	H	0.605284	0.956365	0.452159
H119	H	0.105291	0.456356	0.048059
H120	H	0.605291	0.956356	0.548059
C121	C	0.816495	-0.403587	-0.145101
C122	C	1.316495	0.096413	0.354899
H123	H	0.765854	-0.363160	-0.145018
H124	H	1.265854	0.136840	0.354982
H125	H	0.815755	-0.494003	-0.144819
H126	H	1.315755	0.005997	0.355181
H127	H	0.842036	-0.378900	-0.193237
H128	H	1.342036	0.121100	0.306763
C129	C	0.787928	0.354154	0.627024
C130	C	1.287928	0.854154	1.127024
H131	H	0.757570	0.405881	0.665193
H132	H	1.257570	0.905881	1.165193
H133	H	0.756169	0.308342	0.593271
H134	H	1.256169	0.808342	1.093271
H135	H	0.815442	0.407195	0.593255
H136	H	1.315442	0.907195	1.093255
H137	H	1.026580	-0.437163	0.000196
H138	H	1.526580	0.062837	0.500196
H139	H	0.987537	0.014242	0.639387
H140	H	1.487537	0.514242	1.139387
C141	C	0.973489	-0.252690	-0.145081
C142	C	1.473489	0.247310	0.354919
H143	H	0.947396	-0.275900	-0.193208
H144	H	1.447396	0.224100	0.306792
H145	H	1.023845	-0.294299	-0.145563
H146	H	1.523845	0.205701	0.354437
H147	H	0.975024	-0.162446	-0.144245
H148	H	1.475024	0.337554	0.355755
H149	H	0.802477	0.329310	0.360821
H150	H	1.302477	0.829310	0.860821
C151	C	0.787898	0.354124	0.191438
C152	C	1.287898	0.854124	0.691438
H153	H	0.757536	0.405853	0.229603
H154	H	1.257536	0.905853	0.729603
H155	H	0.756143	0.308306	0.157684
H156	H	1.256143	0.808306	0.657684
H157	H	0.815412	0.407164	0.157668
H158	H	1.315412	0.907164	0.657668
C159	C	0.973443	-0.253063	0.145478
C160	C	1.473443	0.246937	0.645478
H161	H	0.974603	-0.162726	0.145025
H162	H	1.474603	0.337274	0.645025
H163	H	1.023932	-0.294116	0.145683
H164	H	1.523932	0.205884	0.645683
H165	H	0.947579	-0.277120	0.193554
H166	H	1.447579	0.222880	0.693554
H167	H	0.139922	-0.046372	0.000128
H168	H	0.639922	0.453628	0.500128
C169	C	0.694224	-0.064692	0.000095
C170	C	1.194224	0.435308	0.500095
H171	H	0.745700	-0.046628	0.000099
H172	H	1.245700	0.453372	0.500099
H173	H	0.684734	-0.112796	-0.047848
H174	H	1.184734	0.387204	0.452152
H175	H	0.684733	-0.112792	0.048052
H176	H	1.184733	0.387208	0.548052
H177	H	0.987512	0.014220	0.360821
H178	H	1.487512	0.514220	0.860821
C179	C	1.002120	-0.010574	0.808759
C180	C	1.502120	0.489426	1.308759
H181	H	1.032490	-0.062283	0.770591
H182	H	1.532490	0.437717	1.270591
H183	H	0.974612	-0.063615	0.842528
H184	H	1.474612	0.436385	1.342528
H185	H	1.033877	0.035251	0.842512
H186	H	1.533877	0.535251	1.342512
H187	H	0.802511	0.329350	0.796394
H188	H	1.302511	0.829350	1.296394
C189	C	0.658972	0.423437	0.000063
C190	C	1.158972	0.923437	0.500063
H191	H	0.619153	0.491713	0.000070
H192	H	1.119153	0.991713	0.500070
H193	H	0.689423	0.429106	-0.047885
H194	H	1.189423	0.929106	0.452115
H195	H	0.689424	0.429093	0.048015
H196	H	1.189424	0.929093	0.548015
H197	H	0.506854	0.386067	0.000080
H198	H	1.006854	0.886067	0.500080
C199	C	1.002072	-0.010599	0.191449
C200	C	1.502072	0.489401	0.691449
H201	H	1.032439	-0.062322	0.229619
H202	H	1.532439	0.437678	0.729619
H203	H	1.033823	0.035210	0.157677
H204	H	1.533823	0.535210	0.657677
H205	H	0.974551	-0.063643	0.157699
H206	H	1.474551	0.436357	0.657699
H207	H	0.827334	-0.393005	0.125195
H208	H	1.327334	0.106995	0.625195
H209	H	0.763510	-0.219023	0.000152
H210	H	1.263510	0.280977	0.500152
