data_functionalizedCrystal
_audit_creation_method	'MofGen! by Chris Wilmer'
_symmetry_space_group_name_H-M	'P1'
_symmetry_Int_Tables_number	1
_symmetry_cell_setting	triclinic
loop_
_symmetry_equiv_pos_as_xyz
  x,y,z
_cell_length_a	27.731994
_cell_length_b	26.210047
_cell_length_c	19.288874
_cell_angle_alpha	89.996031
_cell_angle_beta	82.880380
_cell_angle_gamma	90.002872
loop_
_atom_site_label
_atom_site_type_symbol
_atom_site_fract_x
_atom_site_fract_y
_atom_site_fract_z
O1	O	0.641199	0.042357	0.082459
O2	O	0.500441	0.042374	0.095065
O3	O	0.574885	0.042361	-0.012395
O4	O	0.566755	0.042370	0.189918
O5	O	0.574870	-0.042497	-0.012378
O6	O	0.500426	-0.042484	0.095081
O7	O	0.641185	-0.042501	0.082475
Cu8	Cu	0.570804	-0.050241	0.088780
Cu9	Cu	0.570821	0.050114	0.088760
O10	O	0.566741	-0.042488	0.189935
C11	C	0.482425	-0.000053	0.094814
C12	C	0.428767	-0.000046	0.094035
N13	N	0.570796	-0.120825	0.088793
C14	C	0.096025	-0.046323	0.089136
C15	C	-0.105642	-0.046328	0.086173
O16	O	-0.131722	-0.085667	0.085768
N17	N	-0.130850	-0.000072	0.085796
C18	C	-0.105638	0.046188	0.086155
O19	O	-0.131705	0.085532	0.085760
C20	C	0.096029	0.046194	0.089113
C21	C	0.121234	-0.000065	0.089497
C22	C	0.121230	-0.092578	0.089519
C23	C	0.171644	-0.092576	0.090264
C24	C	0.196852	-0.046319	0.090625
C25	C	0.171647	-0.000063	0.090241
C26	C	0.121241	0.092454	0.089467
C27	C	0.171661	0.092451	0.090204
C28	C	0.196866	0.046192	0.090589
C29	C	0.247269	0.046196	0.091347
N30	N	0.272477	-0.000060	0.091724
C31	C	0.247269	-0.046317	0.091363
C32	C	-0.211516	0.046182	0.084604
C33	C	-0.261932	0.046181	0.083866
C34	C	-0.261933	-0.046336	0.083883
C35	C	-0.211516	-0.046334	0.084626
C36	C	-0.186308	-0.000074	0.084981
C37	C	0.353141	-0.046310	0.092927
C38	C	0.403558	-0.046304	0.093674
C39	C	0.403555	0.046213	0.093653
C40	C	0.353141	0.046207	0.092910
C41	C	0.327935	-0.000058	0.092544
O42	O	0.273381	0.085514	0.091744
O43	O	0.273347	-0.085655	0.091743
C44	C	0.045612	-0.046324	0.088392
C45	C	0.020407	-0.000069	0.088008
C46	C	0.045615	0.046188	0.088369
C47	C	-0.030010	-0.000070	0.087270
C48	C	-0.055218	-0.046328	0.086909
C49	C	-0.030010	-0.092584	0.087286
C50	C	0.020403	-0.092582	0.088030
C51	C	0.020407	0.092444	0.087992
C52	C	-0.030006	0.092438	0.087249
C53	C	-0.055215	0.046181	0.086888
C54	C	0.603782	-0.473345	0.041188
C55	C	0.603793	-0.687003	0.041178
O56	O	0.631820	-0.714630	0.000705
N57	N	0.570824	-0.713719	0.088745
C58	C	0.537848	-0.687016	0.136314
O59	O	0.509803	-0.714642	0.176768
C60	C	0.537836	-0.473359	0.136320
C61	C	0.570810	-0.446646	0.088755
C62	C	0.636753	-0.446632	-0.006374
C63	C	0.636752	-0.393220	-0.006369
C64	C	0.603779	-0.366522	0.041199
C65	C	0.570808	-0.393234	0.088760
C66	C	0.504858	-0.446657	0.183886
C67	C	0.504857	-0.393239	0.183882
C68	C	0.537831	-0.366527	0.136317
C69	C	0.537835	-0.313124	0.136333
N70	N	0.570804	-0.286409	0.088766
C71	C	0.603776	-0.313107	0.041199
C72	C	0.537858	-0.799190	0.136309
C73	C	0.537861	-0.852604	0.136308
C74	C	0.603805	-0.852587	0.041171
C75	C	0.603804	-0.799172	0.041175
C76	C	0.570826	-0.772474	0.088742
C77	C	0.603771	-0.200940	0.041215
C78	C	0.603768	-0.147523	0.041226
C79	C	0.537823	-0.147545	0.136361
C80	C	0.537827	-0.200956	0.136352
C81	C	0.570803	-0.227652	0.088773
O82	O	0.509819	-0.285465	0.176780
O83	O	0.631809	-0.285473	0.000741
C84	C	0.603783	-0.526756	0.041182
C85	C	0.570812	-0.553469	0.088744
C86	C	0.537840	-0.526770	0.136311
C87	C	0.570816	-0.606883	0.088744
C88	C	0.603788	-0.633582	0.041176
C89	C	0.636757	-0.606866	-0.006390
C90	C	0.636755	-0.553455	-0.006385
C91	C	0.504871	-0.553486	0.183878
C92	C	0.504876	-0.606897	0.183869
C93	C	0.537848	-0.633596	0.136302
C94	C	0.659200	-0.000073	0.082726
C95	C	0.712859	-0.000076	0.083505
C96	C	0.574615	-0.000068	-0.038261
C97	C	0.573828	-0.000068	-0.115359
N98	N	0.570834	0.120698	0.088741
C99	C	0.568165	-0.046311	-0.670882
C100	C	0.568900	-0.046313	-0.598439
C101	C	0.569277	-0.000058	-0.562220
C102	C	0.568907	0.046204	-0.598447
C103	C	0.568168	0.046205	-0.670887
C104	C	0.598767	0.035375	-0.453088
C105	C	0.599509	0.035372	-0.380649
C106	C	0.571556	-0.000061	-0.338788
C107	C	0.542867	-0.035498	-0.369377
C108	C	0.542127	-0.035497	-0.441817
C109	C	0.570079	-0.000054	-0.483670
C110	C	0.572719	-0.046323	-0.224019
C111	C	0.573451	-0.046324	-0.151574
C112	C	0.573464	0.046195	-0.151583
C113	C	0.572727	0.046195	-0.224026
C114	C	0.572357	-0.000066	-0.260240
C115	C	0.567010	-0.000058	0.215801
C116	C	0.567798	-0.000055	0.292899
H117	H	0.332624	-0.083984	0.092635
H118	H	0.478025	-0.628643	0.222609
N119	N	0.569300	0.093448	-0.561443
N120	N	0.603781	0.103764	-0.527799
H121	H	0.604057	0.137131	-0.501664
H122	H	0.630622	-0.222669	0.002471
H123	H	0.573765	0.083857	-0.122093
N124	N	0.512819	-0.071681	-0.473073
N125	N	0.512162	-0.071670	-0.537752
H126	H	0.491460	-0.097224	-0.559827
N127	N	0.514315	-0.071693	-0.326617
N128	N	0.514975	-0.071688	-0.261939
H129	H	0.494812	-0.097250	-0.231737
H130	H	-0.190996	0.083855	0.084893
N131	N	0.504137	-0.120268	0.184937
N132	N	0.459462	-0.126234	0.184431
H133	H	0.435668	-0.106969	0.218736
N134	N	0.670430	-0.365909	-0.054928
N135	N	0.700370	-0.336101	-0.033161
H136	H	0.724155	-0.316806	-0.067450
N137	N	0.637477	-0.879859	-0.007438
N138	N	0.636942	-0.873887	-0.071631
H139	H	0.660719	-0.893148	-0.105965
N140	N	0.569273	-0.093559	-0.561420
N141	N	0.535622	-0.103879	-0.514215
H142	H	0.535886	-0.137246	-0.488070
N143	N	0.471180	-0.473945	0.232468
N144	N	0.486414	-0.503753	0.275433
H145	H	0.462627	-0.523026	0.309746
N146	N	0.504166	-0.771930	0.184904
N147	N	0.474734	-0.795796	0.227366
H148	H	0.450939	-0.776547	0.261688
N149	N	0.670437	-0.473890	-0.054975
N150	N	0.699869	-0.450023	-0.097435
H151	H	0.723663	-0.469271	-0.131760
H152	H	0.567868	0.083874	-0.700376
H153	H	0.040927	0.130113	0.088284
N154	N	0.572353	0.093449	-0.261016
N155	N	0.572688	0.134746	-0.228672
H156	H	0.572422	0.168122	-0.254795
N157	N	0.572339	-0.093570	-0.261024
N158	N	0.605992	-0.103895	-0.308221
H159	H	0.605723	-0.137264	-0.334354
N160	N	0.471172	-0.365977	0.232484
N161	N	0.471693	-0.371953	0.296679
H162	H	0.447904	-0.352701	0.331006
N163	N	0.504153	-0.228251	0.184941
N164	N	0.519390	-0.258063	0.227899
H165	H	0.495604	-0.277337	0.262213
H166	H	-0.050544	-0.130248	0.086996
N167	N	0.628819	0.071569	-0.349419
N168	N	0.653770	0.103207	-0.386798
H169	H	0.674471	0.128772	-0.364744
H170	H	0.478021	-0.531752	0.222612
H171	H	0.663606	-0.531709	-0.045117
N172	N	0.627322	0.071577	-0.495833
N173	N	0.652938	0.103210	-0.468517
H174	H	0.673105	0.128777	-0.498704
H175	H	0.424077	-0.083975	0.093989
N176	N	0.573820	-0.093580	-0.114584
N177	N	0.573489	-0.134877	-0.146930
H178	H	0.573750	-0.168253	-0.120806
H179	H	0.332617	0.083875	0.092608
N180	N	0.429316	0.093457	0.094033
N181	N	0.474330	0.093446	0.094698
H182	H	0.492526	0.126812	0.094965
N183	N	0.567790	-0.093567	-0.707862
N184	N	0.568119	-0.134865	-0.675510
H185	H	0.567855	-0.168241	-0.701628
H186	H	0.192161	-0.130245	0.090572
H187	H	0.663606	-0.628613	-0.045119
N188	N	0.095494	-0.139838	0.089162
N189	N	0.096571	-0.170802	0.138236
H190	H	0.078398	-0.204184	0.137989
N191	N	-0.185780	-0.093591	0.085027
N192	N	-0.208301	-0.134886	0.084714
H193	H	-0.190128	-0.168264	0.085000
H194	H	0.511016	-0.874350	0.175047
H195	H	-0.282466	-0.084000	0.083590
H196	H	-0.282451	0.083850	0.083564
H197	H	0.630654	-0.777425	0.002443
N198	N	0.095513	0.139713	0.089063
N199	N	0.105722	0.170677	0.040154
H200	H	0.087554	0.204057	0.039867
N201	N	0.197411	0.139707	0.090555
N202	N	0.196345	0.170673	0.041481
H203	H	0.214531	0.204047	0.041728
N204	N	0.046138	-0.139839	0.088426
N205	N	0.023616	-0.181133	0.088104
H206	H	0.041788	-0.214512	0.088383
H207	H	0.630621	-0.125775	0.002493
N208	N	-0.055742	0.139699	0.086865
N209	N	-0.033223	0.180995	0.087187
H210	H	-0.051396	0.214372	0.086911
