data_functionalizedCrystal
_audit_creation_method	'MofGen! by Chris Wilmer'
_symmetry_space_group_name_H-M	'P1'
_symmetry_Int_Tables_number	1
_symmetry_cell_setting	triclinic
loop_
_symmetry_equiv_pos_as_xyz
  x,y,z
_cell_length_a	16.959455
_cell_length_b	16.959453
_cell_length_c	16.959447
_cell_angle_alpha	90.031064
_cell_angle_beta	90.014322
_cell_angle_gamma	90.016935
loop_
_atom_site_label
_atom_site_type_symbol
_atom_site_fract_x
_atom_site_fract_y
_atom_site_fract_z
Zn1	Zn	1.208384	-0.314730	0.446905
Zn2	Zn	1.208307	-0.446923	0.314724
Zn3	Zn	1.076213	-0.314755	0.314742
Zn4	Zn	1.076178	-0.446864	0.446863
O5	O	1.142270	-0.380818	0.380808
O6	O	1.318985	-0.332280	0.429381
O7	O	1.190767	-0.429426	0.204116
O8	O	1.093793	-0.204141	0.332299
O9	O	1.318928	-0.429402	0.332268
O10	O	1.190898	-0.204123	0.429398
O11	O	1.093718	-0.332323	0.204129
O12	O	0.965597	-0.332265	0.332258
O13	O	1.093733	-0.429301	0.557479
O14	O	0.965571	-0.429325	0.429327
O15	O	1.190864	-0.332223	0.557510
O16	O	1.190733	-0.557526	0.332228
O17	O	1.093658	-0.557482	0.429310
C18	C	0.936904	-0.380792	0.380790
C19	C	0.849048	-0.380800	0.380801
C20	C	0.477561	-0.330238	0.330370
C21	C	0.477583	-0.431463	0.431292
C22	C	0.560129	-0.431452	0.431287
C23	C	0.601395	-0.380834	0.380822
C24	C	0.560114	-0.330226	0.330362
C25	C	0.601415	-0.482064	0.481740
C26	C	0.683966	-0.482055	0.481737
C27	C	0.725233	-0.431432	0.431275
C28	C	0.683948	-0.380822	0.380814
C29	C	0.725214	-0.330204	0.330350
C30	C	0.683930	-0.279589	0.279892
C31	C	0.601382	-0.279603	0.279901
C32	C	0.807782	-0.431418	0.431266
C33	C	0.807767	-0.330193	0.330341
C34	C	1.142204	-0.586184	0.380780
C35	C	1.142249	-0.674041	0.380794
C36	C	1.192898	-1.045448	0.431463
C37	C	1.091863	-1.045584	0.330271
C38	C	1.091834	-0.963039	0.330253
C39	C	1.142337	-0.921694	0.380842
C40	C	1.192869	-0.962895	0.431449
C41	C	1.041297	-0.921831	0.279652
C42	C	1.041265	-0.839280	0.279633
C43	C	1.091773	-0.797934	0.330218
C44	C	1.142307	-0.839140	0.380827
C45	C	1.192810	-0.797796	0.431415
C46	C	1.243349	-0.839000	0.482021
C47	C	1.243376	-0.921549	0.482034
C48	C	1.091746	-0.715386	0.330205
C49	C	1.192781	-0.715242	0.431401
C50	C	1.348439	-0.380845	0.380827
C51	C	1.436295	-0.380856	0.380835
C52	C	1.142303	-0.380753	0.586977
C53	C	1.142317	-0.380725	0.674833
C54	C	1.142358	-0.174650	0.380855
C55	C	1.142395	-0.086793	0.380875
C56	C	1.142283	-0.380826	0.175442
C57	C	1.142422	-0.380631	0.087586
C58	C	1.091840	-0.431185	1.046296
C59	C	1.192984	-0.330097	1.046323
C60	C	1.192963	-0.330114	0.963777
C61	C	1.142380	-0.380668	0.922487
C62	C	1.091819	-0.431205	0.963742
C63	C	1.243529	-0.279584	0.922515
C64	C	1.243511	-0.279599	0.839964
C65	C	1.192923	-0.330149	0.798672
C66	C	1.142359	-0.380688	0.839933
C67	C	1.091777	-0.431242	0.798643
C68	C	1.041208	-0.481777	0.839902
C69	C	1.041232	-0.481756	0.922450
C70	C	1.192900	-0.330171	0.716124
C71	C	1.091756	-0.431262	0.716089
H72	H	0.443944	-0.289026	0.289291
H73	H	0.841391	-0.472630	0.472346
H74	H	1.233909	-0.681584	0.472593
H75	H	1.284686	-0.238450	0.806378
H76	H	0.443979	-0.472679	0.472373
H77	H	1.000027	-0.522942	0.806273
H78	H	1.000179	-0.955500	0.238468
Br79	Br	1.023160	-0.659468	0.261536
Br80	Br	0.972612	-0.550336	0.978449
Br81	Br	0.739987	-0.550743	0.550214
H82	H	1.050558	-0.472422	0.682476
Br83	Br	1.311956	-0.977473	0.550708
H84	H	1.050743	-1.079252	0.289087
H85	H	1.234048	-1.079001	0.472663
Br86	Br	1.261636	-0.261500	1.102360
H87	H	1.284465	-0.805328	0.523214
H88	H	0.567810	-0.523280	0.522820
Br89	Br	1.261530	-0.261601	0.660132
Br90	Br	1.023209	-0.499761	1.102286
H91	H	0.841360	-0.288968	0.289251
Br92	Br	0.739943	-0.210903	0.211399
Br93	Br	0.545350	-0.210918	0.211430
H94	H	1.284715	-0.238430	0.956140
H95	H	1.000115	-0.805737	0.238427
