data_functionalizedCrystal
_audit_creation_method	'MofGen! by Chris Wilmer'
_symmetry_space_group_name_H-M	'P1'
_symmetry_Int_Tables_number	1
_symmetry_cell_setting	triclinic
loop_
_symmetry_equiv_pos_as_xyz
  x,y,z
_cell_length_a	23.204063
_cell_length_b	23.204065
_cell_length_c	23.204116
_cell_angle_alpha	59.997987
_cell_angle_beta	89.998953
_cell_angle_gamma	60.000253
loop_
_atom_site_label
_atom_site_type_symbol
_atom_site_fract_x
_atom_site_fract_y
_atom_site_fract_z
O1	O	-0.491197	-0.412484	0.017135
O2	O	-0.407392	-0.294473	-0.017070
O3	O	-0.407389	-0.412483	0.100940
O4	O	-0.491200	-0.294474	-0.100875
O5	O	-0.311538	-0.508333	0.100940
O6	O	-0.311541	-0.390323	-0.017071
O7	O	-0.395346	-0.508335	0.017135
Cu8	Cu	-0.344692	-0.458081	0.000032
Cu9	Cu	-0.458046	-0.344727	0.000033
O10	O	-0.395349	-0.390324	-0.100876
C11	C	-0.310652	-0.181456	-0.024838
C12	C	-0.346214	-0.110333	-0.019942
C13	C	-0.241294	-0.215971	-0.025323
C14	C	-0.310655	-0.285810	-0.024846
C15	C	-0.346219	-0.326263	-0.019957
C16	C	-0.241297	-0.320167	-0.025331
C17	C	-0.206293	-0.285815	-0.024838
C18	C	-0.130274	-0.326273	-0.019941
C19	C	-0.345497	-0.215967	-0.025331
C20	C	-0.658540	-0.590043	0.035860
C21	C	-0.734559	-0.549588	0.030967
C22	C	-0.623539	-0.659889	0.036349
C23	C	-0.554183	-0.590040	0.035855
C24	C	-0.518621	-0.549582	0.030958
C25	C	-0.519339	-0.659886	0.036344
C26	C	-0.554182	-0.694402	0.035859
C27	C	-0.518619	-0.765527	0.030967
C28	C	-0.623539	-0.555686	0.036345
C29	C	-0.489889	-0.822989	0.027012
C30	C	-0.795974	-0.516903	0.027013
C31	C	-0.489891	-0.516895	0.027000
C32	C	-0.453845	-0.895077	0.022052
C33	C	-0.873022	-0.475899	0.022054
C34	C	-0.453848	-0.475888	0.022036
C35	C	-0.554187	-0.212776	-0.445775
C36	C	-0.518624	-0.253233	-0.481336
C37	C	-0.623545	-0.142931	-0.480619
C38	C	-0.554188	-0.212775	-0.341416
C39	C	-0.518626	-0.253231	-0.265397
C40	C	-0.623546	-0.142930	-0.376419
C41	C	-0.658547	-0.108416	-0.445777
C42	C	-0.734566	-0.037291	-0.481340
C43	C	-0.519344	-0.247131	-0.376417
C44	C	-0.795982	0.020169	-0.510072
C45	C	-0.489893	-0.285920	-0.510065
C46	C	-0.489896	-0.285917	-0.203980
C47	C	-0.873032	0.092257	-0.546117
C48	C	-0.453848	-0.326925	-0.546108
C49	C	-0.453852	-0.326922	-0.126930
O50	O	0.100922	-0.508345	0.017151
O51	O	-0.100892	-0.390333	-0.017055
O52	O	0.017109	-0.508348	0.100956
O53	O	-0.017080	-0.390330	-0.100860
O54	O	0.017112	-0.412502	0.100963
O55	O	-0.100890	-0.294486	-0.017048
O56	O	0.100924	-0.412499	0.017158
Cu57	Cu	0.000018	-0.344741	0.000056
Cu58	Cu	0.000014	-0.458090	0.000048
O59	O	-0.017077	-0.294483	-0.100853
O60	O	-0.395342	0.083766	0.017156
O61	O	-0.311534	-0.083842	-0.017048
O62	O	-0.311538	-0.083852	0.100962
O63	O	-0.395338	0.083777	-0.100854
O64	O	-0.407391	-0.083849	0.100954
O65	O	-0.407387	-0.083839	-0.017056
O66	O	-0.491195	0.083770	0.017149
Cu67	Cu	-0.458043	-0.000034	0.000046
Cu68	Cu	-0.344686	-0.000038	0.000055
O69	O	-0.491191	0.083780	-0.100861
O70	O	-1.100901	0.281028	-0.592582
O71	O	-0.899087	0.113413	-0.508770
O72	O	-1.017091	0.113409	-0.508767
O73	O	-0.982897	0.281032	-0.592584
O74	O	-1.017088	0.113407	-0.604617
O75	O	-0.899085	0.113411	-0.604619
O76	O	-1.100898	0.281026	-0.688432
Cu77	Cu	-0.999991	0.197218	-0.655277
Cu78	Cu	-0.999994	0.197221	-0.541924
O79	O	-0.982895	0.281030	-0.688434
O80	O	-0.407389	-0.412483	-0.688416
O81	O	-0.491197	-0.294477	-0.604610
O82	O	-0.491195	-0.412486	-0.604605
O83	O	-0.407390	-0.294474	-0.688421
O84	O	-0.395343	-0.508338	-0.508754
O85	O	-0.395345	-0.390329	-0.508759
O86	O	-0.311537	-0.508334	-0.592565
Cu87	Cu	-0.344689	-0.458084	-0.541910
Cu88	Cu	-0.458045	-0.344728	-0.655265
O89	O	-0.311539	-0.390326	-0.592570
C90	C	-0.206294	-0.621360	0.310702
C91	C	-0.130275	-0.692485	0.346265
C92	C	-0.241296	-0.586846	0.345545
C93	C	-0.310654	-0.517001	0.206342
C94	C	-0.346216	-0.476544	0.130323
C95	C	-0.345497	-0.482645	0.241343
C96	C	-0.310653	-0.517001	0.310701
C97	C	-0.346216	-0.476544	0.346263
C98	C	-0.241296	-0.586846	0.241345
C99	C	0.024887	-0.517030	0.310724
C100	C	0.019993	-0.476577	0.346290
C101	C	0.025371	-0.586874	0.345565
C102	C	0.024889	-0.517022	0.206362
C103	C	0.019998	-0.476562	0.130342
C104	C	0.025374	-0.586867	0.241361
C105	C	0.024884	-0.621384	0.310718
C106	C	0.019987	-0.692509	0.346278
C107	C	0.025377	-0.482671	0.241366
C108	C	-0.310656	-0.285855	0.310709
C109	C	-0.346220	-0.326314	0.346266
C110	C	-0.241298	-0.320218	0.345555
C111	C	-0.310655	-0.181484	0.206357
C112	C	-0.346217	-0.110348	0.130340
C113	C	-0.241296	-0.216005	0.241362
C114	C	-0.206295	-0.285860	0.310717
C115	C	-0.130275	-0.326323	0.346282
C116	C	-0.345499	-0.216001	0.241354
C117	C	-0.035774	-0.108410	-0.445754
C118	C	-0.030877	-0.037285	-0.481314
C119	C	-0.036262	-0.142920	-0.480600
C120	C	-0.035780	-0.212771	-0.341397
C121	C	-0.030889	-0.253231	-0.265377
C122	C	-0.036268	-0.247124	-0.376401
C123	C	-0.035777	-0.212765	-0.445759
C124	C	-0.030883	-0.253218	-0.481324
C125	C	-0.036265	-0.142927	-0.376396
C126	C	-0.026928	-0.285901	-0.510056
C127	C	-0.026920	0.020175	-0.510042
C128	C	-0.026936	-0.285920	-0.203961
C129	C	-0.021967	-0.326903	-0.546103
C130	C	-0.021955	0.092262	-0.546083
C131	C	-0.021978	-0.326928	-0.126911
O132	O	-0.017120	-0.390358	0.491266
O133	O	0.017098	-0.508368	0.407461
O134	O	-0.100916	-0.390357	0.407446
O135	O	0.100893	-0.508369	0.491281
O136	O	-0.100904	-0.294507	0.311599
O137	O	0.017110	-0.412518	0.311614
O138	O	-0.017109	-0.294509	0.395420
Cu139	Cu	0.000001	-0.344761	0.344766
Cu140	Cu	-0.000012	-0.458115	0.458115
O141	O	0.100905	-0.412519	0.395435
C142	C	-0.658539	0.410016	-0.445751
C143	C	-0.734559	0.450479	-0.481316
C144	C	-0.623536	0.444375	-0.480590
C145	C	-0.554179	0.305641	-0.341392
C146	C	-0.518616	0.234505	-0.265374
C147	C	-0.519335	0.340158	-0.376388
C148	C	-0.554178	0.410013	-0.445743
C149	C	-0.518614	0.450471	-0.481300
C150	C	-0.623537	0.340162	-0.376396
C151	C	-0.489883	0.483159	-0.510025
C152	C	-0.795975	0.483170	-0.510049
C153	C	-0.489886	0.177036	-0.203959
C154	C	-0.453838	0.524167	-0.546063
C155	C	-0.873025	0.524182	-0.546095
C156	C	-0.453842	0.104937	-0.126912
H157	H	-0.213196	-0.187082	-0.026109
H158	H	-0.462354	-0.688766	0.037124
H159	H	-0.402481	-0.426435	0.213235
H160	H	-0.402486	-0.187075	-0.026121
C161	C	-0.037651	-0.149018	-0.270059
C162	C	-0.037321	-0.103942	-0.338453
H163	H	-0.038297	-0.124955	-0.246634
H164	H	-0.078369	-0.149287	-0.272478
H165	H	0.003499	-0.203381	-0.244678
H166	H	-0.078473	-0.049581	-0.363836
H167	H	0.003402	-0.103665	-0.336037
H168	H	-0.462348	0.311266	-0.348281
C169	C	0.087092	-0.649101	0.183963
C170	C	0.026432	-0.625867	0.203432
H171	H	0.087745	-0.673183	0.160556
H172	H	0.086865	-0.602480	0.153167
H173	H	0.127806	-0.687408	0.224967
H174	H	-0.014282	-0.587556	0.162428
H175	H	0.026653	-0.672494	0.234230
H176	H	-0.651645	-0.499479	0.037123
C177	C	-0.199858	-0.569359	0.426449
C178	C	-0.203384	-0.625840	0.422483
H179	H	-0.176464	-0.593431	0.473948
H180	H	-0.174455	-0.553608	0.397500
H181	H	-0.246267	-0.522737	0.410600
H182	H	-0.156974	-0.672460	0.438327
H183	H	-0.228786	-0.641602	0.451442
H184	H	0.026144	-0.615754	0.402549
C185	C	-0.729859	-0.653837	0.037759
C186	C	-0.661462	-0.698904	0.037435
H187	H	-0.753266	-0.677927	0.038433
H188	H	-0.727448	-0.653540	0.078463
H189	H	-0.755250	-0.599483	-0.003406
H190	H	-0.636068	-0.753257	0.078603
H191	H	-0.663869	-0.699210	-0.003273
C192	C	-0.616096	-0.149003	-0.270088
C193	C	-0.661483	-0.103930	-0.338489
H194	H	-0.639517	-0.124921	-0.246677
H195	H	-0.602899	-0.203353	-0.244705
H196	H	-0.575094	-0.149289	-0.272497
H197	H	-0.702483	-0.103648	-0.336081
H198	H	-0.674690	-0.049565	-0.363879
C199	C	-0.142925	-0.233488	0.199892
C200	C	-0.203360	-0.177008	0.203431
H201	H	-0.119509	-0.209410	0.176472
H202	H	-0.112143	-0.280101	0.246292
H203	H	-0.156139	-0.249245	0.174500
H204	H	-0.190146	-0.161256	0.228827
H205	H	-0.234148	-0.130380	0.157023
C206	C	-0.399705	-0.305058	-0.375884
C207	C	-0.442416	-0.323005	-0.338463
H208	H	-0.352216	-0.351898	-0.352445
H209	H	-0.415523	-0.289469	-0.422275
H210	H	-0.402404	-0.261643	-0.378299
H211	H	-0.439721	-0.366417	-0.336052
H212	H	-0.426594	-0.338606	-0.292060
C213	C	-0.033589	-0.342821	0.199879
C214	C	0.026436	-0.406799	0.203428
H215	H	-0.032933	-0.295985	0.176459
H216	H	-0.074729	-0.330650	0.174490
H217	H	-0.033806	-0.358437	0.246283
H218	H	0.026651	-0.391185	0.157023
H219	H	0.067587	-0.418970	0.228816
H220	H	-0.213198	-0.376369	-0.026116
C221	C	-0.426373	-0.176581	0.142974
C222	C	-0.422427	-0.177008	0.203415
H223	H	-0.473861	-0.152517	0.119556
H224	H	-0.410550	-0.145999	0.112194
H225	H	-0.397391	-0.230942	0.156183
H226	H	-0.451405	-0.122646	0.190205
H227	H	-0.438259	-0.207590	0.234200
H228	H	-0.651638	-0.114039	-0.537611
C229	C	-0.142959	-0.626148	0.199819
C230	C	-0.203369	-0.625785	0.203370
H231	H	-0.119548	-0.650174	0.176367
H232	H	-0.156197	-0.571783	0.174461
H233	H	-0.112158	-0.656748	0.246224
H234	H	-0.234173	-0.595180	0.156964
H235	H	-0.190133	-0.680160	0.228727
H236	H	-0.213202	-0.376423	0.402543
C237	C	-0.037685	-0.345983	-0.270083
C238	C	-0.037357	-0.322975	-0.338481
H239	H	-0.038369	-0.392801	-0.246680
H240	H	0.003475	-0.358193	-0.244689
H241	H	-0.078392	-0.302561	-0.272497
H242	H	0.003353	-0.366395	-0.336067
H243	H	-0.078522	-0.310769	-0.363881
C244	C	-0.729889	0.543312	-0.580830
C245	C	-0.661481	0.520281	-0.557505
H246	H	-0.753316	0.590182	-0.628307
H247	H	-0.727496	0.499935	-0.578179
H248	H	-0.755251	0.555451	-0.551826
H249	H	-0.636117	0.508136	-0.586505
H250	H	-0.663870	0.563668	-0.560161
C251	C	-0.037542	-0.035271	-0.580826
C252	C	-0.037259	-0.103965	-0.557511
H253	H	-0.038135	-0.011239	-0.628298
H254	H	-0.078272	0.003071	-0.578186
H255	H	0.003598	-0.051060	-0.551810
H256	H	-0.078401	-0.088175	-0.586523
H257	H	0.003475	-0.142314	-0.560156
H258	H	-0.651648	0.311288	-0.348296
