data_functionalizedCrystal
_audit_creation_method	'MofGen! by Chris Wilmer'
_symmetry_space_group_name_H-M	'P1'
_symmetry_Int_Tables_number	1
_symmetry_cell_setting	triclinic
loop_
_symmetry_equiv_pos_as_xyz
  x,y,z
_cell_length_a	14.908558
_cell_length_b	14.908520
_cell_length_c	14.908308
_cell_angle_alpha	96.360765
_cell_angle_beta	90.175599
_cell_angle_gamma	90.204982
loop_
_atom_site_label
_atom_site_type_symbol
_atom_site_fract_x
_atom_site_fract_y
_atom_site_fract_z
Zn1	Zn	1.316652	-0.470634	-0.613055
Zn2	Zn	1.316550	-0.613273	-0.470419
Zn3	Zn	1.176021	-0.453311	-0.453116
Zn4	Zn	1.157643	-0.612199	-0.612014
O5	O	1.241716	-0.537354	-0.537151
O6	O	1.441996	-0.497255	-0.601811
O7	O	1.305557	-0.585253	-0.341931
O8	O	1.202410	-0.329418	-0.467527
O9	O	1.441921	-0.602051	-0.497017
O10	O	1.305731	-0.342146	-0.585033
O11	O	1.202311	-0.467729	-0.329218
O12	O	1.048226	-0.466688	-0.466517
O13	O	1.171087	-0.600221	-0.738345
O14	O	1.034723	-0.583423	-0.583259
O15	O	1.287910	-0.496213	-0.739110
O16	O	1.287737	-0.739321	-0.496008
O17	O	1.170988	-0.738532	-0.600037
C18	C	1.008971	-0.523060	-0.522898
C19	C	0.909398	-0.516967	-0.516823
C20	C	1.227380	-0.771649	-0.549808
C21	C	1.221327	-0.871887	-0.555258
C22	C	0.776059	-0.447524	-0.447570
C23	C	0.869616	-0.453243	-0.453274
C24	C	0.855615	-0.574974	-0.574674
C25	C	0.762058	-0.569255	-0.568970
C26	C	0.722283	-0.505528	-0.505415
C27	C	0.628724	-0.499814	-0.499707
C28	C	0.614725	-0.621540	-0.621111
C29	C	0.708282	-0.627259	-0.626816
C30	C	1.331635	-1.061020	-0.457274
C31	C	1.325951	-1.155203	-0.462392
C32	C	1.204280	-1.154440	-0.570616
C33	C	1.209964	-1.060256	-0.565498
C34	C	1.273643	-1.013550	-0.508824
C35	C	1.279322	-0.919364	-0.503702
C36	C	1.157656	-0.918603	-0.611931
C37	C	1.151972	-1.012786	-0.617049
C38	C	1.475371	-0.551705	-0.551461
C39	C	1.574941	-0.557821	-0.557558
C40	C	1.227460	-0.550030	-0.772363
C41	C	1.221384	-0.555431	-0.872596
C42	C	1.256132	-0.302147	-0.524466
C43	C	1.262275	-0.201916	-0.519060
C44	C	1.331615	-0.457257	-1.061742
C45	C	1.325909	-0.462329	-1.155920
C46	C	1.204265	-0.570642	-1.155132
C47	C	1.209970	-0.565570	-1.060954
C48	C	1.273648	-0.508877	-1.014262
C49	C	1.279357	-0.503810	-0.920083
C50	C	1.157709	-0.612117	-0.919296
C51	C	1.152003	-0.617190	-1.013474
C52	C	1.255973	-0.524666	-0.302854
C53	C	1.262238	-0.519021	-0.202618
H54	H	0.596341	-0.447924	-0.447958
O55	O	1.090232	-1.058271	-0.672154
C56	C	1.134365	-1.118934	-0.736538
H57	H	1.203358	-1.135448	-0.709721
H58	H	1.142285	-1.086805	-0.802000
C59	C	0.993936	-1.186008	-0.787601
C60	C	1.078672	-1.206297	-0.754660
H61	H	0.959581	-1.239896	-0.798783
H62	H	0.964202	-1.145136	-0.744227
H63	H	1.000548	-1.159232	-0.842149
H64	H	1.072059	-1.233061	-0.700107
H65	H	1.108404	-1.247175	-0.798025
O66	O	0.921723	-0.396860	-0.396984
C67	C	0.866549	-0.339376	-0.339685
H68	H	0.797796	-0.372058	-0.334435
H69	H	0.858778	-0.272114	-0.368513
C70	C	0.994099	-0.283153	-0.251690
C71	C	0.909656	-0.323297	-0.245236
H72	H	1.020690	-0.273230	-0.193431
H73	H	1.031271	-0.321878	-0.290295
H74	H	0.987611	-0.227106	-0.275717
H75	H	0.916146	-0.379347	-0.221220
H76	H	0.872486	-0.284580	-0.206624
O77	O	1.090075	-0.672277	-1.058691
C78	C	1.040154	-0.716772	-0.996587
H79	H	1.043378	-0.676030	-0.927270
H80	H	1.069378	-0.786730	-0.992276
C81	C	0.937830	-0.775946	-1.113344
C82	C	0.941784	-0.725903	-1.028209
H83	H	0.877151	-0.781583	-1.132852
H84	H	0.971464	-0.745973	-1.155186
H85	H	0.962188	-0.834240	-1.109741
H86	H	0.917436	-0.667607	-1.031817
H87	H	0.908143	-0.755867	-0.986369
H88	H	0.743673	-0.395637	-0.395819
H89	H	1.383480	-1.022990	-0.411121
H90	H	1.331208	-0.457648	-0.882068
H91	H	0.888017	-0.626853	-0.626422
H92	H	1.110510	-0.654152	-0.880628
O93	O	0.747028	-0.689044	-0.688591
C94	C	0.800733	-0.644247	-0.747468
H95	H	0.820834	-0.575004	-0.712938
H96	H	0.761240	-0.635847	-0.811586
C97	C	0.860907	-0.785242	-0.814222
C98	C	0.885601	-0.700199	-0.771809
H99	H	0.913256	-0.819757	-0.829241
H100	H	0.824723	-0.815423	-0.774559
H101	H	0.827995	-0.778230	-0.867649
H102	H	0.918503	-0.707212	-0.718378
H103	H	0.921793	-0.670020	-0.811465
O104	O	1.382248	-0.412321	-1.202152
C105	C	1.433680	-0.470144	-1.262926
H106	H	1.397050	-0.537306	-1.278789
H107	H	1.501660	-0.482167	-1.231230
C108	C	1.492505	-0.343851	-1.331218
C109	C	1.447511	-0.426338	-1.350707
H110	H	1.501041	-0.316829	-1.385364
H111	H	1.457857	-0.304894	-1.290271
H112	H	1.549150	-0.353882	-1.304802
H113	H	1.390863	-0.416305	-1.377111
H114	H	1.482150	-0.465293	-1.391660
O115	O	0.562354	-0.677794	-0.677266
C116	C	0.471248	-0.659102	-0.658588
H117	H	0.464493	-0.587096	-0.624626
H118	H	0.444346	-0.708301	-0.611743
C119	C	0.425488	-0.757932	-0.789054
C120	C	0.417191	-0.669490	-0.747349
H121	H	0.392142	-0.764344	-0.843805
H122	H	0.486868	-0.770529	-0.801637
H123	H	0.403072	-0.798921	-0.750008
H124	H	0.439618	-0.628504	-0.786391
H125	H	0.355813	-0.656887	-0.734775
O126	O	1.101441	-0.872464	-0.662114
C127	C	1.152145	-0.824162	-0.720544
H128	H	1.220646	-0.857106	-0.732039
H129	H	1.161248	-0.751478	-0.688976
C130	C	1.018567	-0.784622	-0.797368
C131	C	1.102699	-0.825088	-0.811492
H132	H	0.988065	-0.785188	-0.853468
H133	H	0.984406	-0.817160	-0.758001
H134	H	1.026164	-0.724055	-0.771058
H135	H	1.095100	-0.885657	-0.837791
H136	H	1.136858	-0.792560	-0.850866
H137	H	1.331171	-0.881336	-0.457553
H138	H	1.383468	-0.411100	-1.023726
H139	H	1.152421	-0.616799	-1.193164
O140	O	1.142454	-1.199956	-0.625590
C141	C	1.149895	-1.293265	-0.619070
H142	H	1.182738	-1.304177	-0.552002
H143	H	1.192702	-1.325735	-0.676970
C144	C	1.015497	-1.323185	-0.706708
C145	C	1.055828	-1.336588	-0.624330
H146	H	0.957473	-1.349911	-0.709956
H147	H	1.010485	-1.260321	-0.711104
H148	H	1.051178	-1.350244	-0.754948
H149	H	1.020153	-1.309519	-0.576092
H150	H	1.060832	-1.399448	-0.619926
H151	H	1.373176	-1.193850	-0.420416
