data_functionalizedCrystal
_audit_creation_method	'MofGen! by Chris Wilmer'
_symmetry_space_group_name_H-M	'P1'
_symmetry_Int_Tables_number	1
_symmetry_cell_setting	triclinic
loop_
_symmetry_equiv_pos_as_xyz
  x,y,z
_cell_length_a	11.792254
_cell_length_b	10.654541
_cell_length_c	9.730217
_cell_angle_alpha	89.999557
_cell_angle_beta	90.002942
_cell_angle_gamma	84.341263
loop_
_atom_site_label
_atom_site_type_symbol
_atom_site_fract_x
_atom_site_fract_y
_atom_site_fract_z
O1	O	-1.507295	-0.172203	-0.114288
O2	O	-1.176997	-0.189926	-0.114291
O3	O	-1.349741	0.001696	-0.114281
O4	O	-1.334550	-0.363825	-0.114298
O5	O	-1.349730	0.001685	0.114299
O6	O	-1.176985	-0.189938	0.114289
O7	O	-1.507283	-0.172214	0.114292
Zn8	Zn	-1.342132	-0.181078	0.150582
Zn9	Zn	-1.342148	-0.181063	-0.150582
O10	O	-1.334538	-0.363837	0.114282
C11	C	-1.134697	-0.188816	-0.000001
C12	C	-1.008677	-0.185474	-0.000002
C13	C	-1.348621	0.048485	0.000008
C14	C	-1.345285	0.187919	0.000006
C15	C	-1.549582	-0.173325	-0.000001
C16	C	-1.675603	-0.176667	-0.000009
C17	C	-0.906334	-0.182759	-0.000008
C18	C	-0.777940	-0.179364	-0.000009
N19	N	-1.342130	-0.181088	0.356119
C20	C	-1.335659	-0.410626	-0.000010
C21	C	-1.338995	-0.550060	-0.000017
C22	C	-1.551849	0.216464	0.000025
C23	C	-1.653558	0.296241	0.000037
C24	C	-1.650418	0.427250	0.000033
C25	C	-1.545555	0.478484	0.000012
C26	C	-1.443845	0.398707	-0.000000
C27	C	-1.446998	0.267697	0.000008
C28	C	-1.237285	0.370163	-0.000029
C29	C	-1.240423	0.239153	-0.000015
C30	C	-1.132423	0.421397	-0.000050
C31	C	-1.030710	0.341620	-0.000053
C32	C	-1.033856	0.210603	-0.000047
C33	C	-1.138713	0.159377	-0.000028
N34	N	-1.342159	-0.181043	-0.356118
C35	C	-1.203305	-0.027652	0.643878
C36	C	-1.133865	0.049027	0.571936
C37	C	-1.133844	0.049003	0.428057
C38	C	-1.203272	-0.027706	0.356115
C39	C	-1.272712	-0.104385	0.428057
C40	C	-1.272723	-0.104355	0.571940
C41	C	-1.411570	-0.257767	0.428061
C42	C	-1.411587	-0.257751	0.571940
C43	C	-1.480998	-0.334475	0.356119
C44	C	-1.550433	-0.411163	0.428061
C45	C	-1.550451	-0.411137	0.571950
C46	C	-1.481027	-0.334431	0.643882
H47	H	-1.738935	0.254512	0.000066
H48	H	-1.077341	0.111484	0.630527
H49	H	-1.203308	-0.027635	0.761033
O50	O	-1.625305	-0.493899	0.350475
H51	H	-1.613621	-0.481035	0.238341
H52	H	-1.077302	0.111444	0.369482
O53	O	-1.625346	-0.493844	0.649545
H54	H	-1.673609	-0.547188	0.575343
H55	H	-1.129872	0.528073	-0.000062
O56	O	-1.203257	-0.027733	0.200930
H57	H	-1.143306	0.038471	0.162991
O58	O	-1.480977	-0.334514	0.200935
H59	H	-1.421018	-0.268320	0.162992
H60	H	-1.481032	-0.334405	0.761037
H61	H	-1.733239	0.492206	0.000032
O62	O	-1.555232	0.075161	0.000039
H63	H	-1.645232	0.052937	0.000049
H64	H	-1.543007	0.585160	-0.000008
O65	O	-0.917618	0.396873	-0.000063
H66	H	-0.932521	0.501374	-0.000061
H67	H	-1.141284	0.052704	-0.000014
O68	O	-0.924153	0.124557	-0.000049
H69	H	-0.850717	0.182198	-0.000052
