data_functionalizedCrystal
_audit_creation_method	'MofGen! by Chris Wilmer'
_symmetry_space_group_name_H-M	'P1'
_symmetry_Int_Tables_number	1
_symmetry_cell_setting	triclinic
loop_
_symmetry_equiv_pos_as_xyz
  x,y,z
_cell_length_a	16.974897
_cell_length_b	14.519731
_cell_length_c	15.455313
_cell_angle_alpha	92.669259
_cell_angle_beta	83.675220
_cell_angle_gamma	83.544620
loop_
_atom_site_label
_atom_site_type_symbol
_atom_site_fract_x
_atom_site_fract_y
_atom_site_fract_z
O1	O	1.056321	0.109422	-0.146205
O2	O	0.825362	0.125285	-0.130011
O3	O	0.946956	-0.016926	-0.138529
O4	O	0.934727	0.251633	-0.137687
O5	O	0.940002	-0.008827	0.006220
O6	O	0.818409	0.133384	0.014738
O7	O	1.049367	0.117521	-0.001456
Cu8	Cu	0.933253	0.126192	0.019858
Cu9	Cu	0.941476	0.116614	-0.151325
O10	O	0.927774	0.259732	0.007062
C11	C	0.792327	0.128879	-0.055564
C12	C	0.704253	0.127511	-0.049389
C13	C	0.666658	0.122457	-0.125384
C14	C	0.583901	0.121187	-0.119568
C15	C	0.538740	0.124966	-0.037757
C16	C	0.576340	0.130023	0.038244
C17	C	0.659096	0.131300	0.032427
C18	C	0.290832	0.121628	-0.011901
C19	C	0.208072	0.120349	-0.006091
C20	C	0.215638	0.111514	-0.163904
C21	C	0.298395	0.112785	-0.169713
C22	C	0.335987	0.117848	-0.093712
N23	N	0.454149	0.123665	-0.031811
N24	N	0.420576	0.119155	-0.099659
C25	C	0.942906	-0.047232	-0.066114
C26	C	0.941189	-0.149600	-0.065993
C27	C	0.939794	-0.232735	-0.065897
C28	C	0.938051	-0.337032	-0.065782
C29	C	0.936667	-0.420161	-0.065690
C30	C	0.934924	-0.524465	-0.065573
C31	C	1.082402	0.113927	-0.075905
C32	C	1.170477	0.115294	-0.082086
C33	C	0.931824	0.290038	-0.065355
C34	C	0.933541	0.392406	-0.065482
N35	N	0.927475	0.132928	0.140258
N36	N	0.947260	0.109871	-0.271726
C37	C	0.979150	0.072534	0.182032
C38	C	0.974788	0.077636	0.273146
C39	C	0.918754	0.143138	0.322483
C40	C	0.867073	0.203535	0.280703
C41	C	0.871432	0.198428	0.189591
C42	C	0.899939	0.165160	0.595383
C43	C	0.895585	0.170265	0.686500
C44	C	1.003300	0.044364	0.678937
C45	C	1.007657	0.039266	0.587824
C46	C	0.955974	0.099660	0.546052
N47	N	0.914295	0.148357	0.415616
N48	N	0.960429	0.094436	0.452921
H49	H	0.171301	0.123452	0.060533
H50	H	0.539564	0.133106	0.104856
H51	H	0.829352	0.247606	0.155580
H52	H	1.024783	0.019199	0.141867
O53	O	0.327444	0.126408	0.061863
C54	C	0.425305	0.053046	0.146302
C55	C	0.383917	0.047532	0.062714
H56	H	0.470960	-0.010726	0.147027
H57	H	0.456758	0.118357	0.148043
H58	H	0.378788	0.055564	0.205754
H59	H	0.430383	0.044977	0.003216
H60	H	0.352448	-0.017770	0.061050
H61	H	0.849953	0.223609	0.726667
O62	O	0.547513	0.116223	-0.193477
C63	C	0.563747	0.107628	-0.350619
C64	C	0.605058	0.113229	-0.266983
H65	H	0.610251	0.105225	-0.410070
H66	H	0.532378	0.042256	-0.352392
H67	H	0.518010	0.171331	-0.351304
H68	H	0.650830	0.049574	-0.266242
H69	H	0.636374	0.178641	-0.265243
H70	H	0.857857	0.214337	0.561379
O71	O	0.695497	0.136167	0.106335
C72	C	0.679258	0.144848	0.263477
C73	C	0.637937	0.139311	0.179845
H74	H	0.632738	0.147411	0.322931
H75	H	0.724950	0.081119	0.264263
H76	H	0.710679	0.210184	0.265147
H77	H	0.606472	0.074014	0.178119
H78	H	0.592289	0.203085	0.179092
O79	O	1.025078	0.018937	0.313584
C80	C	1.132363	-0.106491	0.296468
C81	C	1.075465	-0.040058	0.250561
H82	H	1.173105	-0.154218	0.245536
H83	H	1.170061	-0.064497	0.336294
H84	H	1.096001	-0.149985	0.341575
H85	H	1.111765	0.003451	0.205412
H86	H	1.037766	-0.082106	0.210791
O87	O	1.062110	-0.024448	0.540033
C88	C	1.168518	-0.148750	0.542148
C89	C	1.106873	-0.076656	0.596377
H90	H	1.204737	-0.190966	0.587677
H91	H	1.136281	-0.197121	0.501935
H92	H	1.210211	-0.111483	0.496671
H93	H	1.065162	-0.113844	0.641902
H94	H	1.139162	-0.028288	0.636531
O95	O	0.812711	0.267137	0.328756
C96	C	0.758229	0.330771	0.472469
C97	C	0.819843	0.258710	0.418157
H98	H	0.763963	0.323970	0.544760
H99	H	0.769527	0.403610	0.453869
H100	H	0.695538	0.318039	0.458978
H101	H	0.882558	0.271356	0.431619
H102	H	0.808475	0.185896	0.436765
H103	H	0.703422	0.119377	-0.192004
H104	H	0.185020	0.107394	-0.225779
O105	O	0.342138	0.109145	-0.249254
C106	C	0.340914	0.100175	-0.405169
C107	C	0.291276	0.104324	-0.315145
H108	H	0.299815	0.096256	-0.458466
H109	H	0.372672	0.165094	-0.411405
H110	H	0.387020	0.036030	-0.412279
H111	H	0.245129	0.168427	-0.307973
H112	H	0.259574	0.039361	-0.308949
H113	H	1.045377	-0.004807	0.712956
