data_functionalizedCrystal
_audit_creation_method	'MofGen! by Chris Wilmer'
_symmetry_space_group_name_H-M	'P1'
_symmetry_Int_Tables_number	1
_symmetry_cell_setting	triclinic
loop_
_symmetry_equiv_pos_as_xyz
  x,y,z
_cell_length_a	10.686220
_cell_length_b	16.120531
_cell_length_c	10.686551
_cell_angle_alpha	91.295135
_cell_angle_beta	90.307919
_cell_angle_gamma	82.921837
loop_
_atom_site_label
_atom_site_type_symbol
_atom_site_fract_x
_atom_site_fract_y
_atom_site_fract_z
Zn1	Zn	1.957884	0.203135	-0.579036
Zn2	Zn	2.291217	0.536469	-0.245702
Zn3	Zn	2.624550	0.869802	0.087631
Zn4	Zn	1.930960	0.353949	-0.381633
Zn5	Zn	2.264294	0.687282	-0.048300
Zn6	Zn	2.597627	1.020615	0.285033
Zn7	Zn	1.730491	0.224451	-0.387099
Zn8	Zn	2.063824	0.557784	-0.053765
Zn9	Zn	2.397157	0.891117	0.279568
Zn10	Zn	1.737510	0.352261	-0.607272
Zn11	Zn	2.070844	0.685594	-0.273939
Zn12	Zn	2.404177	1.018927	0.059394
O13	O	1.839211	0.283449	-0.488760
O14	O	2.172545	0.616782	-0.155427
O15	O	2.505878	0.950116	0.177907
O16	O	2.130437	0.214927	-0.538745
O17	O	2.463770	0.548260	-0.205412
O18	O	2.797103	0.881594	0.127921
O19	O	1.890162	0.346398	-0.207602
O20	O	2.223496	0.679731	0.125732
O21	O	2.556829	1.013064	0.459065
O22	O	1.768985	0.105019	-0.403030
O23	O	2.102318	0.438352	-0.069696
O24	O	2.435651	0.771685	0.263637
O25	O	2.110656	0.325729	-0.393715
O26	O	2.443990	0.659062	-0.060382
O27	O	2.777323	0.992396	0.272952
O28	O	1.936049	0.089358	-0.544045
O29	O	2.269383	0.422691	-0.210712
O30	O	2.602716	0.756025	0.122622
O31	O	1.742878	0.251256	-0.211617
O32	O	2.076212	0.584589	0.121716
O33	O	2.409545	0.917923	0.455050
O34	O	1.555298	0.249619	-0.430410
O35	O	1.888631	0.582952	-0.097076
O36	O	2.221964	0.916286	0.236257
O37	O	1.780948	0.322852	-0.778283
O38	O	2.114282	0.656185	-0.444950
O39	O	2.447615	0.989518	-0.111617
O40	O	1.560455	0.343520	-0.592170
O41	O	1.893788	0.676854	-0.258837
O42	O	2.227121	1.010187	0.074497
O43	O	1.942856	0.213290	-0.757538
O44	O	2.276189	0.546623	-0.424205
O45	O	2.609523	0.879957	-0.090871
O46	O	1.896969	0.470329	-0.421095
O47	O	2.230302	0.803663	-0.087761
O48	O	2.563636	1.136996	0.245572
O49	O	1.754842	0.469089	-0.586871
O50	O	2.088175	0.802423	-0.253537
O51	O	2.421509	1.135756	0.079796
C52	C	1.512209	0.298700	-0.514948
C53	C	1.845542	0.632033	-0.181614
C54	C	2.178876	0.965367	0.151719
C55	C	1.372317	0.305243	-0.526182
C56	C	1.705650	0.638577	-0.192849
C57	C	2.038984	0.971910	0.140484
C58	C	1.823782	0.499941	-0.506478
C59	C	2.157115	0.833274	-0.173145
C60	C	2.490449	1.166607	0.160189
C61	C	1.817300	0.592549	-0.514091
C62	C	2.150633	0.925882	-0.180757
C63	C	2.483966	1.259216	0.152576
C64	C	1.805474	0.762104	-0.528014
C65	C	2.138808	1.095437	-0.194681
C66	C	2.472141	1.428771	0.138653
C67	C	1.872990	0.803955	-0.449432
C68	C	2.206323	1.137288	-0.116098
C69	C	2.539657	1.470622	0.217235
C70	C	1.866410	0.898301	-0.457179
C71	C	2.199743	1.231635	-0.123845
C72	C	2.533077	1.564968	0.209488
C73	C	1.812052	0.667749	-0.520269
C74	C	2.145386	1.001082	-0.186935
C75	C	2.478719	1.334416	0.146398
C76	C	2.167490	0.268139	-0.462471
C77	C	2.500824	0.601472	-0.129137
C78	C	2.834157	0.934805	0.204196
C79	C	2.307383	0.261614	-0.451268
C80	C	2.640717	0.594948	-0.117935
C81	C	2.974050	0.928281	0.215399
C82	C	1.865688	0.265505	-0.814490
C83	C	2.199022	0.598838	-0.481157
C84	C	2.532355	0.932172	-0.147823
C85	C	1.876971	0.257858	-0.953297
C86	C	2.210305	0.591192	-0.619964
C87	C	2.543638	0.924525	-0.286630
C88	C	1.854691	1.066112	-0.470978
C89	C	2.188024	1.399445	-0.137645
C90	C	2.521357	1.732779	0.195689
C91	C	1.861168	0.973505	-0.463351
C92	C	2.194501	1.306838	-0.130017
C93	C	2.527835	1.640171	0.203316
C94	C	1.812914	0.301260	-0.164286
C95	C	2.146247	0.634593	0.169047
C96	C	2.479580	0.967926	0.502380
C97	C	1.801891	0.308660	-0.025442
C98	C	2.135225	0.641993	0.307892
C99	C	2.468558	0.975327	0.641225
H100	H	1.935732	0.768929	-0.376336
H101	H	2.269066	1.102262	-0.043003
H102	H	2.602399	1.435595	0.290330
O103	O	1.304209	0.361350	-0.622538
O104	O	1.637542	0.694684	-0.289204
O105	O	1.970876	1.028017	0.044129
H106	H	1.201337	0.357851	-0.616548
H107	H	1.534670	0.691184	-0.283215
H108	H	1.868003	1.024518	0.050119
O109	O	1.375498	0.205499	-0.354914
O110	O	1.708831	0.538832	-0.021581
O111	O	2.042164	0.872165	0.311752
H112	H	1.478372	0.208987	-0.360915
H113	H	1.811705	0.542320	-0.027581
H114	H	2.145039	0.875653	0.305752
O115	O	1.722340	0.808492	-0.624814
O116	O	2.055674	1.141825	-0.291481
O117	O	2.389007	1.475158	0.041853
H118	H	1.730140	0.876390	-0.615763
H119	H	2.063473	1.209724	-0.282429
H120	H	2.396807	1.543057	0.050904
O121	O	1.705299	0.374022	-0.966611
O122	O	2.038633	0.707355	-0.633278
O123	O	2.371966	1.040688	-0.299945
H124	H	1.711287	0.369968	-0.863163
H125	H	2.044621	0.703301	-0.529830
H126	H	2.377954	1.036634	-0.196496
H127	H	1.949892	0.208515	-0.997728
H128	H	2.283226	0.541848	-0.664394
H129	H	2.616559	0.875181	-0.331061
