data_functionalizedCrystal
_audit_creation_method	'MofGen! by Chris Wilmer'
_symmetry_space_group_name_H-M	'P1'
_symmetry_Int_Tables_number	1
_symmetry_cell_setting	triclinic
loop_
_symmetry_equiv_pos_as_xyz
  x,y,z
_cell_length_a	17.699083
_cell_length_b	9.616153
_cell_length_c	17.699083
_cell_angle_alpha	89.996845
_cell_angle_beta	96.716985
_cell_angle_gamma	90.000830
loop_
_atom_site_label
_atom_site_type_symbol
_atom_site_fract_x
_atom_site_fract_y
_atom_site_fract_z
O1	O	1.004079	0.115453	-0.095708
O2	O	0.783700	0.115499	-0.108161
O3	O	0.900116	0.115463	0.008255
O4	O	0.887663	0.115490	-0.212124
O5	O	0.900100	-0.115829	0.008252
O6	O	0.783684	-0.115792	-0.108163
O7	O	1.004063	-0.115838	-0.095711
Zn8	Zn	0.893871	-0.152538	-0.101937
Zn9	Zn	0.893892	0.152199	-0.101934
O10	O	0.887647	-0.115801	-0.212126
C11	C	0.755495	-0.000141	-0.107716
C12	C	0.671477	-0.000123	-0.106377
N13	N	0.893862	-0.360512	-0.101939
C14	C	0.622856	-0.000115	-0.174710
C15	C	0.543913	-0.000134	-0.173448
C16	C	0.513592	-0.000150	-0.103852
C17	C	0.562219	-0.000162	-0.035513
C18	C	0.641161	-0.000154	-0.036776
C19	C	0.243856	-0.000197	-0.030418
C20	C	0.164908	-0.000201	-0.029160
C21	C	0.146608	-0.000177	-0.167090
C22	C	0.225550	-0.000169	-0.168353
C23	C	0.274170	-0.000188	-0.100015
C24	C	0.359769	-0.000171	-0.101384
C25	C	0.427995	-0.000157	-0.102481
C26	C	0.831402	-0.580862	-0.164009
C27	C	0.831535	-0.419695	-0.164238
C28	C	0.972805	-0.418976	-0.119044
C29	C	0.972464	-0.580193	-0.119482
C30	C	0.878170	-0.580429	-0.022555
C31	C	0.876348	-0.419202	-0.023090
C32	C	1.032268	-0.000195	-0.096156
C33	C	1.116286	-0.000203	-0.097494
C34	C	0.899662	-0.000183	0.036451
C35	C	0.898323	-0.000183	0.120469
N36	N	0.893907	0.360173	-0.101926
C37	C	0.888102	-0.000153	-0.240322
C38	C	0.889440	-0.000143	-0.324340
C39	C	0.966656	-0.000199	0.169090
C40	C	0.965394	-0.000187	0.248033
C41	C	0.895798	-0.000168	0.278354
C42	C	0.827459	-0.000148	0.229727
C43	C	0.828722	-0.000150	0.150785
C44	C	0.822364	-0.000135	0.548090
C45	C	0.821106	-0.000137	0.627038
C46	C	0.959036	-0.000172	0.645338
C47	C	0.960299	-0.000175	0.566396
C48	C	0.891961	-0.000147	0.517776
C49	C	0.893330	-0.000158	0.432177
C50	C	0.894427	-0.000167	0.363951
H51	H	0.647537	-0.000101	-0.231384
H52	H	0.283434	-0.000214	0.025228
F53	F	0.529948	-0.000188	0.038557
H54	H	0.766718	-0.000113	0.508512
H55	H	0.772851	-0.380169	-0.154068
H56	H	0.818278	-0.380991	-0.010106
H57	H	0.918923	-0.378921	0.025261
F58	F	0.937750	-0.630268	0.037830
F59	F	0.991394	-0.366180	-0.193836
H60	H	0.764429	-0.000124	0.651721
H61	H	0.107012	-0.000168	-0.222734
F62	F	0.132641	-0.000219	0.044918
F63	F	1.034373	-0.000193	0.534131
H64	H	0.821868	-0.621157	-0.006070
H65	H	1.023330	-0.000223	0.144409
H66	H	0.680748	-0.000159	0.018868
H67	H	0.770792	-0.000124	0.254420
H68	H	1.020417	-0.380638	-0.075024
H69	H	1.021038	-0.000203	0.287618
F70	F	0.754450	-0.631550	-0.150928
H71	H	1.014680	-0.000187	0.684934
H72	H	0.773078	-0.000137	0.111198
H73	H	0.250232	-0.000149	-0.225025
F74	F	0.492170	-0.000119	-0.246178
H75	H	0.841296	-0.621356	-0.222581
H76	H	0.841565	-0.381111	-0.223142
F77	F	0.990617	-0.629323	-0.195136
H78	H	1.020420	-0.619196	-0.076039
