data_functionalizedCrystal
_audit_creation_method	'MofGen! by Chris Wilmer'
_symmetry_space_group_name_H-M	'P1'
_symmetry_Int_Tables_number	1
_symmetry_cell_setting	triclinic
loop_
_symmetry_equiv_pos_as_xyz
  x,y,z
_cell_length_a	10.723023
_cell_length_b	10.723024
_cell_length_c	9.798715
_cell_angle_alpha	90.001967
_cell_angle_beta	90.003303
_cell_angle_gamma	84.467709
loop_
_atom_site_label
_atom_site_type_symbol
_atom_site_fract_x
_atom_site_fract_y
_atom_site_fract_z
O1	O	1.657187	0.175020	0.113483
O2	O	1.294035	0.191774	0.113487
O3	O	1.483988	0.001821	0.113480
O4	O	1.467235	0.364973	0.113490
O5	O	1.483975	0.001820	-0.113502
O6	O	1.294022	0.191774	-0.113495
O7	O	1.657174	0.175019	-0.113499
Zn8	Zn	1.475596	0.183396	-0.149535
Zn9	Zn	1.475613	0.183397	0.149523
O10	O	1.467221	0.364973	-0.113492
C11	C	1.247529	0.190555	-0.000004
C12	C	1.108974	0.186908	-0.000003
C13	C	0.903999	0.181512	-0.117581
C14	C	1.047203	0.185281	-0.117585
C15	C	1.482762	-0.044679	-0.000009
C16	C	1.479114	-0.183233	-0.000005
C17	C	1.585402	-0.258216	-0.000004
C18	C	1.581634	-0.401420	0.000001
C19	C	1.703680	0.176239	-0.000005
C20	C	1.842235	0.179886	0.000003
C21	C	1.468447	0.411473	0.000001
C22	C	1.472095	0.550027	0.000005
N23	N	1.475593	0.183395	-0.353635
C24	C	1.402844	0.111032	-0.421446
C25	C	1.402861	0.111027	-0.578608
N26	N	1.475626	0.183388	0.353623
H27	H	0.895372	0.181292	0.100668
O28	O	1.351549	-0.364649	-0.000005
H29	H	1.347749	-0.304673	0.092510
H30	H	1.385328	-0.225055	0.000005
O31	O	1.709643	-0.202839	-0.000006
H32	H	1.693106	-0.099051	-0.000018
O33	O	1.038652	0.185047	0.133368
H34	H	0.968944	0.268395	0.139228
H35	H	1.340543	0.049086	-0.363149
H36	H	1.537882	0.245352	-0.411932
H37	H	1.340581	0.049071	-0.636924
O38	O	1.558127	0.265466	-0.569147
H39	H	1.657612	0.238973	-0.596464
O40	O	0.833535	0.180454	-0.250933
H41	H	0.732066	0.178067	-0.230002
H42	H	1.672625	-0.465852	-0.000004
O43	O	1.117543	0.187140	-0.250944
H44	H	1.218980	0.189821	-0.230020
