data_functionalizedCrystal
_audit_creation_method	'MofGen! by Chris Wilmer'
_symmetry_space_group_name_H-M	'P1'
_symmetry_Int_Tables_number	1
_symmetry_cell_setting	triclinic
loop_
_symmetry_equiv_pos_as_xyz
  x,y,z
_cell_length_a	19.288864
_cell_length_b	23.532407
_cell_length_c	18.366186
_cell_angle_alpha	89.989089
_cell_angle_beta	89.977106
_cell_angle_gamma	82.992461
loop_
_atom_site_label
_atom_site_type_symbol
_atom_site_fract_x
_atom_site_fract_y
_atom_site_fract_z
O1	O	0.921134	0.071045	-0.060790
O2	O	1.421134	0.571045	0.439210
O3	O	0.718843	0.080629	-0.060742
O4	O	1.218843	0.580629	0.439258
O5	O	0.826089	-0.007082	-0.060754
O6	O	1.326089	0.492918	0.439246
O7	O	0.813889	0.158756	-0.060778
O8	O	1.313889	0.658756	0.439222
O9	O	0.826071	-0.007086	0.060345
O10	O	1.326071	0.492914	0.560345
O11	O	0.718825	0.080625	0.060358
O12	O	1.218825	0.580625	0.560358
O13	O	0.921116	0.071041	0.060309
O14	O	1.421116	0.571041	0.560309
Zn15	Zn	0.819968	0.075832	0.079560
Zn16	Zn	1.319968	0.575832	0.579560
Zn17	Zn	0.819991	0.075838	-0.079993
Zn18	Zn	1.319991	0.575838	0.420007
O19	O	0.813870	0.158752	0.060321
O20	O	1.313870	0.658752	0.560321
C21	C	0.692959	0.080319	-0.000186
C22	C	1.192959	0.580319	0.499814
C23	C	0.615858	0.079393	-0.000166
C24	C	1.115858	0.579393	0.499834
C25	C	0.571003	0.130858	-0.000185
C26	C	1.071003	0.630858	0.499815
C27	C	0.498559	0.129988	-0.000193
C28	C	0.998559	0.629988	0.499807
C29	C	0.470973	0.077651	-0.000197
C30	C	0.970973	0.577651	0.499803
C31	C	0.515838	0.026179	-0.000174
C32	C	1.015838	0.526179	0.499826
C33	C	0.588280	0.027050	-0.000159
C34	C	1.088280	0.527050	0.499841
C35	C	0.362844	0.036509	-0.042642
C36	C	0.862844	0.536509	0.457358
C37	C	0.290402	0.035640	-0.042662
C38	C	0.790402	0.535640	0.457338
C39	C	0.247535	0.074961	-0.000240
C40	C	0.747535	0.574961	0.499760
C41	C	0.277118	0.115162	0.042191
C42	C	0.777118	0.615162	0.542191
C43	C	0.349561	0.116033	0.042206
C44	C	0.849561	0.616033	0.542206
C45	C	0.392422	0.076700	-0.000213
C46	C	0.892422	0.576700	0.499787
C47	C	0.124127	0.125487	-0.000267
C48	C	0.624127	0.625487	0.499733
C49	C	0.051682	0.124615	-0.000270
C50	C	0.551682	0.624615	0.499730
C51	C	0.068962	0.020805	-0.000258
C52	C	0.568962	0.520805	0.499742
C53	C	0.141406	0.021678	-0.000248
C54	C	0.641406	0.521678	0.499752
C55	C	0.168984	0.074021	-0.000255
C56	C	0.668984	0.574021	0.499745
C57	C	0.825769	-0.028301	-0.000203
C58	C	1.325769	0.471699	0.499797
C59	C	0.824835	-0.091520	-0.000197
C60	C	1.324835	0.408480	0.499803
C61	C	0.882442	-0.490503	-0.000251
C62	C	1.382442	0.009497	0.499749
C63	C	0.881574	-0.549905	-0.000256
C64	C	1.381574	-0.049905	0.499744
O65	O	0.934976	-0.586539	-0.000296
O66	O	1.434976	-0.086539	0.499704
N67	N	0.817817	-0.572664	-0.000240
N68	N	1.317817	-0.072664	0.499760
C69	C	0.754923	-0.536017	-0.000226
C70	C	1.254923	-0.036017	0.499774
O71	O	0.700613	-0.560829	-0.000214
O72	O	1.200613	-0.060829	0.499786
C73	C	0.755792	-0.476616	-0.000226
C74	C	1.255792	0.023384	0.499774
C75	C	0.819553	-0.453861	-0.000235
C76	C	1.319553	0.046139	0.499765
C77	C	0.946198	-0.467748	-0.000260
C78	C	1.446198	0.032252	0.499740
C79	C	0.947065	-0.408350	-0.000253
C80	C	1.447065	0.091650	0.499747
C81	C	0.884177	-0.371707	-0.000237
C82	C	1.384177	0.128293	0.499763
C83	C	0.820420	-0.394463	-0.000228
C84	C	1.320420	0.105537	0.499772
C85	C	0.692899	-0.439970	-0.000217
C86	C	1.192899	0.060030	0.499783
C87	C	0.693773	-0.380565	-0.000218
C88	C	1.193773	0.119435	0.499782
C89	C	0.757534	-0.357810	-0.000226
C90	C	1.257534	0.142190	0.499774
C91	C	0.758399	-0.298422	-0.000205
C92	C	1.258399	0.201578	0.499795
N93	N	0.822156	-0.275664	-0.000221
N94	N	1.322156	0.224336	0.499779
C95	C	0.885045	-0.312307	-0.000237
C96	C	1.385045	0.187693	0.499763
C97	C	0.753104	-0.660763	-0.000228
C98	C	1.253104	-0.160763	0.499772
C99	C	0.752235	-0.720163	-0.000223
C100	C	1.252235	-0.220163	0.499777
C101	C	0.878886	-0.734047	-0.000254
C102	C	1.378886	-0.234047	0.499746
C103	C	0.879755	-0.674647	-0.000254
C104	C	1.379755	-0.174647	0.499746
C105	C	0.816861	-0.638005	-0.000244
C106	C	1.316861	-0.138005	0.499756
C107	C	0.886862	-0.187566	-0.000222
C108	C	1.386862	0.312434	0.499778
C109	C	0.887724	-0.128162	-0.000213
C110	C	1.387724	0.371838	0.499787
C111	C	0.761073	-0.114283	-0.000185
C112	C	1.261073	0.385717	0.499815
C113	C	0.760211	-0.173681	-0.000191
C114	C	1.260211	0.326319	0.499809
C115	C	0.823111	-0.210322	-0.000212
C116	C	1.323111	0.289678	0.499788
O117	O	0.705025	-0.261754	-0.000168
O118	O	1.205025	0.238246	0.499832
O119	O	0.939346	-0.287486	-0.000259
O120	O	1.439346	0.212514	0.499741
C121	C	0.947000	0.071351	-0.000249
C122	C	1.447000	0.571351	0.499751
C123	C	1.024101	0.072277	-0.000273
C124	C	1.524101	0.572277	0.499727
C125	C	0.814190	0.179971	-0.000232
C126	C	1.314190	0.679971	0.499768
C127	C	0.815124	0.243190	-0.000242
C128	C	1.315124	0.743190	0.499758
N129	N	0.819956	0.075828	0.188452
N130	N	1.319956	0.575828	0.688452
N131	N	0.820008	0.075837	-0.188884
N132	N	1.320008	0.575837	0.311116
C133	C	0.867460	0.037009	0.226546
C134	C	1.367460	0.537009	0.726546
C135	C	0.867464	0.037006	0.302774
C136	C	1.367464	0.537006	0.802774
C137	C	0.819972	0.075833	0.340904
C138	C	1.319972	0.575833	0.840904
C139	C	0.772459	0.114655	0.302800
C140	C	1.272459	0.614655	0.802800
C141	C	0.772452	0.114653	0.226574
C142	C	1.272452	0.614653	0.726574
C143	C	0.810514	0.127724	0.461659
C144	C	1.310514	0.627724	0.961659
C145	C	0.810526	0.127727	0.537884
C146	C	1.310526	0.627727	1.037884
C147	C	0.819991	0.075840	0.576012
C148	C	1.319991	0.575840	1.076012
C149	C	0.829459	0.023947	0.537906
C150	C	1.329459	0.523947	1.037906
C151	C	0.829451	0.023945	0.461679
C152	C	1.329451	0.523945	0.961679
C153	C	0.819975	0.075839	0.423559
C154	C	1.319975	0.575839	0.923559
C155	C	0.867502	0.037014	0.696762
C156	C	1.367502	0.537014	1.196762
C157	C	0.867502	0.037011	0.772991
C158	C	1.367502	0.537011	1.272991
C159	C	0.772500	0.114665	0.773015
C160	C	1.272500	0.614665	1.273015
C161	C	0.772497	0.114663	0.696788
C162	C	1.272497	0.614663	1.196788
C163	C	0.820002	0.075839	0.658665
C164	C	1.320002	0.575839	1.158665
H165	H	0.046503	-0.021810	-0.000307
H166	H	0.546503	0.478190	0.499693
H167	H	0.462031	0.171898	-0.000206
H168	H	0.962031	0.671898	0.499794
H169	H	0.624802	-0.014860	-0.000144
H170	H	1.124802	0.485140	0.499856
H171	H	0.939648	-0.109639	-0.000218
H172	H	1.439648	0.390361	0.499782
H173	H	0.906139	0.005394	0.195509
H174	H	1.406139	0.505394	0.695509
C175	C	0.190749	-0.034938	-0.000235
C176	C	0.690749	0.465062	0.499765
N177	N	0.227914	-0.077584	-0.000225
N178	N	0.727914	0.422416	0.499775
C179	C	0.229970	0.158417	0.088861
C180	C	0.729970	0.658417	0.588861
N181	N	0.194455	0.190996	0.124011
N182	N	0.694455	0.690996	0.624011
H183	H	0.931675	-0.656124	-0.000261
H184	H	1.431675	-0.156124	0.499739
C185	C	0.154465	0.183064	-0.000266
C186	C	0.654465	0.683064	0.499734
N187	N	0.177314	0.226432	-0.000264
N188	N	0.677314	0.726432	0.499736
H189	H	0.266322	0.002909	-0.077215
H190	H	0.766322	0.502909	0.422785
C191	C	0.839856	-0.033136	0.419766
C192	C	1.339856	0.466864	0.919766
N193	N	0.847689	-0.076130	0.388196
N194	N	1.347689	0.423870	0.888196
H195	H	0.998986	-0.389829	-0.000263
H196	H	1.498986	0.110171	0.499737
C197	C	0.690070	-0.198712	-0.000177
C198	C	1.190070	0.301288	0.499823
N199	N	0.637239	-0.217561	-0.000174
N200	N	1.137239	0.282439	0.499826
C201	C	0.382099	0.160247	0.088888
C202	C	0.882099	0.660247	0.588888
N203	N	0.406608	0.193547	0.124052
N204	N	0.906608	0.693547	0.624052
C205	C	1.015387	-0.508047	-0.000270
C206	C	1.515387	-0.008047	0.499730
N207	N	1.067505	-0.538396	-0.000269
N208	N	1.567505	-0.038396	0.499731
C209	C	0.601334	0.188436	-0.000179
C210	C	1.101334	0.688436	0.499821
N211	N	0.624181	0.231805	-0.000170
N212	N	1.124181	0.731805	0.499830
H213	H	0.709871	-0.084438	-0.000170
H214	H	1.209871	0.415562	0.499830
C215	C	0.720289	0.157410	0.654882
C216	C	1.220289	0.657410	1.154882
N217	N	0.680979	0.189621	0.623318
N218	N	1.180979	0.689621	1.123318
H219	H	0.015161	0.166526	-0.000281
H220	H	0.515161	0.666526	0.499719
C221	C	0.919752	-0.005698	0.654824
C222	C	1.419752	0.494302	1.154824
N223	N	0.959105	-0.037871	0.623239
N224	N	1.459105	0.462129	1.123239
H225	H	0.733828	0.146276	0.804060
H226	H	1.233828	0.646276	1.304060
C227	C	0.919731	-0.005694	0.344687
C228	C	1.419731	0.494306	0.844687
N229	N	0.959101	-0.037854	0.376254
N230	N	1.459101	0.462146	0.876254
H231	H	0.802821	0.169981	0.568904
H232	H	1.302821	0.669981	1.068904
H233	H	0.397741	0.004488	-0.077191
H234	H	0.897741	0.504488	0.422809
C235	C	0.839870	-0.033133	0.579841
C236	C	1.339870	0.466867	1.079841
N237	N	0.847712	-0.076125	0.611430
N238	N	1.347712	0.423875	1.111430
H239	H	0.493372	-0.016435	-0.000187
H240	H	0.993372	0.483565	0.499813
H241	H	0.906183	0.005397	0.804008
H242	H	1.406183	0.505397	1.304008
H243	H	0.938081	-0.217393	-0.000242
H244	H	1.438081	0.282607	0.499758
C245	C	0.683912	-0.620461	-0.000207
C246	C	1.183912	-0.120461	0.499793
N247	N	0.631796	-0.590108	-0.000192
N248	N	1.131796	-0.090108	0.499808
C249	C	0.622755	-0.464986	-0.000213
C250	C	1.122755	0.035014	0.499787
N251	N	0.569919	-0.483827	-0.000212
N252	N	1.069919	0.016173	0.499788
H253	H	0.802794	0.169979	0.430621
H254	H	1.302794	0.669979	0.930621
H255	H	0.700314	-0.738684	-0.000203
H256	H	1.200314	-0.238684	0.499797
H257	H	0.733789	0.146267	0.333850
H258	H	1.233789	0.646267	0.833850
H259	H	0.930094	-0.763893	-0.000269
H260	H	1.430094	-0.263893	0.499731
H261	H	0.642556	-0.350733	-0.000211
H262	H	1.142556	0.149267	0.499789
H263	H	0.733768	0.146265	0.195556
H264	H	1.233768	0.646265	0.695556
