data_functionalizedCrystal
_audit_creation_method	'MofGen! by Chris Wilmer'
_symmetry_space_group_name_H-M	'P1'
_symmetry_Int_Tables_number	1
_symmetry_cell_setting	triclinic
loop_
_symmetry_equiv_pos_as_xyz
  x,y,z
_cell_length_a	10.489746
_cell_length_b	10.489741
_cell_length_c	15.072220
_cell_angle_alpha	89.999236
_cell_angle_beta	89.990392
_cell_angle_gamma	84.540238
loop_
_atom_site_label
_atom_site_type_symbol
_atom_site_fract_x
_atom_site_fract_y
_atom_site_fract_z
O1	O	1.694066	0.179991	-0.073722
O2	O	1.322871	0.196877	-0.073737
O3	O	1.516914	0.002836	-0.073724
O4	O	1.500022	0.374032	-0.073735
O5	O	1.516866	0.002847	0.073841
O6	O	1.322822	0.196888	0.073828
O7	O	1.694017	0.180002	0.073843
Zn8	Zn	1.508412	0.188446	0.097265
Zn9	Zn	1.508476	0.188432	-0.097159
O10	O	1.499973	0.374042	0.073830
C11	C	1.275315	0.195606	0.000044
C12	C	1.133686	0.191786	0.000038
C13	C	0.980828	0.066062	0.000054
C14	C	1.058198	0.128924	0.072807
C15	C	1.058201	0.128943	-0.072680
C16	C	0.958706	0.247906	0.072873
C17	C	0.958704	0.247907	-0.072680
C18	C	1.036025	0.310856	0.000091
C19	C	1.515614	-0.044690	0.000058
C20	C	1.511797	-0.186320	0.000056
C21	C	1.388333	-0.254462	0.000045
C22	C	1.446633	-0.346578	0.072804
C23	C	1.446709	-0.346563	-0.072683
C24	C	1.570148	-0.276570	0.072876
C25	C	1.570207	-0.276546	-0.072677
C26	C	1.628597	-0.368635	0.000100
C27	C	1.741573	0.181273	0.000060
C28	C	1.883202	0.185093	0.000060
C29	C	1.501273	0.421569	0.000046
C30	C	1.505091	0.563198	0.000042
N31	N	1.508378	0.188455	0.229953
N32	N	1.508520	0.188414	-0.229848
C33	C	1.508473	0.188427	0.589155
C34	C	1.404289	0.291900	0.551541
C35	C	1.404534	0.292284	0.448715
C36	C	1.508425	0.188441	0.410951
C37	C	1.641789	0.218736	0.448246
C38	C	1.641206	0.219473	0.551104
C39	C	1.480478	0.054361	0.551258
C40	C	1.477432	0.055226	0.448394
C41	C	1.508406	0.188446	0.310237
C42	C	1.508501	0.188425	0.689868
H43	H	1.394372	-0.377586	0.134313
H44	H	0.915224	0.298106	-0.134195
H45	H	1.101664	0.078668	-0.134189
H46	H	1.730200	-0.418057	0.000145
C47	C	1.377046	-0.388127	-0.154629
C48	C	1.375364	-0.521428	-0.153948
C49	C	1.311177	-0.559754	-0.229410
H50	H	1.420015	-0.363114	-0.206358
H51	H	1.291660	-0.348727	-0.154540
H52	H	1.460734	-0.560814	-0.154045
H53	H	1.332386	-0.546475	-0.102235
H54	H	1.225791	-0.520354	-0.229322
H55	H	1.354153	-0.534733	-0.281134
H56	H	1.310017	-0.650201	-0.228955
H57	H	1.385275	0.025534	0.577245
C58	C	1.252957	-0.188317	0.000315
C59	C	1.188880	-0.223602	0.076672
C60	C	1.064181	-0.162680	0.076961
H61	H	1.208513	-0.213236	-0.050790
H62	H	1.256280	-0.098126	-0.000165
H63	H	1.185551	-0.313773	0.077143
H64	H	1.233286	-0.198681	0.127789
H65	H	1.067504	-0.072489	0.076481
H66	H	1.019749	-0.187603	0.025853
H67	H	1.020693	-0.186602	0.128772
H68	H	1.622323	-0.245733	0.134457
C69	C	1.346715	0.024554	0.415723
C70	C	1.346823	0.020383	0.322874
C71	C	1.226432	-0.007875	0.292741
H72	H	1.283210	0.088919	0.435442
H73	H	1.328490	-0.056171	0.438538
H74	H	1.365032	0.101098	0.300068
H75	H	1.410301	-0.043982	0.303131
H76	H	1.208208	-0.088601	0.315556
H77	H	1.162937	0.056493	0.312466
H78	H	1.226493	-0.010721	0.229741
H79	H	1.666825	0.315440	0.422475
H80	H	1.548291	-0.025476	0.422691
C81	C	1.673800	0.349994	0.582910
C82	C	1.693840	0.427444	0.509516
C83	C	1.723849	0.547697	0.538776
H84	H	1.749331	0.340111	0.617974
H85	H	1.605011	0.388925	0.617472
H86	H	1.762623	0.388522	0.474969
H87	H	1.618324	0.437364	0.474445
H88	H	1.655060	0.586628	0.573338
H89	H	1.799378	0.537801	0.573840
H90	H	1.737438	0.600266	0.488984
H91	H	1.556440	-0.022654	0.575581
H92	H	1.622424	-0.245505	-0.134189
H93	H	1.721219	0.147146	0.575984
C94	C	1.272299	0.268043	0.415262
C95	C	1.191463	0.252907	0.487663
C96	C	1.069629	0.230599	0.456885
H97	H	1.278428	0.192512	0.380147
H98	H	1.238347	0.338730	0.380395
H99	H	1.225408	0.182227	0.522515
H100	H	1.185296	0.328426	0.522784
H101	H	1.035676	0.301285	0.422018
H102	H	1.075771	0.155069	0.421771
H103	H	1.014764	0.220338	0.506004
C104	C	1.068494	0.449022	-0.000002
C105	C	1.015893	0.511456	-0.075520
C106	C	1.045768	0.638735	-0.075625
H107	H	1.158851	0.450861	-0.000541
H108	H	1.034058	0.491179	0.051691
H109	H	1.050334	0.469310	-0.127200
H110	H	0.925536	0.509652	-0.074997
H111	H	1.011332	0.680893	-0.023932
H112	H	1.136126	0.640561	-0.076162
H113	H	1.010073	0.681116	-0.126859
H114	H	1.304879	0.273951	0.576299
H115	H	1.422052	0.390802	0.577377
H116	H	0.956107	-0.037439	0.000131
C117	C	0.901023	0.315100	0.154911
C118	C	0.929515	0.442816	0.154989
C119	C	0.876380	0.504751	0.230541
H120	H	0.935898	0.273281	0.206580
H121	H	0.810762	0.312317	0.154430
H122	H	1.019757	0.445593	0.155478
H123	H	0.894639	0.484671	0.103337
H124	H	0.786120	0.501968	0.230060
H125	H	0.911259	0.462922	0.282204
H126	H	0.895694	0.591416	0.230601
C127	C	1.747727	0.120887	0.415799
C128	C	1.808027	0.058332	0.488734
C129	C	1.905610	-0.031826	0.458876
H130	H	1.808633	0.163054	0.382972
H131	H	1.712103	0.059975	0.378906
H132	H	1.843652	0.119235	0.525612
H133	H	1.747156	0.016139	0.521569
H134	H	1.869986	-0.092738	0.421983
H135	H	1.966506	0.010352	0.426048
H136	H	1.946528	-0.074288	0.508357
C137	C	1.428363	0.425016	0.416010
C138	C	1.331314	0.514563	0.447395
C139	C	1.353239	0.636855	0.417297
H140	H	1.428563	0.425908	0.352991
H141	H	1.508868	0.446347	0.437340
H142	H	1.250830	0.493238	0.426061
H143	H	1.331097	0.513711	0.510411
H144	H	1.433744	0.658185	0.438627
H145	H	1.353441	0.637733	0.354278
H146	H	1.287403	0.697628	0.438594
H147	H	1.101654	0.078680	0.134319
