data_functionalizedCrystal
_audit_creation_method	'MofGen! by Chris Wilmer'
_symmetry_space_group_name_H-M	'P1'
_symmetry_Int_Tables_number	1
_symmetry_cell_setting	triclinic
loop_
_symmetry_equiv_pos_as_xyz
  x,y,z
_cell_length_a	17.077404
_cell_length_b	17.077402
_cell_length_c	17.077396
_cell_angle_alpha	89.970216
_cell_angle_beta	90.021444
_cell_angle_gamma	89.978870
loop_
_atom_site_label
_atom_site_type_symbol
_atom_site_fract_x
_atom_site_fract_y
_atom_site_fract_z
Zn1	Zn	1.200055	0.312545	0.443876
Zn2	Zn	1.700055	0.812545	0.943876
Zn3	Zn	1.199962	0.443820	0.312607
Zn4	Zn	1.699962	0.943820	0.812607
Zn5	Zn	1.068786	0.312568	0.312620
Zn6	Zn	1.568786	0.812568	0.812620
Zn7	Zn	1.068754	0.443769	0.443826
Zn8	Zn	1.568754	0.943769	0.943826
O9	O	1.134389	0.378175	0.378232
O10	O	1.634389	0.878175	0.878232
O11	O	1.309889	0.329970	0.426479
O12	O	1.809889	0.829970	0.926479
O13	O	1.182536	0.426440	0.202762
O14	O	1.682536	0.926440	0.702762
O15	O	1.086252	0.202718	0.330057
O16	O	1.586252	0.702718	0.830057
O17	O	1.309821	0.426418	0.330036
O18	O	1.809821	0.926418	0.830036
O19	O	1.182694	0.202701	0.426491
O20	O	1.682694	0.702701	0.926491
O21	O	1.086162	0.330010	0.202771
O22	O	1.586162	0.830010	0.702771
O23	O	0.958935	0.329960	0.330009
O24	O	1.458935	0.829960	0.830009
O25	O	1.086197	0.426330	0.553680
O26	O	1.586197	0.926330	1.053680
O27	O	0.958912	0.426353	0.426406
O28	O	1.458912	0.926353	0.926406
O29	O	1.182663	0.329921	0.553717
O30	O	1.682663	0.829921	1.053717
O31	O	1.182505	0.553660	0.329988
O32	O	1.682505	1.053660	0.829988
O33	O	1.086107	0.553622	0.426394
O34	O	1.586107	1.053622	0.926394
C35	C	0.930441	0.378154	0.378204
C36	C	1.430441	0.878154	0.878204
C37	C	0.843192	0.378164	0.378210
C38	C	1.343192	0.878164	0.878210
C39	C	1.134314	0.582123	0.378201
C40	C	1.634314	1.082123	0.878201
C41	C	1.134353	0.669373	0.378214
C42	C	1.634353	1.169373	0.878214
C43	C	0.467410	0.328067	0.428559
C44	C	0.967410	0.828067	0.928559
C45	C	0.549390	0.328061	0.428550
C46	C	1.049390	0.828061	0.928550
C47	C	0.590343	0.378192	0.378252
C48	C	1.090343	0.878192	0.878252
C49	C	0.549310	0.428337	0.327965
C50	C	1.049310	0.928337	0.827965
C51	C	0.467332	0.428346	0.327978
C52	C	0.967332	0.928346	0.827978
C53	C	0.720181	0.428313	0.327940
C54	C	1.220181	0.928313	0.827940
C55	C	0.802165	0.428303	0.327925
C56	C	1.302165	0.928303	0.827925
C57	C	0.802239	0.328029	0.428512
C58	C	1.302239	0.828029	0.928512
C59	C	0.720260	0.328038	0.428525
C60	C	1.220260	0.828038	0.928525
C61	C	0.679234	0.378182	0.378237
C62	C	1.179234	0.878182	0.878237
C63	C	1.134437	0.378117	0.582977
C64	C	1.634437	0.878117	1.082977
C65	C	1.134457	0.378093	0.670227
C66	C	1.634457	0.878093	1.170227
C67	C	1.339134	0.378197	0.378262
C68	C	1.839134	0.878197	0.878262
C69	C	1.426383	0.378206	0.378274
C70	C	1.926383	0.878206	0.878274
C71	C	1.134487	0.173431	0.378281
C72	C	1.634487	0.673431	0.878281
C73	C	1.134528	0.086181	0.378302
C74	C	1.634528	0.586181	0.878302
C75	C	1.184598	0.710357	0.328069
C76	C	1.684598	1.210357	0.828069
C77	C	1.184637	0.792337	0.328089
C78	C	1.684637	1.292337	0.828089
C79	C	1.134425	0.833332	0.378251
C80	C	1.634425	1.333332	0.878251
C81	C	1.084178	0.792343	0.428401
C82	C	1.584178	1.292343	0.928401
C83	C	1.084144	0.710364	0.428384
C84	C	1.584144	1.210364	0.928384
C85	C	1.084250	0.963213	0.428431
C86	C	1.584250	1.463213	0.928431
C87	C	1.084283	1.045197	0.428447
C88	C	1.584283	1.545197	0.928447
C89	C	1.184743	1.045186	0.328136
C90	C	1.684743	1.545186	0.828136
C91	C	1.184709	0.963207	0.328119
C92	C	1.684709	1.463207	0.828119
C93	C	1.134461	0.922223	0.378269
C94	C	1.634461	1.422223	0.878269
C95	C	1.134387	0.378176	0.174285
C96	C	1.634387	0.878176	0.674285
C97	C	1.134519	0.377980	0.087035
C98	C	1.634519	0.877980	0.587035
C99	C	1.184689	0.327888	0.711237
C100	C	1.684689	0.827888	1.211237
C101	C	1.184698	0.327862	0.793218
C102	C	1.684698	0.827862	1.293218
C103	C	1.134479	0.378045	0.834186
C104	C	1.634479	0.878045	1.334186
C105	C	1.084242	0.428252	0.793170
C106	C	1.584242	0.928252	1.293170
C107	C	1.084229	0.428273	0.711191
C108	C	1.584229	0.928273	1.211191
C109	C	1.084274	0.428205	0.964040
C110	C	1.584274	0.928205	1.464040
C111	C	1.084288	0.428184	1.046025
C112	C	1.584288	0.928184	1.546025
C113	C	1.184742	0.327793	1.046067
C114	C	1.684742	0.827793	1.546067
C115	C	1.184730	0.327815	0.964088
C116	C	1.684730	0.827815	1.464088
C117	C	1.134493	0.378023	0.923077
C118	C	1.634493	0.878023	1.423077
H119	H	0.434072	0.287240	0.469513
H120	H	0.934072	0.787240	0.969513
H121	H	1.225591	0.929829	0.287270
H122	H	1.725591	1.429829	0.787270
H123	H	1.225645	0.286911	1.079462
H124	H	1.725645	0.786911	1.579462
H125	H	1.043298	0.825728	0.469247
H126	H	1.543298	1.325728	0.969247
Cl127	Cl	1.247906	1.096708	0.265083
Cl128	Cl	1.747906	1.596708	0.765083
Cl129	Cl	1.247808	0.843856	0.265050
Cl130	Cl	1.747808	1.343856	0.765050
H131	H	1.043411	1.078574	0.469307
H132	H	1.543411	1.578574	0.969307
H133	H	0.582791	0.287236	0.469500
H134	H	1.082791	0.787236	0.969500
H135	H	1.225585	0.287026	0.677886
H136	H	1.725585	0.787026	1.177886
Cl137	Cl	1.247720	0.658828	0.265000
Cl138	Cl	1.747720	1.158828	0.765000
Cl139	Cl	0.668778	0.265013	0.491755
Cl140	Cl	1.168778	0.765013	0.991755
H141	H	0.835647	0.287198	0.469457
H142	H	1.335647	0.787198	0.969457
H143	H	0.835506	0.469126	0.286970
H144	H	1.335506	0.969126	0.786970
H145	H	1.043354	0.469077	0.930652
H146	H	1.543354	0.969077	1.430652
H147	H	0.582660	0.469157	0.287014
H148	H	1.082660	0.969157	0.787014
H149	H	1.043350	0.469109	0.826533
H150	H	1.543350	0.969109	1.326533
H151	H	1.043335	0.929847	0.469271
H152	H	1.543335	1.429847	0.969271
Cl153	Cl	0.668605	0.491362	0.264728
Cl154	Cl	1.168605	0.991362	0.764728
H155	H	1.043318	0.469147	0.677801
H156	H	1.543318	0.969147	1.177801
H157	H	1.043230	0.676996	0.469218
H158	H	1.543230	1.176996	0.969218
Cl159	Cl	1.247884	0.264779	0.844770
Cl160	Cl	1.747884	0.764779	1.344770
Cl161	Cl	1.247867	0.264731	0.912585
Cl162	Cl	1.747867	0.764731	1.412585
H163	H	1.043393	0.469046	1.079379
H164	H	1.543393	0.969046	1.579379
H165	H	0.433929	0.469176	0.287032
H166	H	0.933929	0.969176	0.787032
