data_functionalizedCrystal
_audit_creation_method	'MofGen! by Chris Wilmer'
_symmetry_space_group_name_H-M	'P1'
_symmetry_Int_Tables_number	1
_symmetry_cell_setting	triclinic
loop_
_symmetry_equiv_pos_as_xyz
  x,y,z
_cell_length_a	21.295418
_cell_length_b	25.639239
_cell_length_c	21.295411
_cell_angle_alpha	90.019526
_cell_angle_beta	90.043738
_cell_angle_gamma	90.054499
loop_
_atom_site_label
_atom_site_type_symbol
_atom_site_fract_x
_atom_site_fract_y
_atom_site_fract_z
Zn1	Zn	0.962320	-0.207990	0.356243
Zn2	Zn	1.462320	0.292010	0.856243
Zn3	Zn	0.962207	-0.295410	0.250972
Zn4	Zn	1.462207	0.204590	0.750972
Zn5	Zn	0.857043	-0.208014	0.250953
Zn6	Zn	1.357043	0.291986	0.750953
Zn7	Zn	0.856998	-0.295420	0.356169
Zn8	Zn	1.356998	0.204580	0.856169
O9	O	0.909642	-0.251708	0.303584
O10	O	1.409642	0.248292	0.803584
O11	O	1.050395	-0.219572	0.342318
O12	O	1.550395	0.280428	0.842318
O13	O	0.948229	-0.283822	0.162880
O14	O	1.448229	0.216178	0.662880
O15	O	0.871075	-0.134846	0.264943
O16	O	1.371075	0.365154	0.764943
O17	O	1.050312	-0.283799	0.264976
O18	O	1.550312	0.216201	0.764976
O19	O	0.948421	-0.134828	0.342299
O20	O	1.448421	0.365172	0.842299
O21	O	0.870965	-0.219613	0.162866
O22	O	1.370965	0.280387	0.662866
O23	O	0.768948	-0.219623	0.264871
O24	O	1.268948	0.280377	0.764871
O25	O	0.870997	-0.283816	0.444268
O26	O	1.370997	0.216184	0.944268
O27	O	0.768914	-0.283840	0.342172
O28	O	1.268914	0.216160	0.842172
O29	O	0.948377	-0.219582	0.444322
O30	O	1.448377	0.280418	0.944322
O31	O	0.948185	-0.368576	0.264904
O32	O	1.448185	0.131424	0.764904
O33	O	0.870888	-0.368584	0.342191
O34	O	1.370888	0.131416	0.842191
C35	C	0.746090	-0.251736	0.303512
C36	C	1.246090	0.248264	0.803512
C37	C	0.676122	-0.251760	0.303496
C38	C	1.176122	0.248240	0.803496
C39	C	0.643255	-0.285242	0.343686
C40	C	1.143255	0.214758	0.843686
C41	C	0.577512	-0.285229	0.343715
C42	C	1.077512	0.214771	0.843715
C43	C	0.544640	-0.251740	0.303541
C44	C	1.044640	0.248260	0.803541
C45	C	0.577515	-0.218252	0.263347
C46	C	1.077515	0.281748	0.763347
C47	C	0.643257	-0.218262	0.263325
C48	C	1.143257	0.281738	0.763325
N49	N	0.441365	-0.247648	0.248483
N50	N	0.941365	0.252352	0.748483
N51	N	0.378913	-0.247641	0.248506
N52	N	0.878913	0.252359	0.748506
C53	C	0.346565	-0.251707	0.303608
C54	C	0.846565	0.248293	0.803608
N55	N	0.379028	-0.255789	0.358686
N56	N	0.879028	0.244211	0.858686
N57	N	0.441485	-0.255799	0.358662
N58	N	0.941485	0.244201	0.858662
C59	C	0.473354	-0.251725	0.303561
C60	C	0.973354	0.248275	0.803561
C61	C	0.242412	-0.285176	0.343832
C62	C	0.742412	0.214824	0.843832
C63	C	0.176668	-0.285160	0.343862
C64	C	0.676668	0.214840	0.843862
C65	C	0.176673	-0.218185	0.263489
C66	C	0.676673	0.281815	0.763489
C67	C	0.242415	-0.218199	0.263465
C68	C	0.742415	0.281801	0.763465
C69	C	0.275281	-0.251697	0.303636
C70	C	0.775281	0.248303	0.803636
C71	C	0.909536	-0.387551	0.303555
C72	C	1.409536	0.112449	0.803555
C73	C	0.909548	-0.445665	0.303564
C74	C	1.409548	0.054335	0.803564
C75	C	0.949996	-0.806011	0.263409
C76	C	1.449996	-0.306011	0.763409
C77	C	0.950020	-0.860616	0.263418
C78	C	1.450020	-0.360616	0.763418
O79	O	0.984300	-0.888838	0.229245
O80	O	1.484300	-0.388838	0.729245
N81	N	0.909753	-0.887947	0.303626
N82	N	1.409753	-0.387947	0.803626
C83	C	0.869463	-0.860672	0.343833
C84	C	1.369463	-0.360672	0.843833
O85	O	0.835215	-0.888934	0.378034
O86	O	1.335215	-0.388934	0.878034
C87	C	0.869442	-0.806069	0.343827
C88	C	1.369442	-0.306069	0.843827
C89	C	0.909708	-0.778740	0.303612
C90	C	1.409708	-0.278740	0.803612
C91	C	0.990259	-0.778683	0.223198
C92	C	1.490259	-0.278683	0.723198
C93	C	0.990233	-0.724082	0.223188
C94	C	1.490233	-0.224082	0.723188
C95	C	0.949945	-0.696810	0.263391
C96	C	1.449945	-0.196810	0.763391
C97	C	0.909682	-0.724139	0.303603
C98	C	1.409682	-0.224139	0.803603
C99	C	0.829156	-0.778794	0.384037
C100	C	1.329156	-0.278794	0.884037
C101	C	0.829139	-0.724187	0.384028
C102	C	1.329139	-0.224187	0.884028
C103	C	0.869404	-0.696858	0.343812
C104	C	1.369404	-0.196858	0.843812
C105	C	0.869369	-0.642267	0.343796
C106	C	1.369369	-0.142267	0.843796
N107	N	0.909636	-0.614935	0.303588
N108	N	1.409636	-0.114935	0.803588
C109	C	0.949924	-0.642207	0.263385
C110	C	1.449924	-0.142207	0.763385
C111	C	0.869510	-0.975343	0.343842
C112	C	1.369510	-0.475343	0.843842
C113	C	0.869527	-1.029945	0.343845
C114	C	1.369527	-0.529945	0.843845
C115	C	0.950086	-1.029885	0.263431
C116	C	1.450086	-0.529885	0.763431
C117	C	0.950065	-0.975282	0.263425
C118	C	1.450065	-0.475282	0.763425
C119	C	0.909778	-0.948011	0.303634
C120	C	1.409778	-0.448011	0.803634
C121	C	0.949868	-0.527542	0.263369
C122	C	1.449868	-0.027542	0.763369
C123	C	0.949837	-0.472937	0.263361
C124	C	1.449837	0.027063	0.763361
C125	C	0.869281	-0.473001	0.343778
C126	C	1.369281	0.026999	0.843778
C127	C	0.869309	-0.527602	0.343783
C128	C	1.369309	-0.027602	0.843783
C129	C	0.909607	-0.554871	0.303577
C130	C	1.409607	-0.054871	0.803577
O131	O	0.835108	-0.614010	0.377953
O132	O	1.335108	-0.114010	0.877953
O133	O	0.984172	-0.613939	0.229195
O134	O	1.484172	-0.113939	0.729195
C135	C	1.073832	-0.251681	0.303657
C136	C	1.573832	0.248319	0.803657
C137	C	1.143801	-0.251670	0.303688
C138	C	1.643801	0.248330	0.803688
C139	C	0.909694	-0.251697	0.467774
C140	C	1.409694	0.248303	0.967774
C141	C	0.909717	-0.251693	0.537743
C142	C	1.409717	0.248307	1.037743
C143	C	0.909766	-0.115335	0.303627
C144	C	1.409766	0.384665	0.803627
C145	C	0.909818	-0.057221	0.303645
C146	C	1.409818	0.442779	0.803645
C147	C	0.909626	-0.251682	0.140032
C148	C	1.409626	0.248318	0.640032
C149	C	0.909726	-0.251539	0.070065
C150	C	1.409726	0.248461	0.570065
C151	C	0.950007	-0.218244	0.570639
C152	C	1.450007	0.281756	1.070639
C153	C	0.950006	-0.218221	0.636381
C154	C	1.450006	0.281779	1.136381
C155	C	0.909721	-0.251657	0.669225
C156	C	1.409721	0.248343	1.169225
C157	C	0.869424	-0.285108	0.636321
C158	C	1.369424	0.214892	1.136321
C159	C	0.869421	-0.285126	0.570580
C160	C	1.369421	0.214874	1.070580
N161	N	0.904857	-0.297396	0.772441
N162	N	1.404857	0.202604	1.272441
N163	N	0.904863	-0.297377	0.834892
N164	N	1.404863	0.202623	1.334892
C165	C	0.909725	-0.251604	0.867300
C166	C	1.409725	0.248396	1.367300
N167	N	0.914594	-0.205848	0.834897
N168	N	1.414594	0.294152	1.334897
N169	N	0.914591	-0.205867	0.772440
N170	N	1.414591	0.294133	1.272440
C171	C	0.909719	-0.251641	0.740511
C172	C	1.409719	0.248359	1.240511
C173	C	0.950017	-0.218128	0.971482
C174	C	1.450017	0.281872	1.471482
C175	C	0.950011	-0.218104	1.037225
C176	C	1.450011	0.281896	1.537225
C177	C	0.869433	-0.284995	1.037164
C178	C	1.369433	0.215005	1.537164
C179	C	0.869435	-0.285014	0.971422
C180	C	1.369435	0.214986	1.471422
C181	C	0.909730	-0.251581	0.938584
C182	C	1.409730	0.248419	1.438584
H183	H	0.149909	-0.312424	0.376594
H184	H	0.649909	0.187576	0.876594
H185	H	0.836626	-0.312213	1.063905
H186	H	1.336626	0.187787	1.563905
O187	O	1.029329	-0.805244	0.184146
O188	O	1.529329	-0.305244	0.684146
C189	C	0.993556	-0.836892	0.143430
C190	C	1.493556	-0.336892	0.643430
H191	H	0.945827	-0.845107	0.165541
H192	H	1.445827	-0.345107	0.665541
H193	H	1.019225	-0.875268	0.135077
H194	H	1.519225	-0.375268	0.635077
H195	H	0.986689	-0.815895	0.096750
H196	H	1.486689	-0.315895	0.596750
H197	H	0.982626	-0.450687	0.230611
H198	H	1.482626	0.049313	0.730611
H199	H	0.982684	-0.549738	0.230630
H200	H	1.482684	-0.049738	0.730630
O201	O	0.989117	-0.185658	0.668277
O202	O	1.489117	0.314342	1.168277
C203	C	0.975405	-0.133551	0.652221
C204	C	1.475405	0.366449	1.152221
H205	H	0.951208	-0.132477	0.604471
H206	H	1.451208	0.367523	1.104471
H207	H	1.020862	-0.110105	0.650010
H208	H	1.520862	0.389895	1.150010
H209	H	0.943061	-0.115936	0.689200
H210	H	1.443061	0.384064	1.189200
O211	O	0.274444	-0.185696	0.224476
O212	O	0.774444	0.314304	0.724476
C213	C	0.339517	-0.192896	0.233057
C214	C	0.839517	0.307104	0.733057
H215	H	0.348526	-0.210079	0.281598
H216	H	0.848526	0.289921	0.781598
H217	H	0.364552	-0.153733	0.228862
H218	H	0.864552	0.346267	0.728862
H219	H	0.358092	-0.220698	0.195653
H220	H	0.858092	0.279302	0.695653
H221	H	0.982853	-0.953034	0.230679
H222	H	1.482853	-0.453034	0.730679
O223	O	0.675209	-0.317831	0.382623
O224	O	1.175209	0.182169	0.882623
C225	C	0.713167	-0.351553	0.346702
C226	C	1.213167	0.148447	0.846702
H227	H	0.693298	-0.354723	0.297123
H228	H	1.193298	0.145277	0.797123
H229	H	0.713885	-0.391817	0.369385
H230	H	1.213885	0.108183	0.869385
H231	H	0.763009	-0.335390	0.344553
H232	H	1.263009	0.164610	0.844553
O233	O	0.830383	-0.317644	0.668250
O234	O	1.330383	0.182356	1.168250
C235	C	0.866194	-0.351390	0.706312
C236	C	1.366194	0.148610	1.206312
H237	H	0.915768	-0.354616	0.686535
H238	H	1.415768	0.145384	1.186535
H239	H	0.843390	-0.391630	0.707040
H240	H	1.343390	0.108370	1.207040
H241	H	0.868380	-0.335212	0.756139
H242	H	1.368380	0.164788	1.256139
H243	H	0.836609	-0.312363	0.543796
H244	H	1.336609	0.187637	1.043796
H245	H	0.550747	-0.190983	0.230639
H246	H	1.050747	0.309017	0.730639
O247	O	1.029414	-0.697620	0.184110
O248	O	1.529414	-0.197620	0.684110
C249	C	1.064964	-0.733408	0.148624
C250	C	1.564964	-0.233408	0.648624
H251	H	1.067135	-0.772318	0.174419
H252	H	1.567135	-0.272318	0.674419
H253	H	1.114563	-0.717589	0.141974
H254	H	1.614563	-0.217589	0.641974
H255	H	1.041944	-0.739258	0.100784
H256	H	1.541944	-0.239258	0.600784
H257	H	0.982824	-0.190902	0.944744
H258	H	1.482824	0.309098	1.444744
H259	H	0.796364	-0.801036	0.416781
H260	H	1.296364	-0.301036	0.916781
H261	H	0.550746	-0.312494	0.376445
H262	H	1.050746	0.187506	0.876445
H263	H	0.982819	-0.190863	1.064008
H264	H	1.482819	0.309137	1.564008
O265	O	0.989249	-1.056463	0.224482
O266	O	1.489249	-0.556463	0.724482
C267	C	0.980641	-1.110516	0.233128
C268	C	1.480641	-0.610516	0.733128
H269	H	0.959943	-1.117960	0.281661
H270	H	1.459943	-0.617960	0.781661
H271	H	1.027821	-1.131204	0.229000
H272	H	1.527821	-0.631204	0.729000
H273	H	0.947202	-1.126094	0.195717
H274	H	1.447202	-0.626094	0.695717
O275	O	0.144651	-0.185715	0.224468
O276	O	0.644651	0.314285	0.724468
C277	C	0.079578	-0.192880	0.233110
C278	C	0.579578	0.307120	0.733110
H279	H	0.070570	-0.233247	0.253663
H280	H	0.570570	0.266753	0.753663
H281	H	0.054552	-0.189294	0.185968
H282	H	0.554552	0.310706	0.685968
H283	H	0.060989	-0.161895	0.266686
H284	H	0.560989	0.338105	0.766686
H285	H	0.836630	-0.312254	0.944637
H286	H	1.336630	0.187746	1.444637
H287	H	0.670017	-0.190995	0.230596
H288	H	1.170017	0.309005	0.730596
O289	O	0.830397	-0.948911	0.382986
O290	O	1.330397	-0.448911	0.882986
C291	C	0.844137	-0.962210	0.445744
C292	C	1.344137	-0.462210	0.945744
H293	H	0.868356	-1.001827	0.447081
H294	H	1.368356	-0.501827	0.947081
H295	H	0.798692	-0.964122	0.473911
H296	H	1.298692	-0.464122	0.973911
H297	H	0.876473	-0.931435	0.466988
H298	H	1.376473	-0.431435	0.966988
O299	O	0.789970	-0.697641	0.423001
O300	O	1.289970	-0.197641	0.923001
C301	C	0.749300	-0.666125	0.387111
C302	C	1.249300	-0.166125	0.887111
H303	H	0.771517	-0.657934	0.339432
H304	H	1.271517	-0.157934	0.839432
H305	H	0.740832	-0.627729	0.412740
H306	H	1.240832	-0.127729	0.912740
H307	H	0.702665	-0.687225	0.380140
H308	H	1.202665	-0.187225	0.880140
H309	H	0.269173	-0.312450	0.376545
H310	H	0.769173	0.187550	0.876545
O311	O	0.830496	-1.056546	0.382938
O312	O	1.330496	-0.556546	0.882938
C313	C	0.866328	-1.088064	0.423660
C314	C	1.366328	-0.588064	0.923660
H315	H	0.914046	-1.096206	0.401520
H316	H	1.414046	-0.596206	0.901520
H317	H	0.840696	-1.126483	0.432076
H318	H	1.340696	-0.626483	0.932076
H319	H	0.873214	-1.066990	0.470312
H320	H	1.373214	-0.566990	0.970312
O321	O	0.989195	-0.185832	0.538705
O322	O	1.489195	0.314168	1.038705
C323	C	1.029814	-0.215589	0.500680
C324	C	1.529814	0.284411	1.000680
H325	H	1.033691	-0.256761	0.520492
H326	H	1.533691	0.243239	1.020492
H327	H	1.078267	-0.196656	0.499955
H328	H	1.578267	0.303344	0.999955
H329	H	1.010332	-0.217411	0.450849
H330	H	1.510332	0.282589	0.950849
H331	H	0.836477	-0.450788	0.376509
H332	H	1.336477	0.049212	0.876509
O333	O	0.830174	-0.554072	0.382905
O334	O	1.330174	-0.054072	0.882905
C335	C	0.794597	-0.518289	0.418373
C336	C	1.294597	-0.018289	0.918373
H337	H	0.820358	-0.479335	0.420571
H338	H	1.320358	0.020665	0.920571
H339	H	0.787869	-0.534049	0.467967
H340	H	1.287869	-0.034049	0.967967
H341	H	0.746794	-0.512549	0.395262
H342	H	1.246794	-0.012549	0.895262
