data_functionalizedCrystal
_audit_creation_method	'MofGen! by Chris Wilmer'
_symmetry_space_group_name_H-M	'P1'
_symmetry_Int_Tables_number	1
_symmetry_cell_setting	triclinic
loop_
_symmetry_equiv_pos_as_xyz
  x,y,z
_cell_length_a	18.050589
_cell_length_b	10.686220
_cell_length_c	10.686551
_cell_angle_alpha	90.308082
_cell_angle_beta	85.596139
_cell_angle_gamma	94.409750
loop_
_atom_site_label
_atom_site_type_symbol
_atom_site_fract_x
_atom_site_fract_y
_atom_site_fract_z
Zn1	Zn	-0.181059	1.972217	-0.562396
Zn2	Zn	-0.315479	1.955936	-0.352644
Zn3	Zn	-0.200057	1.746328	-0.368714
Zn4	Zn	-0.313974	1.762366	-0.578422
O5	O	-0.252642	1.859212	-0.465544
O6	O	-0.191569	2.145602	-0.521139
O7	O	-0.308749	1.914605	-0.179231
O8	O	-0.093607	1.776395	-0.394425
O9	O	-0.290327	2.133640	-0.367036
O10	O	-0.079649	1.942354	-0.536722
O11	O	-0.223949	1.760607	-0.191038
O12	O	-0.222489	1.572911	-0.409965
O13	O	-0.287762	1.803729	-0.751841
O14	O	-0.306184	1.584694	-0.564036
O15	O	-0.190110	1.957906	-0.740067
O16	O	-0.419209	1.930156	-0.382576
O17	O	-0.418104	1.787942	-0.548454
C18	C	-0.266235	1.533286	-0.490484
C19	C	-0.272067	1.393856	-0.501183
C20	C	-0.445602	1.859059	-0.465535
C21	C	-0.528144	1.859111	-0.465564
C22	C	-0.727018	1.781855	-0.555733
C23	C	-0.783311	1.742482	-0.443604
C24	C	-0.679268	1.859236	-0.465571
C25	C	-0.770054	1.898671	-0.577708
C26	C	-0.825247	1.859354	-0.465588
C27	C	-0.734480	1.819798	-0.353387
C28	C	-0.721212	1.976046	-0.487563
C29	C	-0.777484	1.936711	-0.375352
C30	C	-0.595174	1.859164	-0.465563
C31	C	-0.909341	1.859425	-0.465583
C32	C	-0.058926	1.859402	-0.465578
C33	C	0.023624	1.859483	-0.465593
C34	C	-0.236649	1.884423	-0.792743
C35	C	-0.229833	1.895166	-0.932176
C36	C	-0.238997	2.186411	-0.440508
C37	C	-0.233182	2.325843	-0.429838
C38	C	-0.268517	1.834171	-0.139612
C39	C	-0.275113	1.823671	-0.000161
H40	H	-0.195430	1.374283	-0.360571
Br41	Br	-0.335006	1.313119	-0.616626
Br42	Br	-0.156531	2.010909	-1.012953
Br43	Br	-0.348424	1.707954	-0.919387
Br44	Br	-0.690127	1.672610	-0.682666
H45	H	-0.785908	1.931977	-0.672534
H46	H	-0.810397	1.643756	-0.425021
H47	H	-0.799490	2.002194	-0.299031
Br48	Br	-0.708219	1.764101	-0.195302
H49	H	-0.694126	2.074755	-0.506203
