data_functionalizedCrystal
_audit_creation_method	'MofGen! by Chris Wilmer'
_symmetry_space_group_name_H-M	'P1'
_symmetry_Int_Tables_number	1
_symmetry_cell_setting	triclinic
loop_
_symmetry_equiv_pos_as_xyz
  x,y,z
_cell_length_a	14.853559
_cell_length_b	15.995300
_cell_length_c	13.930277
_cell_angle_alpha	89.991499
_cell_angle_beta	89.996070
_cell_angle_gamma	83.551631
loop_
_atom_site_label
_atom_site_type_symbol
_atom_site_fract_x
_atom_site_fract_y
_atom_site_fract_z
O1	O	0.115984	1.111126	0.079861
O2	O	0.130382	0.867362	0.079855
O3	O	-0.008057	0.995759	0.079857
O4	O	0.254423	0.982729	0.079859
O5	O	-0.008049	0.995782	-0.079805
O6	O	0.130390	0.867385	-0.079807
O7	O	0.115993	1.111149	-0.079801
Zn8	Zn	0.123193	0.989271	-0.105153
Zn9	Zn	0.123182	0.989240	0.105208
O10	O	0.254432	0.982752	-0.079803
C11	C	0.129799	0.836177	0.000023
C12	C	0.128038	0.743222	0.000021
C13	C	0.124787	0.573036	0.000028
C14	C	0.223359	0.525682	0.000027
C15	C	0.221561	0.428992	0.000392
C16	C	0.121587	0.405475	0.000035
C17	C	0.072678	0.446540	0.091029
C18	C	0.075172	0.543176	0.091103
C19	C	0.073722	0.543479	-0.090469
C20	C	0.073731	0.446535	-0.091662
C21	C	0.119774	0.310778	0.000041
C22	C	0.126598	0.667733	0.000028
C23	C	-0.041641	0.995181	0.000028
C24	C	-0.141722	0.993416	0.000033
C25	C	-0.564890	0.985914	0.087065
C26	C	-0.564876	0.985939	-0.087004
C27	C	-0.470845	0.987605	-0.087005
C28	C	-0.423833	0.988424	0.000030
C29	C	-0.470851	0.987577	0.087067
C30	C	-0.423819	0.988443	-0.174040
C31	C	-0.329782	0.990108	-0.174044
C32	C	-0.282769	0.990933	-0.087008
C33	C	-0.329793	0.990087	0.000032
C34	C	-0.282780	0.990906	0.087068
C35	C	-0.329803	0.990067	0.174109
C36	C	-0.423837	0.988403	0.174104
C37	C	-0.188735	0.992597	-0.087002
C38	C	-0.188740	0.992570	0.087070
C39	C	0.288016	0.983330	0.000028
C40	C	0.388097	0.985095	0.000029
C41	C	0.116576	1.142334	0.000033
C42	C	0.118336	1.235289	0.000042
N43	N	0.123167	0.989220	0.248774
N44	N	0.123200	0.989297	-0.248720
C45	C	0.184374	0.932326	0.701042
C46	C	0.062019	1.046252	0.701014
C47	C	0.062013	1.046239	0.600518
C48	C	0.123187	0.989267	0.550280
C49	C	0.184368	0.932309	0.600537
C50	C	0.000827	1.103191	0.550253
C51	C	0.000817	1.103179	0.449751
C52	C	0.061997	1.046211	0.399511
C53	C	0.123181	0.989250	0.449775
C54	C	0.184355	0.932279	0.399536
C55	C	0.245544	0.875322	0.449798
C56	C	0.245547	0.875340	0.550297
C57	C	0.061993	1.046192	0.299012
C58	C	0.184348	0.932262	0.299031
H59	H	0.259819	0.401178	0.066001
H60	H	-0.603158	0.985267	-0.157865
H61	H	0.109448	0.419246	-0.158981
H62	H	0.234196	0.885954	0.741968
O63	O	-0.014904	0.429470	0.094817
C64	C	-0.017314	0.341672	0.098843
H65	H	0.049772	0.310349	0.128246
H66	H	-0.028733	0.316740	0.023672
C67	C	-0.177537	0.360229	0.128957
C68	C	-0.095144	0.321758	0.165077
H69	H	-0.225549	0.347944	0.169808
H70	H	-0.175915	0.419380	0.126240
H71	H	-0.187041	0.339448	0.066314
H72	H	-0.085637	0.342547	0.227713
H73	H	-0.096767	0.262609	0.167805
H74	H	-0.048984	1.149572	0.591160
O75	O	0.002761	1.101630	0.749960
C76	C	0.015910	1.089453	0.849440
H77	H	0.087489	1.058017	0.863136
H78	H	-0.035304	1.047614	0.878058
C79	C	-0.085151	1.213744	0.884128
C80	C	0.002766	1.175140	0.900950
H81	H	-0.093263	1.266599	0.915904
H82	H	-0.094013	1.221947	0.817106
H83	H	-0.127820	1.178870	0.907976
H84	H	0.045433	1.210009	0.877092
H85	H	0.011635	1.166945	0.967970
O86	O	0.243740	0.876998	0.250085
C87	C	0.230599	0.889175	0.150603
H88	H	0.197058	0.955747	0.136853
H89	H	0.185252	0.841818	0.122115
C90	C	0.364003	0.794757	0.115880
C91	C	0.322814	0.876525	0.098991
H92	H	0.420885	0.786950	0.084041
H93	H	0.372856	0.786550	0.182902
H94	H	0.326205	0.755302	0.092140
H95	H	0.360607	0.915978	0.122742
H96	H	0.313970	0.884738	0.031971
H97	H	-0.049005	1.149557	0.408834
H98	H	0.106202	0.418182	0.159003
O99	O	-0.610456	0.984966	0.171667
C100	C	-0.577265	0.912882	0.224581
H101	H	-0.505573	0.889951	0.199838
H102	H	-0.623017	0.861205	0.212486
C103	C	-0.664102	0.963089	0.362535
C104	C	-0.576046	0.934929	0.332151
H105	H	-0.663354	0.976686	0.428890
H106	H	-0.686467	1.011652	0.326886
H107	H	-0.702219	0.920020	0.352448
H108	H	-0.537933	0.978001	0.342227
H109	H	-0.553675	0.886373	0.367805
O110	O	-0.284020	0.990743	0.258595
C111	C	-0.219425	0.919225	0.263803
H112	H	-0.201931	0.895331	0.188233
H113	H	-0.248513	0.867839	0.306747
C114	C	-0.154689	0.972138	0.406379
C115	C	-0.133197	0.942795	0.313562
H116	H	-0.101501	0.986675	0.437077
H117	H	-0.198210	1.020320	0.402874
H118	H	-0.178931	0.929312	0.442154
H119	H	-0.108967	0.985624	0.277785
H120	H	-0.089670	0.894621	0.317063
H121	H	0.259991	0.400581	-0.064822
O122	O	0.270516	0.547931	-0.077827
C123	C	0.215059	0.606628	-0.133511
H124	H	0.159176	0.639698	-0.086473
H125	H	0.183434	0.572539	-0.194592
C126	C	0.341326	0.631506	-0.233140
C127	C	0.272694	0.672129	-0.175365
H128	H	0.376877	0.671908	-0.258962
H129	H	0.378689	0.591958	-0.195627
H130	H	0.314961	0.603100	-0.284034
H131	H	0.299059	0.700525	-0.124467
H132	H	0.235337	0.711683	-0.212871
H133	H	0.262378	0.545325	0.065182
O134	O	-0.143132	0.993287	-0.171600
C135	C	-0.155858	0.920407	-0.224521
H136	H	-0.220731	0.895047	-0.199778
H137	H	-0.095777	0.870601	-0.212434
C138	C	-0.083608	0.973480	-0.362473
C139	C	-0.163290	0.942337	-0.332088
H140	H	-0.088188	0.987005	-0.428825
H141	H	-0.075031	1.022579	-0.326818
H142	H	-0.033549	0.931970	-0.352392
H143	H	-0.213345	0.983850	-0.342157
H144	H	-0.171875	0.893245	-0.367747
O145	O	0.002596	1.101431	0.250040
C146	C	0.015725	1.089219	0.150564
H147	H	0.049268	1.022643	0.136857
H148	H	0.061065	1.136568	0.122021
C149	C	-0.117689	1.183618	0.115808
C150	C	-0.076498	1.101846	0.098973
H151	H	-0.174575	1.191411	0.083983
H152	H	-0.126533	1.191849	0.182827
H153	H	-0.079897	1.223067	0.092023
H154	H	-0.114285	1.062399	0.122769
H155	H	-0.067662	1.093609	0.031957
O156	O	-0.469411	0.987439	0.258699
C157	C	-0.436213	0.915351	0.311602
H158	H	-0.364514	0.892437	0.286868
H159	H	-0.481950	0.863666	0.299483
C160	C	-0.523084	0.965517	0.449550
C161	C	-0.435018	0.937379	0.419177
H162	H	-0.522351	0.979103	0.515908
H163	H	-0.545453	1.014083	0.413908
H164	H	-0.561189	0.922441	0.439443
H165	H	-0.396918	0.980458	0.429273
H166	H	-0.412643	0.888820	0.454824
H167	H	-0.291504	0.990794	-0.244918
O168	O	0.117311	0.565162	0.172457
C169	C	0.194666	0.604165	0.147836
H170	H	0.186424	0.631024	0.072140
H171	H	0.257170	0.555849	0.150764
C172	C	0.215988	0.642763	0.312213
C173	C	0.205862	0.675759	0.219244
H174	H	0.222897	0.686923	0.356263
H175	H	0.163874	0.616483	0.328802
H176	H	0.268074	0.602500	0.314640
H177	H	0.153770	0.716013	0.216816
H178	H	0.257967	0.702047	0.202656
H179	H	0.295349	0.828931	0.408883
H180	H	0.002790	0.575366	0.094991
O181	O	0.112312	0.568091	-0.172803
C182	C	0.047806	0.620644	-0.225764
H183	H	-0.007391	0.650083	-0.175395
H184	H	0.016291	0.581887	-0.282782
C185	C	0.162272	0.654476	-0.336498
C186	C	0.094481	0.690640	-0.274632
H187	H	0.191063	0.697652	-0.366647
H188	H	0.205730	0.619069	-0.300820
H189	H	0.135999	0.622180	-0.384005
H190	H	0.120756	0.722927	-0.227120
H191	H	0.051028	0.726055	-0.310304
H192	H	0.295364	0.828967	0.591226
H193	H	0.000844	0.431115	-0.097426
H194	H	0.001047	0.575178	-0.091344
O195	O	-0.469580	0.987549	-0.258513
C196	C	-0.513747	0.914130	-0.263741
H197	H	-0.524415	0.889698	-0.188178
H198	H	-0.470365	0.864039	-0.306717
C199	C	-0.593083	0.964604	-0.406278
C200	C	-0.606192	0.934601	-0.313470
H201	H	-0.650106	0.977230	-0.436957
H202	H	-0.563325	1.014067	-0.402759
H203	H	-0.556929	0.922857	-0.442079
H204	H	-0.642336	0.976352	-0.277667
H205	H	-0.635959	0.885146	-0.316984
H206	H	-0.150470	0.993240	0.157946
