data_functionalizedCrystal
_audit_creation_method	'MofGen! by Chris Wilmer'
_symmetry_space_group_name_H-M	'P1'
_symmetry_Int_Tables_number	1
_symmetry_cell_setting	triclinic
loop_
_symmetry_equiv_pos_as_xyz
  x,y,z
_cell_length_a	18.101398
_cell_length_b	18.101397
_cell_length_c	12.759387
_cell_angle_alpha	89.962982
_cell_angle_beta	89.971778
_cell_angle_gamma	90.015732
loop_
_atom_site_label
_atom_site_type_symbol
_atom_site_fract_x
_atom_site_fract_y
_atom_site_fract_z
Zn1	Zn	1.132204	-0.294884	-0.594176
Zn2	Zn	1.132115	-0.418744	-0.418477
Zn3	Zn	1.008355	-0.294911	-0.418489
Zn4	Zn	1.008337	-0.418678	-0.594093
O5	O	1.070253	-0.356804	-0.506309
O6	O	1.235825	-0.311331	-0.570899
O7	O	1.115668	-0.402356	-0.271458
O8	O	1.024829	-0.191274	-0.441834
O9	O	1.235759	-0.402330	-0.441814
O10	O	1.115820	-0.191255	-0.570910
O11	O	1.024742	-0.311377	-0.271466
O12	O	0.904720	-0.311312	-0.441753
O13	O	1.024798	-0.402217	-0.741125
O14	O	0.904706	-0.402244	-0.570769
O15	O	1.115803	-0.311267	-0.741186
O16	O	1.115650	-0.522368	-0.441733
O17	O	1.024711	-0.522320	-0.570757
C18	C	0.877842	-0.356774	-0.506254
C19	C	0.795528	-0.356779	-0.506255
C20	C	1.070189	-0.549215	-0.506258
C21	C	1.070230	-0.631529	-0.506271
C22	C	0.496437	-0.356825	-0.506344
C23	C	0.527746	-0.299328	-0.425567
C24	C	0.613364	-0.299482	-0.425222
C25	C	0.644820	-0.356802	-0.506300
C26	C	0.613715	-0.434816	-0.476042
C27	C	0.528069	-0.434496	-0.475481
C28	C	0.528053	-0.336987	-0.617568
C29	C	0.613704	-0.335250	-0.616961
C30	C	0.728679	-0.356793	-0.506277
C31	C	0.412578	-0.356839	-0.506364
C32	C	1.070324	-0.930620	-0.506367
C33	C	1.127381	-0.899294	-0.424971
C34	C	1.127579	-0.813676	-0.425182
C35	C	1.070278	-0.782237	-0.506319
C36	C	1.091439	-0.813238	-0.617064
C37	C	1.091880	-0.898883	-0.616621
C38	C	0.991954	-0.899125	-0.477976
C39	C	0.992341	-0.813475	-0.475504
C40	C	1.070250	-0.698378	-0.506298
C41	C	1.070354	-1.014479	-0.506395
C42	C	1.263415	-0.356835	-0.506364
C43	C	1.345729	-0.356848	-0.506388
C44	C	1.070309	-0.356732	-0.780342
C45	C	1.070332	-0.356701	-0.897119
C46	C	1.070336	-0.163642	-0.506383
C47	C	1.070372	-0.081328	-0.506414
C48	C	1.165102	-0.262000	-0.897202
C49	C	1.212497	-0.214638	-0.952105
C50	C	1.212515	-0.214611	-1.061827
C51	C	1.165132	-0.261949	-1.116648
C52	C	1.117736	-0.309311	-1.061746
C53	C	1.117725	-0.309334	-0.952022
C54	C	1.022964	-0.404007	-1.061663
C55	C	1.022949	-0.404039	-0.951941
C56	C	0.975580	-0.451345	-1.116484
C57	C	0.928188	-0.498712	-1.061582
C58	C	0.928172	-0.498737	-0.951853
C59	C	0.975553	-0.451400	-0.897038
C60	C	1.070240	-0.356823	-0.233341
C61	C	1.070359	-0.356645	-0.116565
H62	H	0.634395	-0.241632	-0.444189
N63	N	0.500479	-0.222463	-0.450393
H64	H	0.467565	-0.224162	-0.514241
H65	H	0.471593	-0.202702	-0.388750
N66	N	0.498933	-0.316294	-0.317109
H67	H	0.465719	-0.361086	-0.320063
H68	H	0.541776	-0.326487	-0.268534
N69	N	0.975604	-0.451322	-1.234826
H70	H	0.938396	-0.488496	-1.261221
H71	H	0.962047	-0.400485	-1.261196
N72	N	0.499492	-0.262942	-0.654037
H73	H	0.443797	-0.264483	-0.658236
H74	H	0.515123	-0.223452	-0.602745
H75	H	0.634038	-0.277840	-0.639776
H76	H	0.976385	-0.793222	-0.394004
N77	N	0.932991	-0.785125	-0.548257
H78	H	0.955886	-0.751484	-0.602470
H79	H	0.908349	-0.828202	-0.584390
N80	N	0.640455	-0.316853	-0.316052
H81	H	0.621577	-0.367022	-0.293991
H82	H	0.696247	-0.316983	-0.315443
H83	H	1.114302	-0.919943	-0.342609
H84	H	0.889608	-0.537246	-1.106226
N85	N	1.165138	-0.261925	-1.234990
H86	H	1.114343	-0.248295	-1.261392
H87	H	1.202380	-0.224744	-1.261379
N88	N	1.165092	-0.262039	-0.778861
H89	H	1.202301	-0.224868	-0.752463
H90	H	1.114270	-0.248442	-0.752492
N91	N	0.975536	-0.451406	-0.778696
H92	H	0.924737	-0.437778	-0.752263
H93	H	0.989147	-0.502222	-0.752306
H94	H	1.251075	-0.176095	-0.907457
H95	H	0.635129	-0.451930	-0.395610
N96	N	0.877048	-0.549824	-0.892653
H97	H	0.907114	-0.584167	-0.847128
H98	H	0.842746	-0.519680	-0.847189
H99	H	1.149166	-0.918804	-0.640669
H100	H	1.114339	-0.792720	-0.343066
N101	N	0.501226	-0.392436	-0.697317
H102	H	0.544997	-0.418061	-0.730292
H103	H	0.468739	-0.430191	-0.661570
H104	H	1.185116	-0.920766	-0.443541
H105	H	0.949443	-0.919382	-0.537260
N106	N	1.263626	-0.163524	-1.121051
H107	H	1.293639	-0.133537	-1.069678
H108	H	1.297888	-0.193667	-1.166577
H109	H	0.635119	-0.374076	-0.680371
H110	H	1.051152	-0.792870	-0.679341
N111	N	0.501553	-0.456778	-0.367780
H112	H	0.545499	-0.466714	-0.321114
H113	H	0.470915	-0.415569	-0.336862
H114	H	1.185631	-0.793136	-0.443968
N115	N	1.039228	-0.926331	-0.699694
H116	H	1.055518	-0.907535	-0.770582
H117	H	1.039127	-0.982125	-0.699962
N118	N	0.500627	-0.493160	-0.550011
H119	H	0.544168	-0.519116	-0.583081
H120	H	0.469670	-0.530194	-0.510237
H121	H	0.634090	-0.478804	-0.533035
H122	H	1.148083	-0.791733	-0.641518
H123	H	0.972704	-0.920790	-0.398620
