data_functionalizedCrystal
_audit_creation_method	'MofGen! by Chris Wilmer'
_symmetry_space_group_name_H-M	'P1'
_symmetry_Int_Tables_number	1
_symmetry_cell_setting	triclinic
loop_
_symmetry_equiv_pos_as_xyz
  x,y,z
_cell_length_a	14.971486
_cell_length_b	10.489741
_cell_length_c	13.448316
_cell_angle_alpha	89.993703
_cell_angle_beta	89.998199
_cell_angle_gamma	84.076651
loop_
_atom_site_label
_atom_site_type_symbol
_atom_site_fract_x
_atom_site_fract_y
_atom_site_fract_z
O1	O	1.187893	0.166222	-0.082577
O2	O	0.927607	0.186128	-0.082604
O3	O	1.063673	-0.009491	-0.082584
O4	O	1.051827	0.361841	-0.082597
O5	O	1.063655	-0.009503	0.082800
O6	O	0.927589	0.186116	0.082780
O7	O	1.187876	0.166210	0.082807
Cu8	Cu	1.057731	0.176162	0.097894
Cu9	Cu	1.057752	0.176176	-0.097691
O10	O	1.051810	0.361829	0.082787
C11	C	0.894268	0.185232	0.000085
C12	C	0.794956	0.182564	0.000074
C13	C	0.738385	0.297485	0.000072
C14	C	0.645071	0.294971	0.000087
C15	C	0.608330	0.177534	0.000097
C16	C	0.664909	0.062604	0.000103
C17	C	0.758221	0.065120	0.000095
C18	C	0.470416	0.057369	0.000117
C19	C	0.377098	0.054853	0.000123
C20	C	0.357267	0.287220	0.000108
C21	C	0.450579	0.289736	0.000101
C22	C	0.507151	0.174805	0.000104
C23	C	1.062769	-0.057019	0.000107
C24	C	1.060093	-0.198617	0.000105
C25	C	0.973518	-0.265755	0.000089
C26	C	1.014406	-0.358357	0.081636
C27	C	1.014444	-0.358320	-0.081419
C28	C	1.101017	-0.289354	0.081720
C29	C	1.101043	-0.289307	-0.081409
C30	C	1.141994	-0.381882	0.000158
C31	C	1.221215	0.167106	0.000116
C32	C	1.320527	0.169774	0.000120
C33	C	1.052713	0.409357	0.000094
C34	C	1.055390	0.550955	0.000089
N35	N	1.057723	0.176151	0.235459
N36	N	1.057766	0.176177	-0.235255
C37	C	1.117992	0.089567	0.287508
C38	C	1.117998	0.089566	0.391611
C39	C	1.057738	0.176156	0.443663
C40	C	0.997462	0.262745	0.391607
C41	C	0.997453	0.262739	0.287505
C42	C	0.997487	0.262753	0.608587
C43	C	0.997497	0.262761	0.712695
C44	C	1.118032	0.089580	0.712693
C45	C	1.118023	0.089574	0.608591
C46	C	1.057748	0.176165	0.556542
H47	H	0.516476	-0.036219	0.000121
C48	C	1.238199	-0.449898	0.000281
H49	H	1.247167	-0.501452	-0.057651
H50	H	1.246710	-0.502498	0.057701
H51	H	1.280064	-0.387733	0.000872
C52	C	0.820453	-0.061289	0.000097
H53	H	0.881288	-0.042973	0.000101
H54	H	0.809236	-0.109440	-0.057571
H55	H	0.809236	-0.109435	0.057782
C56	C	0.778796	0.426663	0.000057
H57	H	0.842471	0.411706	0.000043
H58	H	0.759430	0.473986	0.057728
H59	H	0.759423	0.473987	-0.057625
H60	H	1.167095	0.019072	0.566211
H61	H	0.977809	-0.388855	-0.150368
H62	H	1.167109	0.019075	0.755077
C63	C	0.931190	0.358006	0.551334
H64	H	0.895310	0.409588	0.597242
H65	H	0.893659	0.312040	0.510732
H66	H	0.963712	0.411179	0.510717
H67	H	1.167073	0.019061	0.433989
C68	C	0.931156	0.357927	0.769951
H69	H	0.895232	0.409462	0.724045
H70	H	0.963618	0.411137	0.810581
H71	H	0.893659	0.311863	0.810541
C72	C	0.490992	0.418912	0.000091
H73	H	0.443937	0.487000	0.000100
H74	H	0.526981	0.424727	-0.057583
H75	H	0.526981	0.424711	0.057771
H76	H	1.137610	-0.258951	0.150739
H77	H	0.948375	0.333243	0.245128
C78	C	0.964914	-0.399694	0.174758
H79	H	0.905058	-0.359539	0.174655
H80	H	0.995090	-0.374929	0.232666
H81	H	0.964044	-0.490121	0.174387
C82	C	1.150494	-0.247919	-0.174535
H83	H	1.119656	-0.271257	-0.232424
H84	H	1.210006	-0.289281	-0.175117
H85	H	1.152308	-0.157667	-0.173530
H86	H	0.311201	0.380801	0.000110
H87	H	1.167067	0.019060	0.245134
C88	C	0.624501	-0.066576	0.000113
H89	H	0.671560	-0.134659	0.000122
H90	H	0.588511	-0.072385	-0.057557
H91	H	0.588514	-0.072391	0.057796
H92	H	0.948393	0.333244	0.433993
H93	H	0.599014	0.388551	0.000083
H94	H	0.347187	-0.040774	0.000132
H95	H	0.902336	-0.215280	0.000164
