data_functionalizedCrystal
_audit_creation_method	'MofGen! by Chris Wilmer'
_symmetry_space_group_name_H-M	'P1'
_symmetry_Int_Tables_number	1
_symmetry_cell_setting	triclinic
loop_
_symmetry_equiv_pos_as_xyz
  x,y,z
_cell_length_a	19.188930
_cell_length_b	19.188924
_cell_length_c	9.730223
_cell_angle_alpha	89.996615
_cell_angle_beta	89.985926
_cell_angle_gamma	83.143372
loop_
_atom_site_label
_atom_site_type_symbol
_atom_site_fract_x
_atom_site_fract_y
_atom_site_fract_z
O1	O	0.926139	0.087165	-0.114738
O2	O	1.426139	0.587165	0.385262
O3	O	0.722827	0.098899	-0.114644
O4	O	1.222827	0.598899	0.385356
O5	O	0.830353	-0.008624	-0.114678
O6	O	1.330353	0.491376	0.385322
O7	O	0.818613	0.194688	-0.114705
O8	O	1.318613	0.694688	0.385295
O9	O	0.830351	-0.008621	0.113902
O10	O	1.330351	0.491379	0.613902
O11	O	0.722826	0.098902	0.113935
O12	O	1.222826	0.598902	0.613935
O13	O	0.926137	0.087168	0.113842
O14	O	1.426137	0.587168	0.613842
Zn15	Zn	0.824481	0.093035	0.150181
Zn16	Zn	1.324481	0.593035	0.650181
Zn17	Zn	0.824483	0.093032	-0.150983
Zn18	Zn	1.324483	0.593032	0.349017
O19	O	0.818612	0.194691	0.113875
O20	O	1.318612	0.694691	0.613875
C21	C	0.696815	0.098521	-0.000342
C22	C	1.196815	0.598521	0.499658
C23	C	0.619311	0.097380	-0.000306
C24	C	1.119311	0.597380	0.499694
C25	C	0.574385	0.160471	-0.000336
C26	C	1.074385	0.660471	0.499664
C27	C	0.501562	0.159399	-0.000351
C28	C	1.001562	0.659399	0.499649
C29	C	0.473667	0.095233	-0.000364
C30	C	0.973667	0.595233	0.499636
C31	C	0.518602	0.032134	-0.000326
C32	C	1.018602	0.532134	0.499674
C33	C	0.591424	0.033207	-0.000297
C34	C	1.091424	0.533207	0.499703
N35	N	0.365688	0.046185	-0.078208
N36	N	0.865688	0.546185	0.421792
N37	N	0.296510	0.045169	-0.078238
N38	N	0.796510	0.545169	0.421762
C39	C	0.254258	0.091995	-0.000447
C40	C	0.754258	0.591995	0.499553
N41	N	0.283797	0.139885	0.077358
N42	N	0.783797	0.639885	0.577358
N43	N	0.352982	0.140902	0.077382
N44	N	0.852982	0.640902	0.577382
C45	C	0.394704	0.094062	-0.000394
C46	C	0.894704	0.594062	0.499606
C47	C	0.130368	0.153928	-0.000492
C48	C	0.630368	0.653928	0.499508
C49	C	0.057543	0.152854	-0.000498
C50	C	0.557543	0.652854	0.499502
C51	C	0.074585	0.025586	-0.000487
C52	C	0.574585	0.525586	0.499513
C53	C	0.147409	0.026663	-0.000466
C54	C	0.647409	0.526663	0.499534
C55	C	0.175295	0.090835	-0.000475
C56	C	0.675295	0.590835	0.499525
C57	C	0.829973	-0.034634	-0.000386
C58	C	1.329973	0.465366	0.499614
C59	C	0.828834	-0.112138	-0.000382
C60	C	1.328834	0.387862	0.499618
C61	C	0.828303	-0.148539	-0.124981
C62	C	1.328303	0.351461	0.375019
C63	C	0.827223	-0.221362	-0.124991
C64	C	1.327223	0.278638	0.375009
C65	C	0.826688	-0.257783	-0.000395
C66	C	1.326688	0.242217	0.499605
C67	C	0.827215	-0.221373	0.124221
C68	C	1.327215	0.278627	0.624221
C69	C	0.828288	-0.148551	0.124227
C70	C	1.328288	0.351449	0.624227
N71	N	0.864735	-0.377445	0.092321
N72	N	1.364735	0.122555	0.592321
N73	N	0.863718	-0.446623	0.092307
N74	N	1.363718	0.053377	0.592307
C75	C	0.823454	-0.477192	-0.000407
C76	C	1.323454	0.022808	0.499593
N77	N	0.784255	-0.435970	-0.093126
N78	N	1.284255	0.064030	0.406874
N79	N	0.785276	-0.366786	-0.093115
N80	N	1.285276	0.133214	0.406885
C81	C	0.825524	-0.336746	-0.000388
C82	C	1.325524	0.163254	0.499612
C83	C	0.821751	-0.592555	-0.125025
C84	C	1.321751	-0.092555	0.374975
C85	C	0.820667	-0.665379	-0.125030
C86	C	1.320667	-0.165379	0.374970
C87	C	0.820666	-0.665390	0.124185
C88	C	1.320666	-0.165390	0.624185
C89	C	0.821743	-0.592567	0.124187
C90	C	1.321743	-0.092567	0.624187
C91	C	0.822289	-0.556154	-0.000422
C92	C	1.322289	-0.056154	0.499578
C93	C	0.952149	0.087546	-0.000463
C94	C	1.452149	0.587546	0.499537
C95	C	1.029654	0.088687	-0.000508
C96	C	1.529654	0.588687	0.499492
C97	C	0.818992	0.220700	-0.000419
C98	C	1.318992	0.720700	0.499581
C99	C	0.820131	0.298205	-0.000432
C100	C	1.320131	0.798205	0.499568
N101	N	0.824485	0.093037	0.355717
N102	N	1.324485	0.593037	0.855717
N103	N	0.824485	0.093024	-0.356520
N104	N	1.324485	0.593024	0.143480
C105	C	0.872110	0.045442	0.427628
C106	C	1.372110	0.545442	0.927628
C107	C	0.872108	0.045433	0.571511
C108	C	1.372108	0.545433	1.071511
C109	C	0.776855	0.140622	0.571559
C110	C	1.276855	0.640622	1.071559
C111	C	0.776854	0.140626	0.427679
C112	C	1.276854	0.640626	0.927679
C113	C	0.919741	-0.002147	0.355667
C114	C	1.419741	0.497853	0.855667
C115	C	0.967369	-0.049746	0.427578
C116	C	1.467369	0.450254	0.927578
C117	C	0.967368	-0.049754	0.571461
C118	C	1.467368	0.450246	1.071461
C119	C	0.919737	-0.002164	0.643433
C120	C	1.419737	0.497836	1.143433
H121	H	0.597086	0.212725	-0.000346
H122	H	1.097086	0.712725	0.499654
H123	H	0.919748	-0.002143	0.238510
H124	H	1.419748	0.497857	0.738510
Br125	Br	1.031997	-0.114358	0.669056
Br126	Br	1.531997	0.385642	1.169056
H127	H	0.820231	-0.695014	-0.226497
H128	H	1.320231	-0.195014	0.273503
Br129	Br	0.822460	-0.543162	0.293295
Br130	Br	1.322460	-0.043162	0.793295
Br131	Br	0.829041	-0.099124	-0.294092
Br132	Br	1.329041	0.400876	0.205908
H133	H	0.826786	-0.251004	-0.226458
H134	H	1.326786	0.248996	0.273542
Br135	Br	1.031999	-0.114338	0.329909
Br136	Br	1.531999	0.385662	0.829909
Br137	Br	0.919730	-0.002186	0.838704
Br138	Br	1.419730	0.497814	1.338704
H139	H	0.738077	0.179368	0.630168
H140	H	1.238077	0.679368	1.130168
H141	H	0.628003	-0.018171	-0.000274
H142	H	1.128003	0.481829	0.499726
Br143	Br	0.440579	0.245029	-0.000383
Br144	Br	0.940579	0.745029	0.499617
H145	H	0.826777	-0.251032	0.225668
H146	H	1.326777	0.248968	0.725668
H147	H	0.495885	-0.020111	-0.000355
H148	H	0.995885	0.479889	0.499645
Br149	Br	0.712215	0.205218	0.330080
Br150	Br	1.212215	0.705218	0.830080
H151	H	0.153075	0.206181	-0.000479
H152	H	0.653075	0.706181	0.499521
H153	H	0.820225	-0.695043	0.225634
H154	H	1.320225	-0.195043	0.725634
H155	H	0.020965	0.204232	-0.000514
H156	H	0.520965	0.704232	0.499486
H157	H	0.051874	-0.026659	-0.000582
H158	H	0.551874	0.473341	0.499418
Br159	Br	0.208383	-0.058966	-0.000429
Br160	Br	0.708383	0.441034	0.499571
Br161	Br	0.829005	-0.099146	0.293339
Br162	Br	1.329005	0.400854	0.793339
H163	H	0.822192	-0.562906	-0.226489
H164	H	1.322192	-0.062906	0.273511
