data_functionalizedCrystal
_audit_creation_method	'MofGen! by Chris Wilmer'
_symmetry_space_group_name_H-M	'P1'
_symmetry_Int_Tables_number	1
_symmetry_cell_setting	triclinic
loop_
_symmetry_equiv_pos_as_xyz
  x,y,z
_cell_length_a	16.625547
_cell_length_b	13.032492
_cell_length_c	13.032721
_cell_angle_alpha	90.915902
_cell_angle_beta	97.204553
_cell_angle_gamma	82.815342
loop_
_atom_site_label
_atom_site_type_symbol
_atom_site_fract_x
_atom_site_fract_y
_atom_site_fract_z
Zn1	Zn	-1.137451	-0.633740	0.335723
Zn2	Zn	-1.133137	-0.483581	0.529524
Zn3	Zn	-1.017391	-0.461745	0.357560
Zn4	Zn	-0.983597	-0.655496	0.507665
O5	O	-1.067894	-0.558640	0.432618
O6	O	-1.249707	-0.613855	0.361440
O7	O	-1.130121	-0.336756	0.525000
O8	O	-1.049266	-0.466317	0.210738
O9	O	-1.246538	-0.503533	0.503825
O10	O	-1.137473	-0.592682	0.194693
O11	O	-1.045083	-0.320713	0.398659
O12	O	-0.900080	-0.487412	0.377463
O13	O	-0.991668	-0.796538	0.466569
O14	O	-0.875252	-0.629760	0.487744
O15	O	-1.104704	-0.780554	0.340244
O16	O	-1.097352	-0.524629	0.670551
O17	O	-0.987486	-0.650934	0.654491
C18	C	-0.858411	-0.558578	0.432602
C19	C	-0.768788	-0.558579	0.432617
C20	C	-0.696005	-0.558589	0.432617
C21	C	-0.604694	-0.558610	0.432618
C22	C	-0.531915	-0.558634	0.432623
C23	C	-0.440598	-0.558655	0.432626
C24	C	-1.090856	-0.291407	0.466497
C25	C	-1.100844	-0.177051	0.480733
C26	C	-1.038304	-0.592534	0.699836
C27	C	-1.025716	-0.607068	0.814149
C28	C	-0.278197	-0.558690	0.432632
C29	C	-0.367819	-0.558678	0.432632
C30	C	-1.044898	-0.826908	0.398532
C31	C	-1.035098	-0.941228	0.384007
C32	C	-1.062812	-0.118235	0.425018
C33	C	-1.073134	-0.000042	0.439730
C34	C	-1.097620	-0.524637	0.164354
C35	C	-1.110287	-0.510147	0.050035
C36	C	-1.074503	-0.551101	0.873019
C37	C	-1.061494	-0.566121	0.991167
H38	H	-1.022614	-0.155382	0.366423
F39	F	-0.994309	-0.643296	1.039607
F40	F	-1.177479	-0.432981	1.001597
H41	H	-1.113342	0.037101	0.498321
H42	H	-0.994898	0.021631	0.325406
F43	F	-1.153396	-0.128502	0.557312
F44	F	-1.141691	-0.473942	0.824573
H45	H	-0.974319	-0.666107	0.851217
