data_functionalizedCrystal
_audit_creation_method	'MofGen! by Chris Wilmer'
_symmetry_space_group_name_H-M	'P1'
_symmetry_Int_Tables_number	1
_symmetry_cell_setting	triclinic
loop_
_symmetry_equiv_pos_as_xyz
  x,y,z
_cell_length_a	17.038272
_cell_length_b	11.804365
_cell_length_c	13.339070
_cell_angle_alpha	74.887832
_cell_angle_beta	76.629575
_cell_angle_gamma	77.288374
loop_
_atom_site_label
_atom_site_type_symbol
_atom_site_fract_x
_atom_site_fract_y
_atom_site_fract_z
O1	O	1.097535	-0.098863	-0.204460
O2	O	0.869136	-0.098898	-0.200898
O3	O	0.957122	-0.098881	-0.053159
O4	O	1.009549	-0.098880	-0.352199
O5	O	0.933950	0.099170	-0.092011
O6	O	0.845964	0.099153	-0.239750
O7	O	1.074362	0.099188	-0.243312
Cu8	Cu	0.958047	0.117254	-0.245078
Cu9	Cu	0.985451	-0.116964	-0.199131
O10	O	0.986376	0.099171	-0.391051
C11	C	0.827720	0.000123	-0.217090
C12	C	0.738835	0.000109	-0.207442
N13	N	0.938778	0.281991	-0.277395
N14	N	1.004725	-0.281701	-0.166807
C15	C	0.707949	0.000110	-0.295999
C16	C	0.624427	0.000127	-0.286933
C17	C	0.571794	0.000133	-0.189308
C18	C	0.602684	0.000136	-0.100745
C19	C	0.686203	0.000128	-0.109813
C20	C	0.319075	0.000165	-0.157271
C21	C	0.235551	0.000169	-0.148209
C22	C	0.257299	0.000162	-0.334399
C23	C	0.340820	0.000147	-0.343457
C24	C	0.371703	0.000156	-0.254895
C25	C	0.486421	0.000146	-0.180038
C26	C	0.457073	0.000152	-0.264168
C27	C	1.115778	0.000165	-0.227119
C28	C	1.204665	0.000170	-0.236766
C29	C	0.936681	0.000141	-0.034133
C30	C	0.910284	0.000133	0.080442
C31	C	1.050992	0.655962	-0.089184
C32	C	1.065567	0.531303	-0.064732
C33	C	1.033871	0.468969	-0.117895
C34	C	0.987598	0.531306	-0.195515
C35	C	0.973027	0.655977	-0.219975
C36	C	0.955905	0.468984	-0.248687
C37	C	0.909632	0.531321	-0.326307
C38	C	0.895063	0.655980	-0.350763
C39	C	0.926759	0.718314	-0.297599
C40	C	0.970476	0.344313	-0.224227
C41	C	0.892511	0.344328	-0.355019
C42	C	0.877936	0.468987	-0.379471
C43	C	1.006818	0.000146	-0.410076
C44	C	1.033215	0.000147	-0.524650
C45	C	1.115531	0.000165	0.427564
C46	C	1.140333	0.000180	0.319914
C47	C	1.082823	0.000168	0.260041
C48	C	1.000507	0.000141	0.307828
C49	C	0.975701	0.000135	0.415487
C50	C	0.942993	0.000138	0.247964
C51	C	0.860676	0.000112	0.295751
C52	C	0.835875	0.000105	0.403400
C53	C	0.893385	0.000118	0.463273
C54	C	0.967799	0.000144	0.140305
C55	C	0.827968	0.000115	0.128228
C56	C	0.803166	0.000100	0.235878
H57	H	0.750798	0.000104	-0.375496
Cl58	Cl	0.699686	0.000064	0.295967
H59	H	0.559821	0.000158	-0.021259
Cl60	Cl	1.243815	0.000187	0.259851
H61	H	0.873195	0.000101	0.550933
Cl62	Cl	1.028645	0.265962	-0.126651
Cl63	Cl	0.908431	0.875035	-0.328336
H64	H	1.162346	0.000185	0.476320
Cl65	Cl	0.725030	0.000131	0.001519
H66	H	0.768846	0.000093	0.442304
Cl67	Cl	0.836903	0.734348	-0.448354
H68	H	0.599285	0.000126	-0.359046
H69	H	0.781138	0.000111	0.079478
Cl70	Cl	0.406983	0.000131	-0.466190
H71	H	0.232145	0.000158	-0.406501
Cl72	Cl	0.169380	0.000204	-0.025475
H73	H	1.103243	0.480553	-0.001536
Cl74	Cl	0.357888	0.000175	-0.045935
H75	H	0.443554	0.000185	-0.100557
Cl76	Cl	0.523241	0.000147	-0.386893
H77	H	1.045740	0.367466	-0.097983
H78	H	1.076800	0.706722	-0.045910
H79	H	0.840259	0.519757	-0.442671
H80	H	0.866703	0.293577	-0.398311
Cl81	Cl	1.114006	0.000180	0.124708
Cl82	Cl	1.071278	0.000177	0.080242
