data_functionalizedCrystal
_audit_creation_method	'MofGen! by Chris Wilmer'
_symmetry_space_group_name_H-M	'P1'
_symmetry_Int_Tables_number	1
_symmetry_cell_setting	triclinic
loop_
_symmetry_equiv_pos_as_xyz
  x,y,z
_cell_length_a	10.489741
_cell_length_b	14.971486
_cell_length_c	13.448316
_cell_angle_alpha	90.001801
_cell_angle_beta	89.993703
_cell_angle_gamma	95.923349
loop_
_atom_site_label
_atom_site_type_symbol
_atom_site_fract_x
_atom_site_fract_y
_atom_site_fract_z
O1	O	0.166222	-1.187893	-0.082577
O2	O	0.186128	-0.927607	-0.082604
O3	O	-0.009491	-1.063673	-0.082584
O4	O	0.361841	-1.051827	-0.082597
O5	O	-0.009503	-1.063655	0.082800
O6	O	0.186116	-0.927589	0.082780
O7	O	0.166210	-1.187876	0.082807
Cu8	Cu	0.176162	-1.057731	0.097894
Cu9	Cu	0.176176	-1.057752	-0.097691
O10	O	0.361829	-1.051810	0.082787
C11	C	0.185232	-0.894268	0.000085
C12	C	0.182564	-0.794956	0.000074
C13	C	-0.057019	-1.062769	0.000107
C14	C	-0.198617	-1.060093	0.000105
C15	C	0.167106	-1.221215	0.000116
C16	C	0.169774	-1.320527	0.000120
C17	C	-0.265755	-0.973518	0.000089
C18	C	-0.358357	-1.014406	0.081636
C19	C	-0.358320	-1.014444	-0.081419
C20	C	-0.289354	-1.101017	0.081720
C21	C	-0.289307	-1.101043	-0.081409
C22	C	-0.381882	-1.141994	0.000158
C23	C	0.409357	-1.052713	0.000094
C24	C	0.550955	-1.055390	0.000089
N25	N	0.176151	-1.057723	0.235459
C26	C	0.297485	-0.738385	0.000072
C27	C	0.294971	-0.645071	0.000087
C28	C	0.177534	-0.608330	0.000097
C29	C	0.062604	-0.664909	0.000103
C30	C	0.065120	-0.758221	0.000095
C31	C	0.057369	-0.470416	0.000117
C32	C	0.054853	-0.377098	0.000123
C33	C	0.287220	-0.357267	0.000108
C34	C	0.289736	-0.450579	0.000101
C35	C	0.174805	-0.507151	0.000104
N36	N	0.176177	-1.057766	-0.235255
C37	C	0.089567	-1.117992	0.287508
C38	C	0.089566	-1.117998	0.391611
C39	C	0.176156	-1.057738	0.443663
C40	C	0.262745	-0.997462	0.391607
C41	C	0.262739	-0.997453	0.287505
C42	C	0.262753	-0.997487	0.608587
C43	C	0.262761	-0.997497	0.712695
C44	C	0.089580	-1.118032	0.712693
C45	C	0.089574	-1.118023	0.608591
C46	C	0.176165	-1.057748	0.556542
H47	H	-0.388950	-0.977767	0.150571
H48	H	0.380801	-0.311201	0.000110
O49	O	-0.394729	-0.970872	-0.163772
C50	C	-0.399045	-0.966231	-0.342836
C51	C	-0.357775	-1.015682	-0.249662
H52	H	-0.369161	-1.002428	-0.412301
H53	H	-0.507565	-0.965206	-0.342506
H54	H	-0.350880	-0.894400	-0.342672
H55	H	-0.405850	-1.087533	-0.249766
H56	H	-0.249245	-1.016633	-0.250028
H57	H	0.019072	-1.167095	0.566211
H58	H	0.019075	-1.167109	0.755077
H59	H	-0.040774	-0.347187	0.000132
H60	H	0.019061	-1.167073	0.433989
H61	H	0.393115	-0.768291	0.000063
O62	O	0.346729	-0.938830	0.763222
C63	C	0.421094	-0.783783	0.795067
C64	C	0.325917	-0.850127	0.737798
H65	H	0.404319	-0.712053	0.774517
H66	H	0.406214	-0.794074	0.878421
H67	H	0.523283	-0.796116	0.774607
H68	H	0.223690	-0.837834	0.758175
H69	H	0.340909	-0.839821	0.654458
O70	O	0.346920	-0.939061	0.557914
C71	C	0.521119	-0.921134	0.440406
C72	C	0.425852	-0.987393	0.497713
H73	H	0.584977	-0.960184	0.391736
H74	H	0.466011	-0.876107	0.391614
H75	H	0.582956	-0.878049	0.495506
H76	H	0.363990	-1.030537	0.442685
H77	H	0.481038	-1.032358	0.546520
H78	H	-0.028461	-0.804281	0.000097
H79	H	-0.258951	-1.137610	0.150739
O80	O	-0.441784	-1.227001	0.000392
C81	C	-0.474505	-1.368633	0.086552
C82	C	-0.406607	-1.272383	0.086417
H83	H	-0.446070	-1.405358	0.156085
H84	H	-0.582737	-1.366028	0.085955
H85	H	-0.444905	-1.405790	0.017666
H86	H	-0.436103	-1.235170	0.155291
H87	H	-0.298389	-1.275053	0.086962
O88	O	-0.252721	-1.144847	-0.163544
C89	C	-0.151322	-1.270226	-0.227505
C90	C	-0.192720	-1.220728	-0.134395
H91	H	-0.102779	-1.331574	-0.203971
H92	H	-0.239158	-1.292519	-0.274693
H93	H	-0.081298	-1.223182	-0.272790
H94	H	-0.262716	-1.267720	-0.089033
H95	H	-0.104824	-1.198420	-0.087280
H96	H	0.019060	-1.167067	0.245134
H97	H	0.388551	-0.599014	0.000083
H98	H	-0.036219	-0.516476	0.000121
O99	O	0.346682	-0.938887	0.442279
C100	C	0.373548	-0.816888	0.559787
C101	C	0.278344	-0.883185	0.502483
H102	H	0.318334	-0.771824	0.608460
H103	H	0.437345	-0.855869	0.608577
H104	H	0.435457	-0.773848	0.504685
H105	H	0.216350	-0.926242	0.557513
H106	H	0.214635	-0.844150	0.453679
O107	O	0.403895	-0.486158	-0.000048
C108	C	0.603234	-0.497785	-0.085781
C109	C	0.474003	-0.457420	-0.085725
H110	H	0.659941	-0.474582	-0.155054
H111	H	0.660120	-0.474525	-0.016618
H112	H	0.585267	-0.574194	-0.085741
H113	H	0.491852	-0.381010	-0.085801
H114	H	0.417157	-0.480752	-0.154882
O115	O	-0.051442	-0.629178	-0.000063
C116	C	-0.189096	-0.535292	-0.085702
C117	C	-0.059906	-0.575712	-0.085646
H118	H	-0.195970	-0.492041	-0.154878
H119	H	-0.270855	-0.591720	-0.085763
H120	H	-0.196067	-0.492141	-0.016455
H121	H	-0.052810	-0.618854	-0.154881
H122	H	0.021791	-0.519241	-0.085532
H123	H	-0.215280	-0.902336	0.000164
O124	O	0.347026	-0.939000	0.236986
C125	C	0.568687	-0.887966	0.205155
C126	C	0.473376	-0.954235	0.262411
H127	H	0.670861	-0.900248	0.225706
H128	H	0.553919	-0.898308	0.121799
H129	H	0.551829	-0.816232	0.225626
H130	H	0.490176	-1.025995	0.242023
H131	H	0.488167	-0.943814	0.345753
