data_functionalizedCrystal
_audit_creation_method	'MofGen! by Chris Wilmer'
_symmetry_space_group_name_H-M	'P1'
_symmetry_Int_Tables_number	1
_symmetry_cell_setting	triclinic
loop_
_symmetry_equiv_pos_as_xyz
  x,y,z
_cell_length_a	18.050591
_cell_length_b	19.077068
_cell_length_c	19.076919
_cell_angle_alpha	85.529249
_cell_angle_beta	92.275118
_cell_angle_gamma	87.676702
loop_
_atom_site_label
_atom_site_type_symbol
_atom_site_fract_x
_atom_site_fract_y
_atom_site_fract_z
Zn1	Zn	1.105350	0.296760	-0.409964
Zn2	Zn	1.605350	0.796760	0.090036
Zn3	Zn	1.105258	0.409914	-0.296808
Zn4	Zn	1.605258	0.909914	0.203192
Zn5	Zn	0.986363	0.292036	-0.292081
Zn6	Zn	1.486363	0.792036	0.207919
Zn7	Zn	0.975925	0.414601	-0.414638
Zn8	Zn	1.475925	0.914601	0.085362
O9	O	1.043224	0.353328	-0.353373
O10	O	1.543224	0.853328	0.146627
O11	O	1.209261	0.311786	-0.394975
O12	O	1.709261	0.811786	0.105025
O13	O	1.093816	0.390338	-0.197534
O14	O	1.593816	0.890338	0.302466
O15	O	1.006553	0.194014	-0.303784
O16	O	1.506553	0.694014	0.196216
O17	O	1.209193	0.394919	-0.311840
O18	O	1.709193	0.894919	0.188160
O19	O	1.093973	0.197485	-0.390391
O20	O	1.593973	0.697485	0.109609
O21	O	1.006464	0.303734	-0.194062
O22	O	1.506464	0.803734	0.305938
O23	O	0.881055	0.308280	-0.308317
O24	O	1.381055	0.808280	0.191683
O25	O	0.988764	0.402908	-0.512665
O26	O	1.488764	0.902908	-0.012665
O27	O	0.873386	0.398328	-0.398359
O28	O	1.373386	0.898328	0.101641
O29	O	1.083852	0.316331	-0.509230
O30	O	1.583852	0.816331	-0.009230
O31	O	1.083695	0.509185	-0.316373
O32	O	1.583695	1.009185	0.183627
O33	O	0.988674	0.512629	-0.402943
O34	O	1.488674	1.012629	0.097057
C35	C	1.035062	0.536486	-0.360694
C36	C	1.535062	1.036486	0.139306
C37	C	1.031637	0.614842	-0.363849
C38	C	1.531637	1.114842	0.136151
C39	C	0.850275	0.353300	-0.353333
C40	C	1.350275	0.853300	0.146667
C41	C	0.767729	0.353306	-0.353333
C42	C	1.267729	0.853306	0.146667
C43	C	1.035154	0.360670	-0.537241
C44	C	1.535154	0.860670	-0.037241
C45	C	1.031714	0.363798	-0.615594
C46	C	1.531714	0.863798	-0.115594
C47	C	0.572424	0.304288	-0.304474
C48	C	1.072424	0.804288	0.195526
C49	C	0.520935	0.367890	-0.289705
C50	C	1.020935	0.867890	0.210295
C51	C	0.616596	0.353329	-0.353366
C52	C	1.116596	0.853329	0.146634
C53	C	0.521003	0.289749	-0.368134
C54	C	1.021003	0.789749	0.131866
C55	C	0.470609	0.353345	-0.353396
C56	C	0.970609	0.853345	0.146604
C57	C	0.566193	0.416963	-0.338564
C58	C	1.066193	0.916963	0.161436
C59	C	0.566267	0.338780	-0.417021
C60	C	1.066267	0.838780	0.082979
C61	C	0.514796	0.402428	-0.402278
C62	C	1.014796	0.902428	0.097722
C63	C	0.700695	0.353318	-0.353347
C64	C	1.200695	0.853318	0.146653
C65	C	0.386511	0.353362	-0.353415
C66	C	0.886511	0.853362	0.146585
C67	C	1.236927	0.353356	-0.353413
C68	C	1.736927	0.853356	0.146587
C69	C	1.319471	0.353369	-0.353431
C70	C	1.819471	0.853369	0.146569
C71	C	1.051438	0.169456	-0.346039
C72	C	1.551438	0.669456	0.153961
C73	C	1.054938	0.091100	-0.342914
C74	C	1.554938	0.591100	0.157086
C75	C	1.079535	0.649840	-0.320297
C76	C	1.579535	1.149840	0.179703
C77	C	1.076318	0.723464	-0.323269
C78	C	1.576318	1.223464	0.176731
C79	C	1.025198	0.762090	-0.369790
C80	C	1.525198	1.262090	0.130210
C81	C	0.977298	0.727088	-0.413347
C82	C	1.477298	1.227088	0.086653
C83	C	0.980519	0.653465	-0.410378
C84	C	1.480519	1.153465	0.089622
C85	C	1.010259	0.982475	-0.383502
C86	C	1.510259	1.482475	0.116498
C87	C	1.007040	1.056103	-0.386466
C88	C	1.507040	1.556103	0.113534
C89	C	1.106061	1.052474	-0.296388
C90	C	1.606061	1.552474	0.203612
C91	C	1.109274	0.978849	-0.293421
C92	C	1.609274	1.478849	0.206579
C93	C	1.061377	0.943854	-0.336980
C94	C	1.561377	1.443854	0.163020
N95	N	1.021907	0.837346	-0.372827
N96	N	1.521907	1.337346	0.127173
N97	N	1.064672	0.868599	-0.333946
N98	N	1.564672	1.368599	0.166054
C99	C	1.079603	0.320194	-0.650618
C100	C	1.579603	0.820194	-0.150618
C101	C	1.076363	0.323131	-0.724239
C102	C	1.576363	0.823131	-0.224239
C103	C	1.025237	0.369676	-0.762836
C104	C	1.525237	0.869676	-0.262836
C105	C	0.977343	0.413282	-0.727807
C106	C	1.477343	0.913282	-0.227807
C107	C	0.980580	0.410341	-0.654187
C108	C	1.480580	0.910341	-0.154187
C109	C	1.010243	0.383302	-0.983208
C110	C	1.510243	0.883302	-0.483208
C111	C	1.007011	0.386241	-1.056833
C112	C	1.507011	0.886241	-0.556833
C113	C	1.106031	0.296089	-1.053261
C114	C	1.606031	0.796089	-0.553261
C115	C	1.109266	0.293155	-0.979639
C116	C	1.609266	0.793155	-0.479639
C117	C	1.061370	0.336758	-0.944617
C118	C	1.561370	0.836758	-0.444617
N119	N	1.021925	0.372681	-0.838089
N120	N	1.521925	0.872681	-0.338089
N121	N	1.064678	0.333749	-0.869365
N122	N	1.564678	0.833749	-0.369365
C123	C	1.051308	0.345964	-0.170218
C124	C	1.551308	0.845964	0.329782
C125	C	1.054900	0.342637	-0.091857
C126	C	1.554900	0.842637	0.408143
H127	H	0.597591	0.262856	-0.263087
H128	H	1.097591	0.762856	0.236913
H129	H	0.971252	0.418817	-0.954702
H130	H	1.471252	0.918817	-0.454702
H131	H	0.586266	0.326442	-0.470823
H132	H	1.086266	0.826442	0.029177
O133	O	0.927543	0.764527	-0.458502
O134	O	1.427543	1.264527	0.041498
C135	C	0.798700	0.788517	-0.493485
C136	C	1.298700	1.288517	0.006515
C137	C	0.854970	0.746063	-0.442313
C138	C	1.354970	1.246063	0.057687
H139	H	0.740012	0.773614	-0.480406
H140	H	1.240012	1.273614	0.019594
H141	H	0.809773	0.776264	-0.549765
H142	H	1.309773	1.276264	-0.049765
H143	H	0.804659	0.847146	-0.488139
H144	H	1.304659	1.347146	0.011861
H145	H	0.849043	0.687421	-0.447596
H146	H	1.349043	1.187421	0.052404
H147	H	0.843881	0.758375	-0.386053
H148	H	1.343881	1.258375	0.113947
O149	O	0.957480	1.093707	-0.431698
O150	O	1.457480	1.593707	0.068302
C151	C	0.939608	1.180577	-0.530229
C152	C	1.439608	1.680577	-0.030229
C153	C	0.995810	1.138048	-0.479046
C154	C	1.495810	1.638048	0.020954
H155	H	0.970576	1.216426	-0.568532
H156	H	1.470576	1.716426	-0.068532
H157	H	0.900724	1.213840	-0.499256
H158	H	1.400724	1.713840	0.000744
H159	H	0.905911	1.142908	-0.560822
H160	H	1.405911	1.642908	-0.060822
H161	H	1.029558	1.175666	-0.448441
H162	H	1.529558	1.675666	0.051559
H163	H	1.034643	1.104776	-0.510060
H164	H	1.534643	1.604776	-0.010060
O165	O	0.927743	0.458477	-0.765405
O166	O	1.427743	0.958477	-0.265405
C167	C	0.878840	0.502933	-0.880401
C168	C	1.378840	1.002933	-0.380401
C169	C	0.935059	0.451728	-0.837910
C170	C	1.435059	0.951728	-0.337910
H171	H	0.884726	0.497484	-0.939028
H172	H	1.384726	0.997484	-0.439028
H173	H	0.889975	0.559218	-0.868248
H174	H	1.389975	1.059218	-0.368248
H175	H	0.820158	0.489970	-0.865374
H176	H	1.320158	0.989970	-0.365374
H177	H	0.993763	0.464626	-0.852913
H178	H	1.493763	0.964626	-0.352913
H179	H	0.923860	0.395458	-0.850067
H180	H	1.423860	0.895458	-0.350067
H181	H	0.501047	0.235979	-0.380589
H182	H	1.001047	0.735979	0.119411
H183	H	1.121159	0.618395	-0.282411
H184	H	1.621159	1.118395	0.217589
H185	H	0.941576	0.445841	-0.625671
H186	H	1.441576	0.945841	-0.125671
H187	H	1.115361	0.287625	-0.752752
H188	H	1.615361	0.787625	-0.252752
O189	O	0.497133	0.382468	-0.225455
O190	O	0.997133	0.882468	0.274545
C191	C	0.499663	0.347289	-0.101264
C192	C	0.999663	0.847289	0.398736
C193	C	0.526654	0.330695	-0.173988
C194	C	1.026654	0.830695	0.326012
H195	H	0.523531	0.305449	-0.059631
H196	H	1.023531	0.805449	0.440369
H197	H	0.436465	0.347629	-0.102003
H198	H	0.936465	0.847629	0.397997
H199	H	0.519052	0.401113	-0.088315
H200	H	1.019052	0.901113	0.411685
H201	H	0.507317	0.276869	-0.186982
H202	H	1.007317	0.776869	0.313018
H203	H	0.589850	0.330402	-0.173211
H204	H	1.089850	0.830402	0.326789
O205	O	1.122875	0.757348	-0.280889
O206	O	1.622875	1.257348	0.219111
C207	C	1.221456	0.745980	-0.191256
C208	C	1.721456	1.245980	0.308744
C209	C	1.168758	0.707518	-0.239202
C210	C	1.668758	1.207518	0.260798
H211	H	1.258576	0.705710	-0.157551
H212	H	1.758576	1.205710	0.342449
H213	H	1.187538	0.778997	-0.155709
H214	H	1.687538	1.278997	0.344291
H215	H	1.257303	0.781719	-0.225057
H216	H	1.757303	1.281719	0.274943
H217	H	1.132900	0.671744	-0.205457
H218	H	1.632900	1.171744	0.294543
H219	H	1.202720	0.674546	-0.274753
H220	H	1.702720	1.174546	0.225247
H221	H	0.586023	0.470753	-0.326026
H222	H	1.086023	0.970753	0.173974
H223	H	0.965375	0.424146	-1.088257
H224	H	1.465375	0.924146	-0.588257
H225	H	1.121238	0.282294	-0.619198
H226	H	1.621238	0.782294	-0.119198
O227	O	0.484958	0.452055	-0.451545
O228	O	0.984958	0.952055	0.048455
C229	C	0.474251	0.575126	-0.491657
C230	C	0.974251	1.075126	0.008343
C231	C	0.508079	0.518995	-0.435812
C232	C	1.008079	1.018995	0.064188
H233	H	0.492944	0.629257	-0.478965
H234	H	0.992944	1.129257	0.021035
H235	H	0.411124	0.574520	-0.491625
H236	H	0.911124	1.074520	0.008375
H237	H	0.493685	0.563141	-0.545761
H238	H	0.993685	1.063141	-0.045761
H239	H	0.488703	0.530942	-0.381681
H240	H	0.988703	1.030942	0.118319
H241	H	0.571203	0.519613	-0.435906
H242	H	1.071203	1.019613	0.064094
O243	O	1.158879	0.247973	-0.942041
O244	O	1.658879	0.747973	-0.442041
C245	C	1.207655	0.203397	-0.827039
C246	C	1.707655	0.703397	-0.327039
C247	C	1.151460	0.254624	-0.869533
C248	C	1.651460	0.754624	-0.369533
H249	H	1.201665	0.208746	-0.768408
H250	H	1.701665	0.708746	-0.268408
H251	H	1.266383	0.216324	-0.841949
H252	H	1.766383	0.716324	-0.341949
H253	H	1.196482	0.147153	-0.839307
H254	H	1.696482	0.647153	-0.339307
H255	H	1.162564	0.310885	-0.857288
H256	H	1.662564	0.810885	-0.357288
H257	H	1.092750	0.241635	-0.854617
H258	H	1.592750	0.741635	-0.354617
O259	O	1.159005	0.941439	-0.248218
O260	O	1.659005	1.441439	0.251782
C261	C	1.256860	0.945611	-0.159167
C262	C	1.756860	1.445611	0.340833
C263	C	1.200588	0.988065	-0.210338
C264	C	1.700588	1.488065	0.289662
H265	H	1.290485	0.983289	-0.128517
H266	H	1.790485	1.483289	0.371483
H267	H	1.295800	0.912415	-0.190150
H268	H	1.795800	1.412415	0.309850
H269	H	1.225913	0.909689	-0.120914
H270	H	1.725913	1.409689	0.379086
H271	H	1.231473	1.024025	-0.248603
H272	H	1.731473	1.524025	0.251397
H273	H	1.161650	1.021214	-0.179309
H274	H	1.661650	1.521214	0.320691
H275	H	1.145057	1.080976	-0.260926
H276	H	1.645057	1.580976	0.239074
H277	H	0.971257	0.953987	-0.418968
H278	H	1.471257	1.453987	0.081032
O279	O	0.934021	0.619546	-0.452786
O280	O	1.434021	1.119546	0.047214
C281	C	0.893638	0.601745	-0.571756
C282	C	1.393638	1.101745	-0.071756
C283	C	0.946322	0.640216	-0.523805
C284	C	1.446322	1.140216	-0.023805
H285	H	0.903576	0.618431	-0.629184
H286	H	1.403576	1.118431	-0.129184
H287	H	0.833658	0.615783	-0.559967
H288	H	1.333658	1.115783	-0.059967
H289	H	0.904715	0.542492	-0.561608
H290	H	1.404715	1.042492	-0.061608
H291	H	0.935313	0.699477	-0.533926
H292	H	1.435313	1.199477	-0.033926
H293	H	1.006285	0.626120	-0.535603
H294	H	1.506285	1.126120	-0.035603
H295	H	1.145024	0.260588	-1.081784
H296	H	1.645024	0.760588	-0.581784
