data_functionalizedCrystal
_audit_creation_method	'MofGen! by Chris Wilmer'
_symmetry_space_group_name_H-M	'P1'
_symmetry_Int_Tables_number	1
_symmetry_cell_setting	triclinic
loop_
_symmetry_equiv_pos_as_xyz
  x,y,z
_cell_length_a	10.489741
_cell_length_b	10.654550
_cell_length_c	9.565339
_cell_angle_alpha	89.994478
_cell_angle_beta	90.000413
_cell_angle_gamma	95.487962
loop_
_atom_site_label
_atom_site_type_symbol
_atom_site_fract_x
_atom_site_fract_y
_atom_site_fract_z
O1	O	1.693965	-0.177196	0.116170
O2	O	1.322761	-0.193828	0.116191
O3	O	1.516898	-0.002777	0.116175
O4	O	1.499829	-0.368247	0.116186
O5	O	1.516887	-0.002763	-0.116345
O6	O	1.322750	-0.193814	-0.116329
O7	O	1.693954	-0.177182	-0.116350
Zn8	Zn	1.508350	-0.185496	-0.153257
Zn9	Zn	1.508365	-0.185514	0.153098
O10	O	1.499817	-0.368234	-0.116334
C11	C	1.275225	-0.192565	-0.000066
C12	C	1.133597	-0.188807	-0.000058
C13	C	1.515639	0.044029	-0.000084
C14	C	1.511889	0.183474	-0.000079
N15	N	1.508350	-0.185483	-0.362337
C16	C	1.065516	-0.067246	-0.000075
C17	C	0.973367	-0.124677	0.114568
C18	C	0.973390	-0.124693	-0.114678
C19	C	1.043313	-0.246288	0.114680
C20	C	1.043346	-0.246286	-0.114670
C21	C	0.951224	-0.303805	0.000002
C22	C	1.741491	-0.178445	-0.000090
C23	C	1.883118	-0.182204	-0.000089
C24	C	1.501076	-0.415039	-0.000073
C25	C	1.504826	-0.554484	-0.000069
C26	C	1.626194	0.262906	-0.000089
C27	C	1.622663	0.393928	-0.000079
C28	C	1.390513	0.366074	-0.000054
C29	C	1.394045	0.235054	-0.000054
C30	C	1.744038	0.211326	-0.000114
C31	C	1.858352	0.290759	-0.000127
C32	C	1.854821	0.421782	-0.000117
C33	C	1.736976	0.473371	-0.000094
N34	N	1.508376	-0.185518	0.362177
C35	C	1.598339	-0.097314	0.453327
C36	C	1.623803	-0.211096	0.546560
C37	C	1.482943	-0.071711	0.546499
C38	C	1.533897	-0.299358	0.453359
C39	C	1.392986	-0.159897	0.453290
C40	C	1.418401	-0.273761	0.546481
H41	H	1.115254	0.032684	0.000065
H42	H	1.300968	0.170377	-0.000047
C43	C	1.261224	-0.130584	0.397888
H44	H	1.243290	-0.049660	0.429719
H45	H	1.197134	-0.192400	0.431168
H46	H	1.261970	-0.131573	0.298581
H47	H	1.954297	0.248746	-0.000110
H48	H	1.721373	-0.232761	0.587529
H49	H	0.901752	-0.403841	0.000067
H50	H	1.461442	0.024519	0.587414
H51	H	1.074121	-0.297688	0.211712
C52	C	0.931495	-0.055205	0.245493
H53	H	0.970997	0.028840	0.245354
H54	H	0.956592	-0.097586	0.326909
H55	H	0.841059	-0.053983	0.244965
H56	H	1.074363	-0.297673	-0.211595
H57	H	1.947901	0.486453	-0.000112
C58	C	1.315606	-0.374606	0.601408
H59	H	1.255066	-0.335330	0.656061
H60	H	1.355071	-0.433590	0.657351
H61	H	1.273249	-0.417100	0.524689
H62	H	1.674481	-0.022824	0.412426
C63	C	0.931571	-0.055181	-0.245615
H64	H	0.971097	0.028855	-0.245465
H65	H	0.841142	-0.053954	-0.245136
H66	H	0.956705	-0.097546	-0.327026
H67	H	1.746926	0.104642	-0.000127
H68	H	1.734110	0.580059	-0.000071
H69	H	1.294569	0.408088	-0.000038
C70	C	1.563106	-0.429385	0.398332
H71	H	1.562982	-0.428590	0.299015
H72	H	1.499572	-0.492057	0.430972
H73	H	1.644807	-0.447710	0.431043
