data_functionalizedCrystal
_audit_creation_method	'MofGen! by Chris Wilmer'
_symmetry_space_group_name_H-M	'P1'
_symmetry_Int_Tables_number	1
_symmetry_cell_setting	triclinic
loop_
_symmetry_equiv_pos_as_xyz
  x,y,z
_cell_length_a	19.288840
_cell_length_b	14.044220
_cell_length_c	18.366186
_cell_angle_alpha	89.993222
_cell_angle_beta	89.983729
_cell_angle_gamma	88.157446
loop_
_atom_site_label
_atom_site_type_symbol
_atom_site_fract_x
_atom_site_fract_y
_atom_site_fract_z
O1	O	0.928952	0.118100	-0.060674
O2	O	0.727715	0.134072	-0.060649
O3	O	0.825313	-0.011885	-0.060654
O4	O	0.831354	0.264058	-0.060669
O5	O	0.825295	-0.011892	0.060445
O6	O	0.727697	0.134065	0.060450
O7	O	0.928933	0.118093	0.060425
Zn8	Zn	0.828312	0.126078	0.079665
Zn9	Zn	0.828337	0.126087	-0.079889
O10	O	0.831336	0.264050	0.060430
C11	C	0.701796	0.133559	-0.000096
C12	C	0.624594	0.132028	-0.000087
C13	C	0.588353	0.131296	-0.066100
C14	C	0.515813	0.129847	-0.066109
C15	C	0.479517	0.129111	-0.000101
C16	C	0.515766	0.129848	0.065921
C17	C	0.588304	0.131306	0.065928
C18	C	0.366467	0.071292	0.050464
C19	C	0.293930	0.069828	0.050454
C20	C	0.255785	0.124617	-0.000119
C21	C	0.290185	0.180858	-0.050695
C22	C	0.362724	0.182316	-0.050688
C23	C	0.400861	0.127530	-0.000101
C24	C	0.140888	0.122316	-0.066147
C25	C	0.068346	0.120872	-0.066153
C26	C	0.068301	0.120863	0.065879
C27	C	0.140841	0.122316	0.065883
C28	C	0.177130	0.123037	-0.000132
C29	C	0.822659	-0.047191	-0.000104
C30	C	0.814772	-0.152383	-0.000102
C31	C	0.800351	-0.344981	-0.000111
C32	C	0.856295	-0.402860	-0.000120
C33	C	0.848271	-0.510028	-0.000125
C34	C	0.808374	-0.237802	-0.000106
C35	C	0.954852	0.118607	-0.000129
C36	C	1.032055	0.120138	-0.000144
C37	C	0.833989	0.299357	-0.000122
C38	C	0.841877	0.404548	-0.000129
N39	N	0.828300	0.126071	0.188556
N40	N	0.828353	0.126087	-0.188780
C41	C	0.871534	0.061473	0.226654
C42	C	0.871538	0.061469	0.302882
C43	C	0.828316	0.126079	0.341009
C44	C	0.785074	0.190682	0.302901
C45	C	0.785066	0.190678	0.226675
C46	C	0.824566	0.212423	0.461765
C47	C	0.824579	0.212428	0.537990
C48	C	0.828337	0.126091	0.576116
C49	C	0.832097	0.039745	0.538008
C50	C	0.832089	0.039741	0.461782
C51	C	0.828320	0.126090	0.423663
C52	C	0.871577	0.061483	0.696869
C53	C	0.871577	0.061477	0.773098
C54	C	0.785116	0.190699	0.773116
C55	C	0.785113	0.190696	0.696888
C56	C	0.828347	0.126089	0.658770
H57	H	0.617895	0.131884	-0.119854
F58	F	0.926774	-0.362429	-0.000123
F59	F	0.399333	0.242172	-0.104511
F60	F	0.836084	-0.052152	0.421227
F61	F	0.729877	-0.385411	-0.000106
F62	F	0.820582	0.304324	0.578540
F63	F	0.917545	-0.007290	0.186087
H64	H	0.821494	0.282733	0.430729
F65	F	0.739071	0.259442	0.343479
H66	H	0.259129	0.225476	-0.091875
H67	H	0.749911	0.243302	0.665867
H68	H	0.906746	0.008863	0.333907
H69	H	0.170435	0.122913	-0.119900
F70	F	0.739049	0.259435	0.186126
F71	F	0.029776	0.120101	-0.136417
H72	H	0.835156	-0.030559	0.569049
H73	H	0.486300	0.129253	-0.119866
H74	H	0.397519	0.026674	0.091650
F75	F	0.179413	0.123090	0.136144
H76	H	0.906779	0.008873	0.665832
F77	F	0.917590	-0.007285	0.813647
F78	F	0.739111	0.259456	0.813690
H79	H	0.265927	0.024029	0.091633
F80	F	0.029677	0.120088	0.136130
H81	H	0.486209	0.129250	0.119665
F82	F	0.626876	0.132085	0.136191
