data_functionalizedCrystal
_audit_creation_method	'MofGen! by Chris Wilmer'
_symmetry_space_group_name_H-M	'P1'
_symmetry_Int_Tables_number	1
_symmetry_cell_setting	triclinic
loop_
_symmetry_equiv_pos_as_xyz
  x,y,z
_cell_length_a	21.395362
_cell_length_b	19.805405
_cell_length_c	21.395355
_cell_angle_alpha	89.980090
_cell_angle_beta	89.956060
_cell_angle_gamma	90.042288
loop_
_atom_site_label
_atom_site_type_symbol
_atom_site_fract_x
_atom_site_fract_y
_atom_site_fract_z
Zn1	Zn	0.957878	-0.269255	-0.354580
Zn2	Zn	1.457878	0.230745	0.145420
Zn3	Zn	0.957789	-0.382425	-0.249800
Zn4	Zn	1.457789	0.117575	0.250200
Zn5	Zn	0.853093	-0.269286	-0.249781
Zn6	Zn	1.353093	0.230714	0.250219
Zn7	Zn	0.853070	-0.382438	-0.354504
Zn8	Zn	1.353070	0.117562	0.145496
O9	O	0.905458	-0.325851	-0.302166
O10	O	1.405458	0.174149	0.197834
O11	O	1.045544	-0.284248	-0.340720
O12	O	1.545544	0.215752	0.159280
O13	O	0.943873	-0.367424	-0.162119
O14	O	1.443873	0.132576	0.337881
O15	O	0.867040	-0.174565	-0.263706
O16	O	1.367040	0.325435	0.236294
O17	O	1.045478	-0.367393	-0.263738
O18	O	1.545478	0.132607	0.236262
O19	O	0.944025	-0.174542	-0.340701
O20	O	1.444025	0.325458	0.159299
O21	O	0.866953	-0.284302	-0.162105
O22	O	1.366953	0.215698	0.337895
O23	O	0.765412	-0.284315	-0.263633
O24	O	1.265412	0.215685	0.236367
O25	O	0.867001	-0.367417	-0.442192
O26	O	1.367001	0.132583	0.057808
O27	O	0.765395	-0.367448	-0.340573
O28	O	1.265395	0.132552	0.159427
O29	O	0.944003	-0.284261	-0.442247
O30	O	1.444003	0.215739	0.057753
O31	O	0.943850	-0.477143	-0.263665
O32	O	1.443850	0.022857	0.236335
O33	O	0.866914	-0.477153	-0.340591
O34	O	1.366914	0.022847	0.159409
C35	C	0.742670	-0.325887	-0.302093
C36	C	1.242670	0.174113	0.197907
C37	C	0.673029	-0.325918	-0.302077
C38	C	1.173029	0.174082	0.197923
C39	C	0.905387	-0.501707	-0.302136
C40	C	1.405387	-0.001707	0.197864
C41	C	0.905414	-0.576939	-0.302144
C42	C	1.405414	-0.076939	0.197856
C43	C	0.640323	-0.369263	-0.342080
C44	C	1.140323	0.130737	0.157920
C45	C	0.574888	-0.369246	-0.342108
C46	C	1.074888	0.130754	0.157892
C47	C	0.542160	-0.325892	-0.302122
C48	C	1.042160	0.174108	0.197878
C49	C	0.574874	-0.282539	-0.262116
C50	C	1.074874	0.217461	0.237884
C51	C	0.640308	-0.282553	-0.262094
C52	C	1.140308	0.217447	0.237906
C53	C	0.438435	-0.320440	-0.245717
C54	C	0.938435	0.179560	0.254283
C55	C	0.373002	-0.320431	-0.245738
C56	C	0.873002	0.179569	0.254262
C57	C	0.340340	-0.325848	-0.302191
C58	C	0.840340	0.174152	0.197809
C59	C	0.373118	-0.331287	-0.358624
C60	C	0.873118	0.168713	0.141376
C61	C	0.438552	-0.331301	-0.358602
C62	C	0.938552	0.168699	0.141398
C63	C	0.471208	-0.325873	-0.302142
C64	C	0.971208	0.174127	0.197858
C65	C	0.236682	-0.369177	-0.342227
C66	C	0.736682	0.130823	0.157773
C67	C	0.171245	-0.369156	-0.342256
C68	C	0.671245	0.130844	0.157744
C69	C	0.171232	-0.282452	-0.262259
C70	C	0.671232	0.217548	0.237741
C71	C	0.236668	-0.282470	-0.262236
C72	C	0.736668	0.217530	0.237764
C73	C	0.269388	-0.325836	-0.302219
C74	C	0.769388	0.174164	0.197781
C75	C	0.945514	-0.612255	-0.262130
C76	C	1.445514	-0.112255	0.237870
C77	C	0.945540	-0.682944	-0.262144
C78	C	1.445540	-0.182944	0.237856
C79	C	0.905464	-0.718315	-0.302169
C80	C	1.405464	-0.218315	0.197831
C81	C	0.865362	-0.682993	-0.342187
C82	C	1.365362	-0.182993	0.157813
C83	C	0.865339	-0.612306	-0.342175
C84	C	1.365339	-0.112306	0.157825
C85	C	0.865455	-0.968067	-0.342233
C86	C	1.365455	-0.468067	0.157767
C87	C	0.865480	-1.038759	-0.342240
C88	C	1.365480	-0.538759	0.157760
C89	C	0.945656	-1.038704	-0.262202
C90	C	1.445656	-0.538704	0.237798
C91	C	0.945633	-0.968017	-0.262191
C92	C	1.445633	-0.468017	0.237809
C93	C	0.905534	-0.932702	-0.302210
C94	C	1.405534	-0.432702	0.197790
C95	C	0.905507	-0.856053	-0.302196
C96	C	1.405507	-0.356053	0.197804
C97	C	0.905488	-0.794962	-0.302181
C98	C	1.405488	-0.294962	0.197819
C99	C	1.068881	-0.325816	-0.302239
C100	C	1.568881	0.174184	0.197761
C101	C	1.138522	-0.325800	-0.302271
C102	C	1.638522	0.174200	0.197729
C103	C	0.905510	-0.325837	-0.465589
C104	C	1.405510	0.174163	0.034411
C105	C	0.905532	-0.325831	-0.535231
C106	C	1.405532	0.174169	-0.035231
C107	C	0.905545	-0.149308	-0.302210
C108	C	1.405545	0.350692	0.197790
C109	C	0.905583	-0.074076	-0.302229
C110	C	1.405583	0.425924	0.197771
C111	C	0.945625	-0.282530	-0.567974
C112	C	1.445625	0.217470	-0.067974
C113	C	0.945624	-0.282501	-0.633409
C114	C	1.445624	0.217499	-0.133409
C115	C	0.905537	-0.325785	-0.666099
C116	C	1.405537	0.174215	-0.166099
C117	C	0.865436	-0.369089	-0.633348
C118	C	1.365436	0.130911	-0.133348
C119	C	0.865433	-0.369112	-0.567914
C120	C	1.365433	0.130888	-0.067914
C121	C	0.900565	-0.386731	-0.769762
C122	C	1.400565	0.113269	-0.269762
C123	C	0.900572	-0.386709	-0.835195
C124	C	1.400572	0.113291	-0.335195
C125	C	0.905540	-0.325714	-0.867920
C126	C	1.405540	0.174286	-0.367920
C127	C	0.910516	-0.264738	-0.835204
C128	C	1.410516	0.235262	-0.335204
C129	C	0.910513	-0.264762	-0.769770
C130	C	1.410513	0.235238	-0.269770
C131	C	0.905534	-0.325765	-0.737051
C132	C	1.405534	0.174235	-0.237051
C133	C	0.945635	-0.282378	-0.971615
C134	C	1.445635	0.217622	-0.471615
C135	C	0.945630	-0.282347	-1.037052
C136	C	1.445630	0.217653	-0.537052
C137	C	0.865444	-0.368941	-1.036990
C138	C	1.365444	0.131059	-0.536990
C139	C	0.865446	-0.368966	-0.971555
C140	C	1.365446	0.131034	-0.471555
C141	C	0.905545	-0.325685	-0.938871
C142	C	1.405545	0.174315	-0.438871
C143	C	0.905442	-0.325816	-0.139378
C144	C	1.405442	0.174184	0.360622
C145	C	0.905541	-0.325631	-0.069738
C146	C	1.405541	0.174369	0.430262
H147	H	0.666960	-0.404574	-0.374638
H148	H	1.166960	0.095426	0.125362
H149	H	0.144586	-0.247150	-0.229705
H150	H	0.644586	0.252850	0.270295
C151	C	0.989600	-0.573354	-0.218103
C152	C	1.489600	-0.073354	0.281897
H153	H	1.013489	-0.604514	-0.194280
H154	H	1.513489	-0.104514	0.305720
H155	H	0.965639	-0.545821	-0.190768
H156	H	1.465639	-0.045821	0.309232
H157	H	1.016881	-0.545735	-0.242106
H158	H	1.516881	-0.045735	0.257894
H159	H	0.978193	-0.711695	-0.229561
H160	H	1.478193	-0.211695	0.270439
H161	H	0.666936	-0.247254	-0.229519
H162	H	1.166936	0.252746	0.270481
C163	C	0.989728	-0.234871	-0.669437
C164	C	1.489728	0.265129	-0.169437
H165	H	0.983983	-0.241054	-0.713088
H166	H	1.483983	0.258946	-0.213088
H167	H	1.031820	-0.244773	-0.658745
H168	H	1.531820	0.255227	-0.158745
H169	H	0.980580	-0.189395	-0.658709
H170	H	1.480580	0.310605	-0.158709
H171	H	0.978308	-1.067466	-0.229618
H172	H	1.478308	-0.567466	0.270382
H173	H	0.465024	-0.316026	-0.199743
H174	H	0.965024	0.183974	0.300257
C175	C	0.538876	-0.234852	-0.218133
C176	C	1.038876	0.265148	0.281867
H177	H	0.495222	-0.241056	-0.223871
H178	H	0.995222	0.258944	0.276129
H179	H	0.549648	-0.189391	-0.227376
H180	H	1.049648	0.310609	0.272624
H181	H	0.549546	-0.244695	-0.176013
H182	H	1.049546	0.255305	0.323987
H183	H	0.914563	-0.215070	-0.861848
H184	H	1.414563	0.284930	-0.361848
H185	H	0.914562	-0.215113	-0.743136
H186	H	1.414562	0.284887	-0.243136
H187	H	0.263297	-0.247178	-0.229658
H188	H	0.763297	0.252822	0.270342
H189	H	0.832782	-0.404372	-0.541255
H190	H	1.332782	0.095628	-0.041255
C191	C	0.821353	-0.416557	-1.072941
C192	C	1.321353	0.083443	-0.572941
H193	H	0.827099	-0.410347	-1.116601
H194	H	1.327099	0.089653	-0.616601
H195	H	0.779259	-0.406671	-1.062188
H196	H	1.279259	0.093329	-0.562188
H197	H	0.830509	-0.462037	-1.062222
H198	H	1.330509	0.037963	-0.562222
H199	H	0.346526	-0.335697	-0.404594
H200	H	0.846526	0.164303	0.095406
H201	H	0.832845	-1.067556	-0.374837
H202	H	1.332845	-0.567556	0.125163
H203	H	0.978265	-0.939220	-0.229597
H204	H	1.478265	-0.439220	0.270403
C205	C	0.821337	-0.929229	-0.386242
C206	C	1.321337	-0.429229	0.113758
H207	H	0.797467	-0.960420	-0.410072
H208	H	1.297467	-0.460420	0.089928
H209	H	0.845274	-0.901607	-0.413572
H210	H	1.345274	-0.401607	0.086428
H211	H	0.794040	-0.901703	-0.362227
H212	H	1.294040	-0.401703	0.137773
H213	H	0.263324	-0.404485	-0.374787
H214	H	0.763324	0.095515	0.125213
H215	H	0.978277	-0.247083	-1.063710
H216	H	1.478277	0.252917	-0.563710
H217	H	0.978282	-0.247132	-0.945003
H218	H	1.478282	0.252868	-0.445003
H219	H	0.832734	-0.711798	-0.374778
H220	H	1.332734	-0.211798	0.125222
C221	C	0.821348	-0.416602	-0.935536
C222	C	1.321348	0.083398	-0.435536
H223	H	0.797475	-0.442381	-0.964374
H224	H	1.297475	0.057619	-0.464374
H225	H	0.794061	-0.390726	-0.909990
H226	H	1.294061	0.109274	-0.409990
H227	H	0.845304	-0.446100	-0.910028
H228	H	1.345304	0.053900	-0.410028
H229	H	0.548254	-0.404542	-0.374685
H230	H	1.048254	0.095458	0.125315
C231	C	0.336952	-0.314447	-0.183665
C232	C	0.836952	0.185553	0.316335
H233	H	0.365775	-0.311210	-0.150042
H234	H	0.865775	0.188790	0.349958
H235	H	0.311387	-0.353223	-0.178095
H236	H	0.811387	0.146777	0.321905
H237	H	0.311461	-0.275205	-0.184560
H238	H	0.811461	0.224795	0.315440
C239	C	0.474606	-0.337273	-0.420674
C240	C	0.974606	0.162727	0.079326
H241	H	0.445786	-0.340493	-0.454301
H242	H	0.945786	0.159507	0.045699
H243	H	0.500100	-0.376509	-0.419787
H244	H	1.000100	0.123491	0.080213
H245	H	0.500168	-0.298489	-0.426232
H246	H	1.000168	0.201511	0.073768
H247	H	0.144617	-0.404451	-0.374835
H248	H	0.644617	0.095549	0.125165
C249	C	0.821231	-0.573458	-0.386191
C250	C	1.321231	-0.073458	0.113809
H251	H	0.797363	-0.604646	-0.410027
H252	H	1.297363	-0.104646	0.089973
H253	H	0.845179	-0.545841	-0.413515
H254	H	1.345179	-0.045841	0.086485
H255	H	0.793931	-0.545928	-0.362184
H256	H	1.293931	-0.045928	0.137816
H257	H	0.978276	-0.247287	-0.541367
H258	H	1.478276	0.252713	-0.041367
H259	H	0.896524	-0.436359	-0.861827
H260	H	1.396524	0.063641	-0.361827
C261	C	0.894962	-0.453817	-0.733770
C262	C	1.394962	0.046183	-0.233770
H263	H	0.891968	-0.490124	-0.762624
H264	H	1.391968	0.009876	-0.262624
H265	H	0.858610	-0.452858	-0.708268
H266	H	1.358610	0.047142	-0.208268
H267	H	0.930822	-0.459857	-0.708220
H268	H	1.430822	0.040143	-0.208220
C269	C	0.821344	-0.416703	-0.669304
C270	C	1.321344	0.083297	-0.169304
H271	H	0.827092	-0.410494	-0.712965
H272	H	1.327092	0.089506	-0.212965
H273	H	0.779250	-0.406813	-0.658553
H274	H	1.279250	0.093187	-0.158553
H275	H	0.830495	-0.462184	-0.658584
H276	H	1.330495	0.037816	-0.158584
