data_functionalizedCrystal
_audit_creation_method	'MofGen! by Chris Wilmer'
_symmetry_space_group_name_H-M	'P1'
_symmetry_Int_Tables_number	1
_symmetry_cell_setting	triclinic
loop_
_symmetry_equiv_pos_as_xyz
  x,y,z
_cell_length_a	11.792241
_cell_length_b	27.732048
_cell_length_c	10.868271
_cell_angle_alpha	89.989927
_cell_angle_beta	89.999893
_cell_angle_gamma	83.418036
loop_
_atom_site_label
_atom_site_type_symbol
_atom_site_fract_x
_atom_site_fract_y
_atom_site_fract_z
O1	O	1.504789	0.066248	-0.102217
O2	O	1.174230	0.073076	-0.102248
O3	O	1.349776	-0.000675	-0.102208
O4	O	1.329243	0.139999	-0.102257
O5	O	1.349762	-0.000678	0.102437
O6	O	1.174215	0.073073	0.102397
O7	O	1.504775	0.066245	0.102427
Zn8	Zn	1.339493	0.069659	0.134904
Zn9	Zn	1.339512	0.069662	-0.134724
O10	O	1.329229	0.139996	0.102388
C11	C	1.131945	0.072645	0.000071
C12	C	1.005973	0.071362	0.000061
C13	C	0.775336	0.069001	0.000097
C14	C	0.903679	0.070313	0.000077
C15	C	1.349338	-0.018686	0.000118
C16	C	1.348040	-0.072348	0.000128
C17	C	1.443606	-0.410609	0.000073
C18	C	1.438790	-0.612297	0.000055
O19	O	1.526178	-0.643045	0.000010
N20	N	1.334698	-0.632024	0.000047
C21	C	1.231803	-0.601327	0.000035
O22	O	1.143157	-0.622734	0.000015
C23	C	1.236620	-0.399640	0.000044
C24	C	1.340718	-0.379915	0.000065
C25	C	1.547695	-0.390884	0.000093
C26	C	1.548898	-0.340465	0.000104
C27	C	1.446011	-0.309771	0.000095
C28	C	1.341921	-0.329496	0.000076
C29	C	1.133726	-0.368943	0.000023
C30	C	1.134940	-0.318519	0.000022
C31	C	1.239038	-0.298794	0.000043
C32	C	1.240237	-0.248384	0.000079
N33	N	1.344328	-0.228656	0.000087
C34	C	1.447215	-0.259350	0.000095
C35	C	1.229282	-0.707215	0.000033
C36	C	1.228077	-0.757637	0.000033
C37	C	1.435065	-0.768603	0.000051
C38	C	1.436268	-0.718181	0.000060
C39	C	1.333374	-0.687488	0.000041
C40	C	1.449733	-0.153466	0.000120
C41	C	1.450927	-0.103042	0.000136
C42	C	1.243941	-0.092080	0.000111
C43	C	1.242746	-0.142500	0.000102
C44	C	1.345652	-0.173192	0.000102
O45	O	1.152896	-0.217607	0.000111
O46	O	1.535849	-0.237933	0.000088
C47	C	1.442403	-0.461028	0.000062
C48	C	1.338313	-0.480753	0.000043
C49	C	1.235426	-0.450060	0.000034
C50	C	1.337108	-0.531175	0.000043
C51	C	1.439996	-0.561868	0.000051
C52	C	1.544087	-0.542141	0.000059
C53	C	1.545290	-0.491722	0.000070
C54	C	1.131334	-0.469787	0.000026
C55	C	1.130140	-0.520207	0.000016
C56	C	1.233027	-0.550900	0.000024
C57	C	1.547059	0.066676	0.000106
C58	C	1.673032	0.067959	0.000108
C59	C	1.329667	0.158007	0.000059
C60	C	1.330965	0.211669	0.000041
N61	N	1.339488	0.069656	0.318918
N62	N	1.339525	0.069662	-0.318738
C63	C	1.339506	0.069661	0.569924
C64	C	1.339492	0.069660	0.430246
H65	H	1.533529	-0.178450	0.000115
O66	O	1.535086	-0.798374	-0.000113
C67	C	1.598322	-0.789392	-0.106119
H68	H	1.569778	-0.751219	-0.141447
H69	H	1.693042	-0.792692	-0.082289
H70	H	1.583283	-0.817001	-0.180338
H71	H	1.143310	-0.773692	0.000037
O72	O	1.129219	-0.677472	0.000081
C73	C	1.037100	-0.705703	0.000047
H74	H	1.066597	-0.743255	0.038788
H75	H	0.965061	-0.687309	0.059461
H76	H	1.005152	-0.709374	-0.098133
O77	O	1.141601	-0.161642	-0.000130
C78	C	1.078936	-0.145960	-0.106106
H79	H	1.139830	-0.135297	-0.180168
H80	H	1.031207	-0.176627	-0.141707
H81	H	1.015101	-0.113277	-0.082140
H82	H	1.160173	-0.067080	0.000109
H83	H	1.633666	-0.324410	0.000116
H84	H	1.048958	-0.384994	-0.000001
O85	O	1.646512	-0.472645	0.000027
C86	C	1.737052	-0.510556	0.000063
H87	H	1.705841	-0.544884	-0.038685
H88	H	1.809790	-0.499825	-0.059345
H89	H	1.768738	-0.517614	0.098243
O90	O	1.647753	-0.420626	0.000159
C91	C	1.739868	-0.392393	0.000144
H92	H	1.710361	-0.354847	0.038876
H93	H	1.811900	-0.410794	0.059574
H94	H	1.771831	-0.388710	-0.098029
H95	H	1.045364	-0.536261	0.000010
H96	H	1.627862	-0.567140	0.000071
O97	O	1.031309	-0.440025	-0.000139
C98	C	0.968071	-0.448994	-0.106146
H99	H	0.996641	-0.487157	-0.141493
H100	H	0.873355	-0.445712	-0.082309
H101	H	0.983081	-0.421365	-0.180353
O102	O	1.552082	-0.083906	-0.000067
C103	C	1.614763	-0.099564	-0.106037
H104	H	1.553879	-0.110207	-0.180123
H105	H	1.662505	-0.068891	-0.141603
H106	H	1.678588	-0.132256	-0.082075
O107	O	1.537316	-0.698965	-0.000095
C108	C	1.544232	-0.670133	-0.106101
H109	H	1.454561	-0.657812	-0.141445
H110	H	1.588887	-0.637001	-0.082265
H111	H	1.594839	-0.692270	-0.180310
O112	O	1.034880	-0.288774	0.000059
C113	C	0.942754	-0.317000	0.000006
H114	H	0.972236	-0.354553	0.038750
H115	H	0.870708	-0.298603	0.059408
H116	H	0.910820	-0.320669	-0.098179
