data_functionalizedCrystal
_audit_creation_method	'MofGen! by Chris Wilmer'
_symmetry_space_group_name_H-M	'P1'
_symmetry_Int_Tables_number	1
_symmetry_cell_setting	triclinic
loop_
_symmetry_equiv_pos_as_xyz
  x,y,z
_cell_length_a	19.805407
_cell_length_b	21.295417
_cell_length_c	19.805407
_cell_angle_alpha	90.016581
_cell_angle_beta	90.009221
_cell_angle_gamma	90.030507
loop_
_atom_site_label
_atom_site_type_symbol
_atom_site_fract_x
_atom_site_fract_y
_atom_site_fract_z
Zn1	Zn	1.034647	-0.250712	0.382704
Zn2	Zn	1.034574	-0.355955	0.269509
Zn3	Zn	0.921482	-0.250704	0.269529
Zn4	Zn	0.921417	-0.355948	0.382656
O5	O	0.978030	-0.303330	0.326100
O6	O	1.129354	-0.264680	0.367701
O7	O	1.019569	-0.341992	0.174795
O8	O	0.936552	-0.162615	0.284570
O9	O	1.129301	-0.342001	0.284537
O10	O	1.019693	-0.162622	0.367719
O11	O	0.936481	-0.264665	0.174810
O12	O	0.826757	-0.264658	0.284523
O13	O	0.936441	-0.341989	0.477379
O14	O	0.826709	-0.341980	0.367638
O15	O	1.019630	-0.264673	0.477414
O16	O	1.019506	-0.444043	0.284490
O17	O	0.936370	-0.444038	0.367619
C18	C	0.802174	-0.303318	0.326078
C19	C	0.726942	-0.303328	0.326084
C20	C	0.691591	-0.343650	0.369292
C21	C	0.620903	-0.343651	0.369301
C22	C	0.585567	-0.303333	0.326100
C23	C	0.620923	-0.263006	0.282890
C24	C	0.691610	-0.263002	0.282885
C25	C	0.335850	-0.263020	0.282913
C26	C	0.265158	-0.263028	0.282920
C27	C	0.265142	-0.343669	0.369329
C28	C	0.335829	-0.343665	0.369324
C29	C	0.371179	-0.303336	0.326117
C30	C	0.447828	-0.303335	0.326108
C31	C	0.508920	-0.303337	0.326105
C32	C	0.977942	-0.466881	0.326062
C33	C	0.977966	-0.536849	0.326069
C34	C	1.021293	-0.569698	0.282828
C35	C	1.021325	-0.635440	0.282843
C36	C	0.978017	-0.668332	0.326092
C37	C	0.934686	-0.635475	0.369341
C38	C	0.934661	-0.569734	0.369329
N39	N	0.918806	-0.771599	0.331245
N40	N	0.918832	-0.834050	0.331252
C41	C	0.978093	-0.866407	0.326131
N42	N	1.037328	-0.833952	0.320989
N43	N	1.037300	-0.771495	0.320979
C44	C	0.978040	-0.739617	0.326110
C45	C	1.021458	-0.970541	0.282904
C46	C	1.021491	-1.036284	0.282924
C47	C	0.934847	-1.036318	0.369419
C48	C	0.934820	-0.970576	0.369402
C49	C	0.978125	-0.937691	0.326142
C50	C	1.154573	-0.303342	0.326122
C51	C	1.229805	-0.303348	0.326131
C52	C	0.978036	-0.303331	0.502642
C53	C	0.978039	-0.303331	0.577874
C54	C	0.978138	-0.139139	0.326152
C55	C	0.978184	-0.069171	0.326174
C56	C	1.021350	-0.263079	0.613238
C57	C	1.021344	-0.263077	0.683926
C58	C	0.978030	-0.303331	0.719250
C59	C	0.934714	-0.343585	0.683881
C60	C	0.934717	-0.343584	0.613194
C61	C	0.934701	-0.343593	0.968955
C62	C	0.934703	-0.343593	1.039647
C63	C	1.021328	-0.263086	1.039687
C64	C	1.021331	-0.263085	0.969000
C65	C	0.978013	-0.303336	0.933637
C66	C	0.978019	-0.303337	0.856989
C67	C	0.978027	-0.303334	0.795897
C68	C	0.978018	-0.303341	1.150244
C69	C	0.978011	-0.303337	1.075012
H70	H	0.592147	-0.230175	0.247717
H71	H	0.236352	-0.376504	0.404513
O72	O	0.892872	-1.068329	0.411467
C73	C	0.931392	-1.106291	0.455238
H74	H	0.982707	-1.116108	0.431415
H75	H	0.938781	-1.080924	0.505398
C76	C	0.831141	-1.156707	0.496736
C77	C	0.894165	-1.168768	0.467473
H78	H	0.808177	-1.195245	0.504286
H79	H	0.805189	-1.131130	0.467248
H80	H	0.837307	-1.135566	0.538532
H81	H	0.887997	-1.189901	0.425674
H82	H	0.920115	-1.194350	0.496954
O83	O	0.230936	-0.223797	0.240933
C84	C	0.277293	-0.188211	0.202785
H85	H	0.327690	-0.186067	0.230508
H86	H	0.284787	-0.211182	0.151331
C87	C	0.187833	-0.123836	0.159125
C88	C	0.249729	-0.121198	0.193177
H89	H	0.170829	-0.082500	0.153195
H90	H	0.156600	-0.147812	0.184823
H91	H	0.194086	-0.142981	0.116250
H92	H	0.243474	-0.102060	0.236054
H93	H	0.280961	-0.097217	0.167485
H94	H	0.364596	-0.376499	0.404501
H95	H	0.720392	-0.230164	0.247704
H96	H	1.056556	-0.542925	0.247604
H97	H	0.899442	-0.376355	0.584402
H98	H	0.899444	-0.376358	0.712647
O99	O	1.063334	-0.223887	0.934722
C100	C	1.048586	-0.161151	0.952033
H101	H	0.994514	-0.157976	0.971454
H102	H	1.084880	-0.144701	0.993080
C103	C	1.122902	-0.123031	0.865408
C104	C	1.056488	-0.119131	0.889256
H105	H	1.127779	-0.097109	0.826686
H106	H	1.132840	-0.165297	0.853747
H107	H	1.153140	-0.109323	0.899620
H108	H	1.026252	-0.132845	0.855047
H109	H	1.046545	-0.076865	0.900910
O110	O	1.063449	-0.223917	0.579032
C111	C	1.101685	-0.188399	0.625407
H112	H	1.073960	-0.186220	0.675790
H113	H	1.153076	-0.211455	0.632928
C114	C	1.145538	-0.124079	0.535964
C115	C	1.111483	-0.121398	0.597844
H116	H	1.151584	-0.082749	0.518961
H117	H	1.119779	-0.148008	0.504720
H118	H	1.188360	-0.143294	0.542240
H119	H	1.068659	-0.102190	0.591566
H120	H	1.137234	-0.097463	0.629086
O121	O	0.892821	-0.938636	0.411473
C122	C	0.931305	-0.900545	0.455209
H123	H	0.984619	-0.920309	0.459445
H124	H	0.933633	-0.850728	0.434274
C125	C	0.832700	-0.875258	0.520337
C126	C	0.898179	-0.899536	0.525544
H127	H	0.812266	-0.874633	0.563722
H128	H	0.806772	-0.900919	0.490870
H129	H	0.834649	-0.833746	0.502889
H130	H	0.896229	-0.941050	0.542983
H131	H	0.924106	-0.873883	0.555015
H132	H	0.899438	-0.376377	0.940171
H133	H	1.056722	-0.943765	0.247681
O134	O	1.063434	-0.667261	0.240771
C135	C	1.101663	-0.624139	0.202600
H136	H	1.073926	-0.577298	0.200225
H137	H	1.153050	-0.617097	0.227426
C138	C	1.145538	-0.707351	0.133493
C139	C	1.111470	-0.649822	0.130571
H140	H	1.151591	-0.723194	0.089063
H141	H	1.119785	-0.736404	0.159211
H142	H	1.188357	-0.701475	0.154184
H143	H	1.068648	-0.655700	0.109887
H144	H	1.137216	-0.620770	0.104848
H145	H	0.899426	-0.662260	0.404556
O146	O	0.370254	-0.223936	0.240904
C147	C	0.411102	-0.259706	0.197099
H148	H	0.421682	-0.307443	0.220876
H149	H	0.383840	-0.266556	0.146931
C150	C	0.465261	-0.166410	0.155697
C151	C	0.478260	-0.225040	0.184903
H152	H	0.506686	-0.145026	0.148171
H153	H	0.437739	-0.142311	0.185208
H154	H	0.442541	-0.172127	0.113894
H155	H	0.500972	-0.219323	0.226709
H156	H	0.505787	-0.249138	0.155399
H157	H	0.899378	-0.542988	0.404542
H158	H	1.056778	-1.063028	0.247714
O159	O	0.892557	-0.382715	1.073857
C160	C	0.854334	-0.418252	1.027488
H161	H	0.852008	-0.392468	0.977107
H162	H	0.879083	-0.466065	1.019959
C163	C	0.785149	-0.458980	1.116943
C164	C	0.782287	-0.427310	1.055066
H165	H	0.740707	-0.464571	1.133956
H166	H	0.810902	-0.435041	1.148184
H167	H	0.805776	-0.498821	1.110661
H168	H	0.761668	-0.387467	1.061352
H169	H	0.756528	-0.451243	1.023828
H170	H	1.056598	-0.230310	1.068487
O171	O	0.725809	-0.382836	0.411323
C172	C	0.679445	-0.418435	0.449450
H173	H	0.629070	-0.392657	0.451847
H174	H	0.671897	-0.466209	0.424571
C175	C	0.768914	-0.459270	0.518524
C176	C	0.707045	-0.427607	0.521473
H177	H	0.785939	-0.464931	0.562950
H178	H	0.800151	-0.435289	0.492836
H179	H	0.762615	-0.499079	0.497789
H180	H	0.713346	-0.387796	0.542200
H181	H	0.675809	-0.451582	0.547166
O182	O	0.586536	-0.382735	0.411344
C183	C	0.545665	-0.346970	0.455132
H184	H	0.566990	-0.297395	0.459413
H185	H	0.492087	-0.344775	0.434218
C186	C	0.518398	-0.438721	0.520171
C187	C	0.544593	-0.377834	0.525434
H188	H	0.517734	-0.457761	0.563536
H189	H	0.545931	-0.462818	0.490669
H190	H	0.473752	-0.436884	0.502741
H191	H	0.589241	-0.379672	0.542856
H192	H	0.517067	-0.353738	0.554941
H193	H	1.056615	-0.230301	0.712716
