data_functionalizedCrystal
_audit_creation_method	'MofGen! by Chris Wilmer'
_symmetry_space_group_name_H-M	'P1'
_symmetry_Int_Tables_number	1
_symmetry_cell_setting	triclinic
loop_
_symmetry_equiv_pos_as_xyz
  x,y,z
_cell_length_a	21.395362
_cell_length_b	13.897448
_cell_length_c	21.395355
_cell_angle_alpha	89.984371
_cell_angle_beta	89.956060
_cell_angle_gamma	90.033571
loop_
_atom_site_label
_atom_site_type_symbol
_atom_site_fract_x
_atom_site_fract_y
_atom_site_fract_z
Zn1	Zn	0.957916	-0.383718	-0.354598
Zn2	Zn	1.291249	-0.050384	-0.021265
Zn3	Zn	1.624583	0.282949	0.312068
Zn4	Zn	0.957842	-0.544997	-0.249826
Zn5	Zn	1.291176	-0.211664	0.083507
Zn6	Zn	1.624509	0.121669	0.416841
Zn7	Zn	0.853131	-0.383763	-0.249799
Zn8	Zn	1.186464	-0.050429	0.083534
Zn9	Zn	1.519798	0.282904	0.416867
Zn10	Zn	0.853124	-0.545017	-0.354531
Zn11	Zn	1.186457	-0.211684	-0.021197
Zn12	Zn	1.519791	0.121649	0.312136
O13	O	0.905503	-0.464374	-0.302189
O14	O	1.238837	-0.131040	0.031145
O15	O	1.572170	0.202293	0.364478
O16	O	1.045584	-0.405085	-0.340739
O17	O	1.378918	-0.071751	-0.007406
O18	O	1.712251	0.261582	0.325927
O19	O	0.943924	-0.523620	-0.162145
O20	O	1.277258	-0.190286	0.171189
O21	O	1.610591	0.143047	0.504522
O22	O	0.867065	-0.248775	-0.263718
O23	O	1.200398	0.084558	0.069615
O24	O	1.533731	0.417892	0.402948
O25	O	1.045530	-0.523576	-0.263764
O26	O	1.378863	-0.190243	0.069570
O27	O	1.712197	0.143090	0.402903
O28	O	0.944050	-0.248742	-0.340714
O29	O	1.277383	0.084591	-0.007380
O30	O	1.610717	0.417925	0.325953
O31	O	0.866993	-0.405161	-0.162125
O32	O	1.200327	-0.071828	0.171208
O33	O	1.533660	0.261505	0.504542
O34	O	0.765452	-0.405181	-0.263653
O35	O	1.098786	-0.071847	0.069680
O36	O	1.432119	0.261486	0.403014
O37	O	0.867053	-0.523610	-0.442218
O38	O	1.200386	-0.190277	-0.108884
O39	O	1.533720	0.143057	0.224449
O40	O	0.765447	-0.523654	-0.340599
O41	O	1.098780	-0.190320	-0.007265
O42	O	1.432114	0.143013	0.326068
O43	O	0.944043	-0.405104	-0.442267
O44	O	1.277376	-0.071771	-0.108934
O45	O	1.610710	0.261563	0.224399
O46	O	0.943918	-0.679982	-0.263698
O47	O	1.277251	-0.346648	0.069635
O48	O	1.610584	-0.013315	0.402968
O49	O	0.866981	-0.679996	-0.340624
O50	O	1.200315	-0.346663	-0.007291
O51	O	1.533648	-0.013330	0.326042
C52	C	0.742716	-0.464425	-0.302116
C53	C	1.076049	-0.131091	0.031217
C54	C	1.409382	0.202242	0.364551
C55	C	0.673074	-0.464470	-0.302100
C56	C	1.006408	-0.131136	0.031234
C57	C	1.339741	0.202197	0.364567
C58	C	0.640375	-0.526240	-0.342105
C59	C	0.973708	-0.192907	-0.008772
C60	C	1.307042	0.140426	0.324561
C61	C	0.574940	-0.526217	-0.342133
C62	C	0.908273	-0.192883	-0.008800
C63	C	1.241606	0.140450	0.324533
C64	C	0.542206	-0.464433	-0.302144
C65	C	0.875540	-0.131099	0.031189
C66	C	1.208873	0.202234	0.364522
C67	C	0.574913	-0.402650	-0.262136
C68	C	0.908247	-0.069317	0.071197
C69	C	1.241580	0.264017	0.404531
C70	C	0.640348	-0.402669	-0.262114
C71	C	0.973681	-0.069335	0.071220
C72	C	1.307014	0.263998	0.404553
C73	C	0.438480	-0.456662	-0.245739
C74	C	0.771814	-0.123329	0.087594
C75	C	1.105147	0.210005	0.420928
C76	C	0.373047	-0.456650	-0.245760
C77	C	0.706381	-0.123317	0.087573
C78	C	1.039714	0.210016	0.420907
C79	C	0.340385	-0.464370	-0.302214
C80	C	0.673719	-0.131036	0.031120
C81	C	1.007052	0.202297	0.364453
C82	C	0.373165	-0.472121	-0.358647
C83	C	0.706498	-0.138788	-0.025314
C84	C	1.039831	0.194545	0.308019
C85	C	0.438599	-0.472140	-0.358625
C86	C	0.771932	-0.138807	-0.025292
C87	C	1.105265	0.194527	0.308042
C88	C	0.471254	-0.464405	-0.302164
C89	C	0.804587	-0.131072	0.031169
C90	C	1.137921	0.202261	0.364502
C91	C	0.236734	-0.526118	-0.342253
C92	C	0.570067	-0.192785	-0.008919
C93	C	0.903400	0.140549	0.324414
C94	C	0.171297	-0.526088	-0.342282
C95	C	0.504630	-0.192754	-0.008948
C96	C	0.837964	0.140579	0.324385
C97	C	0.171272	-0.402526	-0.262279
C98	C	0.504605	-0.069193	0.071054
C99	C	0.837939	0.264141	0.404388
C100	C	0.236707	-0.402551	-0.262255
C101	C	0.570041	-0.069218	0.071078
C102	C	0.903374	0.264115	0.404411
C103	C	0.269434	-0.464352	-0.302242
C104	C	0.602768	-0.131019	0.031092
C105	C	0.936101	0.202314	0.364425
C106	C	0.905458	-0.714988	-0.302170
C107	C	1.238791	-0.381655	0.031163
C108	C	1.572124	-0.048321	0.364496
C109	C	0.905495	-0.822202	-0.302184
C110	C	1.238829	-0.488869	0.031150
C111	C	1.572162	-0.155535	0.364483
C112	C	0.905561	-1.018497	-0.302223
C113	C	1.238895	-0.685164	0.031110
C114	C	1.572228	-0.351830	0.364444
C115	C	0.905523	-0.909265	-0.302203
C116	C	1.238856	-0.575931	0.031130
C117	C	1.572190	-0.242598	0.364464
C118	C	1.068927	-0.464323	-0.302262
C119	C	1.402260	-0.130990	0.031071
C120	C	1.735593	0.202343	0.364405
C121	C	1.138568	-0.464302	-0.302293
C122	C	1.471901	-0.130968	0.031040
C123	C	1.805235	0.202365	0.364373
C124	C	0.905555	-0.464354	-0.465612
C125	C	1.238889	-0.131021	-0.132279
C126	C	1.572222	0.202312	0.201055
C127	C	0.905578	-0.464346	-0.535253
C128	C	1.238911	-0.131013	-0.201920
C129	C	1.572244	0.202321	0.131413
C130	C	0.905566	-0.212781	-0.302221
C131	C	1.238900	0.120553	0.031113
C132	C	1.572233	0.453886	0.364446
C133	C	0.905593	-0.105567	-0.302234
C134	C	1.238927	0.227767	0.031099
C135	C	1.572260	0.561100	0.364433
C136	C	0.945665	-0.402637	-0.567993
C137	C	1.278998	-0.069304	-0.234660
C138	C	1.612331	0.264029	0.098673
C139	C	0.945664	-0.402596	-0.633429
C140	C	1.278997	-0.069262	-0.300095
C141	C	1.612331	0.264071	0.033238
C142	C	0.905582	-0.464280	-0.666122
C143	C	1.238916	-0.130947	-0.332788
C144	C	1.572249	0.202387	0.000545
C145	C	0.865488	-0.525993	-0.633374
C146	C	1.198821	-0.192660	-0.300040
C147	C	1.532154	0.140674	0.033293
C148	C	0.865485	-0.526026	-0.567940
C149	C	1.198818	-0.192693	-0.234606
C150	C	1.532152	0.140641	0.098727
C151	C	0.900619	-0.551135	-0.769788
C152	C	1.233953	-0.217801	-0.436455
C153	C	1.567286	0.115532	-0.103122
C154	C	0.900626	-0.551103	-0.835221
C155	C	1.233959	-0.217770	-0.501888
C156	C	1.567293	0.115563	-0.168555
C157	C	0.905586	-0.464178	-0.867942
C158	C	1.238920	-0.130845	-0.534609
C159	C	1.572253	0.202488	-0.201276
C160	C	0.910553	-0.377282	-0.835223
C161	C	1.243886	-0.043948	-0.501889
C162	C	1.577219	0.289385	-0.168556
C163	C	0.910550	-0.377315	-0.769788
C164	C	1.243884	-0.043981	-0.436455
C165	C	1.577217	0.289352	-0.103122
C166	C	0.905580	-0.464251	-0.737074
C167	C	1.238914	-0.130918	-0.403741
C168	C	1.572247	0.202416	-0.070407
C169	C	0.945675	-0.402419	-0.971635
C170	C	1.279008	-0.069086	-0.638302
C171	C	1.612341	0.264247	-0.304968
C172	C	0.945669	-0.402376	-1.037072
C173	C	1.279003	-0.069043	-0.703738
C174	C	1.612336	0.264290	-0.370405
C175	C	0.865496	-0.525782	-1.037016
C176	C	1.198830	-0.192449	-0.703682
C177	C	1.532163	0.140884	-0.370349
C178	C	0.865498	-0.525817	-0.971580
C179	C	1.198832	-0.192483	-0.638247
C180	C	1.532165	0.140850	-0.304914
C181	C	0.905591	-0.464137	-0.938894
C182	C	1.238924	-0.130803	-0.605560
C183	C	1.572258	0.202530	-0.272227
C184	C	0.905488	-0.464324	-0.139401
C185	C	1.238821	-0.130990	0.193932
C186	C	1.572154	0.202343	0.527266
C187	C	0.905587	-0.464060	-0.069760
C188	C	1.238920	-0.130727	0.263573
C189	C	1.572254	0.202607	0.596907
H190	H	0.667017	-0.576562	-0.374666
H191	H	1.000351	-0.243229	-0.041333
H192	H	1.333684	0.090104	0.292001
F193	F	0.338409	-0.480333	-0.418734
F194	F	0.671742	-0.147000	-0.085401
F195	F	1.005076	0.186333	0.247932
H196	H	0.263381	-0.576435	-0.374815
H197	H	0.596715	-0.243102	-0.041482
H198	H	0.930048	0.090231	0.291852
F199	F	0.271510	-0.336808	-0.219674
F200	F	0.604843	-0.003475	0.113659
F201	F	0.938177	0.329859	0.446993
F202	F	0.473235	-0.448448	-0.185649
F203	F	0.806568	-0.115114	0.147684
F204	F	1.139902	0.218219	0.481018
H205	H	0.548311	-0.576517	-0.374713
H206	H	0.881644	-0.243184	-0.041380
H207	H	1.214977	0.090149	0.291954
H208	H	0.832851	-0.576214	-0.659997
H209	H	1.166184	-0.242881	-0.326663
H210	H	1.499518	0.090453	0.006670
H211	H	0.144674	-0.576387	-0.374863
H212	H	0.478008	-0.243054	-0.041530
H213	H	0.811341	0.090280	0.291804
F214	F	0.895354	-0.643661	-0.734970
F215	F	1.228687	-0.310327	-0.401637
F216	F	1.562021	0.023006	-0.068304
F217	F	0.988341	-0.336771	-0.936846
F218	F	1.321675	-0.003438	-0.603512
F219	F	1.655008	0.329895	-0.270179
H220	H	0.144621	-0.352216	-0.229722
H221	H	0.477954	-0.018882	0.103611
H222	H	0.811288	0.314451	0.436945
F223	F	0.822834	-0.591425	-1.071806
F224	F	1.156167	-0.258092	-0.738472
F225	F	1.489500	0.075242	-0.405139
F226	F	0.338167	-0.448401	-0.185699
F227	F	0.671501	-0.115067	0.147634
F228	F	1.004834	0.218266	0.480968
H229	H	0.548258	-0.352343	-0.229578
H230	H	0.881591	-0.019010	0.103755
H231	H	1.214924	0.314323	0.437089
H232	H	0.465285	-0.478449	-0.404575
H233	H	0.798618	-0.145115	-0.071242
H234	H	1.131952	0.188218	0.262091
F235	F	0.675150	-0.336920	-0.219533
F236	F	1.008483	-0.003587	0.113801
F237	F	1.341816	0.329746	0.447134
H238	H	0.978310	-0.352411	-0.541384
H239	H	1.311644	-0.019078	-0.208051
H240	H	1.644977	0.314255	0.125283
F241	F	0.988345	-0.336705	-1.071916
F242	F	1.321679	-0.003371	-0.738582
F243	F	1.655012	0.329962	-0.405249
H244	H	0.978306	-0.352340	-0.660091
H245	H	1.311640	-0.019007	-0.326757
H246	H	1.644973	0.314327	0.006576
H247	H	0.914593	-0.306560	-0.743151
H248	H	1.247926	0.026773	-0.409817
H249	H	1.581259	0.360106	-0.076484
H250	H	0.832838	-0.576275	-0.541283
H251	H	1.166172	-0.242942	-0.207950
H252	H	1.499505	0.090391	0.125384
F253	F	0.915834	-0.284762	-0.870041
F254	F	1.249168	0.048571	-0.536708
F255	F	1.582501	0.381904	-0.203375
H256	H	0.832859	-0.576073	-0.944923
H257	H	1.166192	-0.242739	-0.611590
H258	H	1.499525	0.090594	-0.278256
F259	F	0.895346	-0.643586	-0.870038
F260	F	1.228679	-0.310252	-0.536705
F261	F	1.562013	0.023081	-0.203372
