data_functionalizedCrystal
_audit_creation_method	'MofGen! by Chris Wilmer'
_symmetry_space_group_name_H-M	'P1'
_symmetry_Int_Tables_number	1
_symmetry_cell_setting	triclinic
loop_
_symmetry_equiv_pos_as_xyz
  x,y,z
_cell_length_a	21.295417
_cell_length_b	13.033304
_cell_length_c	13.032268
_cell_angle_alpha	90.922231
_cell_angle_beta	97.140648
_cell_angle_gamma	82.801865
loop_
_atom_site_label
_atom_site_type_symbol
_atom_site_fract_x
_atom_site_fract_y
_atom_site_fract_z
Zn1	Zn	-0.195869	-1.498389	-0.781480
Zn2	Zn	0.304131	-0.998389	-0.281480
Zn3	Zn	-0.286332	-1.520101	-0.609487
Zn4	Zn	0.213668	-1.020101	-0.109487
Zn5	Zn	-0.192543	-1.348251	-0.587652
Zn6	Zn	0.307457	-0.848251	-0.087652
Zn7	Zn	-0.312571	-1.326343	-0.759516
Zn8	Zn	0.187429	-0.826343	-0.259516
O9	O	-0.246829	-1.423271	-0.684534
O10	O	0.253171	-0.923271	-0.184534
O11	O	-0.198280	-1.645191	-0.776995
O12	O	0.301720	-1.145191	-0.276995
O13	O	-0.261518	-1.515560	-0.462686
O14	O	0.238482	-1.015560	0.037314
O15	O	-0.104892	-1.368250	-0.613418
O16	O	0.395108	-0.868250	-0.113418
O17	O	-0.264743	-1.661142	-0.650633
O18	O	0.235257	-1.161142	-0.150633
O19	O	-0.107336	-1.478555	-0.755822
O20	O	0.392664	-0.978555	-0.255822
O21	O	-0.192611	-1.389302	-0.446644
O22	O	0.307389	-0.889302	0.053356
O23	O	-0.218054	-1.201424	-0.592120
O24	O	0.281946	-0.701424	-0.092120
O25	O	-0.309464	-1.330911	-0.906335
O26	O	0.190536	-0.830911	-0.406335
O27	O	-0.306238	-1.185328	-0.718388
O28	O	0.193762	-0.685328	-0.218388
O29	O	-0.223723	-1.457312	-0.922472
O30	O	0.276277	-0.957312	-0.422472
O31	O	-0.377905	-1.494316	-0.629335
O32	O	0.122095	-0.994316	-0.129335
O33	O	-0.397182	-1.351963	-0.739561
O34	O	0.102818	-0.851963	-0.239561
C35	C	-0.264633	-1.156058	-0.650502
C36	C	0.235367	-0.656058	-0.150502
C37	C	-0.272266	-1.041741	-0.635967
C38	C	0.227734	-0.541741	-0.135967
C39	C	-0.242853	-0.982869	-0.692106
C40	C	0.257147	-0.482869	-0.192106
C41	C	-0.250742	-0.864715	-0.677085
C42	C	0.249258	-0.364715	-0.177085
C43	C	-0.410385	-1.423144	-0.684460
C44	C	0.089615	-0.923144	-0.184460
C45	C	-0.480351	-1.423179	-0.684475
C46	C	0.019649	-0.923179	-0.184475
C47	C	-0.503161	-1.497352	-0.627155
C48	C	-0.003161	-0.997352	-0.127155
C49	C	-0.568902	-1.497397	-0.627184
C50	C	-0.068902	-0.997397	-0.127184
C51	C	-0.611831	-1.423252	-0.684520
C52	C	-0.111831	-0.923252	-0.184520
C53	C	-0.589015	-1.349073	-0.741852
C54	C	-0.089015	-0.849073	-0.241852
C55	C	-0.523275	-1.349036	-0.741829
C56	C	-0.023275	-0.849036	-0.241829
N57	N	-0.721771	-1.332286	-0.680901
N58	N	-0.221771	-0.832286	-0.180901
N59	N	-0.784221	-1.332325	-0.680917
N60	N	-0.284221	-0.832325	-0.180917
C61	C	-0.809904	-1.423360	-0.684594
C62	C	-0.309904	-0.923360	-0.184594
N63	N	-0.770775	-1.514360	-0.688234
N64	N	-0.270775	-1.014360	-0.188234
N65	N	-0.708320	-1.514321	-0.688213
N66	N	-0.208320	-1.014321	-0.188213
C67	C	-0.683117	-1.423284	-0.684551
C68	C	-0.183117	-0.923284	-0.184551
C69	C	-0.903997	-1.497588	-0.627303
C70	C	-0.403997	-0.997588	-0.127303
C71	C	-0.969740	-1.497634	-0.627340
C72	C	-0.469740	-0.997634	-0.127340
C73	C	-0.989852	-1.349302	-0.742001
C74	C	-0.489852	-0.849302	-0.242001
C75	C	-0.924110	-1.349264	-0.741970
C76	C	-0.424110	-0.849264	-0.241970
C77	C	-0.881186	-1.423407	-0.684616
C78	C	-0.381186	-0.923407	-0.184616
C79	C	-0.082635	-1.423424	-0.684634
C80	C	0.417365	-0.923424	-0.184634
C81	C	-0.012665	-1.423490	-0.684677
C82	C	0.487335	-0.923490	-0.184677
C83	C	-0.269891	-1.389246	-0.952760
C84	C	0.230109	-0.889246	-0.452760
C85	C	-0.279719	-1.374746	-1.067061
C86	C	0.220281	-0.874746	-0.567061
C87	C	-0.228952	-0.691528	-0.718692
C88	C	0.271048	-0.191528	-0.218692
C89	C	-0.221325	-0.805846	-0.733231
C90	C	0.278675	-0.305846	-0.233231
C91	C	-0.241678	-1.430823	-1.126005
C92	C	0.258322	-0.930823	-0.626005
C93	C	-0.251835	-1.415838	-1.244142
C94	C	0.248165	-0.915838	-0.744142
C95	C	-0.223807	-1.457223	-0.417359
C96	C	0.276193	-0.957223	0.082641
C97	C	-0.213788	-1.471922	-0.303084
C98	C	0.286212	-0.971922	0.196916
H99	H	-0.211828	-1.019940	-0.751284
H100	H	0.288172	-0.519940	-0.251284
Br101	Br	-0.599868	-1.598068	-0.549388
Br102	Br	-0.099868	-1.098068	-0.049388
H103	H	-0.281765	-0.827650	-0.617896
H104	H	0.218235	-0.327650	-0.117896
H105	H	-0.869047	-1.557962	-0.580605
H106	H	-0.369047	-1.057962	-0.080605
Br107	Br	-0.146974	-1.570454	-1.241441
Br108	Br	0.353026	-1.070454	-0.741441
Br109	Br	-0.647275	-1.248454	-0.819674
Br110	Br	-0.147275	-0.748454	-0.319674
Br111	Br	-0.169605	-0.867614	-0.831870
Br112	Br	0.330395	-0.367614	-0.331870
H113	H	-0.303287	-1.004670	-0.576783
H114	H	0.196713	-0.504670	-0.076783
Br115	Br	-0.346533	-1.276225	-1.128712
Br116	Br	0.153467	-0.776225	-0.628712
Br117	Br	-0.492317	-1.248366	-0.819628
Br118	Br	0.007683	-0.748366	-0.319628
H119	H	-0.988309	-1.558041	-0.580666
H120	H	-0.488309	-1.058041	-0.080666
H121	H	-0.468214	-1.557725	-0.580457
H122	H	0.031786	-1.057725	-0.080457
H123	H	-1.024804	-1.288936	-0.788690
H124	H	-0.524804	-0.788936	-0.288690
Br125	Br	-0.893151	-1.248593	-0.819763
Br126	Br	-0.393151	-0.748593	-0.319763
Br127	Br	-0.174843	-1.529305	-1.064349
Br128	Br	0.325157	-1.029305	-0.564349
H129	H	-0.291921	-1.356724	-1.281133
H130	H	0.208079	-0.856724	-0.781133
