data_functionalizedCrystal
_audit_creation_method	'MofGen! by Chris Wilmer'
_symmetry_space_group_name_H-M	'P1'
_symmetry_Int_Tables_number	1
_symmetry_cell_setting	triclinic
loop_
_symmetry_equiv_pos_as_xyz
  x,y,z
_cell_length_a	12.759401
_cell_length_b	16.625546
_cell_length_c	12.759393
_cell_angle_alpha	89.963494
_cell_angle_beta	89.982961
_cell_angle_gamma	90.022629
loop_
_atom_site_label
_atom_site_type_symbol
_atom_site_fract_x
_atom_site_fract_y
_atom_site_fract_z
Zn1	Zn	1.606184	-0.320948	-0.593948
Zn2	Zn	2.106184	0.179052	-0.093948
Zn3	Zn	1.606059	-0.455806	-0.418253
Zn4	Zn	2.106059	0.044194	0.081747
Zn5	Zn	1.430490	-0.320991	-0.418287
Zn6	Zn	1.930490	0.179009	0.081713
Zn7	Zn	1.430450	-0.455743	-0.593895
Zn8	Zn	1.930450	0.044257	-0.093895
O9	O	1.518296	-0.388372	-0.506096
O10	O	2.018296	0.111628	-0.006096
O11	O	1.753188	-0.338846	-0.570649
O12	O	2.253188	0.161154	-0.070649
O13	O	1.582733	-0.437966	-0.271237
O14	O	2.082733	0.062034	0.228763
O15	O	1.453865	-0.208153	-0.441625
O16	O	1.953865	0.291847	0.058375
O17	O	1.753096	-0.437925	-0.441568
O18	O	2.253096	0.062075	0.058432
O19	O	1.582946	-0.208121	-0.570682
O20	O	2.082946	0.291879	-0.070682
O21	O	1.453744	-0.338919	-0.271261
O22	O	1.953744	0.161081	0.228739
O23	O	1.283464	-0.338858	-0.441574
O24	O	1.783464	0.161142	0.058426
O25	O	1.453797	-0.437818	-0.740923
O26	O	1.953797	0.062182	-0.240923
O27	O	1.283435	-0.437859	-0.570592
O28	O	1.783435	0.062141	-0.070592
O29	O	1.582908	-0.338785	-0.740962
O30	O	2.082908	0.161215	-0.240962
O31	O	1.582695	-0.568630	-0.441517
O32	O	2.082695	-0.068630	0.058483
O33	O	1.453676	-0.568584	-0.570560
O34	O	1.953676	-0.068584	-0.070560
C35	C	1.245328	-0.388357	-0.506081
C36	C	1.745328	0.111643	-0.006081
C37	C	1.128552	-0.388370	-0.506100
C38	C	1.628552	0.111630	-0.006100
C39	C	1.518196	-0.597863	-0.506052
C40	C	2.018196	-0.097863	-0.006052
C41	C	1.518250	-0.687484	-0.506068
C42	C	2.018250	-0.187484	-0.006068
C43	C	1.073702	-0.440003	-0.573169
C44	C	1.573702	0.059997	-0.073169
C45	C	0.963978	-0.440013	-0.573180
C46	C	1.463978	0.059987	-0.073180
C47	C	0.963963	-0.336756	-0.439045
C48	C	1.463963	0.163244	0.060955
C49	C	1.073685	-0.336742	-0.439040
C50	C	1.573685	0.163258	0.060960
C51	C	1.073710	-0.499620	-0.650608
C52	C	1.573710	0.000380	-0.150608
C53	C	0.963986	-0.499630	-0.650619
C54	C	1.463986	0.000370	-0.150619
C55	C	1.518433	-1.015659	-0.506177
C56	C	2.018433	-0.515659	-0.006177
C57	C	1.518379	-0.924351	-0.506150
C58	C	2.018379	-0.424351	-0.006150
C59	C	1.518341	-0.851575	-0.506122
C60	C	2.018341	-0.351575	-0.006122
C61	C	1.518288	-0.760260	-0.506096
C62	C	2.018288	-0.260260	-0.006096
C63	C	1.792329	-0.388387	-0.506111
C64	C	2.292329	0.111613	-0.006111
C65	C	1.909105	-0.388394	-0.506117
C66	C	2.409105	0.111606	-0.006117
C67	C	1.518362	-0.388289	-0.780129
C68	C	2.018362	0.111711	-0.280129
C69	C	1.518391	-0.388254	-0.896906
C70	C	2.018391	0.111746	-0.396906
C71	C	1.518424	-0.178063	-0.506163
C72	C	2.018424	0.321937	-0.006163
C73	C	1.518479	-0.088442	-0.506191
C74	C	2.018479	0.411558	-0.006191
C75	C	1.451228	-0.439779	-1.061474
C76	C	1.951228	0.060221	-0.561474
C77	C	1.451188	-0.439802	-0.951750
C78	C	1.951188	0.060198	-0.451750
C79	C	1.585630	-0.336674	-0.951791
C80	C	2.085630	0.163326	-0.451791
C81	C	1.585664	-0.336647	-1.061514
C82	C	2.085664	0.163353	-0.561514
C83	C	1.373613	-0.499322	-1.061450
C84	C	1.873613	0.000678	-0.561450
C85	C	1.373572	-0.499345	-0.951726
C86	C	1.873572	0.000655	-0.451726
C87	C	1.518290	-0.388396	-0.233128
C88	C	2.018290	0.111604	0.266872
C89	C	1.518465	-0.388204	-0.116352
C90	C	2.018465	0.111796	0.383648
H91	H	1.118339	-0.294692	-0.384433
H92	H	1.618339	0.205308	0.115567
H93	H	1.103519	-0.482966	-0.732016
H94	H	1.603519	0.017034	-0.232016
F95	F	0.919545	-0.470495	-0.751724
F96	F	1.419545	0.029505	-0.251724
F97	F	0.905561	-0.281812	-0.367680
F98	F	1.405561	0.218188	0.132320
F99	F	1.118161	-0.577135	-0.612402
F100	F	1.618161	-0.077135	-0.112402
F101	F	0.925022	-0.581226	-0.621916
F102	F	1.425022	-0.081226	-0.121916
F103	F	1.411676	-0.576846	-1.105906
F104	F	1.911676	-0.076846	-0.605906
H105	H	1.640407	-0.294643	-1.106191
H106	H	2.140407	0.205357	-0.606191
F107	F	1.401994	-0.580979	-0.912762
F108	F	1.901994	-0.080979	-0.412762
F109	F	1.657138	-0.281801	-0.893419
F110	F	2.157138	0.218199	-0.393419
F111	F	1.267282	-0.477452	-1.100385
F112	F	1.767282	0.022548	-0.600385
F113	F	1.272545	-0.470116	-0.907255
F114	F	1.772545	0.029884	-0.407255
