data_functionalizedCrystal
_audit_creation_method	'MofGen! by Chris Wilmer'
_symmetry_space_group_name_H-M	'P1'
_symmetry_Int_Tables_number	1
_symmetry_cell_setting	triclinic
loop_
_symmetry_equiv_pos_as_xyz
  x,y,z
_cell_length_a	6.394989
_cell_length_b	10.654549
_cell_length_c	9.130313
_cell_angle_alpha	89.997498
_cell_angle_beta	89.998557
_cell_angle_gamma	85.491244
loop_
_atom_site_label
_atom_site_type_symbol
_atom_site_fract_x
_atom_site_fract_y
_atom_site_fract_z
O1	O	0.293438	1.670948	-0.121755
O2	O	0.321396	1.305765	-0.121764
O3	O	0.003428	1.493540	-0.121761
O4	O	0.611406	1.483173	-0.121758
O5	O	0.003418	1.493526	0.121838
O6	O	0.321387	1.305752	0.121835
O7	O	0.293429	1.670934	0.121844
Cu8	Cu	0.307407	1.488342	0.144082
Cu9	Cu	0.307418	1.488358	-0.144002
O10	O	0.611397	1.483160	0.121841
C11	C	0.319339	1.258939	0.000034
C12	C	0.313197	1.119430	0.000030
C13	C	0.494626	0.910837	0.000037
C14	C	0.500412	1.041919	0.000028
C15	C	0.120184	1.065854	0.000026
C16	C	0.114400	0.934774	0.000024
C17	C	0.689253	1.485216	0.000035
C18	C	0.925578	1.491480	0.000031
C19	C	0.295486	1.717761	0.000043
C20	C	0.301627	1.857269	0.000037
N21	N	0.307398	1.488340	0.346704
N22	N	0.307410	1.488369	-0.346625
C23	C	0.166661	1.571516	0.423358
C24	C	0.166662	1.571528	0.576695
C25	C	0.448154	1.405184	0.576711
C26	C	0.448141	1.405167	0.423377
H27	H	0.052056	1.639239	0.360934
H28	H	0.657570	1.085527	0.000027
H29	H	-0.042772	0.891159	0.000020
O30	O	0.029877	1.652448	0.650928
C31	C	-0.249404	1.817388	0.634720
C32	C	-0.094565	1.725831	0.550470
H33	H	-0.350086	1.876723	0.553536
H34	H	-0.158331	1.881650	0.706452
H35	H	-0.354526	1.761498	0.706560
H36	H	0.010595	1.781618	0.478550
H37	H	-0.185768	1.661568	0.478830
H38	H	-0.032249	1.128974	0.000019
O39	O	0.584660	1.324223	0.651132
C40	C	0.703773	1.107757	0.698028
C41	C	0.549025	1.199303	0.613684
H42	H	0.675046	1.006740	0.667759
H43	H	0.679608	1.121950	0.820804
H44	H	0.871349	1.126822	0.667885
H45	H	0.381388	1.180294	0.643705
H46	H	0.573373	1.185090	0.490928
H47	H	0.562747	1.337429	0.360962
H48	H	0.647079	0.847736	0.000046
