data_functionalizedCrystal
_audit_creation_method	'MofGen! by Chris Wilmer'
_symmetry_space_group_name_H-M	'P1'
_symmetry_Int_Tables_number	1
_symmetry_cell_setting	triclinic
loop_
_symmetry_equiv_pos_as_xyz
  x,y,z
_cell_length_a	9.565339
_cell_length_b	19.288864
_cell_length_c	19.288865
_cell_angle_alpha	83.136245
_cell_angle_beta	89.995006
_cell_angle_gamma	89.982617
loop_
_atom_site_label
_atom_site_type_symbol
_atom_site_fract_x
_atom_site_fract_y
_atom_site_fract_z
O1	O	0.116724	-0.921348	-0.086643
O2	O	0.616724	-0.421348	0.413357
O3	O	0.116631	-0.719087	-0.098331
O4	O	0.616631	-0.219087	0.401669
O5	O	0.116652	-0.826062	0.008643
O6	O	0.616652	-0.326062	0.508643
O7	O	0.116702	-0.814373	-0.193617
O8	O	0.616702	-0.314373	0.306383
O9	O	-0.115868	-0.826054	0.008637
O10	O	0.384132	-0.326054	0.508637
O11	O	-0.115889	-0.719079	-0.098338
O12	O	0.384111	-0.219079	0.401662
O13	O	-0.115796	-0.921339	-0.086649
O14	O	0.384204	-0.421339	0.413351
Zn15	Zn	-0.152760	-0.820208	-0.092495
Zn16	Zn	0.347240	-0.320208	0.407505
Zn17	Zn	0.153595	-0.820219	-0.092486
Zn18	Zn	0.653595	-0.320219	0.407514
O19	O	-0.115818	-0.814365	-0.193624
O20	O	0.384182	-0.314365	0.306376
C21	C	0.000358	-0.693207	-0.097959
C22	C	0.500358	-0.193207	0.402041
C23	C	0.000321	-0.616103	-0.096830
C24	C	0.500321	-0.116103	0.403170
C25	C	0.000388	-0.825682	0.034516
C26	C	0.500388	-0.325682	0.534516
C27	C	0.000375	-0.824553	0.111620
C28	C	0.500375	-0.324553	0.611620
N29	N	-0.361840	-0.820205	-0.092500
N30	N	0.138160	-0.320205	0.407500
C31	C	-0.453053	-0.770718	-0.141956
C32	C	0.046947	-0.270718	0.358044
C33	C	-0.546198	-0.833443	-0.155238
C34	C	-0.046198	-0.333443	0.344762
C35	C	-0.546250	-0.757508	-0.079224
C36	C	-0.046250	-0.257508	0.420776
C37	C	-0.452933	-0.882962	-0.105813
C38	C	0.047067	-0.382962	0.394187
C39	C	-0.452976	-0.806985	-0.029772
C40	C	0.047024	-0.306985	0.470228
C41	C	-0.546080	-0.869755	-0.043027
C42	C	-0.046080	-0.369755	0.456973
N43	N	0.362674	-0.820227	-0.092475
N44	N	0.862674	-0.320227	0.407525
C45	C	0.000480	-0.947220	-0.087022
C46	C	0.500480	-0.447220	0.412978
C47	C	0.000526	-1.024324	-0.088151
C48	C	0.500526	-0.524324	0.411849
C49	C	0.000359	-0.571407	-0.159598
C50	C	0.500359	-0.071407	0.340402
C51	C	0.000374	-0.498960	-0.158537
C52	C	0.500374	0.001040	0.341463
C53	C	0.000380	-0.471212	-0.094705
C54	C	0.500380	0.028788	0.405295
C55	C	0.000335	-0.515918	-0.031929
C56	C	0.500335	-0.015918	0.468071
C57	C	0.000305	-0.588364	-0.032991
C58	C	0.500305	-0.088364	0.467009
C59	C	0.081877	-0.362953	-0.044523
C60	C	0.581877	0.137047	0.455477
C61	C	0.081914	-0.290509	-0.043463
C62	C	0.581914	0.209491	0.456537
C63	C	0.000464	-0.247767	-0.091425
C64	C	0.500464	0.252233	0.408575
C65	C	-0.081007	-0.277476	-0.140458
C66	C	0.418993	0.222524	0.359542
C67	C	-0.081036	-0.349922	-0.141521
C68	C	0.418964	0.150078	0.358479
C69	C	0.000411	-0.392658	-0.093546
C70	C	0.500411	0.107342	0.406454
C71	C	0.000516	-0.124514	-0.153047
C72	C	0.500516	0.375486	0.346953
C73	C	0.000522	-0.052066	-0.151984
C74	C	0.500522	0.447934	0.348016
C75	C	0.000497	-0.069026	-0.025374
C76	C	0.500497	0.430974	0.474626
C77	C	0.000476	-0.141473	-0.026439
C78	C	0.500476	0.358527	0.473561
C79	C	0.000492	-0.169212	-0.090278
C80	C	0.500492	0.330788	0.409722
C81	C	0.000450	-0.814745	-0.219497
C82	C	0.500450	-0.314745	0.280503
C83	C	0.000472	-0.815874	-0.296601
C84	C	0.500472	-0.315874	0.203399
C85	C	0.000397	-0.887321	0.156316
C86	C	0.500397	-0.387321	0.656316
C87	C	0.000419	-0.886260	0.228763
C88	C	0.500419	-0.386260	0.728763
C89	C	0.000390	-0.822428	0.256511
C90	C	0.500390	-0.322428	0.756511
C91	C	0.000376	-0.759652	0.211805
C92	C	0.500376	-0.259652	0.711805
C93	C	0.000369	-0.760714	0.139359
C94	C	0.500369	-0.260714	0.639359
C95	C	-0.081080	-0.772245	0.364796
C96	C	0.418920	-0.272245	0.864796
C97	C	-0.081081	-0.771185	0.437240
C98	C	0.418919	-0.271185	0.937240
C99	C	0.000420	-0.819148	0.479956
C100	C	0.500420	-0.319148	0.979956
C101	C	0.081904	-0.868182	0.450221
C102	C	0.581904	-0.368182	0.950221
C103	C	0.081896	-0.869245	0.377775
C104	C	0.581896	-0.369245	0.877775
C105	C	0.000400	-0.821269	0.335065
C106	C	0.500400	-0.321269	0.835065
C107	C	0.000468	-0.880770	0.603209
C108	C	0.500468	-0.380770	1.103209
C109	C	0.000498	-0.879707	0.675657
C110	C	0.500498	-0.379707	1.175657
C111	C	0.000441	-0.753097	0.658697
C112	C	0.500441	-0.253097	1.158697
C113	C	0.000425	-0.754162	0.586250
C114	C	0.500425	-0.254162	1.086250
C115	C	0.000432	-0.818000	0.558511
C116	C	0.500432	-0.318000	1.058511
H117	H	-0.412206	-0.728906	-0.183818
H118	H	0.087794	-0.228906	0.316182
H119	H	-0.587145	-0.844640	-0.208274
H120	H	-0.087145	-0.344640	0.291726
F121	F	-0.599828	-0.688193	-0.064560
F122	F	-0.099828	-0.188193	0.435440
H123	H	0.000276	-0.624756	0.018124
H124	H	0.500276	-0.124756	0.518124
H125	H	-0.586670	-0.911660	-0.001190
H126	H	-0.086670	-0.411660	0.498810
H127	H	-0.411997	-0.795769	0.023247
H128	H	0.088003	-0.295769	0.523247
H129	H	0.000399	-0.703049	0.549857
H130	H	0.500399	-0.203049	1.049857
H131	H	0.000375	-0.593987	-0.211580
H132	H	0.500375	-0.093987	0.288420
H133	H	-0.147421	-0.731256	0.461445
H134	H	0.352579	-0.231256	0.961445
H135	H	0.000401	-0.462561	-0.209652
H136	H	0.500401	0.037439	0.290348
H137	H	0.000425	-0.701123	0.681288
H138	H	0.500425	-0.201123	1.181288
F139	F	0.168634	-0.258895	0.008716
F140	F	0.668634	0.241105	0.508716
H141	H	-0.412117	-0.936004	-0.117095
H142	H	0.087883	-0.436004	0.382905
F143	F	0.000468	-0.948712	0.573684
F144	F	0.500468	-0.448712	1.073684
H145	H	0.148270	-0.907238	0.484999
H146	H	0.648270	-0.407238	0.984999
H147	H	-0.147377	-0.374109	-0.181443
H148	H	0.352623	0.125891	0.318557
F149	F	-0.167699	-0.231993	-0.191507
F150	F	0.332301	0.268007	0.308493
H151	H	0.000508	-0.147101	-0.205028
H152	H	0.500508	0.352899	0.294972
F153	F	0.168573	-0.408436	0.006528
F154	F	0.668573	0.091564	0.506528
H155	H	0.000350	-0.709599	0.102967
H156	H	0.500350	-0.209599	0.602967
H157	H	0.000545	-0.015674	-0.203099
H158	H	0.500545	0.484326	0.296901
H159	H	0.148246	-0.909169	0.353567
H160	H	0.648246	-0.409169	0.853567
F161	F	0.000489	-0.039500	0.042562
F162	F	0.500489	0.460500	0.542562
F163	F	0.000443	-0.189044	0.040368
F164	F	0.500443	0.310956	0.540368
F165	F	0.000531	-0.946517	0.723227
F166	F	0.500531	-0.446517	1.223227
H167	H	0.000358	-0.493322	0.020044
H168	H	0.500358	0.006678	0.520044
H169	H	0.000408	-0.939303	0.133736
H170	H	0.500408	-0.439303	0.633736
F171	F	-0.167832	-0.721194	0.319341
F172	F	0.332168	-0.221194	0.819341
H173	H	0.000356	-0.707679	0.234401
H174	H	0.500356	-0.207679	0.734401
H175	H	0.000443	-0.937375	0.265162
H176	H	0.500443	-0.437375	0.765162
