data_functionalizedCrystal
_audit_creation_method	'MofGen! by Chris Wilmer'
_symmetry_space_group_name_H-M	'P1'
_symmetry_Int_Tables_number	1
_symmetry_cell_setting	triclinic
loop_
_symmetry_equiv_pos_as_xyz
  x,y,z
_cell_length_a	10.685980
_cell_length_b	14.908178
_cell_length_c	14.908858
_cell_angle_alpha	83.193056
_cell_angle_beta	89.152381
_cell_angle_gamma	97.409567
loop_
_atom_site_label
_atom_site_type_symbol
_atom_site_fract_x
_atom_site_fract_y
_atom_site_fract_z
Zn1	Zn	1.862870	-0.222506	-0.599482
Zn2	Zn	2.362870	0.277494	-0.099482
Zn3	Zn	1.862734	-0.382644	-0.439367
Zn4	Zn	2.362734	0.117356	0.060633
Zn5	Zn	1.663354	-0.242880	-0.436512
Zn6	Zn	2.163354	0.257120	0.063488
Zn7	Zn	1.640310	-0.386784	-0.577734
Zn8	Zn	2.140310	0.113216	-0.077734
O9	O	1.757317	-0.308703	-0.513274
O10	O	2.257317	0.191297	-0.013274
O11	O	2.039434	-0.233489	-0.588539
O12	O	2.539434	0.266511	-0.088539
O13	O	1.845873	-0.370898	-0.312878
O14	O	2.345873	0.129102	0.187122
O15	O	1.699521	-0.112934	-0.466036
O16	O	2.199521	0.387066	0.033964
O17	O	2.039334	-0.351142	-0.470903
O18	O	2.539334	0.148858	0.029097
O19	O	1.846104	-0.097966	-0.585770
O20	O	2.346104	0.402034	-0.085770
O21	O	1.699390	-0.268214	-0.310780
O22	O	2.199390	0.231786	0.189220
O23	O	1.483715	-0.272228	-0.444948
O24	O	1.983715	0.227772	0.055052
O25	O	1.660246	-0.358198	-0.706729
O26	O	2.160246	0.141802	-0.206729
O27	O	1.466784	-0.377954	-0.548704
O28	O	1.966784	0.122046	-0.048704
O29	O	1.823759	-0.237504	-0.722707
O30	O	2.323759	0.262496	-0.222707
O31	O	1.823528	-0.510436	-0.449815
O32	O	2.323528	-0.010436	0.050185
O33	O	1.660114	-0.513478	-0.551473
O34	O	2.160114	-0.013478	-0.051473
C35	C	1.429464	-0.327752	-0.494157
C36	C	1.929464	0.172248	0.005843
C37	C	1.289203	-0.335922	-0.485998
C38	C	1.789203	0.164078	0.014002
C39	C	1.739339	-0.544946	-0.498615
C40	C	2.239339	-0.044946	0.001385
C41	C	1.731761	-0.646004	-0.492382
C42	C	2.231761	-0.146004	0.007618
C43	C	1.870025	-0.820165	-0.605462
C44	C	2.370025	-0.320165	-0.105462
C45	C	1.862909	-0.915117	-0.599608
C46	C	2.362909	-0.415117	-0.099608
C47	C	1.710406	-0.930861	-0.474824
C48	C	2.210406	-0.430861	0.025176
C49	C	1.717522	-0.835909	-0.480678
C50	C	2.217522	-0.335909	0.019322
C51	C	1.797336	-0.780564	-0.545999
C52	C	2.297336	-0.280564	-0.045999
C53	C	1.804458	-0.685610	-0.551848
C54	C	2.304458	-0.185610	-0.051848
C55	C	1.651949	-0.701357	-0.427069
C56	C	2.151949	-0.201357	0.072931
C57	C	1.644833	-0.796309	-0.421215
C58	C	2.144833	-0.296309	0.078785
C59	C	2.086450	-0.289581	-0.532466
C60	C	2.586450	0.210419	-0.032466
C61	C	2.226708	-0.281432	-0.540644
C62	C	2.726708	0.218568	-0.040644
C63	C	1.739447	-0.296040	-0.748331
C64	C	2.239447	0.203960	-0.248331
C65	C	1.731832	-0.290644	-0.848499
C66	C	2.231832	0.209356	-0.348499
C67	C	1.775399	-0.071535	-0.528011
C68	C	2.275399	0.428465	-0.028011
C69	C	1.783104	0.029532	-0.534291
C70	C	2.283104	0.529532	-0.034291
C71	C	1.644842	-0.229578	-0.988588
C72	C	2.144842	0.270422	-0.488588
C73	C	1.651993	-0.234647	-0.894472
C74	C	2.151993	0.265353	-0.394472
C75	C	1.804530	-0.341574	-0.896650
C76	C	2.304530	0.158426	-0.396650
C77	C	1.797380	-0.336505	-0.990767
C78	C	2.297380	0.163495	-0.490767
C79	C	1.717532	-0.280507	-1.036732
C80	C	2.217532	0.219493	-0.536732
C81	C	1.710376	-0.275443	-1.130850
C82	C	2.210376	0.224557	-0.630850
C83	C	1.862919	-0.382365	-1.133028
C84	C	2.362919	0.117635	-0.633028
C85	C	1.870069	-0.387434	-1.038911
C86	C	2.370069	0.112566	-0.538911
C87	C	1.775195	-0.321247	-0.279138
C88	C	2.275195	0.178753	0.220862
C89	C	1.783074	-0.326373	-0.179001
C90	C	2.283074	0.173627	0.320999
H91	H	1.280506	-0.228526	-0.593669
H92	H	1.780506	0.271474	-0.093669
H93	H	1.922115	-0.423830	-1.172237
H94	H	2.422115	0.076170	-0.672237
H95	H	1.922094	-0.947356	-0.648034
H96	H	2.422094	-0.447356	-0.148034
H97	H	1.592804	-0.193174	-0.855276
H98	H	2.092804	0.306826	-0.355276
H99	H	1.869547	-0.387159	-0.859210
H100	H	2.369547	0.112841	-0.359210
H101	H	1.645359	-0.229847	-1.168274
H102	H	2.145359	0.270153	-0.668274
H103	H	1.935022	-0.775102	-0.658643
H104	H	2.435022	-0.275102	-0.158643
H105	H	1.935083	-0.433024	-1.001473
H106	H	2.435083	0.066976	-0.501473
H107	H	1.579822	-0.183985	-1.026014
H108	H	2.079822	0.316015	-0.526014
H109	H	1.235399	-0.388826	-0.432964
H110	H	1.735399	0.111174	0.067036
H111	H	1.645420	-0.975939	-0.421648
H112	H	2.145420	-0.475939	0.078352
H113	H	1.869450	-0.640549	-0.605033
H114	H	2.369450	-0.140549	-0.105033
H115	H	1.579848	-0.841383	-0.368035
H116	H	2.079848	-0.341383	0.131965
H117	H	1.592764	-0.669103	-0.378647
H118	H	2.092764	-0.169103	0.121353
