data_functionalizedCrystal
_audit_creation_method	'MofGen! by Chris Wilmer'
_symmetry_space_group_name_H-M	'P1'
_symmetry_Int_Tables_number	1
_symmetry_cell_setting	triclinic
loop_
_symmetry_equiv_pos_as_xyz
  x,y,z
_cell_length_a	21.395362
_cell_length_b	18.215405
_cell_length_c	18.215399
_cell_angle_alpha	89.969449
_cell_angle_beta	89.960921
_cell_angle_gamma	90.040762
loop_
_atom_site_label
_atom_site_type_symbol
_atom_site_fract_x
_atom_site_fract_y
_atom_site_fract_z
Zn1	Zn	0.957855	-0.292680	-0.416481
Zn2	Zn	1.291188	0.040653	-0.083147
Zn3	Zn	1.624521	0.373987	0.250186
Zn4	Zn	0.957777	-0.415751	-0.293409
Zn5	Zn	1.291110	-0.082418	0.039925
Zn6	Zn	1.624443	0.250916	0.373258
Zn7	Zn	0.853079	-0.292737	-0.293387
Zn8	Zn	1.186412	0.040596	0.039947
Zn9	Zn	1.519745	0.373930	0.373280
Zn10	Zn	0.853050	-0.415743	-0.416392
Zn11	Zn	1.186383	-0.082410	-0.083059
Zn12	Zn	1.519716	0.250923	0.250274
O13	O	0.905440	-0.354228	-0.354917
O14	O	1.238773	-0.020895	-0.021584
O15	O	1.572107	0.312439	0.311750
O16	O	1.045522	-0.308985	-0.400201
O17	O	1.378856	0.024348	-0.066868
O18	O	1.712189	0.357682	0.266466
O19	O	0.943868	-0.399460	-0.190421
O20	O	1.277201	-0.066127	0.142912
O21	O	1.610535	0.267206	0.476245
O22	O	0.867022	-0.189745	-0.309743
O23	O	1.200356	0.143588	0.023590
O24	O	1.533689	0.476921	0.356924
O25	O	1.045465	-0.399405	-0.309781
O26	O	1.378798	-0.066071	0.023553
O27	O	1.712132	0.267262	0.356886
O28	O	0.944001	-0.189703	-0.400180
O29	O	1.277334	0.143630	-0.066846
O30	O	1.610667	0.476964	0.266487
O31	O	0.866947	-0.309082	-0.190405
O32	O	1.200280	0.024251	0.142928
O33	O	1.533613	0.357584	0.476261
O34	O	0.765397	-0.309075	-0.309657
O35	O	1.098730	0.024259	0.023676
O36	O	1.432064	0.357592	0.357009
O37	O	0.866973	-0.399391	-0.519388
O38	O	1.200306	-0.066058	-0.186055
O39	O	1.533639	0.267275	0.147278
O40	O	0.765376	-0.399447	-0.400029
O41	O	1.098709	-0.066114	-0.066696
O42	O	1.432042	0.267220	0.266638
O43	O	0.943973	-0.308977	-0.519453
O44	O	1.277306	0.024356	-0.186120
O45	O	1.610639	0.357689	0.147213
O46	O	0.943840	-0.518734	-0.309695
O47	O	1.277173	-0.185401	0.023638
O48	O	1.610506	0.147932	0.356972
O49	O	0.866897	-0.518729	-0.400051
O50	O	1.200230	-0.185395	-0.066717
O51	O	1.533564	0.147938	0.266616
C52	C	0.742652	-0.354267	-0.354832
C53	C	1.075986	-0.020933	-0.021498
C54	C	1.409319	0.312400	0.311835
C55	C	0.673011	-0.354301	-0.354813
C56	C	1.006344	-0.020968	-0.021479
C57	C	1.339678	0.312365	0.311854
C58	C	0.640303	-0.401420	-0.401799
C59	C	0.973636	-0.068087	-0.068465
C60	C	1.306970	0.265246	0.264868
C61	C	0.574868	-0.401402	-0.401832
C62	C	0.908201	-0.068069	-0.068498
C63	C	1.241534	0.265264	0.264835
C64	C	0.542143	-0.354273	-0.354865
C65	C	0.875476	-0.020939	-0.021532
C66	C	1.208809	0.312394	0.311802
C67	C	0.574858	-0.307145	-0.307876
C68	C	0.908192	0.026189	0.025458
C69	C	1.241525	0.359522	0.358791
C70	C	0.640293	-0.307159	-0.307850
C71	C	0.973626	0.026175	0.025484
C72	C	1.306959	0.359508	0.358817
C73	C	0.438422	-0.348357	-0.288613
C74	C	0.771756	-0.015023	0.044720
C75	C	1.105089	0.318310	0.378054
C76	C	0.372989	-0.348348	-0.288638
C77	C	0.706323	-0.015014	0.044695
C78	C	1.039656	0.318319	0.378029
C79	C	0.340322	-0.354225	-0.354946
C80	C	0.673655	-0.020891	-0.021613
C81	C	1.006989	0.312442	0.311720
C82	C	0.373096	-0.360127	-0.421232
C83	C	0.706429	-0.026793	-0.087898
C84	C	1.039762	0.306540	0.245435
C85	C	0.438530	-0.360141	-0.421206
C86	C	0.771863	-0.026807	-0.087872
C87	C	1.105197	0.306526	0.245461
C88	C	0.471190	-0.354252	-0.354889
C89	C	0.804524	-0.020919	-0.021555
C90	C	1.137857	0.312415	0.311778
C91	C	0.236662	-0.401327	-0.401972
C92	C	0.569995	-0.067994	-0.068639
C93	C	0.903328	0.265340	0.264695
C94	C	0.171225	-0.401304	-0.402006
C95	C	0.504558	-0.067970	-0.068673
C96	C	0.837892	0.265363	0.264661
C97	C	0.171217	-0.307050	-0.308044
C98	C	0.504550	0.026284	0.025290
C99	C	0.837884	0.359617	0.358623
C100	C	0.236652	-0.307069	-0.308016
C101	C	0.569986	0.026264	0.025317
C102	C	0.903319	0.359598	0.358651
C103	C	0.269371	-0.354212	-0.354979
C104	C	0.602704	-0.020878	-0.021646
C105	C	0.936037	0.312455	0.311687
C106	C	0.905374	-0.545434	-0.354882
C107	C	1.238707	-0.212101	-0.021548
C108	C	1.572040	0.121232	0.311785
C109	C	0.905403	-0.627233	-0.354891
C110	C	1.238736	-0.293900	-0.021558
C111	C	1.572069	0.039434	0.311776
C112	C	0.945561	-0.815405	-0.307930
C113	C	1.278894	-0.482072	0.025404
C114	C	1.612228	-0.148739	0.358737
C115	C	0.945589	-0.892264	-0.307948
C116	C	1.278922	-0.558931	0.025386
C117	C	1.612256	-0.225598	0.358719
C118	C	0.865399	-0.892298	-0.401957
C119	C	1.198732	-0.558965	-0.068624
C120	C	1.532066	-0.225631	0.264709
C121	C	0.865375	-0.815441	-0.401943
C122	C	1.198708	-0.482108	-0.068609
C123	C	1.532041	-0.148774	0.264724
C124	C	0.905455	-0.776996	-0.354925
C125	C	1.238788	-0.443663	-0.021591
C126	C	1.572121	-0.110330	0.311742
C127	C	0.905507	-0.930713	-0.354957
C128	C	1.238840	-0.597379	-0.021624
C129	C	1.572174	-0.264046	0.311709
C130	C	0.905537	-1.014046	-0.354977
C131	C	1.238871	-0.680713	-0.021644
C132	C	1.572204	-0.347379	0.311690
C133	C	0.905426	-0.693658	-0.354906
C134	C	1.238759	-0.360324	-0.021572
C135	C	1.572092	-0.026991	0.311761
C136	C	1.068863	-0.354189	-0.355003
C137	C	1.402197	-0.020856	-0.021670
C138	C	1.735530	0.312477	0.311663
C139	C	1.138505	-0.354173	-0.355040
C140	C	1.471838	-0.020840	-0.021707
C141	C	1.805171	0.312494	0.311627
C142	C	0.905478	-0.354177	-0.546870
C143	C	1.238811	-0.020844	-0.213537
C144	C	1.572145	0.312490	0.119797
C145	C	0.905494	-0.354155	-0.628669
C146	C	1.238828	-0.020822	-0.295336
C147	C	1.572161	0.312511	0.037998
C148	C	0.905523	-0.162275	-0.354969
C149	C	1.238857	0.171058	-0.021635
C150	C	1.572190	0.504392	0.311698
C151	C	0.905559	-0.080476	-0.354991
C152	C	1.238892	0.252857	-0.021657
C153	C	1.572226	0.586191	0.311676
C154	C	0.945603	-0.307033	-0.816898
C155	C	1.278936	0.026301	-0.483565
C156	C	1.612269	0.359634	-0.150231
C157	C	0.945610	-0.307011	-0.893757
C158	C	1.278943	0.026322	-0.560424
C159	C	1.612277	0.359655	-0.227090
C160	C	0.865430	-0.401164	-0.893678
C161	C	1.198764	-0.067831	-0.560345
C162	C	1.532097	0.265502	-0.227011
C163	C	0.865420	-0.401182	-0.816821
C164	C	1.198754	-0.067848	-0.483487
C165	C	1.532087	0.265485	-0.150154
C166	C	0.905510	-0.354117	-0.778433
C167	C	1.238843	-0.020784	-0.445099
C168	C	1.572177	0.312550	-0.111766
C169	C	0.905528	-0.354078	-0.932149
C170	C	1.238861	-0.020745	-0.598815
C171	C	1.572194	0.312588	-0.265482
C172	C	0.905535	-0.354055	-1.015483
C173	C	1.238869	-0.020722	-0.682149
C174	C	1.572202	0.312611	-0.348816
C175	C	0.905501	-0.354139	-0.695094
C176	C	1.238835	-0.020805	-0.361760
C177	C	1.572168	0.312528	-0.028427
C178	C	0.905438	-0.354225	-0.163711
C179	C	1.238771	-0.020892	0.169622
C180	C	1.572105	0.312441	0.502956
C181	C	0.905543	-0.354040	-0.081912
C182	C	1.238876	-0.020706	0.251421
C183	C	1.572210	0.312627	0.584754
H184	H	0.666938	-0.439806	-0.440041
H185	H	1.000272	-0.106473	-0.106708
H186	H	1.333605	0.226860	0.226626
H187	H	0.978248	-0.923533	-0.269680
H188	H	1.311582	-0.590200	0.063653
H189	H	1.644915	-0.256867	0.396986
C190	C	0.538882	-0.453241	-0.453520
C191	C	0.872215	-0.119908	-0.120186
C192	C	1.205549	0.213425	0.213147
N193	N	0.511779	-0.492288	-0.492450
N194	N	0.845113	-0.158955	-0.159117
N195	N	1.178446	0.174379	0.174217
H196	H	0.832767	-0.923609	-0.440237
H197	H	1.166100	-0.590276	-0.106903
H198	H	1.499433	-0.256942	0.226430
C199	C	0.135223	-0.255206	-0.256380
C200	C	0.468557	0.078127	0.076953
C201	C	0.801890	0.411461	0.410287
N202	N	0.108110	-0.216155	-0.217467
N203	N	0.441443	0.117178	0.115867
N204	N	0.774776	0.450512	0.449200
C205	C	0.989653	-0.773119	-0.256213
C206	C	1.322987	-0.439786	0.077121
C207	C	1.656320	-0.106453	0.410454
N208	N	1.022867	-0.741272	-0.217259
N209	N	1.356200	-0.407938	0.116074
N210	N	1.689533	-0.074605	0.449407
C211	C	0.821265	-0.773188	-0.453659
C212	C	1.154599	-0.439855	-0.120325
C213	C	1.487932	-0.106522	0.213008
N214	N	0.788049	-0.741364	-0.492616
N215	N	1.121382	-0.408031	-0.159283
N216	N	1.454716	-0.074697	0.174050
C217	C	0.989697	-0.255254	-0.774674
C218	C	1.323030	0.078079	-0.441341
C219	C	1.656364	0.411413	-0.108007
N220	N	1.022908	-0.216250	-0.742873
N221	N	1.356241	0.117084	-0.409540
N222	N	1.689575	0.450417	-0.076206
C223	C	0.989717	-0.255217	-0.936065
C224	C	1.323050	0.078117	-0.602732
C225	C	1.656384	0.411450	-0.269399
N226	N	1.022940	-0.216203	-0.967932
N227	N	1.356273	0.117131	-0.634598
N228	N	1.689607	0.450464	-0.301265
H229	H	0.832792	-0.439484	-0.924943
H230	H	1.166126	-0.106151	-0.591610
H231	H	1.499459	0.227182	-0.258276
H232	H	0.666923	-0.268786	-0.269588
H233	H	1.000256	0.064547	0.063746
H234	H	1.333590	0.397880	0.397079
H235	H	0.346500	-0.364911	-0.475227
H236	H	0.679833	-0.031578	-0.141893
H237	H	1.013166	0.301756	0.191440
H238	H	0.832767	-0.439522	-0.785501
H239	H	1.166101	-0.106189	-0.452168
H240	H	1.499434	0.227144	-0.118835
H241	H	0.263283	-0.268703	-0.269751
H242	H	0.596617	0.064630	0.063582
H243	H	0.929950	0.397963	0.396915
H244	H	0.465212	-0.364944	-0.475177
H245	H	0.798545	-0.031611	-0.141844
H246	H	1.131878	0.301723	0.191489
H247	H	0.144595	-0.439672	-0.440272
H248	H	0.477929	-0.106339	-0.106939
H249	H	0.811262	0.226994	0.226394
C250	C	0.272654	-0.453176	-0.453640
C251	C	0.605987	-0.119842	-0.120307
C252	C	0.939321	0.213491	0.213026
N253	N	0.299762	-0.492227	-0.492559
N254	N	0.633095	-0.158894	-0.159226
N255	N	0.966429	0.174440	0.174108
H256	H	0.465015	-0.343567	-0.234613
H257	H	0.798348	-0.010234	0.098720
H258	H	1.131681	0.323099	0.432053
C259	C	0.336945	-0.341850	-0.215724
C260	C	0.670278	-0.008517	0.117610
C261	C	1.003611	0.324816	0.450943
N262	N	0.309797	-0.336953	-0.160803
N263	N	0.643130	-0.003619	0.172530
N264	N	0.976464	0.329714	0.505864
H265	H	0.548210	-0.268770	-0.269637
H266	H	0.881543	0.064563	0.063697
H267	H	1.214876	0.397897	0.397030
