data_functionalizedCrystal
_audit_creation_method	'MofGen! by Chris Wilmer'
_symmetry_space_group_name_H-M	'P1'
_symmetry_Int_Tables_number	1
_symmetry_cell_setting	triclinic
loop_
_symmetry_equiv_pos_as_xyz
  x,y,z
_cell_length_a	15.995350
_cell_length_b	15.995350
_cell_length_c	14.472310
_cell_angle_alpha	89.998838
_cell_angle_beta	90.009379
_cell_angle_gamma	83.492375
loop_
_atom_site_label
_atom_site_type_symbol
_atom_site_fract_x
_atom_site_fract_y
_atom_site_fract_z
O1	O	-1.110997	-0.107921	-0.076758
O2	O	-0.867221	-0.121248	-0.076776
O3	O	-0.995773	0.007303	-0.076766
O4	O	-0.982445	-0.236472	-0.076769
O5	O	-0.995740	0.007296	0.076916
O6	O	-0.867188	-0.121256	0.076906
O7	O	-1.110963	-0.107928	0.076924
Cu8	Cu	-0.989073	-0.114593	0.090947
Cu9	Cu	-0.989112	-0.114584	-0.090800
O10	O	-0.982412	-0.236480	0.076913
C11	C	-0.995205	0.038494	0.000073
C12	C	-0.993553	0.131444	0.000068
C13	C	-0.836010	-0.120701	0.000062
C14	C	-0.743060	-0.119049	0.000055
C15	C	-1.142175	-0.108476	0.000083
C16	C	-1.235125	-0.110127	0.000084
C17	C	-0.405312	-0.113117	0.000074
C18	C	-0.452746	-0.021565	0.000418
C19	C	-0.549436	-0.023217	0.000065
C20	C	-0.572873	-0.116060	0.000065
C21	C	-0.531804	-0.161212	-0.087692
C22	C	-0.435169	-0.158912	-0.087759
C23	C	-0.434792	-0.160812	0.087007
C24	C	-0.531737	-0.160790	0.088160
C25	C	-0.667570	-0.117727	0.000057
C26	C	-0.310614	-0.111452	0.000076
C27	C	-0.982980	-0.267671	0.000072
C28	C	-0.984631	-0.360621	0.000071
N29	N	-0.989051	-0.114598	0.218778
C30	C	-0.987621	0.469192	0.000071
C31	C	-0.896069	0.421758	-0.000281
C32	C	-0.897721	0.325068	0.000066
C33	C	-0.990564	0.301631	0.000069
C34	C	-1.035701	0.342705	0.087831
C35	C	-1.033401	0.439340	0.087904
C36	C	-1.035330	0.439707	-0.086861
C37	C	-1.035309	0.342762	-0.088021
C38	C	-0.992231	0.206934	0.000071
C39	C	-0.985956	0.563890	0.000075
N40	N	-0.989140	-0.114572	-0.218631
C41	C	-0.989111	-0.114581	0.592869
C42	C	-0.920095	-0.183135	0.553698
C43	C	-0.920254	-0.183385	0.446610
C44	C	-0.989081	-0.114590	0.407278
C45	C	-1.076445	-0.133671	0.446122
C46	C	-1.076057	-0.134159	0.553243
C47	C	-0.971542	-0.026741	0.553398
C48	C	-0.969538	-0.027327	0.446270
C49	C	-0.989069	-0.114593	0.302390
C50	C	-0.989128	-0.114579	0.697757
H51	H	-0.577852	0.012275	0.062973
H52	H	-1.129018	-0.086196	0.579154
O53	O	-0.582835	0.019409	-0.075051
C54	C	-0.670816	0.018057	-0.075681
H55	H	-0.693560	0.006927	-0.002532
H56	H	-0.687533	-0.034739	-0.122743
C57	C	-0.685683	0.116604	-0.201453
C58	C	-0.713618	0.102941	-0.111608
H59	H	-0.712086	0.168962	-0.223618
H60	H	-0.626408	0.117512	-0.201031
H61	H	-0.699616	0.072601	-0.240660
H62	H	-0.699676	0.146937	-0.072401
H63	H	-0.772892	0.102042	-0.112024
H64	H	-1.129029	-0.085068	0.420643
O65	O	-1.117102	0.325963	0.091856
C66	C	-1.155711	0.363718	0.171427
H67	H	-1.120402	0.418217	0.194254
H68	H	-1.154142	0.315188	0.229277
C69	C	-1.291065	0.329960	0.121328
C70	C	-1.247703	0.396901	0.149360
H71	H	-1.347811	0.350426	0.107719
H72	H	-1.265054	0.304521	0.067721
H73	H	-1.289749	0.289524	0.169541
H74	H	-1.249010	0.437330	0.101143
H75	H	-1.273716	0.422348	0.202958
H76	H	-0.931159	-0.247952	0.580608
O77	O	-0.413188	-0.119672	-0.165987
C78	C	-0.325382	-0.117055	-0.167054
H79	H	-0.293705	-0.169283	-0.121167
H80	H	-0.310405	-0.053468	-0.140062
C81	C	-0.331396	-0.065394	-0.323025
C82	C	-0.292489	-0.129546	-0.266672
H83	H	-0.311106	-0.073095	-0.384474
H84	H	-0.390553	-0.067154	-0.322306
H85	H	-0.318912	-0.012410	-0.300521
H86	H	-0.304983	-0.182526	-0.289170
H87	H	-0.233333	-0.127795	-0.267397
O88	O	-0.548548	-0.242613	-0.091716
C89	C	-0.510799	-0.281234	-0.171283
H90	H	-0.456300	-0.245931	-0.194107
H91	H	-0.559332	-0.279672	-0.229136
C92	C	-0.544559	-0.416579	-0.121182
C93	C	-0.477617	-0.373224	-0.149210
H94	H	-0.524094	-0.473324	-0.107570
H95	H	-0.569994	-0.390560	-0.067578
H96	H	-0.584997	-0.415269	-0.169398
H97	H	-0.437185	-0.374525	-0.100991
H98	H	-0.452174	-0.399246	-0.202806
O99	O	-0.854964	0.291761	0.075143
C100	C	-0.787013	0.233934	0.045934
H101	H	-0.769207	0.249226	-0.027930
H102	H	-0.806091	0.167436	0.048734
C103	C	-0.732933	0.221155	0.200748
C104	C	-0.711060	0.239941	0.110028
H105	H	-0.686083	0.224857	0.240285
H106	H	-0.778715	0.260112	0.220428
H107	H	-0.748833	0.165741	0.203067
H108	H	-0.695171	0.295357	0.107708
H109	H	-0.665274	0.200993	0.090349
O110	O	-0.430512	0.021985	0.075523
C111	C	-0.371751	-0.029700	0.128931
H112	H	-0.338645	-0.081455	0.083460
H113	H	-0.405798	-0.059259	0.187607
C114	C	-0.346956	0.087249	0.225283
C115	C	-0.306289	0.023687	0.169433
H116	H	-0.306578	0.120180	0.250271
H117	H	-0.386546	0.122071	0.189304
H118	H	-0.375326	0.062607	0.274172
H119	H	-0.277929	0.048330	0.120539
H120	H	-0.266692	-0.011129	0.205405
H121	H	-1.091540	-0.198219	0.578220
H122	H	-1.002307	0.315516	-0.152945
O123	O	-0.855462	0.291275	-0.075084
C124	C	-0.894333	0.325626	-0.156170
H125	H	-0.931400	0.388974	-0.139609
H126	H	-0.938860	0.280976	-0.184419
C127	C	-0.781048	0.260090	-0.249299
C128	C	-0.826569	0.337898	-0.228959
H129	H	-0.739249	0.267657	-0.294200
H130	H	-0.754861	0.236944	-0.194670
H131	H	-0.818162	0.222889	-0.272834
H132	H	-0.789456	0.375094	-0.205413
H133	H	-0.852748	0.361051	-0.283586
H134	H	-1.092297	-0.197002	0.419285
H135	H	-1.004324	0.314320	0.153137
O136	O	-0.852299	0.443883	-0.075259
C137	C	-0.780492	0.480136	-0.045815
H138	H	-0.763067	0.457860	0.027231
H139	H	-0.794524	0.551621	-0.046369
C140	C	-0.728036	0.480625	-0.201292
C141	C	-0.706631	0.453259	-0.111579
H142	H	-0.682476	0.464049	-0.241860
H143	H	-0.776415	0.456203	-0.221130
H144	H	-0.739730	0.540194	-0.201741
H145	H	-0.694947	0.393690	-0.111129
H146	H	-0.658248	0.477670	-0.091742
H147	H	-0.403031	-0.228313	0.087600
H148	H	-0.559040	-0.127830	0.153082
H149	H	-0.433166	0.014865	-0.062168
H150	H	-1.005412	0.460250	-0.153379
O151	O	-1.115843	0.477631	-0.087737
C152	C	-1.129701	0.525743	-0.169065
H153	H	-1.082618	0.500357	-0.224197
H154	H	-1.121299	0.594201	-0.153734
C155	C	-1.277617	0.551294	-0.136427
C156	C	-1.219793	0.520110	-0.204143
H157	H	-1.333191	0.547823	-0.158063
H158	H	-1.268281	0.518883	-0.081633
H159	H	-1.270605	0.608340	-0.123657
H160	H	-1.226799	0.463062	-0.216903
H161	H	-1.229133	0.552511	-0.258941
H162	H	-1.000459	0.457639	0.153505
O163	O	-0.565751	-0.123916	-0.165634
C164	C	-0.603899	-0.183391	-0.218218
H165	H	-0.620330	-0.236350	-0.171230
H166	H	-0.558500	-0.210382	-0.274217
C167	C	-0.664520	-0.075313	-0.321193
C168	C	-0.684707	-0.140355	-0.263480
H169	H	-0.714364	-0.048767	-0.349117
H170	H	-0.638816	-0.035244	-0.285769
H171	H	-0.626685	-0.097816	-0.367851
H172	H	-0.722532	-0.117850	-0.216817
H173	H	-0.710419	-0.180420	-0.298898
H174	H	-0.402921	-0.226128	-0.091741
H175	H	-0.414242	-0.130885	0.153524
H176	H	-0.909219	-0.008392	0.580461
O177	O	-0.550012	-0.241568	0.094652
C178	C	-0.511886	-0.279229	0.174538
H179	H	-0.499819	-0.228236	0.226309
H180	H	-0.449642	-0.317027	0.155085
C181	C	-0.585442	-0.400821	0.154558
C182	C	-0.570628	-0.338192	0.218148
H183	H	-0.621674	-0.437196	0.181458
H184	H	-0.611126	-0.375450	0.100735
H185	H	-0.533567	-0.432311	0.138353
H186	H	-0.622501	-0.306697	0.234343
H187	H	-0.544954	-0.363559	0.271975
O188	O	-1.113534	0.477953	0.092635
C189	C	-1.112215	0.565940	0.092777
H190	H	-1.051157	0.581918	0.060097
H191	H	-1.116406	0.590146	0.166913
C192	C	-1.262586	0.588148	0.077072
C193	C	-1.187597	0.607773	0.036926
H194	H	-1.309087	0.613954	0.042624
H195	H	-1.263476	0.528870	0.076979
H196	H	-1.266067	0.608320	0.138850
H197	H	-1.184112	0.587592	-0.024847
H198	H	-1.186708	0.667049	0.037007
H199	H	-0.931473	-0.248569	0.420976
H200	H	-0.905272	-0.012845	0.420883
O201	O	-1.031624	0.034028	0.583734
C202	C	-1.089307	-0.002603	0.640316
H203	H	-1.057998	-0.064555	0.669579
H204	H	-1.146558	-0.014919	0.597633
C205	C	-1.155728	0.133799	0.684308
C206	C	-1.117271	0.057711	0.720256
H207	H	-1.172981	0.171004	0.733617
H208	H	-1.116868	0.158478	0.646185
H209	H	-1.203432	0.123524	0.648739
H210	H	-1.069562	0.067986	0.755814
H211	H	-1.156124	0.033035	0.758387
H212	H	-1.016541	0.026079	0.419500
H213	H	-0.859626	0.441349	0.062299
H214	H	-1.103014	0.327400	-0.093317
H215	H	-0.855314	-0.172016	0.420349
H216	H	-0.854945	-0.171953	0.579481
