data_functionalizedCrystal
_audit_creation_method	'MofGen! by Chris Wilmer'
_symmetry_space_group_name_H-M	'P1'
_symmetry_Int_Tables_number	1
_symmetry_cell_setting	triclinic
loop_
_symmetry_equiv_pos_as_xyz
  x,y,z
_cell_length_a	16.109302
_cell_length_b	16.109301
_cell_length_c	14.048226
_cell_angle_alpha	89.992144
_cell_angle_beta	89.991597
_cell_angle_gamma	83.461631
loop_
_atom_site_label
_atom_site_type_symbol
_atom_site_fract_x
_atom_site_fract_y
_atom_site_fract_z
O1	O	1.103134	0.106872	-0.079206
O2	O	1.603134	0.606872	0.420794
O3	O	0.861072	0.120171	-0.079199
O4	O	1.361072	0.620171	0.420801
O5	O	0.988752	-0.007510	-0.079193
O6	O	1.488752	0.492490	0.420807
O7	O	0.975453	0.234552	-0.079212
O8	O	1.475453	0.734552	0.420788
O9	O	0.988737	-0.007517	0.079128
O10	O	1.488737	0.492483	0.579128
O11	O	0.861056	0.120163	0.079122
O12	O	1.361056	0.620163	0.579122
O13	O	1.103118	0.106864	0.079115
O14	O	1.603118	0.606864	0.579115
Zn15	Zn	0.982085	0.113512	0.104255
Zn16	Zn	1.482085	0.613512	0.604255
Zn17	Zn	0.982105	0.113522	-0.104340
Zn18	Zn	1.482105	0.613522	0.395660
O19	O	0.975438	0.234545	0.079109
O20	O	1.475438	0.734545	0.579109
C21	C	0.830089	0.119628	-0.000038
C22	C	1.330089	0.619628	0.499962
C23	C	0.737794	0.118013	-0.000035
C24	C	1.237794	0.618013	0.499965
C25	C	0.988206	-0.038488	-0.000032
C26	C	1.488206	0.461512	0.499968
C27	C	0.986591	-0.130784	-0.000031
C28	C	1.486591	0.369216	0.499969
C29	C	0.525445	0.114273	0.086257
C30	C	1.025445	0.614273	0.586257
C31	C	0.438725	0.112747	0.086254
C32	C	0.938725	0.612747	0.586254
C33	C	0.438752	0.112759	-0.086357
C34	C	0.938752	0.612759	0.413643
C35	C	0.525471	0.114280	-0.086352
C36	C	1.025471	0.614280	0.413648
C37	C	0.568815	0.115041	-0.000043
C38	C	1.068815	0.615041	0.499957
C39	C	0.395375	0.111994	-0.000050
C40	C	0.895375	0.611994	0.499950
C41	C	0.301350	0.110338	-0.000054
C42	C	0.801350	0.610338	0.499946
C43	C	0.662847	0.116695	-0.000038
C44	C	1.162847	0.616695	0.499962
C45	C	1.058599	-0.353056	-0.000048
C46	C	1.558599	0.146944	0.499952
C47	C	1.057074	-0.439776	-0.000056
C48	C	1.557074	0.060224	0.499944
C49	C	0.905586	-0.419902	-0.000048
C50	C	1.405586	0.080098	0.499952
C51	C	0.907111	-0.333184	-0.000047
C52	C	1.407111	0.166816	0.499953
C53	C	0.983620	-0.299763	-0.000042
C54	C	1.483620	0.200237	0.499958
C55	C	0.980571	-0.473202	-0.000051
C56	C	1.480571	0.026798	0.499949
C57	C	0.978918	-0.567228	-0.000059
C58	C	1.478918	-0.067228	0.499941
C59	C	0.985273	-0.205731	-0.000035
C60	C	1.485273	0.294269	0.499965
C61	C	1.134101	0.107407	-0.000049
C62	C	1.634101	0.607407	0.499951
C63	C	1.226396	0.109022	-0.000058
C64	C	1.726396	0.609022	0.499942
C65	C	0.975984	0.265523	-0.000054
C66	C	1.475984	0.765523	0.499946
C67	C	0.977599	0.357819	-0.000062
C68	C	1.477599	0.857819	0.499938
N69	N	0.982077	0.113505	0.246616
N70	N	1.482077	0.613505	0.746616
N71	N	0.982119	0.113523	-0.246700
N72	N	1.482119	0.613523	0.253300
C73	C	1.038632	0.056992	0.296437
C74	C	1.538632	0.556992	0.796437
C75	C	1.038638	0.056991	0.396094
C76	C	1.538638	0.556991	0.896094
C77	C	0.982092	0.113509	0.445930
C78	C	1.482092	0.613509	0.945930
C79	C	0.925531	0.170025	0.396102
C80	C	1.425531	0.670025	0.896102
C81	C	0.925522	0.170021	0.296446
C82	C	1.425522	0.670021	0.796446
C83	C	0.925555	0.170031	0.603816
C84	C	1.425555	0.670031	1.103816
C85	C	0.925565	0.170037	0.703479
C86	C	1.425565	0.670037	1.203479
C87	C	1.038670	0.057001	0.703465
C88	C	1.538670	0.557001	1.203465
C89	C	1.038662	0.056997	0.603809
C90	C	1.538662	0.556997	1.103809
C91	C	0.982102	0.113515	0.553988
C92	C	1.482102	0.613515	1.053988
H93	H	0.560732	0.114893	0.156536
H94	H	1.060732	0.614893	0.656536
N95	N	0.391997	0.111955	-0.179442
N96	N	0.891997	0.611955	0.320558
H97	H	0.432634	0.112671	-0.234112
H98	H	0.932634	0.612671	0.265888
H99	H	0.362769	0.059816	-0.183205
H100	H	0.862769	0.559816	0.316795
H101	H	1.084709	0.010980	0.563233
H102	H	1.584709	0.510980	1.063233
N103	N	1.141116	-0.317010	-0.000051
N104	N	1.641116	0.182990	0.499949
H105	H	1.130708	-0.253987	-0.000044
H106	H	1.630708	0.246013	0.499956
H107	H	1.173918	-0.336519	0.058640
H108	H	1.673918	0.163481	0.558640
H109	H	0.403417	0.112122	0.156528
H110	H	0.903417	0.612122	0.656528
H111	H	0.843295	-0.447124	-0.000049
H112	H	1.343295	0.052876	0.499951
H113	H	0.560784	0.114903	-0.156632
H114	H	1.060784	0.614903	0.343368
N115	N	1.137944	-0.497258	-0.000063
N116	N	1.637944	0.002742	0.499937
H117	H	1.186640	-0.462924	-0.000059
H118	H	1.686640	0.037076	0.499941
H119	H	1.140605	-0.533679	0.058627
H120	H	1.640605	-0.033679	0.558627
N121	N	0.826231	-0.275704	-0.000033
N122	N	1.326231	0.224296	0.499967
H123	H	0.823486	-0.239288	0.058658
H124	H	1.323486	0.260712	0.558658
H125	H	0.823537	-0.239328	-0.058761
H126	H	1.323537	0.260672	0.441239
N127	N	1.099626	-0.003962	0.242689
N128	N	1.599626	0.496038	0.742689
H129	H	1.135453	-0.039764	0.289377
H130	H	1.635453	0.460236	0.789377
H131	H	1.067808	-0.040731	0.201358
H132	H	1.567808	0.459269	0.701358
H133	H	1.084688	0.010973	0.436658
H134	H	1.584688	0.510973	0.936658
H135	H	1.084723	0.010983	0.744034
H136	H	1.584723	0.510983	1.244034
N137	N	0.864586	0.231001	0.757233
N138	N	1.364586	0.731001	1.257233
H139	H	0.828752	0.266802	0.710552
H140	H	1.328752	0.766802	1.210552
H141	H	0.827850	0.199163	0.798607
H142	H	1.327850	0.699163	1.298607
N143	N	0.864549	0.230984	0.550078
N144	N	1.364549	0.730984	1.050078
H145	H	0.828730	0.266791	0.596768
H146	H	1.328730	0.766791	1.096768
H147	H	0.896362	0.267748	0.508712
H148	H	1.396362	0.767748	1.008712
N149	N	0.864546	0.230983	0.449857
N150	N	1.364546	0.730983	0.949857
H151	H	0.874098	0.289994	0.432496
H152	H	1.374098	0.789994	0.932496
H153	H	0.805569	0.221315	0.432517
H154	H	1.305569	0.721315	0.932517
N155	N	0.864520	0.230970	0.242706
N156	N	1.364520	0.730970	0.742706
H157	H	0.828700	0.266775	0.289396
H158	H	1.328700	0.766775	0.789396
H159	H	0.896328	0.267736	0.201337
H160	H	1.396328	0.767736	0.701337
