data_functionalizedCrystal
_audit_creation_method	'MofGen! by Chris Wilmer'
_symmetry_space_group_name_H-M	'P1'
_symmetry_Int_Tables_number	1
_symmetry_cell_setting	triclinic
loop_
_symmetry_equiv_pos_as_xyz
  x,y,z
_cell_length_a	10.723024
_cell_length_b	11.792241
_cell_length_c	9.198806
_cell_angle_alpha	89.996670
_cell_angle_beta	89.996352
_cell_angle_gamma	84.330643
loop_
_atom_site_label
_atom_site_type_symbol
_atom_site_fract_x
_atom_site_fract_y
_atom_site_fract_z
O1	O	1.656767	0.159192	-0.120884
O2	O	2.156767	0.659192	0.379116
O3	O	1.293574	0.174430	-0.120889
O4	O	1.793574	0.674430	0.379111
O5	O	1.483984	0.001660	-0.120876
O6	O	1.983984	0.501660	0.379124
O7	O	1.466357	0.331962	-0.120897
O8	O	1.966357	0.831962	0.379103
O9	O	1.483969	0.001659	0.120909
O10	O	1.983969	0.501659	0.620909
O11	O	1.293559	0.174430	0.120896
O12	O	1.793559	0.674430	0.620896
O13	O	1.656751	0.159192	0.120901
O14	O	2.156751	0.659192	0.620901
Cu15	Cu	1.475154	0.166811	0.142976
Cu16	Cu	1.975154	0.666811	0.642976
Cu17	Cu	1.475172	0.166811	-0.142963
Cu18	Cu	1.975172	0.666811	0.357037
O19	O	1.466341	0.331962	0.120889
O20	O	1.966341	0.831962	0.620889
C21	C	1.247070	0.173321	0.000003
C22	C	1.747070	0.673321	0.500003
C23	C	1.108524	0.170003	0.000002
C24	C	1.608524	0.670003	0.500002
C25	C	1.033286	0.266676	-0.000005
C26	C	1.533286	0.766676	0.499995
C27	C	0.890091	0.263249	-0.000007
C28	C	1.390091	0.763249	0.499993
C29	C	1.482869	-0.040634	0.000016
C30	C	1.982869	0.459366	0.500016
C31	C	1.479555	-0.166655	0.000015
C32	C	1.979555	0.333345	0.500015
C33	C	1.473461	-0.397380	-0.000010
C34	C	1.973461	0.102620	0.499990
C35	C	1.476847	-0.268988	0.000004
C36	C	1.976847	0.231012	0.500004
C37	C	1.703256	0.160301	0.000006
C38	C	2.203256	0.660301	0.500006
C39	C	1.841801	0.163619	-0.000002
C40	C	2.341801	0.663619	0.499998
C41	C	1.467456	0.374255	-0.000007
C42	C	1.967456	0.874255	0.499993
C43	C	1.470770	0.500276	-0.000015
C44	C	1.970770	1.000276	0.499985
N45	N	1.475150	0.166810	0.344090
N46	N	1.975150	0.666810	0.844090
N47	N	1.475185	0.166803	-0.344077
N48	N	1.975185	0.666803	0.155923
C49	C	1.555099	0.093948	0.416292
C50	C	2.055099	0.593948	0.916292
C51	C	1.555118	0.093944	0.583704
C52	C	2.055118	0.593944	1.083704
H53	H	1.066928	0.084701	-0.000030
H54	H	1.566928	0.584701	0.499970
H55	H	0.825440	0.346009	-0.000019
H56	H	1.325440	0.846009	0.499981
N57	N	0.927412	0.053977	0.000006
N58	N	1.427412	0.553977	0.500006
H59	H	0.982058	0.050726	-0.089623
H60	H	1.482058	0.550726	0.410377
H61	H	0.981965	0.050792	0.089696
H62	H	1.481965	0.550792	0.589696
H63	H	1.623528	0.031567	0.354171
H64	H	2.123528	0.531567	0.854171
H65	H	1.406739	0.229190	0.593841
H66	H	1.906739	0.729190	1.093841
N67	N	1.645798	0.011320	0.665939
N68	N	2.145798	0.511320	1.165939
H69	H	1.597572	-0.039155	0.729108
H70	H	2.097572	0.460845	1.229108
H71	H	1.699117	-0.037221	0.594640
H72	H	2.199117	0.462779	1.094640
N73	N	1.384492	0.249430	0.426369
N74	N	1.884492	0.749430	0.926369
H75	H	1.432737	0.299899	0.489511
H76	H	1.932737	0.799899	0.989511
H77	H	1.331155	0.297977	0.355094
H78	H	1.831155	0.797977	0.855094
H79	H	1.074882	0.351978	-0.000002
H80	H	1.574882	0.851978	0.499998
