data_functionalizedCrystal
_audit_creation_method	'MofGen! by Chris Wilmer'
_symmetry_space_group_name_H-M	'P1'
_symmetry_Int_Tables_number	1
_symmetry_cell_setting	triclinic
loop_
_symmetry_equiv_pos_as_xyz
  x,y,z
_cell_length_a	15.944551
_cell_length_b	15.944493
_cell_length_c	15.021413
_cell_angle_alpha	90.009890
_cell_angle_beta	89.997174
_cell_angle_gamma	83.486891
loop_
_atom_site_label
_atom_site_type_symbol
_atom_site_fract_x
_atom_site_fract_y
_atom_site_fract_z
O1	O	1.114506	0.108324	-0.073927
O2	O	1.447840	0.441657	0.259406
O3	O	1.781173	0.774990	0.592739
O4	O	0.869954	0.121680	-0.073948
O5	O	1.203287	0.455014	0.259385
O6	O	1.536621	0.788347	0.592719
O7	O	0.998934	-0.007276	-0.073945
O8	O	1.332267	0.326057	0.259389
O9	O	1.665600	0.659391	0.592722
O10	O	0.985527	0.237280	-0.073931
O11	O	1.318860	0.570614	0.259402
O12	O	1.652193	0.903947	0.592736
O13	O	0.998913	-0.007258	0.074120
O14	O	1.332246	0.326076	0.407453
O15	O	1.665580	0.659409	0.740786
O16	O	0.869933	0.121699	0.074116
O17	O	1.203267	0.455032	0.407449
O18	O	1.536600	0.788365	0.740783
O19	O	1.114486	0.108342	0.074137
O20	O	1.447819	0.441676	0.407470
O21	O	1.781152	0.775009	0.740803
Zn22	Zn	0.992206	0.115023	0.097635
Zn23	Zn	1.325540	0.448357	0.430968
Zn24	Zn	1.658873	0.781690	0.764301
Zn25	Zn	0.992233	0.114999	-0.097446
Zn26	Zn	1.325567	0.448333	0.235887
Zn27	Zn	1.658900	0.781666	0.569220
O28	O	0.985506	0.237299	0.074133
O29	O	1.318839	0.570632	0.407467
O30	O	1.652173	0.903965	0.740800
C31	C	0.838650	0.121135	0.000081
C32	C	1.171983	0.454468	0.333414
C33	C	1.505316	0.787802	0.666748
C34	C	0.745404	0.119473	0.000073
C35	C	1.078737	0.452806	0.333406
C36	C	1.412071	0.786139	0.666739
C37	C	0.530565	0.035566	0.000085
C38	C	0.863898	0.368899	0.333419
C39	C	1.197231	0.702233	0.666752
C40	C	0.469547	0.074520	-0.072916
C41	C	0.802880	0.407854	0.260417
C42	C	1.136213	0.741187	0.593751
C43	C	0.574679	0.116465	0.000083
C44	C	0.908012	0.449799	0.333416
C45	C	1.241346	0.783132	0.666750
C46	C	0.469549	0.074558	0.073064
C47	C	0.802882	0.407891	0.406397
C48	C	1.136215	0.741224	0.739730
C49	C	0.409767	0.113555	0.000097
C50	C	0.743100	0.446888	0.333430
C51	C	1.076433	0.780221	0.666764
C52	C	0.514889	0.155442	-0.072979
C53	C	0.848222	0.488775	0.260355
C54	C	1.181556	0.822109	0.593688
C55	C	0.514897	0.155468	0.073067
C56	C	0.848231	0.488801	0.406400
C57	C	1.181564	0.822135	0.739733
C58	C	0.453897	0.194481	0.000048
C59	C	0.787230	0.527814	0.333381
C60	C	1.120563	0.861148	0.666714
C61	C	0.669681	0.118140	0.000074
C62	C	1.003014	0.451473	0.333408
C63	C	1.336347	0.784807	0.666741
C64	C	0.314766	0.111886	0.000099
C65	C	0.648099	0.445220	0.333433
C66	C	0.981433	0.778553	0.666766
C67	C	0.998375	-0.038562	0.000084
C68	C	1.331709	0.294772	0.333417
C69	C	1.665042	0.628105	0.666750
C70	C	0.996733	-0.131810	0.000072
C71	C	1.330066	0.201523	0.333406
C72	C	1.663399	0.534856	0.666739
C73	C	1.072653	-0.367570	0.000095
C74	C	1.405986	-0.034237	0.333429
C75	C	1.739320	0.299097	0.666762
C76	C	1.031722	-0.418147	-0.072911
C77	C	1.365055	-0.084814	0.260422
C78	C	1.698389	0.248519	0.593756
C79	C	0.993688	-0.302531	0.000083
C80	C	1.327022	0.030802	0.333416
C81	C	1.660355	0.364135	0.666749
C82	C	1.031683	-0.418105	0.073069
C83	C	1.365017	-0.084772	0.406402
C84	C	1.698350	0.248561	0.739735
C85	C	0.990754	-0.467441	0.000097
C86	C	1.324087	-0.134108	0.333430
C87	C	1.657421	0.199226	0.666764
C88	C	0.952779	-0.351880	-0.072984
C89	C	1.286112	-0.018547	0.260349
C90	C	1.619446	0.314787	0.593683
C91	C	0.952752	-0.351835	0.073061
C92	C	1.286085	-0.018501	0.406395
C93	C	1.619418	0.314832	0.739728
C94	C	0.911763	-0.402379	0.000037
C95	C	1.245096	-0.069046	0.333371
C96	C	1.578430	0.264288	0.666704
C97	C	0.995381	-0.207531	0.000074
C98	C	1.328715	0.125802	0.333407
C99	C	1.662048	0.459135	0.666741
C100	C	0.989055	-0.562438	0.000100
C101	C	1.322388	-0.229105	0.333433
C102	C	1.655722	0.104229	0.666766
C103	C	1.145790	0.108888	0.000106
C104	C	1.479123	0.442221	0.333439
C105	C	1.812457	0.775554	0.666772
C106	C	1.239036	0.110550	0.000108
C107	C	1.572369	0.443883	0.333442
C108	C	1.905702	0.777217	0.666775
C109	C	0.986064	0.268584	0.000103
C110	C	1.319398	0.601918	0.333436
C111	C	1.652731	0.935251	0.666770
C112	C	0.987707	0.361833	0.000109
C113	C	1.321040	0.695166	0.333442
C114	C	1.654374	1.028500	0.666775
N115	N	0.992194	0.115039	0.230772
N116	N	1.325527	0.448373	0.564106
N117	N	1.658861	0.781706	0.897439
N118	N	0.992252	0.114976	-0.230584
N119	N	1.325586	0.448310	0.102750
N120	N	1.658919	0.781643	0.436083
C121	C	0.932545	0.174641	0.470454
C122	C	1.265878	0.507974	0.803787
C123	C	1.599211	0.841308	1.137121
C124	C	1.008442	0.190948	0.529796
C125	C	1.341775	0.524282	0.863130
C126	C	1.675108	0.857615	1.196463
C127	C	0.992215	0.115018	0.412379
C128	C	1.325549	0.448352	0.745713
C129	C	1.658882	0.781685	1.079046
C130	C	0.916339	0.098730	0.529779
C131	C	1.249672	0.432063	0.863112
C132	C	1.583006	0.765396	1.196446
C133	C	0.992229	0.115000	0.587803
C134	C	1.325563	0.448333	0.921137
C135	C	1.658896	0.781667	1.254470
C136	C	1.068151	0.131364	0.470415
C137	C	1.401484	0.464697	0.803748
C138	C	1.734817	0.798030	1.137082
C139	C	0.975998	0.039112	0.470392
C140	C	1.309332	0.372446	0.803726
C141	C	1.642665	0.705779	1.137059
C142	C	1.051950	0.055387	0.529708
C143	C	1.385283	0.388721	0.863041
C144	C	1.718617	0.722054	1.196375
C145	C	0.992206	0.115031	0.311322
C146	C	1.325540	0.448365	0.644655
C147	C	1.658873	0.781698	0.977989
C148	C	0.992247	0.114987	0.688859
C149	C	1.325581	0.448320	1.022192
C150	C	1.658914	0.781653	1.355525
H151	H	0.534878	0.189626	-0.134763
H152	H	0.868211	0.522959	0.198571
H153	H	1.201545	0.856292	0.531904
Br154	Br	1.175137	0.154436	0.427143
Br155	Br	1.508470	0.487770	0.760476
Br156	Br	1.841804	0.821103	1.093810
H157	H	1.065039	-0.447029	0.134786
H158	H	1.398373	-0.113695	0.468119
H159	H	1.731706	0.219638	0.801453
Br160	Br	0.586103	-0.076354	-0.000035
Br161	Br	0.919436	0.256979	0.333298
Br162	Br	1.252770	0.590313	0.666632
Br163	Br	0.436057	0.017482	-0.175793
Br164	Br	0.769391	0.350816	0.157540
Br165	Br	1.102724	0.684149	0.490874
Br166	Br	0.809382	0.075779	0.573246
Br167	Br	1.142715	0.409112	0.906580
Br168	Br	1.476049	0.742446	1.239913
Br169	Br	0.436067	0.017518	0.175926
Br170	Br	0.769401	0.350851	0.509259
Br171	Br	1.102734	0.684185	0.842593
Br172	Br	0.897221	-0.303528	0.175932
Br173	Br	1.230554	0.029806	0.509265
Br174	Br	1.563887	0.363139	0.842599
H175	H	0.882134	0.225102	0.444437
H176	H	1.215467	0.558436	0.777770
H177	H	1.548800	0.891769	1.111104
H178	H	1.140671	-0.351942	0.000028
H179	H	1.474004	-0.018608	0.333361
H180	H	1.807338	0.314725	0.666694
Br181	Br	0.398603	0.306499	-0.000009
Br182	Br	0.731936	0.639832	0.333325
Br183	Br	1.065270	0.973165	0.666658
Br184	Br	0.798309	-0.428160	-0.000033
Br185	Br	1.131642	-0.094827	0.333300
Br186	Br	1.464975	0.238506	0.666634
H187	H	0.535013	0.189664	0.134791
H188	H	0.868346	0.522998	0.468124
H189	H	1.201680	0.856331	0.801457
Br190	Br	1.031329	0.297924	0.573285
Br191	Br	1.364662	0.631258	0.906618
Br192	Br	1.697995	0.964591	1.239952
H193	H	1.102473	0.004956	0.555562
H194	H	1.435806	0.338289	0.888895
H195	H	1.769140	0.671622	1.222228
Br196	Br	1.087315	-0.466407	-0.175776
Br197	Br	1.420648	-0.133073	0.157557
Br198	Br	1.753982	0.200260	0.490891
Br199	Br	0.897244	-0.303865	-0.175969
Br200	Br	1.230577	0.029468	0.157364
Br201	Br	1.563911	0.362801	0.490697
H202	H	0.962245	-0.025052	0.444279
H203	H	1.295579	0.308282	0.777613
H204	H	1.628912	0.641615	1.110946
