data_functionalizedCrystal
_audit_creation_method	'MofGen! by Chris Wilmer'
_symmetry_space_group_name_H-M	'P1'
_symmetry_Int_Tables_number	1
_symmetry_cell_setting	triclinic
loop_
_symmetry_equiv_pos_as_xyz
  x,y,z
_cell_length_a	19.188925
_cell_length_b	19.188924
_cell_length_c	10.065875
_cell_angle_alpha	98.757069
_cell_angle_beta	81.282196
_cell_angle_gamma	83.142256
loop_
_atom_site_label
_atom_site_type_symbol
_atom_site_fract_x
_atom_site_fract_y
_atom_site_fract_z
O1	O	0.936395	0.076852	-0.113528
O2	O	0.733083	0.088591	-0.113526
O3	O	0.840608	-0.018933	-0.113511
O4	O	0.828871	0.184376	-0.113543
O5	O	0.820104	0.001652	0.113475
O6	O	0.712579	0.109176	0.113460
O7	O	0.915892	0.097438	0.113458
Zn8	Zn	0.810980	0.106575	0.149498
Zn9	Zn	0.837995	0.079453	-0.149566
O10	O	0.808367	0.204961	0.113443
C11	C	0.696820	0.098504	-0.000032
C12	C	0.619315	0.097365	-0.000030
C13	C	0.057545	0.152828	-0.000042
C14	C	0.130369	0.153904	-0.000050
C15	C	0.175304	0.090813	-0.000037
C16	C	0.147412	0.026638	-0.000053
C17	C	0.074591	0.025562	-0.000059
N18	N	0.289002	0.052144	0.077237
N19	N	0.358178	0.053170	0.077246
C20	C	0.394711	0.094048	-0.000022
N21	N	0.359452	0.133873	-0.077282
N22	N	0.290268	0.132850	-0.077284
C23	C	0.254267	0.091971	-0.000032
C24	C	0.501559	0.159385	-0.000024
C25	C	0.574385	0.160457	-0.000040
C26	C	0.591426	0.033190	-0.000029
C27	C	0.518603	0.032118	-0.000027
C28	C	0.473672	0.095218	-0.000018
C29	C	0.829976	-0.034651	-0.000017
C30	C	0.828837	-0.112156	-0.000013
C31	C	0.839482	-0.159776	-0.123743
C32	C	0.838403	-0.232600	-0.123754
C33	C	0.826693	-0.257802	-0.000027
C34	C	0.816042	-0.210171	0.123720
C35	C	0.817114	-0.137348	0.123727
N36	N	0.856422	-0.369114	0.092060
N37	N	0.855406	-0.438294	0.092045
C38	C	0.823460	-0.477212	-0.000040
N39	N	0.792579	-0.444340	-0.092130
N40	N	0.793599	-0.375155	-0.092119
C41	C	0.825528	-0.336764	-0.000020
C42	C	0.832935	-0.603796	-0.123790
C43	C	0.831851	-0.676620	-0.123795
C44	C	0.809496	-0.654191	0.123682
C45	C	0.810573	-0.581367	0.123684
C46	C	0.822296	-0.556175	-0.000056
C47	C	0.952155	0.087524	-0.000039
C48	C	1.029661	0.088662	-0.000050
C49	C	0.818999	0.220679	-0.000054
C50	C	0.820139	0.298183	-0.000067
N51	N	0.792549	0.125085	0.353601
N52	N	0.856432	0.060938	-0.353669
C53	C	0.831577	0.085889	0.421385
C54	C	0.817397	0.100140	0.578550
H55	H	0.020967	0.204208	-0.000042
F56	F	0.735148	0.182735	0.429824
F57	F	0.044915	-0.042735	-0.000070
F58	F	0.843177	-0.727301	-0.255493
H59	H	0.773480	0.144248	0.636865
H60	H	0.464975	0.210764	-0.000020
F61	F	0.639246	-0.033958	-0.000034
H62	H	0.597087	0.212710	-0.000046
F63	F	0.797029	-0.681007	0.255363
H64	H	0.495899	-0.020132	-0.000025
F65	F	0.803574	-0.236993	0.255399
F66	F	0.160052	0.222201	-0.000040
F67	F	0.849733	-0.283289	-0.255450
H68	H	0.849026	-0.139270	-0.224502
H69	H	0.808443	-0.098574	0.224486
H70	H	0.842476	-0.583283	-0.224546
H71	H	0.801911	-0.542594	0.224439
H72	H	0.875487	0.041778	0.363067
H73	H	0.184003	-0.024732	-0.000046
F74	F	0.913949	0.003397	0.570116
