data_functionalizedCrystal
_audit_creation_method	'MofGen! by Chris Wilmer'
_symmetry_space_group_name_H-M	'P1'
_symmetry_Int_Tables_number	1
_symmetry_cell_setting	triclinic
loop_
_symmetry_equiv_pos_as_xyz
  x,y,z
_cell_length_a	29.839134
_cell_length_b	29.839131
_cell_length_c	21.395355
_cell_angle_alpha	89.979828
_cell_angle_beta	89.975517
_cell_angle_gamma	90.021992
loop_
_atom_site_label
_atom_site_type_symbol
_atom_site_fract_x
_atom_site_fract_y
_atom_site_fract_z
Zn1	Zn	0.686774	-0.179138	-0.354253
Zn2	Zn	0.686690	-0.254254	-0.249472
Zn3	Zn	0.611641	-0.179113	-0.249490
Zn4	Zn	0.611605	-0.254216	-0.354213
O5	O	0.649177	-0.216680	-0.301857
O6	O	0.749630	-0.189129	-0.340363
O7	O	0.676715	-0.244291	-0.161797
O8	O	0.621658	-0.116249	-0.263411
O9	O	0.749568	-0.244315	-0.263381
O10	O	0.676858	-0.116268	-0.340380
O11	O	0.621576	-0.189085	-0.161810
O12	O	0.548769	-0.189049	-0.263372
O13	O	0.621596	-0.244252	-0.441896
O14	O	0.548742	-0.244228	-0.340311
O15	O	0.676823	-0.189093	-0.441925
O16	O	0.676680	-0.317116	-0.263342
O17	O	0.621515	-0.317088	-0.340295
C18	C	0.532455	-0.216632	-0.301840
C19	C	0.482520	-0.216622	-0.301847
C20	C	0.125961	-0.188004	-0.342020
C21	C	0.313634	-0.187968	-0.342006
O22	O	0.337923	-0.163579	-0.376160
N23	N	0.337075	-0.216652	-0.301862
C24	C	0.313595	-0.245348	-0.261721
O25	O	0.337839	-0.269748	-0.227581
C26	C	0.125923	-0.245386	-0.261739
C27	C	0.102484	-0.216698	-0.301882
C28	C	0.102523	-0.159318	-0.382160
C29	C	0.055607	-0.159326	-0.382160
C30	C	0.032130	-0.188020	-0.342022
C31	C	0.055569	-0.216705	-0.301882
C32	C	0.102443	-0.274085	-0.221603
C33	C	0.055522	-0.274093	-0.221612
C34	C	0.032084	-0.245404	-0.261754
C35	C	-0.014824	-0.245407	-0.261745
N36	N	-0.038265	-0.216723	-0.301889
C37	C	-0.014788	-0.188030	-0.342027
C38	C	0.412126	-0.245326	-0.261714
C39	C	0.459043	-0.245316	-0.261708
C40	C	0.459079	-0.187936	-0.341994
C41	C	0.412161	-0.187944	-0.341996
C42	C	0.388685	-0.216642	-0.301858
C43	C	-0.113313	-0.188047	-0.342026
C44	C	-0.160233	-0.188056	-0.342021
C45	C	-0.160265	-0.245437	-0.261738
C46	C	-0.113349	-0.245427	-0.261740
C47	C	-0.089875	-0.216731	-0.301889
O48	O	-0.039141	-0.269787	-0.227614
O49	O	-0.039040	-0.163641	-0.376173
C50	C	0.172877	-0.187997	-0.342019
C51	C	0.196315	-0.216683	-0.301880
C52	C	0.172838	-0.245376	-0.261741
C53	C	0.243233	-0.216673	-0.301875
C54	C	0.266710	-0.187979	-0.342013
C55	C	0.243269	-0.159296	-0.382157
C56	C	0.196353	-0.159303	-0.382158
C57	C	0.196279	-0.274060	-0.221597
C58	C	0.243195	-0.274049	-0.221599
C59	C	0.266672	-0.245356	-0.261738
C60	C	0.649096	-0.333403	-0.301826
C61	C	0.649103	-0.383337	-0.301834
C62	C	0.677954	-0.692982	-0.261846
C63	C	0.678009	-0.880655	-0.261871
O64	O	0.702476	-0.904921	-0.227848
N65	N	0.649270	-0.904122	-0.301904
C66	C	0.620518	-0.880668	-0.341937
O67	O	0.596078	-0.904935	-0.375993
C68	C	0.620465	-0.692996	-0.341916
C69	C	0.649202	-0.669531	-0.301875
C70	C	0.706690	-0.669517	-0.221810
C71	C	0.706674	-0.622602	-0.221802
C72	C	0.677922	-0.599151	-0.261830
C73	C	0.649187	-0.622616	-0.301867
C74	C	0.591715	-0.669543	-0.381951
C75	C	0.591705	-0.622622	-0.381944
C76	C	0.620442	-0.599157	-0.341903
C77	C	0.620419	-0.552250	-0.341888
N78	N	0.649158	-0.528783	-0.301854
C79	C	0.677910	-0.552233	-0.261826
C80	C	0.620547	-0.979199	-0.341945
C81	C	0.620559	-1.026117	-0.341950
C82	C	0.678052	-1.026100	-0.261884
C83	C	0.678037	-0.979182	-0.261876
C84	C	0.649286	-0.955732	-0.301912
C85	C	0.677874	-0.453708	-0.261811
C86	C	0.677854	-0.406788	-0.261805
C87	C	0.620364	-0.406808	-0.341873
C88	C	0.620381	-0.453724	-0.341877
C89	C	0.649140	-0.477172	-0.301844
O90	O	0.595969	-0.527955	-0.375897
O91	O	0.702353	-0.527959	-0.227784
C92	C	0.677970	-0.739898	-0.261855
C93	C	0.649234	-0.763362	-0.301891
C94	C	0.620483	-0.739912	-0.341920
C95	C	0.649247	-0.810280	-0.301896
C96	C	0.677998	-0.833731	-0.261867
C97	C	0.706737	-0.810264	-0.221834
C98	C	0.706721	-0.763348	-0.221826
C99	C	0.591744	-0.763379	-0.381953
C100	C	0.591762	-0.810294	-0.381958
C101	C	0.620513	-0.833745	-0.341929
C102	C	0.766356	-0.216729	-0.301875
C103	C	0.816290	-0.216750	-0.301882
C104	C	0.649215	-0.216671	-0.465280
C105	C	0.649230	-0.216667	-0.534922
C106	C	0.649271	-0.099502	-0.301902
C107	C	0.649311	-0.049567	-0.301921
C108	C	0.677986	-0.187944	-0.567651
C109	C	0.677985	-0.187925	-0.633087
C110	C	0.649234	-0.216637	-0.665790
C111	C	0.620473	-0.245362	-0.633053
C112	C	0.620471	-0.245377	-0.567618
C113	C	0.645659	-0.257087	-0.769454
C114	C	0.645663	-0.257072	-0.834887
C115	C	0.649237	-0.216589	-0.867611
C116	C	0.652815	-0.176120	-0.834894
C117	C	0.652813	-0.176135	-0.769460
C118	C	0.649232	-0.216623	-0.736742
C119	C	0.677993	-0.187843	-0.971293
C120	C	0.677989	-0.187823	-1.036730
C121	C	0.620480	-0.245263	-1.036694
C122	C	0.620481	-0.245279	-0.971259
C123	C	0.649240	-0.216570	-0.938562
C124	C	0.649166	-0.216657	-0.139069
C125	C	0.649237	-0.216534	-0.069428
H126	H	0.478123	-0.268672	-0.229014
N127	N	-0.184174	-0.158759	-0.383039
N128	N	-0.210344	-0.174612	-0.422927
H129	H	-0.227251	-0.153922	-0.451897
H130	H	0.701400	-0.164533	-0.659740
N131	N	0.707369	-0.158514	-0.937899
N132	N	0.733038	-0.132865	-0.967133
H133	H	0.753785	-0.112151	-0.943551
N134	N	0.172311	-0.303369	-0.180582
N135	N	0.177541	-0.300324	-0.122777
H136	H	0.160616	-0.321025	-0.093804
N137	N	0.591104	-0.274684	-0.666465
N138	N	0.591110	-0.274667	-0.724887
H139	H	0.570365	-0.295375	-0.748485
H140	H	0.393080	-0.164583	-0.374682
N141	N	0.591104	-0.274719	-0.534173
N142	N	0.591109	-0.274730	-0.475750
H143	H	0.570368	-0.295454	-0.452127
N144	N	0.267140	-0.303356	-0.180599
N145	N	0.309031	-0.303352	-0.180601
H146	H	0.325942	-0.324052	-0.151650
N147	N	-0.089407	-0.274736	-0.220742
N148	N	-0.063231	-0.303386	-0.242717
H149	H	-0.046324	-0.324089	-0.213765
H150	H	0.701293	-0.472794	-0.229214
H151	H	0.655725	-0.143183	-0.742824
N152	N	-0.184244	-0.274752	-0.220741
N153	N	-0.163315	-0.300367	-0.184904
H154	H	-0.180251	-0.321074	-0.155951
N155	N	0.707387	-0.955209	-0.220977
N156	N	0.691588	-0.929052	-0.181027
H157	H	0.712317	-0.912122	-0.152140
H158	H	0.121519	-0.297446	-0.188915
N159	N	0.591003	-0.382841	-0.382759
N160	N	0.606794	-0.356635	-0.422694
H161	H	0.586060	-0.339705	-0.451573
N162	N	0.172422	-0.129994	-0.423165
N163	N	0.193397	-0.104379	-0.458997
H164	H	0.176499	-0.083678	-0.487961
N165	N	0.562410	-0.834260	-0.422869
N166	N	0.578214	-0.860411	-0.462823
H167	H	0.557488	-0.877336	-0.491720
H168	H	0.393016	-0.268696	-0.229026
H169	H	0.568331	-0.744289	-0.414550
H170	H	0.701405	-0.164431	-1.063377
N171	N	-0.089346	-0.158733	-0.383040
N172	N	-0.110287	-0.133124	-0.418872
H173	H	-0.093360	-0.112418	-0.447836
N174	N	0.031662	-0.130032	-0.423172
N175	N	-0.010228	-0.130041	-0.423182
H176	H	-0.027138	-0.109352	-0.452151
N177	N	0.707351	-0.158608	-0.534256
N178	N	0.691565	-0.129979	-0.497741
H179	H	0.712303	-0.109258	-0.474155
H180	H	0.478202	-0.164572	-0.374675
N181	N	0.591026	-0.477704	-0.382764
N182	N	0.562417	-0.503916	-0.360690
H183	H	0.541687	-0.520851	-0.389570
N184	N	0.031550	-0.303413	-0.180609
N185	N	0.052487	-0.329024	-0.144776
H186	H	0.035557	-0.349731	-0.115817
H187	H	0.655725	-0.143155	-0.861536
H188	H	0.121632	-0.135952	-0.414849
N189	N	0.591115	-0.274622	-0.937813
N190	N	0.591117	-0.274631	-0.879390
H191	H	0.570375	-0.295354	-0.855768
H192	H	0.597065	-0.268636	-1.063321
N193	N	0.707211	-0.382827	-0.220895
N194	N	0.732879	-0.403774	-0.185159
H195	H	0.753612	-0.386854	-0.156267
H196	H	0.642753	-0.290025	-0.861520
N197	N	0.736032	-0.598644	-0.180898
N198	N	0.761700	-0.619596	-0.145165
H199	H	0.782437	-0.602678	-0.116275
H200	H	0.262392	-0.135931	-0.414837
N201	N	0.642004	-0.298446	-0.736040
N202	N	0.638813	-0.334574	-0.765257
H203	H	0.636231	-0.363783	-0.741660
N204	N	0.736066	-0.693460	-0.180917
N205	N	0.761719	-0.672495	-0.145178
H206	H	0.782467	-0.689401	-0.116292
N207	N	0.707417	-1.050059	-0.220988
N208	N	0.691633	-1.076263	-0.181045
H209	H	0.712372	-1.093186	-0.152165
N210	N	0.591194	-1.050075	-0.382844
N211	N	0.565527	-1.029126	-0.418579
H212	H	0.544788	-1.046045	-0.447464
N213	N	0.591180	-0.955251	-0.382850
N214	N	0.594142	-0.960478	-0.440668
H215	H	0.573401	-0.943567	-0.469558
N216	N	0.562356	-0.693497	-0.422856
N217	N	0.536693	-0.672544	-0.458593
H218	H	0.515957	-0.689460	-0.487486
N219	N	0.562335	-0.598676	-0.422848
N220	N	0.536683	-0.619636	-0.458593
H221	H	0.515940	-0.602726	-0.487481
N222	N	0.736078	-0.739390	-0.180919
N223	N	0.761744	-0.760342	-0.145185
H224	H	0.782479	-0.743425	-0.116293
N225	N	0.736101	-0.834230	-0.180945
N226	N	0.736105	-0.876121	-0.180963
H227	H	0.756843	-0.893049	-0.152088
