data_functionalizedCrystal
_audit_creation_method	'MofGen! by Chris Wilmer'
_symmetry_space_group_name_H-M	'P1'
_symmetry_Int_Tables_number	1
_symmetry_cell_setting	triclinic
loop_
_symmetry_equiv_pos_as_xyz
  x,y,z
_cell_length_a	15.072220
_cell_length_b	14.519709
_cell_length_c	14.519709
_cell_angle_alpha	96.319855
_cell_angle_beta	90.002063
_cell_angle_gamma	89.993111
loop_
_atom_site_label
_atom_site_type_symbol
_atom_site_fract_x
_atom_site_fract_y
_atom_site_fract_z
O1	O	0.073669	-1.223879	0.120885
O2	O	0.573669	-0.723879	0.620885
O3	O	0.073696	-0.955402	0.135122
O4	O	0.573696	-0.455402	0.635122
O5	O	0.073674	-1.096759	-0.006235
O6	O	0.573674	-0.596759	0.493765
O7	O	0.073691	-1.082522	0.262242
O8	O	0.573691	-0.582522	0.762242
O9	O	-0.073891	-1.096724	-0.006227
O10	O	0.426109	-0.596724	0.493773
O11	O	-0.073869	-0.955367	0.135129
O12	O	0.426131	-0.455367	0.635129
O13	O	-0.073896	-1.223844	0.120893
O14	O	0.426104	-0.723844	0.620893
Zn15	Zn	-0.097312	-1.089600	0.128012
Zn16	Zn	0.402688	-0.589600	0.628012
Zn17	Zn	0.097112	-1.089646	0.128002
Zn18	Zn	0.597112	-0.589646	0.628002
O19	O	-0.073874	-1.082487	0.262250
O20	O	0.426126	-0.582487	0.762250
C21	C	-0.000083	-0.921025	0.134462
C22	C	0.499917	-0.421025	0.634462
C23	C	-0.000073	-0.818643	0.132474
C24	C	0.499927	-0.318643	0.632474
C25	C	-0.000109	-1.096078	-0.040591
C26	C	0.499891	-0.596078	0.459409
C27	C	-0.000109	-1.094089	-0.142972
C28	C	0.499891	-0.594089	0.357028
N29	N	-0.230000	-1.089575	0.128019
N30	N	0.270000	-0.589575	0.628019
C31	C	-0.589202	-1.089644	0.127999
C32	C	-0.089202	-0.589644	0.627999
C33	C	-0.551583	-1.013752	0.203381
C34	C	-0.051583	-0.513752	0.703381
C35	C	-0.448757	-1.013927	0.203657
C36	C	0.051243	-0.513927	0.703657
C37	C	-0.410998	-1.089609	0.128009
C38	C	0.089002	-0.589609	0.628009
C39	C	-0.448297	-1.185870	0.149184
C40	C	0.051703	-0.685870	0.649184
C41	C	-0.551155	-1.185445	0.149720
C42	C	-0.051155	-0.685445	0.649720
C43	C	-0.551306	-1.070133	0.031218
C44	C	-0.051306	-0.570133	0.531218
C45	C	-0.448442	-1.067926	0.031859
C46	C	0.051558	-0.567926	0.531859
C47	C	-0.310285	-1.089595	0.128013
C48	C	0.189715	-0.589595	0.628013
C49	C	-0.689915	-1.089664	0.127997
C50	C	-0.189915	-0.589664	0.627997
N51	N	0.229801	-1.089678	0.127988
N52	N	0.729801	-0.589678	0.627988
C53	C	-0.000115	-1.258221	0.121553
C54	C	0.499885	-0.758221	0.621553
C55	C	-0.000119	-1.360602	0.123541
C56	C	0.499881	-0.860602	0.623541
C57	C	-0.000114	-0.443748	0.125154
C58	C	0.499886	0.056252	0.625154
C59	C	-0.000102	-0.548056	0.127187
C60	C	0.499898	-0.048056	0.627187
C61	C	-0.000092	-0.631192	0.128814
C62	C	0.499908	-0.131192	0.628814
C63	C	-0.000082	-0.735507	0.130847
C64	C	0.499918	-0.235507	0.630847
C65	C	-0.000085	-1.086770	-0.517868
C66	C	0.499915	-0.586770	-0.017868
C67	C	-0.000092	-1.088803	-0.413560
C68	C	0.499908	-0.588803	0.086440
C69	C	-0.000098	-1.090430	-0.330423
C70	C	0.499902	-0.590430	0.169577
C71	C	-0.000103	-1.092463	-0.226109
C72	C	0.499897	-0.592463	0.273891
C73	C	-0.000089	-1.083168	0.296606
C74	C	0.499911	-0.583168	0.796606
C75	C	-0.000083	-1.085156	0.398987
C76	C	0.499917	-0.585156	0.898987
H77	H	-0.576338	-0.941974	0.190947
H78	H	-0.076338	-0.441974	0.690947
H79	H	-0.422743	-1.119599	-0.026877
H80	H	0.077257	-0.619599	0.473123
H81	H	-0.424140	-1.026402	0.275473
H82	H	0.075860	-0.526402	0.775473
O83	O	-0.580946	-1.254898	0.086836
O84	O	-0.080946	-0.754898	0.586836
C85	C	-0.632711	-1.316970	0.132299
C86	C	-0.132711	-0.816970	0.632299
H87	H	-0.659433	-1.279906	0.199922
H88	H	-0.159433	-0.779906	0.699922
H89	H	-0.590045	-1.378230	0.147845
H90	H	-0.090045	-0.878230	0.647845
C91	C	-0.677971	-1.397613	-0.013447
C92	C	-0.177971	-0.897613	0.486553
C93	C	-0.710798	-1.352088	0.069606
C94	C	-0.210798	-0.852088	0.569606
H95	H	-0.726137	-1.419279	-0.052119
H96	H	-0.226137	-0.919279	0.447881
H97	H	-0.643094	-1.355796	-0.044076
H98	H	-0.143094	-0.855796	0.455924
H99	H	-0.642416	-1.448656	-0.000479
H100	H	-0.142416	-0.948656	0.499521
H101	H	-0.746342	-1.301039	0.056639
H102	H	-0.246342	-0.801039	0.556639
H103	H	-0.745683	-1.393897	0.100232
H104	H	-0.245683	-0.893897	0.600232
H105	H	-0.423540	-0.942380	0.191017
H106	H	0.076460	-0.442380	0.691017
O107	O	-0.580441	-1.136199	-0.035605
O108	O	-0.080441	-0.636199	0.464395
C109	C	-0.634770	-1.199800	0.004845
C110	C	-0.134770	-0.699800	0.504845
H111	H	-0.662864	-1.165429	0.073024
H112	H	-0.162864	-0.665429	0.573024
H113	H	-0.593787	-1.262880	0.018514
H114	H	-0.093787	-0.762880	0.518514
C115	C	-0.677022	-1.272711	-0.145271
C116	C	-0.177022	-0.772711	0.354729
C117	C	-0.711534	-1.230492	-0.061536
C118	C	-0.211534	-0.730492	0.438464
H119	H	-0.724371	-1.291647	-0.186219
H120	H	-0.224371	-0.791647	0.313781
H121	H	-0.640416	-1.229864	-0.172524
H122	H	-0.140416	-0.729864	0.327476
H123	H	-0.642870	-1.325272	-0.133868
H124	H	-0.142870	-0.825272	0.366132
H125	H	-0.745675	-1.177926	-0.072939
H126	H	-0.245675	-0.677926	0.427061
H127	H	-0.748147	-1.273331	-0.034287
H128	H	-0.248147	-0.773331	0.465713
O129	O	-0.419321	-0.983516	0.012530
O130	O	0.080679	-0.483516	0.512530
C131	C	-0.369820	-0.993848	-0.070359
C132	C	0.130180	-0.493848	0.429641
H133	H	-0.390007	-1.060864	-0.113627
H134	H	0.109993	-0.560864	0.386373
H135	H	-0.296088	-0.996440	-0.053310
H136	H	0.203912	-0.496440	0.446690
C137	C	-0.363283	-0.828794	-0.072345
C138	C	0.136717	-0.328794	0.427655
C139	C	-0.388083	-0.911101	-0.125490
C140	C	0.111917	-0.411101	0.374510
H141	H	-0.374545	-0.777751	-0.106351
H142	H	0.125455	-0.277751	0.393649
H143	H	-0.396630	-0.821833	-0.016499
H144	H	0.103370	-0.321833	0.483501
H145	H	-0.301841	-0.830967	-0.058141
H146	H	0.198159	-0.330967	0.441859
H147	H	-0.449525	-0.908932	-0.139683
H148	H	0.050475	-0.408932	0.360317
H149	H	-0.354746	-0.918061	-0.181340
H150	H	0.145254	-0.418061	0.318660
H151	H	-0.577418	-1.026057	0.274793
H152	H	-0.077418	-0.526057	0.774793
H153	H	-0.422526	-1.203445	0.218967
H154	H	0.077474	-0.703445	0.718967
H155	H	-0.575134	-1.202614	0.220307
H156	H	-0.075134	-0.702614	0.720307
O157	O	-0.419005	-1.254760	0.085387
O158	O	0.080995	-0.754760	0.585387
C159	C	-0.364246	-1.216833	0.020451
C160	C	0.135754	-0.716833	0.520451
H161	H	-0.336142	-1.147820	0.052700
H162	H	0.163858	-0.647820	0.552700
H163	H	-0.404871	-1.205335	-0.043522
H164	H	0.095129	-0.705335	0.456478
C165	C	-0.322030	-1.368922	-0.047234
C166	C	0.177970	-0.868922	0.452766
C167	C	-0.287507	-1.284162	-0.007623
C168	C	0.212493	-0.784162	0.492377
H169	H	-0.274695	-1.410455	-0.064556
H170	H	0.225305	-0.910455	0.435444
H171	H	-0.358925	-1.394475	-0.003488
H172	H	0.141075	-0.894475	0.496512
H173	H	-0.355884	-1.359328	-0.100541
H174	H	0.144116	-0.859328	0.399459
H175	H	-0.253663	-1.293755	0.045689
H176	H	0.246337	-0.793755	0.545689
H177	H	-0.250604	-1.258612	-0.051361
H178	H	0.249396	-0.758612	0.448639
O179	O	-0.582222	-0.988228	0.006823
O180	O	-0.082222	-0.488228	0.506823
C181	C	-0.547002	-0.972845	-0.080132
C182	C	-0.047002	-0.472845	0.419868
H183	H	-0.526820	-1.041898	-0.119595
H184	H	-0.026820	-0.541898	0.380405
H185	H	-0.486395	-0.925892	-0.069641
H186	H	0.013605	-0.425892	0.430359
C187	C	-0.642448	-0.841378	-0.087512
C188	C	-0.142448	-0.341378	0.412488
C189	C	-0.617668	-0.926190	-0.135985
C190	C	-0.117668	-0.426190	0.364015
H191	H	-0.686036	-0.812595	-0.121964
H192	H	-0.186036	-0.312595	0.378036
H193	H	-0.666175	-0.851738	-0.028927
H194	H	-0.166175	-0.351738	0.471073
H195	H	-0.591936	-0.802261	-0.078772
H196	H	-0.091936	-0.302261	0.421228
H197	H	-0.668177	-0.965309	-0.144713
H198	H	-0.168177	-0.465309	0.355287
H199	H	-0.593951	-0.915835	-0.194573
H200	H	-0.093951	-0.415835	0.305427
