data_functionalizedCrystal
_audit_creation_method	'MofGen! by Chris Wilmer'
_symmetry_space_group_name_H-M	'P1'
_symmetry_Int_Tables_number	1
_symmetry_cell_setting	triclinic
loop_
_symmetry_equiv_pos_as_xyz
  x,y,z
_cell_length_a	18.426585
_cell_length_b	21.606444
_cell_length_c	21.606444
_cell_angle_alpha	90.001146
_cell_angle_beta	60.004022
_cell_angle_gamma	59.997708
loop_
_atom_site_label
_atom_site_type_symbol
_atom_site_fract_x
_atom_site_fract_y
_atom_site_fract_z
Zr1	Zr	0.794316	0.596243	-0.081181
O2	O	0.945715	0.497416	-0.180001
O3	O	0.642916	0.626540	-0.050891
O4	O	0.794309	0.626539	-0.180003
O5	O	0.794327	0.497416	0.050961
O6	O	0.794304	0.728393	-0.180001
O7	O	0.794322	0.497417	-0.050889
O8	O	0.523490	0.728394	0.050957
O9	O	1.065142	0.497416	-0.179997
O10	O	0.705185	0.715473	-0.037967
O11	O	0.705193	0.639460	0.038041
O12	O	0.883439	0.639460	-0.113972
O13	O	0.883446	0.563447	-0.037964
Zr14	Zr	0.794316	0.758689	0.081261
Zr15	Zr	0.794308	0.758689	-0.081178
Zr16	Zr	0.794324	0.596243	0.081257
Zr17	Zr	0.984787	0.596243	-0.081175
Zr18	Zr	0.603844	0.758690	0.081255
O19	O	0.945715	0.728392	0.050971
O20	O	0.945704	0.728393	-0.179996
O21	O	0.945727	0.497416	0.050966
O22	O	0.642916	0.857516	0.180081
O23	O	0.642905	0.857516	-0.050886
O24	O	0.642928	0.626539	0.180076
O25	O	0.794304	0.857516	-0.050881
O26	O	0.794322	0.728393	0.180083
O27	O	0.794327	0.626539	0.180081
O28	O	0.794309	0.857516	0.050968
O29	O	1.065135	0.626538	-0.179995
O30	O	0.523496	0.728394	0.180074
O31	O	0.523490	0.857517	0.180077
O32	O	0.523483	0.857517	0.050960
O33	O	1.065148	0.497415	-0.050880
O34	O	1.065142	0.626538	-0.050878
O35	O	0.705193	0.715473	0.114052
O36	O	0.705185	0.791485	0.038044
O37	O	0.883439	0.715472	-0.037961
O38	O	0.883446	0.639459	0.038046
C39	C	0.556065	0.677467	0.000032
C40	C	0.475205	0.677467	0.000030
C41	C	0.794326	0.677466	0.203226
C42	C	0.794330	0.677466	0.272185
C43	C	0.794306	0.880661	0.000044
C44	C	0.794302	0.949623	0.000046
C45	C	0.179095	0.677463	0.000052
C46	C	0.261482	0.677462	0.000047
C47	C	0.327148	0.677465	0.000040
C48	C	0.409539	0.677465	0.000037
C49	C	1.032567	0.677465	0.000047
C50	C	1.113427	0.677465	0.000050
C51	C	0.794326	0.474272	0.000035
C52	C	0.794330	0.405309	0.000034
C53	C	0.701256	1.021700	0.039721
C54	C	0.701259	1.086495	0.039717
C55	C	0.794309	1.079211	0.000041
C56	C	0.887362	1.007127	-0.039639
C57	C	0.887358	0.942334	-0.039639
C58	C	0.887380	1.268430	-0.039642
C59	C	0.887376	1.333231	-0.039638
C60	C	0.701281	1.412591	0.039714
C61	C	0.701277	1.347798	0.039714
C62	C	0.794329	1.275719	0.000031
C63	C	0.794325	1.205462	0.000035
C64	C	0.794314	1.149467	0.000041
C65	C	0.794306	0.677466	-0.203146
C66	C	0.794302	0.677466	-0.272106
C67	C	0.887375	0.637789	0.264910
C68	C	0.887372	0.637786	0.329708
C69	C	0.794323	0.677464	0.401779
C70	C	0.701270	0.717142	0.409052
C71	C	0.701274	0.717140	0.344256
C72	C	0.701252	0.717148	0.670370
C73	C	0.701255	0.717148	0.735168
C74	C	0.887351	0.637793	0.655822
C75	C	0.887355	0.637792	0.591026
C76	C	0.794302	0.677466	0.598304
C77	C	0.794307	0.677468	0.528043
C78	C	0.794317	0.677467	0.472039
C79	C	0.556055	0.880662	0.000037
C80	C	0.475191	0.949624	0.000035
C81	C	0.556075	0.677467	0.203218
C82	C	0.475219	0.677467	0.272175
C83	C	0.556065	0.880661	0.203222
C84	C	0.475205	0.949624	0.272181
C85	C	1.032567	0.474271	-0.203143
C86	C	1.113427	0.405308	-0.272101
C87	C	1.032577	0.474270	0.000043
C88	C	1.113440	0.405308	0.000044
C89	C	1.032556	0.677465	-0.203139
C90	C	1.113413	0.677465	-0.272095
C91	C	0.437217	0.942332	-0.039649
C92	C	0.361247	1.007124	-0.039665
C93	C	0.323249	1.079207	0.000008
C94	C	0.361230	1.086498	0.039693
C95	C	0.437204	1.021707	0.039705
C96	C	0.437248	0.717145	0.344242
C97	C	0.361285	0.717142	0.409040
C98	C	0.323289	0.677466	0.401770
C99	C	0.361268	0.637783	0.329696
C100	C	0.437234	0.637782	0.264899
C101	C	0.437228	1.021694	0.264889
C102	C	0.361262	1.086498	0.329677
C103	C	0.323269	1.079230	0.401755
C104	C	0.361253	1.007152	0.409045
C105	C	0.437223	0.942350	0.344258
C106	C	1.151413	0.333238	-0.264810
C107	C	1.227402	0.268434	-0.329597
C108	C	1.265400	0.275702	-0.401675
C109	C	1.227410	0.347780	-0.408966
C110	C	1.151427	0.412582	-0.344179
C111	C	1.151423	0.412600	0.039722
C112	C	1.227413	0.347808	0.039720
C113	C	1.265415	0.275725	0.000045
C114	C	1.227429	0.268435	-0.039638
C115	C	1.151445	0.333226	-0.039640
C116	C	1.151384	0.717149	-0.264801
C117	C	1.227348	0.717164	-0.329587
C118	C	1.265343	0.677489	-0.401667
C119	C	1.227365	0.637804	-0.408959
C120	C	1.151397	0.637794	-0.344174
H121	H	0.625492	1.145181	0.072013
C122	C	0.319455	0.594153	0.321709
H123	H	0.268765	0.599850	0.370625
H124	H	0.373982	0.541948	0.294789
H125	H	0.289795	0.613761	0.294797
C126	C	0.239696	1.150517	0.473014
H127	H	0.222517	1.194478	0.458341
H128	H	0.264588	1.150532	0.502333
H129	H	0.180409	1.150527	0.502321
C130	C	0.989729	0.594144	0.185635
H131	H	0.976408	0.599829	0.148085
H132	H	1.027962	0.541943	0.179953
H133	H	1.027956	0.613743	0.179957
H134	H	1.258358	0.353688	-0.467660
C135	C	0.989717	0.999110	-0.083284
H136	H	1.045131	0.946902	-0.106919
H137	H	0.993591	1.022734	-0.049039
H138	H	0.993582	1.022737	-0.120833
C139	C	1.269175	0.189157	-0.321568
H140	H	1.319879	0.151599	-0.370472
H141	H	1.214629	0.183477	-0.294652
H142	H	1.298804	0.183484	-0.294635
H143	H	0.330308	1.001246	0.467740
H144	H	1.120460	0.749457	-0.206116
H145	H	0.468134	0.883670	0.350206
C146	C	0.989711	0.594147	0.647814
H147	H	1.045126	0.570525	0.595610
H148	H	0.993590	0.556596	0.671436
H149	H	0.993569	0.628404	0.671444
H150	H	0.468151	1.027626	0.206205
C151	C	1.109650	0.594126	-0.352203
H152	H	1.058963	0.599798	-0.303300
H153	H	1.164212	0.541929	-0.379130
H154	H	1.080005	0.613720	-0.379127
H155	H	0.261385	1.131958	-0.000007
C156	C	0.598923	1.355813	0.083354
H157	H	0.543507	1.408020	0.106978
H158	H	0.595052	1.332185	0.120900
H159	H	0.595058	1.332187	0.049099
H160	H	0.625484	1.027640	0.072033
H161	H	0.330343	1.145181	0.323727
H162	H	1.120480	0.327306	-0.206126
C163	C	1.348913	0.677499	-0.472924
H164	H	1.366088	0.706812	-0.458250
H165	H	1.324020	0.698743	-0.502243
H166	H	1.408203	0.626945	-0.502233
H167	H	0.625513	1.471287	0.072023
C168	C	1.269122	0.760810	-0.321552
H169	H	1.235623	0.784422	-0.269345
H170	H	1.256664	0.798367	-0.345166
H171	H	1.340857	0.726556	-0.345178
C172	C	1.269226	0.594111	-0.488247
H173	H	1.235750	0.570460	-0.483320
H174	H	1.340953	0.556580	-0.515123
H175	H	1.256803	0.628330	-0.515209
C176	C	0.989733	1.325220	-0.083188
H177	H	0.976404	1.374133	-0.077466
H178	H	1.028065	1.298294	-0.135402
H179	H	1.027866	1.298302	-0.063518
C180	C	0.989732	1.189154	-0.083286
H181	H	1.045146	1.194099	-0.106907
H182	H	0.993603	1.162227	-0.120834
H183	H	0.993602	1.162227	-0.049035
H184	H	0.330332	1.001173	-0.071981
H185	H	1.327270	0.222930	-0.454423
H186	H	0.963125	0.883645	-0.071949
H187	H	1.120522	0.327278	-0.071948
C188	C	0.478988	0.594139	0.185630
H189	H	0.445468	0.570518	0.190588
H190	H	0.550718	0.556588	0.158695
H191	H	0.466516	0.628393	0.158708
H192	H	0.625479	0.749459	0.793854
H193	H	0.963139	0.605478	0.323778
H194	H	0.330281	1.145196	0.071993
C195	C	1.109634	0.491883	0.083368
H196	H	1.143153	0.486935	0.106990
H197	H	1.037907	0.518809	0.120916
H198	H	1.122085	0.518810	0.049119
C199	C	0.598899	0.760811	0.678383
H200	H	0.543485	0.784453	0.730587
H201	H	0.595011	0.726577	0.654758
H202	H	0.595048	0.798360	0.654756
C203	C	0.989708	0.594143	0.511751
H204	H	1.045124	0.570505	0.516699
H205	H	0.993580	0.628387	0.484822
H206	H	0.993574	0.556592	0.484828
H207	H	1.120500	0.471263	-0.350125
H208	H	1.258328	0.353759	0.072037
H209	H	0.625507	0.749445	0.467738
C210	C	0.598924	0.760778	0.352258
H211	H	0.543506	0.784412	0.404460
H212	H	0.595069	0.726522	0.328627
H213	H	0.595046	0.798330	0.328632
H214	H	0.468155	0.883645	-0.071965
H215	H	0.468113	1.027655	0.072025
C216	C	1.348992	0.204462	0.000056
H217	H	1.366158	0.219136	0.029376
H218	H	1.408275	0.175145	-0.050490
H219	H	1.324090	0.175149	0.021306
C220	C	0.479036	0.760788	0.352249
H221	H	0.529714	0.755115	0.303341
H222	H	0.508682	0.741188	0.379168
H223	H	0.424487	0.812993	0.379174
C224	C	1.269227	0.189143	-0.083272
H225	H	1.235732	0.194072	-0.106909
H226	H	1.256778	0.162225	-0.049017
H227	H	1.340961	0.162218	-0.120818
H228	H	0.330372	0.749459	0.467720
H229	H	0.261433	0.677473	0.454538
