data_functionalizedCrystal
_audit_creation_method	'MofGen! by Chris Wilmer'
_symmetry_space_group_name_H-M	'P1'
_symmetry_Int_Tables_number	1
_symmetry_cell_setting	triclinic
loop_
_symmetry_equiv_pos_as_xyz
  x,y,z
_cell_length_a	19.188930
_cell_length_b	12.837942
_cell_length_c	11.892110
_cell_angle_alpha	85.696939
_cell_angle_beta	93.900102
_cell_angle_gamma	88.986860
loop_
_atom_site_label
_atom_site_type_symbol
_atom_site_fract_x
_atom_site_fract_y
_atom_site_fract_z
O1	O	-0.939057	-0.122706	-0.094371
O2	O	-0.736937	-0.140128	-0.094294
O3	O	-0.833515	0.019464	-0.094324
O4	O	-0.842479	-0.282299	-0.094341
O5	O	-0.825460	0.006177	0.093686
O6	O	-0.728882	-0.153416	0.093716
O7	O	-0.931002	-0.135994	0.093639
Zn8	Zn	-0.828663	-0.146815	0.123528
Zn9	Zn	-0.839276	-0.129308	-0.124183
O10	O	-0.834424	-0.295587	0.093669
C11	C	-0.826460	0.051427	-0.000319
C12	C	-0.817429	0.166463	-0.000317
C13	C	-0.706859	-0.146209	-0.000279
C14	C	-0.629238	-0.144518	-0.000249
C15	C	-0.961080	-0.129913	-0.000379
C16	C	-1.038702	-0.131604	-0.000416
C17	C	-0.590737	-0.238159	-0.000273
C18	C	-0.517805	-0.236568	-0.000285
C19	C	-0.483377	-0.141328	-0.000297
C20	C	-0.521886	-0.047675	-0.000267
C21	C	-0.594816	-0.049270	-0.000244
N22	N	-0.373147	-0.064005	-0.064326
N23	N	-0.303866	-0.062496	-0.064351
C24	C	-0.263641	-0.136517	-0.000366
N25	N	-0.295316	-0.212119	0.063631
N26	N	-0.364603	-0.213631	0.063651
C27	C	-0.404296	-0.139588	-0.000322
C28	C	-0.146059	-0.228439	-0.000401
C29	C	-0.073126	-0.226844	-0.000406
C30	C	-0.077208	-0.037948	-0.000400
C31	C	-0.150140	-0.039547	-0.000383
C32	C	-0.184561	-0.134794	-0.000389
C33	C	-0.841480	-0.327550	-0.000339
C34	C	-0.850511	-0.442585	-0.000348
N35	N	-0.821426	-0.158762	0.292584
C36	C	-0.925999	0.407919	-0.000382
C37	C	-0.917517	0.516006	-0.000381
C38	C	-0.791983	0.490728	-0.000321
C39	C	-0.800465	0.382641	-0.000322
C40	C	-0.867475	0.341240	-0.000351
C41	C	-0.875956	0.233150	-0.000344
C42	C	-0.750424	0.207875	-0.000293
C43	C	-0.741941	0.315962	-0.000292
C44	C	-0.896868	-0.034173	0.529209
C45	C	-0.891814	-0.042532	0.647552
C46	C	-0.806262	-0.183833	0.647617
C47	C	-0.811315	-0.175474	0.529273
C48	C	-0.856621	-0.100643	0.470073
C49	C	-0.861677	-0.092290	0.351728
C50	C	-0.776122	-0.233585	0.351794
C51	C	-0.771068	-0.241944	0.470138
N52	N	-0.846513	-0.117360	0.706760
H53	H	-0.486452	-0.312824	-0.000301
O54	O	-0.031594	-0.327848	-0.000421
H55	H	-0.047909	-0.368019	-0.077057
H56	H	-0.702769	0.153572	-0.000259
O57	O	-0.627864	-0.340888	-0.000246
H58	H	-0.588834	-0.405737	-0.000248
H59	H	-0.898569	-0.031361	0.303528
O60	O	-0.484759	0.055051	-0.000281
H61	H	-0.427577	0.040430	-0.000312
O62	O	-0.757386	-0.264524	0.711471
H63	H	-0.772613	-0.343679	0.688751
H64	H	-0.734179	-0.302867	0.518352
O65	O	-0.945714	0.046558	0.465355
H66	H	-0.942462	0.041208	0.373128
H67	H	-0.930519	0.199444	-0.000364
O68	O	-0.040087	0.064779	-0.000413
H69	H	0.017095	0.050159	-0.000439
O70	O	-0.935231	0.029147	0.711340
H71	H	-0.967588	0.082575	0.650288
H72	H	-0.737427	0.524457	-0.000310
H73	H	-0.743352	-0.287712	0.303633
H74	H	-0.626163	0.026986	-0.000225
O75	O	-0.183193	-0.331165	-0.000384
H76	H	-0.144165	-0.396016	-0.000380
H77	H	-0.181488	0.036707	-0.000370
H78	H	-0.980561	0.374209	-0.000394
O79	O	-0.980637	0.587928	-0.000400
H80	H	-1.028655	0.540975	-0.000410
O81	O	-0.669668	0.360615	-0.000245
H82	H	-0.673600	0.446977	-0.000238
