data_functionalizedCrystal
_audit_creation_method	'MofGen! by Chris Wilmer'
_symmetry_space_group_name_H-M	'P1'
_symmetry_Int_Tables_number	1
_symmetry_cell_setting	triclinic
loop_
_symmetry_equiv_pos_as_xyz
  x,y,z
_cell_length_a	15.297475
_cell_length_b	17.640280
_cell_length_c	15.296720
_cell_angle_alpha	90.295581
_cell_angle_beta	91.617114
_cell_angle_gamma	67.467946
loop_
_atom_site_label
_atom_site_type_symbol
_atom_site_fract_x
_atom_site_fract_y
_atom_site_fract_z
Zn1	Zn	1.417125	-0.622537	-0.611407
Zn2	Zn	1.917125	-0.122537	-0.111407
Zn3	Zn	1.472679	-0.737717	-0.443610
Zn4	Zn	1.972679	-0.237717	0.056390
Zn5	Zn	1.284185	-0.577601	-0.447963
Zn6	Zn	1.784185	-0.077601	0.052037
Zn7	Zn	1.298838	-0.729855	-0.566194
Zn8	Zn	1.798838	-0.229855	-0.066194
O9	O	1.368207	-0.666928	-0.517293
O10	O	1.868207	-0.166928	-0.017293
O11	O	1.552884	-0.659913	-0.606249
O12	O	2.052884	-0.159913	-0.106249
O13	O	1.464792	-0.700962	-0.324484
O14	O	1.964792	-0.200962	0.175516
O15	O	1.272438	-0.471640	-0.490387
O16	O	1.772438	0.028360	0.009613
O17	O	1.593699	-0.744535	-0.482969
O18	O	2.093699	-0.244535	0.017031
O19	O	1.370108	-0.504655	-0.610469
O20	O	1.870108	-0.004655	-0.110469
O21	O	1.326306	-0.583325	-0.327682
O22	O	1.826306	-0.083325	0.172318
O23	O	1.157739	-0.575701	-0.446546
O24	O	1.657739	-0.075701	0.053454
O25	O	1.297411	-0.731134	-0.691895
O26	O	1.797411	-0.231134	-0.191895
O27	O	1.168505	-0.687561	-0.533410
O28	O	1.668505	-0.187561	-0.033410
O29	O	1.384317	-0.652289	-0.725113
O30	O	1.884317	-0.152289	-0.225113
O31	O	1.479001	-0.848596	-0.439128
O32	O	1.979001	-0.348596	0.060872
O33	O	1.351280	-0.842819	-0.529189
O34	O	1.851280	-0.342819	-0.029189
C35	C	1.129832	-0.625902	-0.485544
C36	C	1.629832	-0.125902	0.014456
C37	C	1.027857	-0.608374	-0.471978
C38	C	1.527857	-0.108374	0.028022
C39	C	0.763060	-0.792215	-0.614251
C40	C	1.263060	-0.292215	-0.114251
C41	C	0.858873	-0.808690	-0.626993
C42	C	1.358873	-0.308690	-0.126993
C43	C	0.901123	-0.758612	-0.588241
C44	C	1.401123	-0.258612	-0.088241
C45	C	0.847552	-0.692057	-0.536744
C46	C	1.347552	-0.192057	-0.036744
C47	C	0.751731	-0.675584	-0.523995
C48	C	1.251731	-0.175584	-0.023995
C49	C	0.889795	-0.641981	-0.497984
C50	C	1.389795	-0.141981	0.002016
C51	C	0.836223	-0.575426	-0.446487
C52	C	1.336223	-0.075426	0.053513
C53	C	0.740412	-0.558956	-0.433741
C54	C	1.240412	-0.058956	0.066259
C55	C	0.698161	-0.609034	-0.472493
C56	C	1.198161	-0.109034	0.027507
C57	C	0.985615	-0.658454	-0.510734
C58	C	1.485615	-0.158454	-0.010734
C59	C	0.974287	-0.541823	-0.420477
C60	C	1.474287	-0.041823	0.079523
C61	C	0.878474	-0.525349	-0.407735
C62	C	1.378474	-0.025349	0.092265
C63	C	1.422781	-0.874735	-0.478802
C64	C	1.922781	-0.374735	0.021198
C65	C	1.446208	-0.963653	-0.462375
C66	C	1.946208	-0.463653	0.037625
C67	C	1.190566	-1.241111	-0.642449
C68	C	1.690566	-0.741111	-0.142449
C69	C	1.212585	-1.324661	-0.626986
C70	C	1.712585	-0.824661	-0.126986
C71	C	1.345637	-1.330638	-0.533325
C72	C	1.845637	-0.830638	-0.033325
C73	C	1.323632	-1.247088	-0.548783
C74	C	1.823632	-0.747088	-0.048783
C75	C	1.246095	-1.202331	-0.603345
C76	C	1.746095	-0.702331	-0.103345
C77	C	1.379161	-1.208307	-0.509680
C78	C	1.879161	-0.708307	-0.009680
C79	C	1.357155	-1.124764	-0.525133
C80	C	1.857155	-0.624764	-0.025133
C81	C	1.279619	-1.080001	-0.579690
C82	C	1.779619	-0.580001	-0.079690
C83	C	1.224088	-1.118787	-0.618798
C84	C	1.724088	-0.618787	-0.118798
C85	C	1.456695	-1.253065	-0.455113
C86	C	1.956695	-0.753065	0.044887
C87	C	1.512223	-1.214284	-0.416010
C88	C	2.012223	-0.714284	0.083990
C89	C	1.490221	-1.130740	-0.431468
C90	C	1.990221	-0.630740	0.068532
C91	C	1.412686	-1.085977	-0.486025
C92	C	1.912686	-0.585977	0.013975
C93	C	1.545752	-1.091954	-0.392360
C94	C	2.045752	-0.591954	0.107640
C95	C	1.523746	-1.008410	-0.407814
C96	C	2.023746	-0.508410	0.092186
C97	C	1.390679	-1.002434	-0.501479
C98	C	1.890679	-0.502434	-0.001479
C99	C	1.607512	-0.708114	-0.549167
C100	C	2.107512	-0.208114	-0.049167
C101	C	1.709490	-0.725665	-0.562750
C102	C	2.209490	-0.225665	-0.062750
C103	C	1.336302	-0.695847	-0.740410
C104	C	1.836302	-0.195847	-0.240410
C105	C	1.322705	-0.708171	-0.835489
C106	C	1.822705	-0.208171	-0.335489
C107	C	1.313441	-0.458316	-0.555957
C108	C	1.813441	0.041684	-0.055957
C109	C	1.290104	-0.369418	-0.572433
C110	C	1.790104	0.130582	-0.072433
C111	C	1.465377	-0.578714	-1.172680
C112	C	1.965377	-0.078714	-0.672680
C113	C	1.478158	-0.567138	-1.083349
C114	C	1.978158	-0.067138	-0.583349
C115	C	1.439295	-0.602395	-1.021380
C116	C	1.939295	-0.102395	-0.521380
C117	C	1.387651	-0.649231	-1.048750
C118	C	1.887651	-0.149231	-0.548750
C119	C	1.374876	-0.660813	-1.138089
C120	C	1.874876	-0.160813	-0.638089
C121	C	1.348794	-0.684494	-0.986789
C122	C	1.848794	-0.184494	-0.486789
C123	C	1.297150	-0.731330	-1.014159
C124	C	1.797150	-0.231330	-0.514159
C125	C	1.284376	-0.742910	-1.103490
C126	C	1.784376	-0.242910	-0.603490
C127	C	1.323238	-0.707653	-1.165459
C128	C	1.823238	-0.207653	-0.665459
C129	C	1.361569	-0.672911	-0.897450
C130	C	1.861569	-0.172911	-0.397450
C131	C	1.271068	-0.755010	-0.862859
C132	C	1.771068	-0.255010	-0.362859
C133	C	1.258288	-0.766587	-0.952190
C134	C	1.758288	-0.266587	-0.452190
C135	C	1.400025	-0.638072	-0.295063
C136	C	1.900025	-0.138072	0.204937
C137	C	1.413740	-0.625554	-0.200050
C138	C	1.913740	-0.125554	0.299950
H139	H	1.327546	-0.965993	-0.545916
H140	H	1.827546	-0.465993	-0.045916
H141	H	1.216238	-0.804721	-0.974487
H142	H	1.716238	-0.304721	-0.474487
Cl143	Cl	0.811116	-0.441682	-0.342997
Cl144	Cl	1.311116	0.058318	0.157003
Cl145	Cl	1.307180	-0.722210	-1.277767
Cl146	Cl	1.807180	-0.222210	-0.777767
H147	H	1.127433	-1.204670	-0.686885
H148	H	1.627433	-0.704670	-0.186885
Cl149	Cl	1.222216	-0.799341	-0.784960
Cl150	Cl	1.722216	-0.299341	-0.284960
H151	H	1.474612	-1.321092	-0.442536
H152	H	1.974612	-0.821092	0.057464
H153	H	0.979139	-0.772030	-0.598619
H154	H	1.479139	-0.272030	-0.098619
H155	H	1.029224	-0.712644	-0.552664
H156	H	1.529224	-0.212644	-0.052664
H157	H	1.261697	-1.011973	-0.592265
H158	H	1.761697	-0.511973	-0.092265
H159	H	1.242333	-0.781055	-1.125770
H160	H	1.742333	-0.281055	-0.625770
Cl161	Cl	1.142759	-1.373408	-0.676140
Cl162	Cl	1.642759	-0.873408	-0.176140
H163	H	1.008687	-0.501047	-0.388920
H164	H	1.508687	-0.001047	0.111080
H165	H	1.497020	-0.550018	-1.223141
H166	H	1.997020	-0.050018	-0.723141
H167	H	0.902485	-0.862881	-0.668921
H168	H	1.402485	-0.362881	-0.168921
H169	H	1.408766	-1.367089	-0.488898
H170	H	1.908766	-0.867089	0.011102
H171	H	0.728652	-0.832985	-0.645792
H172	H	1.228652	-0.332985	-0.145792
Cl173	Cl	0.673069	-0.475292	-0.368993
Cl174	Cl	1.173069	0.024708	0.131007
Cl175	Cl	0.577704	-0.588321	-0.456483
Cl176	Cl	1.077704	-0.088321	0.043517
Cl177	Cl	1.126618	-1.062518	-0.687401
Cl178	Cl	1.626618	-0.562518	-0.187401
H179	H	1.575352	-1.250736	-0.371583
H180	H	2.075352	-0.750736	0.128417
Cl181	Cl	1.643218	-1.148227	-0.323765
Cl182	Cl	2.143218	-0.648227	0.176235
H183	H	1.403618	-0.634776	-0.875174
H184	H	1.903618	-0.134776	-0.375174
H185	H	1.568963	-0.976835	-0.375970
H186	H	2.068963	-0.476835	0.124030
H187	H	1.449704	-0.592966	-0.948643
H188	H	1.949704	-0.092966	-0.448643
H189	H	1.520209	-0.529006	-1.061071
H190	H	2.020209	-0.029006	-0.561071
