data_functionalizedCrystal
_audit_creation_method	'MofGen! by Chris Wilmer'
_symmetry_space_group_name_H-M	'P1'
_symmetry_Int_Tables_number	1
_symmetry_cell_setting	triclinic
loop_
_symmetry_equiv_pos_as_xyz
  x,y,z
_cell_length_a	12.827893
_cell_length_b	16.120484
_cell_length_c	12.827885
_cell_angle_alpha	87.136072
_cell_angle_beta	90.019272
_cell_angle_gamma	92.925431
loop_
_atom_site_label
_atom_site_type_symbol
_atom_site_fract_x
_atom_site_fract_y
_atom_site_fract_z
Zn1	Zn	1.576504	-0.331866	0.611895
Zn2	Zn	1.567505	-0.471301	0.445998
Zn3	Zn	1.401742	-0.331907	0.437171
Zn4	Zn	1.392841	-0.471239	0.620694
O5	O	1.484648	-0.401579	0.528940
O6	O	1.721545	-0.350372	0.589900
O7	O	1.545475	-0.452853	0.298594
O8	O	1.432416	-0.215236	0.452972
O9	O	1.714934	-0.452814	0.468017
O10	O	1.560812	-0.215206	0.581341
O11	O	1.423690	-0.350441	0.292109
O12	O	1.254326	-0.350381	0.461505
O13	O	1.417245	-0.452708	0.765761
O14	O	1.247787	-0.452748	0.596338
O15	O	1.552181	-0.350311	0.759296
O16	O	1.536844	-0.587959	0.476549
O17	O	1.408520	-0.587913	0.604897
C18	C	1.213139	-0.401562	0.528919
C19	C	1.096985	-0.401576	0.528936
C20	C	1.041987	-0.452309	0.595563
C21	C	0.921936	-0.452324	0.595582
C22	C	1.470768	-0.618186	0.542658
C23	C	1.464925	-0.710851	0.548562
C24	C	1.454265	-0.880512	0.559362
C25	C	1.515219	-0.921804	0.498534
C26	C	1.509287	-1.016209	0.504544
C27	C	1.460195	-0.786099	0.553355
C28	C	1.757217	-0.401595	0.528962
C29	C	1.873370	-0.401602	0.528971
C30	C	1.484724	-0.401498	0.801505
C31	C	1.484757	-0.401464	0.917656
C32	C	1.498611	-0.184125	0.515191
C33	C	1.504561	-0.091460	0.509332
C34	C	1.484636	-0.401598	0.257431
C35	C	1.484821	-0.401397	0.141266
C36	C	1.551535	-0.350785	0.966241
C37	C	1.551570	-0.350749	1.086289
H38	H	0.920648	-0.358168	0.471922
H39	H	1.397630	-0.916059	0.615947
C40	C	1.590841	-0.874561	0.423039
C41	C	1.645928	-0.931213	0.368113
C42	C	1.715603	-0.887720	0.298569
H43	H	1.553090	-0.840648	0.375266
H44	H	1.638506	-0.840548	0.460903
H45	H	1.598270	-0.965212	0.330251
H46	H	1.683700	-0.965128	0.415859
H47	H	1.763268	-0.853707	0.336433
H48	H	1.677844	-0.853808	0.250802
H49	H	1.752994	-0.926152	0.261300
H50	H	1.608744	-0.307363	1.128084
H51	H	1.055194	-0.358148	0.471913
C52	C	1.627573	-0.292919	0.903072
C53	C	1.571760	-0.239557	0.837009
C54	C	1.641774	-0.186248	0.778794
H55	H	1.669505	-0.261040	0.948993
H56	H	1.670985	-0.324839	0.862454
H57	H	1.528365	-0.207641	0.877623
H58	H	1.529831	-0.271414	0.791067
H59	H	1.685186	-0.218167	0.738177
H60	H	1.683703	-0.154374	0.824724
H61	H	1.603915	-0.150040	0.733957
C62	C	1.408751	-0.459306	1.085420
C63	C	1.464536	-0.512703	1.026121
C64	C	1.394498	-0.566051	0.974642
H65	H	1.366847	-0.491158	1.135367
H66	H	1.365312	-0.427416	1.040759
H67	H	1.507957	-0.544589	1.070779
H68	H	1.506436	-0.480873	0.976157
H69	H	1.351058	-0.534161	0.929980
H70	H	1.352598	-0.597898	1.024595
H71	H	1.432337	-0.602282	0.934394
C72	C	1.097843	-0.510079	0.671659
C73	C	1.163574	-0.462884	0.735663
C74	C	1.215053	-0.516074	0.805768
H75	H	1.047891	-0.541931	0.713564
H76	H	1.138148	-0.546315	0.633887
H77	H	1.123272	-0.426662	0.773433
H78	H	1.213546	-0.431033	0.693787
H79	H	1.255358	-0.552311	0.767995
H80	H	1.165093	-0.547924	0.847665
H81	H	1.259664	-0.484061	0.849196
H82	H	1.427605	-0.444820	0.964935
H83	H	0.874651	-0.495761	0.652621
