data_functionalizedCrystal
_audit_creation_method	'MofGen! by Chris Wilmer'
_symmetry_space_group_name_H-M	'P1'
_symmetry_Int_Tables_number	1
_symmetry_cell_setting	triclinic
loop_
_symmetry_equiv_pos_as_xyz
  x,y,z
_cell_length_a	14.519709
_cell_length_b	12.996460
_cell_length_c	10.654550
_cell_angle_alpha	89.994020
_cell_angle_beta	95.917462
_cell_angle_gamma	89.999966
loop_
_atom_site_label
_atom_site_type_symbol
_atom_site_fract_x
_atom_site_fract_y
_atom_site_fract_z
O1	O	1.224722	0.085432	-0.164625
O2	O	1.558056	0.418766	0.168708
O3	O	1.891389	0.752099	0.502041
O4	O	0.956346	0.085464	-0.184012
O5	O	1.289679	0.418797	0.149321
O6	O	1.623013	0.752131	0.482655
O7	O	1.096705	0.085441	0.008480
O8	O	1.430038	0.418774	0.341813
O9	O	1.763371	0.752108	0.675147
O10	O	1.084364	0.085455	-0.357117
O11	O	1.417697	0.418789	-0.023784
O12	O	1.751030	0.752122	0.309549
O13	O	1.096690	-0.085693	0.008491
O14	O	1.430023	0.247641	0.341824
O15	O	1.763356	0.580974	0.675157
O16	O	0.956331	-0.085670	-0.184001
O17	O	1.289664	0.247663	0.149332
O18	O	1.622998	0.580997	0.482665
O19	O	1.224708	-0.085701	-0.164615
O20	O	1.558041	0.247632	0.168719
O21	O	1.891374	0.580965	0.502052
Cu22	Cu	1.090518	-0.101311	-0.174307
Cu23	Cu	1.423851	0.232022	0.159026
Cu24	Cu	1.757185	0.565355	0.492360
Cu25	Cu	1.090535	0.101074	-0.174320
Cu26	Cu	1.423869	0.434407	0.159014
Cu27	Cu	1.757202	0.767741	0.492347
O28	O	1.084349	-0.085678	-0.357107
O29	O	1.417682	0.247655	-0.023773
O30	O	1.751016	0.580988	0.309560
C31	C	0.921974	-0.000099	-0.183103
C32	C	1.255307	0.333234	0.150230
C33	C	1.588641	0.666568	0.483564
C34	C	0.819579	-0.000087	-0.180396
C35	C	1.152912	0.333246	0.152938
C36	C	1.486245	0.666579	0.486271
C37	C	0.444631	-0.000134	-0.170428
C38	C	0.777965	0.333199	0.162905
C39	C	1.111298	0.666532	0.496238
C40	C	0.548954	-0.000121	-0.173196
C41	C	0.882287	0.333212	0.160137
C42	C	1.215620	0.666546	0.493470
C43	C	0.632102	-0.000110	-0.175412
C44	C	0.965435	0.333224	0.157922
C45	C	1.298768	0.666557	0.491255
C46	C	0.736431	-0.000098	-0.178180
C47	C	1.069764	0.333235	0.155153
C48	C	1.403097	0.666568	0.488486
N49	N	1.090512	-0.243659	-0.174297
N50	N	1.423846	0.089675	0.159036
N51	N	1.757179	0.423008	0.492369
C52	C	1.090534	-0.663473	-0.174321
C53	C	1.423868	-0.330140	0.159012
C54	C	1.757201	0.003194	0.492346
C55	C	1.090525	-0.546668	-0.174319
C56	C	1.423859	-0.213334	0.159015
C57	C	1.757192	0.119999	0.492348
C58	C	1.090524	-0.453569	-0.174310
C59	C	1.423857	-0.120236	0.159023
C60	C	1.757190	0.213097	0.492357
C61	C	1.090514	-0.336757	-0.174306
C62	C	1.423847	-0.003424	0.159028
C63	C	1.757181	0.329910	0.492361
C64	C	1.259079	-0.000136	-0.165524
C65	C	1.592413	0.333197	0.167810
C66	C	1.925746	0.666531	0.501143
C67	C	1.361475	-0.000141	-0.168231
C68	C	1.694808	0.333192	0.165102
C69	C	2.028141	0.666525	0.498436
C70	C	1.095791	-0.000125	0.055275
C71	C	1.429124	0.333208	0.388608
C72	C	1.762458	0.666541	0.721941
C73	C	1.093080	-0.000123	0.194692
C74	C	1.426413	0.333210	0.528025
C75	C	1.759747	0.666543	0.861358
N76	N	1.090548	0.243421	-0.174319
N77	N	1.423882	0.576754	0.159014
N78	N	1.757215	0.910088	0.492347
C79	C	1.085262	-0.000110	-0.403901
C80	C	1.418596	0.333223	-0.070568
C81	C	1.751929	0.666557	0.262766
C82	C	1.087973	-0.000105	-0.543318
C83	C	1.421307	0.333228	-0.209985
C84	C	1.754640	0.666562	0.123348
C85	C	1.175721	-0.000133	0.274972
C86	C	1.509054	0.333201	0.608305
C87	C	1.842388	0.666534	0.941639
C88	C	1.173168	-0.000120	0.405968
C89	C	1.506501	0.333214	0.739302
C90	C	1.839835	0.666547	1.072635
C91	C	1.005326	-0.000093	0.376391
C92	C	1.338660	0.333241	0.709725
C93	C	1.671993	0.666574	1.043058
C94	C	1.007880	-0.000098	0.245397
C95	C	1.341213	0.333235	0.578731
C96	C	1.674547	0.666569	0.912064
C97	C	1.270505	0.059830	0.602745
C98	C	1.603838	0.393164	0.936079
C99	C	1.937171	0.726497	1.269412
C100	C	1.353150	0.059803	0.683031
C101	C	1.686483	0.393137	1.016364
C102	C	2.019817	0.726470	1.349697
C103	C	1.428065	-0.000177	0.653583
C104	C	1.761398	0.333156	0.986916
C105	C	2.094732	0.666489	1.320249
C106	C	1.420338	-0.060156	0.543852
C107	C	1.753672	0.273177	0.877185
C108	C	2.087005	0.606510	1.210519
C109	C	1.337692	-0.060139	0.463573
C110	C	1.671025	0.273195	0.796906
C111	C	2.004358	0.606528	1.130240
C112	C	1.262780	-0.000134	0.493020
C113	C	1.596113	0.333200	0.826353
C114	C	1.929446	0.666533	1.159686
C115	C	0.910549	-0.060057	0.048619
C116	C	1.243883	0.273276	0.381953
C117	C	1.577216	0.606610	0.715286
C118	C	0.827902	-0.060046	-0.031662
C119	C	1.161235	0.273287	0.301671
C120	C	1.494568	0.606620	0.635004
C121	C	0.752979	-0.000072	-0.002218
C122	C	1.086312	0.333261	0.331115
C123	C	1.419645	0.666595	0.664448
C124	C	0.760696	0.059891	0.107515
C125	C	1.094030	0.393225	0.440848
C126	C	1.427363	0.726558	0.774181
C127	C	0.843344	0.059881	0.187796
C128	C	1.176677	0.393214	0.521130
C129	C	1.510011	0.726548	0.854463
C130	C	0.918267	-0.000092	0.158343
C131	C	1.251601	0.333242	0.491677
C132	C	1.584934	0.666575	0.825010
H133	H	1.245096	-0.000151	0.233692
H134	H	1.578430	0.333182	0.567025
H135	H	1.911763	0.666516	0.900359
H136	H	1.481341	-0.109006	0.519894
H137	H	1.814674	0.224328	0.853227
H138	H	2.148008	0.557661	1.186560
H139	H	0.685678	-0.000082	-0.067587
H140	H	1.019012	0.333251	0.265747
H141	H	1.352345	0.666585	0.599080
H142	H	1.495357	-0.000198	0.718961
H143	H	1.828690	0.333135	1.052294
H144	H	2.162023	0.666469	1.385627
H145	H	1.359436	0.108646	0.772372
H146	H	1.692769	0.441979	1.105705
H147	H	2.026102	0.775313	1.439038
H148	H	1.331399	-0.108976	0.374236
H149	H	1.664733	0.224358	0.707569
H150	H	1.998066	0.557691	1.040902
F151	F	1.190780	0.123689	0.634083
F152	F	1.524114	0.457022	0.967416
F153	F	1.857447	0.790356	1.300750
F154	F	0.914655	-0.000065	0.430368
F155	F	1.247988	0.333268	0.763701
F156	F	1.581322	0.666601	1.097034
H157	H	0.849628	0.108722	0.277138
H158	H	1.182961	0.442055	0.610471
H159	H	1.516294	0.775388	0.943805
H160	H	0.699680	0.108707	0.131506
H161	H	1.033013	0.442040	0.464840
H162	H	1.366346	0.775373	0.798173
F163	F	0.819682	-0.123888	-0.148435
F164	F	1.153015	0.209446	0.184898
F165	F	1.486349	0.542779	0.518231
H166	H	0.971564	-0.108874	0.024616
H167	H	1.304897	0.224459	0.357950
H168	H	1.638231	0.557792	0.691283
