data_functionalizedCrystal
_audit_creation_method	'MofGen! by Chris Wilmer'
_symmetry_space_group_name_H-M	'P1'
_symmetry_Int_Tables_number	1
_symmetry_cell_setting	triclinic
loop_
_symmetry_equiv_pos_as_xyz
  x,y,z
_cell_length_a	17.641144
_cell_length_b	17.639664
_cell_length_c	17.637815
_cell_angle_alpha	109.602254
_cell_angle_beta	65.718816
_cell_angle_gamma	92.110848
loop_
_atom_site_label
_atom_site_type_symbol
_atom_site_fract_x
_atom_site_fract_y
_atom_site_fract_z
Zn1	Zn	-0.121479	-1.185950	0.232153
Zn2	Zn	0.378521	-0.685950	0.732153
Zn3	Zn	-0.220168	-1.230306	0.111011
Zn4	Zn	0.279832	-0.730306	0.611011
Zn5	Zn	-0.121531	-1.076030	0.122192
Zn6	Zn	0.378469	-0.576030	0.622192
Zn7	Zn	-0.287100	-1.075936	0.287837
Zn8	Zn	0.212900	-0.575936	0.787837
O9	O	-0.187569	-1.142055	0.188298
O10	O	0.312431	-0.642055	0.688298
O11	O	-0.106538	-1.302441	0.188100
O12	O	0.393462	-0.802441	0.688100
O13	O	-0.179095	-1.228443	-0.007527
O14	O	0.320905	-0.728443	0.492473
O15	O	-0.010931	-1.072087	0.118154
O16	O	0.489069	-0.572087	0.618154
O17	O	-0.179044	-1.335028	0.099097
O18	O	0.320956	-0.835028	0.599097
O19	O	-0.010893	-1.152845	0.198941
O20	O	0.489107	-0.652845	0.698941
O21	O	-0.106626	-1.115097	0.000687
O22	O	0.393374	-0.615097	0.500687
O23	O	-0.171526	-0.965411	0.172148
O24	O	0.328474	-0.465411	0.672148
O25	O	-0.293119	-1.071928	0.400471
O26	O	0.206881	-0.571928	0.900471
O27	O	-0.293169	-0.965342	0.293847
O28	O	0.206831	-0.465342	0.793847
O29	O	-0.171438	-1.152755	0.359561
O30	O	0.328562	-0.652755	0.859561
O31	O	-0.339640	-1.228352	0.153092
O32	O	0.160360	-0.728352	0.653092
O33	O	-0.388814	-1.114937	0.283005
O34	O	0.111186	-0.614937	0.783005
C35	C	-0.239617	-0.936698	0.240254
C36	C	0.260383	-0.436698	0.740254
C37	C	-0.261907	-0.848845	0.262504
C38	C	0.238093	-0.348845	0.762504
C39	C	-0.356703	-0.725031	0.357145
C40	C	0.143297	-0.225031	0.857145
C41	C	-0.335751	-0.807582	0.336229
C42	C	0.164249	-0.307582	0.836229
C43	C	-0.208983	-0.807564	0.209668
C44	C	0.291017	-0.307564	0.709668
C45	C	-0.229922	-0.725010	0.230575
C46	C	0.270078	-0.225010	0.730575
C47	C	-0.303784	-0.683750	0.304314
C48	C	0.196216	-0.183750	0.804314
C49	C	-0.177003	-0.683730	0.177744
C50	C	0.322997	-0.183730	0.677744
C51	C	-0.197943	-0.601184	0.198647
C52	C	0.302057	-0.101184	0.698647
C53	C	-0.271803	-0.559919	0.272381
C54	C	0.228197	-0.059919	0.772381
C55	C	-0.324724	-0.601205	0.325217
C56	C	0.175276	-0.101205	0.825217
C57	C	-0.103145	-0.724993	0.104002
C58	C	0.396855	-0.224993	0.604002
C59	C	-0.050226	-0.683712	0.051171
C60	C	0.449774	-0.183712	0.551171
C61	C	-0.071163	-0.601164	0.072078
C62	C	0.428837	-0.101164	0.572078
C63	C	-0.145022	-0.559898	0.145812
C64	C	0.354978	-0.059898	0.645812
C65	C	-0.018241	-0.559878	0.019242
C66	C	0.481759	-0.059878	0.519242
C67	C	-0.039182	-0.477332	0.040145
C68	C	0.460818	0.022668	0.540145
C69	C	-0.165962	-0.477353	0.166715
C70	C	0.334038	0.022647	0.666715
C71	C	-0.392902	-1.176466	0.222891
C72	C	0.107098	-0.676466	0.722891
C73	C	-0.480732	-1.191255	0.237700
C74	C	0.019268	-0.691255	0.737700
C75	C	-0.769870	-1.029975	0.075827
C76	C	-0.269870	-0.529975	0.575827
C77	C	-0.852397	-1.043884	0.089741
C78	C	-0.352397	-0.543884	0.589741
C79	C	-0.852271	-1.127855	0.173949
C80	C	-0.352271	-0.627855	0.673949
C81	C	-0.769744	-1.113949	0.160045
C82	C	-0.269744	-0.613949	0.660045
C83	C	-0.728549	-1.065010	0.110983
C84	C	-0.228549	-0.565010	0.610983
C85	C	-0.728423	-1.148984	0.195201
C86	C	-0.228423	-0.648984	0.695201
C87	C	-0.645901	-1.135083	0.181295
C88	C	-0.145901	-0.635083	0.681295
C89	C	-0.604700	-1.086147	0.132232
C90	C	-0.104700	-0.586147	0.632232
C91	C	-0.646027	-1.051109	0.097076
C92	C	-0.146027	-0.551109	0.597076
C93	C	-0.769617	-1.197928	0.244258
C94	C	-0.269617	-0.697928	0.744258
C95	C	-0.728296	-1.232962	0.279414
C96	C	-0.228296	-0.732962	0.779414
C97	C	-0.645775	-1.219057	0.265513
C98	C	-0.145775	-0.719057	0.765513
C99	C	-0.604574	-1.170122	0.216451
C100	C	-0.104574	-0.670122	0.716451
C101	C	-0.604448	-1.254096	0.300669
C102	C	-0.104448	-0.754096	0.800669
C103	C	-0.521926	-1.240195	0.286763
C104	C	-0.021926	-0.740195	0.786763
C105	C	-0.522052	-1.156221	0.202544
C106	C	-0.022052	-0.656221	0.702544
C107	C	0.018566	-1.107529	0.153583
C108	C	0.518566	-0.607529	0.653583
C109	C	0.106408	-1.092816	0.138790
C110	C	0.606408	-0.592816	0.638790
C111	C	-0.239739	-1.107383	0.412006
C112	C	0.260261	-0.607383	0.912006
C113	C	-0.261970	-1.092608	0.507338
C114	C	0.238030	-0.592608	1.007338
C115	C	-0.135317	-0.348216	0.136133
C116	C	0.364683	0.151784	0.636133
C117	C	-0.113043	-0.436072	0.113884
C118	C	0.386957	0.063928	0.613884
C119	C	-0.135534	-1.176629	-0.034561
C120	C	0.364466	-0.676629	0.465439
C121	C	-0.113041	-1.191520	-0.129968
C122	C	0.386959	-0.691520	0.370032
C123	C	-0.018345	-1.254425	0.714373
C124	C	0.481655	-0.754425	1.214373
C125	C	-0.039255	-1.240536	0.803957
C126	C	0.460745	-0.740536	1.303957
C127	C	-0.165950	-1.156378	0.846543
C128	C	0.334050	-0.656378	1.346543
C129	C	-0.145053	-1.170264	0.756961
C130	C	0.354947	-0.670264	1.256961
C131	C	-0.071249	-1.219287	0.690883
C132	C	0.428751	-0.719287	1.190883
C133	C	-0.197957	-1.135125	0.733471
C134	C	0.302043	-0.635125	1.233471
C135	C	-0.177059	-1.149007	0.643897
C136	C	0.322941	-0.649007	1.143897
C137	C	-0.103256	-1.198026	0.577814
C138	C	0.396744	-0.698026	1.077814
C139	C	-0.050350	-1.233169	0.601309
C140	C	0.449650	-0.733169	1.101309
C141	C	-0.271758	-1.086097	0.799551
C142	C	0.228242	-0.586097	1.299551
C143	C	-0.324661	-1.050959	0.776061
C144	C	0.175339	-0.550959	1.276061
C145	C	-0.303767	-1.064845	0.686485
C146	C	0.196233	-0.564845	1.186485
C147	C	-0.229965	-1.113864	0.620402
C148	C	0.270035	-0.613864	1.120402
C149	C	-0.356673	-1.029702	0.662990
C150	C	0.143327	-0.529702	1.162990
C151	C	-0.335775	-1.043584	0.573416
C152	C	0.164225	-0.543584	1.073416
C153	C	-0.209066	-1.127746	0.530828
C154	C	0.290934	-0.627746	1.030828
H155	H	0.009911	-0.717318	-0.008869
H156	H	0.509911	-0.217318	0.491131
O157	O	0.017815	-1.278411	0.829310
O158	O	0.517815	-0.778411	1.329310
H159	H	-0.016875	-1.318217	0.865915
H160	H	0.483125	-0.818217	1.365915
H161	H	-0.537504	-1.074834	0.120907
H162	H	-0.037504	-0.574834	0.620907
O163	O	-0.392829	-1.005683	0.548071
O164	O	0.107171	-0.505683	1.048071
H165	H	-0.455428	-1.026969	0.572260
H166	H	0.044572	-0.526969	1.072260
O167	O	-0.245549	-1.103500	0.917813
O168	O	0.254451	-0.603500	1.417813
H169	H	-0.251196	-1.099751	0.984047
H170	H	0.248804	-0.599751	1.484047
O171	O	-0.392814	-0.852116	0.393218
O172	O	0.107186	-0.352116	0.893218
H173	H	-0.455387	-0.848971	0.392868
H174	H	0.044613	-0.348971	0.892868
O175	O	0.029252	-1.286052	0.530035
O176	O	0.529252	-0.786052	1.030035
H177	H	0.013586	-1.338516	0.485012
H178	H	0.513586	-0.838516	0.985012
H179	H	-0.384864	-0.567606	0.385270
H180	H	0.115136	-0.067606	0.885270
O181	O	-0.896967	-1.006107	0.051811
O182	O	-0.396967	-0.506107	0.551811
H183	H	-0.953743	-0.966264	0.106677
H184	H	-0.453743	-0.466264	0.606677
H185	H	-0.885822	-1.167704	0.213892
H186	H	-0.385822	-0.667704	0.713892
H187	H	-0.488513	-1.116362	0.162601
H188	H	0.011487	-0.616362	0.662601
O189	O	-0.858615	-1.212969	0.259263
O190	O	-0.358615	-0.712969	0.759263
H191	H	-0.899611	-1.154361	0.295326
H192	H	-0.399611	-0.654361	0.795326
O193	O	-0.601587	-0.998325	0.044157
O194	O	-0.101587	-0.498325	0.544157
H195	H	-0.636624	-0.936686	0.077183
H196	H	-0.136624	-0.436686	0.577183
O197	O	-0.477349	-1.277981	0.324676
O198	O	0.022651	-0.777981	0.824676
H199	H	-0.512317	-1.256604	0.398090
H200	H	-0.012317	-0.756604	0.898090
O201	O	-0.436265	-0.976817	0.734265
O202	O	0.063735	-0.476817	1.234265
H203	H	-0.477034	-1.012598	0.772897
H204	H	0.022966	-0.512598	1.272897
O205	O	-0.725427	-0.977190	0.022910
O206	O	-0.225427	-0.477190	0.522910
H207	H	-0.768021	-0.955163	0.000795
H208	H	-0.268021	-0.455163	0.500795
H209	H	-0.226102	-0.443754	0.226768
H210	H	0.273898	0.056246	0.726768
H211	H	0.041892	-0.593486	-0.040801
H212	H	0.541892	-0.093486	0.459199
O213	O	-0.772738	-1.285734	0.332341
O214	O	-0.272738	-0.785734	0.832341
H215	H	-0.791173	-1.338249	0.290148
H216	H	-0.291173	-0.838249	0.790148
O217	O	-0.294416	-0.470889	0.294944
O218	O	0.205584	0.029111	0.794944
H219	H	-0.244439	-0.436415	0.307876
H220	H	0.255561	0.063585	0.807876
H221	H	-0.416843	-0.691432	0.417197
H222	H	0.083157	-0.191432	0.917197
O223	O	-0.129324	-0.852069	0.130133
O224	O	0.370676	-0.352069	0.630133
H225	H	-0.074796	-0.823532	0.138520
H226	H	0.425204	-0.323532	0.638520
O227	O	-0.648883	-1.306875	0.353589
O228	O	-0.148883	-0.806875	0.853589
H229	H	-0.713209	-1.310652	0.357357
H230	H	-0.213209	-0.810652	0.857357
H231	H	-0.384752	-1.011042	0.829873
H232	H	0.115248	-0.511042	1.329873
H233	H	-0.086243	-1.209328	0.504878
H234	H	0.413757	-0.709328	1.004878
O235	O	-0.080559	-0.814027	0.081448
O236	O	0.419441	-0.314027	0.581448
H237	H	-0.019515	-0.823104	0.083325
H238	H	0.480485	-0.323104	0.583325
H239	H	-0.288765	-1.074788	0.872487
H240	H	0.211235	-0.574788	1.372487
O241	O	0.017894	-0.432797	-0.016827
O242	O	0.517894	0.067203	0.483173
H243	H	0.072777	-0.475353	-0.071608
H244	H	0.572777	0.024647	0.428392
O245	O	-0.129468	-1.180628	0.459543
O246	O	0.370532	-0.680628	0.959543
H247	H	-0.074884	-1.154020	0.469715
H248	H	0.425116	-0.654020	0.969715
H249	H	0.041752	-1.294350	0.660567
H250	H	0.541752	-0.794350	1.160567
