data_functionalizedCrystal
_audit_creation_method	'MofGen! by Chris Wilmer'
_symmetry_space_group_name_H-M	'P1'
_symmetry_Int_Tables_number	1
_symmetry_cell_setting	triclinic
loop_
_symmetry_equiv_pos_as_xyz
  x,y,z
_cell_length_a	19.077105
_cell_length_b	14.908520
_cell_length_c	19.076919
_cell_angle_alpha	95.429006
_cell_angle_beta	90.076224
_cell_angle_gamma	91.150228
loop_
_atom_site_label
_atom_site_type_symbol
_atom_site_fract_x
_atom_site_fract_y
_atom_site_fract_z
Zn1	Zn	1.037881	-0.436364	-0.459234
Zn2	Zn	1.035744	-0.581390	-0.347980
Zn3	Zn	0.925663	-0.424281	-0.336506
Zn4	Zn	0.913591	-0.580846	-0.460710
O5	O	0.978220	-0.505720	-0.401107
O6	O	1.135682	-0.460886	-0.448660
O7	O	1.025299	-0.555720	-0.247919
O8	O	0.946495	-0.299666	-0.347366
O9	O	1.134112	-0.567437	-0.366923
O10	O	1.028941	-0.308543	-0.437534
O11	O	0.944423	-0.440292	-0.239489
O12	O	0.825977	-0.439765	-0.348797
O13	O	0.925920	-0.566510	-0.559053
O14	O	0.817107	-0.554793	-0.440049
O15	O	1.017235	-0.460359	-0.557969
O16	O	1.013594	-0.707536	-0.368354
O17	O	0.923848	-0.707136	-0.451175
C18	C	0.796110	-0.495910	-0.393339
C19	C	0.718201	-0.491735	-0.390033
C20	C	0.967198	-0.740065	-0.411186
C21	C	0.962545	-0.840323	-0.415524
C22	C	0.676998	-0.549746	-0.435923
C23	C	0.603795	-0.545812	-0.432820
C24	C	0.571795	-0.483870	-0.383823
C25	C	0.613003	-0.425853	-0.337931
C26	C	0.686205	-0.429783	-0.341038
C27	C	0.353358	-0.465680	-0.369446
C28	C	0.280150	-0.461756	-0.366341
C29	C	0.270947	-0.581715	-0.461231
C30	C	0.344151	-0.585643	-0.464331
C31	C	0.385353	-0.527623	-0.418441
N32	N	0.496969	-0.479850	-0.380648
N33	N	0.460177	-0.531640	-0.421620
C34	C	1.047344	-1.029082	-0.337510
C35	C	1.042976	-1.123283	-0.341584
C36	C	0.949443	-1.122929	-0.427749
C37	C	0.953812	-1.028727	-0.423675
C38	C	1.002763	-0.981807	-0.378553
C39	C	1.007128	-0.887604	-0.374476
C40	C	0.913600	-0.887251	-0.460644
C41	C	0.909231	-0.981453	-0.464718
C42	C	1.161040	-0.515570	-0.408907
C43	C	1.238948	-0.519767	-0.412230
C44	C	0.970470	-0.514721	-0.584776
C45	C	0.967167	-0.518557	-0.663044
C46	C	0.989303	-0.270463	-0.391006
C47	C	0.994026	-0.170210	-0.386701
C48	C	1.013156	-0.465095	-0.699251
C49	C	1.010044	-0.468695	-0.772793
C50	C	0.960947	-0.525763	-0.810125
C51	C	0.914953	-0.579227	-0.773913
C52	C	0.918062	-0.575622	-0.700373
C53	C	0.946548	-0.542468	-1.030127
C54	C	0.943444	-0.546071	-1.103672
C55	C	1.038535	-0.435537	-1.102547
C56	C	1.041642	-0.431941	-1.029006
C57	C	0.995646	-0.485402	-0.992799
N58	N	0.957767	-0.529446	-0.885296
N59	N	0.998824	-0.481713	-0.917629
C60	C	0.985983	-0.496691	-0.218153
C61	C	0.989433	-0.492609	-0.139879
H62	H	0.703047	-0.600189	-0.475819
C63	C	0.820699	-0.896367	-0.546219
C64	C	0.864587	-0.835286	-0.505760
H65	H	0.790437	-0.864283	-0.574063
H66	H	0.848374	-0.936016	-0.576073
H67	H	0.793511	-0.930215	-0.515955
H68	H	0.891779	-0.801441	-0.536024
H69	H	0.836909	-0.795621	-0.475902
C70	C	0.901223	-1.267181	-0.472248
C71	C	0.895639	-1.174515	-0.477342
H72	H	0.868002	-1.299025	-0.502862
H73	H	0.947154	-1.285589	-0.485271
H74	H	0.892288	-1.279773	-0.425156
H75	H	0.904579	-1.161921	-0.524433
H76	H	0.849697	-1.156100	-0.464323
C77	C	1.106830	-0.356192	-0.705533
C78	C	1.067125	-0.402360	-0.658219
H79	H	1.140144	-0.317456	-0.680200
H80	H	1.130577	-0.398340	-0.737046
H81	H	1.076695	-0.321456	-0.731432
H82	H	1.097259	-0.437102	-0.632323
H83	H	1.043376	-0.360207	-0.626693
H84	H	1.087198	-0.990878	-0.300765
C85	C	1.021998	-0.351929	-0.850681
C86	C	1.060594	-0.409915	-0.812584
H87	H	1.053207	-0.315631	-0.875240
H88	H	0.992324	-0.386429	-0.883442
H89	H	0.994297	-0.314391	-0.819193
H90	H	1.088292	-0.447458	-0.844072
H91	H	1.090281	-0.375412	-0.779820
H92	H	0.586943	-0.375415	-0.298039
C93	C	1.135317	-0.323034	-1.035282
C94	C	1.095608	-0.369204	-0.987971
H95	H	1.168631	-0.284302	-1.009947
H96	H	1.159064	-0.365182	-1.066796
H97	H	1.105184	-0.288295	-1.061181
H98	H	1.125741	-0.403948	-0.962076
H99	H	1.071860	-0.327051	-0.956445
C100	C	0.849751	-0.654962	-1.097401
C101	C	0.889469	-0.608801	-1.144710
H102	H	0.816430	-0.693683	-1.122737
H103	H	0.879871	-0.689704	-1.071503
H104	H	0.826005	-0.612802	-1.065885
H105	H	0.913219	-0.650962	-1.176222
H106	H	0.859344	-0.574057	-1.170620
C107	C	0.239796	-0.734975	-0.500961
C108	C	0.225659	-0.645479	-0.511679
H109	H	0.211834	-0.774338	-0.532107
H110	H	0.287966	-0.746172	-0.509822
H111	H	0.229162	-0.745112	-0.453686
H112	H	0.236298	-0.635340	-0.558953
H113	H	0.177477	-0.634278	-0.502823
C114	C	0.359607	-0.636865	-0.586373
C115	C	0.379321	-0.653729	-0.518194
H116	H	0.381322	-0.678898	-0.619624
H117	H	0.310119	-0.642827	-0.591084
H118	H	0.374021	-0.577434	-0.594651
H119	H	0.364901	-0.713157	-0.509914
H120	H	0.428819	-0.647774	-0.513481
C121	C	0.574188	-0.594651	-0.552942
C122	C	0.558511	-0.609594	-0.483258
H123	H	0.546235	-0.634037	-0.584080
H124	H	0.564593	-0.533947	-0.560216
H125	H	0.622367	-0.605852	-0.561790
H126	H	0.510332	-0.598386	-0.474408
H127	H	0.568100	-0.670313	-0.475981
H128	H	0.254099	-0.411305	-0.326445
H129	H	1.075982	-0.392011	-1.132034
C130	C	0.934570	-0.659220	-0.952228
C131	C	0.895988	-0.601238	-0.990342
H132	H	0.903352	-0.695500	-0.927664
H133	H	0.962268	-0.696768	-0.983700
H134	H	0.964246	-0.624712	-0.919464
H135	H	0.866315	-0.635747	-1.023110
H136	H	0.868278	-0.563686	-0.958867
C137	C	1.106744	-0.786155	-0.364211
C138	C	1.060934	-0.836024	-0.324881
H139	H	1.139960	-0.754311	-0.333592
H140	H	1.130528	-0.825804	-0.397640
H141	H	1.080811	-0.744518	-0.388067
H142	H	1.086868	-0.877667	-0.301029
H143	H	1.037149	-0.796371	-0.291440
H144	H	0.719751	-0.382540	-0.303673
H145	H	0.869378	-1.019668	-0.501457
H146	H	0.386895	-0.418442	-0.332074
C147	C	0.821271	-0.688119	-0.767633
C148	C	0.860982	-0.641958	-0.814946
H149	H	0.787950	-0.726844	-0.792965
H150	H	0.851396	-0.722857	-0.741736
H151	H	0.797525	-0.645960	-0.736116
H152	H	0.884732	-0.684117	-0.846460
H153	H	0.830853	-0.607218	-0.840855
C154	C	1.135862	-1.114167	-0.256001
C155	C	1.091977	-1.175248	-0.296464
H156	H	1.166111	-1.146249	-0.228143
H157	H	1.163056	-1.080329	-0.286257
H158	H	1.108178	-1.074506	-0.226152
H159	H	1.119661	-1.214905	-0.326317
H160	H	1.064780	-1.209101	-0.266205
C161	C	0.906114	-0.692359	-0.622453
C162	C	0.867516	-0.634390	-0.660564
H163	H	0.874906	-0.728634	-0.597873
H164	H	0.933805	-0.729912	-0.653929
H165	H	0.935799	-0.657840	-0.589703
H166	H	0.837835	-0.668909	-0.693318
H167	H	0.839813	-0.596833	-0.629085
