data_functionalizedCrystal
_audit_creation_method	'MofGen! by Chris Wilmer'
_symmetry_space_group_name_H-M	'P1'
_symmetry_Int_Tables_number	1
_symmetry_cell_setting	triclinic
loop_
_symmetry_equiv_pos_as_xyz
  x,y,z
_cell_length_a	9.130313
_cell_length_b	10.654550
_cell_length_c	10.654550
_cell_angle_alpha	95.515069
_cell_angle_beta	89.995631
_cell_angle_gamma	90.000276
loop_
_atom_site_label
_atom_site_type_symbol
_atom_site_fract_x
_atom_site_fract_y
_atom_site_fract_z
O1	O	-0.121690	-1.667839	0.176399
O2	O	0.378310	-1.167839	0.676399
O3	O	-0.121716	-1.302361	0.193205
O4	O	0.378284	-0.802361	0.693205
O5	O	-0.121693	-1.493503	0.002063
O6	O	0.378307	-0.993503	0.502063
O7	O	-0.121713	-1.476697	0.367541
O8	O	0.378287	-0.976697	0.867541
O9	O	0.121906	-1.493490	0.002057
O10	O	0.621906	-0.993490	0.502057
O11	O	0.121882	-1.302348	0.193199
O12	O	0.621882	-0.802348	0.693199
O13	O	0.121909	-1.667826	0.176393
O14	O	0.621909	-1.167826	0.676393
Cu15	Cu	0.144138	-1.485086	0.184796
Cu16	Cu	0.644138	-0.985086	0.684796
Cu17	Cu	-0.143946	-1.485101	0.184802
Cu18	Cu	0.356054	-0.985101	0.684802
O19	O	0.121886	-1.476684	0.367535
O20	O	0.621886	-0.976684	0.867535
C21	C	0.000080	-1.255556	0.191968
C22	C	0.500080	-0.755556	0.691968
C23	C	0.000070	-1.116113	0.188276
C24	C	0.500070	-0.616113	0.688276
C25	C	0.000105	-1.492263	-0.044738
C26	C	0.500105	-0.992263	0.455262
C27	C	0.000103	-1.488571	-0.184181
C28	C	0.500103	-0.988571	0.315819
N29	N	0.346761	-1.485084	0.184790
N30	N	0.846761	-0.985084	0.684790
N31	N	-0.346568	-1.485113	0.184798
N32	N	0.153432	-0.985113	0.684798
C33	C	0.423423	-1.569751	0.100188
C34	C	0.923423	-1.069751	0.600188
C35	C	0.576760	-1.569763	0.100189
C36	C	1.076760	-1.069763	0.600189
C37	C	0.576759	-1.400437	0.269404
C38	C	1.076759	-0.900437	0.769404
C39	C	0.423425	-1.400420	0.269396
C40	C	0.923425	-0.900420	0.769396
C41	C	0.000110	-1.714631	0.177630
C42	C	0.500110	-1.214631	0.677630
C43	C	0.000110	-1.854074	0.181322
C44	C	0.500110	-1.354074	0.681322
C45	C	0.000068	-1.036628	0.300818
C46	C	0.500068	-0.536628	0.800818
C47	C	0.000093	-0.905607	0.297341
C48	C	0.500093	-0.405607	0.797341
C49	C	0.000117	-0.933570	0.068772
C50	C	0.500117	-0.433570	0.568772
C51	C	0.000101	-1.064588	0.072250
C52	C	0.500101	-0.564588	0.572250
C53	C	0.000111	-1.601112	-0.263667
C54	C	0.500111	-1.101112	0.236333
C55	C	0.000092	-1.597636	-0.394688
C56	C	0.500092	-1.097636	0.105312
C57	C	0.000065	-1.369066	-0.366725
C58	C	0.500065	-0.869066	0.133275
C59	C	0.000073	-1.372544	-0.235706
C60	C	0.500073	-0.872544	0.264294
C61	C	0.000084	-1.477925	0.414336
C62	C	0.500084	-0.977925	0.914336
C63	C	0.000077	-1.481616	0.553779
C64	C	0.500077	-0.981616	1.053779
H65	H	0.361007	-1.638687	0.031295
H66	H	0.861007	-1.138687	0.531295
H67	H	0.361002	-1.331468	0.338290
H68	H	0.861002	-0.831468	0.838290
H69	H	0.000095	-0.840894	0.388984
H70	H	0.500095	-0.340894	0.888984
F71	F	0.000144	-0.878722	-0.054705
F72	F	0.500144	-0.378722	0.445295
F73	F	0.000141	-1.724598	-0.208835
F74	F	0.500141	-1.224598	0.291165
H75	H	0.639174	-1.638704	0.031297
H76	H	1.139174	-1.138704	0.531297
H77	H	0.000053	-1.078574	0.395294
H78	H	0.500053	-0.578574	0.895294
H79	H	0.000043	-1.274601	-0.408693
H80	H	0.500043	-0.774601	0.091307
H81	H	0.000107	-1.129309	-0.019401
H82	H	0.500107	-0.629309	0.480599
H83	H	0.000062	-1.280893	-0.170985
H84	H	0.500062	-0.780893	0.329015
F85	F	0.658360	-1.310339	0.359447
F86	F	1.158360	-0.810339	0.859447
F87	F	0.000098	-1.717418	-0.479278
F88	F	0.500098	-1.217418	0.020722
