data_functionalizedCrystal
_audit_creation_method	'MofGen! by Chris Wilmer'
_symmetry_space_group_name_H-M	'P1'
_symmetry_Int_Tables_number	1
_symmetry_cell_setting	triclinic
loop_
_symmetry_equiv_pos_as_xyz
  x,y,z
_cell_length_a	10.489716
_cell_length_b	8.965430
_cell_length_c	14.044209
_cell_angle_alpha	89.997762
_cell_angle_beta	91.141456
_cell_angle_gamma	90.003477
loop_
_atom_site_label
_atom_site_type_symbol
_atom_site_fract_x
_atom_site_fract_y
_atom_site_fract_z
O1	O	1.707633	0.124038	-0.133717
O2	O	1.337709	0.124045	-0.146304
O3	O	1.517120	0.124020	-0.001988
O4	O	1.528222	0.124063	-0.278033
O5	O	1.517104	-0.124058	-0.001998
O6	O	1.337694	-0.124034	-0.146313
O7	O	1.707617	-0.124041	-0.133727
Cu8	Cu	1.522654	-0.146689	-0.140021
Cu9	Cu	1.522672	0.146693	-0.140010
O10	O	1.528207	-0.124016	-0.278042
C11	C	1.290074	0.000006	-0.145363
C12	C	1.148156	0.000008	-0.142534
C13	C	1.059457	0.000025	-0.231032
C14	C	0.977361	-0.122305	-0.184273
C15	C	0.977380	0.122281	-0.184242
C16	C	1.067929	-0.122423	-0.095811
C17	C	1.067955	0.122273	-0.095793
C18	C	0.985901	-0.000086	-0.048968
N19	N	1.522650	-0.353038	-0.140028
C20	C	1.439649	-0.450333	-0.206747
C21	C	1.557093	-0.549745	-0.225934
C22	C	1.405256	-0.549753	-0.120850
C23	C	1.640157	-0.450261	-0.159258
C24	C	1.488241	-0.450261	-0.054136
C25	C	1.605764	-0.549628	-0.073287
C26	C	1.755253	0.000002	-0.134668
C27	C	1.897171	0.000010	-0.137497
C28	C	1.512251	-0.000021	0.033354
C29	C	1.497753	-0.000028	0.138678
N30	N	1.522685	0.353042	-0.139995
C31	C	1.471246	-0.000015	0.331519
C32	C	1.574085	-0.000015	0.388457
C33	C	1.559337	-0.000008	0.495760
C34	C	1.485993	-0.000022	0.224206
C35	C	1.533078	0.000017	0.686615
C36	C	1.547584	-0.000002	0.581292
H37	H	0.937661	-0.225712	-0.221636
C38	C	1.121304	-0.262282	-0.045383
H39	H	1.052793	-0.320622	-0.022489
H40	H	1.168994	-0.319450	-0.089109
H41	H	1.175041	-0.233049	0.006575
H42	H	1.673205	0.000085	0.356616
C43	C	1.700705	-0.608164	0.002962
H44	H	1.656415	-0.666491	0.048085
H45	H	1.763510	-0.667820	-0.026514
H46	H	1.740749	-0.526282	0.034367
C47	C	1.596434	-0.608801	-0.324034
H48	H	1.537362	-0.574816	-0.371382
H49	H	1.679271	-0.573279	-0.338111
H50	H	1.596908	-0.714753	-0.323133
H51	H	0.953658	-0.000169	0.028069
C52	C	1.337353	-0.000027	0.374527
H53	H	1.344883	-0.000038	0.442051
H54	H	1.292283	0.086476	0.354040
H55	H	1.292298	-0.086556	0.354044
C56	C	1.121636	0.261964	-0.045363
H57	H	1.174742	0.232584	0.006920
H58	H	1.170043	0.318567	-0.088947
H59	H	1.053232	0.320921	-0.022938
C60	C	0.923784	0.261985	-0.234720
H61	H	0.948844	0.261836	-0.299353
H62	H	0.833370	0.261471	-0.232036
H63	H	0.956103	0.348839	-0.203923
C64	C	1.344936	-0.391413	-0.283034
H65	H	1.369611	-0.425477	-0.344013
H66	H	1.261761	-0.426936	-0.270023
H67	H	1.345032	-0.285459	-0.282139
C68	C	1.774332	-0.391484	-0.181280
H69	H	1.773489	-0.285522	-0.181193
H70	H	1.833367	-0.426273	-0.134161
H71	H	1.798903	-0.426376	-0.242092
C72	C	1.448847	-0.391165	0.043935
H73	H	1.365358	-0.425168	0.057455
H74	H	1.506967	-0.426639	0.091474
H75	H	1.449881	-0.285213	0.043372
H76	H	1.091933	-0.000078	-0.308013
H77	H	1.305964	-0.593459	-0.104643
