data_functionalizedCrystal
_audit_creation_method	'MofGen! by Chris Wilmer'
_symmetry_space_group_name_H-M	'P1'
_symmetry_Int_Tables_number	1
_symmetry_cell_setting	triclinic
loop_
_symmetry_equiv_pos_as_xyz
  x,y,z
_cell_length_a	21.295417
_cell_length_b	16.625547
_cell_length_c	16.625539
_cell_angle_alpha	90.023545
_cell_angle_beta	89.968491
_cell_angle_gamma	89.970308
loop_
_atom_site_label
_atom_site_type_symbol
_atom_site_fract_x
_atom_site_fract_y
_atom_site_fract_z
Zn1	Zn	-0.250633	-1.232608	-0.456021
Zn2	Zn	0.249367	-0.732608	0.043979
Zn3	Zn	-0.355903	-1.232500	-0.321176
Zn4	Zn	0.144097	-0.732500	0.178824
Zn5	Zn	-0.250650	-1.097778	-0.321186
Zn6	Zn	0.249350	-0.597778	0.178814
Zn7	Zn	-0.355867	-1.097721	-0.455950
Zn8	Zn	0.144133	-0.597721	0.044050
O9	O	-0.303264	-1.165151	-0.388583
O10	O	0.196736	-0.665151	0.111417
O11	O	-0.264606	-1.345426	-0.438158
O12	O	0.235394	-0.845426	0.061842
O13	O	-0.341964	-1.214608	-0.208345
O14	O	0.158036	-0.714608	0.291655
O15	O	-0.162559	-1.115732	-0.339105
O16	O	0.337441	-0.615732	0.160895
O17	O	-0.341947	-1.345347	-0.339088
O18	O	0.158053	-0.845347	0.160912
O19	O	-0.162546	-1.214791	-0.438168
O20	O	0.337454	-0.714791	0.061832
O21	O	-0.264635	-1.115628	-0.208352
O22	O	0.235365	-0.615628	0.291648
O23	O	-0.264600	-0.984938	-0.339037
O24	O	0.235400	-0.484938	0.160963
O25	O	-0.341885	-1.115635	-0.568792
O26	O	0.158115	-0.615635	-0.068792
O27	O	-0.341902	-0.984896	-0.438048
O28	O	0.158098	-0.484896	0.061952
O29	O	-0.264570	-1.214736	-0.568844
O30	O	0.235430	-0.714736	-0.068844
O31	O	-0.443988	-1.214553	-0.339020
O32	O	0.056012	-0.714553	0.160980
O33	O	-0.443961	-1.115531	-0.438039
O34	O	0.056039	-0.615531	0.061961
C35	C	-0.303249	-0.955661	-0.388537
C36	C	0.196751	-0.455661	0.111463
C37	C	-0.303258	-0.866040	-0.388536
C38	C	0.196742	-0.366040	0.111464
C39	C	-0.303259	-0.793257	-0.388543
C40	C	0.196741	-0.293257	0.111457
C41	C	-0.303261	-0.701949	-0.388560
C42	C	0.196739	-0.201949	0.111440
C43	C	-0.303266	-0.629172	-0.388578
C44	C	0.196734	-0.129172	0.111422
C45	C	-0.303269	-0.537858	-0.388593
C46	C	0.196731	-0.037858	0.111407
C47	C	-0.466815	-1.165046	-0.388538
C48	C	0.033185	-0.665046	0.111462
C49	C	-0.536783	-1.165074	-0.388546
C50	C	-0.036783	-0.665074	0.111454
C51	C	-0.569643	-1.216681	-0.337040
C52	C	-0.069643	-0.716681	0.162960
C53	C	-0.635385	-1.216719	-0.337058
C54	C	-0.135385	-0.716719	0.162942
C55	C	-0.668266	-1.165136	-0.388574
C56	C	-0.168266	-0.665136	0.111426
C57	C	-0.635398	-1.113525	-0.440090
C58	C	-0.135398	-0.613525	0.059910
C59	C	-0.569657	-1.113495	-0.440076
C60	C	-0.069657	-0.613495	0.059924
N61	N	-0.771531	-1.094600	-0.394705
N62	N	-0.271531	-0.594600	0.105295
N63	N	-0.833982	-1.094632	-0.394714
N64	N	-0.333982	-0.594632	0.105286
C65	C	-0.866340	-1.165226	-0.388620
C66	C	-0.366340	-0.665226	0.111380
N67	N	-0.833888	-1.235789	-0.382502
N68	N	-0.333888	-0.735789	0.117498
N69	N	-0.771431	-1.235757	-0.382490
N70	N	-0.271431	-0.735757	0.117510
C71	C	-0.739551	-1.165163	-0.388595
C72	C	-0.239551	-0.665163	0.111405
C73	C	-0.970486	-1.216878	-0.337131
C74	C	-0.470486	-0.716878	0.162869
C75	C	-1.036229	-1.216917	-0.337155
C76	C	-0.536229	-0.716917	0.162845
C77	C	-1.036241	-1.113716	-0.440183
C78	C	-0.536241	-0.613716	0.059817
C79	C	-0.970498	-1.113685	-0.440163
C80	C	-0.470498	-0.613685	0.059837
C81	C	-0.937625	-1.165264	-0.388633
C82	C	-0.437625	-0.665264	0.111367
C83	C	-0.139073	-1.165280	-0.388646
C84	C	0.360927	-0.665280	0.111354
C85	C	-0.069105	-1.165334	-0.388672
C86	C	0.430895	-0.665334	0.111328
C87	C	-0.303222	-1.165191	-0.598892
C88	C	0.196778	-0.665191	-0.098892
C89	C	-0.303204	-1.165208	-0.688513
C90	C	0.196796	-0.665208	-0.188513
C91	C	-0.303276	-0.375460	-0.388620
C92	C	0.196724	0.124540	0.111380
C93	C	-0.303275	-0.465081	-0.388611
C94	C	0.196725	0.034919	0.111389
C95	C	-0.303190	-1.165221	-0.761296
C96	C	0.196810	-0.665221	-0.261296
C97	C	-0.303167	-1.165240	-0.852604
C98	C	0.196833	-0.665240	-0.352604
C99	C	-0.303145	-1.165259	-0.925381
C100	C	0.196855	-0.665259	-0.425381
C101	C	-0.303122	-1.165279	-1.016695
C102	C	0.196878	-0.665279	-0.516695
C103	C	-0.303259	-1.165159	-0.179092
C104	C	0.196741	-0.665159	0.320908
C105	C	-0.303100	-1.165298	-0.089472
C106	C	0.196900	-0.665298	0.410528
H107	H	-0.662145	-1.258746	-0.295116
H108	H	-0.162145	-0.758746	0.204884
H109	H	-0.943742	-1.071658	-0.482101
H110	H	-0.443742	-0.571658	0.017899
N111	N	-0.668992	-1.060833	-0.492699
N112	N	-0.168992	-0.560833	0.007301
N113	N	-0.705726	-1.009488	-0.464281
N114	N	-0.205726	-0.509488	0.035719
H115	H	-0.729453	-0.972273	-0.501440
H116	H	-0.229453	-0.472273	-0.001440
H117	H	-0.542902	-1.071470	-0.482020
H118	H	-0.042902	-0.571470	0.017980
N119	N	-0.936888	-1.269561	-0.284511
N120	N	-0.436888	-0.769561	0.215489
N121	N	-0.900251	-1.241210	-0.233094
N122	N	-0.400251	-0.741210	0.266906
H123	H	-0.876522	-1.278418	-0.195932
H124	H	-0.376522	-0.778418	0.304068
H125	H	-0.542879	-1.258682	-0.295084
H126	H	-0.042879	-0.758682	0.204916
H127	H	-1.062982	-1.258946	-0.295214
H128	H	-0.562982	-0.758946	0.204786
N129	N	-1.069829	-1.061035	-0.492805
N130	N	-0.569829	-0.561035	0.007195
N131	N	-1.128526	-1.061070	-0.492814
N132	N	-0.628526	-0.561070	0.007186
H133	H	-1.152251	-1.023864	-0.529982
H134	H	-0.652251	-0.523864	-0.029982
