data_functionalizedCrystal
_audit_creation_method	'MofGen! by Chris Wilmer'
_symmetry_space_group_name_H-M	'P1'
_symmetry_Int_Tables_number	1
_symmetry_cell_setting	triclinic
loop_
_symmetry_equiv_pos_as_xyz
  x,y,z
_cell_length_a	11.026607
_cell_length_b	14.044220
_cell_length_c	10.065875
_cell_angle_alpha	99.592716
_cell_angle_beta	79.302338
_cell_angle_gamma	100.887447
loop_
_atom_site_label
_atom_site_type_symbol
_atom_site_fract_x
_atom_site_fract_y
_atom_site_fract_z
O1	O	1.670494	0.393284	-0.113515
O2	O	1.312203	0.347236	-0.113514
O3	O	1.485969	0.231359	-0.113501
O4	O	1.496729	0.509161	-0.113528
O5	O	1.452846	0.253569	0.113485
O6	O	1.279081	0.369446	0.113472
O7	O	1.637372	0.415494	0.113471
Zn8	Zn	1.452967	0.395996	0.149510
Zn9	Zn	1.496608	0.366734	-0.149554
O10	O	1.463606	0.531371	0.113458
C11	C	1.249512	0.349846	-0.000021
C12	C	1.112056	0.324521	-0.000020
C13	C	1.045821	0.394445	-0.000028
C14	C	0.903753	0.368273	-0.000027
C15	C	1.464699	0.206346	-0.000008
C16	C	1.450655	0.098724	-0.000006
C17	C	1.424983	-0.098320	-0.000025
C18	C	1.524588	-0.138958	-0.000030
C19	C	1.510304	-0.248600	-0.000041
C20	C	1.439265	0.011332	-0.000015
C21	C	1.700064	0.412884	-0.000025
C22	C	1.837520	0.438207	-0.000035
C23	C	1.484876	0.556383	-0.000039
C24	C	1.498921	0.664004	-0.000049
N25	N	1.423193	0.415967	0.353614
N26	N	1.526391	0.346756	-0.353657
C27	C	1.486240	0.373675	0.421397
C28	C	1.463335	0.389055	0.578563
H29	H	0.885983	0.517454	-0.000034
O30	O	1.378790	0.445964	0.647971
C31	C	1.414634	0.541603	0.613171
H32	H	1.477328	0.539436	0.509378
H33	H	1.327693	0.573014	0.608443
H34	H	1.467864	0.589695	0.693548
H35	H	1.063591	0.245278	-0.000048
O36	O	1.639021	-0.082087	0.000044
C37	C	1.628001	0.016308	0.000021
H38	H	1.527761	0.027575	0.042986
H39	H	1.694462	0.066185	0.065934
H40	H	1.652870	0.034731	-0.108871
H41	H	0.855293	0.289025	-0.000054
H42	H	1.328988	-0.145870	-0.000029
O43	O	1.570726	0.316762	0.351864
C44	C	1.534952	0.221124	0.386679
H45	H	1.430201	0.207739	0.426092
H46	H	1.557387	0.165915	0.292621
H47	H	1.588337	0.212379	0.469473
O48	O	1.338393	0.472616	0.423118
C49	C	1.219291	0.432864	0.388303
H50	H	1.215755	0.351590	0.348936
H51	H	1.144847	0.442643	0.482349
H52	H	1.200962	0.472213	0.305473
O53	O	1.103837	0.488926	-0.000091
C54	C	1.232765	0.494027	-0.000049
H55	H	1.261033	0.419586	-0.043019
H56	H	1.288235	0.551173	-0.065948
H57	H	1.253281	0.515445	0.108849
O58	O	1.610844	0.289751	0.576987
C59	C	1.574863	0.194188	0.612048
H60	H	1.470087	0.180929	0.651351
H61	H	1.597300	0.138854	0.518142
H62	H	1.628107	0.185507	0.694999
