data_functionalizedCrystal
_audit_creation_method	'MofGen! by Chris Wilmer'
_symmetry_space_group_name_H-M	'P1'
_symmetry_Int_Tables_number	1
_symmetry_cell_setting	triclinic
loop_
_symmetry_equiv_pos_as_xyz
  x,y,z
_cell_length_a	16.974800
_cell_length_b	8.597304
_cell_length_c	16.053840
_cell_angle_alpha	85.148073
_cell_angle_beta	96.540747
_cell_angle_gamma	84.857181
loop_
_atom_site_label
_atom_site_type_symbol
_atom_site_fract_x
_atom_site_fract_y
_atom_site_fract_z
O1	O	1.050139	0.198834	-0.012746
O2	O	0.819374	0.222866	-0.030074
O3	O	0.940010	-0.016210	-0.004720
O4	O	0.929503	0.437910	-0.038100
O5	O	0.946031	-0.004464	0.133700
O6	O	0.825396	0.234612	0.108346
O7	O	1.056160	0.210580	0.125674
Zn8	Zn	0.941734	0.224461	0.138987
Zn9	Zn	0.933801	0.208985	-0.043388
O10	O	0.935525	0.449656	0.100320
C11	C	0.792835	0.227610	0.037219
C12	C	0.704787	0.224228	0.031511
C13	C	0.666709	0.229038	0.104284
C14	C	0.583981	0.225836	0.098924
C15	C	0.539331	0.217835	0.020789
C16	C	0.577415	0.213019	-0.051989
C17	C	0.660143	0.216210	-0.046627
C18	C	0.291559	0.207593	-0.003335
C19	C	0.208825	0.204407	-0.008692
C20	C	0.215397	0.217221	0.142222
C21	C	0.298125	0.220421	0.147576
C22	C	0.336203	0.215597	0.074798
N23	N	0.454768	0.214566	0.015309
N24	N	0.420764	0.218855	0.080281
C25	C	0.942228	-0.068457	0.068615
C26	C	0.939856	-0.241633	0.080908
C27	C	1.082699	0.205836	0.058378
C28	C	1.170747	0.209217	0.064081
C29	C	0.933306	0.501902	0.026982
C30	C	0.935678	0.675079	0.014684
N31	N	0.947154	0.235022	0.263453
C32	C	0.975028	0.289553	0.785043
C33	C	0.971241	0.282154	0.697913
C34	C	0.920819	0.183612	0.657890
C35	C	0.874176	0.092474	0.705000
C36	C	0.877960	0.099882	0.792127
C37	C	0.904295	0.151293	0.397690
C38	C	0.900516	0.143888	0.310557
C39	C	0.997580	0.333571	0.303477
C40	C	1.001363	0.340964	0.390607
C41	C	0.954717	0.249832	0.437708
N42	N	0.916948	0.176043	0.568829
N43	N	0.958584	0.257411	0.526766
N44	N	0.928391	0.198419	0.832147
H45	H	0.552983	0.229727	0.158186
H46	H	0.334475	0.226929	0.211201
C47	C	0.942330	-0.323034	0.169120
C48	C	1.012943	-0.296991	0.217725
C49	C	1.015243	-0.371938	0.298989
H50	H	0.940411	-0.432513	0.166070
H51	H	0.897910	-0.282034	0.194331
H52	H	1.057351	-0.337998	0.192520
H53	H	1.014877	-0.187528	0.220799
H54	H	0.970823	-0.330938	0.324201
H55	H	1.013322	-0.481414	0.295931
H56	H	1.063149	-0.354267	0.331980
C57	C	0.845636	0.037109	0.267113
C58	C	0.766841	0.081589	0.279808
C59	C	0.716269	-0.016723	0.239787
H60	H	0.860389	-0.068393	0.289992
H61	H	0.850019	0.045774	0.208466
H62	H	0.762461	0.072910	0.338443
H63	H	0.752063	0.187075	0.256926
H64	H	0.720652	-0.008058	0.181140
H65	H	0.731029	-0.122219	0.262669
H66	H	0.662800	0.013452	0.248388
C67	C	1.029794	0.396699	0.828333
C68	C	1.069809	0.474957	0.768425
C69	C	1.120257	0.573693	0.808267
H70	H	1.067538	0.336005	0.869355
H71	H	0.999120	0.471310	0.854966
H72	H	1.100481	0.400356	0.741806
H73	H	1.032085	0.535681	0.727400
H74	H	1.089583	0.648304	0.834899
H75	H	1.157996	0.512987	0.849288
H76	H	1.147408	0.626814	0.767625
C77	C	0.933156	-0.243427	-0.073507
C78	C	0.862520	-0.269442	-0.122081
C79	C	0.860159	-0.194378	-0.203327
H80	H	0.977541	-0.284327	-0.098786
H81	H	0.935070	-0.133944	-0.070391
H82	H	0.860613	-0.378904	-0.125200
H83	H	0.818122	-0.228538	-0.096829
H84	H	0.862074	-0.084895	-0.200211
H85	H	0.904548	-0.235285	-0.228597
H86	H	0.812231	-0.212007	-0.236292
C87	C	1.021736	0.381319	0.646709
C88	C	0.971966	0.482521	0.585902
C89	C	1.018453	0.573922	0.538726
H90	H	1.056470	0.314865	0.619673
H91	H	1.052288	0.441151	0.682995
H92	H	0.941427	0.422694	0.549621
H93	H	0.937232	0.549007	0.612915
H94	H	1.049005	0.633755	0.575013
H95	H	1.053185	0.507456	0.511696
H96	H	0.984691	0.642608	0.497469
C97	C	0.853763	0.052069	0.448811
C98	C	0.874011	-0.106827	0.440377
C99	C	0.827485	-0.198283	0.487472
H100	H	0.798998	0.079376	0.428850
H101	H	0.863246	0.070491	0.506448
H102	H	0.864522	-0.125240	0.382751
H103	H	0.928768	-0.134182	0.460343
H104	H	0.836967	-0.179860	0.545109
H105	H	0.772722	-0.170962	0.467507
H106	H	0.841222	-0.306104	0.481762
H107	H	0.541055	0.206493	-0.115607
C108	C	0.819378	-0.014270	0.661418
C109	C	0.763953	0.075796	0.600985
C110	C	0.713469	-0.022493	0.560816
H111	H	0.792063	-0.067523	0.701852
H112	H	0.850046	-0.088776	0.634715
H113	H	0.733288	0.150273	0.627688
H114	H	0.791245	0.129046	0.560534
H115	H	0.744138	-0.096998	0.534112
H116	H	0.686161	-0.075740	0.601256
H117	H	0.675863	0.038601	0.519802
H118	H	0.184385	0.221146	0.201473
H119	H	0.172472	0.197896	-0.072322
H120	H	1.042423	0.421205	0.423188
C121	C	0.827223	0.001205	0.843288
C122	C	0.776114	0.099792	0.882894
C123	C	0.729352	0.008950	0.930020
H124	H	0.860774	-0.067560	0.884675
H125	H	0.796607	-0.058512	0.806994
H126	H	0.806728	0.159482	0.919185
H127	H	0.742547	0.168557	0.841528
H128	H	0.698736	-0.050767	0.893726
H129	H	0.762909	-0.059812	0.971401
H130	H	0.694665	0.075827	0.956892
H131	H	1.035555	0.407767	0.265117
H132	H	0.703057	0.235567	0.167908
H133	H	0.322551	0.203660	-0.062596
H134	H	0.691144	0.212296	-0.105887
