data_functionalizedCrystal
_audit_creation_method	'MofGen! by Chris Wilmer'
_symmetry_space_group_name_H-M	'P1'
_symmetry_Int_Tables_number	1
_symmetry_cell_setting	triclinic
loop_
_symmetry_equiv_pos_as_xyz
  x,y,z
_cell_length_a	19.288856
_cell_length_b	18.366186
_cell_length_c	19.288865
_cell_angle_alpha	90.011397
_cell_angle_beta	83.134504
_cell_angle_gamma	90.011357
loop_
_atom_site_label
_atom_site_type_symbol
_atom_site_fract_x
_atom_site_fract_y
_atom_site_fract_z
O1	O	-0.921357	-0.060591	-0.086620
O2	O	-0.588023	0.272742	0.246713
O3	O	-0.254690	0.606075	0.580046
O4	O	-0.719095	-0.060586	-0.098315
O5	O	-0.385762	0.272747	0.235018
O6	O	-0.052429	0.606080	0.568351
O7	O	-0.826070	-0.060575	0.008663
O8	O	-0.492737	0.272759	0.341996
O9	O	-0.159404	0.606092	0.675329
O10	O	-0.814382	-0.060603	-0.193598
O11	O	-0.481048	0.272730	0.139735
O12	O	-0.147715	0.606064	0.473068
O13	O	-0.826052	0.060525	0.008668
O14	O	-0.492718	0.393858	0.342001
O15	O	-0.159385	0.727191	0.675334
O16	O	-0.719077	0.060513	-0.098310
O17	O	-0.385743	0.393846	0.235023
O18	O	-0.052410	0.727180	0.568356
O19	O	-0.921338	0.060508	-0.086615
O20	O	-0.588005	0.393842	0.246718
O21	O	-0.254671	0.727175	0.580051
Zn22	Zn	-0.820204	0.079738	-0.092462
Zn23	Zn	-0.486871	0.413071	0.240871
Zn24	Zn	-0.153538	0.746404	0.574205
Zn25	Zn	-0.820229	-0.079816	-0.092469
Zn26	Zn	-0.486896	0.253517	0.240865
Zn27	Zn	-0.153562	0.586851	0.574198
O28	O	-0.814363	0.060496	-0.193593
O29	O	-0.481030	0.393830	0.139740
O30	O	-0.147696	0.727163	0.473073
C31	C	-0.693209	-0.000036	-0.097937
C32	C	-0.359876	0.333297	0.235396
C33	C	-0.026543	0.666631	0.568729
C34	C	-0.616106	-0.000034	-0.096811
C35	C	-0.282772	0.333300	0.236523
C36	C	0.050561	0.666633	0.569856
N37	N	-0.820192	0.188629	-0.092457
N38	N	-0.486859	0.521962	0.240876
N39	N	-0.153526	0.855295	0.574210
C40	C	-0.867576	0.226734	-0.045111
C41	C	-0.534243	0.560068	0.288223
C42	C	-0.200910	0.893401	0.621556
C43	C	-0.867580	0.302962	-0.045108
C44	C	-0.534247	0.636296	0.288226
C45	C	-0.200914	0.969629	0.621559
C46	C	-0.820207	0.341082	-0.092463
C47	C	-0.486874	0.674415	0.240870
C48	C	-0.153540	1.007748	0.574204
C49	C	-0.772814	0.302967	-0.139813
C50	C	-0.439481	0.636300	0.193520
C51	C	-0.106148	0.969633	0.526853
C52	C	-0.772807	0.226740	-0.139810
C53	C	-0.439474	0.560074	0.193523
C54	C	-0.106140	0.893407	0.526856
C55	C	-0.810908	0.461833	-0.155752
C56	C	-0.477575	0.795166	0.177582
C57	C	-0.144242	1.128500	0.510915
C58	C	-0.810920	0.538058	-0.155755
C59	C	-0.477587	0.871391	0.177578
C60	C	-0.144254	1.204725	0.510911
C61	C	-0.820225	0.576189	-0.092472
C62	C	-0.486892	0.909522	0.240861
C63	C	-0.153559	1.242856	0.574194
C64	C	-0.829533	0.538086	-0.029182
C65	C	-0.496200	0.871419	0.304151
C66	C	-0.162867	1.204752	0.637484
C67	C	-0.829526	0.461859	-0.029179
C68	C	-0.496193	0.795193	0.304154
C69	C	-0.162859	1.128526	0.637487
C70	C	-0.820209	0.423736	-0.092471
C71	C	-0.486876	0.757070	0.240862
C72	C	-0.153543	1.090403	0.574195
C73	C	-0.867616	0.696950	-0.045119
C74	C	-0.534283	1.030283	0.288215
C75	C	-0.200950	1.363616	0.621548
C76	C	-0.867615	0.773179	-0.045115
C77	C	-0.534282	1.106512	0.288219
C78	C	-0.200949	1.439846	0.621552
C79	C	-0.772853	0.773182	-0.139826
C80	C	-0.439519	1.106515	0.193507
C81	C	-0.106186	1.439848	0.526840
C82	C	-0.772850	0.696954	-0.139824
C83	C	-0.439517	1.030287	0.193509
C84	C	-0.106184	1.363621	0.526842
C85	C	-0.820236	0.658843	-0.092471
C86	C	-0.486902	0.992176	0.240862
C87	C	-0.153569	1.325509	0.574196
C88	C	-0.052064	-0.000031	-0.151959
C89	C	0.281269	0.333302	0.181374
C90	C	0.614602	0.666636	0.514708
C91	C	-0.124511	-0.000036	-0.153024
C92	C	0.208823	0.333297	0.180310
C93	C	0.542156	0.666630	0.513643
C94	C	-0.169218	-0.000027	-0.090254
C95	C	0.164116	0.333306	0.243079
C96	C	0.497449	0.666640	0.576413
C97	C	-0.141472	-0.000031	-0.026415
C98	C	0.191861	0.333303	0.306919
C99	C	0.525194	0.666636	0.640252
C100	C	-0.069027	-0.000033	-0.025352
C101	C	0.264306	0.333301	0.307981
C102	C	0.597640	0.666634	0.641315
C103	C	-0.290481	0.042406	-0.043438
C104	C	0.042852	0.375740	0.289895
C105	C	0.376185	0.709073	0.623229
C106	C	-0.362925	0.042413	-0.044504
C107	C	-0.029592	0.375746	0.288830
C108	C	0.303742	0.709079	0.622163
C109	C	-0.392664	-0.000025	-0.093530
C110	C	-0.059330	0.333309	0.239804
C111	C	0.274003	0.666642	0.573137
C112	C	-0.349948	-0.042459	-0.141502
C113	C	-0.016615	0.290875	0.191832
C114	C	0.316719	0.624208	0.525165
C115	C	-0.277503	-0.042461	-0.140439
C116	C	0.055831	0.290873	0.192895
C117	C	0.389164	0.624206	0.526228
C118	C	-0.247773	-0.000025	-0.091399
C119	C	0.085560	0.333308	0.241934
C120	C	0.418893	0.666641	0.575267
C121	C	-0.498955	-0.000032	-0.158519
C122	C	-0.165622	0.333302	0.174814
C123	C	0.167711	0.666635	0.508148
C124	C	-0.571404	-0.000042	-0.159581
C125	C	-0.238070	0.333292	0.173752
C126	C	0.095263	0.666625	0.507086
C127	C	-0.588364	-0.000029	-0.032971
C128	C	-0.255031	0.333304	0.300363
C129	C	0.078302	0.666638	0.633696
C130	C	-0.515917	-0.000026	-0.031910
C131	C	-0.182584	0.333307	0.301423
C132	C	0.150750	0.666640	0.634756
C133	C	-0.471217	-0.000024	-0.094687
C134	C	-0.137883	0.333309	0.238647
C135	C	0.195450	0.666642	0.571980
C136	C	0.052776	-0.000039	-0.086995
C137	C	0.386110	0.333295	0.246338
C138	C	0.719443	0.666628	0.579671
C139	C	-0.024327	-0.000031	-0.088128
C140	C	0.309007	0.333303	0.245205
C141	C	0.642340	0.666636	0.578538
C142	C	-0.825685	-0.000023	0.034542
C143	C	-0.492352	0.333311	0.367875
C144	C	-0.159018	0.666644	0.701208
C145	C	-0.824556	-0.000016	0.111645
C146	C	-0.491223	0.333317	0.444979
C147	C	-0.157889	0.666650	0.778312
N148	N	-0.820241	0.811293	-0.092470
N149	N	-0.486908	1.144626	0.240863
N150	N	-0.153574	1.477960	0.574197
C151	C	-0.814748	-0.000057	-0.219472
C152	C	-0.481415	0.333276	0.113861
C153	C	-0.148082	0.666609	0.447194
C154	C	-0.815877	-0.000068	-0.296576
C155	C	-0.482544	0.333265	0.036758
C156	C	-0.149211	0.666598	0.370091
C157	C	-0.887324	-0.000014	0.156343
C158	C	-0.553991	0.333319	0.489677
C159	C	-0.220657	0.666653	0.823010
C160	C	-0.886263	-0.000026	0.228790
C161	C	-0.552930	0.333308	0.562124
C162	C	-0.219597	0.666641	0.895457
C163	C	-0.822431	-0.000025	0.256536
C164	C	-0.489098	0.333309	0.589869
C165	C	-0.155764	0.666642	0.923203
C166	C	-0.759655	-0.000031	0.211828
C167	C	-0.426321	0.333302	0.545161
C168	C	-0.092988	0.666636	0.878495
C169	C	-0.760717	-0.000027	0.139383
C170	C	-0.427384	0.333307	0.472716
C171	C	-0.094050	0.666640	0.806049
C172	C	-0.772245	0.042395	0.364824
C173	C	-0.438911	0.375728	0.698157
C174	C	-0.105578	0.709062	1.031490
C175	C	-0.771185	0.042395	0.437268
C176	C	-0.437852	0.375729	0.770601
C177	C	-0.104518	0.709062	1.103935
C178	C	-0.819151	-0.000041	0.479982
C179	C	-0.485818	0.333292	0.813315
C180	C	-0.152485	0.666626	1.146648
C181	C	-0.868190	-0.042468	0.450243
C182	C	-0.534856	0.290865	0.783577
C183	C	-0.201523	0.624199	1.116910
C184	C	-0.869252	-0.042464	0.377798
C185	C	-0.535919	0.290870	0.711131
C186	C	-0.202585	0.624203	1.044464
C187	C	-0.821272	-0.000030	0.335090
C188	C	-0.487939	0.333304	0.668423
C189	C	-0.154605	0.666637	1.001757
C190	C	-0.880774	-0.000052	0.603236
C191	C	-0.547440	0.333281	0.936569
C192	C	-0.214107	0.666614	1.269902
C193	C	-0.879710	-0.000068	0.675684
C194	C	-0.546377	0.333265	1.009017
C195	C	-0.213044	0.666598	1.342350
C196	C	-0.753100	-0.000066	0.658720
C197	C	-0.419766	0.333267	0.992053
C198	C	-0.086433	0.666601	1.325386
C199	C	-0.754165	-0.000057	0.586273
C200	C	-0.420832	0.333276	0.919607
C201	C	-0.087498	0.666609	1.252940
C202	C	-0.818004	-0.000047	0.558536
C203	C	-0.484670	0.333286	0.891869
C204	C	-0.151337	0.666620	1.225203
H205	H	-0.906159	0.195706	-0.006551
H206	H	-0.572825	0.529040	0.326782
H207	H	-0.239492	0.862373	0.660115
C208	C	-0.682885	-0.000067	0.689231
C209	C	-0.349552	0.333266	1.022564
C210	C	-0.016219	0.666599	1.355898
H211	H	-0.691241	-0.000066	0.738779
H212	H	-0.357908	0.333267	1.072113
H213	H	-0.024574	0.666600	1.405446
H214	H	-0.657056	-0.042296	0.673863
H215	H	-0.323723	0.291038	1.007196
H216	H	0.009611	0.624371	1.340529
H217	H	-0.657043	0.042170	0.673885
H218	H	-0.323710	0.375503	1.007218
H219	H	0.009623	0.708836	1.340552
H220	H	-0.462558	-0.000031	-0.209635
H221	H	-0.129225	0.333302	0.123698
H222	H	0.204108	0.666635	0.457031
C223	C	-0.919726	0.655021	0.006974
C224	C	-0.586393	0.988354	0.340307
C225	C	-0.253060	1.321687	0.673641
H226	H	-0.912941	0.604165	0.000190
H227	H	-0.579608	0.937498	0.333523
H228	H	-0.246275	1.270831	0.666856
H229	H	-0.912329	0.667527	0.053311
H230	H	-0.578995	1.000860	0.386644
H231	H	-0.245662	1.334193	0.719978
H232	H	-0.966061	0.667497	-0.000451
H233	H	-0.632728	1.000830	0.332883
H234	H	-0.299395	1.334164	0.666216
C235	C	-0.409908	0.089086	0.008261
C236	C	-0.076575	0.422420	0.341594
C237	C	0.256758	0.755753	0.674928
H238	H	-0.457312	0.083017	0.000602
H239	H	-0.123979	0.416351	0.333935
H240	H	0.209354	0.749684	0.667268
H241	H	-0.404197	0.074169	0.054388
H242	H	-0.070863	0.407502	0.387721
H243	H	0.262470	0.740836	0.721054
H244	H	-0.397206	0.138874	0.002336
H245	H	-0.063873	0.472208	0.335669
H246	H	0.269460	0.805541	0.669002
H247	H	-0.703052	-0.000055	0.549879
H248	H	-0.369719	0.333278	0.883212
H249	H	-0.036385	0.666612	1.216545
C250	C	-0.720691	0.184819	-0.191900
C251	C	-0.387358	0.518152	0.141434
C252	C	-0.054025	0.851486	0.474767
H253	H	-0.727472	0.133963	-0.185115
H254	H	-0.394139	0.467296	0.148219
H255	H	-0.060805	0.800629	0.481552
H256	H	-0.728089	0.197301	-0.238237
H257	H	-0.394756	0.530634	0.095096
H258	H	-0.061422	0.863967	0.428430
H259	H	-0.674358	0.197322	-0.184474
H260	H	-0.341024	0.530656	0.148860
H261	H	-0.007691	0.863989	0.482193
H262	H	-0.177877	-0.000025	0.024693
H263	H	0.155456	0.333308	0.358026
H264	H	0.488789	0.666641	0.691359
C265	C	-0.230516	-0.089139	-0.193196
C266	C	0.102817	0.244195	0.140137
C267	C	0.436151	0.577528	0.473470
H268	H	-0.183112	-0.083056	-0.185542
H269	H	0.150221	0.250277	0.147791
H270	H	0.483554	0.583610	0.481125
H271	H	-0.243216	-0.138923	-0.187270
H272	H	0.090118	0.194410	0.146063
H273	H	0.423451	0.527743	0.479397
H274	H	-0.236225	-0.074223	-0.239328
H275	H	0.097108	0.259110	0.094005
H276	H	0.430442	0.592443	0.427338
C277	C	-0.382653	-0.089171	-0.195410
C278	C	-0.049320	0.244162	0.137924
C279	C	0.284014	0.577495	0.471257
H280	H	-0.431918	-0.083110	-0.189162
H281	H	-0.098584	0.250223	0.144171
H282	H	0.234749	0.583557	0.477505
H283	H	-0.364634	-0.074283	-0.241200
H284	H	-0.031301	0.259050	0.092133
H285	H	0.302033	0.592383	0.425466
H286	H	-0.371596	-0.138952	-0.189106
H287	H	-0.038262	0.194381	0.144227
H288	H	0.295071	0.527715	0.477560
H289	H	-0.015673	-0.000033	-0.203076
H290	H	0.317660	0.333301	0.130257
H291	H	0.650994	0.666634	0.463590
H292	H	-0.147099	-0.000030	-0.205004
H293	H	0.186234	0.333304	0.128330
H294	H	0.519568	0.666637	0.461663
H295	H	-0.046445	-0.000033	0.026628
H296	H	0.286888	0.333301	0.359962
H297	H	0.620222	0.666634	0.693295
C298	C	-0.637530	-0.000021	0.036077
C299	C	-0.304196	0.333312	0.369410
C300	C	0.029137	0.666645	0.702744
H301	H	-0.610631	-0.000024	0.074246
H302	H	-0.277298	0.333309	0.407579
H303	H	0.056035	0.666643	0.740913
H304	H	-0.666138	0.042208	0.038300
H305	H	-0.332805	0.375541	0.371633
H306	H	0.000529	0.708874	0.704966
H307	H	-0.666148	-0.042258	0.038289
H308	H	-0.332815	0.291075	0.371622
H309	H	0.000518	0.624409	0.704956
H310	H	-0.909179	-0.077011	0.353588
H311	H	-0.575846	0.256323	0.686921
H312	H	-0.242513	0.589656	1.020254
H313	H	-0.493334	-0.000022	0.020068
H314	H	-0.160001	0.333312	0.353401
H315	H	0.173333	0.666645	0.686734
H316	H	-0.266276	0.076965	-0.003512
H317	H	0.067058	0.410299	0.329822
H318	H	0.400391	0.743632	0.663155
H319	H	-0.939307	-0.000008	0.133765
H320	H	-0.605973	0.333325	0.467098
H321	H	-0.272640	0.666658	0.800431
H322	H	-0.593985	-0.000048	-0.211562
H323	H	-0.260652	0.333285	0.121772
H324	H	0.072682	0.666619	0.455105
H325	H	-0.734278	0.804218	-0.178382
H326	H	-0.400945	1.137551	0.154952
H327	H	-0.067611	1.470885	0.488285
C328	C	-0.955311	-0.000018	0.277967
C329	C	-0.621977	0.333315	0.611301
C330	C	-0.288644	0.666649	0.944634
H331	H	-0.993482	-0.000007	0.251072
H332	H	-0.660149	0.333326	0.584405
H333	H	-0.326815	0.666660	0.917738
H334	H	-0.957539	-0.042247	0.306575
H335	H	-0.624206	0.291086	0.639908
H336	H	-0.290872	0.624419	0.973242
H337	H	-0.957513	0.042218	0.306586
H338	H	-0.624179	0.375551	0.639919
H339	H	-0.290846	0.708885	0.973253
H340	H	-0.907248	-0.077024	0.485019
H341	H	-0.573915	0.256309	0.818353
H342	H	-0.240582	0.589643	1.151686
H343	H	-0.733183	0.076956	0.330051
H344	H	-0.399849	0.410289	0.663385
H345	H	-0.066516	0.743622	0.996718
H346	H	-0.932755	-0.000047	0.580651
H347	H	-0.599422	0.333286	0.913984
H348	H	-0.266088	0.666620	1.247318
H349	H	-0.930826	-0.000071	0.712077
H350	H	-0.597493	0.333263	1.045410
H351	H	-0.264159	0.666596	1.378744
C352	C	-0.717247	0.089063	0.469974
C353	C	-0.383913	0.422396	0.803308
C354	C	-0.050580	0.755729	1.136641
H355	H	-0.688824	0.114326	0.434160
H356	H	-0.355490	0.447660	0.767494
H357	H	-0.022157	0.780993	1.100827
H358	H	-0.740837	0.123179	0.501459
H359	H	-0.407503	0.456513	0.834792
H360	H	-0.074170	0.789846	1.168125
H361	H	-0.688792	0.058467	0.494471
H362	H	-0.355459	0.391801	0.827805
H363	H	-0.022126	0.725134	1.161138
H364	H	-0.734241	0.334007	-0.178370
H365	H	-0.400908	0.667340	0.154963
H366	H	-0.067575	1.000674	0.488297
H367	H	-0.707682	-0.000032	0.234423
H368	H	-0.374348	0.333302	0.567756
H369	H	-0.041015	0.666635	0.901090
C370	C	-0.691671	-0.000027	0.090210
C371	C	-0.358338	0.333306	0.423543
C372	C	-0.025004	0.666639	0.756876
H373	H	-0.701447	-0.000028	0.043091
H374	H	-0.368113	0.333305	0.376424
H375	H	-0.034780	0.666638	0.709757
H376	H	-0.665476	0.042199	0.098607
H377	H	-0.332143	0.375533	0.431940
H378	H	0.001191	0.708866	0.765273
H379	H	-0.665498	-0.042266	0.098587
H380	H	-0.332164	0.291067	0.431920
H381	H	0.001169	0.624401	0.765254
H382	H	-0.906167	0.333994	-0.006551
H383	H	-0.572834	0.667327	0.326783
H384	H	-0.239500	1.000660	0.660116
C385	C	-0.720735	0.655036	-0.191914
C386	C	-0.387402	0.988369	0.141420
C387	C	-0.054068	1.321702	0.474753
H388	H	-0.692525	0.688653	-0.220121
H389	H	-0.359192	1.021987	0.113212
H390	H	-0.025858	1.355320	0.446545
H391	H	-0.691899	0.625313	-0.167003
H392	H	-0.358566	0.958647	0.166331
H393	H	-0.025233	1.291980	0.499664
H394	H	-0.745632	0.625287	-0.220765
H395	H	-0.412299	0.958620	0.112569
H396	H	-0.078965	1.291954	0.445902
H397	H	-0.837110	0.569130	0.022349
H398	H	-0.503777	0.902464	0.355682
H399	H	-0.170444	1.235797	0.689015
C400	C	-0.839753	0.419946	0.040432
C401	C	-0.506420	0.753279	0.373765
C402	C	-0.173086	1.086613	0.707098
H403	H	-0.845391	0.453566	0.078122
H404	H	-0.512058	0.786899	0.411455
H405	H	-0.178725	1.120232	0.744789
H406	H	-0.880139	0.390115	0.041901
H407	H	-0.546806	0.723448	0.375234
H408	H	-0.213472	1.056782	0.708568
H409	H	-0.800025	0.390306	0.044222
H410	H	-0.466691	0.723640	0.377555
H411	H	-0.133358	1.056973	0.710889
H412	H	-0.803346	0.569076	-0.207290
H413	H	-0.470012	0.902409	0.126044
H414	H	-0.136679	1.235743	0.459377
H415	H	-0.906199	0.804205	-0.006556
H416	H	-0.572866	1.137538	0.326778
H417	H	-0.239532	1.470872	0.660111
H418	H	-0.803319	0.430793	-0.207288
H419	H	-0.469985	0.764126	0.126046
H420	H	-0.136652	1.097460	0.459379
