data_functionalizedCrystal
_audit_creation_method	'MofGen! by Chris Wilmer'
_symmetry_space_group_name_H-M	'P1'
_symmetry_Int_Tables_number	1
_symmetry_cell_setting	triclinic
loop_
_symmetry_equiv_pos_as_xyz
  x,y,z
_cell_length_a	11.169417
_cell_length_b	11.169416
_cell_length_c	11.169417
_cell_angle_alpha	89.993855
_cell_angle_beta	89.999137
_cell_angle_gamma	90.011219
loop_
_atom_site_label
_atom_site_type_symbol
_atom_site_fract_x
_atom_site_fract_y
_atom_site_fract_z
Zn1	Zn	-1.834738	0.477975	0.678554
Zn2	Zn	-1.584738	0.727975	0.928554
Zn3	Zn	-1.334738	0.977975	1.178554
Zn4	Zn	-1.084738	1.227975	1.428554
Zn5	Zn	-1.834693	0.678629	0.477877
Zn6	Zn	-1.584693	0.928629	0.727877
Zn7	Zn	-1.334693	1.178629	0.977877
Zn8	Zn	-1.084693	1.428629	1.227877
Zn9	Zn	-1.634090	0.477961	0.477889
Zn10	Zn	-1.384090	0.727961	0.727889
Zn11	Zn	-1.134090	0.977961	0.977889
Zn12	Zn	-0.884090	1.227961	1.227889
Zn13	Zn	-1.634031	0.678618	0.678521
Zn14	Zn	-1.384031	0.928618	0.928521
Zn15	Zn	-1.134031	1.178618	1.178521
Zn16	Zn	-0.884031	1.428618	1.428521
O17	O	-1.734388	0.578296	0.578210
O18	O	-1.484388	0.828296	0.828210
O19	O	-1.234388	1.078296	1.078210
O20	O	-0.984388	1.328296	1.328210
O21	O	-2.002682	0.504602	0.651943
O22	O	-1.752682	0.754602	0.901943
O23	O	-1.502682	1.004602	1.151943
O24	O	-1.252682	1.254602	1.401943
O25	O	-1.808089	0.652009	0.309929
O26	O	-1.558089	0.902009	0.559929
O27	O	-1.308089	1.152009	0.809929
O28	O	-1.058089	1.402009	1.059929
O29	O	-1.660750	0.310013	0.504527
O30	O	-1.410750	0.560013	0.754527
O31	O	-1.160750	0.810013	1.004527
O32	O	-0.910750	1.060013	1.254527
O33	O	-2.002649	0.652022	0.504506
O34	O	-1.752649	0.902022	0.754506
O35	O	-1.502649	1.152022	1.004506
O36	O	-1.252649	1.402022	1.254506
O37	O	-1.808164	0.310023	0.651955
O38	O	-1.558164	0.560023	0.901955
O39	O	-1.308164	0.810023	1.151955
O40	O	-1.058164	1.060023	1.401955
O41	O	-1.660707	0.504579	0.309938
O42	O	-1.410707	0.754579	0.559938
O43	O	-1.160707	1.004579	0.809938
O44	O	-0.910707	1.254579	1.059938
O45	O	-1.466133	0.504568	0.504495
O46	O	-1.216133	0.754568	0.754495
O47	O	-0.966133	1.004568	1.004495
O48	O	-0.716133	1.254568	1.254495
O49	O	-1.660649	0.652003	0.846475
O50	O	-1.410649	0.902003	1.096475
O51	O	-1.160649	1.152003	1.346475
O52	O	-0.910649	1.402003	1.596475
O53	O	-1.466089	0.651990	0.651898
O54	O	-1.216089	0.901990	0.901898
O55	O	-0.966089	1.151990	1.151898
O56	O	-0.716089	1.401990	1.401898
O57	O	-1.808107	0.504591	0.846500
O58	O	-1.558107	0.754591	1.096500
O59	O	-1.308107	1.004591	1.346500
O60	O	-1.058107	1.254591	1.596500
O61	O	-1.808032	0.846577	0.504473
O62	O	-1.558032	1.096577	0.754473
O63	O	-1.308032	1.346577	1.004473
O64	O	-1.058032	1.596577	1.254473
O65	O	-1.660606	0.846569	0.651886
O66	O	-1.410606	1.096569	0.901886
O67	O	-1.160606	1.346569	1.151886
O68	O	-0.910606	1.596569	1.401886
C69	C	-1.422563	0.578277	0.578195
C70	C	-1.172563	0.828277	0.828195
C71	C	-0.922563	1.078277	1.078195
C72	C	-0.672563	1.328277	1.328195
C73	C	-1.289163	0.578298	0.578217
C74	C	-1.039163	0.828298	0.828217
C75	C	-0.789163	1.078298	1.078217
C76	C	-0.539163	1.328298	1.328217
C77	C	-1.734341	0.890120	0.578201
C78	C	-1.484341	1.140120	0.828201
C79	C	-1.234341	1.390120	1.078201
C80	C	-0.984341	1.640120	1.328201
C81	C	-1.734430	1.023520	0.578237
C82	C	-1.484430	1.273520	0.828237
C83	C	-1.234430	1.523520	1.078237
C84	C	-0.984430	1.773520	1.328237
C85	C	-1.734377	0.578297	0.891253
C86	C	-1.484377	0.828297	1.141253
C87	C	-1.234377	1.078297	1.391253
C88	C	-0.984377	1.328297	1.641253
C89	C	-1.734372	0.578298	1.024653
C90	C	-1.484372	0.828298	1.274653
C91	C	-1.234372	1.078298	1.524653
C92	C	-0.984372	1.328298	1.774653
C93	C	-2.047430	0.578315	0.578226
C94	C	-1.797430	0.828315	0.828226
C95	C	-1.547430	1.078315	1.078226
C96	C	-1.297430	1.328315	1.328226
C97	C	-2.180830	0.578323	0.578233
C98	C	-1.930830	0.828323	0.828233
C99	C	-1.680830	1.078323	1.078233
C100	C	-1.430830	1.328323	1.328233
C101	C	-1.734469	0.265253	0.578246
C102	C	-1.484469	0.515253	0.828246
C103	C	-1.234469	0.765253	1.078246
C104	C	-0.984469	1.015253	1.328246
C105	C	-1.734503	0.131853	0.578261
C106	C	-1.484503	0.381853	0.828261
C107	C	-1.234503	0.631853	1.078261
C108	C	-0.984503	0.881853	1.328261
C109	C	-1.734385	0.578316	1.266386
C110	C	-1.484385	0.828316	1.516386
C111	C	-1.234385	1.078316	1.766386
C112	C	-0.984385	1.328316	2.016386
C113	C	-1.734375	0.578300	1.132986
C114	C	-1.484375	0.828300	1.382986
C115	C	-1.234375	1.078300	1.632986
C116	C	-0.984375	1.328300	1.882986
