data_functionalizedCrystal
_audit_creation_method	'MofGen! by Chris Wilmer'
_symmetry_space_group_name_H-M	'P1'
_symmetry_Int_Tables_number	1
_symmetry_cell_setting	triclinic
loop_
_symmetry_equiv_pos_as_xyz
  x,y,z
_cell_length_a	12.594517
_cell_length_b	12.594516
_cell_length_c	12.594510
_cell_angle_alpha	89.967679
_cell_angle_beta	89.988729
_cell_angle_gamma	90.011939
loop_
_atom_site_label
_atom_site_type_symbol
_atom_site_fract_x
_atom_site_fract_y
_atom_site_fract_z
Zn1	Zn	1.627265	-0.423763	-0.601595
Zn2	Zn	2.127265	0.076237	-0.101595
Zn3	Zn	1.627156	-0.601792	-0.423623
Zn4	Zn	2.127156	-0.101792	0.076377
Zn5	Zn	1.449269	-0.423815	-0.423655
Zn6	Zn	1.949269	0.076185	0.076345
Zn7	Zn	1.449251	-0.601687	-0.601584
Zn8	Zn	1.949251	-0.101687	-0.101584
O9	O	1.538235	-0.512764	-0.512614
O10	O	2.038235	-0.012764	-0.012614
O11	O	1.776196	-0.447401	-0.577979
O12	O	2.276196	0.052599	-0.077979
O13	O	1.603521	-0.578249	-0.274681
O14	O	2.103521	-0.078249	0.225319
O15	O	1.472934	-0.274862	-0.447277
O16	O	1.972934	0.225138	0.052723
O17	O	1.776116	-0.578198	-0.447223
O18	O	2.276116	-0.078198	0.052777
O19	O	1.603706	-0.274824	-0.578009
O20	O	2.103706	0.225176	-0.078009
O21	O	1.472829	-0.447490	-0.274705
O22	O	1.972829	0.052510	0.225295
O23	O	1.300321	-0.447388	-0.447266
O24	O	1.800321	0.052612	0.052734
O25	O	1.472902	-0.578019	-0.750531
O26	O	1.972902	-0.078019	-0.250531
O27	O	1.300308	-0.578070	-0.577989
O28	O	1.800308	-0.078070	-0.077989
O29	O	1.603689	-0.447299	-0.750540
O30	O	2.103689	0.052701	-0.250540
O31	O	1.603504	-0.750724	-0.447212
O32	O	2.103504	-0.250724	0.052788
O33	O	1.472797	-0.750647	-0.577959
O34	O	1.972797	-0.250647	-0.077959
C35	C	1.261694	-0.512724	-0.512630
C36	C	1.761694	-0.012724	-0.012630
C37	C	1.143389	-0.512732	-0.512663
C38	C	1.643389	-0.012732	-0.012663
C39	C	1.074159	-0.583949	-0.583626
C40	C	1.574159	-0.083949	-0.083626
C41	C	1.003351	-0.486901	-0.609800
C42	C	1.503351	0.013099	-0.109800
C43	C	1.003398	-0.609861	-0.486464
C44	C	1.503398	-0.109861	0.013536
C45	C	1.074138	-0.415632	-0.538888
C46	C	1.574138	0.084368	-0.038888
C47	C	1.074193	-0.538658	-0.415507
C48	C	1.574193	-0.038658	0.084493
C49	C	1.003416	-0.441542	-0.441645
C50	C	1.503416	0.058458	0.058355
C51	C	1.538166	-0.789305	-0.512604
C52	C	2.038166	-0.289305	-0.012604
C53	C	1.538233	-0.907611	-0.512635
C54	C	2.038233	-0.407611	-0.012635
C55	C	1.467135	-0.976860	-0.583698
C56	C	1.967135	-0.476860	-0.083698
C57	C	1.441202	-1.047734	-0.486580
C58	C	1.941202	-0.547734	0.013420
C59	C	1.564263	-1.047536	-0.609770
C60	C	2.064263	-0.547536	-0.109770
C61	C	1.512249	-0.976926	-0.415465
C62	C	2.012249	-0.476926	0.084535
C63	C	1.635355	-0.976721	-0.538721
C64	C	2.135355	-0.476721	-0.038721
C65	C	1.609459	-1.047563	-0.441535
C66	C	2.109459	-0.547563	0.058465
C67	C	1.815856	-0.512805	-0.512599
C68	C	2.315856	-0.012805	-0.012599
C69	C	1.934161	-0.512823	-0.512592
C70	C	2.434161	-0.012823	-0.012592
C71	C	1.538306	-0.512641	-0.790235
C72	C	2.038306	-0.012641	-0.290235
C73	C	1.538335	-0.512589	-0.908541
C74	C	2.038335	-0.012589	-0.408541
C75	C	1.538334	-0.235143	-0.512648
C76	C	2.038334	0.264857	-0.012648
C77	C	1.538376	-0.116838	-0.512662
C78	C	2.038376	0.383162	-0.012662
C79	C	1.609491	-0.441485	-0.977799
C80	C	2.109491	0.058515	-0.477799
C81	C	1.512415	-0.415425	-1.048605
C82	C	2.012415	0.084575	-0.548605
C83	C	1.635468	-0.538574	-1.048533
C84	C	2.135468	-0.038574	-0.548533
C85	C	1.441208	-0.486479	-0.977789
C86	C	1.941208	0.013521	-0.477789
C87	C	1.564326	-0.609673	-0.977711
C88	C	2.064326	-0.109673	-0.477711
C89	C	1.467183	-0.583650	-1.048486
C90	C	1.967183	-0.083650	-0.548486
C91	C	1.538227	-0.512810	-0.236073
C92	C	2.038227	-0.012810	0.263927
C93	C	1.538403	-0.512562	-0.117768
C94	C	2.038403	-0.012562	0.382232
H95	H	1.105333	-0.560583	-0.333398
H96	H	1.605333	-0.060583	0.166602
H97	H	0.972320	-0.691963	-0.464338
H98	H	1.472320	-0.191963	0.035662
F99	F	1.114580	-0.308285	-0.567935
F100	F	1.614580	0.191715	-0.067935
H101	H	0.972550	-0.381286	-0.381603
H102	H	1.472550	0.118714	0.118397
H103	H	1.669646	-1.078412	-0.381382
H104	H	2.169646	-0.578412	0.118618
F105	F	1.388410	-0.936280	-0.662135
F106	F	1.888410	-0.436280	-0.162135
F107	F	1.483711	-0.308099	-1.089312
F108	F	1.983711	0.191901	-0.589312
H109	H	1.359135	-1.078950	-0.464538
H110	H	1.859135	-0.578950	0.035462
F111	F	1.388479	-0.662221	-1.088816
F112	F	1.888479	-0.162221	-0.588816
H113	H	1.105224	-0.644059	-0.643714
H114	H	1.605224	-0.144059	-0.143714
H115	H	1.490195	-0.946038	-0.333307
H116	H	1.990195	-0.446038	0.166693
F117	F	1.742599	-0.935921	-0.567591
F118	F	2.242599	-0.435921	-0.067591
H119	H	1.586221	-1.078552	-0.691905
H120	H	2.086221	-0.578552	-0.191905
F121	F	1.688008	-0.362849	-0.937226
F122	F	2.188008	0.137151	-0.437226
H123	H	0.972233	-0.465004	-0.691933
H124	H	1.472233	0.034996	-0.191933
F125	F	1.333841	-0.457624	-0.937346
F126	F	1.833841	0.042376	-0.437346
H127	H	1.586316	-0.691763	-0.946549
H128	H	2.086316	-0.191763	-0.446549
F129	F	1.742799	-0.567319	-1.089151
F130	F	2.242799	-0.067319	-0.589151
