data_functionalizedCrystal
_audit_creation_method	'MofGen! by Chris Wilmer'
_symmetry_space_group_name_H-M	'P1'
_symmetry_Int_Tables_number	1
_symmetry_cell_setting	triclinic
loop_
_symmetry_equiv_pos_as_xyz
  x,y,z
_cell_length_a	18.101395
_cell_length_b	18.101398
_cell_length_c	18.101389
_cell_angle_alpha	89.975198
_cell_angle_beta	89.980315
_cell_angle_gamma	90.029682
loop_
_atom_site_label
_atom_site_type_symbol
_atom_site_fract_x
_atom_site_fract_y
_atom_site_fract_z
Zn1	Zn	-0.294952	1.132117	-0.418842
Zn2	Zn	0.205048	1.632117	0.081158
Zn3	Zn	-0.418778	1.132011	-0.294997
Zn4	Zn	0.081222	1.632011	0.205003
Zn5	Zn	-0.294950	1.008276	-0.295002
Zn6	Zn	0.205050	1.508276	0.204998
Zn7	Zn	-0.418751	1.008224	-0.418785
Zn8	Zn	0.081249	1.508224	0.081215
O9	O	-0.356858	1.070157	-0.356906
O10	O	0.143142	1.570157	0.143094
O11	O	-0.311390	1.235735	-0.402435
O12	O	0.188610	1.735735	0.097565
O13	O	-0.402362	1.115574	-0.191365
O14	O	0.097638	1.615574	0.308635
O15	O	-0.191317	1.024769	-0.311455
O16	O	0.308683	1.524769	0.188545
O17	O	-0.402364	1.235658	-0.311447
O18	O	0.097636	1.735658	0.188553
O19	O	-0.191319	1.115755	-0.402440
O20	O	0.308681	1.615755	0.097560
O21	O	-0.311386	1.024666	-0.191368
O22	O	0.188614	1.524666	0.308632
O23	O	-0.311360	0.904636	-0.311400
O24	O	0.188640	1.404636	0.188600
O25	O	-0.402319	1.024682	-0.522425
O26	O	0.097681	1.524682	-0.022425
O27	O	-0.402317	0.904598	-0.402343
O28	O	0.097683	1.404598	0.097657
O29	O	-0.311364	1.115705	-0.522467
O30	O	0.188636	1.615705	-0.022467
O31	O	-0.522407	1.115524	-0.311392
O32	O	-0.022407	1.615524	0.188608
O33	O	-0.522388	1.024579	-0.402339
O34	O	-0.022388	1.524579	0.097661
C35	C	-0.356836	0.877746	-0.356866
C36	C	0.143164	1.377746	0.143134
C37	C	-0.356844	0.795432	-0.356866
C38	C	0.143156	1.295432	0.143134
C39	C	-0.356860	0.644724	-0.356900
C40	C	0.143140	1.144724	0.143100
C41	C	-0.299550	0.613369	-0.299776
C42	C	0.200450	1.113369	0.200224
C43	C	-0.299335	0.527751	-0.299964
C44	C	0.200665	1.027751	0.200036
C45	C	-0.356875	0.496341	-0.356931
C46	C	0.143125	0.996341	0.143069
C47	C	-0.336055	0.527481	-0.435067
C48	C	0.163945	1.027481	0.064933
C49	C	-0.335631	0.613126	-0.434718
C50	C	0.164369	1.113126	0.065282
C51	C	-0.435137	0.613119	-0.336577
C52	C	0.064863	1.113119	0.163423
C53	C	-0.434724	0.527467	-0.334874
C54	C	0.065276	1.027467	0.165126
C55	C	-0.356884	0.412482	-0.356954
C56	C	0.143116	0.912482	0.143046
C57	C	-0.356848	0.728583	-0.356882
C58	C	0.143152	1.228583	0.143118
C59	C	-0.549268	1.070055	-0.356875
C60	C	-0.049268	1.570055	0.143125
C61	C	-0.631582	1.070079	-0.356886
C62	C	-0.131582	1.570079	0.143114
C63	C	-0.782291	1.070164	-0.356916
C64	C	-0.282291	1.570164	0.143084
C65	C	-0.813663	1.012914	-0.414093
C66	C	-0.313663	1.512914	0.085907
C67	C	-0.899281	1.013131	-0.414334
C68	C	-0.399281	1.513131	0.085666
C69	C	-0.930673	1.070247	-0.356945
C70	C	-0.430673	1.570247	0.143055
C71	C	-0.899497	1.148322	-0.377949
C72	C	-0.399497	1.648322	0.122051
C73	C	-0.813852	1.147943	-0.378347
C74	C	-0.313852	1.647943	0.121653
C75	C	-0.813914	1.050039	-0.278598
C76	C	-0.313914	1.550039	0.221402
C77	C	-0.899566	1.048365	-0.279032
C78	C	-0.399566	1.548365	0.220968
C79	C	-1.014533	1.070298	-0.356960
C80	C	-0.514533	1.570298	0.143040
C81	C	-0.698431	1.070118	-0.356903
C82	C	-0.198431	1.570118	0.143097
C83	C	-0.163696	1.070279	-0.356954
C84	C	0.336304	1.570279	0.143046
C85	C	-0.081382	1.070332	-0.356974
C86	C	0.418618	1.570332	0.143026
C87	C	-0.356839	1.070200	-0.550068
C88	C	0.143161	1.570200	-0.050068
C89	C	-0.356831	1.070218	-0.632382
C90	C	0.143169	1.570218	-0.132382
C91	C	-0.356880	1.263319	-0.356947
C92	C	0.143120	1.763319	0.143053
C93	C	-0.356890	1.345633	-0.356965
C94	C	0.143110	1.845633	0.143035
C95	C	-0.356692	1.070261	-0.931474
C96	C	0.143308	1.570261	-0.431474
C97	C	-0.413737	1.012795	-0.900122
C98	C	0.086263	1.512795	-0.400122
C99	C	-0.414001	1.012950	-0.814504
C100	C	0.085999	1.512950	-0.314504
C101	C	-0.356761	1.070239	-0.783091
C102	C	0.143239	1.570239	-0.283091
C103	C	-0.377948	1.148264	-0.814197
C104	C	0.122052	1.648264	-0.314197
C105	C	-0.378323	1.147944	-0.899842
C106	C	0.121677	1.647944	-0.399842
C107	C	-0.278334	1.050381	-0.899899
C108	C	0.221666	1.550381	-0.399899
C109	C	-0.278787	1.048645	-0.814248
C110	C	0.221213	1.548645	-0.314248
C111	C	-0.356799	1.070231	-0.699231
C112	C	0.143201	1.570231	-0.199231
C113	C	-0.356656	1.070274	-1.015333
C114	C	0.143344	1.570274	-0.515333
C115	C	-0.356823	1.070157	-0.164496
C116	C	0.143177	1.570157	0.335504
C117	C	-0.356622	1.070282	-0.082182
C118	C	0.143378	1.570282	0.417818
H119	H	-0.241876	0.634917	-0.313096
H120	H	0.258124	1.134917	0.186904
H121	H	-0.312322	0.506693	-0.242037
H122	H	0.187678	1.006693	0.257963
F123	F	-0.786825	0.936982	-0.397135
F124	F	-0.286825	1.436982	0.102865
H125	H	-0.477831	0.633392	-0.378183
H126	H	0.022169	1.133392	0.121817
F127	F	-0.453193	1.169971	-0.925962
F128	F	0.046807	1.669971	-0.425962
F129	F	-0.785770	0.976858	-0.253556
F130	F	-0.285770	1.476858	0.246444
H131	H	-0.793615	1.091731	-0.235999
H132	H	-0.293615	1.591731	0.264001
F133	F	-0.926208	0.973261	-0.258324
F134	F	-0.426208	1.473261	0.241676
F135	F	-0.253104	0.977305	-0.928111
F136	F	0.246896	1.477305	-0.428111
H137	H	-0.338578	1.192212	-0.920583
H138	H	0.161422	1.692212	-0.420583
F139	F	-0.257905	0.973589	-0.787682
F140	F	0.242095	1.473589	-0.287682
F141	F	-0.325349	1.205734	-0.787607
F142	F	0.174651	1.705734	-0.287607
F143	F	-0.455254	0.500859	-0.259712
F144	F	0.044746	1.000859	0.240288
F145	F	-0.387841	0.640245	-0.492274
F146	F	0.112159	1.140245	0.007726
F147	F	-0.222782	1.105089	-0.926402
F148	F	0.277218	1.605089	-0.426402
F149	F	-0.396581	0.936938	-0.927022
F150	F	0.103419	1.436938	-0.427022
F151	F	-0.223526	0.501003	-0.317602
F152	F	0.276474	1.001003	0.182398
F153	F	-0.489182	1.029744	-0.928299
F154	F	0.010818	1.529744	-0.428299
F155	F	-0.785489	1.030137	-0.489514
F156	F	-0.285489	1.530137	0.010486
F157	F	-0.489910	1.030140	-0.787727
F158	F	0.010090	1.530140	-0.287727
H159	H	-0.920903	1.165675	-0.434573
H160	H	-0.420903	1.665675	0.065427
F161	F	-0.316313	0.640240	-0.223812
F162	F	0.183687	1.140240	0.276188
F163	F	-0.927495	1.098904	-0.220397
F164	F	-0.427495	1.598904	0.279603
F165	F	-0.926013	1.030566	-0.490201
F166	F	-0.426013	1.530566	0.009799
H167	H	-0.434621	1.165409	-0.792754
H168	H	0.065379	1.665409	-0.292754
F169	F	-0.220284	1.099367	-0.786309
F170	F	0.279716	1.599367	-0.286309
H171	H	-0.278423	0.633132	-0.451896
H172	H	0.221577	1.133132	0.048104
H173	H	-0.400742	0.955091	-0.793471
H174	H	0.099258	1.455091	-0.293471
H175	H	-0.793093	1.192065	-0.338504
H176	H	-0.293093	1.692065	0.161496
F177	F	-0.388952	0.500896	-0.492241
F178	F	0.111048	1.000896	0.007759
H179	H	-0.793833	1.164977	-0.435591
H180	H	-0.293833	1.664977	0.064409
F181	F	-0.926842	0.937466	-0.397183
F182	F	-0.426842	1.437466	0.102817
F183	F	-0.262108	0.499485	-0.457918
F184	F	0.237892	0.999485	0.042082
H185	H	-0.454151	0.634680	-0.280551
H186	H	0.045849	1.134680	0.219449
H187	H	-0.919824	1.192165	-0.337593
H188	H	-0.419824	1.692165	0.162407
F189	F	-0.493489	0.499543	-0.385278
F190	F	0.006511	0.999543	0.114722
