data_functionalizedCrystal
_audit_creation_method	'MofGen! by Chris Wilmer'
_symmetry_space_group_name_H-M	'P1'
_symmetry_Int_Tables_number	1
_symmetry_cell_setting	triclinic
loop_
_symmetry_equiv_pos_as_xyz
  x,y,z
_cell_length_a	19.188930
_cell_length_b	14.519709
_cell_length_c	18.266242
_cell_angle_alpha	90.001403
_cell_angle_beta	90.013084
_cell_angle_gamma	83.412464
loop_
_atom_site_label
_atom_site_type_symbol
_atom_site_fract_x
_atom_site_fract_y
_atom_site_fract_z
O1	O	0.926549	0.115140	0.061107
O2	O	0.723293	0.130639	0.061055
O3	O	0.830310	-0.011382	0.061089
O4	O	0.819532	0.257162	0.061073
O5	O	0.830312	-0.011396	-0.060673
O6	O	0.723295	0.130626	-0.060707
O7	O	0.926551	0.115126	-0.060655
Zn8	Zn	0.824924	0.122874	-0.080014
Zn9	Zn	0.824921	0.122892	0.080413
O10	O	0.819534	0.257148	-0.060689
C11	C	0.697281	0.130131	0.000168
C12	C	0.619771	0.128624	0.000148
C13	C	0.829809	-0.045746	0.000211
C14	C	0.828304	-0.148118	0.000220
N15	N	0.824931	0.122861	-0.189500
C16	C	0.575144	0.211957	0.000155
C17	C	0.502315	0.210542	0.000163
C18	C	0.474117	0.125788	0.000179
C19	C	0.518754	0.042444	0.000169
C20	C	0.591581	0.043861	0.000153
N21	N	0.365905	0.061009	0.041654
N22	N	0.296722	0.059668	0.041670
C23	C	0.254693	0.121511	0.000224
N24	N	0.284460	0.184760	-0.041229
N25	N	0.353649	0.186104	-0.041242
C26	C	0.395149	0.124241	0.000196
C27	C	0.131096	0.203315	0.000239
C28	C	0.058266	0.201896	0.000242
C29	C	0.074706	0.033796	0.000255
C30	C	0.147535	0.035217	0.000244
C31	C	0.175725	0.119980	0.000240
C32	C	0.952563	0.115635	0.000234
C33	C	1.030073	0.117142	0.000257
C34	C	0.820035	0.291511	0.000190
C35	C	0.821541	0.393883	0.000186
C36	C	0.827082	0.768745	0.000216
C37	C	0.825543	0.664446	0.000207
C38	C	0.824311	0.581317	0.000200
C39	C	0.822772	0.477012	0.000193
N40	N	0.824919	0.122897	0.189900
C41	C	0.872391	0.060133	0.228224
C42	C	0.872397	0.060131	0.304869
C43	C	0.824919	0.122885	0.343187
C44	C	0.777444	0.185661	0.304854
C45	C	0.777443	0.185668	0.228210
N46	N	0.763154	0.134675	0.463510
N47	N	0.763157	0.134663	0.536318
C48	C	0.824918	0.122871	0.574109
N49	N	0.886679	0.111072	0.536342
N50	N	0.886676	0.111079	0.463527
C51	C	0.824915	0.122885	0.426294
C52	C	0.872401	0.060101	0.695540
C53	C	0.872408	0.060105	0.772187
C54	C	0.777448	0.185631	0.772170
C55	C	0.777447	0.185631	0.695525
C56	C	0.824923	0.122861	0.657215
H57	H	0.465973	0.278404	0.000166
H58	H	0.911057	0.009018	0.336078
H59	H	0.738785	0.236780	0.197006
H60	H	0.738787	0.236758	0.336056
H61	H	0.021931	0.269760	0.000243
H62	H	0.598091	0.280978	0.000152
C63	C	0.924630	-0.008941	0.814343
H64	H	0.952898	-0.046326	0.780547
H65	H	0.953683	0.024212	0.844250
H66	H	0.899522	-0.047320	0.844233
C67	C	0.924625	-0.008937	0.653396
H68	H	0.952906	-0.046311	0.687201
H69	H	0.899523	-0.047315	0.623491
H70	H	0.953675	0.024229	0.623505
H71	H	0.051748	-0.035213	0.000314
H72	H	0.627917	-0.024001	0.000148
C73	C	0.725230	0.254669	0.814311
H74	H	0.732028	0.245677	0.865446
H75	H	0.732802	0.316224	0.801751
H76	H	0.678643	0.244690	0.801743
C77	C	0.162109	0.296548	0.000226
H78	H	0.125096	0.345978	0.000221
H79	H	0.190191	0.300601	0.042682
H80	H	0.190162	0.300589	-0.042245
H81	H	0.183871	-0.032642	0.000243
C82	C	0.924621	-0.008900	0.186087
H83	H	0.952900	-0.046274	0.219893
H84	H	0.899526	-0.047278	0.156175
H85	H	0.953673	0.024274	0.156203
H86	H	0.738788	0.236737	0.664320
H87	H	0.495790	-0.026564	0.000192
