data_functionalizedCrystal
_audit_creation_method	'MofGen! by Chris Wilmer'
_symmetry_space_group_name_H-M	'P1'
_symmetry_Int_Tables_number	1
_symmetry_cell_setting	triclinic
loop_
_symmetry_equiv_pos_as_xyz
  x,y,z
_cell_length_a	19.805407
_cell_length_b	21.295417
_cell_length_c	19.805407
_cell_angle_alpha	90.016337
_cell_angle_beta	90.002724
_cell_angle_gamma	90.029702
loop_
_atom_site_label
_atom_site_type_symbol
_atom_site_fract_x
_atom_site_fract_y
_atom_site_fract_z
Zn1	Zn	1.034608	-0.250707	0.382709
Zn2	Zn	1.534608	0.249293	0.882709
Zn3	Zn	1.034549	-0.355951	0.269516
Zn4	Zn	1.534549	0.144049	0.769516
Zn5	Zn	0.921456	-0.250700	0.269534
Zn6	Zn	1.421456	0.249300	0.769534
Zn7	Zn	0.921379	-0.355943	0.382663
Zn8	Zn	1.421379	0.144057	0.882663
O9	O	0.977998	-0.303325	0.326106
O10	O	1.477998	0.196675	0.826106
O11	O	1.129316	-0.264675	0.367706
O12	O	1.629316	0.235325	0.867706
O13	O	1.019555	-0.341990	0.174802
O14	O	1.519555	0.158010	0.674802
O15	O	0.936522	-0.162612	0.284573
O16	O	1.436522	0.337388	0.784573
O17	O	1.129274	-0.341997	0.284544
O18	O	1.629274	0.158003	0.784544
O19	O	1.019654	-0.162617	0.367722
O20	O	1.519654	0.337383	0.867722
O21	O	0.936465	-0.264662	0.174815
O22	O	1.436465	0.235338	0.674815
O23	O	0.826729	-0.264654	0.284529
O24	O	1.326729	0.235346	0.784529
O25	O	0.936392	-0.341982	0.477386
O26	O	1.436392	0.158018	0.977386
O27	O	0.826673	-0.341975	0.367644
O28	O	1.326673	0.158025	0.867644
O29	O	1.019580	-0.264667	0.477419
O30	O	1.519580	0.235333	0.977419
O31	O	1.019481	-0.444040	0.284499
O32	O	1.519481	0.055960	0.784499
O33	O	0.936335	-0.444033	0.367628
O34	O	1.436335	0.055967	0.867628
C35	C	0.802142	-0.303313	0.326084
C36	C	1.302142	0.196687	0.826084
C37	C	0.726910	-0.303323	0.326090
C38	C	1.226910	0.196677	0.826090
C39	C	0.977912	-0.466877	0.326071
C40	C	1.477912	0.033123	0.826071
C41	C	0.977937	-0.536845	0.326079
C42	C	1.477937	-0.036845	0.826079
C43	C	0.691554	-0.343645	0.369299
C44	C	1.191554	0.156355	0.869299
C45	C	0.620866	-0.343646	0.369308
C46	C	1.120866	0.156354	0.869308
C47	C	0.585534	-0.303328	0.326106
C48	C	1.085534	0.196672	0.826106
C49	C	0.620895	-0.263002	0.282895
C50	C	1.120895	0.236998	0.782895
C51	C	0.691582	-0.262998	0.282890
C52	C	1.191582	0.237002	0.782890
C53	C	0.335822	-0.263016	0.282918
C54	C	0.835822	0.236984	0.782918
C55	C	0.265129	-0.263024	0.282925
C56	C	0.765129	0.236976	0.782925
C57	C	0.265105	-0.343664	0.369336
C58	C	0.765105	0.156336	0.869336
C59	C	0.335793	-0.343660	0.369331
C60	C	0.835793	0.156340	0.869331
C61	C	0.371147	-0.303332	0.326123
C62	C	0.871147	0.196668	0.826123
C63	C	0.447795	-0.303330	0.326114
C64	C	0.947795	0.196670	0.826114
C65	C	0.508887	-0.303333	0.326111
C66	C	1.008887	0.196667	0.826111
C67	C	1.021199	-0.569657	0.369406
C68	C	1.521199	-0.069657	0.869406
C69	C	1.021223	-0.635400	0.369423
C70	C	1.521223	-0.135400	0.869423
C71	C	0.977992	-0.668328	0.326101
C72	C	1.477992	-0.168328	0.826101
C73	C	0.934721	-0.635507	0.282771
C74	C	1.434721	-0.135507	0.782771
C75	C	0.934693	-0.569766	0.282760
C76	C	1.434693	-0.069766	0.782760
N77	N	0.972898	-0.771576	0.266865
N78	N	1.472898	-0.271576	0.766865
N79	N	0.972928	-0.834027	0.266877
N80	N	1.472928	-0.334027	0.766877
C81	C	0.978071	-0.866402	0.326131
C82	C	1.478071	-0.366402	0.826131
N83	N	0.983196	-0.833967	0.385374
N84	N	1.483196	-0.333967	0.885374
N85	N	0.983169	-0.771509	0.385361
N86	N	1.483169	-0.271509	0.885361
C87	C	0.978016	-0.739613	0.326108
C88	C	1.478016	-0.239613	0.826108
C89	C	1.021361	-0.970500	0.369480
C90	C	1.521361	-0.470500	0.869480
C91	C	1.021380	-1.036244	0.369498
C92	C	1.521380	-0.536244	0.869498
C93	C	0.934882	-1.036350	0.282839
C94	C	1.434882	-0.536350	0.782839
C95	C	0.934859	-0.970608	0.282828
C96	C	1.434859	-0.470608	0.782828
C97	C	0.978102	-0.937687	0.326147
C98	C	1.478102	-0.437687	0.826147
C99	C	1.154541	-0.303338	0.326128
C100	C	1.654541	0.196662	0.826128
C101	C	1.229773	-0.303343	0.326137
C102	C	1.729773	0.196657	0.826137
C103	C	0.977984	-0.303324	0.502648
C104	C	1.477984	0.196676	1.002648
C105	C	0.977978	-0.303324	0.577880
C106	C	1.477978	0.196676	1.077880
C107	C	0.978103	-0.139135	0.326155
C108	C	1.478103	0.360865	0.826155
C109	C	0.978148	-0.069167	0.326176
C110	C	1.478148	0.430833	0.826176
C111	C	1.021266	-0.343597	1.039662
C112	C	1.521266	0.156403	1.539662
C113	C	1.021260	-0.343597	0.968974
C114	C	1.521260	0.156403	1.468974
C115	C	0.977997	-0.303337	0.933642
C116	C	1.477997	0.196663	1.433642
C117	C	0.934733	-0.263077	0.969002
C118	C	1.434733	0.236923	1.469002
C119	C	0.934736	-0.263080	1.039689
C120	C	1.434736	0.236920	1.539689
C121	C	0.934720	-0.263064	0.683929
C122	C	1.434720	0.236936	1.183929
C123	C	0.934722	-0.263063	0.613237
C124	C	1.434722	0.236937	1.113237
C125	C	1.021243	-0.343581	0.613213
C126	C	1.521243	0.156419	1.113213
C127	C	1.021246	-0.343584	0.683900
C128	C	1.521246	0.156416	1.183900
C129	C	0.977980	-0.303328	0.719255
C130	C	1.477980	0.196672	1.219255
C131	C	0.977986	-0.303328	0.795903
C132	C	1.477986	0.196672	1.295903
C133	C	0.977994	-0.303332	0.856995
C134	C	1.477994	0.196668	1.356995
C135	C	0.978005	-0.303340	1.150250
C136	C	1.478005	0.196660	1.650250
C137	C	0.978006	-0.303339	1.075018
C138	C	1.478006	0.196661	1.575018
H139	H	0.720316	-0.376479	0.404477
H140	H	1.220316	0.123521	0.904477
H141	H	1.056470	-0.376362	0.584419
H142	H	1.556470	0.123638	1.084419
H143	H	1.056609	-1.062959	0.404783
H144	H	1.556609	-0.562959	0.904783
H145	H	0.899678	-1.063159	0.247570
H146	H	1.399678	-0.563159	0.747570
H147	H	0.899511	-0.230298	1.068475
H148	H	1.399511	0.269702	1.568475
H149	H	0.364599	-0.230183	0.247730
H150	H	0.864599	0.269817	0.747730
H151	H	0.592122	-0.230172	0.247722
H152	H	1.092122	0.269828	0.747722
H153	H	0.899634	-0.943890	0.247544
H154	H	1.399634	-0.443890	0.747544
H155	H	1.056408	-0.542855	0.404681
H156	H	1.556408	-0.042855	0.904681
H157	H	1.056498	-0.376379	1.068424
H158	H	1.556498	0.123621	1.568424
H159	H	0.236364	-0.230189	0.247744
H160	H	0.736364	0.269811	0.747744
H161	H	0.592082	-0.376481	0.404492
H162	H	1.092082	0.123519	0.904492
H163	H	0.899490	-0.230276	0.584472
H164	H	1.399490	0.269724	1.084472
H165	H	0.236311	-0.376499	0.404520
H166	H	0.736311	0.123501	0.904520
H167	H	0.364556	-0.376493	0.404508
H168	H	0.864556	0.123507	0.904508
H169	H	1.056477	-0.376387	0.940191
H170	H	1.556477	0.123613	1.440191
H171	H	1.056477	-0.376367	0.712664
H172	H	1.556477	0.123633	1.212664
H173	H	0.720368	-0.230161	0.247709
H174	H	1.220368	0.269839	0.747709
H175	H	0.899489	-0.230285	0.712706
H176	H	1.399489	0.269715	1.212706
H177	H	1.056446	-0.662121	0.404713
H178	H	1.556446	-0.162121	0.904713
H179	H	0.899505	-0.230299	0.940229
H180	H	1.399505	0.269701	1.440229
H181	H	0.899520	-0.662321	0.247499
H182	H	1.399520	-0.162321	0.747499
H183	H	0.899463	-0.543050	0.247477
H184	H	1.399463	-0.043050	0.747477
H185	H	1.056570	-0.943695	0.404755
H186	H	1.556570	-0.443695	0.904755
