data_functionalizedCrystal
_audit_creation_method	'MofGen! by Chris Wilmer'
_symmetry_space_group_name_H-M	'P1'
_symmetry_Int_Tables_number	1
_symmetry_cell_setting	triclinic
loop_
_symmetry_equiv_pos_as_xyz
  x,y,z
_cell_length_a	10.654556
_cell_length_b	10.654551
_cell_length_c	17.766277
_cell_angle_alpha	89.996514
_cell_angle_beta	89.990242
_cell_angle_gamma	84.486385
loop_
_atom_site_label
_atom_site_type_symbol
_atom_site_fract_x
_atom_site_fract_y
_atom_site_fract_z
O1	O	1.667846	0.176437	-0.062597
O2	O	1.302369	0.193235	-0.062596
O3	O	1.493510	0.002097	-0.062597
O4	O	1.476705	0.367575	-0.062596
O5	O	1.493476	0.002087	0.062592
O6	O	1.302335	0.193225	0.062592
O7	O	1.667812	0.176427	0.062592
Cu8	Cu	1.485070	0.184825	0.074023
Cu9	Cu	1.485110	0.184837	-0.074027
O10	O	1.476671	0.367565	0.062593
C11	C	1.255554	0.191995	-0.000002
C12	C	1.116111	0.188300	-0.000002
C13	C	0.919599	0.183106	-0.068248
C14	C	1.050622	0.186571	-0.068245
C15	C	1.050573	0.186552	0.068243
C16	C	0.919554	0.183079	0.068238
C17	C	0.919628	0.183122	-0.147048
C18	C	1.050650	0.186587	-0.147045
C19	C	1.492259	-0.044706	-0.000004
C20	C	1.488566	-0.184149	-0.000009
C21	C	1.486852	-0.249655	-0.068248
C22	C	1.483372	-0.380676	-0.068245
C23	C	1.483325	-0.380672	0.068243
C24	C	1.486796	-0.249653	0.068238
C25	C	1.486885	-0.249659	-0.147048
C26	C	1.483405	-0.380680	-0.147045
C27	C	1.714627	0.177667	-0.000004
C28	C	1.854070	0.181362	-0.000009
C29	C	1.477922	0.414368	-0.000002
C30	C	1.481615	0.553811	-0.000002
N31	N	1.485051	0.184816	0.178153
N32	N	1.485139	0.184837	-0.178157
C33	C	1.569716	0.100222	0.217540
C34	C	1.569724	0.100217	0.296342
C35	C	1.485078	0.184826	0.335754
C36	C	1.400396	0.269426	0.296358
C37	C	1.400383	0.269421	0.217557
C38	C	1.469619	0.299064	0.460592
C39	C	1.469641	0.299071	0.539391
C40	C	1.485111	0.184842	0.578800
C41	C	1.500587	0.070601	0.539401
C42	C	1.500573	0.070596	0.460601
C43	C	1.485082	0.184841	0.421199
C44	C	1.569789	0.100235	0.703633
C45	C	1.569788	0.100227	0.782436
C46	C	1.400467	0.269448	0.782450
C47	C	1.400462	0.269445	0.703649
C48	C	1.485130	0.184839	0.664245
H49	H	0.867929	0.272568	-0.171499
H50	H	1.513170	-0.022422	0.428525
H51	H	1.513184	-0.022415	0.571486
H52	H	1.391815	-0.410247	-0.171502
H53	H	1.578491	-0.220089	-0.171498
C54	C	1.307355	0.362521	0.825799
N55	N	1.237221	0.432626	0.858453
C56	C	1.084217	0.306390	-0.187912
N57	N	1.109499	0.396623	-0.218691
C58	C	1.600672	-0.443218	-0.187909
N59	N	1.688995	-0.490320	-0.218686
C60	C	1.662913	0.007157	0.660285
N61	N	1.733053	-0.062953	0.627638
C62	C	1.662842	0.007141	0.174200
N63	N	1.732981	-0.062972	0.141555
C64	C	1.662878	0.007166	0.339676
N65	N	1.733048	-0.062915	0.372312
C66	C	0.886097	0.063326	-0.187918
N67	N	0.860841	-0.026905	-0.218698
C68	C	1.662910	0.007141	0.825761
N69	N	1.733046	-0.062979	0.858394
H70	H	1.481881	-0.434022	0.123807
H71	H	1.331525	0.338334	0.671578
H72	H	1.457048	0.392092	0.571464
C73	C	1.369646	-0.187129	-0.187921
N74	N	1.281341	-0.140031	-0.218703
C75	C	1.452599	0.424733	0.417250
N76	N	1.439781	0.519384	0.384605
C77	C	1.307280	0.362492	0.339713
N78	N	1.237138	0.432587	0.372367
H79	H	1.331437	0.338309	0.185488
H80	H	0.866208	0.181633	0.123805
H81	H	1.103906	0.187950	0.123807
H82	H	1.488184	-0.196322	0.123805
H83	H	1.102363	0.097142	-0.171497
