data_functionalizedCrystal
_audit_creation_method	'MofGen! by Chris Wilmer'
_symmetry_space_group_name_H-M	'P1'
_symmetry_Int_Tables_number	1
_symmetry_cell_setting	triclinic
loop_
_symmetry_equiv_pos_as_xyz
  x,y,z
_cell_length_a	27.732048
_cell_length_b	27.731996
_cell_length_c	13.101039
_cell_angle_alpha	93.327690
_cell_angle_beta	86.675896
_cell_angle_gamma	82.632022
loop_
_atom_site_label
_atom_site_type_symbol
_atom_site_fract_x
_atom_site_fract_y
_atom_site_fract_z
O1	O	0.643592	0.054834	-0.085094
O2	O	0.502798	0.063579	-0.085127
O3	O	0.577580	-0.011191	-0.085088
O4	O	0.568810	0.129605	-0.085134
O5	O	0.572215	-0.005818	0.085339
O6	O	0.497433	0.068953	0.085300
O7	O	0.638227	0.060208	0.085333
Zn8	Zn	0.566978	0.065433	0.112375
Zn9	Zn	0.574047	0.058354	-0.112170
O10	O	0.563444	0.134978	0.085293
C11	C	0.482109	0.066082	0.000082
C12	C	0.428454	0.065529	0.000071
C13	C	0.574717	-0.026512	0.000129
C14	C	0.574174	-0.080168	0.000140
C15	C	0.089631	0.106235	0.000102
C16	C	-0.112029	0.104184	0.000112
O17	O	-0.143293	0.141407	0.000144
N18	N	-0.131145	0.059848	0.000124
C19	C	-0.099843	0.016022	0.000141
O20	O	-0.120729	-0.021735	0.000163
C21	C	0.101816	0.018073	0.000139
C22	C	0.120929	0.062412	0.000116
C23	C	0.108744	0.150570	0.000080
C24	C	0.159156	0.151082	0.000072
C25	C	0.190455	0.107259	0.000086
C26	C	0.171341	0.062924	0.000108
C27	C	0.133117	-0.025752	0.000163
C28	C	0.183534	-0.025235	0.000165
C29	C	0.202647	0.019103	0.000142
C30	C	0.253052	0.019613	0.000114
N31	N	0.272167	0.063949	0.000101
C32	C	0.240869	0.107772	0.000087
C33	C	-0.205716	0.014948	0.000141
C34	C	-0.256131	0.014435	0.000139
C35	C	-0.268314	0.102597	0.000112
C36	C	-0.217898	0.103109	0.000105
C37	C	-0.186601	0.059284	0.000128
C38	C	0.346739	0.108844	0.000069
C39	C	0.397156	0.109352	0.000057
C40	C	0.409334	0.021190	0.000090
C41	C	0.358922	0.020681	0.000097
C42	C	0.327624	0.064512	0.000090
O43	O	0.284343	-0.017589	0.000093
O44	O	0.261764	0.145524	0.000088
C45	C	0.039218	0.105723	0.000110
C46	C	0.020105	0.061388	0.000132
C47	C	0.051403	0.017565	0.000146
C48	C	-0.030310	0.060875	0.000131
C49	C	-0.061608	0.104698	0.000117
C50	C	-0.042492	0.149034	0.000104
C51	C	0.007920	0.149546	0.000096
C52	C	0.032287	-0.026771	0.000159
C53	C	-0.018125	-0.027280	0.000165
C54	C	-0.049424	0.016543	0.000151
C55	C	0.573686	-0.415815	-0.092811
C56	C	0.571625	-0.617473	-0.092830
O57	O	0.573826	-0.646035	-0.171838
N58	N	0.568445	-0.639761	0.000069
C59	C	0.565776	-0.611631	0.092979
O60	O	0.563018	-0.635215	0.171995
C61	C	0.567833	-0.409973	0.092997
C62	C	0.571019	-0.387688	0.000092
C63	C	0.576871	-0.393530	-0.185708
C64	C	0.577389	-0.343118	-0.185703
C65	C	0.574721	-0.314992	-0.092800
C66	C	0.571536	-0.337277	0.000097
C67	C	0.565160	-0.381843	0.185906
C68	C	0.565674	-0.331425	0.185902
C69	C	0.568859	-0.309141	0.092997
C70	C	0.569387	-0.258739	0.093006
N71	N	0.572567	-0.236451	0.000107
C72	C	0.575235	-0.264577	-0.092796
C73	C	0.564697	-0.717505	0.092964
C74	C	0.564184	-0.767919	0.092960
C75	C	0.570032	-0.773758	-0.092850
C76	C	0.570549	-0.723343	-0.092845
C77	C	0.567878	-0.695217	0.000065
C78	C	0.576322	-0.158710	-0.092777
C79	C	0.576842	-0.108294	-0.092763
C80	C	0.570990	-0.102459	0.093045
C81	C	0.570473	-0.152871	0.093032
C82	C	0.573138	-0.180995	0.000113
O83	O	0.567183	-0.230147	0.171973
O84	O	0.577981	-0.240983	-0.171800
C85	C	0.573168	-0.466226	-0.092817
C86	C	0.569983	-0.488511	0.000081
C87	C	0.567316	-0.460384	0.092984
C88	C	0.569470	-0.538925	0.000077
C89	C	0.572137	-0.567052	-0.092826
C90	C	0.575318	-0.544764	-0.185725
C91	C	0.575836	-0.494352	-0.185720
C92	C	0.564135	-0.482673	0.185882
C93	C	0.563618	-0.533084	0.185869
C94	C	0.566285	-0.561211	0.092966
C95	C	0.658916	0.057705	0.000121
C96	C	0.712571	0.058258	0.000125
C97	C	0.566308	0.150298	0.000074
C98	C	0.566851	0.203954	0.000057
N99	N	0.562157	0.070265	0.265621
N100	N	0.578872	0.053518	-0.265416
C101	C	0.555597	0.076843	0.474660
C102	C	0.585430	0.046942	0.525552
C103	C	0.581780	0.050602	0.641868
C104	C	0.559246	0.073183	0.358333
H105	H	0.321262	0.144535	0.000067
H106	H	0.561597	-0.786060	0.168612
O107	O	-0.199280	0.146153	0.000223
C108	C	-0.173270	0.151881	0.088502
H109	H	-0.161349	0.114615	0.117947
H110	H	-0.139775	0.170275	0.068644
H111	H	-0.197651	0.175385	0.150298
H112	H	0.083265	0.186258	0.000072
O113	O	0.062702	-0.069324	0.000346
C114	C	0.089469	-0.068887	0.088590
H115	H	0.068886	-0.042083	0.150285
H116	H	0.094495	-0.106936	0.118221
H117	H	0.126669	-0.057290	0.068623
H118	H	0.527318	0.105188	0.518442
H119	H	0.412715	0.145459	0.000037
H120	H	-0.271687	-0.021671	0.000142
O121	O	0.578973	-0.186081	-0.182977
C122	C	0.620736	-0.221202	-0.188560
H123	H	0.632081	-0.228163	-0.107901
H124	H	0.612191	-0.256581	-0.227910
H125	H	0.651704	-0.207263	-0.234383
O126	O	0.578986	-0.472681	-0.275926
C127	C	0.621320	-0.449456	-0.281509
H128	H	0.648804	-0.467039	-0.228838
H129	H	0.637943	-0.453391	-0.363694
H130	H	0.611448	-0.409159	-0.256510
H131	H	-0.293806	0.138279	0.000100
O132	O	0.177637	0.194197	0.000107
C133	C	0.139194	0.232760	0.000074
H134	H	0.104032	0.220481	0.032339
H135	H	0.147937	0.265298	0.049550
H136	H	0.134528	0.243684	-0.081691
O137	O	0.213869	-0.067855	0.000136
C138	C	0.186183	-0.107094	0.000182
H139	H	0.149473	-0.095551	-0.032082
H140	H	0.206562	-0.139337	-0.049289
H141	H	0.180126	-0.118123	0.081950
H142	H	-0.180237	-0.020742	0.000159
O143	O	0.114542	-0.068817	0.000009
C144	C	0.088510	-0.074542	-0.088239
H145	H	0.102176	-0.051318	-0.149948
H146	H	0.094267	-0.114470	-0.117843
H147	H	0.048036	-0.062468	-0.068285
O148	O	0.340432	-0.022430	0.000151
C149	C	0.378871	-0.060999	0.000126
H150	H	0.412009	-0.046694	0.032379
H151	H	0.367015	-0.090418	0.049617
H152	H	0.388672	-0.077075	-0.081635
O153	O	0.561614	-0.455312	0.276067
C154	C	0.603626	-0.431781	0.281650
H155	H	0.620202	-0.428691	0.200992
H156	H	0.593336	-0.393792	0.320982
H157	H	0.631311	-0.453830	0.327491
O158	O	0.573551	-0.701713	-0.183124
C159	C	0.533330	-0.710041	-0.239649
H160	H	0.502209	-0.718139	-0.185285
H161	H	0.520932	-0.676276	-0.281809
H162	H	0.544324	-0.742442	-0.297559
O163	O	0.439809	-0.021332	0.000152
C164	C	0.488404	-0.011367	0.000121
H165	H	0.489034	0.027606	0.032363
H166	H	0.509903	-0.037758	0.049618
H167	H	0.505570	-0.015892	-0.081640
O168	O	0.026401	0.192661	0.000125
C169	C	-0.012042	0.231224	0.000089
H170	H	-0.047204	0.218946	0.032360
H171	H	-0.003298	0.263763	0.049559
H172	H	-0.016710	0.242145	-0.081677
O173	O	-0.036609	-0.070395	0.000232
C174	C	0.001833	-0.108961	0.000219
H175	H	0.034970	-0.094650	0.032466
H176	H	-0.010021	-0.138378	0.049720
H177	H	0.011635	-0.125042	-0.081537
O178	O	-0.072945	0.191568	-0.000046
C179	C	-0.099691	0.191129	-0.088321
H180	H	-0.101023	0.151851	-0.117738
H181	H	-0.138347	0.210044	-0.068469
H182	H	-0.081331	0.211135	-0.150136
O183	O	0.579915	-0.086722	-0.183107
C184	C	0.582169	-0.122363	-0.265103
H185	H	0.565633	-0.155325	-0.237870
H186	H	0.560887	-0.106594	-0.330085
H187	H	0.621808	-0.133990	-0.293660
O188	O	0.619071	0.013079	0.473164
C189	C	0.615202	0.016844	0.367008
H190	H	0.597475	0.055011	0.352401
H191	H	0.653081	0.009726	0.326041
H192	H	0.591923	-0.011160	0.336739
O193	O	0.580458	-0.321548	-0.276043
C194	C	0.582712	-0.357194	-0.358031
H195	H	0.566180	-0.390156	-0.330786
H196	H	0.561426	-0.341430	-0.423013
H197	H	0.622350	-0.368818	-0.386593
H198	H	0.572205	-0.796667	-0.168495
O199	O	0.579377	-0.420856	-0.275936
C200	C	0.537384	-0.444416	-0.281521
H201	H	0.506603	-0.423526	-0.228807
H202	H	0.525912	-0.445621	-0.363696
H203	H	0.545679	-0.483151	-0.256579
H204	H	0.562524	-0.694609	0.168626
O205	O	0.562038	-0.403401	0.276247
C206	C	0.559803	-0.367757	0.358232
H207	H	0.545723	-0.330562	0.330975
H208	H	0.534126	-0.377026	0.423200
H209	H	0.597751	-0.366860	0.386818
O210	O	0.562993	-0.304069	0.276128
C211	C	0.521244	-0.268933	0.281661
H212	H	0.493478	-0.281736	0.228927
H213	H	0.504602	-0.263833	0.363822
H214	H	0.531890	-0.232820	0.256709
H215	H	0.567883	-0.171017	0.168683
O216	O	0.568310	-0.075096	0.183256
C217	C	0.526559	-0.039963	0.188762
H218	H	0.498797	-0.052775	0.136030
H219	H	0.509913	-0.034853	0.270920
H220	H	0.537204	-0.003852	0.163789
H221	H	0.577492	-0.567673	-0.261370
H222	H	0.561027	-0.551224	0.261529
