data_functionalizedCrystal
_audit_creation_method	'MofGen! by Chris Wilmer'
_symmetry_space_group_name_H-M	'P1'
_symmetry_Int_Tables_number	1
_symmetry_cell_setting	triclinic
loop_
_symmetry_equiv_pos_as_xyz
  x,y,z
_cell_length_a	15.538191
_cell_length_b	11.792254
_cell_length_c	14.185569
_cell_angle_alpha	76.752482
_cell_angle_beta	97.875798
_cell_angle_gamma	65.735346
loop_
_atom_site_label
_atom_site_type_symbol
_atom_site_fract_x
_atom_site_fract_y
_atom_site_fract_z
O1	O	1.226826	-0.333376	-0.083428
O2	O	0.953240	-0.202603	-0.083428
O3	O	1.096668	-0.435944	-0.083421
O4	O	1.083398	-0.100035	-0.083435
O5	O	1.139037	-0.504869	0.083416
O6	O	0.995610	-0.271528	0.083409
O7	O	1.269196	-0.402301	0.083409
Cu8	Cu	1.136271	-0.343208	0.098642
Cu9	Cu	1.086164	-0.261696	-0.098661
O10	O	1.125768	-0.168960	0.083402
C11	C	0.939400	-0.223384	-0.000010
C12	C	0.835036	-0.182629	-0.000009
C13	C	0.545162	-0.587519	-0.000008
C14	C	0.447093	-0.549194	-0.000010
C15	C	0.425757	-0.333627	-0.000019
C16	C	0.523828	-0.371935	-0.000012
C17	C	0.583523	-0.498883	-0.000007
C18	C	0.562188	-0.283299	-0.000011
C19	C	0.660249	-0.321604	-0.000009
C20	C	0.719949	-0.448544	-0.000008
C21	C	0.681583	-0.537187	-0.000005
C22	C	0.502489	-0.156350	-0.000023
C23	C	0.540850	-0.067714	-0.000022
C24	C	0.638914	-0.106020	-0.000013
C25	C	0.698614	-0.232961	-0.000012
C26	C	0.677280	-0.017377	-0.000016
C27	C	0.775340	-0.055682	-0.000014
C28	C	0.796675	-0.271265	-0.000010
C29	C	1.117017	-0.512347	-0.000003
C30	C	1.114515	-0.637310	-0.000004
C31	C	1.112482	-0.738793	-0.000007
C32	C	1.109938	-0.866110	-0.000016
C33	C	1.283035	-0.381520	-0.000012
C34	C	1.387398	-0.422272	-0.000019
C35	C	1.105418	-0.092557	-0.000019
C36	C	1.107918	0.032410	-0.000024
N37	N	1.171521	-0.400543	0.237415
N38	N	1.050922	-0.204373	-0.237434
C39	C	0.947358	-0.035973	0.605054
C40	C	0.974066	-0.079398	0.710077
C41	C	1.101097	-0.285975	0.710044
C42	C	1.074397	-0.242569	0.605019
C43	C	0.997528	-0.117567	0.552532
C44	C	1.124567	-0.324163	0.552497
C45	C	1.097872	-0.280757	0.447482
C46	C	1.021007	-0.155758	0.394987
C47	C	0.970833	-0.074161	0.447516
C48	C	1.201440	-0.449161	0.604986
C49	C	1.251610	-0.530755	0.552465
C50	C	1.224911	-0.487354	0.447447
C51	C	1.148046	-0.362355	0.394953
C52	C	1.275085	-0.568951	0.394918
C53	C	1.248390	-0.525545	0.289902
C54	C	1.121351	-0.318949	0.289937
H55	H	0.422642	-0.125166	-0.000028
H56	H	0.415865	-0.621381	-0.000012
H57	H	1.223175	-0.484495	0.690497
H58	H	0.884757	0.065812	0.562317
H59	H	0.933206	-0.012943	0.752835
H60	H	1.314201	-0.632532	0.595211
H61	H	0.799793	-0.479723	-0.000020
H62	H	0.377139	-0.230264	-0.000027
H63	H	1.337679	-0.670724	0.437666
H64	H	0.492232	0.035649	-0.000030
H65	H	0.845284	-0.374640	-0.000000
H66	H	0.730193	-0.640562	0.000004
H67	H	0.593772	-0.690894	0.000002
H68	H	0.628659	0.085987	-0.000030
H69	H	0.806576	0.016491	-0.000004
H70	H	1.163688	-0.387752	0.752791
H71	H	1.289245	-0.591988	0.247138
H72	H	1.058750	-0.217165	0.247200
H73	H	0.999276	-0.120417	0.309477
H74	H	0.908231	0.027623	0.404780
