data_functionalizedCrystal
_audit_creation_method	'MofGen! by Chris Wilmer'
_symmetry_space_group_name_H-M	'P1'
_symmetry_Int_Tables_number	1
_symmetry_cell_setting	triclinic
loop_
_symmetry_equiv_pos_as_xyz
  x,y,z
_cell_length_a	10.654541
_cell_length_b	11.792241
_cell_length_c	9.730217
_cell_angle_alpha	89.996588
_cell_angle_beta	89.999932
_cell_angle_gamma	84.338672
loop_
_atom_site_label
_atom_site_type_symbol
_atom_site_fract_x
_atom_site_fract_y
_atom_site_fract_z
O1	O	1.667388	0.159405	-0.114248
O2	O	1.301866	0.174596	-0.114261
O3	O	1.493497	0.001850	-0.114245
O4	O	1.475756	0.332151	-0.114264
O5	O	1.493491	0.001849	0.114336
O6	O	1.301860	0.174595	0.114320
O7	O	1.667382	0.159403	0.114332
Zn8	Zn	1.484620	0.166999	0.150618
Zn9	Zn	1.484628	0.167001	-0.150547
O10	O	1.475750	0.332149	0.114316
C11	C	1.255068	0.173481	0.000028
C12	C	1.115634	0.170145	0.000024
C13	C	1.087078	0.376710	-0.000006
C14	C	1.007297	0.478420	-0.000026
C15	C	0.876287	0.475279	-0.000027
C16	C	0.825059	0.370416	-0.000004
C17	C	0.904841	0.268706	0.000016
C18	C	1.035851	0.271858	0.000013
C19	C	0.933396	0.062144	0.000056
C20	C	1.064405	0.065282	0.000047
C21	C	0.882167	-0.042719	0.000079
C22	C	0.961949	-0.144432	0.000089
C23	C	1.092966	-0.141286	0.000089
C24	C	1.144187	-0.036428	0.000067
C25	C	1.492380	-0.040444	0.000045
C26	C	1.489044	-0.166465	0.000044
C27	C	1.482911	-0.397192	0.000020
C28	C	1.486319	-0.268799	0.000033
C29	C	1.714180	0.160519	0.000040
C30	C	1.853614	0.163854	0.000035
C31	C	1.476868	0.374443	0.000023
C32	C	1.480203	0.500465	0.000015
N33	N	1.484624	0.166997	0.356154
N34	N	1.484634	0.166994	-0.356083
C35	C	1.654383	0.014075	0.356159
C36	C	1.739271	-0.062382	0.428101
C37	C	1.739283	-0.062383	0.571981
C38	C	1.654397	0.014080	0.643922
C39	C	1.569509	0.090537	0.571979
C40	C	1.569508	0.090532	0.428096
C41	C	1.399746	0.243451	0.571975
C42	C	1.399737	0.243459	0.428095
C43	C	1.314859	0.319914	0.643916
C44	C	1.229975	0.396379	0.571973
C45	C	1.229966	0.396377	0.428085
C46	C	1.314849	0.319917	0.356153
H47	H	0.718383	0.367868	0.000012
N48	N	0.740864	-0.046095	0.000077
H49	H	0.714912	-0.087412	-0.084648
H50	H	0.715002	-0.087367	0.084877
H51	H	1.160860	0.458624	0.630556
N52	N	0.790217	0.584970	-0.000053
H53	H	0.735225	0.588264	0.084681
H54	H	0.842620	0.651820	-0.000116
N55	N	1.285487	-0.033031	0.000084
H56	H	1.328260	-0.113374	0.000105
H57	H	1.311339	0.008320	-0.084660
N58	N	1.654366	0.014093	0.200975
H59	H	1.739795	0.031336	0.166311
H60	H	1.635532	-0.063193	0.166426
H61	H	1.049022	0.563797	-0.000041
N62	N	1.138411	0.478850	0.350498
H63	H	1.151281	0.467254	0.248433
H64	H	1.049238	0.464977	0.375656
N65	N	1.314879	0.319914	0.799099
H66	H	1.333658	0.397192	0.833740
H67	H	1.229435	0.302628	0.833661
N68	N	1.830834	-0.144856	0.350531
H69	H	1.815831	-0.225533	0.375592
H70	H	1.817920	-0.133171	0.248488
N71	N	1.654395	0.014080	0.799105
H72	H	1.635612	-0.063194	0.833767
H73	H	1.739845	0.031361	0.833651
N74	N	0.906683	-0.257515	0.000115
H75	H	0.935713	-0.302130	-0.084615
H76	H	0.935739	-0.302028	0.084911
H77	H	1.157918	-0.224112	0.000111
H78	H	1.808402	-0.124645	0.630557
H79	H	1.314854	0.319913	0.238998
H80	H	1.193752	0.379277	-0.000035
