data_functionalizedCrystal
_audit_creation_method	'MofGen! by Chris Wilmer'
_symmetry_space_group_name_H-M	'P1'
_symmetry_Int_Tables_number	1
_symmetry_cell_setting	triclinic
loop_
_symmetry_equiv_pos_as_xyz
  x,y,z
_cell_length_a	29.839131
_cell_length_b	10.685980
_cell_length_c	10.685986
_cell_angle_alpha	90.307287
_cell_angle_beta	85.582490
_cell_angle_gamma	94.407617
loop_
_atom_site_label
_atom_site_type_symbol
_atom_site_fract_x
_atom_site_fract_y
_atom_site_fract_z
Zn1	Zn	-0.104578	1.863493	-0.856507
Zn2	Zn	-0.185018	1.879336	-0.646698
Zn3	Zn	-0.116060	1.669755	-0.630645
Zn4	Zn	-0.185852	1.653585	-0.840313
O5	O	-0.147877	1.766542	-0.743541
O6	O	-0.110095	2.041153	-0.842172
O7	O	-0.180327	1.864932	-0.469016
O8	O	-0.051664	1.695591	-0.660665
O9	O	-0.169194	2.052793	-0.688026
O10	O	-0.043229	1.837930	-0.826605
O11	O	-0.129664	1.710954	-0.457221
O12	O	-0.130472	1.492052	-0.644962
O13	O	-0.170614	1.668032	-1.018014
O14	O	-0.181747	1.480172	-0.799004
O15	O	-0.110903	1.822251	-1.029912
O16	O	-0.248001	1.849253	-0.672322
O17	O	-0.248614	1.683395	-0.814570
C18	C	-0.157446	1.440592	-0.718484
C19	C	-0.161550	1.301146	-0.707795
C20	C	-0.264608	1.766321	-0.743461
C21	C	-0.314541	1.766337	-0.743478
C22	C	-0.623839	1.853042	-0.669601
C23	C	-0.811506	1.853193	-0.669661
O24	O	-0.835483	1.926736	-0.606787
N25	N	-0.835309	1.766795	-0.743655
C26	C	-0.812192	1.680359	-0.817646
O27	O	-0.836744	1.606884	-0.880593
C28	C	-0.624525	1.680215	-0.817591
C29	C	-0.600725	1.766610	-0.743583
C30	C	-0.600039	1.939431	-0.595599
C31	C	-0.553125	1.939388	-0.595580
C32	C	-0.530011	1.852956	-0.669561
C33	C	-0.553812	1.766567	-0.743563
C34	C	-0.601409	1.593785	-0.891588
C35	C	-0.554489	1.593759	-0.891570
C36	C	-0.530689	1.680154	-0.817561
C37	C	-0.483784	1.680091	-0.817525
N38	N	-0.459981	1.766489	-0.743531
C39	C	-0.483095	1.852921	-0.669549
C40	C	-0.910720	1.680439	-0.817667
C41	C	-0.957636	1.680474	-0.817679
C42	C	-0.956947	1.853309	-0.669696
C43	C	-0.910030	1.853268	-0.669678
C44	C	-0.886917	1.766837	-0.743673
C45	C	-0.384573	1.852823	-0.669513
C46	C	-0.337655	1.852769	-0.669496
C47	C	-0.338348	1.679938	-0.817483
C48	C	-0.385262	1.679988	-0.817496
C49	C	-0.408373	1.766441	-0.743507
O50	O	-0.459777	1.606596	-0.880378
O51	O	-0.458534	1.926403	-0.606632
C52	C	-0.670753	1.853085	-0.669620
C53	C	-0.694553	1.766696	-0.743622
C54	C	-0.671439	1.680264	-0.817604
C55	C	-0.741469	1.766730	-0.743634
C56	C	-0.764583	1.853162	-0.669652
C57	C	-0.740780	1.939560	-0.595658
C58	C	-0.693866	1.939517	-0.595638
C59	C	-0.695242	1.593866	-0.891598
C60	C	-0.742156	1.593915	-0.891610
C61	C	-0.765270	1.680347	-0.817628
C62	C	-0.030689	1.766797	-0.743651
C63	C	0.019250	1.766906	-0.743698
C64	C	-0.138271	2.093766	-0.768696
C65	C	-0.134178	2.233209	-0.779415
C66	C	-0.139571	1.741571	-1.070754
C67	C	-0.136031	1.730929	-1.210193
C68	C	-0.156117	1.791489	-0.417606
C69	C	-0.159523	1.802374	-0.278186
H70	H	-0.107601	1.281725	-0.848909
H71	H	-0.182338	1.871685	-1.229723
H72	H	-0.113210	1.661623	-1.258664
H73	H	-0.188126	1.252624	-0.638289
H74	H	-0.674491	2.009868	-0.535374
H75	H	-0.618853	2.009821	-0.535354
O76	O	-0.314603	1.936821	-0.597572
C77	C	-0.345069	2.013096	-0.532260
H78	H	-0.377072	2.013502	-0.583997
H79	H	-0.328913	2.112956	-0.526550
H80	H	-0.353858	1.974510	-0.433421
O81	O	-0.888316	1.596512	-0.889721
C82	C	-0.895772	1.614305	-1.016881
H83	H	-0.928332	1.662371	-1.023232
H84	H	-0.898647	1.519426	-1.066085
H85	H	-0.866368	1.675503	-1.064150
H86	H	-0.975774	1.923686	-0.609458
O87	O	-0.407078	1.936638	-0.597582
C88	C	-0.438405	1.871510	-0.510996
H89	H	-0.447139	1.773032	-0.547842
H90	H	-0.470302	1.923943	-0.498182
H91	H	-0.423107	1.864892	-0.416952
H92	H	-0.533749	2.009741	-0.535320
O93	O	-0.672766	1.510065	-0.963611
C94	C	-0.641425	1.575191	-1.050161
H95	H	-0.652417	1.673413	-1.065599
H96	H	-0.639788	1.522363	-1.143170
H97	H	-0.606727	1.582458	-1.011706
H98	H	-0.890655	1.923619	-0.609415
H99	H	-0.404641	1.609641	-0.877764
H100	H	-0.761530	1.523551	-0.951875
O101	O	-0.980796	1.596711	-0.889638
C102	C	-1.003733	1.661901	-0.976242
H103	H	-1.009064	1.760383	-0.939385
H104	H	-1.037815	1.609525	-0.989105
H105	H	-0.982868	1.668508	-1.070264
H106	H	-0.535672	1.523377	-0.951829
O107	O	-0.624449	1.509815	-0.963601
C108	C	-0.593980	1.433518	-1.028868
H109	H	-0.558898	1.484552	-1.037170
H110	H	-0.605406	1.412531	-1.126678
H111	H	-0.592996	1.341778	-0.975536
H112	H	-0.319522	1.609563	-0.877715
H113	H	-0.759607	2.009933	-0.535415
