data_functionalizedCrystal
_audit_creation_method	'MofGen! by Chris Wilmer'
_symmetry_space_group_name_H-M	'P1'
_symmetry_Int_Tables_number	1
_symmetry_cell_setting	triclinic
loop_
_symmetry_equiv_pos_as_xyz
  x,y,z
_cell_length_a	16.992694
_cell_length_b	14.519709
_cell_length_c	16.053802
_cell_angle_alpha	92.569364
_cell_angle_beta	87.249047
_cell_angle_gamma	87.174184
loop_
_atom_site_label
_atom_site_type_symbol
_atom_site_fract_x
_atom_site_fract_y
_atom_site_fract_z
O1	O	1.043963	0.191936	-0.069327
O2	O	0.815676	0.189789	-0.069352
O3	O	0.935872	0.057059	-0.069332
O4	O	0.923768	0.324666	-0.069348
O5	O	0.929256	0.064333	0.069526
O6	O	0.809060	0.197063	0.069506
O7	O	1.037348	0.199210	0.069530
Zn8	Zn	0.922154	0.199291	0.091565
Zn9	Zn	0.930870	0.189708	-0.091386
O10	O	0.917152	0.331940	0.069510
C11	C	0.783152	0.190666	0.000074
C12	C	0.696097	0.182430	0.000065
C13	C	0.645968	0.261890	0.000061
C14	C	0.564170	0.254147	0.000073
C15	C	0.532503	0.166943	0.000083
C16	C	0.582638	0.087478	0.000089
C17	C	0.664434	0.095222	0.000083
C18	C	0.288859	0.134847	0.000107
C19	C	0.207056	0.127109	0.000111
C20	C	0.188594	0.293779	0.000095
C21	C	0.270393	0.301515	0.000084
C22	C	0.320520	0.222050	0.000095
N23	N	0.448892	0.159027	0.000092
N24	N	0.404129	0.229968	0.000092
C25	C	0.932000	0.026296	0.000097
C26	C	0.930309	-0.076207	0.000098
C27	C	0.924087	-0.451551	0.000075
C28	C	0.925815	-0.347118	0.000082
C29	C	0.927198	-0.263882	0.000087
C30	C	0.928926	-0.159443	0.000092
C31	C	1.069872	0.198333	0.000103
C32	C	1.156927	0.206569	0.000106
C33	C	0.921024	0.362703	0.000079
C34	C	0.922715	0.465206	0.000073
N35	N	0.916210	0.205832	0.216424
N36	N	0.936820	0.183161	-0.216246
C37	C	0.967373	0.149377	0.260127
C38	C	0.963222	0.153962	0.347533
C39	C	0.907913	0.215006	0.391235
C40	C	0.856746	0.271462	0.347526
C41	C	0.860893	0.266872	0.260121
C42	C	0.889799	0.235027	0.652641
C43	C	0.885658	0.239615	0.740052
C44	C	0.992134	0.122113	0.740053
C45	C	0.996279	0.117533	0.652646
C46	C	0.945109	0.173985	0.608945
N47	N	0.903672	0.219695	0.480578
N48	N	0.949347	0.169291	0.519604
H49	H	0.705249	0.030517	0.000086
C50	C	0.680397	0.356538	-0.000125
C51	C	0.730191	0.362120	-0.071580
C52	C	0.761909	0.449302	-0.071784
H53	H	0.709680	0.365656	0.048237
H54	H	0.638847	0.402777	-0.000170
H55	H	0.771735	0.315894	-0.071528
H56	H	0.700926	0.353019	-0.119954
H57	H	0.720359	0.495541	-0.071829
H58	H	0.791188	0.458412	-0.023419
H59	H	0.795692	0.453104	-0.120269
H60	H	0.819230	0.312842	0.224539
C61	C	0.343372	0.048640	-0.000023
C62	C	0.394277	0.044483	-0.071454
C63	C	0.444515	-0.034917	-0.071599
H64	H	0.312892	-0.004471	-0.000063
H65	H	0.373413	0.050720	0.048373
H66	H	0.364239	0.042395	-0.119838
H67	H	0.424774	0.097574	-0.071429
H68	H	0.474555	-0.032837	-0.023203
H69	H	0.414029	-0.088021	-0.071638
H70	H	0.479064	-0.037744	-0.120060
C71	C	1.027284	0.082996	0.212598
C72	C	0.987788	0.020812	0.162445
C73	C	1.042943	-0.040368	0.118655
H74	H	1.057165	0.049938	0.251070
H75	H	1.061603	0.116738	0.178428
H76	H	0.953483	-0.012927	0.196613
H77	H	0.957911	0.053843	0.123958
H78	H	1.077263	-0.006626	0.084485
H79	H	1.072821	-0.073419	0.157133
H80	H	1.016154	-0.082562	0.084615
H81	H	0.840616	0.289328	0.775630
C82	C	1.018876	0.092638	0.394830
C83	C	1.068222	0.038224	0.337851
C84	C	1.119513	-0.018269	0.381390
H85	H	0.989101	0.053848	0.428944
H86	H	1.049984	0.130026	0.428896
H87	H	1.037118	0.000840	0.303800
H88	H	1.098014	0.076990	0.303736
H89	H	1.150620	0.019119	0.415455
H90	H	1.089731	-0.057053	0.415502
H91	H	1.153004	-0.055189	0.342736
H92	H	1.041316	0.067826	0.617066
H93	H	0.296170	0.372525	0.000066
H94	H	0.848135	0.280995	0.617067
H95	H	0.523358	0.318852	0.000068
C96	C	0.134082	0.379967	-0.000038
C97	C	0.089960	0.376640	-0.071463
C98	C	0.039728	0.456018	-0.071605
H99	H	0.164560	0.433077	-0.000087
H100	H	0.099445	0.382949	0.048362
H101	H	0.124592	0.373667	-0.119851
H102	H	0.059466	0.323547	-0.071429
H103	H	0.005091	0.459000	-0.023205
H104	H	0.070213	0.509122	-0.071652
H105	H	0.009780	0.453767	-0.120062
C106	C	0.172823	0.032344	0.000163
C107	C	0.234228	-0.035591	0.000192
C108	C	0.202722	-0.122892	0.000248
H109	H	0.143612	0.023194	-0.048247
H110	H	0.139015	0.028353	0.048605
H111	H	0.268022	-0.031602	-0.048245
H112	H	0.263444	-0.026471	0.048599
H113	H	0.168914	-0.126884	0.048689
H114	H	0.173511	-0.132033	-0.048163
H115	H	0.244379	-0.168996	0.000275
C116	C	0.796775	0.337713	0.395122
C117	C	0.804108	0.329671	0.481021
C118	C	0.748885	0.390699	0.524890
H119	H	0.745067	0.323115	0.380909
H120	H	0.806060	0.399172	0.380832
H121	H	0.794818	0.268225	0.495305
H122	H	0.855804	0.344276	0.495259
H123	H	0.758169	0.452158	0.510600
H124	H	0.697180	0.376096	0.510671
H125	H	0.753857	0.385256	0.583177
C126	C	1.047643	0.060658	0.787397
C127	C	1.035818	-0.032035	0.766133
C128	C	1.086944	-0.088680	0.809722
H129	H	1.037306	0.072007	0.845723
H130	H	1.100689	0.073753	0.773049
H131	H	0.982784	-0.045125	0.780486
H132	H	1.046160	-0.043412	0.707814
H133	H	1.139990	-0.075585	0.795374
H134	H	1.076603	-0.077323	0.868046
H135	H	1.078932	-0.151577	0.795295
H136	H	0.556847	0.016475	0.000110
