data_functionalizedCrystal
_audit_creation_method	'MofGen! by Chris Wilmer'
_symmetry_space_group_name_H-M	'P1'
_symmetry_Int_Tables_number	1
_symmetry_cell_setting	triclinic
loop_
_symmetry_equiv_pos_as_xyz
  x,y,z
_cell_length_a	19.851628
_cell_length_b	14.395555
_cell_length_c	14.395555
_cell_angle_alpha	119.996993
_cell_angle_beta	89.996355
_cell_angle_gamma	59.999934
loop_
_atom_site_label
_atom_site_type_symbol
_atom_site_fract_x
_atom_site_fract_y
_atom_site_fract_z
Zr1	Zr	0.649005	1.016671	0.121804
O2	O	0.541449	1.210466	0.270143
O3	O	0.681974	0.822876	0.076329
O4	O	0.681987	1.016647	0.270116
O5	O	0.541429	1.016714	-0.076506
O6	O	0.792848	1.016629	0.270098
O7	O	0.541436	1.016694	0.076355
O8	O	0.792825	0.670008	-0.076553
O9	O	0.541452	1.363335	0.270145
O10	O	0.778773	0.902574	0.056922
O11	O	0.696033	0.902602	-0.057142
O12	O	0.696048	1.130742	0.171018
O13	O	0.613308	1.130770	0.056953
Zr14	Zr	0.825805	1.016674	-0.122021
Zr15	Zr	0.825817	1.016643	0.121775
Zr16	Zr	0.648994	1.016702	-0.121991
Zr17	Zr	0.649010	1.260480	0.121808
Zr18	Zr	0.825800	0.772865	-0.122024
O19	O	0.792837	1.210469	-0.076545
O20	O	0.792853	1.210425	0.270101
O21	O	0.541433	1.210510	-0.076503
O22	O	0.933361	0.822879	-0.270359
O23	O	0.933377	0.822835	0.076286
O24	O	0.681958	0.822920	-0.270317
O25	O	0.933381	1.016631	0.076289
O26	O	0.792824	1.016698	-0.270333
O27	O	0.681962	1.016716	-0.270314
O28	O	0.933374	1.016651	-0.076572
O29	O	0.681994	1.363312	0.270122
O30	O	0.792816	0.670033	-0.270338
O31	O	0.933358	0.670010	-0.270362
O32	O	0.933367	0.669985	-0.076577
O33	O	0.541444	1.363360	0.076360
O34	O	0.681985	1.363337	0.076337
O35	O	0.778762	0.902603	-0.171234
O36	O	0.861502	0.902575	-0.057170
O37	O	0.778778	1.130743	0.056926
O38	O	0.696038	1.130771	-0.057139
C39	C	0.737398	0.711704	-0.000113
C40	C	0.737396	0.608201	-0.000114
C41	C	0.692285	0.547624	-0.062311
C42	C	0.659597	0.561872	0.044965
C43	C	0.770064	0.409557	-0.107358
C44	C	0.704663	0.623875	0.107225
C45	C	0.815173	0.471497	-0.045175
C46	C	0.782505	0.485792	0.062165
C47	C	0.516241	1.016708	-0.000071
C48	C	0.441179	1.016720	-0.000059
C49	C	0.214729	1.141098	0.062113
C50	C	0.192369	1.078901	0.107187
C51	C	0.303773	1.016686	-0.000091
C52	C	0.192393	1.078892	-0.045144
C53	C	0.171041	1.016663	-0.000122
C54	C	0.282401	0.954489	0.045045
C55	C	0.282422	0.954497	-0.107345
C56	C	0.260115	0.892209	-0.062298
C57	C	0.380235	1.016704	-0.000071
C58	C	0.094583	1.016636	-0.000141
C59	C	0.958570	1.016637	-0.000145
C60	C	1.033631	1.016625	-0.000158
C61	C	0.737419	1.016634	0.304843
C62	C	0.737424	1.016620	0.408340
C63	C	0.737412	1.321641	-0.000104
C64	C	0.737414	1.425144	-0.000102
C65	C	0.782536	0.892208	0.406717
C66	C	0.704746	0.954403	0.499748
C67	C	0.815202	0.954415	0.499729
C68	C	0.659588	1.078817	0.500009
C69	C	0.770101	1.078810	0.499976
C70	C	0.692264	1.141096	0.593025
C71	C	0.737401	1.016691	0.694930
C72	C	0.737427	1.016642	0.591402
C73	C	0.958563	0.711669	-0.000150
C74	C	1.033622	0.608153	-0.000164
C75	C	0.737385	0.711743	-0.305064
C76	C	0.737378	0.608253	-0.408563
C77	C	0.958549	0.711708	-0.305101
C78	C	1.033603	0.608205	-0.408613
C79	C	0.516261	1.321638	0.304884
C80	C	0.441207	1.425140	0.408396
C81	C	0.516247	1.321676	-0.000067
C82	C	0.441188	1.425192	-0.000052
C83	C	0.737426	1.321602	0.304847
C84	C	0.737433	1.425092	0.408346
C85	C	1.025686	0.559540	0.059394
C86	C	1.096206	0.462290	0.059404
C87	C	1.174659	0.413647	-0.000152
C88	C	1.182593	0.462270	-0.059713
C89	C	1.112075	0.559525	-0.059715
C90	C	1.112046	0.559585	-0.397682
C91	C	1.182575	0.462347	-0.494933
C92	C	1.174658	0.413725	-0.603113
C93	C	1.096206	0.462355	-0.614041
C94	C	1.025680	0.559597	-0.516792
C95	C	0.362764	1.473772	0.397466
C96	C	0.292236	1.571040	0.494717
C97	C	0.300152	1.619668	0.602897
C98	C	0.378604	1.571031	0.613825
C99	C	0.449130	1.473772	0.516575
C100	C	0.449124	1.473815	-0.059601
C101	C	0.378605	1.571092	-0.059583
C102	C	0.300151	1.619738	-0.000024
C103	C	0.292217	1.571111	0.059532
C104	C	0.362735	1.473842	0.059521
C105	C	0.692264	0.547675	-0.406942
C106	C	0.770055	0.409573	-0.499971
C107	C	0.659601	0.561924	-0.499957
C108	C	0.815214	0.471451	-0.500229
C109	C	0.704705	0.623876	-0.500201
C110	C	0.782542	0.485783	-0.593247
H111	H	0.820652	0.458836	0.114841
F112	F	0.573574	1.147505	0.498954
H113	H	0.797760	1.131338	0.498997
H114	H	0.677105	0.901829	0.500684
F115	F	0.333143	0.885839	-0.225860
H116	H	0.881019	0.434066	-0.499416
H117	H	0.654178	0.574756	-0.327181
F118	F	0.832474	0.450462	-0.697332
H119	H	0.961811	0.599171	-0.525707
F120	F	0.208750	1.622781	0.483062
H121	H	0.820617	0.787015	0.326952
H122	H	0.677044	0.715534	-0.499209
H123	H	1.118508	0.599159	-0.309605
H124	H	0.153564	1.131474	0.197878
H125	H	0.797695	0.317949	-0.500904
H126	H	0.593829	0.599108	-0.500862
F127	F	0.642335	1.278705	0.697113
F128	F	0.901119	0.422911	-0.095039
H129	H	1.232092	0.334543	-0.682291
F130	F	0.942196	0.611295	0.122790
H131	H	0.654085	0.574863	-0.114830
H132	H	0.880980	0.901806	0.500616
F133	F	0.225105	1.723260	-0.000023
F134	F	1.087744	0.410556	0.122795
H135	H	1.232073	0.334455	-0.000142
F136	F	0.573634	0.610482	0.094797
H137	H	1.246447	0.422762	-0.486015
F138	F	1.266097	0.410484	-0.123096
H139	H	0.196283	1.246294	0.114792
F140	F	0.208714	1.622895	0.122913
F141	F	0.668461	0.743546	0.225833
H142	H	0.356302	1.434185	0.309389
F143	F	0.806169	0.289828	-0.225908
H144	H	1.118548	0.599093	-0.108221
F145	F	0.354277	1.422098	0.122897
F146	F	1.087794	0.410593	-0.729184
H147	H	0.242719	1.698862	0.682075
F148	F	0.387017	1.622795	0.728968
H149	H	0.321096	0.901936	0.083239
H150	H	0.153591	1.131506	-0.083234
F151	F	0.284367	0.754633	-0.131003
H152	H	0.512999	1.434215	-0.108109
F153	F	0.532614	1.422016	0.528226
F154	F	0.387066	1.622823	-0.122977
