data_functionalizedCrystal
_audit_creation_method	'MofGen! by Chris Wilmer'
_symmetry_space_group_name_H-M	'P1'
_symmetry_Int_Tables_number	1
_symmetry_cell_setting	triclinic
loop_
_symmetry_equiv_pos_as_xyz
  x,y,z
_cell_length_a	19.077105
_cell_length_b	12.645330
_cell_length_c	12.645324
_cell_angle_alpha	89.968234
_cell_angle_beta	87.679768
_cell_angle_gamma	87.714233
loop_
_atom_site_label
_atom_site_type_symbol
_atom_site_fract_x
_atom_site_fract_y
_atom_site_fract_z
Zn1	Zn	1.076048	-0.487168	-0.664482
Zn2	Zn	1.075969	-0.664473	-0.487217
Zn3	Zn	0.958343	-0.480096	-0.480112
Zn4	Zn	0.958331	-0.657257	-0.657322
O5	O	1.017173	-0.572248	-0.572283
O6	O	1.174529	-0.516668	-0.646937
O7	O	1.060337	-0.640075	-0.337925
O8	O	0.973995	-0.332689	-0.504592
O9	O	1.174471	-0.646933	-0.516701
O10	O	1.060472	-0.337885	-0.640047
O11	O	0.973918	-0.504614	-0.332705
O12	O	0.859850	-0.497616	-0.497650
O13	O	0.973975	-0.634634	-0.806621
O14	O	0.859841	-0.627776	-0.627845
O15	O	1.060461	-0.509671	-0.811881
O16	O	1.060326	-0.811861	-0.509759
O17	O	0.973898	-0.806559	-0.634735
C18	C	0.834308	-0.561146	-0.561200
C19	C	0.756077	-0.556422	-0.556484
C20	C	1.017121	-0.847675	-0.572265
C21	C	1.017164	-0.965508	-0.572297
C22	C	0.719338	-0.622072	-0.621948
C23	C	0.645833	-0.617620	-0.617522
C24	C	0.609067	-0.547522	-0.547626
C25	C	0.645811	-0.481865	-0.482159
C26	C	0.719315	-0.486313	-0.486592
C27	C	0.389231	-0.526936	-0.527117
C28	C	0.315721	-0.522495	-0.522688
C29	C	0.315748	-0.658249	-0.658052
C30	C	0.389254	-0.662695	-0.662474
C31	C	0.425991	-0.597034	-0.597011
N32	N	0.533932	-0.542971	-0.543097
N33	N	0.501125	-0.601580	-0.601546
C34	C	0.963016	-1.129794	-0.651185
C35	C	0.962739	-1.007218	-0.650904
C36	C	0.997083	-1.008898	-0.459361
C37	C	0.996752	-1.131477	-0.459840
C38	C	1.091723	-1.137112	-0.605458
C39	C	1.091267	-1.014477	-0.607874
C40	C	1.200752	-0.583395	-0.583410
C41	C	1.278982	-0.588145	-0.588151
C42	C	1.017225	-0.572136	-0.848792
C43	C	1.017248	-0.572089	-0.966623
C44	C	1.017243	-0.295747	-0.572326
C45	C	1.017273	-0.177919	-0.572344
C46	C	1.071868	-0.493725	-1.137509
C47	C	1.071693	-0.493419	-1.014939
C48	C	0.943099	-0.537237	-1.006620
C49	C	0.943431	-0.536637	-1.129239
C50	C	1.036175	-0.685387	-1.134965
C51	C	1.037797	-0.684921	-1.012458
C52	C	1.017161	-0.572286	-0.296853
C53	C	1.017274	-0.572043	-0.179030
H54	H	0.749268	-0.679157	-0.678861
H55	H	1.110041	-1.169056	-0.686648
Br56	Br	0.595916	-0.386720	-0.387309
H57	H	0.615923	-0.671080	-0.670828
Br58	Br	0.983678	-0.958205	-0.790245
Br59	Br	0.907317	-0.952451	-0.412799
H60	H	0.419183	-0.719779	-0.719388
Br61	Br	1.162197	-0.967692	-0.519739
H62	H	0.285828	-0.711705	-0.711349
H63	H	0.749227	-0.432848	-0.433290
Br64	Br	0.870744	-0.952910	-0.613756
H65	H	1.127033	-0.515840	-1.170336
H66	H	0.942329	-1.156873	-0.432310
Br67	Br	0.983760	-1.180057	-0.790972
Br68	Br	1.050836	-0.353625	-0.964811
Br69	Br	1.059752	-1.184745	-0.358183
Br70	Br	1.124754	-0.736771	-1.191871
Br71	Br	0.873319	-0.627151	-1.174422
Br72	Br	0.439080	-0.437818	-0.438281
H73	H	1.132146	-1.168557	-0.548089
H74	H	0.908167	-1.157373	-0.629155
H75	H	1.106410	-0.986234	-0.691010
Br76	Br	0.265825	-0.427367	-0.427811
H77	H	1.035348	-0.982066	-0.398815
Br78	Br	1.163337	-0.530644	-0.970351
Br79	Br	1.051284	-0.354711	-1.187639
H80	H	0.927410	-0.453650	-1.156880
H81	H	0.901316	-0.592332	-0.974928
Br82	Br	0.915905	-0.400412	-0.953828
Br83	Br	1.128750	-0.728587	-0.969515
H84	H	1.000924	-0.746778	-0.979577
Br85	Br	0.969898	-0.782740	-1.179260
