data_functionalizedCrystal
_audit_creation_method	'MofGen! by Chris Wilmer'
_symmetry_space_group_name_H-M	'P1'
_symmetry_Int_Tables_number	1
_symmetry_cell_setting	triclinic
loop_
_symmetry_equiv_pos_as_xyz
  x,y,z
_cell_length_a	14.044191
_cell_length_b	10.540510
_cell_length_c	13.101039
_cell_angle_alpha	93.398210
_cell_angle_beta	86.337551
_cell_angle_gamma	88.852544
loop_
_atom_site_label
_atom_site_type_symbol
_atom_site_fract_x
_atom_site_fract_y
_atom_site_fract_z
O1	O	1.264925	0.299890	-0.085154
O2	O	1.764925	0.799890	0.414846
O3	O	0.988883	0.288828	-0.085168
O4	O	1.488883	0.788828	0.414832
O5	O	1.133216	0.110288	-0.085160
O6	O	1.633216	0.610288	0.414840
O7	O	1.120591	0.478429	-0.085162
O8	O	1.620591	0.978429	0.414838
O9	O	1.122861	0.123121	0.085269
O10	O	1.622861	0.623121	0.585269
O11	O	0.978527	0.301661	0.085262
O12	O	1.478527	0.801661	0.585262
O13	O	1.254570	0.312723	0.085275
O14	O	1.754570	0.812723	0.585275
Zn15	Zn	1.114904	0.309229	0.112328
Zn16	Zn	1.614904	0.809229	0.612328
Zn17	Zn	1.128548	0.292321	-0.112220
Zn18	Zn	1.628548	0.792321	0.387780
O19	O	1.110236	0.491262	0.085268
O20	O	1.610236	0.991262	0.585268
C21	C	0.948358	0.290405	0.000045
C22	C	1.448358	0.790405	0.500045
C23	C	0.843036	0.275971	0.000040
C24	C	1.343036	0.775971	0.500040
C25	C	0.593257	0.351950	0.000050
C26	C	1.093257	0.851950	0.500050
C27	C	0.650201	0.249605	0.000049
C28	C	1.150201	0.749605	0.500049
C29	C	0.757504	0.264279	0.000044
C30	C	1.257504	0.764279	0.500044
C31	C	0.485944	0.337279	0.000055
C32	C	0.985944	0.837279	0.500055
C33	C	1.127098	0.069306	0.000052
C34	C	1.627098	0.569306	0.500052
C35	C	1.124284	-0.071929	0.000046
C36	C	1.624284	0.428071	0.500046
C37	C	1.224528	-0.279215	0.000441
C38	C	1.724528	0.220785	0.500441
C39	C	1.227554	-0.132345	0.000052
C40	C	1.727554	0.367655	0.500052
C41	C	1.077332	-0.129363	-0.097278
C42	C	1.577332	0.370637	0.402722
C43	C	1.075066	-0.276359	-0.097354
C44	C	1.575066	0.223641	0.402646
C45	C	1.061139	-0.261791	0.096456
C46	C	1.561139	0.238209	0.596456
C47	C	1.065960	-0.114858	0.097737
C48	C	1.565960	0.385142	0.597737
C49	C	1.295094	0.311145	0.000060
C50	C	1.795094	0.811145	0.500060
C51	C	1.400417	0.325578	0.000059
C52	C	1.900417	0.825578	0.500059
C53	C	1.116355	0.532244	0.000053
C54	C	1.616355	1.032244	0.500053
C55	C	1.119169	0.673479	0.000053
C56	C	1.619169	1.173479	0.500053
N57	N	1.105599	0.320769	0.265576
N58	N	1.605599	0.820769	0.765576
N59	N	1.137860	0.280772	-0.265468
N60	N	1.637860	0.780772	0.234532
C61	C	1.092940	0.336480	0.474618
C62	C	1.592940	0.836480	0.974618
C63	C	1.150517	0.265065	0.525496
C64	C	1.650517	0.765065	1.025496
C65	C	1.143473	0.273807	0.641814
C66	C	1.643473	0.773807	1.141814
C67	C	1.099983	0.327740	0.358289
C68	C	1.599983	0.827740	0.858289
H69	H	0.625091	0.450583	0.000046
H70	H	1.125091	0.950583	0.500046
H71	H	1.264678	-0.093564	0.069816
H72	H	1.764678	0.406436	0.569816
N73	N	1.128790	-0.332058	-0.193703
N74	N	1.628790	0.167942	0.306297
H75	H	1.097490	-0.302246	-0.255614
H76	H	1.597490	0.197754	0.244386
H77	H	1.197008	-0.303308	-0.195237
H78	H	1.697008	0.196692	0.304763
N79	N	1.222820	0.175384	0.467483
N80	N	1.722820	0.675384	0.967483
H81	H	1.267861	0.225337	0.422968
H82	H	1.767861	0.725337	0.922968
H83	H	1.260200	0.128961	0.517708
H84	H	1.760200	0.628961	1.017708
N85	N	0.608036	0.118944	0.000049
N86	N	1.108036	0.618944	0.500049
H87	H	0.571269	0.103553	-0.063130
H88	H	1.071269	0.603553	0.436870
H89	H	0.661041	0.052765	0.000083
H90	H	1.161041	0.552765	0.500083
H91	H	1.038361	0.404183	0.518412
H92	H	1.538361	0.904183	1.018412
H93	H	1.118446	-0.100247	-0.169703
H94	H	1.618446	0.399753	0.330297
N95	N	1.272211	-0.322421	0.092896
N96	N	1.772211	0.177579	0.592896
H97	H	1.225985	-0.373086	0.135427
H98	H	1.725985	0.126914	0.635427
H99	H	1.330238	-0.377279	0.069604
H100	H	1.830238	0.122721	0.569604
H101	H	1.273404	-0.104994	-0.069830
H102	H	1.773404	0.395006	0.430170
N103	N	1.283110	-0.338402	-0.091477
N104	N	1.783110	0.161598	0.408523
H105	H	1.241697	-0.395725	-0.133369
H106	H	1.741697	0.104275	0.366631
H107	H	1.308860	-0.269161	-0.134863
H108	H	1.808860	0.230839	0.365137
N109	N	1.098429	-0.306276	0.194174
N110	N	1.598429	0.193724	0.694174
H111	H	1.153323	-0.368850	0.176938
H112	H	1.653323	0.131150	0.676938
H113	H	1.121129	-0.230870	0.236404
H114	H	1.621129	0.269130	0.736404
H115	H	0.998094	-0.307498	-0.101767
H116	H	1.498094	0.192502	0.398233
H117	H	1.001526	-0.089935	-0.100901
H118	H	1.501526	0.410065	0.399099
N119	N	1.111105	-0.064622	0.193115
N120	N	1.611105	0.435378	0.693115
H121	H	1.169095	-0.014262	0.173138
H122	H	1.669095	0.485738	0.673138
H123	H	1.063500	-0.007894	0.236288
H124	H	1.563500	0.492106	0.736288
N125	N	0.965602	-0.059427	0.105504
N126	N	1.465602	0.440573	0.605504
H127	H	0.956481	-0.005459	0.045539
H128	H	1.456481	0.494541	0.545539
H129	H	0.918531	-0.130616	0.104661
H130	H	1.418531	0.369384	0.604661
H131	H	0.983563	-0.291734	0.097107
H132	H	1.483563	0.208266	0.597107
