data_functionalizedCrystal
_audit_creation_method	'MofGen! by Chris Wilmer'
_symmetry_space_group_name_H-M	'P1'
_symmetry_Int_Tables_number	1
_symmetry_cell_setting	triclinic
loop_
_symmetry_equiv_pos_as_xyz
  x,y,z
_cell_length_a	13.897449
_cell_length_b	17.077402
_cell_length_c	17.077396
_cell_angle_alpha	90.029784
_cell_angle_beta	90.018441
_cell_angle_gamma	90.024163
loop_
_atom_site_label
_atom_site_type_symbol
_atom_site_fract_x
_atom_site_fract_y
_atom_site_fract_z
Zn1	Zn	1.474646	-0.312481	0.443813
Zn2	Zn	1.974646	0.187519	0.943813
Zn3	Zn	1.474532	-0.443756	0.312544
Zn4	Zn	1.974532	0.056244	0.812544
Zn5	Zn	1.313342	-0.312511	0.312564
Zn6	Zn	1.813342	0.187489	0.812564
Zn7	Zn	1.313302	-0.443712	0.443770
Zn8	Zn	1.813302	0.056288	0.943770
O9	O	1.393955	-0.378115	0.378173
O10	O	1.893955	0.121885	0.878173
O11	O	1.609612	-0.329901	0.426410
O12	O	2.109612	0.170099	0.926410
O13	O	1.453118	-0.426377	0.202700
O14	O	1.953118	0.073623	0.702700
O15	O	1.334803	-0.202660	0.330000
O16	O	1.834803	0.297340	0.830000
O17	O	1.609529	-0.426348	0.329967
O18	O	2.109529	0.073652	0.829967
O19	O	1.453313	-0.202638	0.426429
O20	O	1.953313	0.297362	0.926429
O21	O	1.334692	-0.329952	0.202714
O22	O	1.834692	0.170048	0.702714
O23	O	1.178355	-0.329909	0.329959
O24	O	1.678355	0.170091	0.829959
O25	O	1.334736	-0.426273	0.553623
O26	O	1.834736	0.073727	1.053623
O27	O	1.178326	-0.426302	0.426356
O28	O	1.678326	0.073698	0.926356
O29	O	1.453275	-0.329858	0.553655
O30	O	1.953275	0.170142	1.053655
O31	O	1.453080	-0.553597	0.329926
O32	O	1.953080	-0.053597	0.829926
O33	O	1.334625	-0.553565	0.426337
O34	O	1.834625	-0.053565	0.926337
C35	C	1.393862	-0.582063	0.378142
C36	C	1.893862	-0.082063	0.878142
C37	C	1.393911	-0.669313	0.378155
C38	C	1.893911	-0.169313	0.878155
C39	C	1.143341	-0.378105	0.378155
C40	C	1.643341	0.121895	0.878155
C41	C	1.036127	-0.378119	0.378166
C42	C	1.536127	0.121881	0.878166
C43	C	1.455653	-0.710294	0.328007
C44	C	1.955653	-0.210294	0.828007
C45	C	1.455700	-0.792274	0.328027
C46	C	1.955700	-0.292274	0.828027
C47	C	1.393999	-0.833272	0.378191
C48	C	1.893999	-0.333272	0.878191
C49	C	1.332254	-0.792286	0.428344
C50	C	1.832254	-0.292286	0.928344
C51	C	1.332213	-0.710307	0.428328
C52	C	1.832213	-0.210307	0.928328
C53	C	1.332344	-0.963156	0.428374
C54	C	1.832344	-0.463156	0.928374
C55	C	1.332384	-1.045140	0.428390
C56	C	1.832384	-0.545140	0.928390
C57	C	1.455831	-1.045123	0.328074
C58	C	1.955831	-0.545123	0.828074
C59	C	1.455790	-0.963144	0.328057
C60	C	1.955790	-0.463144	0.828057
C61	C	1.394043	-0.922163	0.378209
C62	C	1.894043	-0.422163	0.878209
C63	C	0.839832	-0.378122	0.378187
C64	C	1.339832	0.121878	0.878187
C65	C	0.949065	-0.378118	0.378173
C66	C	1.449065	0.121882	0.878173
C67	C	1.645548	-0.378126	0.378191
C68	C	2.145548	0.121874	0.878191
C69	C	1.752762	-0.378131	0.378199
C70	C	2.252762	0.121869	0.878199
C71	C	1.394014	-0.378057	0.582917
C72	C	1.894014	0.121943	1.082917
C73	C	1.394039	-0.378033	0.670167
C74	C	1.894039	0.121967	1.170167
C75	C	1.394075	-0.173371	0.378222
C76	C	1.894075	0.326629	0.878222
C77	C	1.394126	-0.086121	0.378242
C78	C	1.894126	0.413879	0.878242
C79	C	1.393953	-0.378116	0.174225
C80	C	1.893953	0.121884	0.674225
C81	C	1.394115	-0.377920	0.086976
C82	C	1.894115	0.122080	0.586976
C83	C	1.455764	-0.327825	0.711175
C84	C	1.955764	0.172175	1.211175
C85	C	1.455776	-0.327799	0.793156
C86	C	1.955776	0.172201	1.293156
C87	C	1.394066	-0.377985	0.834127
C88	C	1.894066	0.122015	1.334127
C89	C	1.332334	-0.428195	0.793113
C90	C	1.832334	0.071805	1.293113
C91	C	1.332318	-0.428216	0.711134
C92	C	1.832318	0.071784	1.211134
C93	C	1.332373	-0.428147	0.963983
C94	C	1.832373	0.071853	1.463983
C95	C	1.332390	-0.428127	1.045968
C96	C	1.832390	0.071873	1.545968
C97	C	1.455830	-0.327731	1.046005
C98	C	1.955830	0.172269	1.546005
C99	C	1.455814	-0.327752	0.964026
C100	C	1.955814	0.172248	1.464026
C101	C	1.394083	-0.377963	0.923018
C102	C	1.894083	0.122037	1.423018
H103	H	1.505976	-0.825637	0.287192
H104	H	2.005976	-0.325637	0.787192
N105	N	1.522392	-0.273566	1.090242
N106	N	2.022392	0.226434	1.590242
H107	H	1.507437	-0.217485	1.075983
H108	H	2.007437	0.282515	1.575983
H109	H	1.591280	-0.285826	1.075975
H110	H	2.091280	0.214174	1.575975
H111	H	1.282138	-0.468991	1.079324
H112	H	1.782138	0.031009	1.579324
N113	N	1.522331	-0.273704	0.666986
N114	N	2.022331	0.226296	1.166986
H115	H	1.507390	-0.217611	0.681259
H116	H	2.007390	0.282389	1.181259
H117	H	1.512925	-0.281408	0.608845
H118	H	2.012925	0.218592	1.108845
H119	H	1.506026	-0.929764	0.287206
H120	H	2.006026	-0.429764	0.787206
N121	N	1.265610	-0.666110	0.482413
N122	N	1.765610	-0.166110	0.982413
H123	H	1.220916	-0.632149	0.450473
H124	H	1.720916	-0.132149	0.950473
H125	H	1.304833	-0.632090	0.518804
H126	H	1.804833	-0.132090	1.018804
H127	H	1.506041	-0.286917	0.826541
H128	H	2.006041	0.213083	1.326541
N129	N	1.265751	-0.482370	0.666895
N130	N	1.765751	0.017630	1.166895
H131	H	1.221065	-0.450472	0.632886
H132	H	1.721065	0.049528	1.132886
H133	H	1.226723	-0.514152	0.705333
H134	H	1.726723	-0.014152	1.205333
H135	H	1.506069	-0.286891	0.930669
H136	H	2.006069	0.213109	1.430669
N137	N	1.265788	-0.482298	0.919751
N138	N	1.765788	0.017702	1.419751
H139	H	1.226699	-0.514089	0.958144
H140	H	1.726699	-0.014089	1.458144
H141	H	1.305025	-0.518635	0.885733
H142	H	1.805025	-0.018635	1.385733
N143	N	1.265702	-0.836497	0.482452
N144	N	1.765702	-0.336497	0.982452
H145	H	1.304890	-0.870460	0.518864
H146	H	1.804890	-0.370460	1.018864
H147	H	1.221052	-0.870515	0.450468
H148	H	1.721052	-0.370515	0.950468
H149	H	1.282085	-0.469054	0.826478
H150	H	1.782085	0.030946	1.326478
H151	H	1.506111	-1.078494	0.287240
H152	H	2.006111	-0.578494	0.787240
H153	H	1.282066	-0.929791	0.469216
H154	H	1.782066	-0.429791	0.969216
N155	N	1.522201	-0.666074	0.273903
N156	N	2.022201	-0.166074	0.773903
H157	H	1.507271	-0.680392	0.217808
H158	H	2.007271	-0.180392	0.717808
H159	H	1.591092	-0.680302	0.286218
H160	H	2.091092	-0.180302	0.786218
N161	N	1.265841	-1.089362	0.482496
N162	N	1.765841	-0.589362	0.982496
H163	H	1.226724	-1.050963	0.514270
H164	H	1.726724	-0.550963	1.014270
H165	H	1.305105	-1.123324	0.518851
H166	H	1.805105	-0.623324	1.018851
