data_functionalizedCrystal
_audit_creation_method	'MofGen! by Chris Wilmer'
_symmetry_space_group_name_H-M	'P1'
_symmetry_Int_Tables_number	1
_symmetry_cell_setting	triclinic
loop_
_symmetry_equiv_pos_as_xyz
  x,y,z
_cell_length_a	15.944499
_cell_length_b	15.944493
_cell_length_c	15.021413
_cell_angle_alpha	90.009890
_cell_angle_beta	89.990095
_cell_angle_gamma	83.476327
loop_
_atom_site_label
_atom_site_type_symbol
_atom_site_fract_x
_atom_site_fract_y
_atom_site_fract_z
O1	O	1.114533	0.108117	-0.074074
O2	O	1.447867	0.441450	0.259260
O3	O	1.781200	0.774784	0.592593
O4	O	0.869975	0.121519	-0.074062
O5	O	1.203308	0.454852	0.259271
O6	O	1.536642	0.788186	0.592604
O7	O	0.998958	-0.007461	-0.074076
O8	O	1.332291	0.325872	0.259258
O9	O	1.665625	0.659205	0.592591
O10	O	0.985551	0.237097	-0.074060
O11	O	1.318884	0.570431	0.259273
O12	O	1.652217	0.903764	0.592606
O13	O	0.998937	-0.007443	0.073989
O14	O	1.332271	0.325890	0.407322
O15	O	1.665604	0.659224	0.740655
O16	O	0.869955	0.121537	0.074002
O17	O	1.203288	0.454871	0.407335
O18	O	1.536621	0.788204	0.740669
O19	O	1.114513	0.108135	0.073991
O20	O	1.447846	0.441469	0.407324
O21	O	1.781180	0.774802	0.740657
Zn22	Zn	0.992230	0.114839	0.097505
Zn23	Zn	1.325564	0.448173	0.430838
Zn24	Zn	1.658897	0.781506	0.764171
Zn25	Zn	0.992257	0.114815	-0.097576
Zn26	Zn	1.325591	0.448148	0.235757
Zn27	Zn	1.658924	0.781482	0.569090
O28	O	0.985530	0.237116	0.074004
O29	O	1.318863	0.570449	0.407337
O30	O	1.652197	0.903782	0.740671
C31	C	0.838670	0.120979	-0.000029
C32	C	1.172004	0.454313	0.333304
C33	C	1.505337	0.787646	0.666638
C34	C	0.745422	0.119334	-0.000025
C35	C	1.078756	0.452668	0.333308
C36	C	1.412089	0.786001	0.666641
C37	C	0.453871	0.194269	-0.000034
C38	C	0.787204	0.527602	0.333300
C39	C	1.120537	0.860935	0.666633
C40	C	0.514918	0.155307	-0.073041
C41	C	0.848251	0.488640	0.260292
C42	C	1.181585	0.821974	0.593625
C43	C	0.409787	0.113358	-0.000046
C44	C	0.743120	0.446691	0.333287
C45	C	1.076454	0.780025	0.666621
C46	C	0.514884	0.155303	0.072939
C47	C	0.848217	0.488637	0.406272
C48	C	1.181550	0.821970	0.739605
C49	C	0.574695	0.116299	-0.000034
C50	C	0.908028	0.449632	0.333299
C51	C	1.241362	0.782965	0.666632
C52	C	0.469606	0.074374	-0.073114
C53	C	0.802940	0.407707	0.260219
C54	C	1.136273	0.741041	0.593553
C55	C	0.469565	0.074382	0.072931
C56	C	0.802899	0.407715	0.406265
C57	C	1.136232	0.741048	0.739598
C58	C	0.530595	0.035361	-0.000094
C59	C	0.863929	0.368694	0.333239
C60	C	1.197262	0.702028	0.666573
C61	C	0.314787	0.111666	-0.000054
C62	C	0.648121	0.445000	0.333280
C63	C	0.981454	0.778333	0.666613
C64	C	0.669694	0.117984	-0.000033
C65	C	1.003027	0.451318	0.333300
C66	C	1.336360	0.784651	0.666633
C67	C	0.998400	-0.038747	-0.000047
C68	C	1.331733	0.294586	0.333286
C69	C	1.665066	0.627920	0.666619
C70	C	0.996757	-0.131995	-0.000059
C71	C	1.330090	0.201338	0.333275
C72	C	1.663423	0.534671	0.666608
C73	C	1.145818	0.108675	-0.000045
C74	C	1.479151	0.442008	0.333289
C75	C	1.812484	0.775342	0.666622
C76	C	1.239066	0.110320	-0.000054
C77	C	1.572399	0.443653	0.333279
C78	C	1.905732	0.776987	0.666612
C79	C	1.072679	-0.367769	-0.000045
C80	C	1.406012	-0.034436	0.333288
C81	C	1.739346	0.298897	0.666621
C82	C	1.031747	-0.418339	-0.073046
C83	C	1.365080	-0.085005	0.260287
C84	C	1.698414	0.248328	0.593620
C85	C	0.993713	-0.302716	-0.000048
C86	C	1.327046	0.030618	0.333286
C87	C	1.660379	0.363951	0.666619
C88	C	1.031709	-0.418297	0.072933
C89	C	1.365042	-0.084963	0.406267
C90	C	1.698375	0.248370	0.739600
C91	C	0.990778	-0.467625	-0.000033
C92	C	1.324111	-0.134291	0.333300
C93	C	1.657445	0.199042	0.666634
C94	C	0.952802	-0.352057	-0.073109
C95	C	1.286135	-0.018724	0.260224
C96	C	1.619469	0.314610	0.593558
C97	C	0.952775	-0.352012	0.072936
C98	C	1.286108	-0.018678	0.406270
C99	C	1.619442	0.314655	0.739603
C100	C	0.911785	-0.402548	-0.000082
C101	C	1.245118	-0.069215	0.333251
C102	C	1.578452	0.264118	0.666584
C103	C	0.995405	-0.207716	-0.000057
C104	C	1.328739	0.125617	0.333277
C105	C	1.662072	0.458951	0.666610
C106	C	0.989079	-0.562622	-0.000030
C107	C	1.322412	-0.229288	0.333303
C108	C	1.655746	0.104045	0.666636
N109	N	0.992218	0.114855	0.230642
N110	N	1.325551	0.448189	0.563976
N111	N	1.658885	0.781522	0.897309
C112	C	0.986088	0.268401	-0.000026
C113	C	1.319422	0.601735	0.333307
C114	C	1.652755	0.935068	0.666640
C115	C	0.987731	0.361650	-0.000021
C116	C	1.321064	0.694983	0.333312
C117	C	1.654398	1.028316	0.666646
N118	N	0.992276	0.114792	-0.230714
N119	N	1.325610	0.448126	0.102619
N120	N	1.658943	0.781459	0.435953
C121	C	0.932567	0.174468	0.470332
C122	C	1.265901	0.507801	0.803665
C123	C	1.599234	0.841134	1.136998
C124	C	1.008466	0.190761	0.529664
C125	C	1.341799	0.524095	0.862997
C126	C	1.675133	0.857428	1.196331
C127	C	0.992240	0.114834	0.412249
C128	C	1.325573	0.448168	0.745582
C129	C	1.658906	0.781501	1.078916
C130	C	0.916361	0.098560	0.529659
C131	C	1.249695	0.431893	0.862992
C132	C	1.583028	0.765226	1.196325
C133	C	0.992254	0.114816	0.587673
C134	C	1.325587	0.448149	0.921007
C135	C	1.658920	0.781483	1.254340
C136	C	1.068177	0.131165	0.470275
C137	C	1.401510	0.464499	0.803608
C138	C	1.734843	0.797832	1.136942
C139	C	0.976022	0.038931	0.470264
C140	C	1.309355	0.372264	0.803598
C141	C	1.642689	0.705598	1.136931
C142	C	1.051976	0.055192	0.529570
C143	C	1.385309	0.388525	0.862903
C144	C	1.718642	0.721859	1.196237
C145	C	0.992230	0.114847	0.311192
C146	C	1.325564	0.448180	0.644525
C147	C	1.658897	0.781514	0.977858
C148	C	0.992272	0.114803	0.688728
C149	C	1.325605	0.448136	1.022062
C150	C	1.658938	0.781469	1.355395
H151	H	0.535018	0.189524	-0.134755
H152	H	0.868351	0.522857	0.198578
H153	H	1.201684	0.856191	0.531911
Br154	Br	0.436031	0.017400	0.175803
Br155	Br	0.769364	0.350733	0.509136
Br156	Br	1.102697	0.684067	0.842469
Br157	Br	1.087341	-0.466608	-0.175919
Br158	Br	1.420675	-0.133275	0.157415
Br159	Br	1.754008	0.200058	0.490748
Br160	Br	0.809402	0.075629	0.573140
Br161	Br	1.142735	0.408962	0.906474
Br162	Br	1.476068	0.742296	1.239807
H163	H	0.882155	0.224939	0.444321
H164	H	1.215489	0.558272	0.777655
H165	H	1.548822	0.891605	1.110988
H166	H	1.140699	-0.352153	-0.000122
H167	H	1.474032	-0.018820	0.333211
H168	H	1.807365	0.314513	0.666545
Br169	Br	0.897266	-0.304032	-0.176087
Br170	Br	1.230599	0.029302	0.157246
Br171	Br	1.563933	0.362635	0.490580
H172	H	1.065065	-0.447226	0.134646
H173	H	1.398398	-0.113893	0.467980
H174	H	1.731732	0.219440	0.801313
H175	H	0.563787	-0.031847	-0.000137
H176	H	0.897120	0.301486	0.333196
H177	H	1.230453	0.634820	0.666530
Br178	Br	0.548324	0.212377	0.175806
Br179	Br	0.881658	0.545710	0.509139
Br180	Br	1.214991	0.879043	0.842472
Br181	Br	0.953100	-0.068011	0.426741
Br182	Br	1.286434	0.265322	0.760074
Br183	Br	1.619767	0.598656	1.093407
H184	H	0.449643	0.040176	-0.134905
H185	H	0.782976	0.373509	0.198428
H186	H	1.116310	0.706843	0.531761
H187	H	0.843713	-0.418002	-0.000119
H188	H	1.177046	-0.084668	0.333214
H189	H	1.510379	0.248665	0.666547
Br190	Br	0.398292	0.306183	-0.000138
Br191	Br	0.731625	0.639517	0.333195
Br192	Br	1.064959	0.972850	0.666528
H193	H	1.102500	0.004751	0.555417
H194	H	1.435833	0.338084	0.888750
H195	H	1.769166	0.671418	1.222084
Br196	Br	0.897243	-0.303694	0.175814
Br197	Br	1.230576	0.029639	0.509148
Br198	Br	1.563909	0.362973	0.842481
Br199	Br	1.031354	0.297733	0.573150
Br200	Br	1.364687	0.631066	0.906483
Br201	Br	1.698020	0.964400	1.239816
H202	H	1.132365	0.144999	0.444300
H203	H	1.465699	0.478333	0.777633
H204	H	1.799032	0.811666	1.110967
