data_functionalizedCrystal
_audit_creation_method	'MofGen! by Chris Wilmer'
_symmetry_space_group_name_H-M	'P1'
_symmetry_Int_Tables_number	1
_symmetry_cell_setting	triclinic
loop_
_symmetry_equiv_pos_as_xyz
  x,y,z
_cell_length_a	12.645331
_cell_length_b	12.594516
_cell_length_c	12.594510
_cell_angle_alpha	89.967330
_cell_angle_beta	90.021145
_cell_angle_gamma	89.973054
loop_
_atom_site_label
_atom_site_type_symbol
_atom_site_fract_x
_atom_site_fract_y
_atom_site_fract_z
Zn1	Zn	1.620647	0.423640	0.601873
Zn2	Zn	1.620506	0.601669	0.423900
Zn3	Zn	1.443367	0.423705	0.423902
Zn4	Zn	1.443316	0.601577	0.601830
O5	O	1.531959	0.512648	0.512876
O6	O	1.768976	0.447266	0.578282
O7	O	1.596971	0.578128	0.274954
O8	O	1.466964	0.274751	0.447529
O9	O	1.768872	0.578064	0.447526
O10	O	1.597211	0.274703	0.578284
O11	O	1.466827	0.447379	0.274956
O12	O	1.295013	0.447290	0.447487
O13	O	1.466877	0.577908	0.750781
O14	O	1.294975	0.577971	0.578210
O15	O	1.597161	0.447178	0.750813
O16	O	1.596921	0.750603	0.447484
O17	O	1.466740	0.750535	0.578208
C18	C	1.256529	0.512629	0.512845
C19	C	1.138699	0.512646	0.512857
C20	C	1.093805	0.430306	0.430753
C21	C	0.971246	0.430002	0.431034
C22	C	0.970871	0.482717	0.625215
C23	C	1.093469	0.482102	0.624702
C24	C	1.093467	0.625160	0.483662
C25	C	0.970860	0.624573	0.481226
C26	C	1.531838	0.789189	0.512864
C27	C	1.531883	0.907494	0.512895
C28	C	1.461058	0.976749	0.583945
C29	C	1.435216	1.047625	0.486822
C30	C	1.557783	1.047417	0.610033
C31	C	1.505991	0.976812	0.415719
C32	C	1.628602	0.976598	0.538997
C33	C	1.602797	1.047442	0.441806
C34	C	1.808464	0.512668	0.512908
C35	C	1.926294	0.512677	0.512922
C36	C	1.532029	0.512525	0.790497
C37	C	1.532059	0.512473	0.908803
C38	C	1.532062	1.235027	0.512910
C39	C	1.531987	1.116722	0.512921
C40	C	1.531950	0.512693	0.236335
C41	C	1.532126	0.512446	0.118030
C42	C	1.602942	0.441363	0.978073
C43	C	1.506261	0.415311	1.048863
C44	C	1.628797	0.538451	1.048812
C45	C	1.435326	0.486370	0.978035
C46	C	1.557927	0.609555	0.977977
C47	C	1.461179	0.583539	1.048735
H48	H	1.124644	0.347407	0.449886
C49	C	0.929453	0.372858	0.659156
C50	C	0.809674	0.353789	0.670139
C51	C	0.768259	0.243928	0.704072
C52	C	0.846621	0.153135	0.727022
C53	C	0.966406	0.172201	0.716039
C54	C	1.007822	0.282062	0.682106
H55	H	0.751659	0.421002	0.653149
H56	H	0.679585	0.229814	0.712202
H57	H	0.815962	0.071808	0.752141
H58	H	1.024422	0.104988	0.733028
H59	H	1.096496	0.296176	0.673976
H60	H	1.579813	0.691644	0.946819
H61	H	1.662736	1.078286	0.381663
H62	H	1.710578	0.560432	1.079905
H63	H	1.484404	0.333199	1.080001
H64	H	1.484032	0.945925	0.333558
H65	H	0.941102	0.448695	0.347784
H66	H	1.123208	0.448784	0.347220
H67	H	1.353521	0.464292	0.947075
C68	C	0.931656	0.317381	0.457206
C69	C	0.812128	0.294691	0.462654
C70	C	0.772539	0.182063	0.488820
C71	C	0.852479	0.092125	0.509537
C72	C	0.972015	0.114812	0.504090
C73	C	1.011603	0.227440	0.477925
H74	H	0.752945	0.361271	0.447317
H75	H	0.684051	0.165269	0.492852
H76	H	0.823173	0.008751	0.528907
H77	H	1.031197	0.048232	0.519427
H78	H	1.100092	0.244235	0.473892
C79	C	1.133612	0.559624	0.710202
C80	C	1.103927	0.678072	0.704211
C81	C	1.144066	0.755586	0.789714
C82	C	1.213891	0.714652	0.881208
C83	C	1.243580	0.596198	0.887203
C84	C	1.203440	0.518684	0.801700
H85	H	1.052235	0.708380	0.636478
H86	H	1.122088	0.843274	0.785275
H87	H	1.243605	0.772032	0.944502
H88	H	1.295272	0.565890	0.954935
H89	H	1.225418	0.430996	0.806138
C90	C	1.132148	0.371006	0.658019
C91	C	1.200958	0.304994	0.581769
C92	C	1.239626	0.193892	0.615077
C93	C	1.209483	0.148800	0.724633
C94	C	1.140669	0.214812	0.800890
C95	C	1.102001	0.325915	0.767583
H96	H	1.223275	0.338373	0.500663
H97	H	1.290567	0.145025	0.558626
H98	H	1.238107	0.066555	0.749290
H99	H	1.118352	0.181433	0.881997
H100	H	1.051060	0.374781	0.824033
C101	C	1.587329	1.089319	0.720993
C102	C	1.509607	1.160867	0.782133
C103	C	1.539144	1.202765	0.893094
C104	C	1.646402	1.173116	0.942915
C105	C	1.724131	1.101564	0.881775
C106	C	1.694594	1.059666	0.770814
H107	H	1.430202	1.182819	0.745253
H108	H	1.481603	1.255732	0.938354
H109	H	1.668267	1.204131	1.025055
H110	H	1.803536	1.079612	0.918655
H111	H	1.752135	1.006699	0.725554
H112	H	1.662780	0.381194	0.947043
C113	C	1.380152	0.664760	1.090402
C114	C	1.262259	0.652762	1.062195
C115	C	1.181228	0.733975	1.103866
C116	C	1.218091	0.827188	1.173743
C117	C	1.335990	0.839190	1.201954
C118	C	1.417020	0.757976	1.160283
H119	H	1.234965	0.583757	1.010465
H120	H	1.093952	0.725090	1.082983
H121	H	1.158108	0.887307	1.204591
H122	H	1.363283	0.908195	1.253684
H123	H	1.504297	0.766862	1.181166
H124	H	0.941760	0.540864	0.688088
C125	C	0.931476	0.655123	0.369591
C126	C	0.859192	0.578858	0.307471
C127	C	0.819794	0.609409	0.195840
C128	C	0.852682	0.716225	0.146329
C129	C	0.924971	0.792498	0.208449
C130	C	0.964368	0.761947	0.320081
H131	H	0.834843	0.499780	0.344122
H132	H	0.766281	0.552946	0.149855
H133	H	0.823518	0.738841	0.063693
H134	H	0.949319	0.871576	0.171799
H135	H	1.017881	0.818409	0.366066
H136	H	1.124331	0.652513	0.403139
H137	H	0.940250	0.689178	0.536633
C138	C	1.132691	0.708036	0.564435
C139	C	1.099211	0.825082	0.553215
C140	C	1.138439	0.907947	0.633993
C141	C	1.211145	0.873767	0.725991
C142	C	1.244629	0.756716	0.737214
C143	C	1.205401	0.673850	0.656436
H144	H	1.045386	0.850389	0.485110
H145	H	1.113652	0.994596	0.625685
H146	H	1.240184	0.935108	0.785788
H147	H	1.298454	0.731408	0.805320
H148	H	1.230188	0.587201	0.664745
H149	H	1.401073	0.945709	0.643943
H150	H	1.353473	1.078847	0.464766
H151	H	1.710327	0.945379	0.561099
