data_functionalizedCrystal
_audit_creation_method	'MofGen! by Chris Wilmer'
_symmetry_space_group_name_H-M	'P1'
_symmetry_Int_Tables_number	1
_symmetry_cell_setting	triclinic
loop_
_symmetry_equiv_pos_as_xyz
  x,y,z
_cell_length_a	21.606444
_cell_length_b	21.606444
_cell_length_c	21.606444
_cell_angle_alpha	89.995825
_cell_angle_beta	119.998555
_cell_angle_gamma	60.003871
loop_
_atom_site_label
_atom_site_type_symbol
_atom_site_fract_x
_atom_site_fract_y
_atom_site_fract_z
Zr1	Zr	0.677458	-0.081173	-0.596220
O2	O	0.806570	-0.179995	-0.497395
O3	O	0.548341	-0.050881	-0.626516
O4	O	0.677454	-0.179994	-0.626515
O5	O	0.677461	0.050967	-0.497396
O6	O	0.677457	-0.179990	-0.728366
O7	O	0.677457	-0.050882	-0.497396
O8	O	0.446497	0.050969	-0.728368
O9	O	0.908420	-0.179992	-0.497394
O10	O	0.601452	-0.037956	-0.715446
O11	O	0.601454	0.038051	-0.639436
O12	O	0.753467	-0.113963	-0.639434
O13	O	0.753469	-0.037957	-0.563424
Zr14	Zr	0.677468	0.081273	-0.758660
Zr15	Zr	0.677461	-0.081166	-0.758660
Zr16	Zr	0.677465	0.081266	-0.596220
Zr17	Zr	0.839898	-0.081167	-0.596218
Zr18	Zr	0.515028	0.081267	-0.758662
O19	O	0.806585	0.050981	-0.728364
O20	O	0.806575	-0.179986	-0.728364
O21	O	0.806580	0.050972	-0.497395
O22	O	0.548357	0.180095	-0.857485
O23	O	0.548347	-0.050872	-0.857485
O24	O	0.548351	0.180086	-0.626516
O25	O	0.677465	-0.050867	-0.857484
O26	O	0.677472	0.180094	-0.728365
O27	O	0.677470	0.180090	-0.626514
O28	O	0.677469	0.050982	-0.857484
O29	O	0.908423	-0.179987	-0.626513
O30	O	0.446503	0.180086	-0.728368
O31	O	0.446506	0.180092	-0.857486
O32	O	0.446500	0.050975	-0.857486
O33	O	0.908426	-0.050875	-0.497394
O34	O	0.908429	-0.050870	-0.626512
O35	O	0.601459	0.114063	-0.715446
O36	O	0.601457	0.038057	-0.791456
O37	O	0.753472	-0.037951	-0.715444
O38	O	0.753474	0.038056	-0.639434
C39	C	0.474275	0.000043	-0.677442
C40	C	0.405315	0.000041	-0.677443
C41	C	0.677458	0.000042	-0.474252
C42	C	0.677457	0.000039	-0.405292
C43	C	0.677472	0.203236	-0.677440
C44	C	0.677475	0.272195	-0.677440
C45	C	0.372917	-0.039634	-0.717118
C46	C	0.308117	-0.039629	-0.717120
C47	C	0.275721	0.000047	-0.677443
C48	C	0.308122	0.039728	-0.637767
C49	C	0.372916	0.039727	-0.637770
C50	C	0.046812	0.039734	-0.637758
C51	C	-0.017985	0.039730	-0.637757
C52	C	-0.017987	-0.039622	-0.717109
C53	C	0.046807	-0.039623	-0.717112
C54	C	0.079199	0.000060	-0.677439
C55	C	0.149462	0.000056	-0.677438
C56	C	0.205464	0.000048	-0.677440
C57	C	0.880651	0.000057	-0.677438
C58	C	0.949611	0.000059	-0.677437
C59	C	0.677454	-0.203136	-0.677440
C60	C	0.677451	-0.272095	-0.677440
C61	C	0.756825	0.264919	-0.637764
C62	C	0.756822	0.329717	-0.637760
C63	C	0.677469	0.401789	-0.677438
C64	C	0.598113	0.409064	-0.717115
C65	C	0.598116	0.344267	-0.717113
C66	C	0.598098	0.670382	-0.717121
C67	C	0.598101	0.735180	-0.717121
C68	C	0.756804	0.655831	-0.637768
C69	C	0.756807	0.591035	-0.637766
C70	C	0.677452	0.598315	-0.677440
C71	C	0.677455	0.528054	-0.677442
C72	C	0.677465	0.472050	-0.677441
C73	C	0.677472	0.056168	0.018011
C74	C	0.677466	0.056168	-0.046788
C75	C	0.677463	0.000056	-0.079182
C76	C	0.677456	-0.056056	-0.046779
C77	C	0.677455	-0.056052	0.018016
C78	C	0.677456	-0.056072	-0.308089
C79	C	0.677459	-0.056073	-0.372887
C80	C	0.677467	0.056147	-0.372894
C81	C	0.677467	0.056151	-0.308099
C82	C	0.677455	0.000043	-0.275703
C83	C	0.677460	0.000044	-0.205441
C84	C	0.677464	0.000050	-0.149440
C85	C	0.677467	0.000058	0.119372
C86	C	0.677468	0.000060	0.050411
C87	C	0.474280	0.000052	-0.880630
C88	C	0.405321	0.000052	-0.949591
C89	C	0.474284	0.203229	-0.677442
C90	C	0.405327	0.272186	-0.677443
C91	C	0.474288	0.203238	-0.880630
C92	C	0.405333	0.272198	-0.949591
C93	C	0.880638	-0.203138	-0.474250
C94	C	0.949593	-0.272098	-0.405290
C95	C	0.880646	0.000048	-0.474250
C96	C	0.949605	0.000048	-0.405289
C97	C	0.880642	-0.203129	-0.677438
C98	C	0.949600	-0.272087	-0.677438
C99	C	0.372935	-0.039632	-0.942299
C100	C	0.308150	-0.039646	-1.007089
C101	C	0.275748	0.000028	-1.079170
C102	C	0.308141	0.039713	-1.086460
C103	C	0.372929	0.039723	-1.021671
C104	C	0.372946	0.344254	-0.717119
C105	C	0.308163	0.409053	-0.717117
C106	C	0.275756	0.401782	-0.677442
C107	C	0.308143	0.329707	-0.637760
C108	C	0.372930	0.264910	-0.637759
C109	C	0.372950	0.264908	-1.021659
C110	C	0.308168	0.329697	-1.086461
C111	C	0.275765	0.401775	-1.079193
C112	C	0.308155	0.409064	-1.007118
C113	C	0.372940	0.344275	-0.942317
C114	C	0.981984	-0.264808	-0.333222
C115	C	1.046786	-0.329597	-0.268419
C116	C	1.079192	-0.401675	-0.275687
C117	C	1.046799	-0.408964	-0.347763
C118	C	0.982002	-0.344175	-0.412563
C119	C	0.981998	0.039725	-0.412581
C120	C	1.046801	0.039722	-0.347791
C121	C	1.079205	0.000045	-0.275710
C122	C	1.046809	-0.039637	-0.268420
C123	C	0.982012	-0.039638	-0.333209
C124	C	0.981985	-0.264792	-0.717120
C125	C	1.046769	-0.329578	-0.717135
C126	C	1.079171	-0.401659	-0.677461
C127	C	1.046779	-0.408952	-0.637777
C128	C	0.981991	-0.344166	-0.637768
H129	H	0.399293	-0.071948	-0.749423
H130	H	0.222993	0.000015	-1.131919
H131	H	0.073175	0.072050	-0.605458
H132	H	0.399296	0.072032	-0.605460
Br133	Br	0.264153	0.319853	-0.583919
Br134	Br	0.677441	-0.132198	0.061984
Br135	Br	0.938027	-0.166977	-0.770969
H136	H	0.677449	-0.101759	-0.281716
H137	H	0.399286	0.206232	-0.605452
H138	H	0.821443	0.206238	-0.605457
Br139	Br	0.938046	-0.354083	-0.510367
H140	H	0.281763	0.467759	-1.001211
H141	H	0.677455	-0.101769	-0.399262
H142	H	1.073150	-0.323647	-0.209739
H143	H	0.399322	0.206224	-1.027590
Br144	Br	0.264222	0.319787	-1.184268
Br145	Br	0.490401	0.680269	-0.770962
H146	H	1.131925	-0.454405	-0.677475
H147	H	0.399316	-0.071949	-0.883613
H148	H	0.399298	0.350222	-0.883638
H149	H	0.677447	-0.101742	-0.073161
H150	H	0.677469	0.101856	-0.073169
H151	H	1.131953	-0.454424	-0.222916
Br152	Br	0.490423	0.354142	-0.770956
H153	H	0.281784	-0.071963	-1.001138
Br154	Br	0.264155	0.093556	-1.184290
Br155	Br	0.187841	0.489696	-1.167146
H156	H	0.955603	-0.206124	-0.327290
H157	H	1.073192	-0.467658	-0.353671
Br158	Br	0.938038	0.093576	-0.510397
Br159	Br	0.938054	-0.093488	-0.323299
H160	H	0.281737	-0.071935	-0.749427
H161	H	0.073185	-0.071934	-0.749417
H162	H	0.399290	0.072043	-1.027619
H163	H	1.073167	0.072039	-0.353742
H164	H	-0.044371	-0.071932	-0.749416
Br165	Br	0.416908	0.354142	-0.770975
Br166	Br	0.264222	0.506859	-0.770976
Br167	Br	0.864503	0.645954	-0.583923
Br168	Br	1.090769	-0.506781	-0.583931
Br169	Br	0.490418	0.506876	-0.770957
Br170	Br	1.167145	0.000054	-0.187789
H171	H	0.821424	0.532353	-0.605460
H172	H	0.223003	0.454551	-0.677449
Br173	Br	1.090720	-0.319662	-0.770992
Br174	Br	0.938054	-0.354080	-0.583900
Br175	Br	1.090794	-0.093479	-0.170590
H176	H	0.281735	0.072038	-0.605466
Br177	Br	0.864516	0.319838	-0.583879
Br178	Br	0.490400	0.832996	-0.770972
Br179	Br	-0.061950	0.093580	-0.583906
Br180	Br	0.677479	0.132302	-0.264134
Br181	Br	0.677487	0.132321	0.061972
H182	H	0.677472	0.101836	-0.399279
