data_functionalizedCrystal
_audit_creation_method	'MofGen! by Chris Wilmer'
_symmetry_space_group_name_H-M	'P1'
_symmetry_Int_Tables_number	1
_symmetry_cell_setting	triclinic
loop_
_symmetry_equiv_pos_as_xyz
  x,y,z
_cell_length_a	14.971486
_cell_length_b	14.971486
_cell_length_c	13.448316
_cell_angle_alpha	90.006811
_cell_angle_beta	90.001801
_cell_angle_gamma	83.614129
loop_
_atom_site_label
_atom_site_type_symbol
_atom_site_fract_x
_atom_site_fract_y
_atom_site_fract_z
O1	O	-1.186947	-0.116565	-0.082578
O2	O	-0.853614	0.216769	0.250755
O3	O	-0.520281	0.550102	0.584089
O4	O	-0.926547	-0.130524	-0.082605
O5	O	-0.593214	0.202810	0.250728
O6	O	-0.259881	0.536143	0.584062
O7	O	-1.063727	0.006656	-0.082584
O8	O	-0.730393	0.339989	0.250750
O9	O	-0.397060	0.673323	0.584083
O10	O	-1.049768	-0.253744	-0.082599
O11	O	-0.716435	0.079589	0.250734
O12	O	-0.383101	0.412922	0.584067
O13	O	-1.063709	0.006664	0.082800
O14	O	-0.730376	0.339998	0.416133
O15	O	-0.397043	0.673331	0.749467
O16	O	-0.926530	-0.130515	0.082779
O17	O	-0.593197	0.202818	0.416112
O18	O	-0.259863	0.536152	0.749445
O19	O	-1.186930	-0.116556	0.082806
O20	O	-0.853597	0.216777	0.416139
O21	O	-0.520263	0.550110	0.749473
Cu22	Cu	-1.056728	-0.123535	0.097893
Cu23	Cu	-0.723395	0.209798	0.431226
Cu24	Cu	-0.390062	0.543132	0.764560
Cu25	Cu	-1.056749	-0.123545	-0.097692
Cu26	Cu	-0.723416	0.209788	0.235641
Cu27	Cu	-0.390082	0.543122	0.568974
O28	O	-1.049751	-0.253736	0.082784
O29	O	-0.716417	0.079598	0.416118
O30	O	-0.383084	0.412931	0.749451
C31	C	-0.893214	-0.129895	0.000083
C32	C	-0.559881	0.203438	0.333417
C33	C	-0.226547	0.536772	0.666750
C34	C	-0.793917	-0.128024	0.000073
C35	C	-0.460583	0.205309	0.333407
C36	C	-0.127250	0.538642	0.666740
C37	C	-1.063094	0.039985	0.000108
C38	C	-0.729761	0.373318	0.333441
C39	C	-0.396427	0.706652	0.666774
C40	C	-1.061223	0.139282	0.000107
C41	C	-0.727890	0.472615	0.333440
C42	C	-0.394556	0.805949	0.666773
C43	C	-1.220263	-0.117185	0.000115
C44	C	-0.886930	0.216149	0.333448
C45	C	-0.553597	0.549482	0.666782
C46	C	-1.319561	-0.119056	0.000119
C47	C	-0.986227	0.214278	0.333452
C48	C	-0.652894	0.547611	0.666785
C49	C	-1.050384	-0.287065	0.000091
C50	C	-0.717050	0.046269	0.333424
C51	C	-0.383717	0.379602	0.666757
C52	C	-1.052254	-0.386362	0.000085
C53	C	-0.718921	-0.053028	0.333419
C54	C	-0.385588	0.280305	0.666752
C55	C	-0.736692	-0.208614	0.000070
C56	C	-0.403358	0.124720	0.333403
C57	C	-0.070025	0.458053	0.666736
C58	C	-0.643392	-0.206850	0.000085
C59	C	-0.310059	0.126483	0.333418
C60	C	0.023275	0.459816	0.666751
C61	C	-0.607320	-0.124497	0.000096
C62	C	-0.273986	0.208836	0.333429
C63	C	0.059347	0.542169	0.666763
C64	C	-0.664552	-0.043902	0.000102
C65	C	-0.331219	0.289431	0.333436
C66	C	0.002114	0.622765	0.666769
C67	C	-0.757850	-0.045666	0.000095
C68	C	-0.424517	0.287667	0.333428
C69	C	-0.091183	0.621001	0.666761
C70	C	-0.470090	-0.040231	0.000116
C71	C	-0.136757	0.293103	0.333450
C72	C	0.196577	0.626436	0.666783
C73	C	-0.376786	-0.038466	0.000122
C74	C	-0.043453	0.294867	0.333456
C75	C	0.289881	0.628200	0.666789
C76	C	-0.355632	-0.201415	0.000106
C77	C	-0.022299	0.131918	0.333440
C78	C	0.311035	0.465251	0.666773
C79	C	-0.448930	-0.203179	0.000099
C80	C	-0.115596	0.130154	0.333432
C81	C	0.217737	0.463487	0.666765
C82	C	-0.506156	-0.122584	0.000103
C83	C	-0.172822	0.210750	0.333436
C84	C	0.160511	0.544083	0.666770
C85	C	-1.141812	0.196507	0.000116
C86	C	-0.808479	0.529841	0.333449
C87	C	-0.475146	0.863174	0.666783
C88	C	-1.140049	0.289807	0.000106
C89	C	-0.806716	0.623140	0.333439
C90	C	-0.473383	0.956473	0.666772
C91	C	-1.057696	0.325879	0.000093
C92	C	-0.724363	0.659212	0.333427
C93	C	-0.391029	0.992546	0.666760
C94	C	-0.977101	0.268646	0.000081
C95	C	-0.643767	0.601980	0.333415
C96	C	-0.310434	0.935313	0.666748
C97	C	-0.978865	0.175349	0.000084
C98	C	-0.645531	0.508682	0.333418
C99	C	-0.312198	0.842015	0.666751
C100	C	-0.973430	0.463109	0.000077
C101	C	-0.640096	0.796442	0.333411
C102	C	-0.306763	1.129776	0.666744
C103	C	-0.971665	0.556413	0.000076
C104	C	-0.638332	0.889746	0.333409
C105	C	-0.304998	1.223080	0.666743
C106	C	-1.134614	0.577567	0.000099
C107	C	-0.801281	0.910900	0.333432
C108	C	-0.467947	1.244233	0.666765
C109	C	-1.136378	0.484269	0.000102
C110	C	-0.803045	0.817603	0.333435
C111	C	-0.469712	1.150936	0.666768
C112	C	-1.055782	0.427043	0.000091
C113	C	-0.722449	0.760376	0.333425
C114	C	-0.389116	1.093710	0.666758
N115	N	-1.056721	-0.123527	0.235457
N116	N	-0.723387	0.209806	0.568791
N117	N	-0.390054	0.543139	0.902124
N118	N	-1.056764	-0.123545	-0.235257
N119	N	-0.723430	0.209788	0.098077
N120	N	-0.390097	0.543121	0.431410
C121	C	-1.117483	-0.062809	0.287507
C122	C	-0.784149	0.270524	0.620841
C123	C	-0.450816	0.603857	0.954174
C124	C	-1.117488	-0.062809	0.391610
C125	C	-0.784155	0.270525	0.724944
C126	C	-0.450822	0.603858	1.058277
C127	C	-1.056735	-0.123531	0.443662
C128	C	-0.723402	0.209802	0.776995
C129	C	-0.390069	0.543136	1.110329
C130	C	-0.995967	-0.184252	0.391605
C131	C	-0.662634	0.149081	0.724938
C132	C	-0.329300	0.482415	1.058272
C133	C	-0.995958	-0.184248	0.287504
C134	C	-0.662624	0.149086	0.620837
C135	C	-0.329291	0.482419	0.954170
C136	C	-0.995992	-0.184258	0.608585
C137	C	-0.662658	0.149075	0.941918
C138	C	-0.329325	0.482409	1.275252
C139	C	-0.996002	-0.184264	0.712693
C140	C	-0.662669	0.149070	1.046027
C141	C	-0.329335	0.482403	1.379360
C142	C	-1.117522	-0.062819	0.712692
C143	C	-0.784189	0.270514	1.046025
C144	C	-0.450856	0.603848	1.379359
C145	C	-1.117513	-0.062815	0.608591
C146	C	-0.784180	0.270519	0.941924
C147	C	-0.450846	0.603852	1.275257
C148	C	-1.056745	-0.123537	0.556541
C149	C	-0.723412	0.209796	0.889874
C150	C	-0.390079	0.543130	1.223207
H151	H	-0.766054	-0.275675	0.000060
H152	H	-0.432720	0.057658	0.333393
H153	H	-0.099387	0.390992	0.666727
Cl154	Cl	-0.919586	-0.260586	0.457039
Cl155	Cl	-0.586253	0.072747	0.790372
Cl156	Cl	-0.252920	0.406081	1.123705
Cl157	Cl	-0.919621	-0.260602	0.778122
Cl158	Cl	-0.586288	0.072731	1.111455
Cl159	Cl	-0.252954	0.406065	1.444788
Cl160	Cl	-0.868134	0.601760	0.000062
Cl161	Cl	-0.534800	0.935093	0.333395
Cl162	Cl	-0.201467	1.268426	0.666728
Cl163	Cl	-1.241366	0.361744	0.000120
Cl164	Cl	-0.908033	0.695077	0.333453
Cl165	Cl	-0.574700	1.028411	0.666787
H166	H	-0.347419	0.028593	0.000133
H167	H	-0.014086	0.361926	0.333466
H168	H	0.319247	0.695260	0.666799
Cl169	Cl	-0.283691	-0.302736	0.000103
Cl170	Cl	0.049642	0.030597	0.333436
Cl171	Cl	0.382976	0.363931	0.666770
Cl172	Cl	-1.239909	0.438922	0.000112
Cl173	Cl	-0.906576	0.772256	0.333445
Cl174	Cl	-0.573243	1.105589	0.666779
Cl175	Cl	-0.919564	-0.260579	0.222070
Cl176	Cl	-0.586231	0.072754	0.555404
Cl177	Cl	-0.252898	0.406087	0.888737
Cl178	Cl	-0.872107	0.391168	0.000064
Cl179	Cl	-0.538774	0.724502	0.333397
Cl180	Cl	-0.205441	1.057835	0.666731
Cl181	Cl	-1.193867	0.013528	0.222082
Cl182	Cl	-0.860533	0.346862	0.555415
Cl183	Cl	-0.527200	0.680195	0.888749
Cl184	Cl	-0.571455	-0.308168	0.000074
Cl185	Cl	-0.238122	0.025166	0.333408
Cl186	Cl	0.095212	0.358499	0.666741
H187	H	-0.478296	-0.270239	0.000080
H188	H	-0.144963	0.063095	0.333413
H189	H	0.188370	0.396428	0.666747
Cl190	Cl	-0.829791	0.055651	0.000103
Cl191	Cl	-0.496458	0.388984	0.333437
Cl192	Cl	-0.163125	0.722317	0.666770
Cl193	Cl	-1.193915	0.013515	0.778129
Cl194	Cl	-0.860582	0.346848	1.111463
Cl195	Cl	-0.527249	0.680182	1.444796
H196	H	-1.166987	-0.013374	0.566210
H197	H	-0.833653	0.319959	0.899544
H198	H	-0.500320	0.653292	1.232877
Cl199	Cl	-0.919594	-0.260595	0.543155
Cl200	Cl	-0.586260	0.072739	0.876488
Cl201	Cl	-0.252927	0.406072	1.209821
H202	H	-1.166964	-0.013367	0.433989
H203	H	-0.833631	0.319967	0.767322
H204	H	-0.500298	0.653300	1.100656
H205	H	-0.516682	0.025399	0.000121
H206	H	-0.183348	0.358732	0.333455
H207	H	0.149985	0.692066	0.666788
Cl208	Cl	-1.245348	0.151169	0.000141
Cl209	Cl	-0.912015	0.484503	0.333475
Cl210	Cl	-0.578682	0.817836	0.666808
Cl211	Cl	-0.619204	0.059629	0.000123
Cl212	Cl	-0.285871	0.392962	0.333456
Cl213	Cl	0.047462	0.726295	0.666789
H214	H	-0.910047	0.298024	0.000065
H215	H	-0.576714	0.631357	0.333399
H216	H	-0.243380	0.964690	0.666732
H217	H	-1.200238	0.624165	0.000104
H218	H	-0.866905	0.957499	0.333437
H219	H	-0.533572	1.290832	0.666770
H220	H	-0.913240	0.128756	0.000077
H221	H	-0.579907	0.462089	0.333410
H222	H	-0.246574	0.795423	0.666743
