data_functionalizedCrystal
_audit_creation_method	'MofGen! by Chris Wilmer'
_symmetry_space_group_name_H-M	'P1'
_symmetry_Int_Tables_number	1
_symmetry_cell_setting	triclinic
loop_
_symmetry_equiv_pos_as_xyz
  x,y,z
_cell_length_a	10.723024
_cell_length_b	15.021413
_cell_length_c	10.723022
_cell_angle_alpha	89.993872
_cell_angle_beta	84.467548
_cell_angle_gamma	90.007085
loop_
_atom_site_label
_atom_site_type_symbol
_atom_site_fract_x
_atom_site_fract_y
_atom_site_fract_z
O1	O	1.657194	0.074022	0.175011
O2	O	1.294042	0.074024	0.191764
O3	O	1.483996	0.074022	0.001811
O4	O	1.467240	0.074024	0.364964
O5	O	1.483966	-0.074042	0.001838
O6	O	1.294012	-0.074040	0.191791
O7	O	1.657164	-0.074042	0.175038
Zn8	Zn	1.475583	-0.097549	0.183419
Zn9	Zn	1.475623	0.097532	0.183383
O10	O	1.467210	-0.074040	0.364991
C11	C	1.247527	-0.000007	0.190558
C12	C	1.108973	-0.000006	0.186911
N13	N	1.475565	-0.230687	0.183443
C14	C	1.033990	-0.000005	0.293199
C15	C	0.890786	-0.000004	0.289431
C16	C	1.387716	-0.470369	0.271235
C17	C	1.500685	-0.529704	0.296421
C18	C	1.475597	-0.412294	0.183412
C19	C	1.362658	-0.529701	0.158254
C20	C	1.475617	-0.587718	0.183385
C21	C	1.588623	-0.470323	0.208654
C22	C	1.450521	-0.470314	0.070437
C23	C	1.563572	-0.529622	0.095576
C24	C	1.475583	-0.311237	0.183430
C25	C	1.475644	-0.688773	0.183365
C26	C	1.703679	-0.000009	0.176243
C27	C	1.842233	-0.000004	0.179891
N28	N	1.475651	0.230669	0.183350
C29	C	1.482762	-0.000009	-0.044675
C30	C	1.479115	-0.000004	-0.183229
C31	C	1.468444	-0.000007	0.411477
C32	C	1.472091	-0.000006	0.550031
C33	C	1.581631	-0.000006	0.598592
C34	C	1.585403	-0.000005	0.741795
H35	H	0.826353	0.000001	0.380421
C36	C	1.774114	0.076107	0.534554
C37	C	1.704472	-0.000007	0.511611
H38	H	1.849956	0.076102	0.480861
H39	H	1.726877	0.127729	0.518978
H40	H	1.792756	0.076098	0.619381
H41	H	1.685822	0.000005	0.426786
H42	H	1.751719	-0.051643	0.527178
C43	C	1.522796	-0.383758	-0.110509
C44	C	1.421822	-0.435059	-0.058479
H45	H	1.505068	-0.361997	-0.190098
H46	H	1.535574	-0.335044	-0.056725
H47	H	1.596223	-0.419450	-0.120008
H48	H	1.348397	-0.399365	-0.048971
H49	H	1.409030	-0.483780	-0.112276
C50	C	1.314084	-0.465215	0.489790
C51	C	1.287499	-0.435233	0.371572
H52	H	1.252223	-0.443516	0.551733
H53	H	1.313899	-0.528441	0.490969
H54	H	1.394157	-0.444008	0.506850
H55	H	1.207431	-0.456446	0.354508
H56	H	1.287672	-0.371994	0.370390
H57	H	1.385323	0.000001	0.774967
C58	C	1.247243	-0.000006	0.564730
C59	C	1.349250	-0.000005	0.637013
H60	H	1.171406	-0.000011	0.618430
H61	H	1.250575	0.051624	0.513373
H62	H	1.250562	-0.051643	0.513382
H63	H	1.345937	0.051635	0.688354
H64	H	1.345917	-0.051641	0.688392
C65	C	1.141836	-0.534987	0.221634
C66	C	1.233714	-0.564904	0.129527
H67	H	1.062230	-0.556714	0.203899
H68	H	1.160256	-0.556202	0.301265
H69	H	1.140700	-0.471754	0.222188
H70	H	1.234856	-0.628138	0.128980
H71	H	1.215289	-0.543694	0.049875
H72	H	1.679190	0.000026	0.783607
H73	H	1.684163	-0.444350	0.230035
C74	C	1.050647	0.076108	0.487778
C75	C	1.090432	-0.000005	0.419815
H76	H	1.085486	0.076103	0.565950
H77	H	1.077657	0.127731	0.441643
H78	H	0.961816	0.076101	0.501849
H79	H	1.179264	0.000005	0.405736
H80	H	1.063430	-0.051641	0.465960
C81	C	1.004916	0.076108	0.052165
C82	C	0.929201	-0.000005	0.057045
H83	H	1.058617	0.076103	-0.023671
H84	H	0.953562	0.127731	0.055467
H85	H	1.053933	0.076099	0.121384
H86	H	0.880176	0.000007	-0.012168
H87	H	0.980560	-0.051641	0.053731
C88	C	1.530158	-0.658140	0.423620
C89	C	1.529338	-0.564934	0.425373
H90	H	1.547845	-0.679886	0.503230
H91	H	1.450530	-0.679334	0.405154
H92	H	1.592671	-0.678411	0.361297
H93	H	1.466818	-0.544663	0.487691
H94	H	1.608976	-0.543732	0.443854
C95	C	1.782140	-0.534398	0.021933
C96	C	1.664013	-0.564536	-0.004703
H97	H	1.844148	-0.555959	-0.039967
H98	H	1.783125	-0.471170	0.021858
H99	H	1.799266	-0.555638	0.101968
H100	H	1.646883	-0.543290	-0.084734
H101	H	1.663024	-0.627776	-0.004640
H102	H	1.067151	0.000016	0.093125
