data_functionalizedCrystal
_audit_creation_method	'MofGen! by Chris Wilmer'
_symmetry_space_group_name_H-M	'P1'
_symmetry_Int_Tables_number	1
_symmetry_cell_setting	triclinic
loop_
_symmetry_equiv_pos_as_xyz
  x,y,z
_cell_length_a	27.732048
_cell_length_b	12.837943
_cell_length_c	11.892095
_cell_angle_alpha	94.310562
_cell_angle_beta	93.851775
_cell_angle_gamma	91.264202
loop_
_atom_site_label
_atom_site_type_symbol
_atom_site_fract_x
_atom_site_fract_y
_atom_site_fract_z
O1	O	0.122782	-1.380115	-0.094008
O2	O	0.116579	-1.078409	-0.094014
O3	O	0.049749	-1.238631	-0.093989
O4	O	0.189612	-1.219894	-0.094033
O5	O	0.055311	-1.225272	0.094016
O6	O	0.122142	-1.065051	0.093992
O7	O	0.128345	-1.366757	0.093997
Zn8	Zn	0.126126	-1.213783	0.123844
Zn9	Zn	0.118797	-1.231383	-0.123861
O10	O	0.195175	-1.206535	0.093973
C11	C	0.034504	-1.231558	0.000017
C12	C	-0.019210	-1.230373	0.000026
C13	C	0.117265	-1.033143	-0.000011
C14	C	0.111016	-0.918166	-0.000012
C15	C	0.127658	-1.412023	-0.000008
C16	C	0.133908	-1.527001	-0.000014
C17	C	-0.353705	-1.317601	-0.000031
C18	C	-0.555583	-1.313207	-0.000046
O19	O	-0.582888	-1.392971	-0.000094
N20	N	-0.579414	-1.218201	-0.000047
C21	C	-0.552772	-1.124288	-0.000051
O22	O	-0.577674	-1.043379	-0.000064
C23	C	-0.350895	-1.128683	-0.000043
C24	C	-0.327067	-1.223695	-0.000031
C25	C	-0.329876	-1.412605	-0.000020
C26	C	-0.279410	-1.413702	-0.000010
C27	C	-0.252772	-1.319795	-0.000010
C28	C	-0.276600	-1.224792	-0.000021
C29	C	-0.324255	-1.034772	-0.000056
C30	C	-0.273783	-1.035879	-0.000056
C31	C	-0.249954	-1.130890	-0.000044
C32	C	-0.199496	-1.131982	-0.000012
N33	N	-0.175665	-1.226988	-0.000011
C34	C	-0.202303	-1.320894	-0.000010
C35	C	-0.658760	-1.121987	-0.000053
C36	C	-0.709229	-1.120887	-0.000053
C37	C	-0.712036	-1.309807	-0.000050
C38	C	-0.661566	-1.310905	-0.000042
C39	C	-0.634929	-1.216992	-0.000052
C40	C	-0.096319	-1.323191	0.000012
C41	C	-0.045848	-1.324280	0.000027
C42	C	-0.043045	-1.135361	0.000018
C43	C	-0.093512	-1.134271	0.000009
C44	C	-0.120148	-1.228195	0.000002
O45	O	-0.172160	-1.052262	0.000024
O46	O	-0.177392	-1.401793	-0.000023
C47	C	-0.404172	-1.316504	-0.000041
C48	C	-0.428000	-1.221500	-0.000051
C49	C	-0.401362	-1.127594	-0.000052
C50	C	-0.478469	-1.220401	-0.000051
C51	C	-0.505107	-1.314308	-0.000051
C52	C	-0.481276	-1.409314	-0.000050
C53	C	-0.430810	-1.410411	-0.000040
C54	C	-0.425193	-1.032588	-0.000053
C55	C	-0.475660	-1.031499	-0.000062
C56	C	-0.502298	-1.125405	-0.000061
C57	C	0.210420	-1.213608	-0.000035
C58	C	0.264133	-1.214794	-0.000052
N59	N	0.131128	-1.201778	0.292897
C60	C	0.186144	-0.676005	-0.000019
C61	C	0.180275	-0.567973	-0.000020
C62	C	0.093407	-0.594068	-0.000005
C63	C	0.099277	-0.702100	-0.000005
C64	C	0.145647	-0.743064	-0.000014
C65	C	0.151516	-0.851099	-0.000022
C66	C	0.064649	-0.877191	0.000001
C67	C	0.058780	-0.769159	0.000001
N68	N	0.113792	-1.243396	-0.292913
C69	C	0.078958	-1.326930	0.529564
C70	C	0.082459	-1.318546	0.647904
C71	C	0.141626	-1.176623	0.647921
C72	C	0.138126	-1.185007	0.529580
C73	C	0.106791	-1.260163	0.470406
C74	C	0.103294	-1.268551	0.352063
C75	C	0.162459	-1.126624	0.352082
C76	C	0.165959	-1.118240	0.470422
H77	H	-0.026449	-1.401652	0.000039
H78	H	0.031673	-0.931804	-0.000001
H79	H	-0.733734	-1.386269	-0.000049
F80	F	0.044062	-0.550452	0.000018
F81	F	-0.349604	-0.933646	-0.000073
F82	F	0.199304	-1.038254	0.533410
H83	H	0.185124	-1.072261	0.303902
F84	F	0.009432	-0.725550	0.000015
H85	H	0.077782	-1.329750	0.303884
F86	F	-0.014686	-1.035424	0.000018
F87	F	0.045615	-1.406926	0.466585
H88	H	0.213252	-0.513376	-0.000021
F89	F	0.174967	-1.096631	0.710911
H90	H	0.059793	-1.372913	0.696067
H91	H	-0.252098	-0.959402	-0.000066
F92	F	-0.630417	-1.022025	-0.000064
H93	H	-0.118000	-1.399673	0.000002
H94	H	-0.260013	-1.491070	-0.000004
H95	H	0.189273	-0.884449	-0.000027
H96	H	-0.642169	-1.388271	-0.000033
F97	F	-0.358219	-1.512562	-0.000020
H98	H	-0.411413	-1.487778	-0.000030
H99	H	-0.112913	-1.056903	0.000031
F100	F	-0.734583	-1.019762	-0.000045
F101	F	-0.509635	-1.509255	-0.000043
H102	H	-0.495056	-0.954123	-0.000062
H103	H	-0.403509	-0.956116	-0.000056
F104	F	0.235493	-0.719606	-0.000043
