data_functionalizedCrystal
_audit_creation_method	'MofGen! by Chris Wilmer'
_symmetry_space_group_name_H-M	'P1'
_symmetry_Int_Tables_number	1
_symmetry_cell_setting	triclinic
loop_
_symmetry_equiv_pos_as_xyz
  x,y,z
_cell_length_a	17.699083
_cell_length_b	17.038272
_cell_length_c	16.176319
_cell_angle_alpha	89.993159
_cell_angle_beta	89.998611
_cell_angle_gamma	87.197286
loop_
_atom_site_label
_atom_site_type_symbol
_atom_site_fract_x
_atom_site_fract_y
_atom_site_fract_z
O1	O	1.010620	0.098861	-0.068631
O2	O	1.510620	0.598861	0.431369
O3	O	0.791093	0.111723	-0.068658
O4	O	1.291093	0.611723	0.431342
O5	O	0.899552	-0.008521	-0.068638
O6	O	1.399552	0.491479	0.431362
O7	O	0.902161	0.219105	-0.068651
O8	O	1.402161	0.719105	0.431349
O9	O	0.899535	-0.008529	0.068855
O10	O	1.399535	0.491471	0.568855
O11	O	0.791077	0.111715	0.068835
O12	O	1.291077	0.611715	0.568835
O13	O	1.010604	0.098853	0.068862
O14	O	1.510604	0.598853	0.568862
Cu15	Cu	0.900839	0.105284	0.081403
Cu16	Cu	1.400839	0.605284	0.581403
Cu17	Cu	0.900858	0.105293	-0.081199
Cu18	Cu	1.400858	0.605293	0.418801
O19	O	0.902145	0.219098	0.068842
O20	O	1.402145	0.719098	0.568842
C21	C	0.762857	0.111258	0.000085
C22	C	1.262857	0.611258	0.500085
C23	C	0.678748	0.109876	0.000075
C24	C	1.178748	0.609876	0.500075
C25	C	0.634797	0.180457	0.000071
C26	C	1.134797	0.680457	0.500071
C27	C	0.555767	0.179153	0.000082
C28	C	1.055767	0.679153	0.500082
C29	C	0.520690	0.107267	0.000091
C30	C	1.020690	0.607267	0.500091
C31	C	0.564647	0.036681	0.000097
C32	C	1.064647	0.536681	0.500097
C33	C	0.643675	0.037986	0.000092
C34	C	1.143675	0.537986	0.500092
C35	C	0.245935	0.031418	0.000118
C36	C	0.745935	0.531418	0.500118
C37	C	0.166901	0.030119	0.000120
C38	C	0.666901	0.530119	0.500120
C39	C	0.158028	0.172585	0.000108
C40	C	0.658028	0.672585	0.500108
C41	C	0.237056	0.173890	0.000103
C42	C	0.737056	0.673890	0.500103
C43	C	0.281006	0.103304	0.000113
C44	C	0.781006	0.603304	0.500113
C45	C	0.366699	0.104719	0.000103
C46	C	0.866699	0.604719	0.500103
C47	C	0.434999	0.105852	0.000095
C48	C	0.934999	0.605852	0.500095
C49	C	0.897170	-0.037649	0.000108
C50	C	1.397170	0.462351	0.500108
C51	C	0.890090	-0.124431	0.000107
C52	C	1.390090	0.375569	0.500107
C53	C	0.955100	-0.174651	0.000116
C54	C	1.455100	0.325349	0.500116
C55	C	0.948442	-0.256191	0.000107
C56	C	1.448442	0.243809	0.500107
C57	C	0.876773	-0.287509	0.000096
C58	C	1.376773	0.212491	0.500096
C59	C	0.811758	-0.237282	0.000084
C60	C	1.311758	0.262718	0.500084
C61	C	0.818417	-0.155744	0.000087
C62	C	1.318417	0.344256	0.500087
C63	C	0.853251	-0.533228	0.000081
C64	C	1.353251	-0.033228	0.500081
C65	C	0.846597	-0.614773	0.000081
C66	C	1.346597	-0.114773	0.500081
C67	C	0.983282	-0.633676	0.000103
C68	C	1.483282	-0.133676	0.500103
C69	C	0.989934	-0.552135	0.000110
C70	C	1.489934	-0.052135	0.500110
C71	C	0.924919	-0.501916	0.000095
C72	C	1.424919	-0.001916	0.500095
C73	C	0.869967	-0.370855	0.000089
C74	C	1.369967	0.129145	0.500089
C75	C	0.931726	-0.418571	0.000095
C76	C	1.431726	0.081429	0.500095
C77	C	1.038840	0.099318	0.000117
C78	C	1.538840	0.599318	0.500117
C79	C	1.122949	0.100701	0.000122
C80	C	1.622949	0.600701	0.500122
C81	C	0.904526	0.248226	0.000094
C82	C	1.404526	0.748226	0.500094
C83	C	0.911607	0.335007	0.000090
C84	C	1.411607	0.835007	0.500090
N85	N	0.900830	0.105277	0.195768
N86	N	1.400830	0.605277	0.695768
N87	N	0.900872	0.105293	-0.195564
N88	N	1.400872	0.605293	0.304436
C89	C	0.948873	0.052054	0.239041
C90	C	1.448873	0.552054	0.739041
C91	C	0.948877	0.052054	0.325588
C92	C	1.448877	0.552054	0.825588
C93	C	0.900841	0.105280	0.368861
C94	C	1.400841	0.605280	0.868861
C95	C	0.852793	0.158505	0.325582
C96	C	1.352793	0.658505	0.825582
C97	C	0.852786	0.158501	0.239036
C98	C	1.352786	0.658501	0.739036
C99	C	0.852820	0.158519	0.674610
C100	C	1.352820	0.658519	1.174610
C101	C	0.852833	0.158520	0.761162
C102	C	1.352833	0.658520	1.261162
C103	C	0.948911	0.052072	0.761162
C104	C	1.448911	0.552072	1.261162
C105	C	0.948904	0.052068	0.674617
C106	C	1.448904	0.552068	1.174617
C107	C	0.900853	0.105290	0.631345
C108	C	1.400853	0.605290	1.131345
C109	C	0.900849	0.105289	0.537501
C110	C	1.400849	0.605289	1.037501
C111	C	0.900849	0.105285	0.462703
C112	C	1.400849	0.605285	0.962703
H113	H	0.281710	-0.026057	0.000127
H114	H	0.781710	0.473943	0.500127
N115	N	1.000722	-0.005332	0.372250
N116	N	1.500722	0.494668	0.872250
H117	H	0.988461	-0.060814	0.357201
H118	H	1.488461	0.439186	0.857201
H119	H	1.054978	0.003702	0.357141
H120	H	1.554978	0.503702	0.857141
H121	H	0.536080	-0.021849	0.000116
H122	H	1.036080	0.478151	0.500116
H123	H	0.811613	-0.396363	0.000082
H124	H	1.311613	0.103637	0.500082
N125	N	0.783130	-0.479070	0.000070
N126	N	1.283130	0.020930	0.500070
H127	H	0.752101	-0.489128	-0.050903
H128	H	1.252101	0.010872	0.449097
H129	H	0.752147	-0.489161	0.051069
H130	H	1.252147	0.010839	0.551069
H131	H	0.813678	0.201840	0.360819
H132	H	1.313678	0.701840	0.860819
N133	N	1.000734	-0.005336	0.807838
N134	N	1.500734	0.494664	1.307838
H135	H	0.988454	-0.060811	0.792785
H136	H	1.488454	0.439189	1.292785
H137	H	1.054999	0.003675	0.792747
H138	H	1.554999	0.503675	1.292747
H139	H	0.788233	-0.640268	0.000085
H140	H	1.288233	-0.140268	0.500085
N141	N	0.691083	-0.038140	0.000102
N142	N	1.191083	0.461860	0.500102
H143	H	0.656871	-0.083878	0.000108
H144	H	1.156871	0.416122	0.500108
H145	H	0.724067	-0.040703	-0.050868
H146	H	1.224067	0.459297	0.449132
N147	N	0.800965	0.215901	0.192359
N148	N	1.300965	0.715901	0.692359
H149	H	0.770536	0.249621	0.232903
H150	H	1.270536	0.749621	0.732903
H151	H	0.832154	0.250424	0.156438
H152	H	1.332154	0.750424	0.656438
N153	N	1.032400	-0.140875	0.000136
N154	N	1.532400	0.359125	0.500136
H155	H	1.072573	-0.185065	0.000139
H156	H	1.572573	0.314935	0.500139
H157	H	1.038148	-0.107449	-0.050832
H158	H	1.538148	0.392551	0.449168
N159	N	0.734457	-0.271056	0.000066
N160	N	1.234457	0.228944	0.500066
H161	H	0.740102	-0.330331	0.000069
H162	H	1.240102	0.169669	0.500069
H163	H	0.705771	-0.252680	0.051033
H164	H	1.205771	0.247320	0.551033
H165	H	0.988021	0.008729	0.639387
H166	H	1.488021	0.508729	1.139387
N167	N	1.018560	-0.310357	0.000122
N168	N	1.518560	0.189643	0.500122
H169	H	1.064972	-0.278145	0.000137
H170	H	1.564972	0.221855	0.500137
H171	H	1.018761	-0.344605	0.051092
H172	H	1.518761	0.155395	0.551092
H173	H	0.987992	0.008715	0.203814
H174	H	1.487992	0.508715	0.703814
N175	N	0.129068	-0.047419	0.000146
N176	N	0.629068	0.452581	0.500146
H177	H	0.072335	-0.037532	0.000146
H178	H	0.572335	0.462468	0.500146
H179	H	0.144817	-0.078306	-0.050817
H180	H	0.644817	0.421694	0.449183
N181	N	0.110625	0.248721	0.000099
N182	N	0.610625	0.748721	0.500099
H183	H	0.055238	0.236991	0.000106
H184	H	0.555238	0.736991	0.500106
H185	H	0.122505	0.280056	0.051063
H186	H	0.622505	0.780056	0.551063
N187	N	0.801016	0.215926	0.807837
N188	N	1.301016	0.715926	1.307837
H189	H	0.770572	0.249639	0.767293
H190	H	1.270572	0.749639	1.267293
H191	H	0.765646	0.186031	0.843755
H192	H	1.265646	0.686031	1.343755
N193	N	1.067234	-0.518358	0.000128
N194	N	1.567234	-0.018358	0.500128
H195	H	1.107409	-0.562546	0.000132
H196	H	1.607409	-0.062546	0.500132
H197	H	1.072982	-0.484930	-0.050839
H198	H	1.572982	0.015070	0.449161
N199	N	0.800993	0.215916	0.627945
N200	N	1.300993	0.715916	1.127945
H201	H	0.770566	0.249634	0.668493
H202	H	1.270566	0.749634	1.168493
H203	H	0.832177	0.250441	0.592021
H204	H	1.332177	0.750441	1.092021
N205	N	1.053398	-0.687845	0.000118
N206	N	1.553398	-0.187845	0.500118
H207	H	1.053689	-0.722091	-0.050851
H208	H	1.553689	-0.222091	0.449149
H209	H	1.099772	-0.655580	0.000158
H210	H	1.599772	-0.155580	0.500158
N211	N	0.748299	-0.101574	0.000073
N212	N	1.248299	0.398426	0.500073
H213	H	0.701886	-0.133785	0.000066
H214	H	1.201886	0.366215	0.500066
H215	H	0.748076	-0.067335	0.051042
H216	H	1.248076	0.432665	0.551042
H217	H	0.519986	0.236627	0.000078
H218	H	1.019986	0.736627	0.500078
N219	N	0.672628	0.257991	0.000052
N220	N	1.172628	0.757991	0.500052
H221	H	0.632790	0.302505	0.000052
H222	H	1.132790	0.802505	0.500052
H223	H	0.705227	0.261636	0.051019
H224	H	1.205227	0.761636	0.551019
N225	N	1.009023	-0.384794	0.000117
N226	N	1.509023	0.115206	0.500117
H227	H	1.049202	-0.428978	0.000126
H228	H	1.549202	0.071022	0.500126
H229	H	1.014771	-0.351368	-0.050851
H230	H	1.514771	0.148632	0.449149
H231	H	0.265612	0.232426	0.000092
H232	H	0.765612	0.732426	0.500092
