data_functionalizedCrystal
_audit_creation_method	'MofGen! by Chris Wilmer'
_symmetry_space_group_name_H-M	'P1'
_symmetry_Int_Tables_number	1
_symmetry_cell_setting	triclinic
loop_
_symmetry_equiv_pos_as_xyz
  x,y,z
_cell_length_a	16.959455
_cell_length_b	13.897447
_cell_length_c	16.959447
_cell_angle_alpha	90.028096
_cell_angle_beta	90.014322
_cell_angle_gamma	90.016477
loop_
_atom_site_label
_atom_site_type_symbol
_atom_site_fract_x
_atom_site_fract_y
_atom_site_fract_z
Zn1	Zn	1.208387	-0.384074	0.446921
Zn2	Zn	1.541720	-0.050741	0.780254
Zn3	Zn	1.875053	0.282592	1.113588
Zn4	Zn	1.208311	-0.545393	0.314747
Zn5	Zn	1.541644	-0.212059	0.648081
Zn6	Zn	1.874977	0.121274	0.981414
Zn7	Zn	1.076215	-0.384105	0.314758
Zn8	Zn	1.409549	-0.050771	0.648092
Zn9	Zn	1.742882	0.282562	0.981425
Zn10	Zn	1.076181	-0.545321	0.446886
Zn11	Zn	1.409514	-0.211987	0.780219
Zn12	Zn	1.742848	0.121346	1.113553
O13	O	1.142273	-0.464723	0.380828
O14	O	1.475607	-0.131390	0.714162
O15	O	1.808940	0.201944	1.047495
O16	O	1.318988	-0.405491	0.429398
O17	O	1.652321	-0.072158	0.762731
O18	O	1.985654	0.261175	1.096064
O19	O	1.190770	-0.524040	0.204138
O20	O	1.524103	-0.190707	0.537471
O21	O	1.857437	0.142626	0.870805
O22	O	1.093794	-0.249119	0.332309
O23	O	1.427128	0.084214	0.665643
O24	O	1.760461	0.417548	0.998976
O25	O	1.318931	-0.524011	0.332291
O26	O	1.652265	-0.190678	0.665624
O27	O	1.985598	0.142656	0.998957
O28	O	1.190900	-0.249097	0.429408
O29	O	1.524233	0.084237	0.762742
O30	O	1.857567	0.417570	1.096075
O31	O	1.093720	-0.405543	0.204146
O32	O	1.427054	-0.072209	0.537479
O33	O	1.760387	0.261124	0.870813
O34	O	0.965600	-0.405473	0.332275
O35	O	1.298933	-0.072139	0.665609
O36	O	1.632266	0.261194	0.998942
O37	O	1.093736	-0.523888	0.557502
O38	O	1.427069	-0.190555	0.890835
O39	O	1.760403	0.142779	1.224168
O40	O	0.965575	-0.523917	0.429349
O41	O	1.298908	-0.190584	0.762682
O42	O	1.632241	0.142749	1.096016
O43	O	1.190867	-0.405421	0.557527
O44	O	1.524200	-0.072088	0.890861
O45	O	1.857534	0.261245	1.224194
O46	O	1.190737	-0.680365	0.332257
O47	O	1.524070	-0.347031	0.665590
O48	O	1.857404	-0.013698	0.998923
O49	O	1.093662	-0.680312	0.429338
O50	O	1.426996	-0.346978	0.762672
O51	O	1.760329	-0.013645	1.096005
C52	C	0.936907	-0.464691	0.380810
C53	C	1.270240	-0.131358	0.714143
C54	C	1.603574	0.201975	1.047477
C55	C	0.849051	-0.464701	0.380821
C56	C	1.182384	-0.131368	0.714154
C57	C	1.515717	0.201966	1.047488
C58	C	0.477564	-0.402998	0.330388
C59	C	0.810897	-0.069665	0.663721
C60	C	1.144230	0.263668	0.997054
C61	C	0.477586	-0.526527	0.431314
C62	C	0.810920	-0.193194	0.764647
C63	C	1.144253	0.140140	1.097981
C64	C	0.560132	-0.526513	0.431309
C65	C	0.893466	-0.193180	0.764643
C66	C	1.226799	0.140153	1.097976
C67	C	0.601398	-0.464742	0.380842
C68	C	0.934731	-0.131409	0.714175
C69	C	1.268064	0.201925	1.047509
C70	C	0.560117	-0.402985	0.330379
C71	C	0.893450	-0.069651	0.663713
C72	C	1.226784	0.263682	0.997046
C73	C	0.601419	-0.588276	0.481765
C74	C	0.934752	-0.254943	0.815099
C75	C	1.268086	0.078390	1.148432
C76	C	0.683970	-0.588266	0.481762
C77	C	1.017303	-0.254932	0.815095
C78	C	1.350637	0.078401	1.148428
C79	C	0.725237	-0.526489	0.431298
C80	C	1.058570	-0.193156	0.764631
C81	C	1.391903	0.140178	1.097965
C82	C	0.683951	-0.464728	0.380834
C83	C	1.017284	-0.131395	0.714167
C84	C	1.350618	0.201938	1.047501
C85	C	0.725217	-0.402957	0.330367
C86	C	1.058550	-0.069624	0.663700
C87	C	1.391883	0.263709	0.997033
C88	C	0.683932	-0.341191	0.279906
C89	C	1.017266	-0.007858	0.613239
C90	C	1.350599	0.325476	0.946573
C91	C	0.601384	-0.341208	0.279916
C92	C	0.934717	-0.007875	0.613249
C93	C	1.268051	0.325459	0.946582
C94	C	0.807785	-0.526472	0.431288
C95	C	1.141118	-0.193139	0.764622
C96	C	1.474452	0.140195	1.097955
C97	C	0.807770	-0.402944	0.330359
C98	C	1.141103	-0.069610	0.663692
C99	C	1.474437	0.263723	0.997025
C100	C	1.142209	-0.715337	0.380810
C101	C	1.475542	-0.382004	0.714143
C102	C	1.808876	-0.048671	1.047477
C103	C	1.142254	-0.822551	0.380828
C104	C	1.475587	-0.489218	0.714162
C105	C	1.808921	-0.155885	1.047495
C106	C	1.142292	-0.909621	0.380846
C107	C	1.475625	-0.576288	0.714180
C108	C	1.808959	-0.242954	1.047513
C109	C	1.142348	-1.018854	0.380867
C110	C	1.475681	-0.685520	0.714200
C111	C	1.809014	-0.352187	1.047533
C112	C	1.348442	-0.464756	0.380847
C113	C	1.681775	-0.131422	0.714180
C114	C	2.015108	0.201911	1.047514
C115	C	1.436298	-0.464770	0.380855
C116	C	1.769632	-0.131436	0.714188
C117	C	2.102965	0.201897	1.047521
C118	C	1.142306	-0.464643	0.586997
C119	C	1.475640	-0.131310	0.920330
C120	C	1.808973	0.202023	1.253663
C121	C	1.142320	-0.464609	0.674853
C122	C	1.475654	-0.131276	1.008187
C123	C	1.808987	0.202057	1.341520
C124	C	1.142359	-0.213130	0.380864
C125	C	1.475693	0.120203	0.714197
C126	C	1.809026	0.453537	1.047531
C127	C	1.142396	-0.105916	0.380879
C128	C	1.475729	0.227417	0.714212
C129	C	1.809063	0.560750	1.047546
C130	C	1.142286	-0.464733	0.175462
C131	C	1.475619	-0.131400	0.508795
C132	C	1.808953	0.201934	0.842129
C133	C	1.142425	-0.464495	0.087606
C134	C	1.475759	-0.131162	0.420939
C135	C	1.809092	0.202171	0.754272
C136	C	1.091843	-0.526188	1.046318
C137	C	1.425176	-0.192854	1.379651
C138	C	1.758510	0.140479	1.712985
C139	C	1.192986	-0.402827	1.046340
C140	C	1.526320	-0.069494	1.379673
C141	C	1.859653	0.263839	1.713007
C142	C	1.192965	-0.402848	0.963794
C143	C	1.526299	-0.069514	1.297127
C144	C	1.859632	0.263819	1.630461
C145	C	1.142383	-0.464540	0.922506
C146	C	1.475717	-0.131207	1.255840
C147	C	1.809050	0.202127	1.589173
C148	C	1.091822	-0.526212	0.963765
C149	C	1.425156	-0.192879	1.297098
C150	C	1.758489	0.140455	1.630431
C151	C	1.243531	-0.341184	0.922529
C152	C	1.576865	-0.007851	1.255863
C153	C	1.910198	0.325483	1.589196
C154	C	1.243513	-0.341203	0.839978
C155	C	1.576846	-0.007869	1.173312
C156	C	1.910179	0.325464	1.506645
C157	C	1.192926	-0.402891	0.798689
C158	C	1.526259	-0.069557	1.132023
C159	C	1.859593	0.263776	1.465356
C160	C	1.142362	-0.464564	0.839953
C161	C	1.475696	-0.131231	1.173286
C162	C	1.809029	0.202102	1.506619
C163	C	1.091780	-0.526257	0.798665
C164	C	1.425114	-0.192923	1.131998
C165	C	1.758447	0.140410	1.465332
C166	C	1.041212	-0.587926	0.839927
C167	C	1.374545	-0.254593	1.173260
C168	C	1.707878	0.078740	1.506594
C169	C	1.041235	-0.587900	0.922475
C170	C	1.374569	-0.254567	1.255809
C171	C	1.707902	0.078766	1.589142
C172	C	1.192902	-0.402917	0.716141
C173	C	1.526236	-0.069584	1.049474
C174	C	1.859569	0.263750	1.382807
C175	C	1.091759	-0.526281	0.716111
C176	C	1.425093	-0.192948	1.049445
C177	C	1.758426	0.140385	1.382778
H178	H	0.841363	-0.352635	0.289266
H179	H	1.174696	-0.019302	0.622600
H180	H	1.508029	0.314031	0.955933
H181	H	1.284688	-0.290987	0.806390
H182	H	1.618021	0.042346	1.139723
H183	H	1.951355	0.375680	1.473057
H184	H	1.000031	-0.638161	0.806300
H185	H	1.333365	-0.304827	1.139633
H186	H	1.666698	0.028506	1.472966
H187	H	1.050669	-0.576395	1.079917
H188	H	1.384003	-0.243061	1.413251
H189	H	1.717336	0.090272	1.746584
H190	H	0.567815	-0.638574	0.522847
H191	H	0.901148	-0.305241	0.856181
H192	H	1.234481	0.028093	1.189514
H193	H	1.050561	-0.576511	0.682501
H194	H	1.383895	-0.243177	1.015834
H195	H	1.717228	0.090156	1.349168
H196	H	1.000068	-0.638111	0.956078
H197	H	1.333401	-0.304778	1.289411
H198	H	1.666735	0.028555	1.622745
H199	H	0.567763	-0.290922	0.238832
H200	H	0.901096	0.042411	0.572166
H201	H	1.234430	0.375744	0.905499
H202	H	0.717576	-0.638559	0.522850
H203	H	1.050910	-0.305226	0.856184
H204	H	1.384243	0.028108	1.189517
H205	H	0.841395	-0.576764	0.472370
H206	H	1.174728	-0.243431	0.805703
H207	H	1.508062	0.089903	1.139037
H208	H	0.717541	-0.290901	0.238812
H209	H	1.050875	0.042432	0.572145
H210	H	1.384208	0.375765	0.905479
H211	H	0.443946	-0.352707	0.289306
H212	H	0.777280	-0.019374	0.622639
H213	H	1.110613	0.313959	0.955973
H214	H	0.443983	-0.576824	0.472398
H215	H	0.777316	-0.243491	0.805731
H216	H	1.110650	0.089843	1.139064
H217	H	1.234172	-0.352606	1.079961
H218	H	1.567506	-0.019272	1.413295
H219	H	1.900839	0.314061	1.746628
H220	H	1.284717	-0.290963	0.956152
H221	H	1.618051	0.042370	1.289485
H222	H	1.951384	0.375703	1.622819
H223	H	1.234077	-0.352709	0.682549
H224	H	1.567410	-0.019376	1.015882
H225	H	1.900743	0.313958	1.349216
