data_functionalizedCrystal
_audit_creation_method	'MofGen! by Chris Wilmer'
_symmetry_space_group_name_H-M	'P1'
_symmetry_Int_Tables_number	1
_symmetry_cell_setting	triclinic
loop_
_symmetry_equiv_pos_as_xyz
  x,y,z
_cell_length_a	10.540535
_cell_length_b	11.792241
_cell_length_c	10.868271
_cell_angle_alpha	90.005281
_cell_angle_beta	89.995021
_cell_angle_gamma	95.641471
loop_
_atom_site_label
_atom_site_type_symbol
_atom_site_fract_x
_atom_site_fract_y
_atom_site_fract_z
O1	O	1.685369	-0.159932	-0.102343
O2	O	2.185369	0.340068	0.397657
O3	O	1.315906	-0.175009	-0.102341
O4	O	1.815906	0.324991	0.397659
O5	O	1.509604	-0.002323	-0.102333
O6	O	2.009604	0.497677	0.397667
O7	O	1.491672	-0.332618	-0.102350
O8	O	1.991672	0.167382	0.397650
O9	O	1.509588	-0.002316	0.102311
O10	O	2.009588	0.497684	0.602311
O11	O	1.315890	-0.175002	0.102304
O12	O	1.815890	0.324998	0.602304
O13	O	1.685353	-0.159925	0.102302
O14	O	2.185353	0.340075	0.602302
Zn15	Zn	1.500619	-0.167462	0.134795
Zn16	Zn	2.000619	0.332538	0.634795
Zn17	Zn	1.500640	-0.167471	-0.134834
Zn18	Zn	2.000640	0.332529	0.365166
O19	O	1.491656	-0.332611	0.102294
O20	O	1.991656	0.167389	0.602294
C21	C	1.268599	-0.173876	-0.000018
C22	C	1.768599	0.326124	0.499982
C23	C	1.127662	-0.170496	-0.000017
C24	C	1.627662	0.329504	0.499983
C25	C	1.508469	0.039974	-0.000011
C26	C	2.008469	0.539974	0.499989
C27	C	1.505098	0.165997	-0.000012
C28	C	2.005098	0.665997	0.499988
C29	C	1.732661	-0.161058	-0.000023
C30	C	2.232661	0.338942	0.499977
C31	C	1.873598	-0.164438	-0.000032
C32	C	2.373598	0.335562	0.499968
C33	C	1.909858	-0.290519	-0.000036
C34	C	2.409858	0.209481	0.499964
C35	C	2.056447	-0.294075	0.000436
C36	C	2.556447	0.205925	0.500436
C37	C	2.083121	-0.106880	0.116614
C38	C	2.583121	0.393120	0.616614
C39	C	1.936364	-0.104197	0.116705
C40	C	2.436364	0.395803	0.616705
C41	C	1.936488	-0.102370	-0.116023
C42	C	2.436488	0.397630	0.383977
C43	C	2.082815	-0.108201	-0.117548
C44	C	2.582815	0.391799	0.382452
C45	C	1.492790	-0.374908	-0.000030
C46	C	1.992790	0.125092	0.499970
C47	C	1.496162	-0.500931	-0.000037
C48	C	1.996162	-0.000931	0.499963
N49	N	1.500614	-0.167456	0.318809
N50	N	2.000614	0.332544	0.818809
C51	C	1.498899	0.396725	-0.000033
C52	C	1.998899	0.896725	0.499967
C53	C	1.502343	0.268331	-0.000022
C54	C	2.002343	0.768331	0.499978
N55	N	1.500656	-0.167469	-0.318848
N56	N	2.000656	0.332531	0.181152
C57	C	1.500634	-0.167469	0.569815
C58	C	2.000634	0.332531	1.069815
C59	C	1.500619	-0.167465	0.430137
C60	C	2.000619	0.332535	0.930137
H61	H	2.085624	-0.343820	-0.083158
H62	H	2.585624	0.156180	0.416842
Cl63	Cl	1.844827	-0.365280	-0.129152
Cl64	Cl	2.344827	0.134720	0.370848
H65	H	2.111273	-0.154493	-0.203834
H66	H	2.611273	0.345507	0.296166
Cl67	Cl	1.842517	-0.364023	0.128890
Cl68	Cl	2.342517	0.135977	0.628890
H69	H	2.132139	-0.018003	-0.124937
H70	H	2.632139	0.481997	0.375063
H71	H	1.896052	-0.147153	0.204218
H72	H	2.396052	0.352847	0.704218
Cl73	Cl	2.100135	-0.370503	0.130270
Cl74	Cl	2.600135	0.129497	0.630270
Cl75	Cl	1.901264	0.038498	0.124455
Cl76	Cl	2.401264	0.538498	0.624455
Cl77	Cl	2.156677	0.033606	0.122808
Cl78	Cl	2.656677	0.533606	0.622808
H79	H	2.113879	-0.150521	0.203738
H80	H	2.613879	0.349479	0.703738
Cl81	Cl	1.870578	-0.162983	-0.252551
Cl82	Cl	2.370578	0.337017	0.247449
H83	H	1.914598	-0.009607	-0.117149
H84	H	2.414598	0.490393	0.382851
