data_functionalizedCrystal
_audit_creation_method	'MofGen! by Chris Wilmer'
_symmetry_space_group_name_H-M	'P1'
_symmetry_Int_Tables_number	1
_symmetry_cell_setting	triclinic
loop_
_symmetry_equiv_pos_as_xyz
  x,y,z
_cell_length_a	27.731993
_cell_length_b	27.732048
_cell_length_c	22.610064
_cell_angle_alpha	89.999096
_cell_angle_beta	90.003380
_cell_angle_gamma	82.631525
loop_
_atom_site_label
_atom_site_type_symbol
_atom_site_fract_x
_atom_site_fract_y
_atom_site_fract_z
O1	O	0.640948	0.057385	-0.049032
O2	O	0.974281	0.390718	0.284302
O3	O	1.307615	0.724052	0.617635
O4	O	0.500151	0.066158	-0.049069
O5	O	0.833484	0.399491	0.284265
O6	O	1.166817	0.732825	0.617598
O7	O	0.574922	-0.008626	-0.049038
O8	O	0.908255	0.324707	0.284296
O9	O	1.241589	0.658040	0.617629
O10	O	0.566176	0.132169	-0.049063
O11	O	0.899510	0.465502	0.284271
O12	O	1.232843	0.798836	0.617604
O13	O	0.574909	-0.008615	0.049331
O14	O	0.908242	0.324718	0.382665
O15	O	1.241576	0.658051	0.715998
O16	O	0.500137	0.066169	0.049300
O17	O	0.833471	0.399502	0.382634
O18	O	1.166804	0.732836	0.715967
O19	O	0.640935	0.057396	0.049337
O20	O	0.974268	0.390729	0.382671
O21	O	1.307601	0.724062	0.716004
Zn22	Zn	0.570534	0.061784	0.064937
Zn23	Zn	0.903867	0.395117	0.398271
Zn24	Zn	1.237201	0.728451	0.731604
Zn25	Zn	0.570551	0.061770	-0.064668
Zn26	Zn	0.903885	0.395103	0.268665
Zn27	Zn	1.237218	0.728436	0.601998
O28	O	0.566163	0.132180	0.049307
O29	O	0.899497	0.465513	0.382640
O30	O	1.232830	0.798847	0.715973
C31	C	0.482137	0.065983	0.000111
C32	C	0.815470	0.399317	0.333445
C33	C	1.148803	0.732650	0.666778
C34	C	0.428480	0.065441	0.000098
C35	C	0.761814	0.398774	0.333431
C36	C	1.095147	0.732108	0.666764
C37	C	0.045327	0.061504	-0.053494
C38	C	0.378661	0.394838	0.279839
C39	C	0.711994	0.728171	0.613173
C40	C	0.246985	0.063571	-0.053510
C41	C	0.580318	0.396905	0.279823
C42	C	0.913651	0.730238	0.613156
O43	O	0.273064	0.063814	-0.099114
O44	O	0.606397	0.397148	0.234219
O45	O	0.939731	0.730481	0.567553
N46	N	0.272198	0.063836	0.000109
N47	N	0.605531	0.397169	0.333443
N48	N	0.938864	0.730503	0.666776
C49	C	0.246994	0.063581	0.053737
C50	C	0.580327	0.396914	0.387070
C51	C	0.913661	0.730247	0.720404
O52	O	0.273067	0.063848	0.099344
O53	O	0.606400	0.397181	0.432677
O54	O	0.939734	0.730515	0.766010
C55	C	0.045338	0.061510	0.053753
C56	C	0.378671	0.394844	0.387086
C57	C	0.712005	0.728177	0.720420
C58	C	0.020127	0.061251	0.000130
C59	C	0.353460	0.394584	0.333463
C60	C	0.686793	0.727917	0.666796
C61	C	0.020116	0.061244	-0.107113
C62	C	0.353450	0.394578	0.226220
C63	C	0.686783	0.727911	0.559554
C64	C	-0.030295	0.060730	-0.107108
C65	C	0.303038	0.394064	0.226225
C66	C	0.636371	0.727397	0.559558
C67	C	-0.055496	0.060476	-0.053485
C68	C	0.277837	0.393810	0.279849
C69	C	0.611171	0.727143	0.613182
C70	C	-0.030285	0.060736	0.000134
C71	C	0.303048	0.394070	0.333468
C72	C	0.636382	0.727403	0.666801
C73	C	0.020135	0.061251	0.107380
C74	C	0.353469	0.394585	0.440713
C75	C	0.686802	0.727918	0.774047
C76	C	-0.030282	0.060732	0.107379
C77	C	0.303052	0.394066	0.440712
C78	C	0.636385	0.727399	0.774046
C79	C	-0.055493	0.060473	0.053756
C80	C	0.277841	0.393806	0.387089
C81	C	0.611174	0.727139	0.720423
C82	C	-0.105897	0.059968	0.053762
C83	C	0.227436	0.393302	0.387096
C84	C	0.560769	0.726635	0.720429
N85	N	-0.131110	0.059704	0.000143
N86	N	0.202223	0.393037	0.333476
N87	N	0.535556	0.726371	0.666809
C88	C	-0.105910	0.059958	-0.053481
C89	C	0.227424	0.393291	0.279852
C90	C	0.560757	0.726624	0.613186
C91	C	0.352866	0.064669	0.053725
C92	C	0.686199	0.398002	0.387058
C93	C	1.019533	0.731335	0.720392
C94	C	0.403280	0.065187	0.053721
C95	C	0.736613	0.398520	0.387055
C96	C	1.069946	0.731854	0.720388
C97	C	0.403267	0.065177	-0.053526
C98	C	0.736601	0.398510	0.279807
C99	C	1.069934	0.731844	0.613140
C100	C	0.352852	0.064662	-0.053522
C101	C	0.686185	0.397995	0.279811
C102	C	1.019519	0.731329	0.613145
C103	C	0.327653	0.064404	0.000105
C104	C	0.660986	0.397737	0.333439
C105	C	0.994320	0.731071	0.666772
C106	C	-0.211778	0.058879	-0.053467
C107	C	0.121555	0.392212	0.279866
C108	C	0.454889	0.725545	0.613200
C109	C	-0.262194	0.058367	-0.053458
C110	C	0.071139	0.391700	0.279876
C111	C	0.404472	0.725033	0.613209
C112	C	-0.262177	0.058374	0.053790
C113	C	0.071156	0.391707	0.387123
C114	C	0.404490	0.725041	0.720456
C115	C	-0.211765	0.058889	0.053781
C116	C	0.121568	0.392222	0.387114
C117	C	0.454901	0.725555	0.720447
C118	C	-0.186567	0.059139	0.000147
C119	C	0.146766	0.392473	0.333481
C120	C	0.480100	0.725806	0.666814
O121	O	-0.132007	0.059720	0.099342
O122	O	0.201327	0.393053	0.432676
O123	O	0.534660	0.726387	0.766009
O124	O	-0.131990	0.059679	-0.099081
O125	O	0.201343	0.393013	0.234253
O126	O	0.534677	0.726346	0.567586
C127	C	0.095739	0.062019	-0.053499
C128	C	0.429072	0.395352	0.279835
C129	C	0.762406	0.728685	0.613168
C130	C	0.120950	0.062279	0.000120
C131	C	0.454283	0.395612	0.333454
C132	C	0.787617	0.728945	0.666787
C133	C	0.095750	0.062025	0.053744
C134	C	0.429083	0.395358	0.387077
C135	C	0.762416	0.728691	0.720411
C136	C	0.171364	0.062797	0.000117
C137	C	0.504697	0.396131	0.333450
C138	C	0.838030	0.729464	0.666783
C139	C	0.196564	0.063051	-0.053507
C140	C	0.529898	0.396384	0.279826
C141	C	0.863231	0.729718	0.613160
C142	C	0.171351	0.062786	-0.107127
C143	C	0.504685	0.396120	0.226206
C144	C	0.838018	0.729453	0.559540
C145	C	0.120940	0.062272	-0.107122
C146	C	0.454273	0.395606	0.226211
C147	C	0.787606	0.728939	0.559544
C148	C	0.120963	0.062289	0.107364
C149	C	0.454296	0.395623	0.440697
C150	C	0.787629	0.728956	0.774030
C151	C	0.171374	0.062804	0.107355
C152	C	0.504708	0.396137	0.440688
C153	C	0.838041	0.729471	0.774021
C154	C	0.196575	0.063058	0.053731
C155	C	0.529908	0.396391	0.387064
C156	C	0.863242	0.729725	0.720398
C157	C	0.574732	-0.026628	0.000148
C158	C	0.908065	0.306706	0.333482
C159	C	1.241399	0.640039	0.666815
C160	C	0.574179	-0.080282	0.000153
C161	C	0.907512	0.253051	0.333486
C162	C	1.240846	0.586384	0.666820
C163	C	0.614884	-0.419105	0.000133
C164	C	0.948217	-0.085772	0.333467
C165	C	1.281551	0.247561	0.666800
C166	C	0.612833	-0.620765	0.000125
C167	C	0.946166	-0.287431	0.333458
C168	C	1.279500	0.045902	0.666791
O169	O	0.650055	-0.652028	0.000109
O170	O	0.983388	-0.318694	0.333442
O171	O	1.316721	0.014639	0.666775
N172	N	0.568497	-0.639880	0.000114
N173	N	0.901830	-0.306546	0.333447
N174	N	1.235163	0.026787	0.666780
C175	C	0.524670	-0.608576	0.000101
C176	C	0.858003	-0.275243	0.333434
C177	C	1.191336	0.058090	0.666767
O178	O	0.486912	-0.629462	0.000085
O179	O	0.820245	-0.296129	0.333418
O180	O	1.153579	0.037204	0.666752
C181	C	0.526721	-0.406918	0.000105
C182	C	0.860055	-0.073585	0.333439
C183	C	1.193388	0.259748	0.666772
C184	C	0.571061	-0.387806	0.000122
C185	C	0.904394	-0.054473	0.333456
C186	C	1.237727	0.278860	0.666789
C187	C	0.659220	-0.399993	0.000150
C188	C	0.992553	-0.066660	0.333483
C189	C	1.325886	0.266674	0.666817
C190	C	0.659732	-0.349581	0.000155
C191	C	0.993065	-0.016248	0.333489
C192	C	1.326399	0.317086	0.666822
C193	C	0.615909	-0.318282	0.000144
C194	C	0.949242	0.015052	0.333478
C195	C	1.282575	0.348385	0.666811
C196	C	0.571573	-0.337394	0.000128
C197	C	0.904906	-0.004061	0.333461
C198	C	1.238240	0.329272	0.666794
C199	C	0.482895	-0.375616	0.000088
C200	C	0.816228	-0.042283	0.333422
C201	C	1.149562	0.291051	0.666755
C202	C	0.483412	-0.325199	0.000088
C203	C	0.816745	0.008135	0.333421
C204	C	1.150079	0.341468	0.666755
C205	C	0.527751	-0.306087	0.000105
C206	C	0.861085	0.027247	0.333438
C207	C	1.194418	0.360580	0.666772
C208	C	0.528262	-0.255683	0.000122
C209	C	0.861595	0.077650	0.333456
C210	C	1.194928	0.410983	0.666789
N211	N	0.572598	-0.236568	0.000133
N212	N	0.905932	0.096765	0.333467
N213	N	1.239265	0.430098	0.666800
C214	C	0.616422	-0.267867	0.000144
C215	C	0.949755	0.065466	0.333478
C216	C	1.283088	0.398799	0.666811
C217	C	0.523596	-0.714450	0.000100
C218	C	0.856929	-0.381117	0.333433
C219	C	1.190262	-0.047784	0.666766
C220	C	0.523083	-0.764865	0.000099
C221	C	0.856416	-0.431531	0.333433
C222	C	1.189749	-0.098198	0.666766
C223	C	0.611246	-0.777049	0.000122
C224	C	0.944579	-0.443716	0.333456
C225	C	1.277913	-0.110383	0.666789
C226	C	0.611759	-0.726634	0.000127
C227	C	0.945092	-0.393301	0.333460
C228	C	1.278425	-0.059967	0.666793
C229	C	0.567932	-0.695335	0.000111
C230	C	0.901266	-0.362002	0.333444
C231	C	1.234599	-0.028669	0.666777
C232	C	0.617494	-0.161998	0.000156
C233	C	0.950827	0.171335	0.333490
C234	C	1.284161	0.504668	0.666823
C235	C	0.618003	-0.111582	0.000164
C236	C	0.951336	0.221752	0.333497
C237	C	1.284669	0.555085	0.666831
C238	C	0.529839	-0.099401	0.000138
C239	C	0.863173	0.233932	0.333472
C240	C	1.196506	0.567265	0.666805
C241	C	0.529331	-0.149814	0.000133
C242	C	0.862664	0.183520	0.333467
C243	C	1.195997	0.516853	0.666800
C244	C	0.573162	-0.181112	0.000140
C245	C	0.906495	0.152222	0.333474
C246	C	1.239829	0.485555	0.666807
O247	O	0.491060	-0.224392	0.000132
O248	O	0.824393	0.108941	0.333465
O249	O	1.157727	0.442275	0.666798
O250	O	0.654174	-0.246972	0.000147
O251	O	0.987507	0.086361	0.333480
O252	O	1.320841	0.419694	0.666814
C253	C	0.614372	-0.469517	0.000128
C254	C	0.947705	-0.136184	0.333461
C255	C	1.281038	0.197149	0.666795
C256	C	0.570036	-0.488630	0.000112
C257	C	0.903369	-0.155297	0.333445
C258	C	1.236703	0.178037	0.666778
C259	C	0.526213	-0.457331	0.000101
C260	C	0.859546	-0.123997	0.333434
C261	C	1.192879	0.209336	0.666767
C262	C	0.569523	-0.539044	0.000111
C263	C	0.902856	-0.205711	0.333445
C264	C	1.236190	0.127622	0.666778
C265	C	0.613346	-0.570343	0.000122
C266	C	0.946680	-0.237010	0.333456
C267	C	1.280013	0.096323	0.666789
C268	C	0.657683	-0.551228	0.000134
C269	C	0.991016	-0.217895	0.333467
C270	C	1.324349	0.115438	0.666800
C271	C	0.658195	-0.500817	0.000139
C272	C	0.991528	-0.167483	0.333472
C273	C	1.324862	0.165850	0.666806
C274	C	0.481876	-0.476446	0.000089
C275	C	0.815210	-0.143112	0.333423
C276	C	1.148543	0.190221	0.666756
C277	C	0.481368	-0.526858	0.000085
C278	C	0.814701	-0.193525	0.333418
C279	C	1.148034	0.139809	0.666751
C280	C	0.525191	-0.558157	0.000096
C281	C	0.858524	-0.224824	0.333429
C282	C	1.191858	0.108509	0.666762
C283	C	0.658949	0.057570	0.000156
C284	C	0.992282	0.390904	0.333489
C285	C	1.325615	0.724237	0.666823
C286	C	0.712605	0.058113	0.000166
C287	C	1.045938	0.391446	0.333499
C288	C	1.379272	0.724779	0.666833
C289	C	0.566353	0.150181	0.000119
C290	C	0.899687	0.483515	0.333452
C291	C	1.233020	0.816848	0.666786
C292	C	0.566906	0.203836	0.000110
C293	C	0.900239	0.537169	0.333444
C294	C	1.233573	0.870503	0.666777
N295	N	0.570526	0.061794	0.153390
N296	N	0.903859	0.395127	0.486723
N297	N	1.237192	0.728460	0.820056
N298	N	0.570564	0.061756	-0.153121
N299	N	0.903897	0.395090	0.180212
N300	N	1.237230	0.728423	0.513546
C301	C	0.603662	0.028660	0.562045
C302	C	0.936995	0.361994	0.895378
C303	C	1.270328	0.695327	1.228711
C304	C	0.603664	0.028657	0.623965
C305	C	0.936997	0.361990	0.957298
C306	C	1.270331	0.695323	1.290631
O307	O	0.631817	0.000493	0.655995
O308	O	0.965150	0.333826	0.989328
O309	O	1.298484	0.667160	1.322662
N310	N	0.570551	0.061760	0.654927
N311	N	0.903884	0.395093	0.988260
N312	N	1.237218	0.728426	1.321593
C313	C	0.537430	0.094865	0.623966
C314	C	0.870763	0.428198	0.957299
C315	C	1.204097	0.761532	1.290632
O316	O	0.509265	0.123021	0.655987
O317	O	0.842598	0.456354	0.989321
O318	O	1.175931	0.789688	1.322654
C319	C	0.537426	0.094866	0.562047
C320	C	0.870759	0.428199	0.895380
C321	C	1.204092	0.761532	1.228714
C322	C	0.570544	0.061764	0.531088
C323	C	0.903877	0.395097	0.864421
C324	C	1.237211	0.728431	1.197755
C325	C	0.636777	-0.004439	0.531086
C326	C	0.970110	0.328894	0.864419
C327	C	1.303444	0.662227	1.197752
C328	C	0.636775	-0.004435	0.469170
C329	C	0.970108	0.328898	0.802503
C330	C	1.303442	0.662232	1.135837
C331	C	0.603658	0.028669	0.438213
C332	C	0.936991	0.362002	0.771547
C333	C	1.270324	0.695335	1.104880
C334	C	0.570542	0.061768	0.469172
C335	C	0.903875	0.395102	0.802506
C336	C	1.237209	0.728435	1.135839
C337	C	0.504303	0.127968	0.531087
C338	C	0.837636	0.461302	0.864421
C339	C	1.170969	0.794635	1.197754
C340	C	0.504301	0.127966	0.469164
C341	C	0.837634	0.461299	0.802498
C342	C	1.170968	0.794633	1.135831
C343	C	0.537419	0.094864	0.438205
C344	C	0.870753	0.428198	0.771539
C345	C	1.204086	0.761531	1.104872
C346	C	0.537423	0.094876	0.376300
C347	C	0.870756	0.428210	0.709634
C348	C	1.204089	0.761543	1.042967
N349	N	0.570536	0.061773	0.345338
N350	N	0.903869	0.395107	0.678671
N351	N	1.237202	0.728440	1.012005
C352	C	0.603653	0.028670	0.376295
C353	C	0.936986	0.362003	0.709628
C354	C	1.270320	0.695336	1.042961
C355	C	0.537441	0.094860	0.753999
C356	C	0.870775	0.428193	1.087333
C357	C	1.204108	0.761527	1.420666
C358	C	0.537448	0.094862	0.815917
C359	C	0.870781	0.428195	1.149250
C360	C	1.204114	0.761529	1.482584
C361	C	0.603681	0.028653	0.815912
C362	C	0.937014	0.361986	1.149245
C363	C	1.270348	0.695320	1.482578
C364	C	0.603677	0.028654	0.753993
C365	C	0.937010	0.361987	1.087326
C366	C	1.270343	0.695321	1.420660
C367	C	0.570554	0.061757	0.723037
C368	C	0.903888	0.395091	1.056371
C369	C	1.237221	0.728424	1.389704
C370	C	0.603647	0.028681	0.246267
C371	C	0.936980	0.362015	0.579601
C372	C	1.270313	0.695348	0.912934
C373	C	0.603643	0.028690	0.184346
C374	C	0.936976	0.362023	0.517680
C375	C	1.270310	0.695357	0.851013
C376	C	0.537408	0.094897	0.184357
C377	C	0.870741	0.428230	0.517690
C378	C	1.204075	0.761563	0.851024
C379	C	0.537413	0.094890	0.246273
C380	C	0.870746	0.428224	0.579606
C381	C	1.204080	0.761557	0.912939
C382	C	0.570534	0.061778	0.277226
C383	C	0.903868	0.395112	0.610560
C384	C	1.237201	0.728445	0.943893
O385	O	0.509283	0.123024	0.344230
O386	O	0.842616	0.456358	0.677564
O387	O	1.175950	0.789691	1.010897
O388	O	0.631810	0.000514	0.344266
O389	O	0.965143	0.333847	0.677599
O390	O	1.298476	0.667181	1.010932
H391	H	0.332329	0.064451	-0.097187
H392	H	0.665662	0.397784	0.236146
H393	H	0.998995	0.731117	0.569480
H394	H	0.630647	0.001697	0.841128
H395	H	0.963980	0.335031	1.174461
H396	H	1.297313	0.668364	1.507794
H397	H	0.510445	0.121851	0.159143
H398	H	0.843779	0.455184	0.492476
H399	H	1.177112	0.788518	0.825809
O400	O	0.701762	-0.430442	0.000240
O401	O	1.035095	-0.097109	0.333573
O402	O	1.368428	0.236224	0.666907
C403	C	0.704105	-0.459959	0.051196
C404	C	1.037438	-0.126625	0.384529
C405	C	1.370771	0.206708	0.717862
H406	H	0.665754	-0.462228	0.068168
H407	H	0.999087	-0.128894	0.401501
H408	H	1.332420	0.204439	0.734834
H409	H	0.722410	-0.497987	0.039745
H410	H	1.055743	-0.164654	0.373079
H411	H	1.389077	0.168680	0.706412
H412	H	0.726045	-0.443530	0.086877
H413	H	1.059378	-0.110197	0.420211
H414	H	1.392712	0.223136	0.753544
H415	H	0.477327	0.154922	0.443963
H416	H	0.810660	0.488256	0.777296
H417	H	1.143994	0.821589	1.110630
H418	H	0.510450	0.121849	0.271480
H419	H	0.843783	0.455183	0.604813
H420	H	1.177116	0.788516	0.938147
O421	O	0.505233	0.127039	0.845895
O422	O	0.838566	0.460372	1.179229
O423	O	1.171899	0.793706	1.512562
C424	C	0.476013	0.156264	0.805287
C425	C	0.809347	0.489597	1.138620
C426	C	1.142680	0.822931	1.471953
H427	H	0.475619	0.136448	0.761149
H428	H	0.808952	0.469782	1.094483
H429	H	1.142285	0.803115	1.427816
H430	H	0.437354	0.163912	0.823171
H431	H	0.770688	0.497245	1.156505
H432	H	1.104021	0.830579	1.489838
H433	H	0.491439	0.192063	0.798703
H434	H	0.824772	0.525396	1.132036
H435	H	1.158105	0.858730	1.465369
H436	H	0.445259	-0.542414	0.000076
H437	H	0.778592	-0.209080	0.333409
H438	H	1.111925	0.124253	0.666743
O439	O	0.439260	-0.446114	0.000108
O440	O	0.772593	-0.112781	0.333442
O441	O	1.105926	0.220553	0.666775
C442	C	0.400022	-0.473802	0.000082
C443	C	0.733356	-0.140469	0.333416
C444	C	1.066689	0.192864	0.666749
H445	H	0.412585	-0.511527	0.018702
H446	H	0.745918	-0.178193	0.352035
H447	H	1.079251	0.155140	0.685369
H448	H	0.369337	-0.454982	0.028639
H449	H	0.702670	-0.121649	0.361973
H450	H	1.036003	0.211685	0.695306
H451	H	0.386417	-0.477287	-0.047113
H452	H	0.719751	-0.143954	0.286220
H453	H	1.053084	0.189379	0.619553
H454	H	0.694301	-0.485261	0.000153
H455	H	1.027634	-0.151927	0.333486
H456	H	1.360967	0.181406	0.666819
O457	O	0.505335	0.127045	0.723867
O458	O	0.838669	0.460378	1.057200
O459	O	1.172002	0.793711	1.390534
C460	C	0.530996	0.156695	0.688064
C461	C	0.864329	0.490028	1.021398
C462	C	1.197663	0.823361	1.354731
H463	H	0.568962	0.137172	0.678780
H464	H	0.902296	0.470505	1.012113
H465	H	1.235629	0.803839	1.345447
H466	H	0.510757	0.164493	0.644527
H467	H	0.844090	0.497827	0.977860
H468	H	1.177423	0.831160	1.311193
H469	H	0.534018	0.192394	0.711934
H470	H	0.867352	0.525727	1.045267
H471	H	1.200685	0.859060	1.378600
H472	H	0.647864	-0.711077	0.000140
H473	H	0.981197	-0.377744	0.333473
H474	H	1.314530	-0.044410	0.666807
H475	H	0.663742	-0.031391	0.443967
H476	H	0.997075	0.301943	0.777300
H477	H	1.330408	0.635276	1.110634
H478	H	0.332354	0.064457	0.097397
H479	H	0.665687	0.397790	0.430731
H480	H	0.999020	0.731124	0.764064
O481	O	-0.286606	0.058093	-0.105603
O482	O	0.046727	0.391426	0.227730
O483	O	0.380060	0.724759	0.561064
C484	C	-0.253550	0.058438	-0.152931
C485	C	0.079783	0.391771	0.180402
C486	C	0.413117	0.725104	0.513735
H487	H	-0.215496	0.043496	-0.137209
H488	H	0.117838	0.376829	0.196124
H489	H	0.451171	0.710163	0.529458
H490	H	-0.264872	0.034809	-0.190431
H491	H	0.068462	0.368142	0.142902
H492	H	0.401795	0.701476	0.476235
H493	H	-0.253553	0.097286	-0.169425
H494	H	0.079780	0.430619	0.163908
H495	H	0.413114	0.763953	0.497242
H496	H	0.040654	0.061461	0.151046
H497	H	0.373987	0.394795	0.484379
H498	H	0.707321	0.728128	0.817713
O499	O	0.427776	0.065530	0.105795
O500	O	0.761110	0.398863	0.439129
O501	O	1.094443	0.732197	0.772462
C502	C	0.451155	0.107703	0.108996
C503	C	0.784489	0.441036	0.442330
C504	C	1.117822	0.774370	0.775663
H505	H	0.431914	0.136819	0.078564
H506	H	0.765247	0.470152	0.411897
H507	H	1.098580	0.803485	0.745230
H508	H	0.449783	0.121768	0.156422
H509	H	0.783117	0.455101	0.489755
H510	H	1.116450	0.788435	0.823088
H511	H	0.490673	0.098625	0.094593
H512	H	0.824006	0.431958	0.427926
H513	H	1.157339	0.765292	0.761259
H514	H	0.100417	0.062061	-0.150788
H515	H	0.433750	0.395394	0.182545
H516	H	0.767084	0.728728	0.515879
H517	H	0.654110	-0.096024	0.000180
H518	H	0.987444	0.237310	0.333513
H519	H	1.320777	0.570643	0.666846
O520	O	-0.187260	0.059191	-0.105527
O521	O	0.146073	0.392524	0.227806
O522	O	0.479406	0.725857	0.561139
C523	C	-0.163903	0.101376	-0.108752
C524	C	0.169431	0.434709	0.224581
C525	C	0.502764	0.768043	0.557914
H526	H	-0.158271	0.115416	-0.062198
H527	H	0.175063	0.448750	0.271136
H528	H	0.508396	0.782083	0.604469
H529	H	-0.127154	0.092320	-0.131457
H530	H	0.206180	0.425654	0.201877
H531	H	0.539513	0.758987	0.535210
H532	H	-0.187394	0.130503	-0.135210
H533	H	0.145939	0.463836	0.198124
H534	H	0.479272	0.797170	0.531457
O535	O	0.635833	-0.003515	0.154365
O536	O	0.969167	0.329819	0.487698
O537	O	1.302500	0.663152	0.821032
C538	C	0.665070	-0.032726	0.194971
C539	C	0.998403	0.300608	0.528304
C540	C	1.331736	0.633941	0.861638
H541	H	0.645255	-0.033132	0.239107
H542	H	0.978589	0.300201	0.572440
H543	H	1.311922	0.633535	0.905774
H544	H	0.672734	-0.071382	0.177081
H545	H	1.006068	0.261951	0.510414
H546	H	1.339401	0.595285	0.843748
H547	H	0.700860	-0.017284	0.201560
H548	H	1.034193	0.316049	0.534893
H549	H	1.367527	0.649382	0.868226
H550	H	0.663745	-0.031398	0.556285
H551	H	0.997079	0.301935	0.889619
H552	H	1.330412	0.635268	1.222952
O553	O	0.195881	0.063098	-0.159180
O554	O	0.529214	0.396432	0.174154
O555	O	0.862547	0.729765	0.507487
C556	C	0.219242	0.105282	-0.162400
C557	C	0.552575	0.438615	0.170933
C558	C	0.885908	0.771949	0.504267
H559	H	0.224860	0.119327	-0.115845
H560	H	0.558194	0.452661	0.217489
H561	H	0.891527	0.785994	0.550822
H562	H	0.255997	0.096222	-0.185088
H563	H	0.589330	0.429555	0.148246
H564	H	0.922664	0.762888	0.481579
H565	H	0.195759	0.134407	-0.188871
H566	H	0.529092	0.467740	0.144462
H567	H	0.862426	0.801073	0.477795
H568	H	0.423794	0.065385	-0.097189
H569	H	0.757127	0.398719	0.236144
H570	H	1.090461	0.732052	0.569478
H571	H	0.477335	0.154922	0.556285
H572	H	0.810668	0.488256	0.889619
H573	H	1.144001	0.821589	1.222952
O574	O	0.635864	-0.003550	0.724013
O575	O	0.969197	0.329783	1.057347
O576	O	1.302530	0.663117	1.390680
C577	C	0.665102	-0.032756	0.764622
C578	C	0.998435	0.300577	1.097955
C579	C	1.331769	0.633910	1.431289
H580	H	0.645289	-0.033159	0.808760
H581	H	0.978622	0.300175	1.142093
H582	H	1.311956	0.633508	1.475426
H583	H	0.672767	-0.071415	0.746738
H584	H	1.006100	0.261919	1.080071
H585	H	1.339433	0.595252	1.413404
H586	H	0.700892	-0.017313	0.771206
H587	H	1.034225	0.316020	1.104539
H588	H	1.367559	0.649353	1.437872
H589	H	-0.050818	0.060517	-0.150774
H590	H	0.282516	0.393850	0.182559
H591	H	0.615849	0.727183	0.515893
H592	H	0.447722	-0.299717	0.000074
H593	H	0.781056	0.033616	0.333407
H594	H	1.114389	0.366950	0.666741
H595	H	0.487905	-0.688970	0.000087
H596	H	0.821238	-0.355637	0.333420
H597	H	1.154572	-0.022304	0.666753
O598	O	0.479999	-0.783404	-0.000016
O599	O	0.813333	-0.450070	0.333318
O600	O	1.146666	-0.116737	0.666651
C601	C	0.453313	-0.767363	-0.050963
C602	C	0.786646	-0.434030	0.282371
C603	C	1.119979	-0.100697	0.615704
H604	H	0.479253	-0.757073	-0.086563
H605	H	0.812587	-0.423740	0.246771
H606	H	1.145920	-0.090406	0.580104
H607	H	0.432979	-0.797750	-0.068071
H608	H	0.766312	-0.464417	0.265262
H609	H	1.099645	-0.131083	0.598596
H610	H	0.426127	-0.734297	-0.039452
H611	H	0.759460	-0.400964	0.293881
H612	H	1.092793	-0.067631	0.627215
H613	H	0.040629	0.061449	-0.150782
H614	H	0.373963	0.394783	0.182551
H615	H	0.707296	0.728116	0.515885
O616	O	0.635841	-0.003416	0.276394
O617	O	0.969175	0.329917	0.609727
O618	O	1.302508	0.663250	0.943060
C619	C	0.665480	0.022256	0.312200
C620	C	0.998814	0.355590	0.645533
C621	C	1.332147	0.688923	0.978866
H622	H	0.645943	0.060216	0.321488
H623	H	0.979277	0.393550	0.654821
H624	H	1.312610	0.726883	0.988155
H625	H	0.673288	0.002017	0.355735
H626	H	1.006621	0.335351	0.689069
H627	H	1.339955	0.668684	1.022402
H628	H	0.701176	0.025294	0.288331
H629	H	1.034509	0.358627	0.621665
H630	H	1.367842	0.691961	0.954998
H631	H	-0.191239	0.059110	0.097445
H632	H	0.142095	0.392443	0.430778
H633	H	0.475428	0.725776	0.764112
O634	O	-0.054697	0.060419	0.159512
O635	O	0.278636	0.393752	0.492846
O636	O	0.611969	0.727086	0.826179
C637	C	-0.036590	0.018659	0.192129
C638	C	0.296743	0.351993	0.525462
C639	C	0.630077	0.685326	0.858796
H640	H	0.001942	0.005070	0.176876
H641	H	0.335276	0.338403	0.510210
H642	H	0.668609	0.671737	0.843543
H643	H	-0.036160	0.028098	0.241183
H644	H	0.297174	0.361432	0.574517
H645	H	0.630507	0.694765	0.907850
H646	H	-0.060910	-0.010957	0.184703
H647	H	0.272424	0.322376	0.518037
H648	H	0.605757	0.655710	0.851370
O649	O	-0.286601	0.058062	0.105914
O650	O	0.046733	0.391395	0.439248
O651	O	0.380066	0.724728	0.772581
C652	C	-0.268497	0.016301	0.138531
C653	C	0.064836	0.349634	0.471864
C654	C	0.398170	0.682968	0.805198
H655	H	-0.229961	0.002715	0.123288
H656	H	0.103372	0.336048	0.456622
H657	H	0.436705	0.669381	0.789955
H658	H	-0.268077	0.025737	0.187587
H659	H	0.065256	0.359070	0.520920
H660	H	0.398590	0.692403	0.854253
H661	H	-0.292813	-0.013317	0.131094
H662	H	0.040520	0.320017	0.464427
H663	H	0.373853	0.653350	0.797761
O664	O	0.195790	0.063035	0.159502
O665	O	0.529123	0.396368	0.492835
O666	O	0.862456	0.729701	0.826168
C667	C	0.162728	0.062711	0.206828
C668	C	0.496062	0.396045	0.540161
C669	C	0.829395	0.729378	0.873494
H670	H	0.128907	0.047038	0.191105
H671	H	0.462240	0.380371	0.524439
H672	H	0.795573	0.713704	0.857772
H673	H	0.180540	0.039381	0.244333
H674	H	0.513873	0.372715	0.577666
H675	H	0.847206	0.706048	0.910999
H676	H	0.152005	0.101452	0.223314
H677	H	0.485338	0.434785	0.556648
H678	H	0.818672	0.768118	0.889981
H679	H	0.653186	-0.187476	0.000160
H680	H	0.986519	0.145857	0.333493
H681	H	1.319852	0.479191	0.666826
H682	H	0.695838	-0.334025	0.000167
H683	H	1.029171	-0.000692	0.333500
H684	H	1.362504	0.332642	0.666833
O685	O	0.096423	0.062106	0.159417
O686	O	0.429756	0.395439	0.492751
O687	O	0.763090	0.728773	0.826084
C688	C	0.061479	0.103695	0.162633
C689	C	0.394812	0.437028	0.495966
C690	C	0.728146	0.770362	0.829300
H691	H	0.051987	0.117577	0.116075
H692	H	0.385321	0.450910	0.449409
H693	H	0.718654	0.784244	0.782742
H694	H	0.027334	0.093915	0.185336
H695	H	0.360667	0.427249	0.518670
H696	H	0.694001	0.760582	0.852003
H697	H	0.076857	0.133222	0.189087
H698	H	0.410191	0.466555	0.522421
H699	H	0.743524	0.799889	0.855754
H700	H	0.646929	-0.802542	0.000131
H701	H	0.980262	-0.469209	0.333465
H702	H	1.313596	-0.135875	0.666798
H703	H	0.446789	-0.391168	0.000071
H704	H	0.780123	-0.057834	0.333404
H705	H	1.113456	0.275499	0.666737
O706	O	0.486249	-0.168361	0.000015
O707	O	0.819583	0.164973	0.333348
O708	O	1.152916	0.498306	0.666682
C709	C	0.459562	-0.152317	-0.050930
C710	C	0.792895	0.181016	0.282403
C711	C	1.126229	0.514349	0.615737
H712	H	0.485501	-0.142018	-0.086526
H713	H	0.818835	0.191316	0.246807
H714	H	1.152168	0.524649	0.580141
H715	H	0.439233	-0.182705	-0.068046
H716	H	0.772567	0.150628	0.265287
H717	H	1.105900	0.483961	0.598621
H718	H	0.432371	-0.119256	-0.039414
H719	H	0.765704	0.214077	0.293919
H720	H	1.099038	0.547410	0.627253
O721	O	0.487285	-0.068972	0.000021
O722	O	0.820618	0.264361	0.333354
O723	O	1.153951	0.597695	0.666688
C724	C	0.484966	-0.039438	-0.050918
C725	C	0.818299	0.293896	0.282415
C726	C	1.151632	0.627229	0.615748
H727	H	0.509832	-0.058093	-0.086517
H728	H	0.843165	0.275241	0.246817
H729	H	1.176498	0.608574	0.580150
H730	H	0.445989	-0.033470	-0.068036
H731	H	0.779322	0.299864	0.265298
H732	H	1.112655	0.633197	0.598631
H733	H	0.497201	-0.002870	-0.039394
H734	H	0.830534	0.330464	0.293939
H735	H	1.163868	0.663797	0.627272
O736	O	0.700241	-0.581657	0.000038
O737	O	1.033574	-0.248324	0.333371
O738	O	1.366907	0.085009	0.666705
C739	C	0.702576	-0.611188	-0.050904
C740	C	1.035909	-0.277854	0.282430
C741	C	1.369242	0.055479	0.615763
H742	H	0.677721	-0.592530	-0.086515
H743	H	1.011054	-0.259197	0.246818
H744	H	1.344387	0.074136	0.580151
H745	H	0.741558	-0.617154	-0.067997
H746	H	1.074891	-0.283821	0.265336
H747	H	1.408225	0.049512	0.598669
H748	H	0.690337	-0.647757	-0.039392
H749	H	1.023670	-0.314423	0.293941
H750	H	1.357004	0.018910	0.627275
