data_functionalizedCrystal
_audit_creation_method	'MofGen! by Chris Wilmer'
_symmetry_space_group_name_H-M	'P1'
_symmetry_Int_Tables_number	1
_symmetry_cell_setting	triclinic
loop_
_symmetry_equiv_pos_as_xyz
  x,y,z
_cell_length_a	15.995288
_cell_length_b	10.654550
_cell_length_c	15.072220
_cell_angle_alpha	90.010025
_cell_angle_beta	89.996292
_cell_angle_gamma	83.975842
loop_
_atom_site_label
_atom_site_type_symbol
_atom_site_fract_x
_atom_site_fract_y
_atom_site_fract_z
O1	O	-1.111942	-0.161512	-0.073827
O2	O	-0.868276	-0.181583	-0.073818
O3	O	-0.995712	0.011267	-0.073819
O4	O	-0.984507	-0.354362	-0.073825
O5	O	-0.995728	0.011300	0.073746
O6	O	-0.868293	-0.181550	0.073747
O7	O	-1.111959	-0.161478	0.073738
Zn8	Zn	-0.990128	-0.171509	0.097172
Zn9	Zn	-0.990107	-0.171553	-0.097251
O10	O	-0.984523	-0.354328	0.073740
C11	C	-0.837084	-0.180751	-0.000034
C12	C	-0.744117	-0.178305	-0.000031
C13	C	-0.573907	-0.173787	-0.000036
C14	C	-0.527238	-0.311097	-0.000035
C15	C	-0.430535	-0.308599	-0.000371
C16	C	-0.406323	-0.169341	-0.000039
C17	C	-0.447051	-0.101234	-0.084139
C18	C	-0.543705	-0.104703	-0.084209
C19	C	-0.543991	-0.102631	0.083606
C20	C	-0.447046	-0.102650	0.084710
C21	C	-0.311613	-0.166821	-0.000044
C22	C	-0.668617	-0.176303	-0.000037
C23	C	-0.994897	0.058070	-0.000038
C24	C	-0.992436	0.197481	-0.000041
C25	C	-0.143149	-0.162328	-0.000044
C26	C	-0.236113	-0.164823	-0.000044
N27	N	-0.990093	-0.171574	-0.229940
C28	C	-0.985338	-0.401132	-0.000044
C29	C	-0.987799	-0.540542	-0.000047
C30	C	-1.067468	0.277972	-0.000041
C31	C	-1.065150	0.408962	-0.000047
C32	C	-0.912762	0.378956	-0.000049
C33	C	-0.915080	0.247969	-0.000049
C34	C	-1.155448	0.295296	-0.000035
C35	C	-1.153130	0.426286	-0.000042
C36	C	-0.990130	-0.171509	-0.589142
C37	C	-0.922016	-0.274811	-0.551534
C38	C	-0.921759	-0.274565	-0.448708
C39	C	-0.990111	-0.171543	-0.410938
C40	C	-0.970497	-0.040409	-0.448241
C41	C	-0.970018	-0.040995	-0.551099
C42	C	-1.078055	-0.198170	-0.551231
C43	C	-1.077476	-0.201167	-0.448367
C44	C	-0.990103	-0.171553	-0.310224
C45	C	-0.990137	-0.171490	-0.689855
N46	N	-0.990149	-0.171477	0.229861
H47	H	-0.562303	-0.153812	-0.147315
N48	N	-0.585322	0.031459	0.084686
H49	H	-0.619708	0.046278	0.140629
H50	H	-0.540665	0.091755	0.082825
H51	H	-1.017714	0.038199	-0.575975
H52	H	-1.186286	0.468505	0.061712
H53	H	-0.849781	0.420080	-0.000057
H54	H	-0.933521	-0.372031	-0.423489
N55	N	-0.571500	-0.162480	0.168071
H56	H	-0.603639	-0.236333	0.152969
H57	H	-0.520401	-0.192889	0.204560
N58	N	-0.885057	-0.009945	-0.582878
H59	H	-0.857770	-0.082215	-0.619664
H60	H	-0.892271	0.069217	-0.620148
N61	N	-0.552169	-0.384183	0.079829
H62	H	-0.521520	-0.472012	0.078544
H63	H	-0.536897	-0.339605	0.135754
N64	N	-1.192550	0.248547	0.084347
H65	H	-1.149643	0.186722	0.114744
H66	H	-1.208792	0.322363	0.125088
N67	N	-1.034424	0.063872	-0.415823
H68	H	-1.005056	0.127242	-0.380899
H69	H	-1.064214	0.107121	-0.468340
N70	N	-0.835347	-0.251952	-0.416108
H71	H	-0.834821	-0.251699	-0.349101
H72	H	-0.792718	-0.321235	-0.438698
H73	H	-0.575393	-0.003875	-0.087801
N74	N	-0.834154	0.161151	-0.000066
H75	H	-0.784801	0.213015	-0.000070
H76	H	-0.831795	0.106161	0.054637
N77	N	-0.394043	-0.379204	-0.080699
H78	H	-0.363891	-0.320472	-0.118954
H79	H	-0.353041	-0.452371	-0.060863
N80	N	-1.201021	0.256984	-0.081828
H81	H	-1.219681	0.334367	-0.118332
H82	H	-1.162044	0.196584	-0.118263
H83	H	-1.179712	0.472271	-0.063757
H84	H	-0.402389	-0.362115	0.059901
H85	H	-0.857148	-0.257990	-0.577382
H86	H	-0.907086	-0.016398	-0.422474
H87	H	-0.933598	-0.372594	-0.576288
N88	N	-1.102858	-0.322128	-0.585615
H89	H	-1.057344	-0.362261	-0.626123
H90	H	-1.110507	-0.380333	-0.534035
N91	N	-1.147825	-0.108005	-0.414332
H92	H	-1.189347	-0.154457	-0.380178
H93	H	-1.123889	-0.045010	-0.374022
H94	H	-1.092340	-0.297645	-0.424002
N95	N	-0.427596	0.034306	-0.087974
H96	H	-0.392106	0.052909	-0.035106
H97	H	-0.395885	0.048510	-0.144418
H98	H	-1.128750	-0.122844	-0.575554
H99	H	-0.418930	-0.147954	-0.146963
H100	H	-0.431119	-0.001119	0.090039
N101	N	-0.553614	-0.383129	-0.079800
H102	H	-0.595662	-0.327202	-0.115935
H103	H	-0.502670	-0.410332	-0.117431
N104	N	-0.411259	-0.168557	0.167130
H105	H	-0.368838	-0.241306	0.149654
H106	H	-0.382901	-0.106917	0.204693
