data_functionalizedCrystal
_audit_creation_method	'MofGen! by Chris Wilmer'
_symmetry_space_group_name_H-M	'P1'
_symmetry_Int_Tables_number	1
_symmetry_cell_setting	triclinic
loop_
_symmetry_equiv_pos_as_xyz
  x,y,z
_cell_length_a	14.519731
_cell_length_b	14.519709
_cell_length_c	8.140239
_cell_angle_alpha	89.995533
_cell_angle_beta	89.997185
_cell_angle_gamma	83.684499
loop_
_atom_site_label
_atom_site_type_symbol
_atom_site_fract_x
_atom_site_fract_y
_atom_site_fract_z
O1	O	1.223853	0.120983	-0.136621
O2	O	1.473853	0.370983	0.113379
O3	O	1.723853	0.620983	0.363379
O4	O	1.973853	0.870983	0.613379
O5	O	0.955379	0.135199	-0.136624
O6	O	1.205379	0.385199	0.113376
O7	O	1.455379	0.635199	0.363376
O8	O	1.705379	0.885199	0.613376
O9	O	1.096734	-0.006147	-0.136607
O10	O	1.346734	0.243853	0.113393
O11	O	1.596734	0.493853	0.363393
O12	O	1.846734	0.743853	0.613393
O13	O	1.082498	0.262329	-0.136637
O14	O	1.332498	0.512329	0.113363
O15	O	1.582498	0.762329	0.363363
O16	O	1.832498	1.012329	0.613363
O17	O	1.096726	-0.006148	0.136620
O18	O	1.346726	0.243852	0.386620
O19	O	1.596726	0.493852	0.636620
O20	O	1.846726	0.743852	0.886620
O21	O	0.955371	0.135198	0.136604
O22	O	1.205371	0.385198	0.386604
O23	O	1.455371	0.635198	0.636604
O24	O	1.705371	0.885198	0.886604
O25	O	1.223845	0.120982	0.136607
O26	O	1.473845	0.370982	0.386607
O27	O	1.723845	0.620982	0.636607
O28	O	1.973845	0.870982	0.886607
Zn29	Zn	1.089607	0.128090	0.179986
Zn30	Zn	1.339607	0.378090	0.429986
Zn31	Zn	1.589607	0.628090	0.679986
Zn32	Zn	1.839607	0.878090	0.929986
Zn33	Zn	1.089617	0.128092	-0.180003
Zn34	Zn	1.339617	0.378092	0.069997
Zn35	Zn	1.589617	0.628092	0.319997
Zn36	Zn	1.839617	0.878092	0.569997
O37	O	1.082490	0.262328	0.136590
O38	O	1.332490	0.512328	0.386590
O39	O	1.582490	0.762328	0.636590
O40	O	1.832490	1.012328	0.886590
C41	C	0.921016	0.134532	-0.000010
C42	C	1.171016	0.384532	0.249990
C43	C	1.421016	0.634532	0.499990
C44	C	1.671016	0.884532	0.749990
C45	C	0.818635	0.132536	-0.000011
C46	C	1.068635	0.382536	0.249989
C47	C	1.318635	0.632536	0.499989
C48	C	1.568635	0.882536	0.749989
C49	C	0.735491	0.130915	-0.000017
C50	C	0.985491	0.380915	0.249983
C51	C	1.235491	0.630915	0.499983
C52	C	1.485491	0.880915	0.749983
C53	C	0.631182	0.128888	-0.000018
C54	C	0.881182	0.378888	0.249982
C55	C	1.131182	0.628888	0.499982
C56	C	1.381182	0.878888	0.749982
C57	C	0.548043	0.127280	-0.000017
C58	C	0.798043	0.377280	0.249983
C59	C	1.048043	0.627280	0.499983
C60	C	1.298043	0.877280	0.749983
C61	C	0.443728	0.125253	-0.000021
C62	C	0.693728	0.375253	0.249979
C63	C	0.943728	0.625253	0.499979
C64	C	1.193728	0.875253	0.749979
C65	C	1.096067	-0.040507	0.000007
C66	C	1.346067	0.209493	0.250007
C67	C	1.596067	0.459493	0.500007
C68	C	1.846067	0.709493	0.750007
C69	C	1.094079	-0.142889	0.000008
C70	C	1.344079	0.107111	0.250008
C71	C	1.594079	0.357111	0.500008
C72	C	1.844079	0.607111	0.750008
C73	C	1.086759	-0.517785	-0.000035
C74	C	1.336759	-0.267785	0.249965
C75	C	1.586759	-0.017785	0.499965
C76	C	1.836759	0.232215	0.749965
C77	C	1.088792	-0.413477	-0.000023
C78	C	1.338792	-0.163477	0.249977
C79	C	1.588792	0.086523	0.499977
C80	C	1.838792	0.336523	0.749977
C81	C	1.090419	-0.330340	-0.000012
C82	C	1.340419	-0.080340	0.249988
C83	C	1.590419	0.169660	0.499988
C84	C	1.840419	0.419660	0.749988
C85	C	1.092452	-0.226025	-0.000003
C86	C	1.342452	0.023975	0.249997
C87	C	1.592452	0.273975	0.499997
C88	C	1.842452	0.523975	0.749997
C89	C	1.258209	0.121649	-0.000010
C90	C	1.508209	0.371649	0.249990
C91	C	1.758209	0.621649	0.499990
C92	C	2.008209	0.871649	0.749990
C93	C	1.360589	0.123645	-0.000021
C94	C	1.610589	0.373645	0.249979
C95	C	1.860589	0.623645	0.499979
C96	C	2.110589	0.873645	0.749979
C97	C	1.083157	0.296688	-0.000027
C98	C	1.333157	0.546688	0.249973
C99	C	1.583157	0.796688	0.499973
C100	C	1.833157	1.046688	0.749973
C101	C	1.085146	0.399070	-0.000039
C102	C	1.335146	0.649070	0.249961
C103	C	1.585146	0.899070	0.499961
C104	C	1.835146	1.149070	0.749961
N105	N	1.089607	0.128088	0.425668
N106	N	1.339607	0.378088	0.675668
N107	N	1.589607	0.628088	0.925668
N108	N	1.839607	0.878088	1.175668
N109	N	1.089625	0.128086	-0.425685
N110	N	1.339625	0.378086	-0.175685
N111	N	1.589625	0.628086	0.074315
N112	N	1.839625	0.878086	0.324315
