data_functionalizedCrystal
_audit_creation_method	'MofGen! by Chris Wilmer'
_symmetry_space_group_name_H-M	'P1'
_symmetry_Int_Tables_number	1
_symmetry_cell_setting	triclinic
loop_
_symmetry_equiv_pos_as_xyz
  x,y,z
_cell_length_a	19.288864
_cell_length_b	19.288853
_cell_length_c	17.766277
_cell_angle_alpha	90.015014
_cell_angle_beta	89.980434
_cell_angle_gamma	96.865498
loop_
_atom_site_label
_atom_site_type_symbol
_atom_site_fract_x
_atom_site_fract_y
_atom_site_fract_z
O1	O	0.921347	-0.086648	-0.062853
O2	O	0.719086	-0.098336	-0.062804
O3	O	0.826064	0.008639	-0.062805
O4	O	0.814369	-0.193623	-0.062852
O5	O	0.826052	0.008641	0.062384
O6	O	0.719074	-0.098334	0.062385
O7	O	0.921335	-0.086645	0.062336
Cu8	Cu	0.820204	-0.092489	0.073791
Cu9	Cu	0.820217	-0.092492	-0.074259
O10	O	0.814357	-0.193620	0.062337
C11	C	0.693204	-0.097959	-0.000203
C12	C	0.616100	-0.096830	-0.000183
C13	C	0.571402	-0.159598	-0.000209
C14	C	0.498955	-0.158538	-0.000217
C15	C	0.471209	-0.094705	-0.000214
C16	C	0.515917	-0.031929	-0.000183
C17	C	0.588363	-0.032991	-0.000168
C18	C	0.362953	-0.044527	-0.044087
C19	C	0.290508	-0.043467	-0.044107
C20	C	0.247764	-0.091425	-0.000259
C21	C	0.277471	-0.140456	0.043600
C22	C	0.349916	-0.141518	0.043616
C23	C	0.392655	-0.093546	-0.000230
C24	C	0.124510	-0.153048	-0.000293
C25	C	0.052062	-0.151985	-0.000296
C26	C	0.069026	-0.025374	-0.000270
C27	C	0.141472	-0.026439	-0.000259
C28	C	0.169209	-0.090278	-0.000274
C29	C	0.825683	0.034517	-0.000206
C30	C	0.824556	0.111620	-0.000191
C31	C	0.947217	-0.087023	-0.000267
C32	C	1.024321	-0.088152	-0.000292
C33	C	0.879704	0.675662	-0.000110
C34	C	0.880769	0.603215	-0.000118
C35	C	0.817999	0.558508	-0.000112
C36	C	0.754160	0.586254	-0.000078
C37	C	0.753097	0.658699	-0.000062
C38	C	0.771189	0.437234	-0.043982
C39	C	0.772255	0.364790	-0.044003
C40	C	0.821275	0.335062	-0.000157
C41	C	0.869241	0.377789	0.043699
C42	C	0.868178	0.450234	0.043715
C43	C	0.819145	0.479953	-0.000129
C44	C	0.886264	0.228771	-0.000195
C45	C	0.887326	0.156322	-0.000199
C46	C	0.760716	0.139362	-0.000166
C47	C	0.759656	0.211809	-0.000154
C48	C	0.822432	0.256509	-0.000173
C49	C	0.814741	0.780502	-0.000213
C50	C	0.815873	0.703399	-0.000080
N51	N	0.820199	-0.092487	0.177921
N52	N	0.820228	-0.092489	-0.178389
C53	C	0.867599	-0.045134	0.782210
C54	C	0.867600	-0.045135	0.703408
C55	C	0.820218	-0.092486	0.664010
C56	C	0.772843	-0.139851	0.703421
C57	C	0.772848	-0.139852	0.782221
C58	C	0.756925	-0.101756	0.539192
C59	C	0.756919	-0.101749	0.460394
C60	C	0.820203	-0.092485	0.420964
C61	C	0.883494	-0.083212	0.460343
C62	C	0.883499	-0.083214	0.539143
C63	C	0.820207	-0.092490	0.578565
C64	C	0.867579	-0.045128	0.296117
C65	C	0.867581	-0.045135	0.217314
C66	C	0.772818	-0.139847	0.217328
C67	C	0.772822	-0.139844	0.296130
C68	C	0.820202	-0.092481	0.335519
H69	H	0.147094	-0.205029	-0.000294
N70	N	0.450735	-0.226241	-0.000258
H71	H	0.400632	-0.215879	-0.000268
H72	H	0.459666	-0.254077	0.046144
N73	N	0.381960	-0.194393	0.090919
H74	H	0.343894	-0.224616	0.118697
H75	H	0.415423	-0.169269	0.128391
H76	H	0.734265	-0.178405	0.671339
N77	N	0.951761	-0.073239	0.581611
H78	H	0.978278	-0.026603	0.567907
H79	H	0.980522	-0.111823	0.567844
H80	H	0.906160	-0.006565	0.328189
N81	N	0.718316	0.469294	-0.091277
H82	H	0.688098	0.431237	-0.119068
H83	H	0.743442	0.502772	-0.128738
N84	N	0.951757	-0.073218	0.417828
H85	H	0.942153	-0.074627	0.361933
H86	H	0.980558	-0.111761	0.431582
H87	H	0.242669	-0.179508	0.079306
N88	N	0.684249	0.688621	-0.000024
H89	H	0.644644	0.649309	-0.000016
H90	H	0.681049	0.718306	-0.046425
H91	H	0.177867	0.024674	-0.000242
H92	H	0.624757	0.018124	-0.000147
H93	H	0.707678	0.234392	-0.000135
H94	H	0.733201	0.330008	-0.079717
N95	N	0.947412	0.723870	-0.000118
H96	H	0.949790	0.754306	0.046297
H97	H	0.949757	0.754260	-0.046549
H98	H	0.734272	-0.178416	0.814302
N99	N	0.258473	0.009416	-0.091406
H100	H	0.206093	0.002810	-0.084767
H101	H	0.270295	0.002741	-0.146112
H102	H	0.015668	-0.203100	-0.000313
N103	N	0.918684	0.005943	0.660885
H104	H	0.967960	-0.001916	0.674563
H105	H	0.910774	0.055197	0.674630
N106	N	0.686457	0.538039	-0.000055
H107	H	0.696816	0.487936	-0.000068
H108	H	0.658622	0.546992	-0.046448
N109	N	0.922108	0.345735	0.091004
H110	H	0.952329	0.383793	0.118789
H111	H	0.952336	0.319659	0.057356
N112	N	0.949617	0.573287	-0.000149
H113	H	0.989223	0.612597	-0.000157
H114	H	0.952811	0.543596	-0.046567
N115	N	0.919906	0.496318	0.091015
H116	H	0.951123	0.466499	0.118790
H117	H	0.893900	0.522953	0.128488
N118	N	0.918721	0.005925	0.824694
H119	H	0.948739	0.035917	0.787771
H120	H	0.949336	-0.020611	0.857352
N121	N	0.039111	0.043476	-0.000258
H122	H	-0.013566	0.034626	-0.000269
H123	H	0.055499	0.070934	-0.046657
H124	H	0.937381	0.265168	-0.000210
H125	H	0.906159	-0.006574	0.185233
N126	N	0.721717	-0.190924	0.174847
H127	H	0.728902	-0.183740	0.118947
H128	H	0.672470	-0.183029	0.188643
N129	N	0.688669	-0.111743	0.581723
H130	H	0.687016	-0.154746	0.614405
H131	H	0.648610	-0.117579	0.544780
N132	N	0.721719	-0.190910	0.338633
H133	H	0.691699	-0.220905	0.301720
H134	H	0.691104	-0.164389	0.371345
N135	N	0.688655	-0.111744	0.417932
H136	H	0.662158	-0.158388	0.431641
H137	H	0.698305	-0.110298	0.362042
N138	N	0.409051	0.007207	-0.091382
H139	H	0.395605	0.000919	-0.146114
H140	H	0.459436	-0.000931	-0.084654
N141	N	0.601319	-0.228450	-0.000231
H142	H	0.562005	-0.268053	-0.000251
H143	H	0.630986	-0.231655	0.046182
N144	N	0.693010	0.091155	-0.000161
H145	H	0.665149	0.100060	0.046257
H146	H	0.703424	0.041071	-0.000203
H147	H	0.493322	0.020044	-0.000191
H148	H	0.939307	0.133741	-0.000218
