data_functionalizedCrystal
_audit_creation_method	'MofGen! by Chris Wilmer'
_symmetry_space_group_name_H-M	'P1'
_symmetry_Int_Tables_number	1
_symmetry_cell_setting	triclinic
loop_
_symmetry_equiv_pos_as_xyz
  x,y,z
_cell_length_a	19.851628
_cell_length_b	14.809436
_cell_length_c	14.809374
_cell_angle_alpha	88.612904
_cell_angle_beta	67.427437
_cell_angle_gamma	67.421648
loop_
_atom_site_label
_atom_site_type_symbol
_atom_site_fract_x
_atom_site_fract_y
_atom_site_fract_z
Zr1	Zr	0.839481	0.811234	-0.189227
O2	O	0.940824	0.691856	-0.308594
O3	O	0.710959	0.847840	-0.152637
O4	O	0.825891	0.865200	-0.325967
O5	O	0.846090	0.660790	0.001464
O6	O	0.846088	1.001926	-0.339669
O7	O	0.825892	0.674495	-0.135264
O8	O	0.640495	0.970871	-0.029613
O9	O	1.051682	0.691844	-0.308592
O10	O	0.788960	0.965476	-0.147255
O11	O	0.788961	0.853211	-0.034991
O12	O	0.924279	0.873651	-0.239064
O13	O	0.924279	0.761385	-0.126800
Zr14	Zr	0.903905	1.007436	0.006985
Zr15	Zr	0.871692	1.029295	-0.211080
Zr16	Zr	0.871693	0.789375	0.028838
Zr17	Zr	1.016286	0.811215	-0.189224
Zr18	Zr	0.727099	1.007454	0.006982
O19	O	1.032427	0.970830	-0.029605
O20	O	0.986625	1.001911	-0.339666
O21	O	0.986626	0.660775	0.001467
O22	O	0.802561	1.126814	0.126352
O23	O	0.756759	1.157895	-0.183709
O24	O	0.756761	0.816759	0.157424
O25	O	0.897296	1.157880	-0.183706
O26	O	0.917495	0.953470	0.143725
O27	O	0.897298	0.816744	0.157427
O28	O	0.917494	1.144174	-0.046978
O29	O	1.077286	0.865174	-0.325962
O30	O	0.666100	0.953496	0.143720
O31	O	0.691704	1.126825	0.126350
O32	O	0.666099	1.144201	-0.046983
O33	O	1.077287	0.674469	-0.135259
O34	O	1.102891	0.847799	-0.152629
O35	O	0.819107	0.945019	0.056822
O36	O	0.819106	1.057284	-0.055442
O37	O	0.954425	0.965459	-0.147251
O38	O	0.954425	0.853194	-0.034987
C39	C	0.650536	0.909358	-0.091125
C40	C	0.575477	0.909366	-0.091127
C41	C	0.349233	0.970552	-0.152336
C42	C	0.429266	0.878655	-0.183054
C43	C	0.305323	0.909323	-0.091120
C44	C	0.359039	1.001232	-0.060452
C45	C	0.438058	0.909348	-0.091125
C46	C	0.384397	0.817375	-0.121888
C47	C	0.314135	0.940015	0.000761
C48	C	0.394156	0.848059	-0.029928
C49	C	0.228859	0.909309	-0.091119
C50	C	0.514525	0.909352	-0.091127
C51	C	0.831401	0.636573	-0.063786
C52	C	0.817727	0.544001	-0.054509
C53	C	0.864630	0.361494	-0.086327
C54	C	0.878764	0.457172	-0.095920
C55	C	1.092850	0.909312	-0.091116
C56	C	1.167908	0.909304	-0.091115
C57	C	0.831400	0.936677	-0.363888
C58	C	0.817725	0.945957	-0.456462
C59	C	0.911984	1.182096	-0.118456
C60	C	0.925659	1.274669	-0.127733
C61	C	0.878755	0.904543	-0.543278
C62	C	0.864622	0.914133	-0.638960
C63	C	0.911986	0.881992	0.181646
C64	C	0.925661	0.872713	0.274220
C65	C	0.690827	1.182119	-0.118460
C66	C	0.629443	1.274700	-0.127739
C67	C	0.690829	0.882015	0.181641
C68	C	0.629446	0.872744	0.274214
C69	C	0.731121	1.154777	0.154307
C70	C	0.683412	1.238078	0.237602
C71	C	1.012265	0.663893	-0.336548
C72	C	1.059974	0.580592	-0.419844
C73	C	1.052558	0.636550	-0.063782
C74	C	1.113942	0.543970	-0.054503
C75	C	1.052557	0.936654	-0.363883
C76	C	1.113940	0.945926	-0.456456
C77	C	0.584880	1.270255	-0.180031
C78	C	0.527208	1.357238	-0.188769
C79	C	0.514098	1.448664	-0.145208
C80	C	0.558669	1.453107	-0.092914
C81	C	0.616343	1.366126	-0.084183
C82	C	0.616356	0.916311	0.365622
C83	C	0.558691	0.907595	0.452613
C84	C	0.514111	0.855316	0.448193
C85	C	0.527205	0.811742	0.356776
C86	C	0.584873	0.820454	0.269788
C87	C	0.661008	1.335807	0.218117
C88	C	0.616190	1.414086	0.296373
C89	C	0.593772	1.394634	0.394114
C90	C	0.616181	1.296894	0.413598
C91	C	0.661003	1.218617	0.335343
C92	C	1.082386	0.482863	-0.400359
C93	C	1.127226	0.404583	-0.478615
C94	C	1.149648	0.424036	-0.576356
C95	C	1.127235	0.521775	-0.595840
C96	C	1.082400	0.600052	-0.517584
C97	C	1.158512	0.548416	-0.002220
C98	C	1.216199	0.461435	0.006494
C99	C	1.229312	0.370009	-0.037070
C100	C	1.184738	0.365566	-0.089360
C101	C	1.127056	0.452546	-0.098079
C102	C	1.158504	0.998212	-0.452005
C103	C	1.216175	1.006943	-0.538980
C104	C	1.229285	0.963382	-0.630406
C105	C	1.184715	0.911094	-0.634855
C106	C	1.127041	0.902369	-0.547881
H107	H	0.329553	1.022247	-0.204150
F108	F	0.479779	1.352488	-0.244423
F109	F	0.544765	0.953978	0.549895
H110	H	0.652649	0.958881	0.369240
F111	F	1.197364	0.340716	-0.659634
F112	F	0.452736	0.846053	0.540783
F113	F	1.290705	0.277444	-0.027781
H114	H	1.195424	0.291115	-0.124827
F115	F	1.079622	0.447798	-0.153721
F116	F	0.452712	1.541230	-0.154507
F117	F	0.544705	1.550419	-0.046555
H118	H	0.478682	0.852700	-0.260759
F119	F	0.960741	0.452584	-0.151547
H120	H	1.064152	0.679627	-0.533462
H121	H	0.349073	1.078948	-0.034512
H122	H	0.597921	1.281070	0.493188
H123	H	1.195398	0.875628	-0.709306
H124	H	1.145466	0.325007	-0.462732
F125	F	0.397579	0.715757	-0.155913
F126	F	0.419502	0.780379	0.037940
H127	H	1.145496	0.537602	-0.675429
H128	H	1.090761	0.859789	-0.551519
F129	F	0.663763	1.370871	-0.028518
H130	H	0.264702	0.965995	0.078445
H131	H	0.595551	1.195820	-0.215517
F132	F	0.479752	0.756106	0.352087
F133	F	0.684837	1.114607	0.356096
H134	H	0.679254	1.351664	0.138538
F135	F	0.782656	0.366077	-0.030714
F136	F	1.058529	0.462138	-0.296342
F137	F	0.598793	0.774084	0.172507
F138	F	1.144571	0.645710	0.044149
F139	F	0.592346	1.518100	0.275617
H140	H	1.147841	1.033687	-0.377570
F141	F	1.263626	0.466185	0.062151
H142	H	1.252460	1.049519	-0.535338
F143	F	0.546067	1.477954	0.477392
H144	H	0.755007	0.547511	-0.011966
H145	H	1.276249	0.970493	-0.701218
H146	H	0.941468	0.861991	-0.546770
F147	F	1.007631	0.270087	-0.183356
F148	F	0.782646	0.969767	-0.634385
H149	H	0.988379	0.830156	-0.729279
F150	F	0.735753	1.001589	-0.451894
