data_functionalizedCrystal
_audit_creation_method	'MofGen! by Chris Wilmer'
_symmetry_space_group_name_H-M	'P1'
_symmetry_Int_Tables_number	1
_symmetry_cell_setting	triclinic
loop_
_symmetry_equiv_pos_as_xyz
  x,y,z
_cell_length_a	13.262529
_cell_length_b	11.026607
_cell_length_c	12.376457
_cell_angle_alpha	76.198797
_cell_angle_beta	116.830330
_cell_angle_gamma	96.044903
loop_
_atom_site_label
_atom_site_type_symbol
_atom_site_fract_x
_atom_site_fract_y
_atom_site_fract_z
O1	O	-1.517502	-0.025382	-0.560538
O2	O	-1.198866	-0.067328	-0.462580
O3	O	-1.331775	0.128421	-0.503436
O4	O	-1.384593	-0.221131	-0.519682
O5	O	-1.298550	0.079549	-0.305210
O6	O	-1.165641	-0.116201	-0.264354
O7	O	-1.484276	-0.074255	-0.362313
Zn8	Zn	-1.319683	-0.102988	-0.281861
Zn9	Zn	-1.363459	-0.038595	-0.543032
O10	O	-1.351367	-0.270004	-0.321456
C11	C	-1.140827	-0.093908	-0.350731
C12	C	-1.017387	-0.100281	-0.312782
C13	C	-1.305419	0.148504	-0.401329
C14	C	-1.276373	0.281156	-0.392404
C15	C	-0.941290	-0.129919	-0.186894
C16	C	-0.825309	-0.135898	-0.151229
C17	C	-0.785415	-0.112248	-0.241448
C18	C	-0.861514	-0.082618	-0.367339
C19	C	-0.977505	-0.076629	-0.403008
C20	C	-0.821630	-0.058958	-0.457562
C21	C	-0.897728	-0.029328	-0.583452
C22	C	-1.013708	-0.023342	-0.619115
C23	C	-1.053602	-0.046991	-0.528896
C24	C	-0.705639	-0.064947	-0.421893
C25	C	-0.741854	-0.011657	-0.638007
C26	C	-0.857834	-0.005679	-0.673672
N27	N	-1.393335	0.005359	-0.721274
C28	C	-0.542316	-0.047673	-0.474163
C29	C	-0.665756	-0.041295	-0.512119
C30	C	-1.377724	-0.290086	-0.423566
C31	C	-1.406771	-0.422737	-0.432499
C32	C	-1.356575	0.360658	-0.417062
C33	C	-1.326557	0.497762	-0.407838
N34	N	-1.289815	-0.146932	-0.103621
C35	C	-1.220488	-0.248967	-0.023126
C36	C	-1.199601	-0.279733	0.101635
C37	C	-1.248032	-0.208462	0.145914
C38	C	-1.317354	-0.106420	0.065420
C39	C	-1.338250	-0.075657	-0.059355
C40	C	-1.365795	-0.035152	0.109685
C41	C	-1.435117	0.066889	0.029191
C42	C	-1.456009	0.097648	-0.095571
C43	C	-1.407578	0.026378	-0.139850
C44	C	-1.344899	-0.065916	0.234460
C45	C	-1.462662	0.107394	0.198231
C46	C	-1.483549	0.138160	0.073471
H47	H	-0.643691	-0.089082	-0.319392
F48	F	-1.557326	0.246759	-0.012209
F49	F	-0.661978	-0.118620	-0.203487
F50	F	-1.429802	0.059126	-0.272635
H51	H	-1.148042	-0.042129	-0.557928
H52	H	-1.143161	-0.362815	0.167168
F53	F	-1.525578	0.533577	-0.469029
F54	F	-1.529801	0.206239	-0.181243
F55	F	-1.271124	-0.174513	0.320113
H56	H	-1.447461	0.327220	-0.444996
F57	F	-1.514214	0.183247	0.245349
F58	F	-1.225800	-0.241207	0.278697
F59	F	-1.168960	-0.324816	-0.070259
H60	H	-1.235665	0.531194	-0.379902
H61	H	-0.973783	-0.149162	-0.113451
F62	F	-0.744330	-0.167445	-0.017253
F63	F	-1.094693	0.008214	-0.753099
H64	H	-0.709374	0.007598	-0.711471
F65	F	-0.938836	0.025859	-0.807651
F66	F	-1.157576	0.324856	-0.355892
