data_functionalizedCrystal
_audit_creation_method	'MofGen! by Chris Wilmer'
_symmetry_space_group_name_H-M	'P1'
_symmetry_Int_Tables_number	1
_symmetry_cell_setting	triclinic
loop_
_symmetry_equiv_pos_as_xyz
  x,y,z
_cell_length_a	10.540514
_cell_length_b	10.540510
_cell_length_c	9.016244
_cell_angle_alpha	90.000273
_cell_angle_beta	89.992124
_cell_angle_gamma	84.514235
loop_
_atom_site_label
_atom_site_type_symbol
_atom_site_fract_x
_atom_site_fract_y
_atom_site_fract_z
O1	O	1.685893	0.178745	-0.123350
O2	O	1.316474	0.195634	-0.123348
O3	O	1.509631	0.002480	-0.123349
O4	O	1.492735	0.371899	-0.123350
O5	O	1.509602	0.002484	0.123332
O6	O	1.316445	0.195639	0.123333
O7	O	1.685864	0.178749	0.123331
Cu8	Cu	1.501152	0.187194	0.145856
Cu9	Cu	1.501186	0.187189	-0.145873
O10	O	1.492707	0.371904	0.123331
C11	C	1.269156	0.194377	-0.000008
C12	C	1.128207	0.190608	-0.000007
C13	C	1.057486	0.328749	-0.000010
C14	C	0.910874	0.324875	-0.000578
C15	C	0.935893	0.115477	-0.140608
C16	C	1.082432	0.120331	-0.140719
C17	C	1.082803	0.118292	0.139813
C18	C	0.935824	0.116959	0.141653
C19	C	1.508358	-0.044821	-0.000011
C20	C	1.504591	-0.185771	-0.000020
C21	C	1.638776	-0.403239	0.000544
C22	C	1.642794	-0.256643	-0.000020
C23	C	1.433860	-0.230526	-0.140884
C24	C	1.430821	-0.377286	-0.140994
C25	C	1.427910	-0.377090	0.139528
C26	C	1.434465	-0.230749	0.141382
C27	C	1.733182	0.180007	-0.000013
C28	C	1.874131	0.183776	-0.000023
C29	C	1.493980	0.419205	-0.000010
C30	C	1.497747	0.560155	-0.000010
N31	N	1.501138	0.187197	0.351042
N32	N	1.501210	0.187176	-0.351059
C33	C	1.397494	0.290175	0.586075
C34	C	1.397724	0.290561	0.414183
C35	C	1.633859	0.217319	0.413379
C36	C	1.633293	0.218048	0.585324
C37	C	1.473378	0.053760	0.585586
C38	C	1.470332	0.054625	0.413632
H39	H	0.913591	0.011844	-0.145439
H40	H	0.911649	0.014112	0.150561
N41	N	1.122256	0.175972	0.273552
N42	N	1.094650	0.131269	0.396539
H43	H	1.122512	0.172016	0.490987
H44	H	1.130070	0.016397	0.141170
H45	H	1.378643	0.025088	0.629034
N46	N	1.706301	-0.455886	0.127273
N47	N	1.651281	-0.521008	0.218662
H48	H	1.698971	-0.558202	0.308167
H49	H	1.130450	0.018856	-0.146721
H50	H	1.692320	-0.446751	-0.099905
H51	H	0.893293	0.162290	-0.245631
N52	N	1.117838	0.182900	-0.273064
N53	N	1.034359	0.222687	-0.364702
H54	H	1.059357	0.266879	-0.458174
N55	N	1.306220	-0.171083	-0.147494
N56	N	1.214378	-0.237835	-0.147035
H57	H	1.124232	-0.195853	-0.151705
N58	N	1.663811	0.340168	0.635597
N59	N	1.594476	0.438333	0.600136
H60	H	1.616025	0.524586	0.635631
H61	H	1.540869	-0.025704	0.370656
H62	H	1.087720	0.383966	-0.100678
H63	H	0.894811	0.166872	0.245660
H64	H	1.483004	-0.199675	-0.245714
N65	N	1.712223	-0.219846	0.126656
N66	N	1.758044	-0.302509	0.216099
H67	H	1.807086	-0.276529	0.305566
H68	H	1.658747	0.313556	0.370301
N69	N	1.712657	-0.221027	-0.126916
N70	N	1.758587	-0.304488	-0.215345
H71	H	1.807928	-0.279337	-0.304974
H72	H	1.372696	0.031793	0.372890
H73	H	1.548999	-0.022903	0.626238
H74	H	1.479182	-0.417508	-0.246292
N75	N	1.093251	0.399083	0.126426
N76	N	1.046474	0.511415	0.145326
H77	H	1.071736	0.561090	0.234628
N78	N	1.301164	-0.406165	-0.149017
N79	N	1.255390	-0.468701	-0.047701
H80	H	1.163823	-0.489099	-0.053374
N81	N	0.857342	0.392258	0.125828
N82	N	0.928256	0.442485	0.215083
H83	H	0.890455	0.490082	0.304361
N84	N	1.482670	-0.430341	0.273478
N85	N	1.482772	-0.547015	0.298348
H86	H	1.521456	-0.584627	0.392945
N87	N	1.733094	0.127590	0.637477
N88	N	1.802946	0.064128	0.546881
H89	H	1.873434	0.000246	0.583707
H90	H	0.869148	0.378361	-0.101949
H91	H	1.333565	-0.181673	0.149889
N92	N	1.499039	-0.194858	0.272105
N93	N	1.596344	-0.136367	0.261285
H94	H	1.641953	-0.111013	0.353605
H95	H	1.324146	-0.399230	0.140478
N96	N	1.274013	0.267863	0.361277
N97	N	1.253015	0.264278	0.224972
H98	H	1.165637	0.248254	0.187610
N99	N	1.419612	0.413657	0.640250
N100	N	1.336144	0.476482	0.715591
H101	H	1.351766	0.563691	0.753856
H102	H	1.298570	0.272332	0.627468
H103	H	1.415613	0.389545	0.373036
N104	N	1.733036	0.125769	0.362065
N105	N	1.706943	0.037092	0.278777
H106	H	1.776985	-0.027569	0.242534
