data_functionalizedCrystal
_audit_creation_method	'MofGen! by Chris Wilmer'
_symmetry_space_group_name_H-M	'P1'
_symmetry_Int_Tables_number	1
_symmetry_cell_setting	triclinic
loop_
_symmetry_equiv_pos_as_xyz
  x,y,z
_cell_length_a	21.395362
_cell_length_b	18.101395
_cell_length_c	21.395355
_cell_angle_alpha	89.984273
_cell_angle_beta	89.956060
_cell_angle_gamma	90.046983
loop_
_atom_site_label
_atom_site_type_symbol
_atom_site_fract_x
_atom_site_fract_y
_atom_site_fract_z
Zn1	Zn	0.957858	-0.294602	-0.354598
Zn2	Zn	0.957760	-0.418425	-0.249825
Zn3	Zn	0.853073	-0.294636	-0.249799
Zn4	Zn	0.853041	-0.418440	-0.354530
O5	O	0.905433	-0.356526	-0.302188
O6	O	1.045523	-0.311006	-0.340739
O7	O	0.943845	-0.402012	-0.162144
O8	O	0.867027	-0.190998	-0.263718
O9	O	1.045450	-0.401979	-0.263763
O10	O	0.944012	-0.190973	-0.340713
O11	O	0.866932	-0.311065	-0.162125
O12	O	0.765391	-0.311080	-0.263652
O13	O	0.866973	-0.402005	-0.442217
O14	O	0.765367	-0.402038	-0.340598
O15	O	0.943982	-0.311021	-0.442267
O16	O	0.943814	-0.522060	-0.263697
O17	O	0.866878	-0.522071	-0.340623
C18	C	0.742645	-0.356565	-0.302115
C19	C	0.673004	-0.356599	-0.302099
C20	C	0.640295	-0.404024	-0.342105
C21	C	0.574860	-0.404006	-0.342133
C22	C	0.542136	-0.356571	-0.302144
C23	C	0.574852	-0.309137	-0.262135
C24	C	0.640286	-0.309151	-0.262113
C25	C	0.438411	-0.350605	-0.245738
C26	C	0.372978	-0.350596	-0.245760
C27	C	0.340315	-0.356523	-0.302213
C28	C	0.373093	-0.362474	-0.358647
C29	C	0.438527	-0.362488	-0.358624
C30	C	0.471183	-0.356550	-0.302164
C31	C	0.236654	-0.403930	-0.342252
C32	C	0.171217	-0.403907	-0.342281
C33	C	0.171211	-0.309042	-0.262278
C34	C	0.236646	-0.309061	-0.262255
C35	C	0.269364	-0.356509	-0.302241
C36	C	0.905349	-0.548936	-0.302170
C37	C	0.905370	-0.631250	-0.302183
C38	C	0.905508	-0.930341	-0.302216
C39	C	0.857214	-0.899054	-0.350736
C40	C	0.856985	-0.813436	-0.350585
C41	C	0.905440	-0.781959	-0.302200
C42	C	0.887557	-0.813100	-0.236161
C43	C	0.887246	-0.898745	-0.236451
C44	C	0.971790	-0.898667	-0.319154
C45	C	0.971400	-0.813017	-0.320602
C46	C	0.905402	-0.698099	-0.302187
C47	C	0.905544	-1.014201	-0.302225
C48	C	1.068856	-0.356487	-0.302261
C49	C	1.138497	-0.356470	-0.302293
C50	C	0.905485	-0.356511	-0.465611
C51	C	0.905507	-0.356504	-0.535253
C52	C	0.905534	-0.163364	-0.302220
C53	C	0.905577	-0.081050	-0.302234
C54	C	0.945603	-0.309127	-0.567993
C55	C	0.945603	-0.309095	-0.633428
C56	C	0.905512	-0.356454	-0.666121
C57	C	0.865408	-0.403834	-0.633373
C58	C	0.865405	-0.403859	-0.567939
C59	C	0.900536	-0.423137	-0.769788
C60	C	0.900542	-0.423113	-0.835221
C61	C	0.905516	-0.356375	-0.867942
C62	C	0.910495	-0.289660	-0.835222
C63	C	0.910493	-0.289685	-0.769788
C64	C	0.905510	-0.356431	-0.737073
C65	C	0.945613	-0.308960	-0.971635
C66	C	0.945608	-0.308927	-1.037071
C67	C	0.865416	-0.403672	-1.037015
C68	C	0.865418	-0.403699	-0.971580
C69	C	0.905520	-0.356344	-0.938893
C70	C	0.905417	-0.356487	-0.139400
C71	C	0.905516	-0.356285	-0.069760
H72	H	0.144568	-0.270415	-0.229722
C73	C	0.474582	-0.369025	-0.420698
C74	C	0.465578	-0.437470	-0.462471
C75	C	0.501633	-0.444003	-0.524546
C76	C	0.546693	-0.382090	-0.544847
C77	C	0.555699	-0.313640	-0.503073
C78	C	0.519644	-0.307107	-0.440999
H79	H	0.432220	-0.483306	-0.447443
H80	H	0.494966	-0.494674	-0.555469
H81	H	0.573383	-0.386926	-0.590798
H82	H	0.589057	-0.267804	-0.518101
H83	H	0.526312	-0.256436	-0.410075
H84	H	0.263278	-0.270446	-0.229675
H85	H	0.465000	-0.345775	-0.199764
H86	H	0.832763	-0.442392	-0.659996
C87	C	0.538859	-0.256959	-0.218146
C88	C	0.466884	-0.256944	-0.218165
C89	C	0.430892	-0.204761	-0.174176
C90	C	0.466874	-0.152592	-0.130168
C91	C	0.538853	-0.152605	-0.130147
C92	C	0.574846	-0.204788	-0.174136
H93	H	0.440244	-0.295564	-0.250744
H94	H	0.377608	-0.204752	-0.174192
H95	H	0.440230	-0.113963	-0.097605
H96	H	0.565493	-0.113985	-0.097569
H97	H	0.628129	-0.204797	-0.174121
H98	H	0.920895	-0.919443	-0.199066
H99	H	0.988093	-0.920221	-0.366491
C100	C	0.821298	-0.455982	-0.531923
C101	C	0.750074	-0.449950	-0.540866
C102	C	0.705967	-0.502074	-0.504849
C103	C	0.733084	-0.560230	-0.459889
C104	C	0.804312	-0.566263	-0.450944
C105	C	0.848419	-0.514139	-0.486961
H106	H	0.729997	-0.406898	-0.574150
H107	H	0.653240	-0.497608	-0.511472
H108	H	0.700434	-0.598815	-0.433228
H109	H	0.824389	-0.609316	-0.417660
H110	H	0.901146	-0.518606	-0.480338
C111	C	0.337173	-0.368997	-0.420752
C112	C	0.265198	-0.368978	-0.420782
C113	C	0.229275	-0.375506	-0.482883
C114	C	0.265327	-0.382054	-0.544955
C115	C	0.337306	-0.382073	-0.544927
C116	C	0.373229	-0.375545	-0.482825
H117	H	0.238506	-0.364131	-0.374831
H118	H	0.175991	-0.375491	-0.482904
H119	H	0.238735	-0.386886	-0.590926
H120	H	0.363998	-0.386920	-0.590878
H121	H	0.426513	-0.375559	-0.482805
H122	H	0.666930	-0.442659	-0.374665
H123	H	0.666918	-0.270530	-0.229536
H124	H	0.548223	-0.442625	-0.374712
C125	C	0.989628	-0.785510	-0.386255
C126	C	0.944849	-0.735085	-0.423003
C127	C	0.963076	-0.707572	-0.488655
C128	C	1.026081	-0.730484	-0.517559
C129	C	1.070864	-0.780911	-0.480811
C130	C	1.052638	-0.808425	-0.415159
H131	H	0.898205	-0.718121	-0.401607
H132	H	0.929924	-0.670241	-0.515859
H133	H	1.039573	-0.710117	-0.566159
H134	H	1.117508	-0.797875	-0.502207
H135	H	1.085789	-0.845755	-0.387956
C136	C	1.022577	-0.784123	-0.276309
C137	C	1.005291	-0.731584	-0.222414
C138	C	1.056462	-0.702718	-0.178097
C139	C	1.124917	-0.726392	-0.187674
C140	C	1.142206	-0.778934	-0.241570
C141	C	1.091035	-0.807800	-0.285888
H142	H	0.954613	-0.714056	-0.215323
H143	H	1.043663	-0.663822	-0.138199
H144	H	1.162796	-0.705024	-0.154867
H145	H	1.192883	-0.796462	-0.248662
H146	H	1.103834	-0.846696	-0.325786
C147	C	0.933575	-0.785553	-0.185985
C148	C	0.909545	-0.739579	-0.130403
C149	C	0.955563	-0.712030	-0.080229
C150	C	1.025613	-0.730455	-0.085636
C151	C	1.049647	-0.776431	-0.141221
C152	C	1.003628	-0.803980	-0.191395
H153	H	0.857687	-0.725938	-0.126398
H154	H	0.937771	-0.677996	-0.039081
H155	H	1.059678	-0.710061	-0.048494
H156	H	1.101505	-0.790072	-0.145226
H157	H	1.021420	-0.838015	-0.232543
H158	H	0.978259	-0.270342	-1.063727
H159	H	0.263294	-0.442562	-0.374814
C160	C	0.135234	-0.456076	-0.386292
C161	C	0.171226	-0.508264	-0.430272
C162	C	0.135242	-0.560434	-0.474283
C163	C	0.063268	-0.560416	-0.474315
C164	C	0.027272	-0.508225	-0.430333
C165	C	0.063255	-0.456056	-0.386322
H166	H	0.224510	-0.508280	-0.430250
H167	H	0.161889	-0.599069	-0.506841
H168	H	0.036630	-0.599035	-0.506895
H169	H	-0.026012	-0.508210	-0.430355
H170	H	0.036609	-0.417421	-0.353764
C171	C	0.872069	-0.785001	-0.416746
C172	C	0.934626	-0.805281	-0.447950
C173	C	0.949695	-0.776859	-0.514121
C174	C	0.902208	-0.728158	-0.549088
C175	C	0.839647	-0.707876	-0.517884
C176	C	0.824578	-0.736298	-0.451714
H177	H	0.969782	-0.841334	-0.422065
H178	H	0.996007	-0.791873	-0.537219
H179	H	0.913363	-0.707119	-0.598072
H180	H	0.804490	-0.671822	-0.543769
H181	H	0.778266	-0.721284	-0.428615
H182	H	0.914546	-0.235363	-0.743150
C183	C	0.790615	-0.785859	-0.335418
C184	C	0.779279	-0.737312	-0.277419
C185	C	0.712907	-0.709737	-0.262248
C186	C	0.657871	-0.730708	-0.305077
C187	C	0.669206	-0.779256	-0.363080
C188	C	0.735578	-0.806832	-0.378251
H189	H	0.820021	-0.721786	-0.245711
H190	H	0.704516	-0.673798	-0.219310
H191	H	0.608739	-0.710295	-0.293847
H192	H	0.628464	-0.794782	-0.394788
H193	H	0.743969	-0.842771	-0.421188
H194	H	0.896491	-0.477437	-0.861856
H195	H	0.346295	-0.345754	-0.199808
C196	C	0.989716	-0.256984	-0.669452
C197	C	1.033827	-0.204898	-0.633499
C198	C	1.077943	-0.152789	-0.669522
C199	C	1.077947	-0.152766	-0.741497
C200	C	1.033835	-0.204854	-0.777454
C201	C	0.989719	-0.256963	-0.741432
H202	H	1.033826	-0.204913	-0.580216
H203	H	1.110598	-0.114230	-0.642903
H204	H	1.110604	-0.114192	-0.768162
H205	H	1.033836	-0.204839	-0.830737
H206	H	0.957064	-0.295522	-0.768050
C207	C	0.989719	-0.256865	-0.935676
C208	C	1.038896	-0.288962	-0.890734
C209	C	1.083003	-0.236867	-0.854779
C210	C	1.077932	-0.152676	-0.863764
C211	C	1.028753	-0.120575	-0.908708
C212	C	0.984647	-0.172669	-0.944664
H213	H	1.042651	-0.351289	-0.884081
H214	H	1.119408	-0.260631	-0.821508
H215	H	1.110582	-0.114112	-0.837148
H216	H	1.024998	-0.058247	-0.915362
H217	H	0.948242	-0.148906	-0.977934
C218	C	0.821307	-0.455817	-0.935566
C219	C	0.772129	-0.423747	-0.890552
C220	C	0.728010	-0.475863	-0.854542
C221	C	0.733069	-0.560048	-0.863546
C222	C	0.782249	-0.592121	-0.908562
C223	C	0.826369	-0.540006	-0.944572
H224	H	0.768382	-0.361425	-0.883886
H225	H	0.691603	-0.452119	-0.821218
H226	H	0.700409	-0.598627	-0.836889
H227	H	0.785996	-0.654444	-0.915229
H228	H	0.862775	-0.563749	-0.977896
C229	C	0.895066	-0.496554	-0.733798
C230	C	0.889599	-0.569937	-0.769784
C231	C	0.884128	-0.643351	-0.733795
C232	C	0.884125	-0.643382	-0.661820
C233	C	0.889592	-0.569996	-0.625830
C234	C	0.895062	-0.496582	-0.661819
H235	H	0.889601	-0.569916	-0.823068
H236	H	0.880081	-0.697676	-0.760438
H237	H	0.880075	-0.697727	-0.635179
H238	H	0.889589	-0.570017	-0.572546
H239	H	0.899110	-0.442258	-0.635176
H240	H	0.839618	-0.791728	-0.221559
H241	H	0.868292	-0.919610	-0.399862
C242	C	0.791245	-0.928228	-0.335768
C243	C	0.738151	-0.873692	-0.320624
C244	C	0.672183	-0.902868	-0.305652
C245	C	0.659309	-0.986581	-0.305823
C246	C	0.712404	-1.041122	-0.320967
C247	C	0.778372	-1.011946	-0.335940
H248	H	0.747679	-0.811718	-0.320496
H249	H	0.632878	-0.862492	-0.294441
H250	H	0.610476	-1.008179	-0.294740
H251	H	0.702876	-1.103096	-0.321095
H252	H	0.817677	-1.052322	-0.347150
C253	C	0.821790	-0.925846	-0.217077
C254	C	0.770166	-0.869557	-0.201448
C255	C	0.704709	-0.896653	-0.182076
C256	C	0.690875	-0.980037	-0.178331
C257	C	0.742501	-1.036331	-0.193960
C258	C	0.807958	-1.009235	-0.213333
H259	H	0.780406	-0.807826	-0.204220
H260	H	0.666492	-0.854980	-0.170506
H261	H	0.642420	-1.000095	-0.163990
H262	H	0.732261	-1.098062	-0.191189
H263	H	0.846175	-1.050908	-0.224903
H264	H	1.007771	-0.918897	-0.283816
C265	C	0.989710	-0.257030	-0.532041
C266	C	0.984641	-0.172840	-0.541035
C267	C	1.028746	-0.120740	-0.505083
C268	C	1.077921	-0.152831	-0.460136
C269	C	1.082992	-0.237026	-0.451140
C270	C	1.038886	-0.289125	-0.487092
H271	H	0.948237	-0.149080	-0.574310
H272	H	1.024992	-0.058414	-0.511743
H273	H	1.110570	-0.114264	-0.433522
H274	H	1.119396	-0.260785	-0.417866
H275	H	1.042641	-0.351451	-0.480432
C276	C	0.821314	-0.455767	-1.072969
C277	C	0.821313	-0.455742	-1.144944
C278	C	0.777208	-0.507836	-1.180901
C279	C	0.733103	-0.559956	-1.144884
C280	C	0.733102	-0.559983	-1.072905
C281	C	0.777208	-0.507889	-1.036947
H282	H	0.853964	-0.417158	-1.171610
H283	H	0.777208	-0.507816	-1.234185
H284	H	0.700453	-0.598519	-1.171501
H285	H	0.700452	-0.598567	-1.046238
H286	H	0.777207	-0.507909	-0.983663
H287	H	0.914546	-0.235316	-0.861862
