data_functionalizedCrystal
_audit_creation_method	'MofGen! by Chris Wilmer'
_symmetry_space_group_name_H-M	'P1'
_symmetry_Int_Tables_number	1
_symmetry_cell_setting	triclinic
loop_
_symmetry_equiv_pos_as_xyz
  x,y,z
_cell_length_a	16.956995
_cell_length_b	12.811415
_cell_length_c	15.455313
_cell_angle_alpha	87.254642
_cell_angle_beta	87.515363
_cell_angle_gamma	80.066922
loop_
_atom_site_label
_atom_site_type_symbol
_atom_site_fract_x
_atom_site_fract_y
_atom_site_fract_z
O1	O	1.061809	0.038387	-0.075210
O2	O	0.829912	0.075029	-0.078080
O3	O	0.951119	-0.095777	-0.064647
O4	O	0.940602	0.209193	-0.088643
O5	O	0.944188	-0.086048	0.078850
O6	O	0.822981	0.084759	0.065417
O7	O	1.054877	0.048117	0.068287
Cu8	Cu	0.938296	0.067326	0.079954
Cu9	Cu	0.946493	0.055820	-0.089747
O10	O	0.933671	0.218923	0.054854
C11	C	0.796752	0.081770	-0.006478
C12	C	0.708271	0.087348	-0.006912
C13	C	0.209270	0.129073	-0.010227
C14	C	0.292408	0.123824	-0.009814
C15	C	0.342793	0.025299	-0.002055
C16	C	0.310037	-0.067985	0.005282
C17	C	0.226901	-0.062735	0.004862
C18	C	0.592379	-0.000685	0.000005
C19	C	0.675520	-0.005928	0.000427
C20	C	0.657885	0.185881	-0.014671
C21	C	0.574748	0.191123	-0.015085
C22	C	0.542000	0.097839	-0.007752
N23	N	0.427773	0.019931	-0.001629
N24	N	0.457021	0.103207	-0.008184
C25	C	0.946852	-0.129753	0.010156
C26	C	0.944453	-0.245484	0.019257
C27	C	0.947490	-0.473550	-0.120100
C28	C	0.945236	-0.582290	-0.111553
C29	C	0.937688	-0.571704	0.044897
C30	C	0.939941	-0.462964	0.036350
C31	C	0.944843	-0.413892	-0.046151
C32	C	0.947102	-0.305151	-0.054697
C33	C	0.939548	-0.294565	0.101752
C34	C	0.937295	-0.403305	0.110299
C35	C	1.088038	0.041375	-0.003317
C36	C	1.176519	0.035797	-0.002888
C37	C	0.937938	0.252898	-0.019951
C38	C	0.940337	0.368629	-0.029057
N39	N	0.932537	0.075418	0.199314
N40	N	0.952259	0.047719	-0.209106
C41	C	0.984048	0.002877	0.250413
C42	C	0.979699	0.009006	0.340739
C43	C	0.923843	0.087681	0.379963
C44	C	0.872326	0.160225	0.328857
C45	C	0.876672	0.154091	0.238534
C46	C	0.905088	0.114129	0.649465
C47	C	0.900748	0.120260	0.739795
C48	C	1.008121	-0.030962	0.751670
C49	C	1.012464	-0.037085	0.661344
C50	C	0.960945	0.035456	0.610246
N51	N	0.919399	0.093949	0.472291
N52	N	0.965386	0.029182	0.517921
H53	H	0.533729	0.271352	-0.021405
H54	H	0.565726	-0.076643	0.005978
H55	H	0.684558	0.261827	-0.020641
C56	C	0.154705	0.236145	-0.018705
C57	C	0.201187	0.316705	-0.025068
C58	C	0.150953	0.415355	-0.032894
H59	H	0.119467	0.245730	0.030831
H60	H	0.124344	0.238835	-0.069248
H61	H	0.231534	0.314017	0.025470
H62	H	0.236424	0.307155	-0.074603
H63	H	0.120592	0.418045	-0.083437
H64	H	0.115717	0.424929	0.016644
H65	H	0.182484	0.470026	-0.037221
H66	H	0.937396	-0.245980	0.161966
C67	C	0.948148	-0.646890	-0.191945
C68	C	0.952937	-0.580638	-0.266021
C69	C	0.955625	-0.640111	-0.340096
H70	H	0.901055	-0.677570	-0.192913
H71	H	0.993830	-0.701488	-0.190984
H72	H	0.907260	-0.526059	-0.266982
H73	H	1.000028	-0.549957	-0.265082
H74	H	1.001307	-0.694710	-0.339135
H75	H	0.908531	-0.670788	-0.341055
H76	H	0.958882	-0.595171	-0.390365
C77	C	0.730096	-0.113010	0.008804
C78	C	0.683625	-0.193583	0.015108
C79	C	0.733872	-0.292235	0.022812
H80	H	0.760489	-0.115807	0.059319
H81	H	0.765305	-0.122485	-0.040777
H82	H	0.648430	-0.184112	0.064683
H83	H	0.653233	-0.190821	-0.035402
H84	H	0.769081	-0.301710	-0.026768
H85	H	0.764263	-0.295021	0.073328
H86	H	0.702350	-0.346916	0.027082
C87	C	0.364636	-0.175022	0.013843
C88	C	0.346140	-0.226606	0.092109
C89	C	0.396410	-0.325219	0.100021
H90	H	0.418864	-0.164941	0.013100
H91	H	0.357042	-0.217014	-0.033136
H92	H	0.353741	-0.184624	0.139075
H93	H	0.291921	-0.236714	0.092870
H94	H	0.388816	-0.367212	0.053042
H95	H	0.450635	-0.315128	0.099275
H96	H	0.383863	-0.360236	0.153120
C97	C	1.072835	-0.122585	0.618491
C98	C	1.124562	-0.075085	0.562342
C99	C	1.180029	-0.153917	0.522764
H100	H	1.045253	-0.165681	0.586562
H101	H	1.102967	-0.165179	0.661666
H102	H	1.094433	-0.032509	0.519172
H103	H	1.152163	-0.031996	0.594250
H104	H	1.210162	-0.196510	0.565940
H105	H	1.152441	-0.197007	0.490840
H106	H	1.215137	-0.121699	0.484669
H107	H	0.200237	-0.138690	0.010837
H108	H	0.933690	-0.611676	0.112065
C109	C	0.952382	-0.252052	-0.144343
C110	C	0.954193	-0.327572	-0.207274
C111	C	0.959043	-0.278697	-0.289866
H112	H	0.999797	-0.221822	-0.150120
H113	H	0.907015	-0.197905	-0.151908
H114	H	0.999556	-0.381700	-0.199711
H115	H	0.906783	-0.357808	-0.201525
H116	H	0.913676	-0.224550	-0.297432
H117	H	1.006458	-0.248468	-0.295635
H118	H	0.960266	-0.329927	-0.332575
C119	C	0.932020	-0.456795	0.199793
C120	C	0.930634	-0.564800	0.191453
C121	C	0.925790	-0.614109	0.273878
H122	H	0.884463	-0.424957	0.229678
H123	H	0.977245	-0.448832	0.231475
H124	H	0.885412	-0.572756	0.159785
H125	H	0.978186	-0.596667	0.161583
H126	H	0.971016	-0.606146	0.305560
H127	H	0.878233	-0.582263	0.303757
H128	H	0.924856	-0.687397	0.268231
C129	C	1.044720	-0.082654	0.207996
C130	C	1.088885	-0.144887	0.272085
C131	C	1.144776	-0.223701	0.233048
H132	H	1.079930	-0.050470	0.170022
H133	H	1.017460	-0.126100	0.176023
H134	H	1.116144	-0.101447	0.304044
H135	H	1.053697	-0.177096	0.310063
H136	H	1.117515	-0.267147	0.201075
H137	H	1.179980	-0.191507	0.195075
H138	H	1.174743	-0.265942	0.276526
C139	C	0.328007	0.225058	-0.017977
C140	C	0.378765	0.222643	-0.092027
C141	C	0.411559	0.315895	-0.099594
H142	H	0.357715	0.230514	0.031836
H143	H	0.286109	0.284503	-0.022709
H144	H	0.420657	0.163215	-0.087289
H145	H	0.349076	0.217204	-0.141854
H146	H	0.369660	0.375340	-0.104326
H147	H	0.441263	0.321343	-0.049778
H148	H	0.445995	0.314274	-0.149841
C149	C	1.064138	-0.109795	0.806998
C150	C	1.113993	-0.179995	0.753312
C151	C	1.165612	-0.252631	0.804248
H152	H	1.033556	-0.148502	0.845480
H153	H	1.095930	-0.072736	0.839476
H154	H	1.082205	-0.217051	0.720848
H155	H	1.144593	-0.141319	0.714831
H156	H	1.197404	-0.215572	0.836727
H157	H	1.135023	-0.291330	0.842728
H158	H	1.199449	-0.300264	0.767830
H159	H	0.855261	0.184331	0.771727
C160	C	0.849116	0.193023	0.594141
C161	C	0.799289	0.263253	0.647827
C162	C	0.747724	0.335956	0.596889
H163	H	0.817295	0.156053	0.561639
H164	H	0.879763	0.231688	0.555679
H165	H	0.768645	0.224592	0.686273
H166	H	0.831089	0.300247	0.680329
H167	H	0.778370	0.374621	0.558427
H168	H	0.715908	0.298978	0.564389
H169	H	0.713915	0.383622	0.633306
H170	H	1.021643	-0.050064	0.382344
H171	H	0.951488	-0.433597	-0.187276
C172	C	0.811636	0.245488	0.371567
C173	C	0.759982	0.197583	0.427508
C174	C	0.704072	0.276096	0.466875
H175	H	0.781496	0.287856	0.328294
H176	H	0.838893	0.288866	0.403613
H177	H	0.732727	0.154222	0.395464
H178	H	0.790100	0.155221	0.470797
H179	H	0.731329	0.319474	0.498921
H180	H	0.673937	0.318459	0.423596
H181	H	0.669022	0.243604	0.504841
C182	C	0.820705	0.232984	0.183197
C183	C	0.770872	0.303217	0.236877
C184	C	0.719309	0.375915	0.185932
H185	H	0.788887	0.196011	0.150694
H186	H	0.851353	0.271648	0.144736
H187	H	0.740227	0.264558	0.275323
H188	H	0.802668	0.340215	0.269380
H189	H	0.749957	0.414578	0.147471
H190	H	0.687497	0.338932	0.153432
H191	H	0.685497	0.423582	0.222346
