data_functionalizedCrystal
_audit_creation_method	'MofGen! by Chris Wilmer'
_symmetry_space_group_name_H-M	'P1'
_symmetry_Int_Tables_number	1
_symmetry_cell_setting	triclinic
loop_
_symmetry_equiv_pos_as_xyz
  x,y,z
_cell_length_a	17.640112
_cell_length_b	18.101397
_cell_length_c	17.640968
_cell_angle_alpha	78.764690
_cell_angle_beta	92.139080
_cell_angle_gamma	101.246095
loop_
_atom_site_label
_atom_site_type_symbol
_atom_site_fract_x
_atom_site_fract_y
_atom_site_fract_z
Zn1	Zn	1.247779	-0.021278	-0.195078
Zn2	Zn	1.747779	0.478722	0.304922
Zn3	Zn	1.222013	-0.174069	-0.068085
Zn4	Zn	1.722013	0.325931	0.431915
Zn5	Zn	1.095112	-0.069452	-0.093721
Zn6	Zn	1.595112	0.430548	0.406279
Zn7	Zn	1.120754	-0.164321	-0.220668
Zn8	Zn	1.620754	0.335679	0.279332
O9	O	1.171414	-0.107280	-0.144388
O10	O	1.671414	0.392720	0.355612
O11	O	1.350630	-0.025465	-0.156795
O12	O	1.850630	0.474535	0.343205
O13	O	1.183665	-0.184432	0.034789
O14	O	1.683665	0.315568	0.534789
O15	O	1.115416	0.040585	-0.107186
O16	O	1.615416	0.540585	0.392814
O17	O	1.331700	-0.137720	-0.063493
O18	O	1.831700	0.362280	0.436507
O19	O	1.227579	0.075978	-0.181653
O20	O	1.727579	0.575978	0.318347
O21	O	1.090432	-0.107570	0.015954
O22	O	1.590432	0.392430	0.515954
O23	O	0.992245	-0.098118	-0.131999
O24	O	1.492245	0.401882	0.368001
O25	O	1.159118	-0.121106	-0.323548
O26	O	1.659118	0.378894	0.176452
O27	O	1.011084	-0.167818	-0.225266
O28	O	1.511084	0.332182	0.274734
O29	O	1.252443	-0.016013	-0.304748
O30	O	1.752443	0.483987	0.195252
O31	O	1.208529	-0.276423	-0.088306
O32	O	1.708529	0.223577	0.411694
O33	O	1.134134	-0.269261	-0.200408
O34	O	1.634134	0.230739	0.299592
C35	C	0.974110	-0.137138	-0.184192
C36	C	1.474110	0.362862	0.315808
C37	C	0.889706	-0.149925	-0.201238
C38	C	1.389706	0.350075	0.298762
C39	C	0.563039	-0.010125	-0.014897
C40	C	1.063039	0.489875	0.485103
C41	C	0.483731	-0.022153	-0.030925
C42	C	0.983731	0.477847	0.469075
C43	C	0.503368	-0.094900	-0.127877
C44	C	1.003368	0.405100	0.372123
C45	C	0.582680	-0.082875	-0.111860
C46	C	1.082680	0.417125	0.388140
C47	C	0.612509	-0.040488	-0.055369
C48	C	1.112509	0.459512	0.444631
C49	C	0.632150	-0.113237	-0.152331
C50	C	1.132150	0.386763	0.347669
C51	C	0.711455	-0.101217	-0.136313
C52	C	1.211455	0.398783	0.363687
C53	C	0.741290	-0.058833	-0.079822
C54	C	1.241290	0.441167	0.420178
C55	C	0.691814	-0.028467	-0.039350
C56	C	1.191814	0.471533	0.460650
C57	C	0.602319	-0.155629	-0.208818
C58	C	1.102319	0.344371	0.291182
C59	C	0.651789	-0.185992	-0.249290
C60	C	1.151789	0.314008	0.250710
C61	C	0.731096	-0.173966	-0.233275
C62	C	1.231096	0.326034	0.266725
C63	C	0.760931	-0.131583	-0.176785
C64	C	1.260931	0.368417	0.323215
C65	C	0.780572	-0.204333	-0.273747
C66	C	1.280572	0.295667	0.226253
C67	C	0.859877	-0.192312	-0.257729
C68	C	1.359877	0.307688	0.242271
C69	C	0.840236	-0.119562	-0.160766
C70	C	1.340236	0.380438	0.339234
C71	C	1.171342	-0.299709	-0.144364
C72	C	1.671342	0.200291	0.355636
C73	C	1.171386	-0.382015	-0.144366
C74	C	1.671386	0.117985	0.355634
C75	C	1.171497	-0.681075	-0.144415
C76	C	1.671497	-0.181075	0.355585
C77	C	1.218108	-0.654286	-0.073760
C78	C	1.718108	-0.154286	0.426240
C79	C	1.218342	-0.568602	-0.073871
C80	C	1.718342	-0.068602	0.426129
C81	C	1.171442	-0.532708	-0.144390
C82	C	1.671442	-0.032708	0.355610
C83	C	1.209323	-0.542195	-0.220066
C84	C	1.709323	-0.042195	0.279934
C85	C	1.209711	-0.627845	-0.219654
C86	C	1.709711	-0.127845	0.280346
C87	C	1.086988	-0.666422	-0.140120
C88	C	1.586988	-0.166422	0.359880
C89	C	1.087023	-0.581120	-0.138253
C90	C	1.587023	-0.081120	0.361747
C91	C	1.171410	-0.448856	-0.144381
C92	C	1.671410	0.051144	0.355619
C93	C	1.171531	-0.764925	-0.144430
C94	C	1.671531	-0.264925	0.355570
C95	C	1.369490	-0.077307	-0.104430
C96	C	1.869490	0.422693	0.395570
C97	C	1.453897	-0.064534	-0.087402
C98	C	1.953897	0.435466	0.412598
C99	C	1.211515	-0.062098	-0.342474
C100	C	1.711515	0.437902	0.157526
C101	C	1.228603	-0.042844	-0.426887
C102	C	1.728603	0.457156	0.073113
C103	C	1.171511	0.085907	-0.144424
C104	C	1.671511	0.585907	0.355576
C105	C	1.171552	0.168232	-0.144440
C106	C	1.671552	0.668232	0.355560
C107	C	1.041888	-0.253103	-0.753445
C108	C	1.541888	0.246897	-0.253445
C109	C	1.057961	-0.234999	-0.832760
C110	C	1.557961	0.265001	-0.332760
C111	C	1.155131	-0.125576	-0.813174
C112	C	1.655131	0.374424	-0.313174
C113	C	1.139064	-0.143668	-0.733856
C114	C	1.639064	0.356332	-0.233856
C115	C	1.082442	-0.207433	-0.703998
C116	C	1.582442	0.292567	-0.203998
C117	C	1.179618	-0.097998	-0.684410
C118	C	1.679618	0.402002	-0.184410
C119	C	1.163554	-0.116092	-0.605098
C120	C	1.663554	0.383908	-0.105098
C121	C	1.106936	-0.179855	-0.575233
C122	C	1.606936	0.320145	-0.075233
C123	C	1.066378	-0.225527	-0.624687
C124	C	1.566378	0.274473	-0.124687
C125	C	1.236244	-0.034237	-0.714269
C126	C	1.736244	0.465763	-0.214269
C127	C	1.276798	0.011433	-0.664822
C128	C	1.776798	0.511433	-0.164822
C129	C	1.260731	-0.006657	-0.585510
C130	C	1.760731	0.493343	-0.085510
C131	C	1.204113	-0.070420	-0.555645
C132	C	1.704113	0.429580	-0.055645
C133	C	1.301289	0.039015	-0.536057
C134	C	1.801289	0.539015	-0.036057
C135	C	1.285225	0.020921	-0.456745
C136	C	1.785225	0.520921	0.043255
C137	C	1.188049	-0.088514	-0.476333
C138	C	1.688049	0.411486	0.023667
C139	C	1.131514	-0.152227	0.052936
C140	C	1.631514	0.347773	0.552936
C141	C	1.114573	-0.171250	0.137378
C142	C	1.614573	0.328750	0.637378
H143	H	0.900157	-0.217035	-0.290685
H144	H	1.400157	0.282965	0.209315
Br145	Br	1.258050	-0.009684	-0.821906
Br146	Br	1.758050	0.490316	-0.321906
H147	H	1.270978	-0.507870	-0.226014
H148	H	1.770978	-0.007870	0.273986
H149	H	0.995762	-0.305012	-0.729137
H150	H	1.495762	0.194988	-0.229137
H151	H	1.055653	-0.704137	-0.086740
H152	H	1.555653	-0.204137	0.413260
Br153	Br	1.322132	-0.514181	-0.076473
Br154	Br	1.822132	-0.014181	0.423527
Br155	Br	1.039897	-0.573847	-0.045566
Br156	Br	1.539897	-0.073847	0.454434
Br157	Br	1.002915	-0.296987	-0.899866
Br158	Br	1.502915	0.203013	-0.399866
Br159	Br	1.353643	0.097966	-0.705351
Br160	Br	1.853643	0.597966	-0.205351
H161	H	0.805865	-0.049049	-0.066780
H162	H	1.305865	0.450951	0.433220
Br163	Br	0.462876	-0.152437	-0.204529
Br164	Br	0.962876	0.347563	0.295471
Br165	Br	1.340268	0.082897	-0.389633
Br166	Br	1.840268	0.582897	0.110367
H167	H	0.537744	-0.165415	-0.221858
H168	H	1.037744	0.334585	0.278142
H169	H	0.756272	-0.238851	-0.319737
H170	H	1.256272	0.261149	0.180263
Br171	Br	1.313470	-0.639631	-0.228857
Br172	Br	1.813470	-0.139631	0.271143
Br173	Br	1.155633	-0.501606	-0.309010
Br174	Br	1.655633	-0.001606	0.190990
Br175	Br	1.378141	0.125541	-0.576586
Br176	Br	1.878141	0.625541	-0.076586
H177	H	1.192767	-0.563216	-0.017252
H178	H	1.692767	-0.063216	0.482748
Br179	Br	0.732305	0.029068	0.037310
Br180	Br	1.232305	0.529068	0.537310
Br181	Br	0.880727	-0.062027	-0.084106
Br182	Br	1.380727	0.437973	0.415894
H183	H	1.192662	-0.690521	-0.016929
H184	H	1.692662	-0.190521	0.483071
Br185	Br	1.023836	-0.541989	-0.219913
Br186	Br	1.523836	-0.041989	0.280087
Br187	Br	1.321305	-0.670032	-0.076203
Br188	Br	1.821305	-0.170032	0.423797
H189	H	1.178132	-0.644408	-0.273234
H190	H	1.678132	-0.144408	0.226766
H191	H	0.587330	0.024404	0.031092
H192	H	1.087330	0.524404	0.531092
Br193	Br	0.611297	-0.243529	-0.325942
Br194	Br	1.111297	0.256471	0.174058
Br195	Br	1.111195	-0.175046	-0.435806
Br196	Br	1.611195	0.324954	0.064194
Br197	Br	0.416591	0.019049	0.024015
Br198	Br	0.916591	0.519049	0.524015
H199	H	1.052059	-0.683524	-0.191779
H200	H	1.552059	-0.183524	0.308221
H201	H	1.093861	-0.194589	-0.510652
H202	H	1.593861	0.305411	-0.010652
H203	H	1.020252	-0.277436	-0.600379
H204	H	1.520252	0.222564	-0.100379
H205	H	1.201235	-0.073660	-0.837496
H206	H	1.701235	0.426340	-0.337496
