data_functionalizedCrystal
_audit_creation_method	'MofGen! by Chris Wilmer'
_symmetry_space_group_name_H-M	'P1'
_symmetry_Int_Tables_number	1
_symmetry_cell_setting	triclinic
loop_
_symmetry_equiv_pos_as_xyz
  x,y,z
_cell_length_a	14.971486
_cell_length_b	11.792241
_cell_length_c	13.448316
_cell_angle_alpha	89.993264
_cell_angle_beta	89.998199
_cell_angle_gamma	83.903772
loop_
_atom_site_label
_atom_site_type_symbol
_atom_site_fract_x
_atom_site_fract_y
_atom_site_fract_z
O1	O	1.187540	0.147909	-0.082578
O2	O	0.927211	0.165622	-0.082605
O3	O	1.063693	-0.008446	-0.082584
O4	O	1.051058	0.321977	-0.082599
O5	O	1.063676	-0.008456	0.082800
O6	O	0.927194	0.165611	0.082779
O7	O	1.187523	0.147899	0.082806
Cu8	Cu	1.057357	0.156754	0.097893
Cu9	Cu	1.057377	0.156767	-0.097692
O10	O	1.051041	0.321966	0.082785
C11	C	0.893874	0.164824	0.000084
C12	C	0.794568	0.162451	0.000073
C13	C	1.062891	-0.050737	0.000108
C14	C	1.060515	-0.176735	0.000107
C15	C	0.737752	0.264710	0.000070
C16	C	0.644444	0.262473	0.000085
C17	C	0.607953	0.157975	0.000096
C18	C	0.664776	0.055707	0.000102
C19	C	0.758082	0.057946	0.000095
C20	C	0.470294	0.051049	0.000116
C21	C	0.376981	0.048810	0.000122
C22	C	0.356656	0.255577	0.000107
C23	C	0.449963	0.257815	0.000099
C24	C	0.506779	0.155547	0.000103
C25	C	1.056147	-0.407419	0.000089
C26	C	1.058574	-0.279050	0.000099
C27	C	1.220859	0.148696	0.000115
C28	C	1.320166	0.151070	0.000119
C29	C	1.051843	0.364257	0.000091
C30	C	1.054218	0.490256	0.000086
N31	N	1.057349	0.156744	0.235458
N32	N	1.057392	0.156767	-0.235257
C33	C	1.117802	0.079699	0.287507
C34	C	1.117808	0.079698	0.391611
C35	C	1.057363	0.156749	0.443662
C36	C	0.996904	0.233798	0.391605
C37	C	0.996895	0.233792	0.287504
C38	C	0.996929	0.233805	0.608585
C39	C	0.996939	0.233813	0.712694
C40	C	1.117842	0.079711	0.712692
C41	C	1.117832	0.079706	0.608591
C42	C	1.057374	0.156756	0.556541
H43	H	0.767455	0.349805	0.000060
N44	N	0.816134	-0.046500	0.000084
N45	N	0.899441	-0.044488	0.000076
H46	H	0.940441	-0.118256	0.000071
H47	H	0.947666	0.296529	0.245126
H48	H	1.167069	0.016974	0.755077
N49	N	0.627519	-0.051046	0.000125
N50	N	0.644750	-0.120019	0.069843
H51	H	0.618440	-0.195418	0.069858
N52	N	0.935182	0.312511	0.765850
N53	N	0.881195	0.381285	0.719368
H54	H	0.837573	0.436862	0.756909
N55	N	0.339719	-0.057940	0.000136
N56	N	0.390455	-0.149241	0.000150
H57	H	0.364140	-0.224636	0.000161
N58	N	0.586421	0.366940	0.000087
N59	N	0.619013	0.460234	0.000073
H60	H	0.578036	0.534020	0.000075
N61	N	0.487224	0.364565	0.000073
N62	N	0.436489	0.455866	0.000066
H63	H	0.462804	0.531261	0.000048
H64	H	1.167026	0.016960	0.245134
H65	H	1.167032	0.016961	0.433989
H66	H	1.167055	0.016971	0.566210
H67	H	0.310391	0.338847	0.000108
H68	H	0.516553	-0.032229	0.000121
H69	H	0.947693	0.296545	0.566210
N70	N	0.935148	0.312485	0.444774
N71	N	0.879464	0.276353	0.502876
H72	H	0.835847	0.331928	0.540426
