data_functionalizedCrystal
_audit_creation_method	'MofGen! by Chris Wilmer'
_symmetry_space_group_name_H-M	'P1'
_symmetry_Int_Tables_number	1
_symmetry_cell_setting	triclinic
loop_
_symmetry_equiv_pos_as_xyz
  x,y,z
_cell_length_a	17.038272
_cell_length_b	17.019294
_cell_length_c	15.186229
_cell_angle_alpha	86.117288
_cell_angle_beta	90.002277
_cell_angle_gamma	87.244363
loop_
_atom_site_label
_atom_site_type_symbol
_atom_site_fract_x
_atom_site_fract_y
_atom_site_fract_z
O1	O	1.037219	0.171285	-0.086105
O2	O	1.537219	0.671285	0.413895
O3	O	0.809591	0.168566	-0.085924
O4	O	1.309591	0.668566	0.414076
O5	O	0.929755	0.055519	-0.077334
O6	O	1.429755	0.555519	0.422666
O7	O	0.917055	0.284332	-0.094695
O8	O	1.417055	0.784332	0.405305
O9	O	0.929747	0.055517	0.069123
O10	O	1.429747	0.555517	0.569123
O11	O	0.809583	0.168563	0.060533
O12	O	1.309583	0.668563	0.560533
O13	O	1.037211	0.171283	0.060353
O14	O	1.537211	0.671283	0.560353
Zn15	Zn	0.923396	0.169923	0.083696
Zn16	Zn	1.423396	0.669923	0.583696
Zn17	Zn	0.923406	0.169926	-0.109268
Zn18	Zn	1.423406	0.669926	0.390732
O19	O	0.917047	0.284330	0.051763
O20	O	1.417047	0.784330	0.551763
C21	C	0.780460	0.166091	-0.012511
C22	C	1.280460	0.666091	0.487489
C23	C	0.693674	0.158710	-0.011962
C24	C	1.193674	0.658710	0.488038
C25	C	0.643502	0.226471	-0.017102
C26	C	1.143502	0.726471	0.482898
C27	C	0.561957	0.219531	-0.016563
C28	C	1.061957	0.719531	0.483437
C29	C	0.530586	0.144831	-0.010891
C30	C	1.030586	0.644831	0.489109
C31	C	0.580765	0.077066	-0.005747
C32	C	1.080765	0.577066	0.494253
C33	C	0.662308	0.084006	-0.006280
C34	C	1.162308	0.584006	0.493720
C35	C	0.284849	0.120313	-0.009007
C36	C	0.784849	0.620313	0.490993
C37	C	0.203300	0.113378	-0.008477
C38	C	0.703300	0.613378	0.491523
C39	C	0.184498	0.255844	-0.019292
C40	C	0.684498	0.755844	0.480708
C41	C	0.266043	0.262778	-0.019829
C42	C	0.766043	0.762778	0.480171
C43	C	0.316215	0.195013	-0.014681
C44	C	0.816215	0.695013	0.485319
C45	C	0.447235	0.137736	-0.010343
C46	C	0.947235	0.637736	0.489657
C47	C	0.399564	0.202108	-0.015223
C48	C	0.899564	0.702108	0.484777
C49	C	0.929269	0.026096	-0.001875
C50	C	1.429269	0.526096	0.498125
C51	C	0.927825	-0.061571	0.004770
C52	C	1.427825	0.438429	0.504770
C53	C	0.927152	-0.102751	-0.071942
C54	C	1.427152	0.397249	0.428058
C55	C	0.925790	-0.185124	-0.065695
C56	C	1.425790	0.314876	0.434305
C57	C	0.925106	-0.226315	0.017264
C58	C	1.425106	0.273685	0.517264
C59	C	0.925776	-0.185128	0.093981
C60	C	1.425776	0.314872	0.593981
C61	C	0.927133	-0.102757	0.087733
C62	C	1.427133	0.397243	0.587733
C63	C	0.921004	-0.475023	0.040121
C64	C	1.421004	0.024977	0.540121
C65	C	0.919649	-0.557400	0.046362
C66	C	1.419649	-0.057400	0.546362
C67	C	0.919662	-0.557390	-0.113314
C68	C	1.419662	-0.057390	0.386686
C69	C	0.921023	-0.475017	-0.119554
C70	C	1.421023	0.024983	0.380446
C71	C	0.921689	-0.433838	-0.042837
C72	C	1.421689	0.066162	0.457163
C73	C	0.923716	-0.310513	0.023651
C74	C	1.423716	0.189487	0.523651
C75	C	0.923074	-0.349641	-0.049225
C76	C	1.423074	0.150359	0.450775
C77	C	1.066341	0.173758	-0.013062
C78	C	1.566341	0.673758	0.486938
C79	C	1.153128	0.181138	-0.013618
C80	C	1.653128	0.681138	0.486382
C81	C	0.917532	0.313752	-0.023698
C82	C	1.417532	0.813752	0.476302
C83	C	0.918977	0.401420	-0.030349
C84	C	1.418977	0.901420	0.469651
N85	N	0.923394	0.169921	0.215389
N86	N	1.423394	0.669921	0.715389
N87	N	0.923414	0.169922	-0.240960
N88	N	1.423414	0.669922	0.259040
C89	C	0.976621	0.119883	0.444914
C90	C	1.476621	0.619883	0.944914
C91	C	0.976623	0.119881	0.537104
C92	C	1.476623	0.619881	1.037104
C93	C	0.870181	0.219962	0.529508
C94	C	1.370181	0.719962	1.029508
C95	C	0.870176	0.219959	0.437320
C96	C	1.370176	0.719959	0.937320
C97	C	0.923400	0.169921	0.395026
C98	C	1.423400	0.669921	0.895026
C99	C	0.923408	0.169922	0.579403
C100	C	1.423408	0.669922	1.079403
C101	C	0.923410	0.169921	0.679359
C102	C	1.423410	0.669921	1.179359
C103	C	0.923397	0.169921	0.295063
C104	C	1.423397	0.669921	0.795063
H105	H	0.291579	0.323607	-0.024459
H106	H	0.791579	0.823607	0.475541
H107	H	0.421684	0.076915	-0.005699
H108	H	0.921684	0.576915	0.494301
N109	N	0.927897	-0.058327	-0.161420
N110	N	1.427897	0.441673	0.338580
H111	H	0.927263	-0.096917	-0.209067
H112	H	1.427263	0.403083	0.290933
H113	H	0.880020	-0.021007	-0.167735
H114	H	1.380020	0.478993	0.332265
H115	H	0.826833	0.260706	0.396698
H116	H	1.326833	0.760706	0.896698
N117	N	0.169462	0.032805	-0.002364
N118	N	0.669462	0.532805	0.497636
H119	H	0.213618	-0.009072	0.000817
H120	H	0.713618	0.490928	0.500817
H121	H	0.136038	0.026826	0.052382
H122	H	0.636038	0.526826	0.552382
H123	H	0.143640	0.311015	-0.023481
H124	H	0.643640	0.811015	0.476519
H125	H	0.919088	-0.590935	0.113921
H126	H	1.419088	-0.090935	0.613921
N127	N	1.034038	0.065923	0.590909
N128	N	1.534038	0.565923	1.090909
H129	H	1.025110	0.009328	0.579162
H130	H	1.525110	0.509328	1.079162
H131	H	1.089479	0.078843	0.573855
H132	H	1.589479	0.578843	1.073855
N133	N	0.507809	0.292592	-0.022092
N134	N	1.007809	0.792592	0.477908
H135	H	0.473576	0.292857	0.032191
H136	H	0.973576	0.792857	0.532191
H137	H	0.540077	0.340949	-0.025798
H138	H	1.040077	0.840949	0.474202
N139	N	0.925177	-0.229548	-0.148433
N140	N	1.425177	0.270452	0.351567
H141	H	0.925859	-0.190958	-0.201934
H142	H	1.425859	0.309042	0.298066
H143	H	0.973093	-0.266825	-0.148985
H144	H	1.473093	0.233175	0.351015
N145	N	0.812778	0.273930	0.575126
N146	N	1.312778	0.773930	1.075126
H147	H	0.820857	0.266342	0.641097
H148	H	1.320857	0.766342	1.141097
H149	H	0.821743	0.330498	0.554716
H150	H	1.321743	0.830498	1.054716
N151	N	0.338956	0.047227	-0.003449
N152	N	0.838956	0.547227	0.496551
H153	H	0.306707	-0.001146	0.000224
H154	H	0.806707	0.498854	0.500224
H155	H	0.373199	0.046996	-0.057723
H156	H	0.873199	0.546996	0.442277
H157	H	0.923161	-0.344060	0.091196
H158	H	1.423161	0.155940	0.591196
N159	N	0.921733	-0.430618	0.122865
N160	N	1.421733	0.069382	0.622865
H161	H	0.970735	-0.399584	0.124074
H162	H	1.470735	0.100416	0.624074
H163	H	0.873822	-0.393344	0.123544
H164	H	1.373822	0.106656	0.623544
H165	H	0.555216	0.016243	-0.001116
H166	H	1.055216	0.516243	0.498884
H167	H	0.703158	0.028828	-0.002094
H168	H	1.203158	0.528828	0.497906
N169	N	0.433403	0.282672	-0.021347
N170	N	0.933403	0.782672	0.478653
H171	H	0.415100	0.312602	-0.077913
H172	H	0.915100	0.812602	0.422087
H173	H	0.415103	0.312551	0.030711
H174	H	0.915103	0.812551	0.530711
H175	H	0.921582	-0.441485	-0.187108
H176	H	1.421582	0.058515	0.312892
H177	H	0.669037	0.287300	-0.021722
H178	H	1.169037	0.787300	0.478278
N179	N	0.918944	-0.601804	-0.196055
N180	N	1.418944	-0.101804	0.303945
H181	H	0.869943	-0.632837	-0.197274
H182	H	1.369943	-0.132837	0.302726
H183	H	0.919615	-0.563160	-0.249507
H184	H	1.419615	-0.063160	0.250493
H185	H	1.019958	0.079138	0.410480
H186	H	1.519958	0.579138	0.910480
N187	N	0.925044	-0.229553	0.183459
N188	N	1.425044	0.270447	0.683459
H189	H	0.973719	-0.218355	0.217514
H190	H	1.473719	0.281645	0.717514
H191	H	0.876807	-0.212059	0.216962
H192	H	1.376807	0.287941	0.716962
H193	H	0.927669	-0.069228	0.150200
H194	H	1.427669	0.430772	0.650200
H195	H	0.923626	-0.316099	-0.116770
H196	H	1.423626	0.183901	0.383230
