data_functionalizedCrystal
_audit_creation_method	'MofGen! by Chris Wilmer'
_symmetry_space_group_name_H-M	'P1'
_symmetry_Int_Tables_number	1
_symmetry_cell_setting	triclinic
loop_
_symmetry_equiv_pos_as_xyz
  x,y,z
_cell_length_a	10.723023
_cell_length_b	10.723024
_cell_length_c	16.053802
_cell_angle_alpha	92.591250
_cell_angle_beta	87.394764
_cell_angle_gamma	84.467709
loop_
_atom_site_label
_atom_site_type_symbol
_atom_site_fract_x
_atom_site_fract_y
_atom_site_fract_z
O1	O	1.662408	0.169814	-0.069418
O2	O	1.299256	0.186568	-0.069422
O3	O	1.489208	-0.003385	-0.069417
O4	O	1.472455	0.359767	-0.069423
O5	O	1.478752	0.007027	0.069442
O6	O	1.288800	0.196980	0.069437
O7	O	1.651952	0.180226	0.069440
Zn8	Zn	1.468716	0.190257	0.091485
Zn9	Zn	1.482492	0.176538	-0.091467
O10	O	1.461999	0.370179	0.069435
C11	C	1.247528	0.190555	0.000007
C12	C	1.108974	0.186908	0.000006
C13	C	1.482761	-0.044678	0.000011
C14	C	1.479114	-0.183233	0.000008
C15	C	0.909423	0.176119	-0.071927
C16	C	1.052626	0.179888	-0.071927
C17	C	1.365807	-0.374990	0.000003
C18	C	1.369574	-0.231786	0.000006
C19	C	1.703680	0.176239	0.000009
C20	C	1.842234	0.179886	0.000005
C21	C	1.468447	0.411473	0.000005
C22	C	1.472095	0.550027	0.000003
N23	N	1.459323	0.199618	0.216345
N24	N	1.491894	0.167167	-0.216327
C25	C	1.540178	0.118822	0.260041
C26	C	1.533620	0.125383	0.347448
C27	C	1.446211	0.212746	0.391157
C28	C	1.365347	0.293546	0.347455
C29	C	1.371901	0.286978	0.260050
C30	C	1.417584	0.241399	0.652566
C31	C	1.411039	0.247963	0.739977
C32	C	1.579311	0.079797	0.739964
C33	C	1.585862	0.073243	0.652557
C34	C	1.504993	0.154038	0.608863
N35	N	1.439508	0.219457	0.480501
N36	N	1.511692	0.147320	0.519521
H37	H	0.860929	0.170094	-0.133511
C38	C	1.328643	0.330281	0.604513
H39	H	1.275661	0.383259	0.643065
H40	H	1.278867	0.282360	0.570428
H41	H	1.376538	0.380082	0.570406
H42	H	1.051221	0.190135	0.061593
C43	C	1.668248	-0.009083	0.788026
H44	H	1.721247	-0.062049	0.749475
H45	H	1.620359	-0.058878	0.822133
H46	H	1.718028	0.038846	0.822110
H47	H	1.339857	0.319110	0.775561
C48	C	0.907730	0.187997	0.083205
H49	H	0.847009	0.189859	0.128335
H50	H	0.949404	0.262205	0.086314
H51	H	0.967173	0.116905	0.086301
C52	C	1.130639	0.175543	-0.155127
H53	H	1.076708	0.170659	-0.200257
H54	H	1.190560	0.104006	-0.158232
H55	H	1.172762	0.249304	-0.158230
H56	H	1.272021	-0.416812	-0.000004
C57	C	1.269202	0.389646	0.395532
H58	H	1.276887	0.381997	0.453846
H59	H	1.186877	0.374260	0.381224
H60	H	1.284548	0.471982	0.381195
C61	C	1.246649	-0.144753	0.000002
H62	H	1.265308	-0.059923	-0.000002
H63	H	1.195751	-0.156686	0.048422
H64	H	1.203058	-0.163943	-0.048430
H65	H	1.306059	0.352770	0.224473
H66	H	1.570109	-0.247658	0.000012
C67	C	1.682003	-0.022865	0.604483
H68	H	1.729212	-0.070054	0.643026
H69	H	1.736887	0.019936	0.570373
H70	H	1.639217	-0.077787	0.570401
H71	H	1.611361	0.047687	0.224459
C72	C	1.598799	-0.393494	0.000005
H73	H	1.664995	-0.459108	-0.000001
H74	H	1.601145	-0.339643	0.048428
H75	H	1.608436	-0.346904	-0.048425
C76	C	1.622572	0.036519	0.395510
H77	H	1.675581	-0.016438	0.356960
H78	H	1.574698	-0.013286	0.429620
H79	H	1.672341	0.084465	0.429592
