data_functionalizedCrystal
_audit_creation_method	'MofGen! by Chris Wilmer'
_symmetry_space_group_name_H-M	'P1'
_symmetry_Int_Tables_number	1
_symmetry_cell_setting	triclinic
loop_
_symmetry_equiv_pos_as_xyz
  x,y,z
_cell_length_a	17.699083
_cell_length_b	27.732048
_cell_length_c	16.176319
_cell_angle_alpha	89.988239
_cell_angle_beta	89.998611
_cell_angle_gamma	82.962835
loop_
_atom_site_label
_atom_site_type_symbol
_atom_site_fract_x
_atom_site_fract_y
_atom_site_fract_z
O1	O	1.003540	0.061127	-0.068640
O2	O	1.336873	0.394460	0.264694
O3	O	1.670207	0.727794	0.598027
O4	O	0.783091	0.069080	-0.068668
O5	O	1.116425	0.402413	0.264665
O6	O	1.449758	0.735746	0.597999
O7	O	0.900162	-0.005269	-0.068637
O8	O	1.233496	0.328065	0.264696
O9	O	1.566829	0.661398	0.598029
O10	O	0.886469	0.135475	-0.068670
O11	O	1.219802	0.468809	0.264663
O12	O	1.553136	0.802142	0.597996
O13	O	0.900146	-0.005273	0.068856
O14	O	1.233480	0.328060	0.402189
O15	O	1.566813	0.661393	0.735523
O16	O	0.783075	0.069075	0.068825
O17	O	1.116409	0.402408	0.402159
O18	O	1.449742	0.735742	0.735492
O19	O	1.003524	0.061122	0.068853
O20	O	1.336857	0.394456	0.402187
O21	O	1.670191	0.727789	0.735520
Cu22	Cu	0.893298	0.065098	0.081394
Cu23	Cu	1.226632	0.398432	0.414727
Cu24	Cu	1.559965	0.731765	0.748060
Cu25	Cu	0.893317	0.065104	-0.081208
Cu26	Cu	1.226650	0.398437	0.252125
Cu27	Cu	1.559984	0.731770	0.585459
O28	O	0.886453	0.135471	0.068823
O29	O	1.219786	0.468804	0.402156
O30	O	1.553120	0.802137	0.735489
C31	C	0.754889	0.068792	0.000075
C32	C	1.088222	0.402126	0.333409
C33	C	1.421556	0.735459	0.666742
C34	C	0.670878	0.067938	0.000065
C35	C	1.004212	0.401271	0.333398
C36	C	1.337545	0.734604	0.666732
C37	C	0.621873	0.111579	0.000055
C38	C	0.955206	0.444912	0.333388
C39	C	1.288539	0.778245	0.666722
C40	C	0.542936	0.110772	0.000066
C41	C	0.876270	0.444106	0.333399
C42	C	1.209603	0.777439	0.666733
C43	C	0.513007	0.066325	0.000081
C44	C	0.846341	0.399658	0.333414
C45	C	1.179674	0.732991	0.666748
C46	C	0.562019	0.022680	0.000094
C47	C	0.895353	0.356014	0.333427
C48	C	1.228686	0.689347	0.666760
C49	C	0.640954	0.023487	0.000089
C50	C	0.974287	0.356820	0.333422
C51	C	1.307621	0.690154	0.666755
C52	C	0.243685	0.019426	0.000115
C53	C	0.577018	0.352760	0.333448
C54	C	0.910352	0.686093	0.666781
C55	C	0.164744	0.018623	0.000117
C56	C	0.498078	0.351956	0.333451
C57	C	0.831411	0.685290	0.666784
C58	C	0.145667	0.106712	0.000092
C59	C	0.479001	0.440045	0.333425
C60	C	0.812334	0.773378	0.666759
C61	C	0.224602	0.107518	0.000087
C62	C	0.557935	0.440852	0.333421
C63	C	0.891269	0.774185	0.666754
C64	C	0.273607	0.063874	0.000104
C65	C	0.606940	0.397208	0.333437
C66	C	0.940274	0.730541	0.666771
C67	C	0.359199	0.064749	0.000094
C68	C	0.692532	0.398082	0.333427
C69	C	1.025865	0.731416	0.666760
C70	C	0.427418	0.065450	0.000085
C71	C	0.760751	0.398783	0.333419
C72	C	1.094084	0.732116	0.666752
C73	C	0.899867	-0.023279	0.000112
C74	C	1.233200	0.310054	0.333445
C75	C	1.566534	0.643388	0.666778
C76	C	0.899001	-0.076937	0.000118
C77	C	1.232335	0.256396	0.333452
C78	C	1.565668	0.589730	0.666785
C79	C	0.962734	-0.415523	0.000084
C80	C	1.296067	-0.082190	0.333417
C81	C	1.629400	0.251144	0.666751
C82	C	0.959522	-0.617194	0.000072
C83	C	1.292856	-0.283861	0.333405
C84	C	1.626189	0.049473	0.666739
O85	O	1.017801	-0.648240	0.000043
O86	O	1.351134	-0.314907	0.333377
O87	O	1.684468	0.018426	0.666710
N88	N	0.890104	-0.636567	0.000064
N89	N	1.223437	-0.303234	0.333397
N90	N	1.556771	0.030099	0.666731
C91	C	0.821484	-0.605520	0.000053
C92	C	1.154817	-0.272186	0.333387
C93	C	1.488150	0.061147	0.666720
O94	O	0.762366	-0.626625	0.000038
O95	O	1.095699	-0.293292	0.333371
O96	O	1.429032	0.040041	0.666704
C97	C	0.824696	-0.403849	0.000059
C98	C	1.158029	-0.070516	0.333393
C99	C	1.491363	0.262817	0.666726
C100	C	0.894119	-0.384479	0.000076
C101	C	1.227452	-0.051146	0.333409
C102	C	1.560785	0.282188	0.666743
C103	C	1.032151	-0.396152	0.000100
C104	C	1.365484	-0.062819	0.333433
C105	C	1.698817	0.270515	0.666766
C106	C	1.032953	-0.345737	0.000107
C107	C	1.366286	-0.012404	0.333440
C108	C	1.699619	0.320929	0.666774
C109	C	0.964338	-0.314693	0.000099
C110	C	1.297671	0.018640	0.333432
C111	C	1.631004	0.351973	0.666766
C112	C	0.894921	-0.334064	0.000083
C113	C	1.228254	-0.000731	0.333417
C114	C	1.561587	0.332602	0.666750
C115	C	0.756076	-0.372802	0.000043
C116	C	1.089410	-0.039469	0.333376
C117	C	1.422743	0.293864	0.666710
C118	C	0.756886	-0.322382	0.000042
C119	C	1.090219	0.010951	0.333376
C120	C	1.423552	0.344284	0.666709
C121	C	0.826308	-0.303012	0.000059
C122	C	1.159642	0.030321	0.333392
C123	C	1.492975	0.363655	0.666726
C124	C	0.827108	-0.252605	0.000083
C125	C	1.160441	0.080728	0.333416
C126	C	1.493775	0.414061	0.666749
N127	N	0.896526	-0.233232	0.000091
N128	N	1.229859	0.100101	0.333424
N129	N	1.563193	0.433435	0.666758
C130	C	0.965141	-0.264276	0.000099
C131	C	1.298474	0.069057	0.333432
C132	C	1.631808	0.402391	0.666766
C133	C	0.819802	-0.711400	0.000052
C134	C	1.153136	-0.378066	0.333385
C135	C	1.486469	-0.044733	0.666719
C136	C	0.818999	-0.761817	0.000052
C137	C	1.152332	-0.428484	0.333385
C138	C	1.485666	-0.095150	0.666719
C139	C	0.957038	-0.773488	0.000069
C140	C	1.290371	-0.440155	0.333402
C141	C	1.623704	-0.106821	0.666736
C142	C	0.957840	-0.723070	0.000075
C143	C	1.291174	-0.389736	0.333408
C144	C	1.624507	-0.056403	0.666742
C145	C	0.889220	-0.692026	0.000060
C146	C	1.222554	-0.358693	0.333393
C147	C	1.555887	-0.025360	0.666727
C148	C	0.966820	-0.158401	0.000115
C149	C	1.300154	0.174933	0.333449
C150	C	1.633487	0.508266	0.666782
C151	C	0.967616	-0.107981	0.000126
C152	C	1.300950	0.225352	0.333460
C153	C	1.634283	0.558686	0.666793
C154	C	0.829578	-0.096314	0.000105
C155	C	1.162911	0.237019	0.333438
C156	C	1.496245	0.570352	0.666772
C157	C	0.828781	-0.146730	0.000098
C158	C	1.162115	0.186604	0.333432
C159	C	1.495448	0.519937	0.666765
C160	C	0.897409	-0.177772	0.000101
C161	C	1.230742	0.155561	0.333434
C162	C	1.564076	0.488894	0.666767
O163	O	0.768860	-0.221531	0.000102
O164	O	1.102194	0.111802	0.333436
O165	O	1.435527	0.445136	0.666769
O166	O	1.024251	-0.243161	0.000096
O167	O	1.357584	0.090172	0.333430
O168	O	1.690917	0.423506	0.666763
C169	C	0.961931	-0.465938	0.000077
C170	C	1.295265	-0.132604	0.333410
C171	C	1.628598	0.200729	0.666743
C172	C	0.892514	-0.485309	0.000061
C173	C	1.225848	-0.151975	0.333394
C174	C	1.559181	0.181358	0.666728
C175	C	0.823899	-0.454265	0.000053
C176	C	1.157233	-0.120931	0.333386
C177	C	1.490566	0.212402	0.666720
C178	C	0.891711	-0.535726	0.000061
C179	C	1.225045	-0.202393	0.333394
C180	C	1.558378	0.130941	0.666728
C181	C	0.960326	-0.566770	0.000069
C182	C	1.293659	-0.233437	0.333402
C183	C	1.626993	0.099897	0.666736
C184	C	1.029744	-0.547397	0.000077
C185	C	1.363078	-0.214063	0.333410
C186	C	1.696411	0.119270	0.666744
C187	C	1.030546	-0.496982	0.000085
C188	C	1.363880	-0.163648	0.333418
C189	C	1.697213	0.169685	0.666751
C190	C	0.754481	-0.473638	0.000045
C191	C	1.087815	-0.140305	0.333378
C192	C	1.421148	0.193029	0.666711
C193	C	0.753685	-0.524053	0.000038
C194	C	1.087018	-0.190720	0.333372
C195	C	1.420351	0.142613	0.666705
C196	C	0.822300	-0.555097	0.000046
C197	C	1.155633	-0.221764	0.333380
C198	C	1.488966	0.111569	0.666713
C199	C	1.031726	0.061410	0.000108
C200	C	1.365060	0.394743	0.333442
C201	C	1.698393	0.728076	0.666775
C202	C	1.115737	0.062264	0.000113
C203	C	1.449070	0.395598	0.333446
C204	C	1.782404	0.728931	0.666780
C205	C	0.886748	0.153481	0.000072
C206	C	1.220082	0.486814	0.333405
C207	C	1.553415	0.820148	0.666739
C208	C	0.887614	0.207139	0.000060
C209	C	1.220947	0.540472	0.333393
C210	C	1.554281	0.873806	0.666727
N211	N	0.893290	0.065094	0.195759
N212	N	1.226624	0.398427	0.529092
N213	N	1.559957	0.731761	0.862425
N214	N	0.893331	0.065104	-0.195573
N215	N	1.226664	0.398438	0.137760
N216	N	1.559998	0.731771	0.471093
C217	C	0.945145	0.032186	0.239037
C218	C	1.278478	0.365519	0.572370
C219	C	1.611811	0.698853	0.905703
C220	C	0.945149	0.032185	0.325584
C221	C	1.278482	0.365519	0.658917
C222	C	1.611815	0.698852	0.992250
C223	C	0.893301	0.065096	0.368851
C224	C	1.226635	0.398429	0.702185
C225	C	1.559968	0.731762	1.035518
C226	C	0.841441	0.098005	0.325568
C227	C	1.174775	0.431339	0.658901
C228	C	1.508108	0.764672	0.992234
C229	C	0.841434	0.098003	0.239022
C230	C	1.174768	0.431336	0.572355
C231	C	1.508101	0.764670	0.905689
C232	C	0.841467	0.098014	0.674596
C233	C	1.174800	0.431348	1.007929
C234	C	1.508134	0.764681	1.341262
C235	C	0.841479	0.098015	0.761147
C236	C	1.174813	0.431348	1.094481
C237	C	1.508146	0.764682	1.427814
C238	C	0.945181	0.032197	0.761157
C239	C	1.278515	0.365530	1.094491
C240	C	1.611848	0.698863	1.427824
C241	C	0.945174	0.032194	0.674612
C242	C	1.278508	0.365528	1.007945
C243	C	1.611841	0.698861	1.341279
C244	C	0.893312	0.065102	0.631336
C245	C	1.226646	0.398435	0.964669
C246	C	1.559979	0.731769	1.298002
C247	C	0.893308	0.065102	0.537491
C248	C	1.226641	0.398435	0.870825
C249	C	1.559975	0.731768	1.204158
C250	C	0.893309	0.065099	0.462694
C251	C	1.226642	0.398432	0.796027
C252	C	1.559975	0.731765	1.129361
H253	H	0.537645	-0.013510	0.000118
H254	H	0.870979	0.319824	0.333451
H255	H	1.204312	0.653157	0.666784
F256	F	1.000376	-0.002829	0.807221
F257	F	1.333709	0.330505	1.140555
F258	F	1.667043	0.663838	1.473888
F259	F	0.679790	-0.544663	0.000026
F260	F	1.013124	-0.211329	0.333359
F261	F	1.346457	0.122004	0.666693
F262	F	0.786293	0.133044	0.807195
F263	F	1.119626	0.466377	1.140528
F264	F	1.452960	0.799711	1.473861
F265	F	0.786274	0.133038	0.628545
F266	F	1.119608	0.466371	0.961878
F267	F	1.452941	0.799705	1.295211
F268	F	1.039861	-0.191432	0.000118
F269	F	1.373195	0.141902	0.333451
F270	F	1.706528	0.475235	0.666784
F271	F	0.693110	-0.022962	0.000102
F272	F	1.026443	0.310372	0.333436
F273	F	1.359777	0.643705	0.666769
H274	H	0.799222	0.124800	0.360801
H275	H	1.132556	0.458133	0.694134
H276	H	1.465889	0.791467	1.027468
F277	F	1.000333	-0.002840	0.192996
F278	F	1.333666	0.330493	0.526329
F279	F	1.666999	0.663826	0.859663
F280	F	1.000337	-0.002840	0.371643
F281	F	1.333670	0.330494	0.704977
F282	F	1.667003	0.663827	1.038310
H283	H	0.140380	-0.017574	0.000131
H284	H	0.473713	0.315760	0.333464
H285	H	0.807046	0.649093	0.666797
F286	F	0.653718	0.158887	0.000034
F287	F	0.987051	0.492220	0.333367
F288	F	1.320384	0.825553	0.666700
H289	H	0.701006	-0.297108	0.000029
H290	H	1.034339	0.036225	0.333362
H291	H	1.367672	0.369558	0.666696
F292	F	0.754895	-0.167346	0.000096
F293	F	1.088228	0.165988	0.333429
F294	F	1.421561	0.499321	0.666762
F295	F	0.746762	-0.678366	0.000036
F296	F	1.080096	-0.345033	0.333369
F297	F	1.413429	-0.011700	0.666702
F298	F	0.786242	0.133027	0.192964
F299	F	1.119575	0.466361	0.526297
F300	F	1.452908	0.799694	0.859630
H301	H	1.024151	-0.092213	0.000142
H302	H	1.357484	0.241121	0.333475
H303	H	1.690818	0.574454	0.666809
F304	F	0.490784	0.157221	0.000052
F305	F	0.824117	0.490555	0.333385
F306	F	1.157450	0.823888	0.666718
F307	F	0.256450	0.154825	0.000066
F308	F	0.589783	0.488159	0.333400
F309	F	0.923117	0.821492	0.666733
H310	H	0.699545	-0.388565	0.000024
H311	H	1.032878	-0.055231	0.333358
H312	H	1.366212	0.278102	0.666691
F313	F	1.106842	-0.325128	0.000107
F314	F	1.440176	0.008205	0.333440
F315	F	1.773509	0.341538	0.666773
H316	H	1.088028	-0.421424	0.000103
H317	H	1.421362	-0.088090	0.333436
H318	H	1.754695	0.245243	0.666770
F319	F	0.093506	0.153162	0.000077
F320	F	0.426840	0.486495	0.333411
F321	F	0.760173	0.819829	0.666744
F322	F	1.031728	-0.702459	0.000092
F323	F	1.365062	-0.369126	0.333426
F324	F	1.698395	-0.035793	0.666759
F325	F	1.030063	-0.806536	0.000076
F326	F	1.363397	-0.473203	0.333409
F327	F	1.696730	-0.139869	0.666743
H328	H	0.773714	-0.071029	0.000101
H329	H	1.107047	0.262304	0.333435
H330	H	1.440380	0.595637	0.666768
H331	H	0.987396	0.005397	0.639386
H332	H	1.320729	0.338731	0.972719
H333	H	1.654063	0.672064	1.306053
F334	F	0.295830	-0.027024	0.000133
F335	F	0.629163	0.306310	0.333466
F336	F	0.962497	0.639643	0.666799
H337	H	0.762468	-0.777584	0.000053
H338	H	1.095801	-0.444250	0.333386
H339	H	1.429135	-0.110917	0.666719
H340	H	1.087078	-0.481215	0.000098
H341	H	1.420411	-0.147882	0.333431
H342	H	1.753744	0.185451	0.666764
H343	H	1.085613	-0.572682	0.000087
H344	H	1.418946	-0.239348	0.333421
H345	H	1.752280	0.093985	0.666754
H346	H	0.698605	-0.448366	0.000036
H347	H	1.031939	-0.115033	0.333370
H348	H	1.365272	0.218300	0.666703
