data_functionalizedCrystal
_audit_creation_method	'MofGen! by Chris Wilmer'
_symmetry_space_group_name_H-M	'P1'
_symmetry_Int_Tables_number	1
_symmetry_cell_setting	triclinic
loop_
_symmetry_equiv_pos_as_xyz
  x,y,z
_cell_length_a	16.974829
_cell_length_b	12.503572
_cell_length_c	16.992695
_cell_angle_alpha	86.236993
_cell_angle_beta	87.025716
_cell_angle_gamma	97.160689
loop_
_atom_site_label
_atom_site_type_symbol
_atom_site_fract_x
_atom_site_fract_y
_atom_site_fract_z
O1	O	1.064159	0.181821	0.090716
O2	O	1.564159	0.681821	0.590716
O3	O	0.833799	0.161800	0.104456
O4	O	1.333799	0.661800	0.604456
O5	O	0.948055	0.171722	-0.016551
O6	O	1.448055	0.671722	0.483449
O7	O	0.949903	0.171899	0.211723
O8	O	1.449903	0.671899	0.711723
O9	O	0.939464	-0.007666	-0.007436
O10	O	1.439464	0.492334	0.492564
O11	O	0.825208	-0.017588	0.113571
O12	O	1.325208	0.482412	0.613571
O13	O	1.055568	0.002433	0.099832
O14	O	1.555568	0.502433	0.599832
Cu15	Cu	0.939603	-0.023957	0.107534
Cu16	Cu	1.439603	0.476043	0.607534
Cu17	Cu	0.949764	0.188190	0.096754
Cu18	Cu	1.449764	0.688190	0.596754
O19	O	0.941311	-0.007489	0.220839
O20	O	1.441311	0.492511	0.720839
C21	C	0.799891	0.069532	0.108659
C22	C	1.299891	0.569532	0.608659
C23	C	0.711656	0.061863	0.107595
C24	C	1.211656	0.561863	0.607595
C25	C	0.214480	0.008198	0.102161
C26	C	0.714480	0.508198	0.602161
C27	C	0.297386	0.015406	0.103162
C28	C	0.797386	0.515406	0.603162
C29	C	0.343523	0.116796	0.098687
C30	C	0.843523	0.616796	0.598687
C31	C	0.306750	0.210985	0.093220
C32	C	0.806750	0.710985	0.593220
C33	C	0.223844	0.203776	0.092225
C34	C	0.723844	0.703776	0.592225
C35	C	0.591977	0.148842	0.101133
C36	C	1.091977	0.648842	0.601133
C37	C	0.674888	0.156044	0.102126
C38	C	1.174888	0.656044	0.602126
C39	C	0.665518	-0.039535	0.112069
C40	C	1.165518	0.460465	0.612069
C41	C	0.582612	-0.046735	0.111069
C42	C	1.082612	0.453265	0.611069
C43	C	0.545845	0.047453	0.105606
C44	C	1.045845	0.547453	0.605606
N45	N	0.428268	0.124166	0.099707
N46	N	0.928268	0.624166	0.599707
N47	N	0.461102	0.040082	0.104592
N48	N	0.961102	0.540082	0.604592
N49	N	0.932462	-0.173169	0.115115
N50	N	1.432462	0.326831	0.615115
C51	C	0.921958	-0.393197	0.126275
C52	C	1.421958	0.106803	0.626275
C53	C	0.967412	-0.442577	0.078009
C54	C	1.467412	0.057423	0.578009
C55	C	0.961568	-0.565007	0.084218
C56	C	1.461568	-0.065007	0.584218
C57	C	0.927802	-0.270755	0.120067
C58	C	1.427802	0.229245	0.620067
C59	C	1.089476	0.094703	0.095628
C60	C	1.589476	0.594703	0.595628
C61	C	1.177711	0.102379	0.096692
C62	C	1.677711	0.602379	0.596692
C63	C	0.941384	0.081821	-0.041193
C64	C	1.441384	0.581821	0.458807
C65	C	0.934295	0.081206	-0.128198
C66	C	1.434295	0.581206	0.371802
N67	N	0.956911	0.337403	0.089166
N68	N	1.456911	0.837403	0.589166
C69	C	1.002694	0.087149	-0.178813
C70	C	1.502694	0.587149	0.321187
C71	C	0.996029	0.086580	-0.260563
C72	C	1.496029	0.586580	0.239437
C73	C	0.920963	0.080060	-0.291698
C74	C	1.420963	0.580060	0.208302
C75	C	0.852558	0.074119	-0.241077
C76	C	1.352558	0.574119	0.258923
C77	C	0.859225	0.074696	-0.159329
C78	C	1.359225	0.574696	0.340671
C79	C	0.893334	0.077673	-0.535145
C80	C	1.393334	0.577673	-0.035145
C81	C	0.886673	0.077093	-0.616900
C82	C	1.386673	0.577093	-0.116900
C83	C	1.030145	0.089557	-0.636381
C84	C	1.530145	0.589557	-0.136381
C85	C	1.036804	0.090127	-0.554629
C86	C	1.536804	0.590127	-0.054629
C87	C	0.968400	0.084192	-0.504016
C88	C	1.468400	0.584192	-0.004016
N89	N	0.914148	0.079474	-0.375260
N90	N	1.414148	0.579474	0.124740
N91	N	0.975215	0.084785	-0.420456
N92	N	1.475215	0.584785	0.079544
C93	C	0.947983	0.082414	0.245480
C94	C	1.447983	0.582414	0.745480
C95	C	0.955073	0.083037	0.332485
C96	C	1.455073	0.583037	0.832485
H97	H	1.010716	-0.392903	0.032025
H98	H	1.510716	0.107097	0.532025
N99	N	1.079368	0.093821	-0.147001
N100	N	1.579368	0.593821	0.352999
N101	N	1.085314	0.094338	-0.074011
N102	N	1.585314	0.594338	0.425989
H103	H	1.139467	0.099054	-0.051545
H104	H	1.639467	0.599054	0.448455
H105	H	0.878658	-0.442864	0.172257
H106	H	1.378658	0.057136	0.672257
N107	N	1.065888	0.092650	-0.312279
N108	N	1.565888	0.592650	0.187721
N109	N	1.081799	0.169334	-0.363909
N110	N	1.581799	0.669334	0.136091
H111	H	1.131138	0.173621	-0.400436
H112	H	1.631138	0.673621	0.099564
H113	H	0.344321	0.293539	0.089581
H114	H	0.844321	0.793539	0.589581
H115	H	1.097931	0.095436	-0.529286
H116	H	1.597931	0.595436	-0.029286
H117	H	0.562052	0.225537	0.096682
H118	H	1.062052	0.725537	0.596682
N119	N	1.100006	0.095617	-0.688092
N120	N	1.600006	0.595617	-0.188092
N121	N	1.094048	0.095099	-0.761080
N122	N	1.594048	0.595099	-0.261080
H123	H	1.143390	0.099381	-0.797602
H124	H	1.643390	0.599381	-0.297602
H125	H	0.695463	-0.116217	0.116518
H126	H	1.195463	0.383783	0.616518
N127	N	0.809983	0.070411	-0.648690
N128	N	1.309983	0.570411	-0.148690
N129	N	0.748914	0.065100	-0.603492
N130	N	1.248914	0.565100	-0.103492
H131	H	0.694753	0.060373	-0.625943
H132	H	1.194753	0.560373	-0.125943
N133	N	0.823455	0.071602	-0.483464
N134	N	1.323455	0.571602	0.016536
N135	N	0.756438	0.065772	-0.511275
N136	N	1.256438	0.565772	-0.011275
H137	H	0.707081	0.061481	-0.474772
H138	H	1.207081	0.561481	0.025228
N139	N	0.775886	0.067472	-0.272891
N140	N	1.275886	0.567472	0.227109
N141	N	0.769942	0.066957	-0.345882
N142	N	1.269942	0.566957	0.154118
H143	H	0.715791	0.062261	-0.368350
H144	H	1.215791	0.562261	0.131650
N145	N	0.789363	0.068609	-0.107613
N146	N	1.289363	0.568609	0.392387
N147	N	0.795324	0.069125	-0.034625
N148	N	1.295324	0.569125	0.465375
H149	H	0.745983	0.064829	0.001900
H150	H	1.245983	0.564829	0.501900
N151	N	0.167368	-0.095380	0.106725
N152	N	0.667368	0.404620	0.606725
N153	N	0.200211	-0.179461	0.111608
N154	N	0.700211	0.320539	0.611608
H155	H	0.166940	-0.252617	0.114833
H156	H	0.666940	0.247383	0.614833
N157	N	0.186296	0.299990	0.086642
N158	N	0.686296	0.799990	0.586642
N159	N	0.227497	0.390511	0.082648
N160	N	0.727497	0.890511	0.582648
H161	H	0.200980	0.458467	0.078707
H162	H	0.700980	0.958467	0.578707
H163	H	0.327319	-0.061286	0.107613
H164	H	0.827319	0.438714	0.607613
H165	H	0.545053	-0.129297	0.114696
H166	H	1.045053	0.370703	0.614696
H167	H	0.712451	0.238613	0.098488
H168	H	1.212451	0.738613	0.598488
