data_functionalizedCrystal
_audit_creation_method	'MofGen! by Chris Wilmer'
_symmetry_space_group_name_H-M	'P1'
_symmetry_Int_Tables_number	1
_symmetry_cell_setting	triclinic
loop_
_symmetry_equiv_pos_as_xyz
  x,y,z
_cell_length_a	6.817900
_cell_length_b	9.514072
_cell_length_c	9.514088
_cell_angle_alpha	83.785444
_cell_angle_beta	118.843545
_cell_angle_gamma	118.843421
loop_
_atom_site_label
_atom_site_type_symbol
_atom_site_fract_x
_atom_site_fract_y
_atom_site_fract_z
V1	V	-4.303761	-0.225059	-0.502017
O2	O	-4.198339	0.007885	-0.491166
O3	O	-4.337695	-0.443436	-0.499829
O4	O	-4.337705	-0.222882	-0.720396
O5	O	-4.198329	-0.214195	-0.269072
V6	V	-4.766051	-0.197044	-0.474004
O7	O	-4.611597	-0.286511	-0.563467
O8	O	-4.908413	-0.135592	-0.412554
O9	O	-4.508911	0.021333	-0.476192
O10	O	-4.988870	-0.429988	-0.484855
O11	O	-4.988881	-0.207908	-0.706949
O12	O	-4.508901	-0.199220	-0.255625
C13	C	-4.200061	-0.496631	-0.492231
C14	C	-4.309641	-0.675166	-0.491898
C15	C	-4.200071	-0.215291	-0.773584
C16	C	-4.309652	-0.214957	-0.952118
C17	C	-4.309889	0.074520	-0.483786
C18	C	-4.179551	0.253053	-0.484130
C19	C	-4.309876	-0.206816	-0.202429
C20	C	-4.179530	-0.207143	-0.023893
H21	H	-4.504903	-0.750312	-0.498349
H22	H	-3.984287	-0.671806	-0.477655
N23	N	-3.920927	-0.198636	-0.924387
H24	H	-3.876679	-0.200097	-0.806677
H25	H	-3.784922	-0.094942	-0.933862
H26	H	-4.504905	-0.221395	-1.027262
