data_functionalizedCrystal
_audit_creation_method	'MofGen! by Chris Wilmer'
_symmetry_space_group_name_H-M	'P1'
_symmetry_Int_Tables_number	1
_symmetry_cell_setting	triclinic
loop_
_symmetry_equiv_pos_as_xyz
  x,y,z
_cell_length_a	12.837943
_cell_length_b	12.837942
_cell_length_c	16.776229
_cell_angle_alpha	89.994225
_cell_angle_beta	89.994226
_cell_angle_gamma	94.828940
loop_
_atom_site_label
_atom_site_type_symbol
_atom_site_fract_x
_atom_site_fract_y
_atom_site_fract_z
O1	O	1.402340	0.272143	-0.066273
O2	O	1.902340	0.772143	0.433727
O3	O	1.099206	0.258700	-0.066278
O4	O	1.599206	0.758700	0.433722
O5	O	1.244051	0.113855	-0.066271
O6	O	1.744051	0.613855	0.433729
O7	O	1.257495	0.416988	-0.066280
O8	O	1.757495	0.916988	0.433720
O9	O	1.244029	0.113843	0.066306
O10	O	1.744029	0.613843	0.566306
O11	O	1.099184	0.258688	0.066299
O12	O	1.599184	0.758688	0.566299
O13	O	1.402317	0.272131	0.066303
O14	O	1.902317	0.772131	0.566303
Zn15	Zn	1.250747	0.265408	0.087350
Zn16	Zn	1.750747	0.765408	0.587350
Zn17	Zn	1.250777	0.265423	-0.087325
Zn18	Zn	1.750777	0.765423	0.412675
O19	O	1.257472	0.416976	0.066296
O20	O	1.757472	0.916976	0.566296
C21	C	1.060126	0.254153	0.000010
C22	C	1.560126	0.754153	0.500010
C23	C	0.943711	0.240608	0.000008
C24	C	1.443711	0.740608	0.500008
C25	C	0.718837	0.403437	0.000014
C26	C	1.218837	0.903437	0.500014
C27	C	0.609454	0.390716	0.000013
C28	C	1.109454	0.890716	0.500013
C29	C	0.615562	0.202445	0.000011
C30	C	1.115562	0.702445	0.500011
C31	C	0.724944	0.215166	0.000012
C32	C	1.224944	0.715166	0.500012
C33	C	0.776578	0.315666	0.000012
C34	C	1.276578	0.815666	0.500012
C35	C	0.885962	0.328386	0.000008
C36	C	1.385962	0.828386	0.500008
C37	C	0.892067	0.140116	0.000011
C38	C	1.392067	0.640116	0.500011
C39	C	0.782685	0.127395	0.000010
C40	C	1.282685	0.627395	0.500010
C41	C	1.239499	0.074780	0.000017
C42	C	1.739499	0.574780	0.500017
C43	C	1.225954	-0.041635	0.000015
C44	C	1.725954	0.458365	0.500015
C45	C	1.388784	-0.266510	0.000001
C46	C	1.888784	0.233490	0.500001
C47	C	1.376062	-0.375892	-0.000000
C48	C	1.876062	0.124108	0.500000
C49	C	1.187791	-0.369785	0.000005
C50	C	1.687791	0.130215	0.500005
C51	C	1.200513	-0.260402	0.000007
C52	C	1.700513	0.239598	0.500007
C53	C	1.301012	-0.208769	0.000006
C54	C	1.801012	0.291231	0.500006
C55	C	1.313732	-0.099384	0.000013
C56	C	1.813732	0.400616	0.500013
C57	C	1.125462	-0.093279	0.000013
C58	C	1.625462	0.406721	0.500013
C59	C	1.112741	-0.202661	0.000011
C60	C	1.612741	0.297339	0.500011
C61	C	1.441398	0.276679	0.000014
C62	C	1.941398	0.776679	0.500014
C63	C	1.557813	0.290223	0.000010
C64	C	2.057813	0.790223	0.500010
C65	C	1.262025	0.456051	0.000007
C66	C	1.762025	0.956051	0.500007
C67	C	1.275569	0.572467	0.000003
C68	C	1.775569	1.072467	0.500003
N69	N	1.250735	0.265397	0.206561
N70	N	1.750735	0.765397	0.706561
N71	N	1.250797	0.265427	-0.206536
N72	N	1.750797	0.765427	0.293464
C73	C	1.314897	0.201291	0.248282
C74	C	1.814897	0.701291	0.748282
C75	C	1.314902	0.201291	0.331734
C76	C	1.814902	0.701291	0.831734
C77	C	1.250751	0.265403	0.373464
C78	C	1.750751	0.765403	0.873464
C79	C	1.186582	0.329511	0.331738
C80	C	1.686582	0.829511	0.831738
C81	C	1.186571	0.329505	0.248288
C82	C	1.686571	0.829505	0.748288
C83	C	1.186622	0.329536	0.668285
C84	C	1.686622	0.829536	1.168285
C85	C	1.186639	0.329539	0.751742
C86	C	1.686639	0.829539	1.251742
C87	C	1.314953	0.201321	0.751732
C88	C	1.814953	0.701321	1.251732
C89	C	1.314942	0.201315	0.668281
C90	C	1.814942	0.701315	1.168281
C91	C	1.250769	0.265419	0.626562
C92	C	1.750769	0.765419	1.126562
C93	C	1.250763	0.265417	0.536074
C94	C	1.750763	0.765417	1.036074
C95	C	1.250763	0.265411	0.463951
C96	C	1.750763	0.765411	0.963951
H97	H	0.573502	0.120623	0.000076
H98	H	1.073502	0.620623	0.500076
O99	O	1.497171	-0.210807	-0.000001
O100	O	1.997171	0.289193	0.499999
H101	H	1.556070	-0.269336	-0.000008
H102	H	2.056070	0.230664	0.499992
H103	H	0.928000	0.410218	0.000009
H104	H	1.428000	0.910218	0.500009
H105	H	1.447536	-0.422901	-0.000007
H106	H	1.947536	0.077099	0.499993
H107	H	0.939092	0.068646	0.000004
H108	H	1.439092	0.568646	0.500004
O109	O	0.726994	0.019002	0.000009
O110	O	1.226994	0.519002	0.500009
H111	H	0.641232	0.024899	0.000006
H112	H	1.141232	0.524899	0.500006
O113	O	0.774539	0.511825	0.000016
O114	O	1.274539	1.011825	0.500016
H115	H	0.716010	0.570723	0.000021
H116	H	1.216010	1.070723	0.500021
H117	H	1.395564	-0.057346	0.000016
H118	H	1.895564	0.442654	0.500016
H119	H	0.562446	0.462189	0.000017
H120	H	1.062446	0.962189	0.500017
H121	H	1.134372	0.381734	0.634325
H122	H	1.634372	0.881734	1.134325
O123	O	1.079401	-0.425482	0.000012
O124	O	1.579401	0.074518	0.500012
H125	H	1.085307	-0.511243	0.000015
H126	H	1.585307	-0.011243	0.500015
H127	H	1.030917	-0.244717	0.000009
H128	H	1.530917	0.255283	0.500009
O129	O	1.030783	-0.031004	0.000015
O130	O	1.530783	0.468996	0.500015
H131	H	1.056509	0.053732	0.000012
H132	H	1.556509	0.553732	0.500012
H133	H	1.367141	0.149088	0.214310
H134	H	1.867141	0.649088	0.714310
O135	O	1.384126	0.132169	0.376735
O136	O	1.884126	0.632169	0.876735
H137	H	1.428749	0.087604	0.333698
H138	H	1.928749	0.587604	0.833698
H139	H	1.367184	0.149113	0.634307
H140	H	1.867184	0.649113	1.134307
H141	H	1.367203	0.149120	0.785708
H142	H	1.867203	0.649120	1.285708
H143	H	1.134396	0.381748	0.785718
H144	H	1.634396	0.881748	1.285718
H145	H	1.134343	0.381709	0.365720
H146	H	1.634343	0.881709	0.865720
O147	O	1.117374	0.398653	0.203283
O148	O	1.617374	0.898653	0.703283
H149	H	1.072775	0.443244	0.246319
H150	H	1.572775	0.943244	0.746319
