data_functionalizedCrystal
_audit_creation_method	'MofGen! by Chris Wilmer'
_symmetry_space_group_name_H-M	'P1'
_symmetry_Int_Tables_number	1
_symmetry_cell_setting	triclinic
loop_
_symmetry_equiv_pos_as_xyz
  x,y,z
_cell_length_a	19.805407
_cell_length_b	12.594516
_cell_length_c	19.805399
_cell_angle_alpha	89.979203
_cell_angle_beta	89.980427
_cell_angle_gamma	90.016053
loop_
_atom_site_label
_atom_site_type_symbol
_atom_site_fract_x
_atom_site_fract_y
_atom_site_fract_z
Zn1	Zn	1.034784	-0.423767	-0.382752
Zn2	Zn	1.034720	-0.601760	-0.269577
Zn3	Zn	0.921599	-0.423796	-0.269576
Zn4	Zn	0.921583	-0.601704	-0.382723
O5	O	0.978172	-0.512757	-0.326157
O6	O	1.129492	-0.447389	-0.367751
O7	O	1.019694	-0.578189	-0.174860
O8	O	0.936647	-0.274846	-0.284601
O9	O	1.129445	-0.578160	-0.284602
O10	O	1.019804	-0.274825	-0.367750
O11	O	0.936584	-0.447439	-0.174860
O12	O	0.826880	-0.447385	-0.284573
O13	O	0.936620	-0.578064	-0.477444
O14	O	0.826869	-0.578092	-0.367702
O15	O	1.019788	-0.447335	-0.477464
O16	O	1.019678	-0.750698	-0.284574
O17	O	0.936557	-0.750657	-0.367703
C18	C	0.802316	-0.512736	-0.326135
C19	C	0.727084	-0.512753	-0.326142
C20	C	0.691751	-0.580915	-0.369357
C21	C	0.621063	-0.580917	-0.369366
C22	C	0.585708	-0.512762	-0.326157
C23	C	0.621045	-0.444592	-0.282940
C24	C	0.691733	-0.444586	-0.282934
C25	C	0.335972	-0.444615	-0.282962
C26	C	0.265280	-0.444629	-0.282970
C27	C	0.265302	-0.580947	-0.369394
C28	C	0.335989	-0.580941	-0.369389
C29	C	0.371321	-0.512768	-0.326175
C30	C	0.447969	-0.512765	-0.326166
C31	C	0.509061	-0.512769	-0.326162
C32	C	0.978127	-0.789298	-0.326150
C33	C	0.978170	-0.907603	-0.326170
C34	C	0.932956	-0.976872	-0.371352
C35	C	0.916467	-1.047728	-0.309590
C36	C	0.994721	-1.047546	-0.387943
C37	C	0.961649	-0.976901	-0.264375
C38	C	1.039931	-0.976712	-0.342770
C39	C	1.023465	-1.047536	-0.280965
C40	C	1.154714	-0.512778	-0.326179
C41	C	1.229946	-0.512787	-0.326189
C42	C	0.978209	-0.512690	-0.502700
C43	C	0.978226	-0.512661	-0.577932
C44	C	0.978235	-0.235136	-0.326178
C45	C	0.978261	-0.116830	-0.326188
C46	C	1.021533	-0.444587	-0.613288
C47	C	1.021539	-0.444556	-0.683976
C48	C	0.978242	-0.512605	-0.719307
C49	C	0.934931	-0.580683	-0.683947
C50	C	0.934921	-0.580707	-0.613259
C51	C	0.934969	-0.580583	-0.969020
C52	C	0.934984	-0.580556	-1.039712
C53	C	1.021588	-0.444432	-1.039737
C54	C	1.021578	-0.444457	-0.969050
C55	C	0.978264	-0.512530	-0.933695
C56	C	0.978256	-0.512561	-0.857046
C57	C	0.978253	-0.512580	-0.795955
C58	C	0.978173	-0.512747	-0.150301
C59	C	0.978288	-0.512475	-0.075069
H60	H	0.720532	-0.636419	-0.404541
C61	C	1.069228	-0.369545	-1.078629
H62	H	1.063031	-0.379265	-1.125788
H63	H	1.114699	-0.385136	-1.067052
H64	H	1.059335	-0.298029	-1.067046
H65	H	1.056792	-0.389176	-0.584526
H66	H	0.592298	-0.636423	-0.404556
C67	C	0.374879	-0.655926	-0.416907
H68	H	0.422038	-0.646170	-0.410707
H69	H	0.363322	-0.640460	-0.462405
H70	H	0.363275	-0.727420	-0.406912
C71	C	1.069202	-0.369599	-0.930189
H72	H	1.094991	-0.329043	-0.961370
H73	H	1.098680	-0.410323	-0.902614
H74	H	1.043309	-0.323228	-0.902616
H75	H	0.236496	-0.389122	-0.247783
H76	H	1.061740	-1.078369	-0.242720
H77	H	1.056806	-0.389126	-0.712760
C78	C	0.845967	-1.089873	-0.290627
H79	H	0.813860	-1.065686	-0.322766
H80	H	0.833930	-1.064646	-0.247061
H81	H	0.846614	-1.165295	-0.290370
C82	C	0.887350	-0.655406	-1.078575
H83	H	0.861547	-0.695944	-1.047396
H84	H	0.913232	-0.701778	-1.106152
H85	H	0.857875	-0.614662	-1.106148
C86	C	0.887312	-0.655438	-0.930138
H87	H	0.861529	-0.695960	-0.961306
H88	H	0.857831	-0.614705	-0.902571
H89	H	0.913175	-0.701843	-0.902555
C90	C	0.942704	-0.935168	-0.193792
H91	H	0.934853	-0.993433	-0.164337
H92	H	0.902962	-0.893238	-0.196872
H93	H	0.978619	-0.893095	-0.176619
H94	H	0.899675	-0.636086	-0.712719
H95	H	0.364730	-0.389113	-0.247769
C96	C	0.887300	-0.655615	-0.574368
H97	H	0.861524	-0.696154	-0.605532
H98	H	0.857810	-0.614928	-0.546782
H99	H	0.913195	-0.702001	-0.546802
H100	H	0.592254	-0.389094	-0.247761
C101	C	0.226436	-0.655927	-0.416937
H102	H	0.179274	-0.646164	-0.410760
H103	H	0.238005	-0.727419	-0.406954
H104	H	0.238045	-0.640436	-0.462431
C105	C	0.730602	-0.369610	-0.235399
H106	H	0.777763	-0.379359	-0.241589
H107	H	0.718998	-0.385088	-0.189905
H108	H	0.719030	-0.298114	-0.245389
H109	H	0.894652	-0.945843	-0.409505
H110	H	1.092106	-0.945498	-0.356826
H111	H	1.008682	-1.078577	-0.440176
