data_functionalizedCrystal
_audit_creation_method	'MofGen! by Chris Wilmer'
_symmetry_space_group_name_H-M	'P1'
_symmetry_Int_Tables_number	1
_symmetry_cell_setting	triclinic
loop_
_symmetry_equiv_pos_as_xyz
  x,y,z
_cell_length_a	14.908571
_cell_length_b	21.295417
_cell_length_c	14.908858
_cell_angle_alpha	86.666582
_cell_angle_beta	89.795097
_cell_angle_gamma	86.725606
loop_
_atom_site_label
_atom_site_type_symbol
_atom_site_fract_x
_atom_site_fract_y
_atom_site_fract_z
Zn1	Zn	1.345257	-0.281183	-0.587558
Zn2	Zn	1.353806	-0.392860	-0.437180
Zn3	Zn	1.203566	-0.281898	-0.428552
Zn4	Zn	1.194843	-0.380704	-0.578836
O5	O	1.274368	-0.334161	-0.508031
O6	O	1.472217	-0.300785	-0.574871
O7	O	1.341105	-0.383527	-0.310207
O8	O	1.222434	-0.193715	-0.449684
O9	O	1.478498	-0.382834	-0.464388
O10	O	1.326535	-0.193189	-0.566505
O11	O	1.230724	-0.302004	-0.303868
O12	O	1.076583	-0.290216	-0.441227
O13	O	1.207567	-0.362115	-0.705822
O14	O	1.070175	-0.362809	-0.551640
O15	O	1.318076	-0.288998	-0.712230
O16	O	1.332647	-0.479335	-0.455931
O17	O	1.215857	-0.470404	-0.560006
C18	C	1.040754	-0.325271	-0.494551
C19	C	0.940812	-0.321482	-0.488806
C20	C	1.274256	-0.497710	-0.507979
C21	C	1.274289	-0.567679	-0.507992
C22	C	0.746393	-0.390085	-0.592828
C23	C	0.652488	-0.386527	-0.587433
C24	C	0.659095	-0.310805	-0.472625
C25	C	0.753000	-0.314363	-0.478020
C26	C	0.796646	-0.354005	-0.538123
C27	C	0.890552	-0.357566	-0.543513
C28	C	0.897157	-0.281842	-0.428710
C29	C	0.803252	-0.278284	-0.423315
C30	C	1.328458	-0.600212	-0.568860
C31	C	1.328489	-0.665955	-0.568884
C32	C	1.274360	-0.699163	-0.508024
C33	C	1.220179	-0.666622	-0.447152
C34	C	1.220144	-0.600880	-0.447135
N35	N	1.272107	-0.805522	-0.428941
N36	N	1.272146	-0.867975	-0.428960
C37	C	1.274463	-0.897240	-0.508071
N38	N	1.276756	-0.861694	-0.587166
N39	N	1.276722	-0.799237	-0.587147
C40	C	1.274392	-0.770449	-0.508036
C41	C	1.328668	-1.001059	-0.568970
C42	C	1.328692	-1.066802	-0.568995
C43	C	1.220388	-1.067469	-0.447255
C44	C	1.220359	-1.001726	-0.447238
C45	C	1.274504	-0.968525	-0.508094
C46	C	1.508894	-0.343086	-0.521565
C47	C	1.608836	-0.346889	-0.527332
C48	C	1.260895	-0.324121	-0.742564
C49	C	1.255154	-0.319842	-0.842508
C50	C	1.274504	-0.169973	-0.508105
C51	C	1.274562	-0.100006	-0.508136
C52	C	1.189599	-0.271368	-0.980073
C53	C	1.194990	-0.275387	-0.886167
C54	C	1.309933	-0.360280	-0.892761
C55	C	1.304542	-0.356261	-0.986668
C56	C	1.244372	-0.311804	-1.030320
C57	C	1.238977	-0.307789	-1.124228
C58	C	1.353924	-0.392678	-1.130821
C59	C	1.359315	-0.396697	-1.036914
C60	C	1.287840	-0.344119	-0.274415
C61	C	1.293756	-0.348227	-0.174481
H62	H	0.926087	-0.389846	-0.592450
O63	O	0.951348	-0.242924	-0.369692
H64	H	0.991840	-0.210827	-0.412465
H65	H	1.372544	-0.573182	-0.618415
O66	O	1.162011	-1.103280	-0.381608
H67	H	1.113942	-1.129792	-0.419179
H68	H	1.408306	-0.432890	-1.001360
H69	H	1.372592	-0.692448	-0.618460
O70	O	1.374829	-0.408221	-0.845666
H71	H	1.412019	-0.435663	-0.896380
O72	O	1.135912	-0.231772	-0.831975
H73	H	1.149773	-0.242029	-0.759342
H74	H	0.767703	-0.246007	-0.374384
H75	H	1.398529	-0.425601	-1.171742
H76	H	1.372754	-0.974025	-0.618526
H77	H	1.176253	-0.975236	-0.397670
O78	O	1.161807	-0.702435	-0.381497
H79	H	1.170943	-0.753616	-0.391724
O80	O	1.161729	-0.565785	-0.381472
H81	H	1.124098	-0.599919	-0.339149
H82	H	0.623541	-0.278527	-0.423698
O83	O	1.174096	-0.259836	-1.171321
H84	H	1.104548	-0.268706	-1.149224
O85	O	1.387119	-1.101897	-0.634650
H86	H	1.424766	-1.067763	-0.676956
O87	O	1.124714	-0.223420	-1.027172
H88	H	1.055167	-0.232295	-1.005080
O89	O	0.793478	-0.432838	-0.657647
H90	H	0.742757	-0.457328	-0.694784
H91	H	0.611576	-0.415905	-0.631981
