data_functionalizedCrystal
_audit_creation_method	'MofGen! by Chris Wilmer'
_symmetry_space_group_name_H-M	'P1'
_symmetry_Int_Tables_number	1
_symmetry_cell_setting	triclinic
loop_
_symmetry_equiv_pos_as_xyz
  x,y,z
_cell_length_a	17.000371
_cell_length_b	17.038272
_cell_length_c	14.421503
_cell_angle_alpha	89.999401
_cell_angle_beta	89.993068
_cell_angle_gamma	83.355402
loop_
_atom_site_label
_atom_site_type_symbol
_atom_site_fract_x
_atom_site_fract_y
_atom_site_fract_z
O1	O	1.057988	0.028038	0.077116
O2	O	1.557988	0.528038	0.577116
O3	O	0.828168	0.056283	0.077117
O4	O	1.328168	0.556283	0.577117
O5	O	0.941712	-0.071562	0.077109
O6	O	1.441712	0.428438	0.577109
O7	O	0.944444	0.155882	0.077124
O8	O	1.444444	0.655882	0.577124
O9	O	0.941728	-0.071555	-0.077114
O10	O	1.441728	0.428445	0.422886
O11	O	0.828184	0.056289	-0.077106
O12	O	1.328184	0.556289	0.422894
O13	O	1.058004	0.028044	-0.077108
O14	O	1.558004	0.528044	0.422892
Cu15	Cu	0.943095	0.042167	-0.091189
Cu16	Cu	1.443095	0.542167	0.408811
Cu17	Cu	0.943077	0.042159	0.091198
Cu18	Cu	1.443077	0.542159	0.591198
O19	O	0.944460	0.155889	-0.077100
O20	O	1.444460	0.655889	0.422900
C21	C	0.798625	0.057803	0.000006
C22	C	1.298625	0.557803	0.500006
C23	C	0.710572	0.062314	0.000006
C24	C	1.210572	0.562314	0.500006
C25	C	0.673845	-0.007108	-0.000000
C26	C	1.173845	0.492892	0.500000
C27	C	0.591110	-0.002864	0.000007
C28	C	1.091110	0.497136	0.500007
C29	C	0.545102	0.070802	0.000013
C30	C	1.045102	0.570802	0.500013
C31	C	0.581834	0.140229	0.000022
C32	C	1.081834	0.640229	0.500022
C33	C	0.664568	0.135985	0.000022
C34	C	1.164568	0.635985	0.500022
C35	C	0.295066	0.087196	0.000020
C36	C	0.795066	0.587196	0.500020
C37	C	0.212327	0.091434	0.000018
C38	C	0.712327	0.591434	0.500018
C39	C	0.221608	-0.051659	0.000004
C40	C	0.721608	0.448341	0.500004
C41	C	0.304344	-0.055897	-0.000002
C42	C	0.804344	0.444103	0.499998
C43	C	0.341068	0.013530	0.000012
C44	C	0.841068	0.513530	0.500012
C45	C	0.460533	0.075141	0.000017
C46	C	0.960533	0.575141	0.500017
C47	C	0.425636	0.009190	0.000015
C48	C	0.925636	0.509190	0.500015
C49	C	0.939235	-0.100516	-0.000002
C50	C	1.439235	0.399484	0.499998
C51	C	0.931823	-0.186802	-0.000002
C52	C	1.431823	0.313198	0.499998
C53	C	0.999881	-0.241577	-0.000003
C54	C	1.499881	0.258423	0.499997
C55	C	0.992911	-0.322650	0.000005
C56	C	1.492911	0.177350	0.500005
C57	C	0.917882	-0.348946	0.000009
C58	C	1.417882	0.151054	0.500009
C59	C	0.849819	-0.294164	0.000013
C60	C	1.349819	0.205836	0.500013
C61	C	0.856789	-0.213093	0.000011
C62	C	1.356789	0.286907	0.500011
C63	C	0.893256	-0.593018	0.000022
C64	C	1.393256	-0.093018	0.500022
C65	C	0.886291	-0.674096	0.000021
C66	C	1.386291	-0.174096	0.500021
C67	C	1.029384	-0.702577	0.000015
C68	C	1.529384	-0.202577	0.500015
C69	C	1.036348	-0.621502	0.000007
C70	C	1.536348	-0.121502	0.500007
C71	C	0.968285	-0.566727	0.000016
C72	C	1.468285	-0.066727	0.500016
C73	C	0.910756	-0.431816	0.000015
C74	C	1.410756	0.068184	0.500015
C75	C	0.975411	-0.483859	0.000017
C76	C	1.475411	0.016141	0.500017
C77	C	1.087547	0.026524	0.000006
C78	C	1.587547	0.526524	0.500006
C79	C	1.175600	0.022013	0.000012
C80	C	1.675600	0.522013	0.500012
C81	C	0.946936	0.184843	0.000014
C82	C	1.446936	0.684843	0.500014
C83	C	0.954349	0.271129	0.000020
C84	C	1.454349	0.771129	0.500020
N85	N	0.943113	0.042172	-0.219470
N86	N	1.443113	0.542172	0.280530
C87	C	0.995628	-0.016956	-0.469103
C88	C	1.495628	0.483044	0.030897
C89	C	0.923017	-0.027148	-0.530900
C90	C	1.423017	0.472852	-0.030900
C91	C	0.943095	0.042164	-0.408631
C92	C	1.443095	0.542164	0.091369
C93	C	1.015686	0.052312	-0.530928
C94	C	1.515686	0.552312	-0.030928
C95	C	0.943084	0.042154	-0.591353
C96	C	1.443084	0.542154	-0.091353
C97	C	0.870446	0.031939	-0.469068
C98	C	1.370446	0.531939	0.030932
C99	C	0.963164	0.111427	-0.469090
C100	C	1.463164	0.611427	0.030910
C101	C	0.890504	0.101268	-0.530860
C102	C	1.390504	0.601268	-0.030860
C103	C	0.943103	0.042168	-0.303370
C104	C	1.443103	0.542168	0.196630
C105	C	0.943068	0.042151	-0.696612
C106	C	1.443068	0.542151	-0.196612
N107	N	0.943064	0.042148	0.219480
N108	N	1.443064	0.542148	0.719480
H109	H	0.324957	0.143728	0.000038
H110	H	0.824957	0.643728	0.500038
Br111	Br	0.816370	0.184604	-0.575774
Br112	Br	1.316370	0.684604	-0.075774
H113	H	0.544368	0.200209	0.000033
H114	H	1.044368	0.700209	0.500033
Br115	Br	0.768087	0.017512	-0.423978
Br116	Br	1.268087	0.517512	0.076022
H117	H	0.341798	-0.115883	-0.000011
H118	H	0.841798	0.384117	0.499989
Br119	Br	0.800883	-0.518690	0.000040
Br120	Br	1.300883	-0.018690	0.500040
H121	H	1.036500	-0.462446	0.000035
H122	H	1.536500	0.037554	0.500035
H123	H	1.060978	-0.220174	-0.000012
H124	H	1.560978	0.279826	0.499988
Br125	Br	1.118010	0.066625	-0.576226
Br126	Br	1.618010	0.566625	-0.076226
H127	H	0.980170	0.169985	-0.441920
H128	H	1.480170	0.669985	0.058080
Br129	Br	0.747992	-0.329850	0.000033
Br130	Br	1.247992	0.170150	0.500033
Br131	Br	0.714412	0.230204	0.000038
Br132	Br	1.214412	0.730204	0.500038
H133	H	0.711300	-0.067095	-0.000009
H134	H	1.211300	0.432905	0.499991
Br135	Br	1.085281	-0.396987	0.000004
Br136	Br	1.585281	0.103013	0.500004
H137	H	0.561211	-0.059395	0.000002
H138	H	1.061211	0.440605	0.500002
H139	H	1.040001	-0.066974	-0.441985
H140	H	1.540001	0.433026	0.058015
Br141	Br	0.894698	-0.124781	-0.576142
Br142	Br	1.394698	0.375219	-0.076142
H143	H	0.191698	-0.108182	0.000004
H144	H	0.691698	0.391818	0.500004
H145	H	0.423064	0.135120	0.000021
H146	H	0.923064	0.635120	0.500021
H147	H	1.097445	-0.600099	0.000004
H148	H	1.597445	-0.100099	0.500004
H149	H	1.084797	-0.747183	0.000010
H150	H	1.584797	-0.247183	0.500010
Br151	Br	0.784459	-0.709782	0.000016
Br152	Br	1.284459	-0.209782	0.500016
H153	H	0.174868	0.151425	0.000019
H154	H	0.674868	0.651425	0.500019
H155	H	0.463099	-0.050788	0.000015
H156	H	0.963099	0.449212	0.500015
H157	H	0.801369	-0.168494	0.000012
H158	H	1.301369	0.331506	0.500012
H159	H	0.849667	-0.453235	0.000016
H160	H	1.349667	0.046765	0.500016
