data_functionalizedCrystal
_audit_creation_method	'MofGen! by Chris Wilmer'
_symmetry_space_group_name_H-M	'P1'
_symmetry_Int_Tables_number	1
_symmetry_cell_setting	triclinic
loop_
_symmetry_equiv_pos_as_xyz
  x,y,z
_cell_length_a	17.699083
_cell_length_b	15.995350
_cell_length_c	16.176319
_cell_angle_alpha	89.995430
_cell_angle_beta	89.998611
_cell_angle_gamma	83.387695
loop_
_atom_site_label
_atom_site_type_symbol
_atom_site_fract_x
_atom_site_fract_y
_atom_site_fract_z
O1	O	1.004255	0.105885	-0.068627
O2	O	0.783899	0.119661	-0.068653
O3	O	0.900101	-0.009127	-0.068638
O4	O	0.888054	0.234673	-0.068641
O5	O	0.900085	-0.009135	0.068855
O6	O	0.783883	0.119653	0.068840
O7	O	1.004239	0.105877	0.068867
Cu8	Cu	0.894060	0.112764	0.081408
Cu9	Cu	0.894079	0.112774	-0.081194
O10	O	0.888038	0.234665	0.068852
C11	C	0.755694	0.119163	0.000090
C12	C	0.671673	0.117683	0.000080
C13	C	0.623178	0.193278	0.000079
C14	C	0.544232	0.191882	0.000090
C15	C	0.513783	0.114889	0.000095
C16	C	0.562285	0.039287	0.000098
C17	C	0.641229	0.040685	0.000094
C18	C	0.243912	0.033651	0.000119
C19	C	0.164962	0.032259	0.000121
C20	C	0.146916	0.184848	0.000115
C21	C	0.225860	0.186245	0.000110
C22	C	0.274354	0.110644	0.000118
C23	C	0.359956	0.112159	0.000108
C24	C	0.428183	0.113373	0.000099
C25	C	0.899595	-0.040324	0.000107
C26	C	0.898101	-0.133272	0.000102
C27	C	0.892739	-0.471008	0.000104
C28	C	0.809983	-0.423406	-0.000214
C29	C	0.811476	-0.326719	0.000096
C30	C	0.895399	-0.303453	0.000102
C31	C	0.936208	-0.344618	0.078621
C32	C	0.934129	-0.441250	0.078687
C33	C	0.935857	-0.441602	-0.077669
C34	C	0.935838	-0.344657	-0.078706
C35	C	0.896907	-0.208759	0.000104
C36	C	0.891234	-0.565703	0.000108
C37	C	1.032445	0.106375	0.000122
C38	C	1.116465	0.107856	0.000126
C39	C	0.888544	0.265863	0.000105
C40	C	0.890037	0.358810	0.000104
N41	N	0.894052	0.112757	0.195773
N42	N	0.894092	0.112775	-0.195559
C43	C	0.945521	0.055753	0.239043
C44	C	0.945525	0.055752	0.325591
C45	C	0.894063	0.112760	0.368865
C46	C	0.842588	0.169767	0.325589
C47	C	0.842581	0.169763	0.239043
C48	C	0.842614	0.169782	0.674617
C49	C	0.842626	0.169783	0.761168
C50	C	0.945558	0.055772	0.761164
C51	C	0.945551	0.055768	0.674619
C52	C	0.894074	0.112771	0.631350
C53	C	0.894069	0.112770	0.537505
C54	C	0.894070	0.112765	0.462708
H55	H	0.647962	0.255975	0.000074
H56	H	0.107421	0.246406	0.000113
N57	N	0.293450	-0.043565	0.000128
N58	N	0.339514	-0.059816	0.058086
H59	H	0.374503	-0.114354	0.058093
H60	H	0.997038	-0.329419	-0.083442
N61	N	0.768684	-0.447902	0.070036
N62	N	0.792243	-0.435599	0.141352
H63	H	0.763082	-0.452901	0.190971
H64	H	0.537487	-0.023402	0.000115
H65	H	0.504750	0.253440	0.000088
N66	N	0.690757	-0.036542	0.000104
N67	N	0.663564	-0.105282	0.000112
H68	H	0.698542	-0.159827	0.000124
N69	N	0.896760	-0.464141	0.152296
N70	N	0.837596	-0.499654	0.147411
H71	H	0.811200	-0.515817	0.199398
N72	N	1.010350	-0.481853	0.083173
N73	N	1.064909	-0.438796	0.086251
H74	H	1.118740	-0.467468	0.089426
N75	N	0.768474	-0.446566	-0.070836
N76	N	0.701270	-0.414948	-0.081625
H77	H	0.671952	-0.431310	-0.131502
N78	N	0.133871	-0.046399	0.000125
N79	N	0.177177	-0.113894	0.000131
H80	H	0.155219	-0.169444	0.000132
H81	H	0.987435	0.009335	0.360821
H82	H	0.250646	0.248941	0.000102
H83	H	0.908807	-0.462083	-0.137181
H84	H	0.996873	-0.473487	-0.078191
N85	N	0.770945	-0.291690	0.070819
N86	N	0.741471	-0.338662	0.120106
H87	H	0.712846	-0.313924	0.170059
H88	H	0.779397	-0.298228	-0.056190
N89	N	1.013554	-0.327056	0.082283
N90	N	1.039525	-0.283899	0.026932
H91	H	1.094151	-0.271494	0.029515
H92	H	0.907851	-0.316183	0.137047
N93	N	0.898450	-0.310328	-0.151572
N94	N	0.842231	-0.255718	-0.145549
H95	H	0.815823	-0.231468	-0.197009
H96	H	0.987431	0.009334	0.203815
N97	N	0.998134	-0.002459	0.630429
N98	N	1.044089	-0.053349	0.669074
H99	H	1.081229	-0.094473	0.637867
N100	N	0.998134	-0.002456	0.805377
N101	N	0.998135	-0.002452	0.882649
H102	H	1.035266	-0.043573	0.913874
H103	H	0.800716	0.216208	0.796401
H104	H	0.800700	0.216198	0.639394
H105	H	0.800682	0.216181	0.360828
H106	H	0.800668	0.216180	0.203813
