data_functionalizedCrystal
_audit_creation_method	'MofGen! by Chris Wilmer'
_symmetry_space_group_name_H-M	'P1'
_symmetry_Int_Tables_number	1
_symmetry_cell_setting	triclinic
loop_
_symmetry_equiv_pos_as_xyz
  x,y,z
_cell_length_a	16.120530
_cell_length_b	18.101395
_cell_length_c	16.120256
_cell_angle_alpha	87.125564
_cell_angle_beta	89.871735
_cell_angle_gamma	87.126665
loop_
_atom_site_label
_atom_site_type_symbol
_atom_site_fract_x
_atom_site_fract_y
_atom_site_fract_z
Zn1	Zn	1.247384	-0.375205	0.534567
Zn2	Zn	1.254317	-0.493093	0.395509
Zn3	Zn	1.115376	-0.362686	0.388485
Zn4	Zn	1.108274	-0.492415	0.527479
O5	O	1.181338	-0.430850	0.461510
O6	O	1.364669	-0.396365	0.522027
O7	O	1.241760	-0.470839	0.278212
O8	O	1.132958	-0.260718	0.407890
O9	O	1.369763	-0.482978	0.419862
O10	O	1.229944	-0.269915	0.515216
O11	O	1.139681	-0.375030	0.273051
O12	O	0.998069	-0.374372	0.401017
O13	O	1.120853	-0.481821	0.644785
O14	O	0.992850	-0.469683	0.503135
O15	O	1.223057	-0.395708	0.649993
O16	O	1.234873	-0.596632	0.412989
O17	O	1.127576	-0.596133	0.509947
C18	C	0.965287	-0.420596	0.450545
C19	C	0.872859	-0.416229	0.445874
C20	C	0.703630	-0.408237	0.437352
C21	C	0.659882	-0.453519	0.485729
C22	C	0.565718	-0.449073	0.480988
C23	C	0.797803	-0.412683	0.442092
C24	C	1.181228	-0.623254	0.461480
C25	C	1.181255	-0.705570	0.461499
C26	C	1.181435	-1.004672	0.461553
C27	C	1.114068	-0.973078	0.522723
C28	C	1.113773	-0.887437	0.522506
C29	C	1.181346	-0.856284	0.461527
C30	C	1.162064	-0.882558	0.372687
C31	C	1.161631	-0.968200	0.373052
C32	C	1.268265	-0.978145	0.488458
C33	C	1.267650	-0.892552	0.490354
C34	C	1.181297	-0.772421	0.461507
C35	C	1.181483	-1.088534	0.461567
C36	C	1.398232	-0.441144	0.472519
C37	C	1.490659	-0.445530	0.477210
C38	C	1.170389	-0.440085	0.678405
C39	C	1.165723	-0.444021	0.770833
C40	C	1.181470	-0.237696	0.461560
C41	C	1.181526	-0.155385	0.461581
C42	C	1.192292	-0.421599	0.245461
C43	C	1.197118	-0.417462	0.153042
C44	C	1.205667	-0.410307	0.983817
C45	C	1.157177	-0.451174	0.940053
C46	C	1.161934	-0.447193	0.845890
C47	C	1.200912	-0.414287	1.077988
H48	H	1.125322	-0.869858	0.588241
F49	F	1.286763	-0.870655	0.575841
H50	H	0.670366	-0.366134	0.392377
F51	F	1.098247	-0.500816	0.983512
F52	F	1.264585	-0.360662	0.940358
F53	F	1.223292	-0.995270	0.311131
F54	F	1.128952	-1.004495	0.608910
F55	F	1.030334	-0.996470	0.499255
H56	H	1.049324	-0.863287	0.504333
F57	F	1.078842	-0.989353	0.343938
F58	F	0.703361	-0.508552	0.544524
F59	F	1.292375	-1.011165	0.571996
H60	H	1.209784	-0.862220	0.325673
H61	H	1.099423	-0.857330	0.350107
H62	H	1.320141	-0.871660	0.449403
H63	H	1.318402	-0.998649	0.443960
