data_functionalizedCrystal
_audit_creation_method	'MofGen! by Chris Wilmer'
_symmetry_space_group_name_H-M	'P1'
_symmetry_Int_Tables_number	1
_symmetry_cell_setting	triclinic
loop_
_symmetry_equiv_pos_as_xyz
  x,y,z
_cell_length_a	16.959455
_cell_length_b	16.625546
_cell_length_c	16.959447
_cell_angle_alpha	89.967702
_cell_angle_beta	89.977004
_cell_angle_gamma	90.019488
loop_
_atom_site_label
_atom_site_type_symbol
_atom_site_fract_x
_atom_site_fract_y
_atom_site_fract_z
Zn1	Zn	1.208391	-0.321049	-0.447026
Zn2	Zn	1.208302	-0.455897	-0.314843
Zn3	Zn	1.076214	-0.321075	-0.314849
Zn4	Zn	1.076179	-0.455836	-0.446968
O5	O	1.142271	-0.388464	-0.380921
O6	O	1.318990	-0.338951	-0.429513
O7	O	1.190758	-0.438048	-0.204233
O8	O	1.093799	-0.208239	-0.332410
O9	O	1.318925	-0.438023	-0.332399
O10	O	1.190909	-0.208220	-0.429520
O11	O	1.093713	-0.338995	-0.204238
O12	O	0.965598	-0.338937	-0.332354
O13	O	1.093740	-0.437921	-0.557586
O14	O	0.965572	-0.437946	-0.429420
O15	O	1.190876	-0.338893	-0.557629
O16	O	1.190724	-0.568721	-0.332342
O17	O	1.093653	-0.568677	-0.429414
C18	C	0.936905	-0.388438	-0.380882
C19	C	0.849048	-0.388446	-0.380883
C20	C	0.477528	-0.440000	-0.330328
C21	C	0.477618	-0.336996	-0.431611
C22	C	0.560164	-0.336982	-0.431592
C23	C	0.601396	-0.388479	-0.380941
C24	C	0.560082	-0.439990	-0.330309
C25	C	0.601484	-0.285479	-0.482228
C26	C	0.684034	-0.285464	-0.482211
C27	C	0.725268	-0.336958	-0.431556
C28	C	0.683949	-0.388469	-0.380922
C29	C	0.725181	-0.439967	-0.330271
C30	C	0.683864	-0.491475	-0.279632
C31	C	0.601315	-0.491484	-0.279654
C32	C	0.807816	-0.336949	-0.431534
C33	C	0.807735	-0.439957	-0.330252
C34	C	1.142197	-0.597955	-0.380888
C35	C	1.142237	-0.687576	-0.380901
C36	C	1.142375	-1.015752	-0.380983
C37	C	1.142334	-0.924443	-0.380962
C38	C	1.142305	-0.851667	-0.380941
C39	C	1.142266	-0.760353	-0.380922
C40	C	1.348440	-0.388491	-0.380962
C41	C	1.436296	-0.388503	-0.380979
C42	C	1.142314	-0.388397	-0.587090
C43	C	1.142332	-0.388369	-0.674946
C44	C	1.142368	-0.178155	-0.380972
C45	C	1.142409	-0.088534	-0.380994
C46	C	1.091875	-0.336711	-1.046431
C47	C	1.192928	-0.439856	-1.046414
C48	C	1.192914	-0.439875	-0.963868
C49	C	1.142379	-0.388312	-0.922600
C50	C	1.091858	-0.336730	-0.963877
C51	C	1.243429	-0.491462	-0.922584
C52	C	1.243417	-0.491483	-0.840033
C53	C	1.192885	-0.439915	-0.798763
C54	C	1.142362	-0.388331	-0.840046
C55	C	1.091827	-0.336768	-0.798778
C56	C	1.041308	-0.285179	-0.840059
C57	C	1.041326	-0.285162	-0.922608
C58	C	1.192867	-0.439932	-0.716215
C59	C	1.091810	-0.336787	-0.716224
C60	C	1.142275	-0.388473	-0.175555
C61	C	1.142410	-0.388274	-0.087699
H62	H	0.717668	-0.243522	-0.523444
Br63	Br	0.863887	-0.267057	-0.500258
Br64	Br	0.972769	-0.215157	-0.978637
H65	H	1.050661	-0.294794	-0.682630
Br66	Br	0.421459	-0.509895	-0.261602
H67	H	0.567906	-0.243557	-0.523470
Br68	Br	0.972726	-0.215204	-0.784043
Br69	Br	1.023321	-0.266695	-1.102452
H70	H	0.717446	-0.533408	-0.238396
Br71	Br	1.261415	-0.509948	-0.660193
H72	H	1.234066	-0.481843	-1.080019
H73	H	0.841300	-0.481890	-0.289002
H74	H	1.284563	-0.533451	-0.956190
Br75	Br	0.421660	-0.267121	-0.500359
H76	H	0.567667	-0.533419	-0.238426
Br77	Br	1.311980	-0.561493	-0.784015
