data_functionalizedCrystal
_audit_creation_method	'MofGen! by Chris Wilmer'
_symmetry_space_group_name_H-M	'P1'
_symmetry_Int_Tables_number	1
_symmetry_cell_setting	triclinic
loop_
_symmetry_equiv_pos_as_xyz
  x,y,z
_cell_length_a	14.044220
_cell_length_b	13.339070
_cell_length_c	11.804365
_cell_angle_alpha	74.887832
_cell_angle_beta	102.939965
_cell_angle_gamma	104.409086
loop_
_atom_site_label
_atom_site_type_symbol
_atom_site_fract_x
_atom_site_fract_y
_atom_site_fract_z
O1	O	-1.337501	-0.230693	-0.098885
O2	O	-1.059165	-0.221673	-0.098916
O3	O	-1.166389	-0.076037	-0.098900
O4	O	-1.230278	-0.376329	-0.098901
O5	O	-1.138150	-0.114335	0.099151
O6	O	-1.030926	-0.259971	0.099136
O7	O	-1.309262	-0.268991	0.099167
Cu8	Cu	-1.167516	-0.267978	0.117235
Cu9	Cu	-1.200911	-0.222686	-0.116984
O10	O	-1.202039	-0.414627	0.099151
C11	C	-1.141477	-0.056522	0.000123
C12	C	-1.109310	0.058684	0.000114
C13	C	-1.008694	-0.236875	0.000106
C14	C	-0.900374	-0.225102	0.000094
C15	C	-1.359733	-0.253789	0.000142
C16	C	-1.468054	-0.265560	0.000146
C17	C	-0.702050	-0.203588	0.000118
C18	C	-0.666372	-0.287070	0.000123
C19	C	-0.556017	-0.275099	0.000136
C20	C	-0.812414	-0.215557	0.000105
C21	C	-1.226950	-0.434141	0.000126
C22	C	-1.259119	-0.549346	0.000126
N23	N	-1.144034	-0.299834	0.281972
C24	C	-1.359432	0.400901	0.000142
C25	C	-1.389657	0.292657	0.000157
C26	C	-1.319573	0.234159	0.000146
C27	C	-1.219259	0.283914	0.000121
C28	C	-1.189029	0.392166	0.000116
C29	C	-1.149170	0.225424	0.000119
C30	C	-1.048856	0.275179	0.000095
C31	C	-1.018631	0.383421	0.000088
C32	C	-1.088716	0.441919	0.000100
C33	C	-1.179399	0.117172	0.000125
C34	C	-1.008996	0.108438	0.000098
C35	C	-0.978771	0.216681	0.000083
N36	N	-1.224399	-0.190822	-0.281721
C37	C	-1.280782	-0.114305	0.655941
C38	C	-1.298544	-0.090201	0.531281
C39	C	-1.259918	-0.142607	0.468948
C40	C	-1.203527	-0.219121	0.531286
C41	C	-1.185770	-0.243233	0.655957
C42	C	-1.164906	-0.271535	0.468965
C43	C	-1.108515	-0.348049	0.531303
C44	C	-1.090760	-0.372157	0.655962
C45	C	-1.129387	-0.319751	0.718295
C46	C	-1.182663	-0.247423	0.344294
C47	C	-1.087651	-0.376352	0.344310
C48	C	-1.069889	-0.400455	0.468969
H49	H	-0.718705	-0.367531	0.000117
H50	H	-0.649720	-0.123133	0.000124
H51	H	-1.261076	0.076672	0.000145
H52	H	-1.344188	0.146023	0.000158
N53	N	-1.497843	0.238993	0.000190
H54	H	-1.537655	0.292474	0.000194
H55	H	-1.524570	0.208463	-0.073225
N56	N	-1.435012	0.463988	0.000175
H57	H	-1.400637	0.540108	0.000175
H58	H	-1.487977	0.461179	-0.073234
H59	H	-1.312233	-0.071648	0.706701
H60	H	-1.114922	-0.339372	0.819803
H61	H	-1.274382	-0.122978	0.367445
N62	N	-1.056113	0.558671	0.000081
H63	H	-1.115736	0.588176	0.000086
H64	H	-1.004892	0.568753	0.073497
N65	N	-0.910433	0.437082	0.000096
H66	H	-0.870620	0.383602	0.000093
H67	H	-0.904640	0.496004	-0.073322
H68	H	-0.897093	0.257207	0.000064
N69	N	-0.933394	0.045354	0.000101
H70	H	-0.967764	-0.030768	0.000106
H71	H	-0.901369	0.076558	-0.073322
H72	H	-1.344457	-0.027906	0.480530
H73	H	-1.228576	-0.185126	0.293549
H74	H	-1.044854	-0.434467	0.706718
N75	N	-1.009067	-0.482977	0.536210
H76	H	-1.003681	-0.490294	0.624640
H77	H	-1.042713	-0.553295	0.514422
H78	H	-1.056200	-0.419028	0.293559
