data_functionalizedCrystal
_audit_creation_method	'MofGen! by Chris Wilmer'
_symmetry_space_group_name_H-M	'P1'
_symmetry_Int_Tables_number	1
_symmetry_cell_setting	triclinic
loop_
_symmetry_equiv_pos_as_xyz
  x,y,z
_cell_length_a	21.295418
_cell_length_b	21.295417
_cell_length_c	21.395355
_cell_angle_alpha	89.979596
_cell_angle_beta	89.956257
_cell_angle_gamma	90.045515
loop_
_atom_site_label
_atom_site_type_symbol
_atom_site_fract_x
_atom_site_fract_y
_atom_site_fract_z
Zn1	Zn	0.962359	-0.250416	-0.354574
Zn2	Zn	1.462359	0.249584	0.145426
Zn3	Zn	0.962263	-0.355668	-0.249793
Zn4	Zn	1.462263	0.144332	0.250207
Zn5	Zn	0.857083	-0.250446	-0.249776
Zn6	Zn	1.357083	0.249554	0.250224
Zn7	Zn	0.857053	-0.355681	-0.354498
Zn8	Zn	1.357053	0.144319	0.145502
O9	O	0.909690	-0.303053	-0.302160
O10	O	1.409690	0.196947	0.197840
O11	O	1.050436	-0.264361	-0.340714
O12	O	1.550436	0.235639	0.159286
O13	O	0.948283	-0.341717	-0.162113
O14	O	1.448283	0.158283	0.337887
O15	O	0.871100	-0.162352	-0.263702
O16	O	1.371100	0.337648	0.236298
O17	O	1.050365	-0.341688	-0.263732
O18	O	1.550365	0.158312	0.236268
O19	O	0.948447	-0.162331	-0.340697
O20	O	1.448447	0.337669	0.159303
O21	O	0.871007	-0.264410	-0.162100
O22	O	1.371007	0.235590	0.337900
O23	O	0.768989	-0.264423	-0.263628
O24	O	1.268989	0.235577	0.236372
O25	O	0.871050	-0.341710	-0.442186
O26	O	1.371050	0.158290	0.057814
O27	O	0.768968	-0.341739	-0.340568
O28	O	1.268968	0.158261	0.159432
O29	O	0.948418	-0.264373	-0.442242
O30	O	1.448418	0.235627	0.057758
O31	O	0.948254	-0.443759	-0.263658
O32	O	1.448254	0.056241	0.236342
O33	O	0.870957	-0.443768	-0.340584
O34	O	1.370957	0.056232	0.159416
C35	C	0.909609	-0.466604	-0.302129
C36	C	1.409609	0.033396	0.197871
C37	C	0.909633	-0.536572	-0.302136
C38	C	1.409633	-0.036572	0.197864
C39	C	0.746138	-0.303086	-0.302088
C40	C	1.246138	0.196914	0.197912
C41	C	0.676170	-0.303115	-0.302072
C42	C	1.176170	0.196885	0.197928
C43	C	0.949884	-0.569371	-0.342256
C44	C	1.449884	-0.069371	0.157744
C45	C	0.949906	-0.635113	-0.342271
C46	C	1.449906	-0.135113	0.157729
C47	C	0.909684	-0.668055	-0.302156
C48	C	1.409684	-0.168055	0.197844
C49	C	0.869425	-0.635249	-0.262033
C50	C	1.369425	-0.135249	0.237967
C51	C	0.869399	-0.569507	-0.262023
C52	C	1.369399	-0.069507	0.237977
N53	N	0.904924	-0.771308	-0.247320
N54	N	1.404924	-0.271308	0.252680
N55	N	0.904952	-0.833760	-0.247332
N56	N	1.404952	-0.333760	0.252668
C57	C	0.909757	-0.866130	-0.302184
C58	C	1.409757	-0.366130	0.197816
N59	N	0.914546	-0.833689	-0.357026
N60	N	1.414546	-0.333689	0.142974
N61	N	0.914521	-0.771231	-0.357014
N62	N	1.414521	-0.271231	0.142986
C63	C	0.909707	-0.739340	-0.302162
C64	C	1.409707	-0.239340	0.197838
C65	C	0.950035	-0.970213	-0.342324
C66	C	1.450035	-0.470213	0.157676
C67	C	0.950053	-1.035957	-0.342341
C68	C	1.450053	-0.535957	0.157659
C69	C	0.869574	-1.036091	-0.262097
C70	C	1.369574	-0.536091	0.237903
C71	C	0.869553	-0.970349	-0.262086
C72	C	1.369553	-0.470349	0.237914
C73	C	0.909787	-0.937414	-0.302199
C74	C	1.409787	-0.437414	0.197801
C75	C	0.643308	-0.343427	-0.342075
C76	C	1.143308	0.156573	0.157925
C77	C	0.577566	-0.343411	-0.342103
C78	C	1.077566	0.156589	0.157897
C79	C	0.544687	-0.303091	-0.302117
C80	C	1.044687	0.196909	0.197883
C81	C	0.577557	-0.262771	-0.262112
C82	C	1.077557	0.237229	0.237888
C83	C	0.643298	-0.262783	-0.262090
C84	C	1.143298	0.237217	0.237910
N85	N	0.441411	-0.298163	-0.247317
N86	N	0.941411	0.201837	0.252683
N87	N	0.378960	-0.298156	-0.247340
N88	N	0.878960	0.201844	0.252660
C89	C	0.346613	-0.303051	-0.302184
C90	C	0.846613	0.196949	0.197816
N91	N	0.379076	-0.307966	-0.357005
N92	N	0.879076	0.192034	0.142995
N93	N	0.441533	-0.307977	-0.356981
N94	N	0.941533	0.192023	0.143019
C95	C	0.473402	-0.303073	-0.302138
C96	C	0.973402	0.196927	0.197862
C97	C	0.242466	-0.343348	-0.342220
C98	C	0.742466	0.156652	0.157780
C99	C	0.176722	-0.343328	-0.342249
C100	C	0.676722	0.156672	0.157751
C101	C	0.176714	-0.262691	-0.262253
C102	C	0.676714	0.237309	0.237747
C103	C	0.242456	-0.262708	-0.262229
C104	C	0.742456	0.237292	0.237771
C105	C	0.275328	-0.303039	-0.302212
C106	C	0.775328	0.196961	0.197788
C107	C	1.073880	-0.303020	-0.302233
C108	C	1.573880	0.196980	0.197767
C109	C	1.143848	-0.303006	-0.302264
C110	C	1.643848	0.196994	0.197736
C111	C	0.909742	-0.303040	-0.465584
C112	C	1.409742	0.196960	0.034416
C113	C	0.909764	-0.303034	-0.535225
C114	C	1.409764	0.196966	-0.035225
C115	C	0.909787	-0.138862	-0.302206
C116	C	1.409787	0.361138	0.197794
C117	C	0.909829	-0.068894	-0.302225
C118	C	1.409829	0.431106	0.197775
C119	C	0.950048	-0.262763	-0.567968
C120	C	1.450048	0.237237	-0.067968
C121	C	0.950047	-0.262736	-0.633404
C122	C	1.450047	0.237264	-0.133404
C123	C	0.909769	-0.302992	-0.666093
C124	C	1.409769	0.197008	-0.166093
C125	C	0.869478	-0.343266	-0.633342
C126	C	1.369478	0.156734	-0.133342
C127	C	0.869475	-0.343287	-0.567908
C128	C	1.369475	0.156713	-0.067908
C129	C	0.904771	-0.359673	-0.769755
C130	C	1.404771	0.140327	-0.269755
C131	C	0.904778	-0.359653	-0.835188
C132	C	1.404778	0.140347	-0.335188
C133	C	0.909773	-0.302925	-0.867914
C134	C	1.409773	0.197075	-0.367914
C135	C	0.914775	-0.246216	-0.835199
C136	C	1.414775	0.253784	-0.335199
C137	C	0.914772	-0.246238	-0.769765
C138	C	1.414772	0.253762	-0.269765
C139	C	0.909767	-0.302973	-0.737046
C140	C	1.409767	0.197027	-0.237046
C141	C	0.950058	-0.262621	-0.971610
C142	C	1.450058	0.237379	-0.471610
C143	C	0.950053	-0.262593	-1.037047
C144	C	1.450053	0.237407	-0.537047
C145	C	0.869486	-0.343128	-1.036984
C146	C	1.369486	0.156872	-0.536984
C147	C	0.869488	-0.343151	-0.971549
C148	C	1.369488	0.156849	-0.471549
C149	C	0.909777	-0.302898	-0.938866
C150	C	1.409777	0.197102	-0.438866
C151	C	0.909674	-0.303020	-0.139373
C152	C	1.409674	0.196980	0.360627
C153	C	0.909774	-0.302848	-0.069732
C154	C	1.409774	0.197152	0.430268
H155	H	0.982678	-0.661823	-0.374949
H156	H	1.482678	-0.161823	0.125051
O157	O	0.141323	-0.386849	-0.385396
O158	O	0.641323	0.113151	0.114604
H159	H	0.111432	-0.358764	-0.417374
H160	H	0.611432	0.141236	0.082626
H161	H	0.918843	-0.200063	-0.743131
H162	H	1.418843	0.299937	-0.243131
O163	O	0.542110	-0.386916	-0.385225
O164	O	1.042110	0.113084	0.114775
H165	H	0.576013	-0.414973	-0.413013
H166	H	1.076013	0.085027	0.086987
O167	O	0.826048	-0.670773	-0.218756
O168	O	1.326048	-0.170773	0.281244
H169	H	0.832835	-0.721998	-0.225496
H170	H	1.332835	-0.221998	0.274504
H171	H	0.982793	-0.943397	-0.374988
H172	H	1.482793	-0.443397	0.125012
H173	H	0.550783	-0.229941	-0.229557
H174	H	1.050783	0.270059	0.270443
H175	H	0.269212	-0.229884	-0.229652
H176	H	0.769212	0.270116	0.270348
O177	O	0.920146	-0.185022	-0.870484
O178	O	1.420146	0.314978	-0.370484
H179	H	0.919294	-0.194530	-0.921480
H180	H	1.419294	0.305470	-0.421480
O181	O	0.899376	-0.420864	-0.734465
O182	O	1.399376	0.079136	-0.234465
H183	H	0.941537	-0.427291	-0.704679
H184	H	1.441537	0.072709	-0.204679
H185	H	0.982860	-0.229842	-0.944998
H186	H	1.482860	0.270158	-0.444998
H187	H	0.836685	-0.375898	-1.063599
H188	H	1.336685	0.124102	-0.563599
H189	H	0.982855	-0.229796	-1.063705
H190	H	1.482855	0.270204	-0.563705
H191	H	0.836779	-0.943643	-0.229414
H192	H	1.336779	-0.443643	0.270586
O193	O	0.826023	-0.386569	-0.936226
O194	O	1.326023	0.113431	-0.436226
H195	H	0.798009	-0.414553	-0.969948
H196	H	1.298009	0.085447	-0.469948
O197	O	0.678748	-0.219315	-0.218931
O198	O	1.178748	0.280685	0.281069
H199	H	0.644843	-0.191278	-0.191125
H200	H	1.144843	0.308722	0.308875
H201	H	0.269232	-0.376185	-0.374779
H202	H	0.769232	0.123815	0.125221
H203	H	0.900709	-0.405829	-0.861820
H204	H	1.400709	0.094171	-0.361820
O205	O	0.826009	-0.386716	-0.532595
O206	O	1.326009	0.113284	-0.032595
H207	H	0.836765	-0.436118	-0.545155
H208	H	1.336765	0.063882	-0.045155
H209	H	0.149945	-0.229858	-0.229699
H210	H	0.649945	0.270142	0.270301
H211	H	0.982854	-0.229986	-0.541362
H212	H	1.482854	0.270014	-0.041362
H213	H	0.836681	-0.376040	-0.659963
H214	H	1.336681	0.123960	-0.159963
O215	O	0.993465	-1.071338	-0.385618
O216	O	1.493465	-0.571338	0.114382
H217	H	1.042871	-1.058675	-0.374925
H218	H	1.542871	-0.558675	0.125075
O219	O	0.993287	-0.533846	-0.385507
O220	O	1.493287	-0.033846	0.114493
H221	H	1.021283	-0.567702	-0.413406
H222	H	1.521283	-0.067702	0.086594
H223	H	0.836820	-1.062912	-0.229438
H224	H	1.336820	-0.562912	0.270562
O225	O	0.825992	-0.534126	-0.218741
O226	O	1.325992	-0.034126	0.281259
H227	H	0.798029	-0.568074	-0.190844
H228	H	1.298029	-0.068074	0.309156
O229	O	0.678765	-0.386916	-0.385205
O230	O	1.178765	0.113084	0.114795
H231	H	0.644865	-0.414940	-0.413031
H232	H	1.144865	0.085060	0.086969
H233	H	0.982849	-0.229939	-0.660068
H234	H	1.482849	0.270061	-0.160068
