data_functionalizedCrystal
_audit_creation_method	'MofGen! by Chris Wilmer'
_symmetry_space_group_name_H-M	'P1'
_symmetry_Int_Tables_number	1
_symmetry_cell_setting	triclinic
loop_
_symmetry_equiv_pos_as_xyz
  x,y,z
_cell_length_a	21.395364
_cell_length_b	14.908178
_cell_length_c	21.395355
_cell_angle_alpha	93.314561
_cell_angle_beta	90.024552
_cell_angle_gamma	93.328811
loop_
_atom_site_label
_atom_site_type_symbol
_atom_site_fract_x
_atom_site_fract_y
_atom_site_fract_z
Zn1	Zn	0.943529	-0.358933	0.339876
Zn2	Zn	1.276863	-0.025599	0.673209
Zn3	Zn	1.610196	0.307734	1.006542
Zn4	Zn	0.937409	-0.509786	0.229052
Zn5	Zn	1.270742	-0.176452	0.562385
Zn6	Zn	1.604076	0.156881	0.895719
Zn7	Zn	0.838743	-0.358972	0.235111
Zn8	Zn	1.172076	-0.025639	0.568444
Zn9	Zn	1.505409	0.307694	0.901777
Zn10	Zn	0.832690	-0.509802	0.333791
Zn11	Zn	1.166023	-0.176468	0.667125
Zn12	Zn	1.499357	0.156865	1.000458
O13	O	0.888093	-0.434373	0.284457
O14	O	1.221426	-0.101040	0.617791
O15	O	1.554759	0.232294	0.951124
O16	O	1.030396	-0.378920	0.325185
O17	O	1.363730	-0.045587	0.658518
O18	O	1.697063	0.287746	0.991852
O19	O	0.924292	-0.489790	0.142177
O20	O	1.257626	-0.156456	0.475511
O21	O	1.590959	0.176877	0.808844
O22	O	0.857737	-0.232712	0.254090
O23	O	1.191070	0.100621	0.587423
O24	O	1.524404	0.433955	0.920756
O25	O	1.025900	-0.489751	0.243764
O26	O	1.359233	-0.156418	0.577097
O27	O	1.692566	0.176915	0.910430
O28	O	0.934723	-0.232683	0.331060
O29	O	1.268057	0.100650	0.664393
O30	O	1.601390	0.433984	0.997727
O31	O	0.851803	-0.378988	0.146629
O32	O	1.185136	-0.045654	0.479962
O33	O	1.518469	0.287679	0.813295
O34	O	0.750261	-0.379003	0.248190
O35	O	1.083594	-0.045670	0.581524
O36	O	1.416928	0.287663	0.914857
O37	O	0.847421	-0.489779	0.422277
O38	O	1.180755	-0.156445	0.755610
O39	O	1.514088	0.176888	1.088943
O40	O	0.745814	-0.489817	0.320691
O41	O	1.079148	-0.156484	0.654024
O42	O	1.412481	0.176850	0.987357
O43	O	0.928854	-0.378936	0.426747
O44	O	1.262188	-0.045603	0.760080
O45	O	1.595521	0.287731	1.093413
O46	O	0.918424	-0.636043	0.237864
O47	O	1.251757	-0.302709	0.571197
O48	O	1.585090	0.030624	0.904531
O49	O	0.841487	-0.636055	0.314816
O50	O	1.174820	-0.302721	0.648149
O51	O	1.508154	0.030612	0.981482
C52	C	0.725303	-0.434417	0.284438
C53	C	1.058637	-0.101084	0.617771
C54	C	1.391970	0.232250	0.951105
C55	C	0.655660	-0.434457	0.284444
C56	C	0.988994	-0.101124	0.617777
C57	C	1.322327	0.232209	0.951110
C58	C	0.625307	-0.376842	0.326898
C59	C	0.958641	-0.043509	0.660231
C60	C	1.291974	0.289824	0.993565
C61	C	0.559873	-0.376818	0.326902
C62	C	0.893206	-0.043485	0.660235
C63	C	1.226539	0.289848	0.993568
C64	C	0.524793	-0.434426	0.284456
C65	C	0.858127	-0.101092	0.617790
C66	C	1.191460	0.232241	0.951123
C67	C	0.555154	-0.492045	0.241994
C68	C	0.888488	-0.158711	0.575327
C69	C	1.221821	0.174622	0.908661
C70	C	0.620588	-0.492061	0.241988
C71	C	0.953921	-0.158727	0.575321
C72	C	1.287255	0.174606	0.908654
C73	C	0.417825	-0.515676	0.276162
C74	C	0.751159	-0.182343	0.609496
C75	C	1.084492	0.150990	0.942829
C76	C	0.352393	-0.515662	0.276173
C77	C	0.685726	-0.182329	0.609506
C78	C	1.019060	0.151005	0.942840
C79	C	0.322975	-0.434376	0.284472
C80	C	0.656308	-0.101043	0.617806
C81	C	0.989641	0.232291	0.951139
C82	C	0.358997	-0.353102	0.292774
C83	C	0.692330	-0.019769	0.626108
C84	C	1.025664	0.313565	0.959441
C85	C	0.424431	-0.353118	0.292768
C86	C	0.757764	-0.019784	0.626101
C87	C	1.091097	0.313549	0.959435
C88	C	0.453842	-0.434414	0.284458
C89	C	0.787175	-0.101081	0.617792
C90	C	1.120508	0.232252	0.951125
C91	C	0.221670	-0.376730	0.326933
C92	C	0.555004	-0.043397	0.660266
C93	C	0.888337	0.289937	0.993599
C94	C	0.156235	-0.376704	0.326932
C95	C	0.489568	-0.043371	0.660265
C96	C	0.822901	0.289962	0.993598
C97	C	0.151517	-0.491939	0.242027
C98	C	0.484850	-0.158606	0.575361
C99	C	0.818184	0.174728	0.908694
C100	C	0.216952	-0.491956	0.242025
C101	C	0.550285	-0.158623	0.575359
C102	C	0.883618	0.174710	0.908692
C103	C	0.252024	-0.434353	0.284481
C104	C	0.585358	-0.101020	0.617815
C105	C	0.918691	0.232314	0.951148
C106	C	0.878651	-0.668785	0.275036
C107	C	1.211985	-0.335452	0.608369
C108	C	1.545318	-0.002118	0.941703
C109	C	0.874670	-0.769068	0.271026
C110	C	1.208003	-0.435734	0.604360
C111	C	1.541336	-0.102401	0.937693
C112	C	0.947293	-0.957329	0.343727
C113	C	1.280626	-0.623995	0.677060
C114	C	1.613959	-0.290662	1.010393
C115	C	0.943554	-1.051553	0.339962
C116	C	1.276887	-0.718220	0.673295
C117	C	1.610220	-0.384886	1.006628
C118	C	0.863450	-1.051742	0.259734
C119	C	1.196783	-0.718409	0.593067
C120	C	1.530117	-0.385076	0.926401
C121	C	0.867189	-0.957518	0.263499
C122	C	1.200522	-0.624185	0.596833
C123	C	1.533856	-0.290851	0.930166
C124	C	0.909112	-0.910315	0.305496
C125	C	1.242446	-0.576981	0.638830
C126	C	1.575779	-0.243648	0.972163
C127	C	0.912854	-0.816088	0.309258
C128	C	1.246187	-0.482755	0.642591
C129	C	1.579521	-0.149422	0.975925
C130	C	0.832748	-0.816279	0.229034
C131	C	1.166081	-0.482946	0.562367
C132	C	1.499414	-0.149613	0.895701
C133	C	0.829009	-0.910504	0.225269
C134	C	1.162342	-0.577170	0.558602
C135	C	1.495675	-0.243837	0.891935
C136	C	1.051518	-0.434330	0.284477
C137	C	1.384851	-0.100996	0.617810
C138	C	1.718184	0.232337	0.951144
C139	C	1.121160	-0.434311	0.284486
C140	C	1.454493	-0.100978	0.617819
C141	C	1.787826	0.232356	0.951152
C142	C	0.888146	-0.434355	0.447881
C143	C	1.221479	-0.101021	0.781215
C144	C	1.554812	0.232312	1.114548
C145	C	0.888168	-0.434347	0.517523
C146	C	1.221501	-0.101014	0.850856
C147	C	1.554835	0.232320	1.184190
C148	C	0.897588	-0.199046	0.293929
C149	C	1.230921	0.134288	0.627263
C150	C	1.564255	0.467621	0.960596
C151	C	0.901634	-0.098763	0.297966
C152	C	1.234968	0.234570	0.631299
C153	C	1.568301	0.567904	0.964633
C154	C	0.888079	-0.434326	0.121672
C155	C	1.221412	-0.100993	0.455005
C156	C	1.554746	0.232341	0.788338
C157	C	0.888188	-0.434080	0.052041
C158	C	1.221521	-0.100746	0.385374
C159	C	1.554855	0.232587	0.718707
C160	C	0.930569	-0.376629	0.552565
C161	C	1.263902	-0.043295	0.885898
C162	C	1.597235	0.290038	1.219231
C163	C	0.930569	-0.376590	0.618002
C164	C	1.263903	-0.043257	0.951335
C165	C	1.597236	0.290077	1.284668
C166	C	0.888175	-0.434286	0.648394
C167	C	1.221509	-0.100952	0.981727
C168	C	1.554842	0.232381	1.315061
C169	C	0.845767	-0.492008	0.613344
C170	C	1.179100	-0.158674	0.946677
C171	C	1.512433	0.174659	1.280011
C172	C	0.845763	-0.492039	0.547909
C173	C	1.179096	-0.158705	0.881242
C174	C	1.512430	0.174628	1.214575
C175	C	0.879956	-0.515525	0.748803
C176	C	1.213289	-0.182191	1.082137
C177	C	1.546623	0.151142	1.415470
C178	C	0.879964	-0.515495	0.814238
C179	C	1.213297	-0.182162	1.147571
C180	C	1.546631	0.151171	1.480904
C181	C	0.888183	-0.434190	0.850219
C182	C	1.221516	-0.100857	1.183552
C183	C	1.554850	0.232477	1.516885
C184	C	0.896407	-0.352912	0.820758
C185	C	1.229741	-0.019578	1.154091
C186	C	1.563074	0.313755	1.487424
C187	C	0.896404	-0.352942	0.755322
C188	C	1.229737	-0.019609	1.088655
C189	C	1.563070	0.313724	1.421989
C190	C	0.888174	-0.434258	0.719347
C191	C	1.221508	-0.100925	1.052681
C192	C	1.554841	0.232408	1.386014
C193	C	0.930587	-0.376425	0.956215
C194	C	1.263920	-0.043092	1.289548
C195	C	1.597253	0.290242	1.622881
C196	C	0.930583	-0.376385	1.021653
C197	C	1.263916	-0.043051	1.354986
C198	C	1.597250	0.290282	1.688320
C199	C	0.845784	-0.491811	1.016994
C200	C	1.179117	-0.158477	1.350327
C201	C	1.512450	0.174856	1.683660
C202	C	0.845784	-0.491843	0.951557
C203	C	1.179118	-0.158509	1.284890
C204	C	1.512451	0.174824	1.618224
C205	C	0.888189	-0.434151	0.921171
C206	C	1.221522	-0.100818	1.254505
C207	C	1.554856	0.232515	1.587838
H208	H	0.241665	-0.538877	0.207457
H209	H	0.574999	-0.205543	0.540790
H210	H	0.908332	0.127790	0.874123
H211	H	0.526589	-0.538948	0.207435
H212	H	0.859922	-0.205615	0.540768
H213	H	1.193255	0.127718	0.874101
C214	C	0.993397	-0.905402	0.389928
C215	C	1.326730	-0.572069	0.723262
C216	C	1.660063	-0.238736	1.056595
H217	H	1.015596	-0.946899	0.412163
H218	H	1.348930	-0.613565	0.745496
H219	H	1.682263	-0.280232	1.078830
H220	H	1.022170	-0.868608	0.367466
H221	H	1.355504	-0.535275	0.700800
H222	H	1.688837	-0.201941	1.034133
H223	H	0.970859	-0.868676	0.418672
H224	H	1.304192	-0.535342	0.752006
H225	H	1.637525	-0.202009	1.085339
C226	C	0.985555	-1.103266	0.382011
C227	C	1.318889	-0.769933	0.715344
C228	C	1.652222	-0.436599	1.048678
H229	H	1.011061	-1.061655	0.407557
H230	H	1.344394	-0.728322	0.740891
H231	H	1.677727	-0.394989	1.074224
H232	H	0.960116	-1.140046	0.407818
H233	H	1.293449	-0.806713	0.741151
H234	H	1.626783	-0.473380	1.074484
H235	H	1.011414	-1.139991	0.356597
H236	H	1.344747	-0.806658	0.689930
H237	H	1.678080	-0.473324	1.023264
C238	C	0.905448	-0.263468	0.860325
C239	C	1.238781	0.069865	1.193658
C240	C	1.572115	0.403198	1.526991
H241	H	0.910349	-0.215071	0.833408
H242	H	1.243683	0.118262	1.166741
H243	H	1.577016	0.451596	1.500074
H244	H	0.869861	-0.255533	0.886153
H245	H	1.203194	0.077801	1.219486
H246	H	1.536527	0.411134	1.552820
H247	H	0.941724	-0.264620	0.885820
H248	H	1.275058	0.068714	1.219153
H249	H	1.608391	0.402047	1.552486
C250	C	0.790748	-0.764566	0.186976
C251	C	1.124081	-0.431233	0.520309
C252	C	1.457415	-0.097900	0.853642
H253	H	0.765250	-0.806177	0.161422
H254	H	1.098584	-0.472844	0.494755
H255	H	1.431917	-0.139510	0.828089
H256	H	0.764893	-0.727831	0.212379
H257	H	1.098226	-0.394498	0.545713
H258	H	1.431559	-0.061165	0.879046
H259	H	0.816198	-0.727796	0.161167
H260	H	1.149531	-0.394462	0.494500
H261	H	1.482865	-0.061129	0.827833
C262	C	0.817333	-1.103672	0.213547
C263	C	1.150666	-0.770339	0.546881
C264	C	1.483999	-0.437005	0.880214
H265	H	0.795123	-1.062179	0.191320
H266	H	1.128457	-0.728845	0.524653
H267	H	1.461790	-0.395512	0.857986
H268	H	0.839853	-1.140417	0.184805
H269	H	1.173186	-0.807084	0.518138
H270	H	1.506519	-0.473750	0.851471
H271	H	0.788560	-1.140448	0.236029
H272	H	1.121893	-0.807115	0.569363
H273	H	1.455226	-0.473782	0.902696
H274	H	0.965097	-0.329651	0.527829
H275	H	1.298431	0.003683	0.861162
H276	H	1.631764	0.337016	1.194496
H277	H	0.323068	-0.581840	0.269416
H278	H	0.656402	-0.248507	0.602749
H279	H	0.989735	0.084826	0.936083
H280	H	0.965096	-0.329584	0.646538
H281	H	1.298429	0.003749	0.979872
H282	H	1.631762	0.337083	1.313205
C283	C	0.450182	-0.605094	0.267029
C284	C	0.783515	-0.271761	0.600362
C285	C	1.116848	0.061573	0.933696
H286	H	0.494310	-0.593464	0.268207
H287	H	0.827644	-0.260131	0.601540
H288	H	1.160977	0.073203	0.934874
H289	H	0.437934	-0.643118	0.299541
H290	H	0.771267	-0.309785	0.632874
H291	H	1.104600	0.023549	0.966207
H292	H	0.438270	-0.633855	0.227693
H293	H	0.771603	-0.300522	0.561026
H294	H	1.104936	0.032812	0.894360
H295	H	0.903098	-0.286763	0.731338
H296	H	1.236432	0.046571	1.064671
H297	H	1.569765	0.379904	1.398004
H298	H	0.645301	-0.538979	0.207415
H299	H	0.978634	-0.205646	0.540749
H300	H	1.311968	0.127687	0.874082
C301	C	0.977223	-0.312963	0.922785
C302	C	1.310556	0.020370	1.256118
C303	C	1.643890	0.353703	1.589452
H304	H	0.971155	-0.321257	0.878795
H305	H	1.304488	0.012076	1.212128
H306	H	1.637821	0.345410	1.545461
H307	H	0.970500	-0.252340	0.935932
H308	H	1.303834	0.080993	1.269265
H309	H	1.637167	0.414327	1.602599
H310	H	1.018791	-0.326157	0.932999
H311	H	1.352124	0.007177	1.266333
H312	H	1.685457	0.340510	1.599666
C313	C	0.977227	-0.312892	1.060199
C314	C	1.310560	0.020441	1.393533
C315	C	1.643893	0.353775	1.726866
H316	H	1.002483	-0.278546	1.032728
H317	H	1.335816	0.054787	1.366061
H318	H	1.669149	0.388120	1.699395
H319	H	0.954850	-0.273570	1.087291
H320	H	1.288183	0.059763	1.420624
H321	H	1.621517	0.393097	1.753958
H322	H	1.003134	-0.347395	1.084353
H323	H	1.336467	-0.014062	1.417687
H324	H	1.669800	0.319271	1.751020
C325	C	0.112938	-0.555310	0.195341
C326	C	0.446271	-0.221977	0.528674
C327	C	0.779604	0.111357	0.862008
H328	H	0.069620	-0.547054	0.201428
H329	H	0.402953	-0.213721	0.534761
H330	H	0.736286	0.119612	0.868094
H331	H	0.124178	-0.542026	0.153791
H332	H	0.457512	-0.208693	0.487124
H333	H	0.790845	0.124641	0.820457
H334	H	0.121205	-0.615954	0.202011
H335	H	0.454539	-0.282621	0.535345
H336	H	0.787872	0.050713	0.868678
H337	H	0.811248	-0.538981	0.638094
H338	H	1.144581	-0.205648	0.971427
H339	H	1.477914	0.127686	1.304760
H340	H	0.811260	-0.538778	1.041739
H341	H	1.144593	-0.205445	1.375072
H342	H	1.477926	0.127888	1.708405
C343	C	0.799148	-0.555340	0.913009
C344	C	1.132481	-0.222007	1.246342
C345	C	1.465814	0.111326	1.579676
H346	H	0.773901	-0.589702	0.940479
H347	H	1.107235	-0.256368	1.273813
H348	H	1.440568	0.076965	1.607146
H349	H	0.773240	-0.520847	0.888854
H350	H	1.106573	-0.187514	1.222188
H351	H	1.439906	0.145820	1.555521
H352	H	0.821531	-0.594661	0.885918
H353	H	1.154865	-0.261328	1.219251
H354	H	1.488198	0.072005	1.552585
C355	C	0.464056	-0.263727	0.301894
C356	C	0.797389	0.069606	0.635227
C357	C	1.130722	0.402940	0.968561
H358	H	0.507237	-0.275383	0.300706
H359	H	0.840571	0.057950	0.634039
H360	H	1.173904	0.391284	0.967372
H361	H	0.454860	-0.225699	0.269384
H362	H	0.788193	0.107635	0.602717
H363	H	1.121527	0.440968	0.936051
H364	H	0.454522	-0.234957	0.341232
H365	H	0.787855	0.098377	0.674565
H366	H	1.121188	0.431710	1.007899
C367	C	0.782895	-0.962428	0.179075
C368	C	1.116229	-0.629094	0.512409
C369	C	1.449562	-0.295761	0.845742
H370	H	0.760690	-0.920930	0.156849
H371	H	1.094023	-0.587597	0.490182
H372	H	1.427356	-0.254263	0.823515
H373	H	0.805419	-0.999168	0.150333
H374	H	1.138752	-0.665835	0.483666
H375	H	1.472086	-0.332502	0.817000
H376	H	0.754119	-0.999208	0.201551
H377	H	1.087452	-0.665875	0.534884
H378	H	1.420786	-0.332542	0.868217
C379	C	0.870926	-0.604895	0.846642
C380	C	1.204259	-0.271561	1.179975
C381	C	1.537592	0.061772	1.513309
H382	H	0.872115	-0.593235	0.890766
H383	H	1.205448	-0.259901	1.224099
H384	H	1.538782	0.073432	1.557432
H385	H	0.831617	-0.633762	0.834750
H386	H	1.164951	-0.300428	1.168084
H387	H	1.498284	0.032905	1.501417
H388	H	0.903482	-0.642839	0.834407
H389	H	1.236815	-0.309506	1.167740
H390	H	1.570149	0.023827	1.501073
H391	H	0.131523	-0.329782	0.361502
H392	H	0.464856	0.003552	0.694836
H393	H	0.798189	0.336885	1.028169
H394	H	0.873096	-0.581716	0.719514
H395	H	1.206429	-0.248383	1.052847
H396	H	1.539763	0.084950	1.386180
C397	C	0.958958	-0.764166	0.355461
C398	C	1.292291	-0.430832	0.688795
C399	C	1.625625	-0.097499	1.022128
H400	H	0.981154	-0.805664	0.377697
H401	H	1.314487	-0.472331	0.711030
H402	H	1.647821	-0.138998	1.044364
H403	H	0.987735	-0.727374	0.333001
H404	H	1.321068	-0.394041	0.666334
H405	H	1.654402	-0.060707	0.999668
H406	H	0.936420	-0.727436	0.384204
H407	H	1.269754	-0.394103	0.717537
H408	H	1.603087	-0.060770	1.050871
C409	C	0.526476	-0.313449	0.373610
C410	C	0.859810	0.019884	0.706943
C411	C	1.193143	0.353217	1.040276
H412	H	0.556736	-0.279152	0.398897
H413	H	0.890069	0.054182	0.732230
H414	H	1.223402	0.387515	1.065563
H415	H	0.502532	-0.274078	0.351279
H416	H	0.835865	0.059255	0.684613
H417	H	1.169198	0.392588	1.017946
H418	H	0.499565	-0.348034	0.399480
H419	H	0.832899	-0.014700	0.732813
H420	H	1.166232	0.318633	1.066146
C421	C	0.799124	-0.555533	0.509358
C422	C	1.132458	-0.222200	0.842692
C423	C	1.465791	0.111133	1.176025
H424	H	0.805193	-0.547286	0.466035
H425	H	1.138526	-0.213952	0.799369
H426	H	1.471859	0.119381	1.132702
H427	H	0.805846	-0.616146	0.517657
H428	H	1.139179	-0.282813	0.850991
H429	H	1.472512	0.050521	1.184324
H430	H	0.757557	-0.542327	0.520592
H431	H	1.090891	-0.208994	0.853925
H432	H	1.424224	0.124340	1.187259
C433	C	0.663886	-0.313481	0.373595
C434	C	0.997220	0.019853	0.706928
C435	C	1.330553	0.353186	1.040262
H436	H	0.707204	-0.321746	0.367516
H437	H	1.040538	0.011588	0.700849
H438	H	1.373871	0.344921	1.034183
H439	H	0.655620	-0.252838	0.366938
H440	H	0.988953	0.080496	0.700271
H441	H	1.322286	0.413829	1.033604
H442	H	0.652643	-0.326784	0.415145
H443	H	0.985976	0.006549	0.748478
H444	H	1.319310	0.339882	1.081811
C445	C	0.326647	-0.263683	0.301906
C446	C	0.659980	0.069651	0.635240
C447	C	0.993313	0.402984	0.968573
H448	H	0.282518	-0.275309	0.300715
H449	H	0.615851	0.058025	0.634049
H450	H	0.949185	0.391358	0.967382
H451	H	0.338557	-0.234920	0.341238
H452	H	0.671890	0.098414	0.674572
H453	H	1.005224	0.431747	1.007905
H454	H	0.338898	-0.225660	0.269391
H455	H	0.672231	0.107673	0.602724
H456	H	1.005565	0.441006	0.936057
C457	C	0.260253	-0.313363	0.373627
C458	C	0.593586	0.019970	0.706960
C459	C	0.926919	0.353303	1.040293
H460	H	0.232802	-0.279035	0.398906
H461	H	0.566135	0.054298	0.732240
H462	H	0.899468	0.387631	1.065573
H463	H	0.284387	-0.347940	0.399496
H464	H	0.617721	-0.014607	0.732830
H465	H	0.951054	0.318726	1.066163
H466	H	0.287365	-0.274006	0.351280
H467	H	0.620698	0.059327	0.684613
H468	H	0.954032	0.392661	1.017946
