data_functionalizedCrystal
_audit_creation_method	'MofGen! by Chris Wilmer'
_symmetry_space_group_name_H-M	'P1'
_symmetry_Int_Tables_number	1
_symmetry_cell_setting	triclinic
loop_
_symmetry_equiv_pos_as_xyz
  x,y,z
_cell_length_a	17.019372
_cell_length_b	16.098678
_cell_length_c	16.992695
_cell_angle_alpha	87.081856
_cell_angle_beta	92.978293
_cell_angle_gamma	83.409482
loop_
_atom_site_label
_atom_site_type_symbol
_atom_site_fract_x
_atom_site_fract_y
_atom_site_fract_z
O1	O	1.053258	-0.006214	-0.099545
O2	O	0.823614	0.010242	-0.113122
O3	O	0.937516	0.002073	0.007805
O4	O	0.939356	0.001955	-0.220472
O5	O	0.944134	-0.136912	0.014846
O6	O	0.830233	-0.128742	-0.106081
O7	O	1.059876	-0.145199	-0.092504
Zn8	Zn	0.946105	-0.159038	-0.098175
Zn9	Zn	0.937385	0.024081	-0.107451
O10	O	0.945975	-0.137030	-0.213431
C11	C	0.797403	-0.057135	-0.109226
C12	C	0.709442	-0.050831	-0.108099
N13	N	0.952062	-0.284012	-0.091844
C14	C	0.211771	-0.011325	-0.101894
C15	C	0.294420	-0.017259	-0.102953
C16	C	0.339344	-0.095987	-0.099650
C17	C	0.301616	-0.168786	-0.095280
C18	C	0.218968	-0.162851	-0.094216
C19	C	0.589066	-0.117696	-0.102666
C20	C	0.671719	-0.123625	-0.103732
C21	C	0.664518	0.027903	-0.111403
C22	C	0.581869	0.033831	-0.110344
C23	C	0.544148	-0.038968	-0.105970
C24	C	0.423825	-0.102054	-0.100734
C25	C	0.459669	-0.032900	-0.104880
C26	C	0.903707	-0.324149	-0.143151
C27	C	0.907897	-0.411637	-0.138718
C28	C	0.960439	-0.458985	-0.082974
C29	C	1.008800	-0.418842	-0.031664
C30	C	1.004613	-0.331356	-0.036101
C31	C	0.975608	-0.723317	-0.066903
C32	C	0.979789	-0.810808	-0.062469
C33	C	0.878887	-0.803597	-0.169524
C34	C	0.874701	-0.716110	-0.173953
C35	C	0.923065	-0.675974	-0.122646
C36	C	0.964722	-0.548412	-0.078440
C37	C	0.918786	-0.586550	-0.127184
C38	C	1.086087	-0.077820	-0.096400
C39	C	1.174048	-0.084118	-0.097527
C40	C	0.938456	-0.067249	0.040527
C41	C	0.931389	-0.066743	0.127537
N42	N	0.931434	0.149054	-0.113776
C43	C	0.945034	-0.067706	-0.246153
C44	C	0.952101	-0.068207	-0.333164
C45	C	0.999577	-0.071630	0.178103
C46	C	0.992931	-0.071146	0.259858
C47	C	0.918098	-0.065780	0.291045
C48	C	0.849906	-0.060890	0.240472
C49	C	0.856551	-0.061368	0.158719
C50	C	0.890554	-0.063795	0.534511
C51	C	0.883913	-0.063320	0.616270
C52	C	1.026940	-0.073574	0.635650
C53	C	1.033579	-0.074057	0.553895
C54	C	0.965386	-0.069162	0.503329
N55	N	0.911304	-0.065288	0.374611
N56	N	0.972181	-0.069648	0.419764
H57	H	0.325131	0.042018	-0.106504
H58	H	0.822973	-0.058964	0.641660
H59	H	0.839512	-0.836284	-0.211297
H60	H	0.708294	-0.187738	-0.101048
O61	O	0.467559	-0.178482	-0.097432
C62	C	0.520242	-0.186798	-0.029919
H63	H	0.531048	-0.122021	-0.010768
H64	H	0.578835	-0.222948	-0.044315
H65	H	0.493445	-0.222149	0.019917
O66	O	0.824236	-0.059083	0.485512
C67	C	0.756764	-0.054231	0.530573
H68	H	0.774251	-0.081703	0.593025
H69	H	0.710592	-0.091140	0.502225
H70	H	0.730890	0.014073	0.532905
O71	O	0.701245	0.098556	-0.115749
C72	C	0.744145	0.100013	-0.184492
H73	H	0.758091	0.033460	-0.203958
H74	H	0.801791	0.127828	-0.171593
H75	H	0.707243	0.139929	-0.233510
H76	H	1.014986	-0.690645	-0.025126
H77	H	1.082458	-0.077557	0.676829
O78	O	0.867835	-0.540603	-0.181438
C79	C	0.886608	-0.563259	-0.257900
H80	H	0.951147	-0.591841	-0.256806
H81	H	0.877239	-0.505249	-0.300192
H82	H	0.846618	-0.611006	-0.278533
H83	H	0.175199	0.052784	-0.104589
O84	O	1.015703	-0.594317	-0.024180
C85	C	0.996884	-0.571690	0.052278
H86	H	0.963354	-0.505986	0.048833
H87	H	1.053785	-0.572788	0.090992
H88	H	0.958296	-0.618000	0.078835
O89	O	0.777174	-0.055784	0.270676
C90	C	0.738726	-0.124773	0.248468
H91	H	0.765029	-0.150575	0.193084
H92	H	0.672763	-0.103909	0.235981
H93	H	0.747296	-0.175619	0.298380
O94	O	1.072329	-0.076807	0.147940
C95	C	1.131088	-0.081035	0.210107
H96	H	1.104130	-0.052882	0.264207
H97	H	1.181099	-0.044403	0.191219
H98	H	1.155548	-0.149237	0.225164
H99	H	1.048457	-0.075127	0.301026
O100	O	0.790331	-0.056477	0.109557
C101	C	0.786482	0.015525	0.058025
H102	H	0.822665	0.063070	0.085612
H103	H	0.722159	0.044216	0.047299
H104	H	0.811506	-0.002487	-0.000505
H105	H	0.338200	-0.232888	-0.092586
H106	H	1.022578	-0.849356	-0.017072
H107	H	1.043991	-0.298677	0.005678
O108	O	0.416110	0.043621	-0.108200
C109	C	0.429420	0.088591	-0.178695
H110	H	0.488895	0.062860	-0.201008
H111	H	0.429998	0.157623	-0.166978
H112	H	0.380133	0.081655	-0.225101
H113	H	1.094516	-0.078426	0.528509
O114	O	0.852754	-0.278202	-0.197408
C115	C	0.871538	-0.300865	-0.273865
H116	H	0.936080	-0.329440	-0.272762
H117	H	0.862168	-0.242859	-0.316163
H118	H	0.831557	-0.348620	-0.294496
O119	O	0.538354	0.110374	-0.113512
C120	C	0.589372	0.173353	-0.117609
H121	H	0.651052	0.146786	-0.092433
H122	H	0.565599	0.227858	-0.081920
H123	H	0.592720	0.196343	-0.181786
H124	H	0.558365	-0.176974	-0.099093
H125	H	0.188255	-0.222128	-0.090668
H126	H	0.868523	-0.444316	-0.180497
H127	H	0.831917	-0.677560	-0.219344
O128	O	1.059790	-0.464742	0.022591
C129	C	1.040978	-0.442106	0.099049
H130	H	1.007443	-0.376405	0.095599
H131	H	1.097882	-0.443194	0.137756
H132	H	1.002397	-0.488416	0.125618
