data_functionalizedCrystal
_audit_creation_method	'MofGen! by Chris Wilmer'
_symmetry_space_group_name_H-M	'P1'
_symmetry_Int_Tables_number	1
_symmetry_cell_setting	triclinic
loop_
_symmetry_equiv_pos_as_xyz
  x,y,z
_cell_length_a	12.645331
_cell_length_b	18.050589
_cell_length_c	12.645323
_cell_angle_alpha	90.025443
_cell_angle_beta	90.022676
_cell_angle_gamma	90.027200
loop_
_atom_site_label
_atom_site_type_symbol
_atom_site_fract_x
_atom_site_fract_y
_atom_site_fract_z
Zn1	Zn	1.620654	-0.295674	0.599442
Zn2	Zn	1.620503	-0.419873	0.422180
Zn3	Zn	1.443368	-0.295699	0.422186
Zn4	Zn	1.443317	-0.419824	0.599396
O5	O	1.531961	-0.357767	0.510801
O6	O	1.768981	-0.312159	0.575945
O7	O	1.596964	-0.403432	0.273834
O8	O	1.466970	-0.191771	0.445722
O9	O	1.768870	-0.403407	0.445711
O10	O	1.597221	-0.191753	0.575951
O11	O	1.466824	-0.312202	0.273838
O12	O	1.295014	-0.312155	0.445677
O13	O	1.466883	-0.403325	0.747749
O14	O	1.294977	-0.403349	0.575872
O15	O	1.597172	-0.312112	0.747783
O16	O	1.596914	-0.523791	0.445666
O17	O	1.466737	-0.523755	0.575866
C18	C	1.256531	-0.357750	0.510770
C19	C	1.138701	-0.357760	0.510783
C20	C	0.971125	-0.300126	0.429329
C21	C	1.093685	-0.300275	0.428970
C22	C	1.094160	-0.435993	0.480267
C23	C	0.971562	-0.435678	0.479711
C24	C	0.971557	-0.337906	0.623067
C25	C	1.094163	-0.336158	0.622443
C26	C	1.531833	-0.550720	0.510784
C27	C	1.531875	-0.633265	0.510811
C28	C	1.461154	-0.832724	0.581589
C29	C	1.435307	-0.882166	0.484854
C30	C	1.531979	-0.784396	0.510825
C31	C	1.557878	-0.882035	0.607571
C32	C	1.532078	-0.930381	0.510847
C33	C	1.506082	-0.832751	0.414039
C34	C	1.628697	-0.832616	0.536821
C35	C	1.602887	-0.882036	0.440020
C36	C	1.531919	-0.700297	0.510814
C37	C	1.532137	-1.014477	0.510847
C38	C	1.808466	-0.357786	0.510832
C39	C	1.926296	-0.357793	0.510846
C40	C	1.532039	-0.357710	0.787307
C41	C	1.532072	-0.357686	0.905137
C42	C	1.532118	-0.164062	0.510842
C43	C	1.532185	-0.081516	0.510859
C44	C	1.531944	-0.357771	0.235371
C45	C	1.532116	-0.357586	0.117542
C46	C	1.449855	-0.414797	1.072679
C47	C	1.450070	-0.415080	0.950119
C48	C	1.643766	-0.378927	0.949656
C49	C	1.643315	-0.379285	1.072254
C50	C	1.503651	-0.279014	1.072336
C51	C	1.501159	-0.279485	0.949729
H52	H	1.123801	-0.242262	0.448097
H53	H	1.468859	-0.473329	0.920805
H54	H	1.124810	-0.375097	0.686428
F55	F	1.477380	-0.804574	0.307079
F56	F	1.586457	-0.910335	0.714498
F57	F	1.573761	-0.220824	0.909718
F58	F	1.132237	-0.260914	0.652531
F59	F	1.341270	-0.397588	1.111193
H60	H	1.668310	-0.435763	0.918967
F61	F	1.681231	-0.910159	0.361727
H62	H	1.367244	-0.401788	0.920018
F63	F	1.474124	-0.490450	1.113022
F64	F	0.933665	-0.392805	0.702456
F65	F	1.328456	-0.910612	0.456116
H66	H	0.941676	-0.241938	0.448251
F67	F	1.382756	-0.804420	0.659699
H68	H	1.710423	-0.810837	0.558835
F69	F	1.674853	-0.454360	1.109653
F70	F	0.934111	-0.457721	0.372479
F71	F	1.726096	-0.327151	1.111051
F72	F	1.726027	-0.326185	0.911579
H73	H	1.423623	-0.259652	1.103240
H74	H	1.123318	-0.480108	0.537776
F75	F	1.393716	-0.258549	0.911707
F76	F	1.134219	-0.458418	0.374185
F77	F	0.930783	-0.317104	0.321274
H78	H	1.563566	-0.236389	1.101350
H79	H	1.122959	-0.313420	0.345809
H80	H	0.940675	-0.281854	0.650819
F81	F	0.932795	-0.493742	0.553926
