data_functionalizedCrystal
_audit_creation_method	'MofGen! by Chris Wilmer'
_symmetry_space_group_name_H-M	'P1'
_symmetry_Int_Tables_number	1
_symmetry_cell_setting	triclinic
loop_
_symmetry_equiv_pos_as_xyz
  x,y,z
_cell_length_a	12.759401
_cell_length_b	19.076808
_cell_length_c	12.759393
_cell_angle_alpha	87.665862
_cell_angle_beta	89.980198
_cell_angle_gamma	92.322627
loop_
_atom_site_label
_atom_site_type_symbol
_atom_site_fract_x
_atom_site_fract_y
_atom_site_fract_z
Zn1	Zn	1.589383	-0.280201	-0.577143
Zn2	Zn	1.582181	-0.397922	-0.394386
Zn3	Zn	1.413680	-0.280233	-0.401480
Zn4	Zn	1.406584	-0.397867	-0.570030
O5	O	1.497957	-0.339056	-0.485760
O6	O	1.735448	-0.295826	-0.552908
O7	O	1.559785	-0.382346	-0.248304
O8	O	1.442971	-0.181732	-0.430727
O9	O	1.730157	-0.382315	-0.418637
O10	O	1.572060	-0.181708	-0.559787
O11	O	1.435988	-0.295881	-0.253515
O12	O	1.265718	-0.295829	-0.423830
O13	O	1.430877	-0.382222	-0.717997
O14	O	1.260505	-0.382254	-0.547663
O15	O	1.565179	-0.295773	-0.723223
O16	O	1.552904	-0.496411	-0.411740
O17	O	1.423894	-0.496371	-0.540785
C18	C	1.224991	-0.339039	-0.485745
C19	C	1.108214	-0.339049	-0.485763
C20	C	0.946364	-0.294112	-0.555783
C21	C	1.056089	-0.294098	-0.555777
C22	C	1.050607	-0.384022	-0.415758
C23	C	0.940884	-0.384039	-0.415770
C24	C	1.486876	-0.521930	-0.474744
C25	C	1.482231	-0.600165	-0.470066
C26	C	1.547209	-0.636847	-0.535117
C27	C	1.542840	-0.710356	-0.530724
C28	C	1.473500	-0.747183	-0.461274
C29	C	1.408515	-0.710496	-0.396220
C30	C	1.412879	-0.636988	-0.400619
C31	C	1.453243	-0.967037	-0.440910
C32	C	1.448886	-1.040551	-0.436513
C33	C	1.583210	-1.040406	-0.571019
C34	C	1.587572	-0.966896	-0.575408
C35	C	1.522584	-0.930216	-0.510358
N36	N	1.469035	-0.822322	-0.456779
N37	N	1.527044	-0.855078	-0.514859
C38	C	1.771989	-0.339073	-0.485775
C39	C	1.888766	-0.339080	-0.485781
C40	C	1.498040	-0.338988	-0.759797
C41	C	1.498075	-0.338959	-0.876576
C42	C	1.509110	-0.155467	-0.496842
C43	C	1.513863	-0.077232	-0.501564
C44	C	1.568011	-0.293938	-0.934161
C45	C	1.568031	-0.293908	-1.043887
C46	C	1.428175	-0.383926	-1.038432
C47	C	1.428151	-0.383952	-0.928709
C48	C	1.497938	-0.339072	-0.212791
C49	C	1.498119	-0.338903	-0.096025
H50	H	1.093055	-0.420625	-0.358756
O51	O	0.895777	-0.250522	-0.623942
C52	C	0.864392	-0.216482	-0.804793
C53	C	0.921721	-0.265901	-0.727715
H54	H	0.885364	-0.228888	-0.888710
H55	H	0.776063	-0.224218	-0.792870
H56	H	0.889367	-0.159712	-0.789850
H57	H	0.896833	-0.322689	-0.742611
H58	H	1.010039	-0.258103	-0.739655
O59	O	0.884814	-0.427626	-0.347722
C60	C	0.760340	-0.437001	-0.205271
C61	C	0.823760	-0.387561	-0.282280
H62	H	0.710978	-0.404628	-0.152328
H63	H	0.706705	-0.473838	-0.251154
H64	H	0.816453	-0.469145	-0.155272
H65	H	0.767725	-0.355372	-0.332298
H66	H	0.877408	-0.350771	-0.236335
H67	H	1.359966	-0.607122	-0.347649
H68	H	1.371247	-0.420559	-1.080892
H69	H	1.102982	-0.257482	-0.612780
H70	H	1.624946	-0.257300	-0.891718
O71	O	1.614592	-0.601185	-0.602677
C72	C	1.747393	-0.608809	-0.735591
C73	C	1.671116	-0.649280	-0.659139
H74	H	1.793129	-0.647676	-0.781245
H75	H	1.701217	-0.574416	-0.792612
H76	H	1.804357	-0.574366	-0.689454
H77	H	1.614136	-0.683761	-0.705189
H78	H	1.717361	-0.683629	-0.602118
H79	H	1.595760	-0.740220	-0.583687
O80	O	1.636070	-0.250153	-1.099664
C81	C	1.774747	-0.160843	-1.093489
C82	C	1.697763	-0.210374	-1.030194
H83	H	1.824630	-0.128658	-1.037350
H84	H	1.827799	-0.193116	-1.142891
H85	H	1.728742	-0.124051	-1.147098
H86	H	1.743682	-0.247177	-0.976527
H87	H	1.644711	-0.178057	-0.980860
H88	H	1.644035	-0.936914	-0.631960
H89	H	1.636119	-1.070279	-0.623980
O90	O	1.360175	-0.427756	-0.872921
C91	C	1.221417	-0.517011	-0.879083
C92	C	1.298358	-0.467456	-0.942389
H93	H	1.171403	-0.549110	-0.935220
H94	H	1.267352	-0.553876	-0.825522
H95	H	1.168483	-0.484690	-0.829629
H96	H	1.351310	-0.499720	-0.991903
H97	H	1.252358	-0.430588	-0.995883
O98	O	1.381427	-1.076216	-0.369023
C99	C	1.248690	-1.068607	-0.236041
C100	C	1.325014	-1.028128	-0.312438
H101	H	1.203075	-1.029746	-0.190256
H102	H	1.191625	-1.103013	-0.282126
H103	H	1.294927	-1.103038	-0.179129
H104	H	1.278864	-0.993659	-0.369366
H105	H	1.382078	-0.993767	-0.266285
H106	H	1.352052	-0.740486	-0.339676
O107	O	1.390011	-0.931383	-0.377866
C108	C	1.253122	-0.848458	-0.368550
C109	C	1.324654	-0.888805	-0.440076
H110	H	1.200279	-0.814012	-0.418817
H111	H	1.202747	-0.887379	-0.318178
H112	H	1.303446	-0.814073	-0.315691
H113	H	1.274412	-0.923191	-0.492998
H114	H	1.375035	-0.849846	-0.490376
