data_functionalizedCrystal
_audit_creation_method	'MofGen! by Chris Wilmer'
_symmetry_space_group_name_H-M	'P1'
_symmetry_Int_Tables_number	1
_symmetry_cell_setting	triclinic
loop_
_symmetry_equiv_pos_as_xyz
  x,y,z
_cell_length_a	15.297476
_cell_length_b	11.169416
_cell_length_c	11.169409
_cell_angle_alpha	89.969126
_cell_angle_beta	99.690042
_cell_angle_gamma	99.685415
loop_
_atom_site_label
_atom_site_type_symbol
_atom_site_fract_x
_atom_site_fract_y
_atom_site_fract_z
Zn1	Zn	1.379402	0.795708	0.995737
Zn2	Zn	1.379319	0.996429	0.795040
Zn3	Zn	1.228519	0.760994	0.760377
Zn4	Zn	1.228525	0.961565	0.961011
O5	O	1.303941	0.878674	0.878041
O6	O	1.505645	0.851453	0.998154
O7	O	1.359278	0.965261	0.622483
O8	O	1.248566	0.597657	0.791625
O9	O	1.505584	0.998922	0.850702
O10	O	1.359420	0.623161	0.964543
O11	O	1.248486	0.792288	0.597017
O12	O	1.102266	0.758482	0.757952
O13	O	1.248576	0.939501	1.133576
O14	O	1.102270	0.905841	0.905357
O15	O	1.359425	0.817646	1.159089
O16	O	1.359284	1.159747	0.817030
O17	O	1.248495	1.134132	0.938968
C18	C	1.069532	0.824612	0.824125
C19	C	0.969251	0.801513	0.801088
C20	C	0.922114	0.713807	0.713636
C21	C	0.827895	0.692102	0.691989
C22	C	0.780803	0.758093	0.757799
C23	C	0.827940	0.845795	0.845259
C24	C	0.922169	0.867509	0.866901
C25	C	0.780858	0.911795	0.911064
C26	C	0.827994	0.999497	0.998524
C27	C	0.922214	1.021206	1.020163
C28	C	0.969305	0.955215	0.954353
C29	C	0.686629	0.890081	0.889421
C30	C	0.686684	1.043782	1.042686
C31	C	0.780903	1.065488	1.064333
C32	C	1.303906	1.190491	0.878024
C33	C	1.303973	1.323906	0.878076
C34	C	1.304011	0.878557	1.191100
C35	C	1.304040	0.878507	1.324507
C36	C	1.539266	0.932948	0.932168
C37	C	1.639547	0.956077	0.955234
C38	C	1.304002	0.565646	0.878091
C39	C	1.304028	0.432252	0.878112
C40	C	1.303924	0.878716	0.566213
C41	C	1.304069	0.878469	0.432847
H42	H	0.960465	0.660093	0.660057
H43	H	0.789523	0.620701	0.620774
H44	H	0.648260	0.818670	0.818213
O45	O	0.831752	1.160079	1.158659
H46	H	0.783185	1.202317	1.200797
O47	O	1.070931	0.978626	0.977710
H48	H	1.095763	1.074843	0.959012
H49	H	0.960590	1.092629	1.091368
H50	H	0.648342	1.097519	1.096273
O51	O	0.679181	0.734677	0.734469
H52	H	0.654315	0.662598	0.662608
