data_functionalizedCrystal
_audit_creation_method	'MofGen! by Chris Wilmer'
_symmetry_space_group_name_H-M	'P1'
_symmetry_Int_Tables_number	1
_symmetry_cell_setting	triclinic
loop_
_symmetry_equiv_pos_as_xyz
  x,y,z
_cell_length_a	12.759401
_cell_length_b	13.031981
_cell_length_c	13.032268
_cell_angle_alpha	89.068348
_cell_angle_beta	97.165299
_cell_angle_gamma	97.192388
loop_
_atom_site_label
_atom_site_type_symbol
_atom_site_fract_x
_atom_site_fract_y
_atom_site_fract_z
Zn1	Zn	1.476930	-0.483306	-0.529354
Zn2	Zn	1.810263	-0.149973	-0.196021
Zn3	Zn	2.143597	0.183361	0.137313
Zn4	Zn	1.482416	-0.633494	-0.335525
Zn5	Zn	1.815749	-0.300160	-0.002191
Zn6	Zn	2.149083	0.033173	0.331142
Zn7	Zn	1.325982	-0.461513	-0.357407
Zn8	Zn	1.659315	-0.128180	-0.024073
Zn9	Zn	1.992648	0.205153	0.309260
Zn10	Zn	1.282068	-0.655260	-0.507456
Zn11	Zn	1.615401	-0.321927	-0.174122
Zn12	Zn	1.948735	0.011406	0.159211
O13	O	1.391849	-0.558393	-0.432435
O14	O	1.725182	-0.225060	-0.099102
O15	O	2.058516	0.108273	0.234231
O16	O	1.624676	-0.503240	-0.503649
O17	O	1.958010	-0.169906	-0.170316
O18	O	2.291343	0.163427	0.163018
O19	O	1.482339	-0.592450	-0.194513
O20	O	1.815672	-0.259117	0.138820
O21	O	2.149005	0.074216	0.472153
O22	O	1.362087	-0.320466	-0.398538
O23	O	1.695421	0.012867	-0.065205
O24	O	2.028754	0.346200	0.268128
O25	O	1.628707	-0.613582	-0.361244
O26	O	1.962040	-0.280249	-0.027910
O27	O	2.295374	0.053085	0.305423
O28	O	1.472988	-0.336478	-0.524867
O29	O	1.806322	-0.003144	-0.191534
O30	O	2.139655	0.330189	0.141800
O31	O	1.367407	-0.466097	-0.210590
O32	O	1.700741	-0.132764	0.122743
O33	O	2.034074	0.200569	0.456077
O34	O	1.173138	-0.487203	-0.377304
O35	O	1.506471	-0.153870	-0.043971
O36	O	1.839804	0.179463	0.289362
O37	O	1.287243	-0.650680	-0.654274
O38	O	1.620576	-0.317347	-0.320941
O39	O	1.953909	0.015987	0.012392
O40	O	1.140874	-0.629548	-0.487544
O41	O	1.474208	-0.296215	-0.154211
O42	O	1.807541	0.037118	0.179122
O43	O	1.430407	-0.524346	-0.670363
O44	O	1.763740	-0.191013	-0.337030
O45	O	2.097074	0.142321	-0.003696
O46	O	1.439757	-0.780319	-0.340010
O47	O	1.773091	-0.446985	-0.006676
O48	O	2.106424	-0.113652	0.326657
O49	O	1.292562	-0.796311	-0.466326
O50	O	1.625896	-0.462977	-0.132993
O51	O	1.959229	-0.129644	0.200340
C52	C	1.118886	-0.558374	-0.432423
C53	C	1.452219	-0.225040	-0.099090
C54	C	1.785552	0.108293	0.234244
C55	C	1.002104	-0.558393	-0.432439
C56	C	1.335438	-0.225060	-0.099106
C57	C	1.668771	0.108273	0.234228
C58	C	0.945116	-0.501070	-0.506676
C59	C	1.278450	-0.167737	-0.173342
C60	C	1.611783	0.165597	0.159991
C61	C	0.835390	-0.501081	-0.506681
C62	C	1.168724	-0.167748	-0.173348
C63	C	1.502057	0.165585	0.159985
C64	C	0.839649	-0.615748	-0.358209
C65	C	1.172982	-0.282415	-0.024876
C66	C	1.506316	0.050919	0.308458
C67	C	0.949375	-0.615730	-0.358200
C68	C	1.282708	-0.282397	-0.024867
C69	C	1.616041	0.050937	0.308467
C70	C	1.362015	-0.825639	-0.398440
C71	C	1.695349	-0.492306	-0.065106
C72	C	2.028682	-0.158972	0.268227
C73	C	1.349343	-0.939972	-0.383930
C74	C	1.682677	-0.606639	-0.050597
C75	C	2.016010	-0.273306	0.282736
C76	C	1.398515	-0.998792	-0.440028
C77	C	1.731849	-0.665459	-0.106695
C78	C	2.065182	-0.332125	0.226638
C79	C	1.385420	-1.116961	-0.425034
C80	C	1.718753	-0.783628	-0.091700
C81	C	2.052086	-0.450295	0.241633
C82	C	1.665878	-0.558414	-0.432448
C83	C	1.999211	-0.225080	-0.099115
C84	C	2.332545	0.108253	0.234219
C85	C	1.782653	-0.558423	-0.432454
C86	C	2.115986	-0.225089	-0.099120
C87	C	2.449319	0.108244	0.234213
C88	C	1.353314	-0.592372	-0.700677
C89	C	1.686648	-0.259039	-0.367344
C90	C	2.019981	0.074295	-0.034011
C91	C	1.336893	-0.606851	-0.814986
C92	C	1.670227	-0.273518	-0.481653
C93	C	2.003560	0.059815	-0.148320
C94	C	1.421824	-0.290107	-0.466586
C95	C	1.755158	0.043226	-0.133253
C96	C	2.088491	0.376560	0.200080
C97	C	1.434598	-0.175779	-0.481139
C98	C	1.767932	0.157554	-0.147806
C99	C	2.101265	0.490887	0.185527
C100	C	1.400407	-0.550799	-0.873909
C101	C	1.733740	-0.217466	-0.540576
C102	C	2.067074	0.115867	-0.207242
C103	C	1.383437	-0.565763	-0.992054
C104	C	1.716770	-0.232430	-0.658720
C105	C	2.050103	0.100903	-0.325387
C106	C	1.430302	-0.524473	-0.165246
C107	C	1.763636	-0.191140	0.168087
C108	C	2.096969	0.142194	0.501421
C109	C	1.446959	-0.509704	-0.050975
C110	C	1.780292	-0.176370	0.282359
C111	C	2.113626	0.156963	0.615692
H112	H	0.796703	-0.662430	-0.297767
H113	H	1.130036	-0.329097	0.035566
H114	H	1.463369	0.004236	0.368899
F115	F	1.534472	-0.432503	-1.002598
F116	F	1.867805	-0.099170	-0.669265
F117	F	2.201139	0.234164	-0.335932
H118	H	1.333617	-1.154084	-0.365906
H119	H	1.666951	-0.820751	-0.032573
H120	H	2.000284	-0.487417	0.300760
F121	F	1.281639	-0.988494	-0.306649
F122	F	1.614972	-0.655161	0.026685
F123	F	1.948305	-0.321828	0.360018
H124	H	1.316486	-0.624827	-1.029070
H125	H	1.649819	-0.291494	-0.695736
H126	H	1.983152	0.041839	-0.362403
F127	F	1.001233	-0.440044	-0.585685
F128	F	1.334566	-0.106711	-0.252351
F129	F	1.667899	0.226623	0.080982
F130	F	1.249391	-0.684052	-0.863369
F131	F	1.582724	-0.350719	-0.530035
F132	F	1.916057	-0.017386	-0.196702
H133	H	0.995776	-0.662410	-0.297742
H134	H	1.329110	-0.329077	0.035592
H135	H	1.662443	0.004257	0.368925
F136	F	1.466203	-0.950272	-0.517325
F137	F	1.799536	-0.616938	-0.183991
F138	F	2.132870	-0.283605	0.149342
F139	F	1.502300	-1.127265	-0.558432
F140	F	1.835633	-0.793932	-0.225099
F141	F	2.168967	-0.460598	0.108235
H142	H	0.788996	-0.454401	-0.567131
H143	H	1.122329	-0.121068	-0.233798
H144	H	1.455662	0.212266	0.099536
H145	H	1.467344	-0.491729	-0.836890
H146	H	1.800677	-0.158396	-0.503557
H147	H	2.134010	0.174937	-0.170223
