data_functionalizedCrystal
_audit_creation_method	'MofGen! by Chris Wilmer'
_symmetry_space_group_name_H-M	'P1'
_symmetry_Int_Tables_number	1
_symmetry_cell_setting	triclinic
loop_
_symmetry_equiv_pos_as_xyz
  x,y,z
_cell_length_a	19.805405
_cell_length_b	19.805407
_cell_length_c	19.805399
_cell_angle_alpha	90.019573
_cell_angle_beta	90.029301
_cell_angle_gamma	90.026410
loop_
_atom_site_label
_atom_site_type_symbol
_atom_site_fract_x
_atom_site_fract_y
_atom_site_fract_z
Zn1	Zn	-0.269479	1.034736	0.382712
Zn2	Zn	0.230521	1.534736	0.882712
Zn3	Zn	-0.382667	1.034651	0.269520
Zn4	Zn	0.117333	1.534651	0.769520
Zn5	Zn	-0.269498	0.921550	0.269536
Zn6	Zn	0.230502	1.421550	0.769536
Zn7	Zn	-0.382631	0.921514	0.382667
Zn8	Zn	0.117369	1.421514	0.882667
O9	O	-0.326069	0.978113	0.326109
O10	O	0.173931	1.478113	0.826109
O11	O	-0.284501	1.129441	0.367708
O12	O	0.215499	1.629441	0.867708
O13	O	-0.367678	1.019627	0.174805
O14	O	0.132322	1.519627	0.674805
O15	O	-0.174778	0.936616	0.284575
O16	O	0.325222	1.436616	0.784575
O17	O	-0.367660	1.129378	0.284547
O18	O	0.132340	1.629378	0.784547
O19	O	-0.174765	1.019772	0.367724
O20	O	0.325235	1.519772	0.867724
O21	O	-0.284533	0.936533	0.174817
O22	O	0.215467	1.436533	0.674817
O23	O	-0.284498	0.826829	0.284531
O24	O	0.215502	1.326829	0.784531
O25	O	-0.367598	0.936553	0.477389
O26	O	0.132402	1.436553	0.977389
O27	O	-0.367617	0.826802	0.367648
O28	O	0.132383	1.326802	0.867648
O29	O	-0.284466	1.019737	0.477422
O30	O	0.215534	1.519737	0.977422
O31	O	-0.477379	1.019592	0.284503
O32	O	0.022621	1.519592	0.784503
O33	O	-0.477353	0.936471	0.367632
O34	O	0.022647	1.436471	0.867632
C35	C	-0.326056	0.802257	0.326087
C36	C	0.173944	1.302257	0.826087
C37	C	-0.326067	0.727025	0.326093
C38	C	0.173933	1.227025	0.826093
C39	C	-0.501925	0.978036	0.326076
C40	C	-0.001925	1.478036	0.826076
C41	C	-0.577157	0.978066	0.326084
C42	C	-0.077157	1.478066	0.826084
C43	C	-0.369412	0.691684	0.369302
C44	C	0.130588	1.191684	0.869302
C45	C	-0.369413	0.620996	0.369312
C46	C	0.130587	1.120996	0.869312
C47	C	-0.326072	0.585649	0.326109
C48	C	0.173928	1.085649	0.826109
C49	C	-0.282722	0.620994	0.282898
C50	C	0.217278	1.120994	0.782898
C51	C	-0.282718	0.691681	0.282892
C52	C	0.217282	1.191681	0.782892
C53	C	-0.282737	0.335921	0.282920
C54	C	0.217263	0.835921	0.782920
C55	C	-0.282746	0.265229	0.282928
C56	C	0.217254	0.765229	0.782928
C57	C	-0.369432	0.265235	0.369340
C58	C	0.130568	0.765235	0.869340
C59	C	-0.369428	0.335922	0.369334
C60	C	0.130572	0.835922	0.869334
C61	C	-0.326076	0.371262	0.326126
C62	C	0.173924	0.871262	0.826126
C63	C	-0.326074	0.447910	0.326117
C64	C	0.173926	0.947910	0.826117
C65	C	-0.326076	0.509002	0.326114
C66	C	0.173924	1.009002	0.826114
C67	C	-0.612492	1.021389	0.282845
C68	C	-0.112492	1.521389	0.782845
C69	C	-0.683181	1.021418	0.282860
C70	C	-0.183181	1.521418	0.782860
C71	C	-0.718532	0.978119	0.326111
C72	C	-0.218532	1.478119	0.826111
C73	C	-0.683192	0.934794	0.369356
C74	C	-0.183192	1.434794	0.869356
C75	C	-0.612505	0.934769	0.369344
C76	C	-0.112505	1.434769	0.869344
C77	C	-0.968265	0.934894	0.369406
C78	C	-0.468265	1.434894	0.869406
C79	C	-1.038957	0.934921	0.369413
C80	C	-0.538957	1.434921	0.869413
C81	C	-1.038941	1.021542	0.282922
C82	C	-0.538941	1.521542	0.782922
C83	C	-0.968254	1.021517	0.282910
C84	C	-0.468254	1.521517	0.782910
C85	C	-0.932920	0.978195	0.326157
C86	C	-0.432920	1.478195	0.826157
C87	C	-0.856271	0.978166	0.326141
C88	C	-0.356271	1.478166	0.826141
C89	C	-0.795179	0.978145	0.326124
C90	C	-0.295179	1.478145	0.826124
C91	C	-0.149526	0.978207	0.326156
C92	C	0.350474	1.478207	0.826156
C93	C	-0.074294	0.978248	0.326177
C94	C	0.425706	1.478248	0.826177
C95	C	-0.326026	0.978151	0.502651
C96	C	0.173974	1.478151	1.002651
C97	C	-0.326008	0.978167	0.577883
C98	C	0.173992	1.478167	1.077883
C99	C	-0.326082	1.154655	0.326131
C100	C	0.173918	1.654655	0.826131
C101	C	-0.326088	1.229887	0.326140
C102	C	0.173912	1.729887	0.826140
C103	C	-0.326062	0.978114	0.150253
C104	C	0.173938	1.478114	0.650253
C105	C	-0.325890	0.978229	0.075021
C106	C	0.174110	1.478229	0.575021
C107	C	-0.282719	1.021481	0.613246
C108	C	0.217281	1.521481	1.113246
C109	C	-0.282699	1.021488	0.683934
C110	C	0.217301	1.521488	1.183934
C111	C	-0.325973	0.978184	0.719259
C112	C	0.174027	1.478184	1.219259
C113	C	-0.369264	0.934864	0.683892
C114	C	0.130736	1.434864	1.183892
C115	C	-0.369279	0.934854	0.613204
C116	C	0.130721	1.434854	1.113204
C117	C	-0.369201	0.934902	0.968965
C118	C	0.130799	1.434902	1.468965
C119	C	-0.369183	0.934917	1.039657
C120	C	0.130817	1.434917	1.539657
C121	C	-0.282620	1.021536	1.039695
C122	C	0.217380	1.521536	1.539695
C123	C	-0.282636	1.021527	0.969008
C124	C	0.217364	1.521527	1.469008
C125	C	-0.325924	0.978205	0.933647
C126	C	0.174076	1.478205	1.433647
C127	C	-0.325944	0.978197	0.856998
C128	C	0.174056	1.478197	1.356998
C129	C	-0.325957	0.978194	0.795906
C130	C	0.174043	1.478194	1.295906
H131	H	-0.404707	0.720458	0.404481
H132	H	0.095293	1.220458	0.904481
H133	H	-0.247448	0.236452	0.247747
H134	H	0.252552	0.736452	0.747747
C135	C	-0.235040	0.730559	0.235364
C136	C	0.264960	1.230559	0.735364
H137	H	-0.241239	0.777720	0.241553
H138	H	0.258761	1.277720	0.741553
H139	H	-0.244883	0.718953	0.189869
H140	H	0.255117	1.218953	0.689869
H141	H	-0.189575	0.718995	0.245361
H142	H	0.310425	1.218995	0.745361
H143	H	-0.247370	1.056809	1.068495
H144	H	0.252630	1.556809	1.568495
C145	C	-0.722077	0.887165	0.416930
C146	C	-0.222077	1.387165	0.916930
H147	H	-0.769237	0.893379	0.410740
H148	H	-0.269237	1.393379	0.910740
H149	H	-0.710455	0.897037	0.462416
H150	H	-0.210455	1.397037	0.962416
H151	H	-0.710534	0.841689	0.406974
H152	H	-0.210534	1.341689	0.906974
H153	H	-0.711948	1.056695	0.247649
H154	H	-0.211948	1.556695	0.747649
C155	C	-0.416802	0.887237	0.930077
C156	C	0.083198	1.387237	1.430077
H157	H	-0.442570	0.861449	0.961241
H158	H	0.057430	1.361449	1.461241
H159	H	-0.390899	0.857760	0.902513
H160	H	0.109101	1.357760	1.402513
H161	H	-0.446311	0.913094	0.902489
H162	H	0.053689	1.413094	1.402489
C163	C	-1.077846	0.887297	0.416996
C164	C	-0.577846	1.387297	0.916996
H165	H	-1.125005	0.893513	0.410802
H166	H	-0.625005	1.393513	0.910802
H167	H	-1.066226	0.897175	0.462480
H168	H	-0.566226	1.397175	0.962480
H169	H	-1.066306	0.841817	0.407047
H170	H	-0.566306	1.341817	0.907047
H171	H	-0.247442	0.364686	0.247733
H172	H	0.252558	0.864686	0.747733
H173	H	-1.067719	1.056820	0.247711
H174	H	-0.567719	1.556820	0.747711
C175	C	-0.929406	0.887230	0.416963
C176	C	-0.429406	1.387230	0.916963
H177	H	-0.960586	0.861441	0.442715
H178	H	-0.460586	1.361441	0.942715
H179	H	-0.901787	0.913085	0.446479
H180	H	-0.401787	1.413085	0.946479
H181	H	-0.901877	0.857744	0.391030
H182	H	-0.401877	1.357744	0.891030
H183	H	-0.404495	0.899602	0.712659
H184	H	0.095505	1.399602	1.212659
C185	C	-0.235033	1.069159	0.930154
C186	C	0.264967	1.569159	1.430154
H187	H	-0.209243	1.094953	0.961339
H188	H	0.290757	1.594953	1.461339
H189	H	-0.260930	1.098633	0.902575
H190	H	0.239070	1.598633	1.402575
H191	H	-0.205545	1.043272	0.902585
H192	H	0.294455	1.543272	1.402585
C193	C	-0.235050	0.582115	0.235373
C194	C	0.264950	1.082115	0.735373
H195	H	-0.241265	0.534954	0.241559
H196	H	0.258735	1.034954	0.741559
H197	H	-0.189584	0.593719	0.245358
H198	H	0.310416	1.093719	0.745358
H199	H	-0.244902	0.593679	0.189876
H200	H	0.255098	1.093679	0.689876
H201	H	-0.404709	0.592225	0.404496
H202	H	0.095291	1.092225	0.904496
C203	C	-0.416781	0.887275	1.078514
C204	C	0.083219	1.387275	1.578514
H205	H	-0.442560	0.861467	1.047330
H206	H	0.057440	1.361467	1.547330
H207	H	-0.446270	0.913152	1.106085
H208	H	0.053730	1.413152	1.606085
H209	H	-0.390872	0.857804	1.106090
H210	H	0.109128	1.357804	1.606090
C211	C	-0.573611	1.069019	0.235268
C212	C	-0.073611	1.569019	0.735268
H213	H	-0.604783	1.094829	0.209524
H214	H	-0.104783	1.594829	0.709524
H215	H	-0.546076	1.043138	0.205747
H216	H	-0.046076	1.543138	0.705747
H217	H	-0.545997	1.098487	0.261188
H218	H	-0.045997	1.598487	0.761188
C219	C	-0.235119	1.069117	0.574392
C220	C	0.264881	1.569117	1.074392
H221	H	-0.241331	1.062913	0.527228
H222	H	0.258669	1.562913	1.027228
H223	H	-0.189639	1.059238	0.585987
H224	H	0.310361	1.559238	1.085987
H225	H	-0.245030	1.114592	0.585984
H226	H	0.254970	1.614592	1.085984
C227	C	-0.929370	1.069148	0.235336
C228	C	-0.429370	1.569148	0.735336
H229	H	-0.960540	1.094959	0.209590
H230	H	-0.460540	1.594959	0.709590
H231	H	-0.901834	1.043267	0.205815
H232	H	-0.401834	1.543267	0.705815
H233	H	-0.901757	1.098615	0.261258
H234	H	-0.401757	1.598615	0.761258
C235	C	-0.417101	0.374800	0.416859
C236	C	0.082899	0.874800	0.916859
H237	H	-0.442912	0.343628	0.442600
H238	H	0.057088	0.843628	0.942600
H239	H	-0.446556	0.402355	0.390915
H240	H	0.053444	0.902355	0.890915
H241	H	-0.391238	0.402396	0.446397
H242	H	0.108762	0.902396	0.946397
C243	C	-0.573636	0.887115	0.416908
C244	C	-0.073636	1.387115	0.916908
H245	H	-0.604813	0.861328	0.442666
H246	H	-0.104813	1.361328	0.942666
H247	H	-0.546021	0.912983	0.446418
H248	H	-0.046021	1.412983	0.946418
H249	H	-0.546101	0.857626	0.390984
H250	H	-0.046101	1.357626	0.890984
C251	C	-0.416914	0.887225	0.574306
C252	C	0.083086	1.387225	1.074306
H253	H	-0.442693	0.861444	0.605467
H254	H	0.057307	1.361444	1.105467
H255	H	-0.391040	0.857739	0.546724
H256	H	0.108960	1.357739	1.046724
H257	H	-0.446411	0.913115	0.546736
H258	H	0.053589	1.413115	1.046736
C259	C	-0.235099	1.069150	0.722833
C260	C	0.264901	1.569150	1.222833
H261	H	-0.241285	1.062954	0.769991
H262	H	0.258715	1.562954	1.269991
H263	H	-0.245027	1.114615	0.711248
H264	H	0.254973	1.614615	1.211248
H265	H	-0.189616	1.059280	0.711265
H266	H	0.310384	1.559280	1.211265
H267	H	-0.404729	0.236454	0.404524
H268	H	0.095271	0.736454	0.904524
