data_functionalizedCrystal
_audit_creation_method	'MofGen! by Chris Wilmer'
_symmetry_space_group_name_H-M	'P1'
_symmetry_Int_Tables_number	1
_symmetry_cell_setting	triclinic
loop_
_symmetry_equiv_pos_as_xyz
  x,y,z
_cell_length_a	19.188930
_cell_length_b	26.210047
_cell_length_c	19.188930
_cell_angle_alpha	89.999369
_cell_angle_beta	96.855221
_cell_angle_gamma	90.022886
loop_
_atom_site_label
_atom_site_type_symbol
_atom_site_fract_x
_atom_site_fract_y
_atom_site_fract_z
O1	O	0.926151	0.042599	-0.087158
O2	O	1.426151	0.542599	0.412842
O3	O	0.722839	0.042564	-0.098892
O4	O	1.222839	0.542564	0.401108
O5	O	0.830362	0.042573	0.008631
O6	O	1.330362	0.542573	0.508631
O7	O	0.818628	0.042591	-0.194680
O8	O	1.318628	0.542591	0.305320
O9	O	0.830341	-0.042285	0.008614
O10	O	1.330341	0.457715	0.508614
O11	O	0.722819	-0.042294	-0.098909
O12	O	1.222819	0.457706	0.401091
O13	O	0.926130	-0.042259	-0.087174
O14	O	1.426130	0.457741	0.412826
Cu15	Cu	0.824472	-0.050025	-0.093043
Cu16	Cu	1.324472	0.449975	0.406957
Cu17	Cu	0.824497	0.050330	-0.093023
Cu18	Cu	1.324497	0.550330	0.406977
O19	O	0.818607	-0.042267	-0.194697
O20	O	1.318607	0.457733	0.305303
C21	C	0.696818	0.000131	-0.098520
C22	C	1.196818	0.500131	0.401480
C23	C	0.619313	0.000117	-0.097380
C24	C	1.119313	0.500117	0.402620
N25	N	0.824460	-0.120609	-0.093056
N26	N	1.324460	0.379391	0.406944
C27	C	0.574389	0.000131	-0.160470
C28	C	1.074389	0.500131	0.339530
C29	C	0.501566	0.000137	-0.159399
C30	C	1.001566	0.500137	0.340601
C31	C	0.473669	0.000139	-0.095233
C32	C	0.973669	0.500139	0.404767
C33	C	0.518603	0.000122	-0.032133
C34	C	1.018603	0.500122	0.467867
C35	C	0.591425	0.000112	-0.033207
C36	C	1.091425	0.500112	0.466793
N37	N	0.365696	0.029036	-0.046180
N38	N	0.865696	0.529036	0.453820
N39	N	0.296517	0.029047	-0.045164
N40	N	0.796517	0.529047	0.454836
C41	C	0.254260	0.000170	-0.091994
C42	C	0.754260	0.500170	0.408006
N43	N	0.283794	-0.028713	-0.139889
N44	N	0.783794	0.471287	0.360111
N45	N	0.352979	-0.028722	-0.140906
N46	N	0.852979	0.471278	0.359094
C47	C	0.394707	0.000150	-0.094061
C48	C	0.894707	0.500150	0.405939
C49	C	0.130372	0.000188	-0.153928
C50	C	0.630372	0.500188	0.346072
C51	C	0.057547	0.000191	-0.152853
C52	C	0.557547	0.500191	0.347147
C53	C	0.074586	0.000182	-0.025586
C54	C	0.574586	0.500182	0.474414
C55	C	0.147409	0.000174	-0.026662
C56	C	0.647409	0.500174	0.473338
C57	C	0.175298	0.000180	-0.090835
C58	C	0.675298	0.500180	0.409165
C59	C	0.872103	-0.473119	-0.045423
C60	C	1.372103	0.026881	0.454577
C61	C	0.872118	-0.686778	-0.045413
C62	C	1.372118	-0.186778	0.454587
O63	O	0.912599	-0.714396	-0.004916
O64	O	1.412599	-0.214396	0.495084
N65	N	0.824501	-0.713503	-0.093008
N66	N	1.324501	-0.213503	0.406992
C67	C	0.776872	-0.686809	-0.140605
C68	C	1.276872	-0.186809	0.359395
O69	O	0.736366	-0.714443	-0.181083
O70	O	1.236366	-0.214443	0.318917
C71	C	0.776854	-0.473152	-0.140611
C72	C	1.276854	0.026848	0.359389
C73	C	0.824480	-0.446430	-0.093018
C74	C	1.324480	0.053570	0.406982
C75	C	0.919724	-0.446397	0.002167
C76	C	1.419724	0.053603	0.502167
C77	C	0.919723	-0.392985	0.002162
C78	C	1.419723	0.107015	0.502162
C79	C	0.872099	-0.366296	-0.045434
C80	C	1.372099	0.133704	0.454566
C81	C	0.824478	-0.393018	-0.093023
C82	C	1.324478	0.106982	0.406977
C83	C	0.729223	-0.446460	-0.188205
C84	C	1.229223	0.053540	0.311795
C85	C	0.729222	-0.393042	-0.188201
C86	C	1.229222	0.106958	0.311799
C87	C	0.776848	-0.366320	-0.140608
C88	C	1.276848	0.133680	0.359392
C89	C	0.776853	-0.312918	-0.140624
C90	C	1.276853	0.187082	0.359376
N91	N	0.824471	-0.286193	-0.093029
N92	N	1.324471	0.213807	0.406971
C93	C	0.872094	-0.312882	-0.045434
C94	C	1.372094	0.187118	0.454566
C95	C	0.776886	-0.798983	-0.140600
C96	C	1.276886	-0.298983	0.359400
C97	C	0.776891	-0.852397	-0.140599
C98	C	1.276891	-0.352397	0.359401
C99	C	0.872137	-0.852361	-0.045406
C100	C	1.372137	-0.352361	0.454594
C101	C	0.872134	-0.798946	-0.045410
C102	C	1.372134	-0.298946	0.454590
C103	C	0.824504	-0.772258	-0.093005
C104	C	1.324504	-0.272258	0.406995
C105	C	0.872087	-0.200714	-0.045450
C106	C	1.372087	0.299286	0.454550
C107	C	0.872083	-0.147298	-0.045461
C108	C	1.372083	0.352702	0.454539
C109	C	0.776836	-0.147338	-0.140652
C110	C	1.276836	0.352662	0.359348
C111	C	0.776842	-0.200750	-0.140643
C112	C	1.276842	0.299250	0.359357
C113	C	0.824470	-0.227436	-0.093036
C114	C	1.324470	0.272564	0.406964
O115	O	0.736388	-0.285266	-0.181094
O116	O	1.236388	0.214734	0.318906
O117	O	0.912584	-0.285239	-0.004953
O118	O	1.412584	0.214761	0.495047
C119	C	0.872105	-0.526530	-0.045417
C120	C	1.372105	-0.026530	0.454583
C121	C	0.824484	-0.553253	-0.093007
C122	C	1.324484	-0.053253	0.406993
C123	C	0.776860	-0.526563	-0.140602
C124	C	1.276860	-0.026563	0.359398
C125	C	0.824489	-0.606667	-0.093007
C126	C	1.324489	-0.106667	0.406993
C127	C	0.872112	-0.633356	-0.045411
C128	C	1.372112	-0.133356	0.454589
C129	C	0.919730	-0.606631	0.002183
C130	C	1.419730	-0.106631	0.502183
C131	C	0.919728	-0.553220	0.002178
C132	C	1.419728	-0.053220	0.502178
C133	C	0.729243	-0.553288	-0.188197
C134	C	1.229243	-0.053288	0.311803
C135	C	0.729249	-0.606700	-0.188188
C136	C	1.229249	-0.106700	0.311812
C137	C	0.776872	-0.633389	-0.140593
C138	C	1.276872	-0.133389	0.359407
C139	C	0.952151	0.000175	-0.087546
C140	C	1.452151	0.500175	0.412454
C141	C	1.029656	0.000192	-0.088687
C142	C	1.529656	0.500192	0.411313
C143	C	0.829972	0.000142	0.034634
C144	C	1.329972	0.500142	0.534634
C145	C	0.828831	0.000137	0.112138
C146	C	1.328831	0.500137	0.612138
N147	N	0.824515	0.120914	-0.093004
N148	N	1.324515	0.620914	0.406996
C149	C	0.818997	0.000164	-0.220700
C150	C	1.318997	0.500164	0.279300
C151	C	0.820138	0.000172	-0.298204
C152	C	1.320138	0.500172	0.201796
C153	C	0.891922	0.000146	0.157062
C154	C	1.391922	0.500146	0.657062
C155	C	0.890850	0.000154	0.229886
C156	C	1.390850	0.500154	0.729886
C157	C	0.826684	0.000143	0.257782
C158	C	1.326684	0.500143	0.757782
C159	C	0.763585	0.000138	0.212849
C160	C	1.263585	0.500138	0.712849
C161	C	0.764658	0.000135	0.140026
C162	C	1.264658	0.500135	0.640026
N163	N	0.777630	-0.028744	0.365782
N164	N	1.277630	0.471256	0.865782
N165	N	0.776614	-0.028742	0.434960
N166	N	1.276614	0.471258	0.934960
C167	C	0.823446	0.000153	0.477191
C168	C	1.323446	0.500153	0.977191
N169	N	0.871342	0.029040	0.447631
N170	N	1.371342	0.529040	0.947631
N171	N	0.872360	0.029036	0.378447
N172	N	1.372360	0.529036	0.878447
C173	C	0.825513	0.000147	0.336745
C174	C	1.325513	0.500147	0.836745
C175	C	0.885379	0.000171	0.601079
C176	C	1.385379	0.500171	1.101079
C177	C	0.884305	0.000182	0.673904
C178	C	1.384305	0.500182	1.173904
C179	C	0.757038	0.000161	0.656865
C180	C	1.257038	0.500161	1.156865
C181	C	0.758114	0.000155	0.584042
C182	C	1.258114	0.500155	1.084042
C183	C	0.822287	0.000157	0.556154
C184	C	1.322287	0.500157	1.056154
H185	H	0.597091	0.000137	-0.212725
H186	H	1.097091	0.500137	0.287275
H187	H	0.937632	0.000175	0.578372
H188	H	1.437632	0.500175	1.078372
C189	C	0.635107	-0.558699	-0.282293
C190	C	1.135107	-0.058699	0.217707
C191	C	0.676895	-0.523956	-0.240523
C192	C	1.176895	-0.023956	0.259477
H193	H	0.602793	-0.540592	-0.314603
H194	H	1.102793	-0.040592	0.185397
H195	H	0.610085	-0.579536	-0.253288
H196	H	1.110085	-0.079536	0.246712
H197	H	0.664104	-0.579527	-0.307325
H198	H	1.164104	-0.079527	0.192675
H199	H	0.647898	-0.503131	-0.215487
H200	H	1.147898	-0.003131	0.284513
H201	H	0.701919	-0.503111	-0.269532
H202	H	1.201919	-0.003111	0.230468
C203	C	0.635073	-0.398447	-0.282294
C204	C	1.135073	0.101553	0.217706
C205	C	0.676867	-0.363707	-0.240524
C206	C	1.176867	0.136293	0.259476
H207	H	0.602757	-0.380336	-0.314599
H208	H	1.102757	0.119664	0.185401
H209	H	0.610053	-0.419284	-0.253288
H210	H	1.110053	0.080716	0.246712
H211	H	0.664066	-0.419274	-0.307332
H212	H	1.164066	0.080726	0.192668
H213	H	0.647875	-0.342882	-0.215481
H214	H	1.147875	0.157118	0.284519
H215	H	0.701889	-0.342860	-0.269534
H216	H	1.201889	0.157140	0.230466
C217	C	0.945707	0.000161	0.349086
C218	C	1.445707	0.500161	0.849086
C219	C	0.960204	0.000159	0.279279
C220	C	1.460204	0.500159	0.779279
H221	H	0.988524	0.000166	0.379577
H222	H	1.488524	0.500166	0.879577
H223	H	0.919378	-0.029431	0.357515
H224	H	1.419378	0.470569	0.857515
H225	H	0.919398	0.029753	0.357512
H226	H	1.419398	0.529753	0.857512
H227	H	0.986508	-0.029435	0.270852
H228	H	1.486508	0.470565	0.770852
H229	H	0.986544	0.029754	0.270848
H230	H	1.486544	0.529754	0.770848
C231	C	0.681804	-0.738952	-0.156011
C232	C	1.181804	-0.238952	0.343989
C233	C	0.724534	-0.769650	-0.192927
C234	C	1.224534	-0.269650	0.307073
H235	H	0.649485	-0.720848	-0.188319
H236	H	1.149485	-0.220848	0.311681
H237	H	0.710158	-0.715391	-0.127674
H238	H	1.210158	-0.215391	0.372326
H239	H	0.656783	-0.759802	-0.127011
H240	H	1.156783	-0.259802	0.372989
H241	H	0.749559	-0.748800	-0.221923
H242	H	1.249559	-0.248800	0.278077
H243	H	0.696177	-0.793214	-0.221276
H244	H	1.196177	-0.293214	0.278724
C245	C	0.966236	-0.195299	0.048643
C246	C	1.466236	0.304701	0.548643
C247	C	0.924442	-0.230043	0.006879
C248	C	1.424442	0.269957	0.506879
H249	H	0.998560	-0.213406	0.080943
H250	H	1.498560	0.286594	0.580943
H251	H	0.937248	-0.174475	0.073680
H252	H	1.437248	0.325525	0.573680
H253	H	0.991252	-0.174458	0.019627
H254	H	1.491252	0.325542	0.519627
H255	H	0.899421	-0.250881	0.035895
H256	H	1.399421	0.249119	0.535895
H257	H	0.953433	-0.250875	-0.018160
H258	H	1.453433	0.249125	0.481840
C259	C	0.234440	0.000178	-0.212083
C260	C	0.734440	0.500178	0.287917
C261	C	0.161034	0.000186	-0.224463
C262	C	0.661034	0.500186	0.275537
H263	H	0.253366	0.000178	-0.255630
H264	H	0.753366	0.500178	0.244370
H265	H	0.249846	-0.029414	-0.186121
H266	H	0.749846	0.470586	0.313879
H267	H	0.249891	0.029770	-0.186112
H268	H	0.749891	0.529770	0.313888
H269	H	0.145583	-0.029409	-0.250430
H270	H	0.645583	0.470591	0.249570
H271	H	0.145622	0.029780	-0.250437
H272	H	0.645622	0.529780	0.249563
C273	C	0.688565	0.043747	0.284864
C274	C	1.188565	0.543747	0.784864
C275	C	0.693053	0.000126	0.243512
C276	C	1.193053	0.500126	0.743512
H277	H	0.645021	0.043738	0.303796
H278	H	1.145021	0.543738	0.803796
H279	H	0.691633	0.073333	0.256808
H280	H	1.191633	0.573333	0.756808
H281	H	0.725992	0.043747	0.322041
H282	H	1.225992	0.543747	0.822041
H283	H	0.655629	0.000127	0.206331
H284	H	1.155629	0.500127	0.706331
H285	H	0.689978	-0.029468	0.271569
H286	H	1.189978	0.470532	0.771569
H287	H	0.935683	0.000191	0.710481
H288	H	1.435683	0.500191	1.210481
H289	H	0.738068	-0.222507	-0.179404
H290	H	1.238068	0.277493	0.320596
C291	C	0.735455	-0.130894	-0.261625
C292	C	1.235455	0.369106	0.238375
C293	C	0.724490	-0.117993	-0.192965
C294	C	1.224490	0.382007	0.307035
H295	H	0.703139	-0.112773	-0.293917
H296	H	1.203139	0.387227	0.206083
H297	H	0.728633	-0.166524	-0.268436
H298	H	1.228633	0.333476	0.231564
H299	H	0.782028	-0.122125	-0.269088
H300	H	1.282028	0.377875	0.230912
H301	H	0.677918	-0.126765	-0.185501
H302	H	1.177918	0.373235	0.314499
H303	H	0.731306	-0.082354	-0.186151
H304	H	1.231306	0.417646	0.313849
H305	H	0.713281	0.000128	0.103449
H306	H	1.213281	0.500128	0.603449
H307	H	0.704792	0.000155	0.679578
H308	H	1.204792	0.500155	1.179578
C309	C	0.632213	0.000127	0.574518
C310	C	1.132213	0.500127	1.074518
C311	C	0.688761	0.000137	0.534657
C312	C	1.188761	0.500137	1.034657
H313	H	0.589396	0.000114	0.544028
H314	H	1.089396	0.500114	1.044028
H315	H	0.634445	0.029720	0.603270
H316	H	1.134445	0.529720	1.103270
H317	H	0.634440	-0.029464	0.603281
H318	H	1.134440	0.470536	1.103281
H319	H	0.686536	0.029730	0.505897
H320	H	1.186536	0.529730	1.005897
H321	H	0.686527	-0.029459	0.505892
H322	H	1.186527	0.470541	1.005892
C323	C	0.492031	0.000163	-0.285304
C324	C	0.992031	0.500163	0.214696
C325	C	0.452173	0.000159	-0.228753
C326	C	0.952173	0.500159	0.271247
H327	H	0.461538	0.000181	-0.328119
H328	H	0.961538	0.500181	0.171881
H329	H	0.520757	-0.029434	-0.283092
H330	H	1.020757	0.470566	0.216908
H331	H	0.520820	0.029750	-0.283059
H332	H	1.020820	0.529750	0.216941
H333	H	0.423388	-0.029431	-0.230995
H334	H	0.923388	0.470569	0.269005
H335	H	0.423435	0.029758	-0.230966
H336	H	0.923435	0.529758	0.269034
H337	H	0.495885	0.000131	0.020111
H338	H	0.995885	0.500131	0.520111
C339	C	0.600951	0.000105	0.092698
C340	C	1.100951	0.500105	0.592698
C341	C	0.640811	0.000103	0.036148
C342	C	1.140811	0.500103	0.536148
H343	H	0.631442	0.000104	0.135513
H344	H	1.131442	0.500104	0.635513
H345	H	0.572174	-0.029482	0.090466
H346	H	1.072174	0.470518	0.590466
H347	H	0.572212	0.029702	0.090470
H348	H	1.072212	0.529702	0.590470
H349	H	0.669545	-0.029496	0.038373
H350	H	1.169545	0.470504	0.538373
H351	H	0.669600	0.029693	0.038381
H352	H	1.169600	0.529693	0.538381
H353	H	0.020970	0.000199	-0.204232
H354	H	0.520970	0.500199	0.295768
H355	H	0.958509	-0.531466	0.040933
H356	H	1.458509	-0.031466	0.540933
C357	C	-0.029475	0.000200	0.032568
C358	C	0.470525	0.500200	0.532568
C359	C	0.043931	0.000187	0.044948
C360	C	0.543931	0.500187	0.544948
H361	H	-0.048401	0.000205	0.076115
H362	H	0.451599	0.500205	0.576115
H363	H	-0.044930	-0.029388	0.006601
H364	H	0.455070	0.470612	0.506601
H365	H	-0.044878	0.029796	0.006602
H366	H	0.455122	0.529796	0.506602
H367	H	0.059334	-0.029412	0.070910
H368	H	0.559334	0.470588	0.570910
H369	H	0.059392	0.029777	0.070926
H370	H	0.559392	0.529777	0.570926
H371	H	0.183988	0.000166	0.024713
H372	H	0.683988	0.500166	0.524713
H373	H	0.910868	-0.125542	-0.006705
H374	H	1.410868	0.374458	0.493295
C375	C	0.935166	-0.666695	0.097242
C376	C	1.435166	-0.166695	0.597242
C377	C	0.972075	-0.635975	0.054504
C378	C	1.472075	-0.135975	0.554504
H379	H	0.967478	-0.684810	0.129545
H380	H	1.467478	-0.184810	0.629545
H381	H	0.906809	-0.690247	0.068893
H382	H	1.406809	-0.190247	0.568893
H383	H	0.906186	-0.645859	0.122283
H384	H	1.406186	-0.145859	0.622283
H385	H	1.001051	-0.656812	0.029460
H386	H	1.501051	-0.156812	0.529460
H387	H	1.000444	-0.612420	0.082858
H388	H	1.500444	-0.112420	0.582858
C389	C	1.013858	-0.398332	0.096261
C390	C	1.513858	0.101668	0.596261
C391	C	0.972067	-0.363617	0.054486
C392	C	1.472067	0.136383	0.554486
H393	H	1.046170	-0.380203	0.128569
H394	H	1.546170	0.119797	0.628569
H395	H	1.038883	-0.419154	0.067258
H396	H	1.538883	0.080846	0.567258
H397	H	0.984862	-0.419177	0.121295
H398	H	1.484862	0.080823	0.621295
H399	H	1.001062	-0.342774	0.029448
H400	H	1.501062	0.157226	0.529448
H401	H	0.947040	-0.342786	0.083492
H402	H	1.447040	0.157214	0.583492
H403	H	0.958505	-0.468123	0.040928
H404	H	1.458505	0.031877	0.540928
C405	C	0.966278	-0.804289	0.048683
C406	C	1.466278	-0.304289	0.548683
C407	C	0.924480	-0.769576	0.006911
C408	C	1.424480	-0.269576	0.506911
H409	H	0.998591	-0.786158	0.080988
H410	H	1.498591	-0.286158	0.580988
H411	H	0.991301	-0.825110	0.019678
H412	H	1.491301	-0.325110	0.519678
H413	H	0.937287	-0.825135	0.073720
H414	H	1.437287	-0.325135	0.573720
H415	H	0.953471	-0.748732	-0.018131
H416	H	1.453471	-0.248732	0.481869
H417	H	0.899455	-0.748746	0.035919
H418	H	1.399455	-0.248746	0.535919
H419	H	0.690468	-0.628453	-0.226950
H420	H	1.190468	-0.128453	0.273050
H421	H	0.738118	-0.874150	-0.179361
H422	H	1.238118	-0.374150	0.320639
H423	H	0.910915	-0.874101	-0.006653
H424	H	1.410915	-0.374101	0.493347
H425	H	0.690442	-0.468210	-0.226959
H426	H	1.190442	0.031790	0.273041
H427	H	0.944176	0.000149	0.134360
H428	H	1.444176	0.500149	0.634360
