data_functionalizedCrystal
_audit_creation_method	'MofGen! by Chris Wilmer'
_symmetry_space_group_name_H-M	'P1'
_symmetry_Int_Tables_number	1
_symmetry_cell_setting	triclinic
loop_
_symmetry_equiv_pos_as_xyz
  x,y,z
_cell_length_a	19.077236
_cell_length_b	18.101395
_cell_length_c	19.077174
_cell_angle_alpha	92.274090
_cell_angle_beta	85.294282
_cell_angle_gamma	92.323924
loop_
_atom_site_label
_atom_site_type_symbol
_atom_site_fract_x
_atom_site_fract_y
_atom_site_fract_z
Zn1	Zn	1.093709	-0.267388	-0.441976
Zn2	Zn	1.593709	0.232612	0.058024
Zn3	Zn	1.088881	-0.386454	-0.324089
Zn4	Zn	1.588881	0.113546	0.175911
Zn5	Zn	0.971091	-0.267400	-0.319359
Zn6	Zn	1.471091	0.232600	0.180641
Zn7	Zn	0.975771	-0.395965	-0.437194
Zn8	Zn	1.475771	0.104035	0.062806
O9	O	1.032363	-0.329302	-0.380655
O10	O	1.532363	0.170698	0.119345
O11	O	1.191722	-0.279197	-0.430319
O12	O	1.691722	0.220803	0.069681
O13	O	1.069277	-0.366685	-0.224812
O14	O	1.569277	0.133315	0.275188
O15	O	0.987418	-0.163763	-0.335646
O16	O	1.487418	0.336237	0.164354
O17	O	1.188175	-0.366674	-0.343708
O18	O	1.688175	0.133326	0.156292
O19	O	1.077506	-0.163755	-0.425733
O20	O	1.577506	0.336245	0.074267
O21	O	0.982737	-0.279217	-0.221336
O22	O	1.482737	0.220783	0.278664
O23	O	0.873058	-0.288439	-0.331009
O24	O	1.373058	0.211561	0.168991
O25	O	0.995395	-0.382885	-0.536478
O26	O	1.495395	0.117115	-0.036478
O27	O	0.876497	-0.382896	-0.417582
O28	O	1.376497	0.117104	0.082418
O29	O	1.082044	-0.288420	-0.539992
O30	O	1.582044	0.211580	-0.039992
O31	O	1.073815	-0.491350	-0.339071
O32	O	1.573815	0.008650	0.160929
O33	O	0.990713	-0.498338	-0.422168
O34	O	1.490713	0.001662	0.077832
C35	C	0.849198	-0.336702	-0.373264
C36	C	1.349198	0.163298	0.126736
C37	C	0.770839	-0.339886	-0.370118
C38	C	1.270839	0.160114	0.129882
C39	C	0.735877	-0.295915	-0.413803
C40	C	1.235877	0.204085	0.086197
C41	C	0.662250	-0.298903	-0.410842
C42	C	1.162250	0.201097	0.089158
C43	C	0.623588	-0.345866	-0.364199
C44	C	1.123588	0.154134	0.135801
C45	C	0.658556	-0.389839	-0.320509
C46	C	1.158556	0.110161	0.179491
C47	C	0.732181	-0.386846	-0.323467
C48	C	1.232181	0.113154	0.176533
C49	C	0.403195	-0.359688	-0.350505
C50	C	0.903195	0.140312	0.149495
C51	C	0.329565	-0.362679	-0.347552
C52	C	0.829565	0.137321	0.152448
C53	C	0.333265	-0.271742	-0.437884
C54	C	0.833265	0.228258	0.062116
C55	C	0.406891	-0.268757	-0.440841
C56	C	0.906891	0.231243	0.059159
C57	C	0.441852	-0.312726	-0.397149
C58	C	0.941852	0.187274	0.102851
N59	N	0.548331	-0.348924	-0.361172
N60	N	1.048331	0.151076	0.138828
N61	N	0.517109	-0.309665	-0.400172
N62	N	1.017109	0.190335	0.099828
C63	C	1.032268	-0.521715	-0.380630
C64	C	1.532268	-0.021715	0.119370
C65	C	1.032293	-0.604029	-0.380646
C66	C	1.532293	-0.104029	0.119354
C67	C	1.032449	-0.903115	-0.380690
C68	C	1.532449	-0.403115	0.119310
C69	C	0.980295	-0.876218	-0.433113
C70	C	1.480295	-0.376218	0.066887
C71	C	0.980030	-0.790603	-0.432932
C72	C	1.480030	-0.290603	0.067068
C73	C	1.032371	-0.754735	-0.380669
C74	C	1.532371	-0.254735	0.119331
C75	C	1.009277	-0.783684	-0.305563
C76	C	1.509277	-0.283684	0.194437
C77	C	1.008940	-0.869356	-0.305876
C78	C	1.508940	-0.369356	0.194124
C79	C	1.107790	-0.869213	-0.402723
C80	C	1.607790	-0.369213	0.097277
C81	C	1.107416	-0.783646	-0.404335
C82	C	1.607416	-0.283646	0.095665
C83	C	1.032329	-0.670877	-0.380652
C84	C	1.532329	-0.170877	0.119348
C85	C	1.032490	-0.986973	-0.380701
C86	C	1.532490	-0.486973	0.119299
C87	C	1.216244	-0.321874	-0.388075
C88	C	1.716244	0.178126	0.111925
C89	C	1.294603	-0.318708	-0.391237
C90	C	1.794603	0.181292	0.108763
C91	C	1.039780	-0.336712	-0.564529
C92	C	1.539780	0.163288	-0.064529
C93	C	1.042940	-0.339870	-0.642886
C94	C	1.542940	0.160130	-0.142886
C95	C	1.032478	-0.136137	-0.380695
C96	C	1.532478	0.363863	0.119305
C97	C	1.032528	-0.053821	-0.380713
C98	C	1.532528	0.446179	0.119287
C99	C	0.999370	-0.295814	-0.677888
C100	C	1.499370	0.204186	-0.177888
C101	C	1.002338	-0.298788	-0.751512
C102	C	1.502338	0.201212	-0.251512
C103	C	1.048879	-0.345814	-0.790133
C104	C	1.548879	0.154186	-0.290133
C105	C	1.092450	-0.389875	-0.755126
C106	C	1.592450	0.110125	-0.255126
C107	C	1.089479	-0.386904	-0.681503
C108	C	1.589479	0.113096	-0.181503
C109	C	1.062592	-0.359584	-1.010516
C110	C	1.562592	0.140416	-0.510516
C111	C	1.065562	-0.362549	-1.084144
C112	C	1.565562	0.137451	-0.584144
C113	C	0.975448	-0.271463	-1.080525
C114	C	1.475448	0.228537	-0.580525
C115	C	0.972484	-0.268494	-1.006901
C116	C	1.472484	0.231506	-0.506901
C117	C	1.016053	-0.312557	-0.971900
C118	C	1.516053	0.187443	-0.471900
N119	N	1.051914	-0.348853	-0.865389
N120	N	1.551914	0.151147	-0.365389
N121	N	1.013013	-0.309522	-0.896646
N122	N	1.513013	0.190478	-0.396646
C123	C	1.025016	-0.321865	-0.197497
C124	C	1.525016	0.178135	0.302503
C125	C	1.021992	-0.318493	-0.119146
C126	C	1.521992	0.181507	0.380854
H127	H	0.994824	-0.771267	-0.488528
H128	H	1.494824	-0.271267	0.011472
N129	N	0.446376	-0.220768	-0.488475
N130	N	0.946376	0.279232	0.011525
N131	N	0.486472	-0.170867	-0.465401
N132	N	0.986472	0.329133	0.034599
H133	H	0.514358	-0.136974	-0.499043
H134	H	1.014358	0.363026	0.000957
N135	N	0.619077	-0.437820	-0.272864
N136	N	1.119077	0.062180	0.227136
N137	N	0.650305	-0.477076	-0.233864
N138	N	1.150305	0.022924	0.266136
H139	H	0.622425	-0.510966	-0.200214
H140	H	1.122425	-0.010966	0.299786
H141	H	0.304792	-0.235943	-0.473455
H142	H	0.804792	0.264057	0.026545
H143	H	0.298089	-0.400925	-0.309569
H144	H	0.798089	0.099075	0.190431
H145	H	1.103464	-0.400844	-1.115587
H146	H	1.603464	0.099156	-0.615587
N147	N	0.940781	-0.758783	-0.282242
N148	N	1.440781	-0.258783	0.217758
N149	N	0.912851	-0.776090	-0.223303
N150	N	1.412851	-0.276090	0.276697
H151	H	0.864473	-0.758506	-0.206835
H152	H	1.364473	-0.258506	0.293165
H153	H	0.934583	-0.230202	-0.975461
H154	H	1.434583	0.269798	-0.475461
N155	N	1.107099	-0.404598	-0.974781
N156	N	1.607099	0.095402	-0.474781
N157	N	1.148650	-0.446580	-1.009274
N158	N	1.648650	0.053420	-0.509274
H159	H	1.180086	-0.478374	-0.984035
H160	H	1.680086	0.021626	-0.484035
H161	H	1.130342	-0.428168	-0.786576
H162	H	1.630342	0.071832	-0.286576
N163	N	1.133986	-0.431916	-0.645757
N164	N	1.633986	0.068084	-0.145757
N165	N	1.175537	-0.473902	-0.680246
N166	N	1.675537	0.026098	-0.180246
H167	H	1.206969	-0.505696	-0.655002
H168	H	1.706969	-0.005696	-0.155002
H169	H	0.953778	-0.890952	-0.287560
H170	H	1.453778	-0.390952	0.212440
N171	N	0.438890	-0.404607	-0.305873
N172	N	0.938890	0.095393	0.194127
N173	N	0.404359	-0.446537	-0.264235
N174	N	0.904359	0.053463	0.235765
H175	H	0.429570	-0.478265	-0.232712
H176	H	0.929570	0.021735	0.267288
H177	H	0.767350	-0.257675	-0.451787
H178	H	1.267350	0.242325	0.048213
H179	H	0.633787	-0.263099	-0.446416
H180	H	1.133787	0.236901	0.053584
H181	H	0.961476	-0.257516	-0.646448
H182	H	1.461476	0.242484	-0.146448
H183	H	0.760646	-0.422651	-0.287894
H184	H	1.260646	0.077349	0.212106
N185	N	0.998750	-0.904165	-0.503071
N186	N	1.498750	-0.404165	-0.003071
N187	N	0.999458	-0.972409	-0.515843
N188	N	1.499458	-0.472409	-0.015843
H189	H	1.012511	-0.992143	-0.565252
H190	H	1.512511	-0.492143	-0.065252
N191	N	0.910747	-0.905461	-0.414722
N192	N	1.410747	-0.405461	0.085278
N193	N	0.899425	-0.946025	-0.363174
N194	N	1.399425	-0.446025	0.136826
H195	H	0.850308	-0.966680	-0.350183
H196	H	1.350308	-0.466680	0.149817
H197	H	0.966855	-0.262916	-0.780007
H198	H	1.466855	0.237084	-0.280007
H199	H	0.924246	-0.771906	-0.418100
H200	H	1.424246	-0.271906	0.081900
H201	H	1.045117	-0.886832	-0.265323
H202	H	1.545117	-0.386832	0.234677
H203	H	1.045937	-0.760064	-0.265308
H204	H	1.545937	-0.260064	0.234692
H205	H	1.124778	-0.764889	-0.459624
H206	H	1.624778	-0.264889	0.040376
N207	N	1.133470	-0.898034	-0.470453
N208	N	1.633470	-0.398034	0.029547
N209	N	1.096551	-0.943917	-0.503309
N210	N	1.596551	-0.443917	-0.003309
H211	H	1.114681	-0.964275	-0.551145
H212	H	1.614681	-0.464275	-0.051145
N213	N	0.930951	-0.226449	-1.116279
N214	N	1.430951	0.273551	-0.616279
N215	N	0.957441	-0.179910	-1.158371
N216	N	1.457441	0.320090	-0.658371
H217	H	0.926013	-0.148117	-1.183621
H218	H	1.426013	0.351883	-0.683621
N219	N	1.159036	-0.752740	-0.360221
N220	N	1.659036	-0.252740	0.139779
N221	N	1.141276	-0.708710	-0.310396
N222	N	1.641276	-0.208710	0.189604
H223	H	1.177730	-0.686885	-0.279233
H224	H	1.677730	-0.186885	0.220767
H225	H	1.146682	-0.886208	-0.364578
H226	H	1.646682	-0.386208	0.135422
