data_functionalizedCrystal
_audit_creation_method	'MofGen! by Chris Wilmer'
_symmetry_space_group_name_H-M	'P1'
_symmetry_Int_Tables_number	1
_symmetry_cell_setting	triclinic
loop_
_symmetry_equiv_pos_as_xyz
  x,y,z
_cell_length_a	8.597340
_cell_length_b	17.666332
_cell_length_c	19.188924
_cell_angle_alpha	90.007291
_cell_angle_beta	84.245364
_cell_angle_gamma	82.307139
loop_
_atom_site_label
_atom_site_type_symbol
_atom_site_fract_x
_atom_site_fract_y
_atom_site_fract_z
O1	O	2.081666	-0.072818	0.104204
O2	O	2.415000	0.260516	0.437537
O3	O	2.748333	0.593849	0.770870
O4	O	1.624691	-0.043011	0.112198
O5	O	1.958024	0.290322	0.445531
O6	O	2.291357	0.623656	0.778865
O7	O	1.866372	-0.058784	0.006653
O8	O	2.199705	0.274549	0.339986
O9	O	2.533038	0.607883	0.673319
O10	O	1.839986	-0.057045	0.209749
O11	O	2.173319	0.276288	0.543082
O12	O	2.506652	0.609622	0.876416
O13	O	1.866329	-0.184678	0.006649
O14	O	2.199662	0.148656	0.339983
O15	O	2.532996	0.481989	0.673316
O16	O	1.624648	-0.168905	0.112195
O17	O	1.957982	0.164428	0.445528
O18	O	2.291315	0.497762	0.778861
O19	O	2.081624	-0.198712	0.104200
O20	O	2.414957	0.134622	0.437533
O21	O	2.748291	0.467955	0.770867
Cu22	Cu	1.853132	-0.195303	0.108197
Cu23	Cu	2.186466	0.138030	0.441530
Cu24	Cu	2.519799	0.471363	0.774864
Cu25	Cu	1.853182	-0.046419	0.108201
Cu26	Cu	2.186516	0.286914	0.441534
Cu27	Cu	2.519849	0.620247	0.774868
O28	O	1.839943	-0.182939	0.209745
O29	O	2.173276	0.150394	0.543079
O30	O	2.506610	0.483728	0.876412
C31	C	1.566206	-0.102145	0.111338
C32	C	1.899539	0.231189	0.444671
C33	C	2.232872	0.564522	0.778005
C34	C	1.392002	-0.090783	0.108772
C35	C	1.725335	0.242551	0.442105
C36	C	2.058668	0.575884	0.775438
N37	N	1.853108	-0.300021	0.108194
N38	N	2.186442	0.033312	0.441527
N39	N	2.519775	0.366645	0.774861
C40	C	1.947978	-0.345809	0.151216
C41	C	2.281311	-0.012475	0.484549
C42	C	2.614644	0.320858	0.817882
C43	C	1.948003	-0.425058	0.151214
C44	C	2.281336	-0.091725	0.484547
C45	C	2.614669	0.241609	0.817881
C46	C	1.853129	-0.458515	0.108198
C47	C	2.186463	-0.125182	0.441531
C48	C	2.519796	0.208152	0.774865
C49	C	1.758254	-0.412718	0.065167
C50	C	2.091588	-0.079384	0.398501
C51	C	2.424921	0.253949	0.731834
C52	C	1.758244	-0.333471	0.065165
C53	C	2.091577	-0.000137	0.398499
C54	C	2.424911	0.333196	0.731832
N55	N	1.715689	-0.573990	0.105353
N56	N	2.049022	-0.240657	0.438687
N57	N	2.382355	0.092677	0.772020
N58	N	1.715703	-0.649271	0.105359
N59	N	2.049036	-0.315938	0.438693
N60	N	2.382369	0.017395	0.772026
C61	C	1.853158	-0.697281	0.108201
C62	C	2.186491	-0.363947	0.441534
C63	C	2.519825	-0.030614	0.774867
N64	N	1.990600	-0.667165	0.111050
N65	N	2.323933	-0.333832	0.444383
N66	N	2.657267	-0.000498	0.777716
N67	N	1.990584	-0.591876	0.111047
N68	N	2.323917	-0.258543	0.444381
N69	N	2.657250	0.074790	0.777714
C70	C	1.853131	-0.544444	0.108195
C71	C	2.186464	-0.211111	0.441529
C72	C	2.519798	0.122223	0.774862
C73	C	1.948063	-0.829000	0.151223
C74	C	2.281396	-0.495666	0.484556
C75	C	2.614729	-0.162333	0.817890
C76	C	1.948091	-0.908251	0.151216
C77	C	2.281424	-0.574917	0.484549
C78	C	2.614758	-0.241584	0.817883
C79	C	1.758328	-0.895908	0.065174
C80	C	2.091661	-0.562574	0.398507
C81	C	2.424995	-0.229241	0.731840
C82	C	1.758314	-0.816659	0.065176
C83	C	2.091648	-0.483326	0.398510
C84	C	2.424981	-0.149993	0.731843
C85	C	1.853179	-0.783210	0.108205
C86	C	2.186512	-0.449877	0.441538
C87	C	2.519845	-0.116543	0.774872
C88	C	2.140109	-0.139576	0.105060
C89	C	2.473442	0.193757	0.438394
C90	C	2.806776	0.527090	0.771727
C91	C	2.314313	-0.150934	0.107627
C92	C	2.647646	0.182400	0.440960
C93	C	2.980980	0.515733	0.774293
C94	C	1.865498	-0.121676	-0.019367
C95	C	2.198831	0.211657	0.313966
C96	C	2.532164	0.544991	0.647300
C97	C	1.862938	-0.121511	-0.096893
C98	C	2.196271	0.211822	0.236441
C99	C	2.529605	0.545156	0.569774
N100	N	1.853219	0.058298	0.108199
N101	N	2.186552	0.391631	0.441532
N102	N	2.519885	0.724964	0.774866
C103	C	1.861767	-0.052808	-0.133299
C104	C	2.195100	0.280525	0.200034
C105	C	2.528433	0.613859	0.533367
C106	C	1.859339	-0.052644	-0.206142
C107	C	2.192673	0.280689	0.127191
C108	C	2.526006	0.614023	0.460525
C109	C	1.858115	-0.121189	-0.242577
C110	C	2.191448	0.212145	0.090757
C111	C	2.524782	0.545478	0.424090
C112	C	1.859278	-0.189900	-0.206161
C113	C	2.192611	0.143433	0.127173
C114	C	2.525945	0.476766	0.460506
C115	C	1.861689	-0.190061	-0.133319
C116	C	2.195023	0.143272	0.200015
C117	C	2.528356	0.476605	0.533348
N118	N	1.943616	-0.177841	-0.361541
N119	N	2.276950	0.155492	-0.028208
N120	N	2.610283	0.488825	0.305125
N121	N	1.941329	-0.177684	-0.430738
N122	N	2.274662	0.155649	-0.097405
N123	N	2.607996	0.488983	0.235928
C124	C	1.850846	-0.120707	-0.462045
C125	C	2.184179	0.212626	-0.128712
C126	C	2.517513	0.545959	0.204621
N127	N	1.762757	-0.063884	-0.421542
N128	N	2.096090	0.269449	-0.088209
N129	N	2.429423	0.602783	0.245125
N130	N	1.765051	-0.064040	-0.352339
N131	N	2.098385	0.269294	-0.019006
N132	N	2.431718	0.602627	0.314328
C133	C	1.855499	-0.121022	-0.321562
C134	C	2.188833	0.212312	0.011772
C135	C	2.522166	0.545645	0.345105
C136	C	1.847040	-0.051822	-0.577436
C137	C	2.180374	0.281512	-0.244103
C138	C	2.513707	0.614845	0.089230
C139	C	1.844603	-0.051660	-0.650280
C140	C	2.177937	0.281674	-0.316946
C141	C	2.511270	0.615007	0.016387
C142	C	1.844558	-0.188919	-0.650298
C143	C	2.177891	0.144414	-0.316964
C144	C	2.511224	0.477748	0.016369
C145	C	1.846979	-0.189078	-0.577455
C146	C	2.180312	0.144255	-0.244121
C147	C	2.513646	0.477589	0.089212
C148	C	1.848228	-0.120528	-0.541029
C149	C	2.181561	0.212806	-0.207696
C150	C	2.514894	0.546139	0.125638
C151	C	1.840817	-0.120045	0.235765
C152	C	2.174150	0.213288	0.569099
C153	C	2.507484	0.546621	0.902432
C154	C	1.843377	-0.120205	0.313291
C155	C	2.176710	0.213128	0.646624
C156	C	2.510043	0.546462	0.979958
H157	H	1.381073	-0.211127	0.108605
H158	H	1.714406	0.122206	0.441938
H159	H	2.047740	0.455540	0.775272
H160	H	1.848048	0.003997	-0.547776
H161	H	2.181381	0.337330	-0.214443
H162	H	2.514715	0.670663	0.118891
H163	H	1.862779	0.003011	-0.103646
H164	H	2.196112	0.336345	0.229688
H165	H	2.529445	0.669678	0.563021
H166	H	1.681082	-0.923148	0.030148
H167	H	2.014416	-0.589814	0.363482
H168	H	2.347749	-0.256481	0.696815
H169	H	1.325235	-0.030585	0.107788
H170	H	1.658568	0.302748	0.441122
H171	H	1.991902	0.636081	0.774455
H172	H	2.025230	-0.318580	0.186250
H173	H	2.358563	0.014753	0.519584
H174	H	2.691897	0.348087	0.852917
H175	H	2.025308	-0.801764	0.186259
H176	H	2.358641	-0.468431	0.519592
H177	H	2.691975	-0.135097	0.852925
H178	H	1.858376	0.003305	-0.235790
H179	H	2.191709	0.336638	0.097544
H180	H	2.525042	0.669971	0.430877
H181	H	1.681010	-0.439963	0.030143
H182	H	2.014343	-0.106630	0.363476
H183	H	2.347676	0.226703	0.696810
H184	H	1.858277	-0.245710	-0.235830
H185	H	2.191610	0.087624	0.097503
H186	H	2.524943	0.420957	0.430837
H187	H	2.025257	-0.462345	0.186250
H188	H	2.358591	-0.129012	0.519583
H189	H	2.691924	0.204321	0.852916
H190	H	1.680987	-0.296190	0.030131
H191	H	2.014320	0.037143	0.363464
H192	H	2.347654	0.370477	0.696798
H193	H	1.862637	-0.246009	-0.103676
H194	H	2.195970	0.087325	0.229657
H195	H	2.529303	0.420658	0.562990
H196	H	2.025356	-0.945531	0.186248
H197	H	2.358689	-0.612198	0.519581
H198	H	2.692023	-0.278864	0.852914
H199	H	1.843642	0.004289	-0.679920
H200	H	2.176975	0.337622	-0.346587
H201	H	2.510308	0.670956	-0.013254
H202	H	1.681055	-0.779378	0.030146
H203	H	2.014388	-0.446044	0.363479
H204	H	2.347722	-0.112711	0.696813
H205	H	1.843549	-0.244729	-0.679961
H206	H	2.176882	0.088605	-0.346628
H207	H	2.510216	0.421938	-0.013295
H208	H	1.847946	-0.245024	-0.547813
H209	H	2.181279	0.088309	-0.214479
H210	H	2.514613	0.421642	0.118854
