data_functionalizedCrystal
_audit_creation_method	'MofGen! by Chris Wilmer'
_symmetry_space_group_name_H-M	'P1'
_symmetry_Int_Tables_number	1
_symmetry_cell_setting	triclinic
loop_
_symmetry_equiv_pos_as_xyz
  x,y,z
_cell_length_a	9.065218
_cell_length_b	11.804365
_cell_length_c	9.065218
_cell_angle_alpha	77.989386
_cell_angle_beta	94.984081
_cell_angle_gamma	77.971700
loop_
_atom_site_label
_atom_site_type_symbol
_atom_site_fract_x
_atom_site_fract_y
_atom_site_fract_z
O1	O	-1.989830	0.099084	0.186946
O2	O	-1.560542	0.099073	0.204696
O3	O	-1.784059	0.099076	-0.018821
O4	O	-1.766313	0.099081	0.410463
O5	O	-1.725214	-0.098981	0.039963
O6	O	-1.501698	-0.098984	0.263479
O7	O	-1.930986	-0.098973	0.245729
Cu8	Cu	-1.710969	-0.117063	0.259972
Cu9	Cu	-1.780559	0.117162	0.190454
O10	O	-1.707469	-0.098976	0.469246
C11	C	-1.476133	0.000043	0.232382
C12	C	-1.312289	0.000039	0.227284
N13	N	-1.662034	-0.281804	0.308866
C14	C	-1.947017	-0.655748	0.024106
C15	C	-1.984034	-0.531086	-0.012889
C16	C	-1.903537	-0.468759	0.067546
C17	C	-1.786016	-0.531107	0.184983
C18	C	-1.749003	-0.655782	0.221990
C19	C	-1.705523	-0.468793	0.265430
C20	C	-1.588003	-0.531141	0.382868
C21	C	-1.550995	-0.655803	0.419867
C22	C	-1.631492	-0.718130	0.339432
C23	C	-1.742537	-0.344118	0.228424
C24	C	-1.544523	-0.344152	0.426308
C25	C	-1.507505	-0.468814	0.463303
C26	C	-1.015394	0.000052	0.218044
C27	C	-1.179234	0.000042	0.223147
C28	C	-1.752932	0.000050	-0.044416
C29	C	-1.747834	0.000055	-0.208261
N30	N	-1.829506	0.281904	0.141548
C31	C	-1.738597	0.000053	0.494841
C32	C	-1.743698	0.000055	0.658683
H33	H	-1.838222	-0.293366	0.132807
C34	C	-2.018848	-0.694144	-0.218727
C35	C	-2.035478	-0.724262	-0.064303
H36	H	-2.073470	-0.736440	-0.273310
H37	H	-1.914099	-0.714590	-0.230038
H38	H	-2.057723	-0.610974	-0.257564
H39	H	-1.996592	-0.807431	-0.025463
H40	H	-2.140248	-0.703824	-0.052983
H41	H	-1.455314	-0.706567	0.515502
C42	C	-1.439050	-0.896736	0.360714
C43	C	-1.590804	-0.855165	0.380090
H44	H	-1.413940	-0.981337	0.385801
H45	H	-1.374307	-0.868555	0.425438
H46	H	-1.425994	-0.868523	0.257749
H47	H	-1.603858	-0.883372	0.483057
H48	H	-1.655566	-0.883359	0.315365
C49	C	-1.362862	-0.659939	0.607887
C50	C	-1.378339	-0.537356	0.592399
H51	H	-1.283126	-0.702252	0.687592
H52	H	-1.339462	-0.680366	0.515256
H53	H	-1.455499	-0.680336	0.631342
H54	H	-1.285705	-0.516958	0.568933
H55	H	-1.401730	-0.516922	0.685050
C56	C	-1.345076	-0.356706	0.625640
C57	C	-1.456028	-0.275657	0.514736
H58	H	-1.290460	-0.314412	0.680233
H59	H	-1.276747	-0.405340	0.577916
H60	H	-1.392783	-0.405320	0.694003
H61	H	-1.408320	-0.227048	0.446367
H62	H	-1.524368	-0.227002	0.562463
C63	C	-2.064355	-0.290165	-0.093197
C64	C	-1.944213	-0.331728	0.026871
H65	H	-2.089457	-0.205564	-0.118319
H66	H	-2.150547	-0.318341	-0.063305
H67	H	-2.034526	-0.318388	-0.179406
H68	H	-1.974046	-0.303512	0.113085
H69	H	-1.858003	-0.303540	-0.003015
H70	H	-2.079719	-0.480327	-0.108504
