data_functionalizedCrystal
_audit_creation_method	'MofGen! by Chris Wilmer'
_symmetry_space_group_name_H-M	'P1'
_symmetry_Int_Tables_number	1
_symmetry_cell_setting	triclinic
loop_
_symmetry_equiv_pos_as_xyz
  x,y,z
_cell_length_a	27.732048
_cell_length_b	27.731996
_cell_length_c	26.809956
_cell_angle_alpha	89.998344
_cell_angle_beta	89.996742
_cell_angle_gamma	82.632022
loop_
_atom_site_label
_atom_site_type_symbol
_atom_site_fract_x
_atom_site_fract_y
_atom_site_fract_z
O1	O	0.640920	0.057512	-0.041422
O2	O	0.890920	0.307512	0.208578
O3	O	1.140920	0.557512	0.458578
O4	O	1.390920	0.807512	0.708578
O5	O	0.500125	0.066257	-0.041438
O6	O	0.750125	0.316257	0.208562
O7	O	1.000125	0.566257	0.458562
O8	O	1.250125	0.816257	0.708562
O9	O	0.574909	-0.008514	-0.041418
O10	O	0.824909	0.241486	0.208582
O11	O	1.074909	0.491486	0.458582
O12	O	1.324909	0.741486	0.708582
O13	O	0.566137	0.132283	-0.041441
O14	O	0.816137	0.382283	0.208559
O15	O	1.066137	0.632283	0.458559
O16	O	1.316137	0.882283	0.708559
O17	O	0.574894	-0.008503	0.041541
O18	O	0.824894	0.241497	0.291541
O19	O	1.074894	0.491497	0.541541
O20	O	1.324894	0.741497	0.791541
O21	O	0.500111	0.066269	0.041522
O22	O	0.750111	0.316269	0.291522
O23	O	1.000111	0.566269	0.541522
O24	O	1.250111	0.816269	0.791522
O25	O	0.640906	0.057523	0.041538
O26	O	0.890906	0.307523	0.291538
O27	O	1.140906	0.557523	0.541538
O28	O	1.390906	0.807523	0.791538
Zn29	Zn	0.570506	0.061898	0.054701
Zn30	Zn	0.820506	0.311898	0.304701
Zn31	Zn	1.070506	0.561898	0.554701
Zn32	Zn	1.320506	0.811898	0.804701
Zn33	Zn	0.570525	0.061883	-0.054601
Zn34	Zn	0.820525	0.311883	0.195399
Zn35	Zn	1.070525	0.561883	0.445399
Zn36	Zn	1.320525	0.811883	0.695399
O37	O	0.566123	0.132294	0.041518
O38	O	0.816123	0.382294	0.291518
O39	O	1.066123	0.632294	0.541518
O40	O	1.316123	0.882294	0.791518
C41	C	0.482111	0.066079	0.000040
C42	C	0.732111	0.316079	0.250040
C43	C	0.982111	0.566079	0.500040
C44	C	1.232111	0.816079	0.750040
C45	C	0.428456	0.065527	0.000034
C46	C	0.678456	0.315527	0.250034
C47	C	0.928456	0.565527	0.500034
C48	C	1.178456	0.815527	0.750034
C49	C	0.574721	-0.026516	0.000063
C50	C	0.824721	0.223484	0.250063
C51	C	1.074721	0.473484	0.500063
C52	C	1.324721	0.723484	0.750063
C53	C	0.574179	-0.080172	0.000068
C54	C	0.824179	0.169828	0.250068
C55	C	1.074179	0.419828	0.500068
C56	C	1.324179	0.669828	0.750068
C57	C	0.089634	0.106232	0.000050
C58	C	0.339634	0.356232	0.250050
C59	C	0.589634	0.606232	0.500050
C60	C	0.839634	0.856232	0.750050
C61	C	-0.112026	0.104180	0.000054
C62	C	0.137974	0.354180	0.250054
C63	C	0.387974	0.604180	0.500054
C64	C	0.637974	0.854180	0.750054
O65	O	-0.143288	0.141402	0.000070
O66	O	0.106712	0.391402	0.250070
O67	O	0.356712	0.641402	0.500070
O68	O	0.606712	0.891402	0.750070
N69	N	-0.131141	0.059844	0.000060
N70	N	0.118859	0.309844	0.250060
N71	N	0.368859	0.559844	0.500060
N72	N	0.618859	0.809844	0.750060
C73	C	-0.099838	0.016017	0.000069
C74	C	0.150162	0.266017	0.250069
C75	C	0.400162	0.516017	0.500069
C76	C	0.650162	0.766017	0.750069
O77	O	-0.120724	-0.021740	0.000079
O78	O	0.129276	0.228260	0.250079
O79	O	0.379276	0.478260	0.500079
O80	O	0.629276	0.728260	0.750079
C81	C	0.101820	0.018069	0.000068
C82	C	0.351820	0.268069	0.250068
C83	C	0.601820	0.518069	0.500068
C84	C	0.851820	0.768069	0.750068
C85	C	0.120933	0.062408	0.000056
C86	C	0.370933	0.312408	0.250056
C87	C	0.620933	0.562408	0.500056
C88	C	0.870933	0.812408	0.750056
C89	C	0.108747	0.150567	0.000039
C90	C	0.358747	0.400567	0.250039
C91	C	0.608747	0.650567	0.500039
C92	C	0.858747	0.900567	0.750039
C93	C	0.159159	0.151079	0.000035
C94	C	0.409159	0.401079	0.250035
C95	C	0.659159	0.651079	0.500035
C96	C	0.909159	0.901079	0.750035
C97	C	0.190457	0.107256	0.000042
C98	C	0.440457	0.357256	0.250042
C99	C	0.690457	0.607256	0.500042
C100	C	0.940457	0.857256	0.750042
C101	C	0.171344	0.062920	0.000052
C102	C	0.421344	0.312920	0.250052
C103	C	0.671344	0.562920	0.500052
C104	C	0.921344	0.812920	0.750052
C105	C	0.133122	-0.025757	0.000079
C106	C	0.383122	0.224243	0.250079
C107	C	0.633122	0.474243	0.500079
C108	C	0.883122	0.724243	0.750079
C109	C	0.183539	-0.025240	0.000080
C110	C	0.433539	0.224760	0.250080
C111	C	0.683539	0.474760	0.500080
C112	C	0.933539	0.724760	0.750080
C113	C	0.202652	0.019099	0.000069
C114	C	0.452652	0.269099	0.250069
C115	C	0.702652	0.519099	0.500069
C116	C	0.952652	0.769099	0.750069
C117	C	0.253055	0.019609	0.000055
C118	C	0.503055	0.269609	0.250055
C119	C	0.753055	0.519609	0.500055
C120	C	1.003055	0.769609	0.750055
N121	N	0.272171	0.063946	0.000049
N122	N	0.522171	0.313946	0.250049
N123	N	0.772171	0.563946	0.500049
N124	N	1.022171	0.813946	0.750049
C125	C	0.240872	0.107769	0.000042
C126	C	0.490872	0.357769	0.250042
C127	C	0.740872	0.607769	0.500042
C128	C	0.990872	0.857769	0.750042
C129	C	-0.205712	0.014943	0.000068
C130	C	0.044288	0.264943	0.250068
C131	C	0.294288	0.514943	0.500068
C132	C	0.544288	0.764943	0.750068
C133	C	-0.256126	0.014430	0.000068
C134	C	-0.006126	0.264430	0.250068
C135	C	0.243874	0.514430	0.500068
C136	C	0.493874	0.764430	0.750068
C137	C	-0.268310	0.102594	0.000054
C138	C	-0.018310	0.352594	0.250054
C139	C	0.231690	0.602594	0.500054
C140	C	0.481690	0.852594	0.750054
C141	C	-0.217895	0.103106	0.000051
C142	C	0.032105	0.353106	0.250051
C143	C	0.282105	0.603106	0.500051
C144	C	0.532105	0.853106	0.750051
C145	C	-0.186597	0.059280	0.000062
C146	C	0.063403	0.309280	0.250062
C147	C	0.313403	0.559280	0.500062
C148	C	0.563403	0.809280	0.750062
C149	C	0.346741	0.108842	0.000034
C150	C	0.596741	0.358842	0.250034
C151	C	0.846741	0.608842	0.500034
C152	C	1.096741	0.858842	0.750034
C153	C	0.397158	0.109350	0.000028
C154	C	0.647158	0.359350	0.250028
C155	C	0.897158	0.609350	0.500028
C156	C	1.147158	0.859350	0.750028
C157	C	0.409337	0.021187	0.000044
C158	C	0.659337	0.271187	0.250044
C159	C	0.909337	0.521187	0.500044
C160	C	1.159337	0.771187	0.750044
C161	C	0.358925	0.020678	0.000047
C162	C	0.608925	0.270678	0.250047
C163	C	0.858925	0.520678	0.500047
C164	C	1.108925	0.770678	0.750047
C165	C	0.327627	0.064510	0.000044
C166	C	0.577627	0.314510	0.250044
C167	C	0.827627	0.564510	0.500044
C168	C	1.077627	0.814510	0.750044
O169	O	0.284346	-0.017592	0.000045
O170	O	0.534346	0.232408	0.250045
O171	O	0.784346	0.482408	0.500045
O172	O	1.034346	0.732408	0.750045
O173	O	0.261767	0.145521	0.000043
O174	O	0.511767	0.395521	0.250043
O175	O	0.761767	0.645521	0.500043
O176	O	1.011767	0.895521	0.750043
C177	C	0.039222	0.105719	0.000053
C178	C	0.289222	0.355719	0.250053
C179	C	0.539222	0.605719	0.500053
C180	C	0.789222	0.855719	0.750053
C181	C	0.020109	0.061384	0.000064
C182	C	0.270109	0.311384	0.250064
C183	C	0.520109	0.561384	0.500064
C184	C	0.770109	0.811384	0.750064
C185	C	0.051408	0.017560	0.000071
C186	C	0.301408	0.267560	0.250071
C187	C	0.551408	0.517560	0.500071
C188	C	0.801408	0.767560	0.750071
C189	C	-0.030305	0.060871	0.000064
C190	C	0.219695	0.310871	0.250064
C191	C	0.469695	0.560871	0.500064
C192	C	0.719695	0.810871	0.750064
C193	C	-0.061604	0.104694	0.000057
C194	C	0.188396	0.354694	0.250057
C195	C	0.438396	0.604694	0.500057
C196	C	0.688396	0.854694	0.750057
C197	C	-0.042489	0.149030	0.000051
C198	C	0.207511	0.399030	0.250051
C199	C	0.457511	0.649030	0.500051
C200	C	0.707511	0.899030	0.750051
C201	C	0.007923	0.149543	0.000047
C202	C	0.257923	0.399543	0.250047
C203	C	0.507923	0.649543	0.500047
C204	C	0.757923	0.899543	0.750047
C205	C	0.032292	-0.026776	0.000077
C206	C	0.282292	0.223224	0.250077
C207	C	0.532292	0.473224	0.500077
C208	C	0.782292	0.723224	0.750077
C209	C	-0.018120	-0.027285	0.000081
C210	C	0.231880	0.222715	0.250081
C211	C	0.481880	0.472715	0.500081
C212	C	0.731880	0.722715	0.750081
C213	C	-0.049419	0.016539	0.000074
C214	C	0.200581	0.266539	0.250074
C215	C	0.450581	0.516539	0.500074
C216	C	0.700581	0.766539	0.750074
C217	C	0.570772	-0.412894	-0.045178
C218	C	0.820772	-0.162894	0.204822
C219	C	1.070772	0.087106	0.454822
C220	C	1.320772	0.337106	0.704822
C221	C	0.568711	-0.614553	-0.045187
C222	C	0.818711	-0.364553	0.204813
C223	C	1.068711	-0.114553	0.454813
C224	C	1.318711	0.135447	0.704813
O225	O	0.568430	-0.640629	-0.083646
O226	O	0.818430	-0.390629	0.166354
O227	O	1.068430	-0.140629	0.416354
O228	O	1.318430	0.109371	0.666354
N229	N	0.568447	-0.639764	0.000034
N230	N	0.818447	-0.389764	0.250034
N231	N	1.068447	-0.139764	0.500034
N232	N	1.318447	0.110236	0.750034
C233	C	0.568695	-0.614556	0.045260
C234	C	0.818695	-0.364556	0.295260
C235	C	1.068695	-0.114556	0.545260
C236	C	1.318695	0.135444	0.795260
O237	O	0.568419	-0.640626	0.083723
O238	O	0.818419	-0.390626	0.333723
O239	O	1.068419	-0.140626	0.583723
O240	O	1.318419	0.109374	0.833723
C241	C	0.570753	-0.412899	0.045268
C242	C	0.820753	-0.162899	0.295268
C243	C	1.070753	0.087101	0.545268
C244	C	1.320753	0.337101	0.795268
C245	C	0.571021	-0.387691	0.000045
C246	C	0.821021	-0.137691	0.250045
C247	C	1.071021	0.112309	0.500045
C248	C	1.321021	0.362309	0.750045
C249	C	0.571040	-0.387687	-0.090398
C250	C	0.821040	-0.137687	0.159602
C251	C	1.071040	0.112313	0.409602
C252	C	1.321040	0.362313	0.659602
C253	C	0.571557	-0.337276	-0.090395
C254	C	0.821557	-0.087276	0.159605
C255	C	1.071557	0.162724	0.409605
C256	C	1.321557	0.412724	0.659605
C257	C	0.571807	-0.312072	-0.045173
C258	C	0.821807	-0.062072	0.204827
C259	C	1.071807	0.187928	0.454827
C260	C	1.321807	0.437928	0.704827
C261	C	0.571539	-0.337280	0.000047
C262	C	0.821539	-0.087280	0.250047
C263	C	1.071539	0.162720	0.500047
C264	C	1.321539	0.412720	0.750047
C265	C	0.570998	-0.387692	0.090494
C266	C	0.820998	-0.137692	0.340494
C267	C	1.070998	0.112308	0.590494
C268	C	1.320998	0.362308	0.840494
C269	C	0.571511	-0.337274	0.090492
C270	C	0.821511	-0.087274	0.340492
C271	C	1.071511	0.162726	0.590492
C272	C	1.321511	0.412726	0.840492
C273	C	0.571780	-0.312067	0.045268
C274	C	0.821780	-0.062067	0.295268
C275	C	1.071780	0.187933	0.545268
C276	C	1.321780	0.437933	0.795268
C277	C	0.572307	-0.261665	0.045273
C278	C	0.822307	-0.011665	0.295273
C279	C	1.072307	0.238335	0.545273
C280	C	1.322307	0.488335	0.795273
N281	N	0.572571	-0.236454	0.000052
N282	N	0.822571	0.013546	0.250052
N283	N	1.072571	0.263546	0.500052
N284	N	1.322571	0.513546	0.750052
C285	C	0.572321	-0.261658	-0.045171
C286	C	0.822321	-0.011658	0.204829
C287	C	1.072321	0.238342	0.454829
C288	C	1.322321	0.488342	0.704829
C289	C	0.567616	-0.720430	0.045252
C290	C	0.817616	-0.470430	0.295252
C291	C	1.067616	-0.220430	0.545252
C292	C	1.317616	0.029570	0.795252
C293	C	0.567102	-0.770844	0.045250
C294	C	0.817102	-0.520844	0.295250
C295	C	1.067102	-0.270844	0.545250
C296	C	1.317102	-0.020844	0.795250
C297	C	0.567117	-0.770837	-0.045197
C298	C	0.817117	-0.520837	0.204803
C299	C	1.067117	-0.270837	0.454803
C300	C	1.317117	-0.020837	0.704803
C301	C	0.567634	-0.720422	-0.045194
C302	C	0.817634	-0.470422	0.204806
C303	C	1.067634	-0.220422	0.454806
C304	C	1.317634	0.029578	0.704806
C305	C	0.567880	-0.695219	0.000032
C306	C	0.817880	-0.445219	0.250032
C307	C	1.067880	-0.195219	0.500032
C308	C	1.317880	0.054781	0.750032
C309	C	0.573409	-0.155791	-0.045161
C310	C	0.823409	0.094209	0.204839
C311	C	1.073409	0.344209	0.454839
C312	C	1.323409	0.594209	0.704839
C313	C	0.573929	-0.105375	-0.045155
C314	C	0.823929	0.144625	0.204845
C315	C	1.073929	0.394625	0.454845
C316	C	1.323929	0.644625	0.704845
C317	C	0.573912	-0.105387	0.045292
C318	C	0.823912	0.144613	0.295292
C319	C	1.073912	0.394613	0.545292
C320	C	1.323912	0.644613	0.795292
C321	C	0.573394	-0.155798	0.045286
C322	C	0.823394	0.094202	0.295286
C323	C	1.073394	0.344202	0.545286
C324	C	1.323394	0.594202	0.795286
C325	C	0.573141	-0.180999	0.000055
C326	C	0.823141	0.069001	0.250055
C327	C	1.073141	0.319001	0.500055
C328	C	1.323141	0.569001	0.750055
O329	O	0.572583	-0.235558	0.083712
O330	O	0.822583	0.014442	0.333712
O331	O	1.072583	0.264442	0.583712
O332	O	1.322583	0.514442	0.833712
O333	O	0.572587	-0.235578	-0.083627
O334	O	0.822587	0.014422	0.166373
O335	O	1.072587	0.264422	0.416373
O336	O	1.322587	0.514422	0.666373
C337	C	0.570254	-0.463306	-0.045181
C338	C	0.820254	-0.213306	0.204819
C339	C	1.070254	0.036694	0.454819
C340	C	1.320254	0.286694	0.704819
C341	C	0.569986	-0.488513	0.000039
C342	C	0.819986	-0.238513	0.250039
C343	C	1.069986	0.011487	0.500039
C344	C	1.319986	0.261487	0.750039
C345	C	0.570235	-0.463310	0.045262
C346	C	0.820235	-0.213310	0.295262
C347	C	1.070235	0.036690	0.545262
C348	C	1.320235	0.286690	0.795262
C349	C	0.569472	-0.538928	0.000037
C350	C	0.819472	-0.288928	0.250037
C351	C	1.069472	-0.038928	0.500037
C352	C	1.319472	0.211072	0.750037
C353	C	0.569222	-0.564131	-0.045185
C354	C	0.819222	-0.314131	0.204815
C355	C	1.069222	-0.064131	0.454815
C356	C	1.319222	0.185869	0.704815
C357	C	0.569486	-0.538920	-0.090406
C358	C	0.819486	-0.288920	0.159594
C359	C	1.069486	-0.038920	0.409594
C360	C	1.319486	0.211080	0.659594
C361	C	0.570004	-0.488509	-0.090403
C362	C	0.820004	-0.238509	0.159597
C363	C	1.070004	0.011491	0.409597
C364	C	1.320004	0.261491	0.659597
C365	C	0.569972	-0.488521	0.090483
C366	C	0.819972	-0.238521	0.340483
C367	C	1.069972	0.011479	0.590483
C368	C	1.319972	0.261479	0.840483
C369	C	0.569454	-0.538932	0.090476
C370	C	0.819454	-0.288932	0.340476
C371	C	1.069454	-0.038932	0.590476
C372	C	1.319454	0.211068	0.840476
C373	C	0.569205	-0.564136	0.045253
C374	C	0.819205	-0.314136	0.295253
C375	C	1.069205	-0.064136	0.545253
C376	C	1.319205	0.185864	0.795253
C377	C	0.658920	0.057701	0.000059
C378	C	0.908920	0.307701	0.250059
C379	C	1.158920	0.557701	0.500059
C380	C	1.408920	0.807701	0.750059
C381	C	0.712575	0.058254	0.000061
C382	C	0.962575	0.308254	0.250061
C383	C	1.212575	0.558254	0.500061
C384	C	1.462575	0.808254	0.750061
C385	C	0.566310	0.150296	0.000036
C386	C	0.816310	0.400296	0.250036
C387	C	1.066310	0.650296	0.500036
C388	C	1.316310	0.900296	0.750036
C389	C	0.566853	0.203952	0.000028
C390	C	0.816853	0.453952	0.250028
C391	C	1.066853	0.703952	0.500028
C392	C	1.316853	0.953952	0.750028
N393	N	0.570497	0.061908	0.129297
N394	N	0.820497	0.311908	0.379297
N395	N	1.070497	0.561908	0.629297
N396	N	1.320497	0.811908	0.879297
N397	N	0.570538	0.061869	-0.129197
N398	N	0.820538	0.311869	0.120803
N399	N	1.070538	0.561869	0.370803
N400	N	1.320538	0.811869	0.620803
C401	C	0.603635	0.028782	0.473932
C402	C	0.853635	0.278782	0.723932
C403	C	1.103635	0.528782	0.973932
C404	C	1.353635	0.778782	1.223932
C405	C	0.603646	0.028775	0.682809
C406	C	0.853646	0.278775	0.932809
C407	C	1.103646	0.528775	1.182809
C408	C	1.353646	0.778775	1.432809
O409	O	0.631801	0.000613	0.709820
O410	O	0.881801	0.250613	0.959820
O411	O	1.131801	0.500613	1.209820
O412	O	1.381801	0.750613	1.459820
N413	N	0.570528	0.061872	0.708924
N414	N	0.820528	0.311872	0.958924
N415	N	1.070528	0.561872	1.208924
N416	N	1.320528	0.811872	1.458924
C417	C	0.537402	0.094972	0.682816
C418	C	0.787402	0.344972	0.932816
C419	C	1.037402	0.594972	1.182816
C420	C	1.287402	0.844972	1.432816
O421	O	0.509229	0.123119	0.709821
O422	O	0.759229	0.373119	0.959821
O423	O	1.009229	0.623119	1.209821
O424	O	1.259229	0.873119	1.459821
C425	C	0.537388	0.094976	0.473940
C426	C	0.787388	0.344976	0.723940
C427	C	1.037388	0.594976	0.973940
C428	C	1.287388	0.844976	1.223940
C429	C	0.570512	0.061880	0.447828
C430	C	0.820512	0.311880	0.697828
C431	C	1.070512	0.561880	0.947828
C432	C	1.320512	0.811880	1.197828
C433	C	0.636756	-0.004312	0.447820
C434	C	0.886756	0.245688	0.697820
C435	C	1.136756	0.495688	0.947820
C436	C	1.386756	0.745688	1.197820
C437	C	0.636754	-0.004308	0.395603
C438	C	0.886754	0.245692	0.645603
C439	C	1.136754	0.495692	0.895603
C440	C	1.386754	0.745692	1.145603
C441	C	0.603632	0.028790	0.369499
C442	C	0.853632	0.278790	0.619499
C443	C	1.103632	0.528790	0.869499
C444	C	1.353632	0.778790	1.119499
C445	C	0.570511	0.061884	0.395611
C446	C	0.820511	0.311884	0.645611
C447	C	1.070511	0.561884	0.895611
C448	C	1.320511	0.811884	1.145611
C449	C	0.504260	0.128073	0.447833
C450	C	0.754260	0.378073	0.697833
C451	C	1.004260	0.628073	0.947833
C452	C	1.254260	0.878073	1.197833
C453	C	0.504259	0.128071	0.395610
C454	C	0.754259	0.378071	0.645610
C455	C	1.004259	0.628071	0.895610
C456	C	1.254259	0.878071	1.145610
C457	C	0.537383	0.094974	0.369498
C458	C	0.787383	0.344974	0.619498
C459	C	1.037383	0.594974	0.869498
C460	C	1.287383	0.844974	1.119498
C461	C	0.537387	0.094986	0.317291
C462	C	0.787387	0.344986	0.567291
C463	C	1.037387	0.594986	0.817291
C464	C	1.287387	0.844986	1.067291
N465	N	0.570506	0.061888	0.291176
N466	N	0.820506	0.311888	0.541176
N467	N	1.070506	0.561888	0.791176
N468	N	1.320506	0.811888	1.041176
C469	C	0.603628	0.028790	0.317280
C470	C	0.853628	0.278790	0.567280
C471	C	1.103628	0.528790	0.817280
C472	C	1.353628	0.778790	1.067280
C473	C	0.537412	0.094967	0.792480
C474	C	0.787412	0.344967	1.042480
C475	C	1.037412	0.594967	1.292480
C476	C	1.287412	0.844967	1.542480
C477	C	0.537415	0.094967	0.844699
C478	C	0.787415	0.344967	1.094699
C479	C	1.037415	0.594967	1.344699
C480	C	1.287415	0.844967	1.594699
C481	C	0.603660	0.028769	0.844688
C482	C	0.853660	0.278769	1.094688
C483	C	1.103660	0.528769	1.344688
C484	C	1.353660	0.778769	1.594688
C485	C	0.603658	0.028772	0.792468
C486	C	0.853658	0.278772	1.042468
C487	C	1.103658	0.528772	1.292468
C488	C	1.353658	0.778772	1.542468
C489	C	0.570530	0.061870	0.766365
C490	C	0.820530	0.311870	1.016365
C491	C	1.070530	0.561870	1.266365
C492	C	1.320530	0.811870	1.516365
C493	C	0.603623	0.028802	0.207622
C494	C	0.853623	0.278802	0.457622
C495	C	1.103623	0.528802	0.707622
C496	C	1.353623	0.778802	0.957622
C497	C	0.603620	0.028810	0.155401
C498	C	0.853620	0.278810	0.405401
C499	C	1.103620	0.528810	0.655401
C500	C	1.353620	0.778810	0.905401
C501	C	0.537374	0.095005	0.155416
C502	C	0.787374	0.345005	0.405416
C503	C	1.037374	0.595005	0.655416
C504	C	1.287374	0.845005	0.905416
C505	C	0.537379	0.094999	0.207633
C506	C	0.787379	0.344999	0.457633
C507	C	1.037379	0.594999	0.707633
C508	C	1.287379	0.844999	0.957633
C509	C	0.570505	0.061893	0.233734
C510	C	0.820505	0.311893	0.483734
C511	C	1.070505	0.561893	0.733734
C512	C	1.320505	0.811893	0.983734
O513	O	0.509243	0.123129	0.290248
O514	O	0.759243	0.373129	0.540248
O515	O	1.009243	0.623129	0.790248
O516	O	1.259243	0.873129	1.040248
O517	O	0.631789	0.000640	0.290266
O518	O	0.881789	0.250640	0.540266
O519	O	1.131789	0.500640	0.790266
O520	O	1.381789	0.750640	1.040266
C521	C	0.603636	0.028778	0.526148
C522	C	0.853636	0.278778	0.776148
C523	C	1.103636	0.528778	1.026148
C524	C	1.353636	0.778778	1.276148
C525	C	0.570515	0.061872	0.552260
C526	C	0.820515	0.311872	0.802260
C527	C	1.070515	0.561872	1.052260
C528	C	1.320515	0.811872	1.302260
C529	C	0.537393	0.094970	0.526156
C530	C	0.787393	0.344970	0.776156
C531	C	1.037393	0.594970	1.026156
C532	C	1.287393	0.844970	1.276156
C533	C	0.570519	0.061872	0.604479
C534	C	0.820519	0.311872	0.854479
C535	C	1.070519	0.561872	1.104479
C536	C	1.320519	0.811872	1.354479
C537	C	0.603641	0.028774	0.630583
C538	C	0.853641	0.278774	0.880583
C539	C	1.103641	0.528774	1.130583
C540	C	1.353641	0.778774	1.380583
C541	C	0.636760	-0.004324	0.604468
C542	C	0.886760	0.245676	0.854468
C543	C	1.136760	0.495676	1.104468
C544	C	1.386760	0.745676	1.354468
C545	C	0.636759	-0.004320	0.552252
C546	C	0.886759	0.245680	0.802252
C547	C	1.136759	0.495680	1.052252
C548	C	1.386759	0.745680	1.302252
C549	C	0.504274	0.128067	0.552271
C550	C	0.754274	0.378067	0.802271
C551	C	1.004274	0.628067	1.052271
C552	C	1.254274	0.878067	1.302271
C553	C	0.504279	0.128061	0.604487
C554	C	0.754279	0.378061	0.854487
C555	C	1.004279	0.628061	1.104487
C556	C	1.254279	0.878061	1.354487
C557	C	0.537401	0.094963	0.630591
C558	C	0.787401	0.344963	0.880591
C559	C	1.037401	0.594963	1.130591
C560	C	1.287401	0.844963	1.380591
H561	H	0.412716	0.145458	0.000018
H562	H	0.662716	0.395458	0.250018
H563	H	0.912716	0.645458	0.500018
H564	H	1.162716	0.895458	0.750018
F565	F	0.566825	-0.797668	0.093383
F566	F	0.816825	-0.547668	0.343383
F567	F	1.066825	-0.297668	0.593383
F568	F	1.316825	-0.047668	0.843383
F569	F	0.216847	-0.071888	0.000093
F570	F	0.466847	0.178112	0.250093
F571	F	0.716847	0.428112	0.500093
F572	F	0.966847	0.678112	0.750093
F573	F	0.469023	0.163291	0.632273
F574	F	0.719023	0.413291	0.882273
F575	F	0.969023	0.663291	1.132273
F576	F	1.219023	0.913291	1.382273
F577	F	-0.276461	-0.032761	0.000069
F578	F	-0.026461	0.217239	0.250069
F579	F	0.223539	0.467239	0.500069
F580	F	0.473539	0.717239	0.750069
H581	H	0.630595	0.001859	0.134142
H582	H	0.880595	0.251859	0.384142
H583	H	1.130595	0.501859	0.634142
H584	H	1.380595	0.751859	0.884142
H585	H	0.510411	0.121954	0.228894
H586	H	0.760411	0.371954	0.478894
H587	H	1.010411	0.621954	0.728894
H588	H	1.260411	0.871954	0.978894
F589	F	0.569223	-0.565753	-0.138535
F590	F	0.819223	-0.315753	0.111465
F591	F	1.069223	-0.065753	0.361465
F592	F	1.319223	0.184247	0.611465
H593	H	0.570222	-0.467989	-0.127229
H594	H	0.820222	-0.217989	0.122771
H595	H	1.070222	0.032011	0.372771
H596	H	1.320222	0.282011	0.622771
F597	F	0.672012	-0.039543	0.475594
F598	F	0.922012	0.210457	0.725594
F599	F	1.172012	0.460457	0.975594
F600	F	1.422012	0.710457	1.225594
H601	H	0.343363	-0.015426	0.000049
H602	H	0.593363	0.234574	0.250049
H603	H	0.843363	0.484574	0.500049
H604	H	1.093363	0.734574	0.750049
H605	H	0.477288	0.155023	0.469086
H606	H	0.727288	0.405023	0.719086
H607	H	0.977288	0.655023	0.969086
H608	H	1.227288	0.905023	1.219086
H609	H	0.477281	0.155022	0.374360
H610	H	0.727281	0.405022	0.624360
H611	H	0.977281	0.655022	0.874360
H612	H	1.227281	0.905022	1.124360
H613	H	0.573200	-0.176303	-0.081993
H614	H	0.823200	0.073697	0.168007
H615	H	1.073200	0.323697	0.418007
H616	H	1.323200	0.573697	0.668007
H617	H	-0.180232	-0.020747	0.000077
H618	H	0.069768	0.229253	0.250077
H619	H	0.319768	0.479253	0.500077
H620	H	0.569768	0.729253	0.750077
F621	F	0.638912	-0.006453	0.764683
F622	F	0.888912	0.243547	1.014683
F623	F	1.138912	0.493547	1.264683
F624	F	1.388912	0.743547	1.514683
F625	F	0.672013	-0.039548	0.632259
F626	F	0.922013	0.210452	0.882259
F627	F	1.172013	0.460452	1.132259
F628	F	1.422013	0.710452	1.382259
F629	F	0.502125	0.130230	0.127627
F630	F	0.752125	0.380230	0.377627
F631	F	1.002125	0.630230	0.627627
F632	F	1.252125	0.880230	0.877627
F633	F	-0.038455	-0.074480	0.000086
F634	F	0.211545	0.175520	0.250086
F635	F	0.461545	0.425520	0.500086
F636	F	0.711545	0.675520	0.750086
H637	H	0.630630	0.001820	0.865951
H638	H	0.880630	0.251820	1.115951
H639	H	1.130630	0.501820	1.365951
H640	H	1.380630	0.751820	1.615951
F641	F	0.567919	-0.693599	-0.093327
F642	F	0.817919	-0.443599	0.156673
F643	F	1.067919	-0.193599	0.406673
F644	F	1.317919	0.056401	0.656673
F645	F	0.672014	-0.039546	0.524468
F646	F	0.922014	0.210454	0.774468
F647	F	1.172014	0.460454	1.024468
F648	F	1.422014	0.710454	1.274468
H649	H	0.663725	-0.031259	0.374346
H650	H	0.913725	0.218741	0.624346
H651	H	1.163725	0.468741	0.874346
H652	H	1.413725	0.718741	1.124346
F653	F	0.469019	0.163296	0.524495
F654	F	0.719019	0.413296	0.774495
F655	F	0.969019	0.663296	1.024495
F656	F	1.219019	0.913296	1.274495
H657	H	0.057772	-0.062463	0.000084
H658	H	0.307772	0.187537	0.250084
H659	H	0.557772	0.437537	0.500084
H660	H	0.807772	0.687537	0.750084
H661	H	0.434830	-0.014493	0.000047
H662	H	0.684830	0.235507	0.250047
H663	H	0.934830	0.485507	0.500047
H664	H	1.184830	0.735507	0.750047
F665	F	0.028257	0.196735	0.000035
F666	F	0.278257	0.446735	0.250035
F667	F	0.528257	0.696735	0.500035
F668	F	0.778257	0.946735	0.750035
F669	F	0.569172	-0.565755	0.138613
F670	F	0.819172	-0.315755	0.388613
F671	F	1.069172	-0.065755	0.638613
F672	F	1.319172	0.184245	0.888613
H673	H	0.571774	-0.316756	-0.127221
H674	H	0.821774	-0.066756	0.122779
H675	H	1.071774	0.183244	0.372779
H676	H	1.321774	0.433244	0.622779
F677	F	-0.301629	0.149234	0.000048
F678	F	-0.051629	0.399234	0.250048
F679	F	0.198371	0.649234	0.500048
F680	F	0.448371	0.899234	0.750048
H681	H	-0.067981	0.184713	0.000043
H682	H	0.182019	0.434713	0.250043
H683	H	0.432019	0.684713	0.500043
H684	H	0.682019	0.934713	0.750043
H685	H	0.321264	0.144533	0.000032
H686	H	0.571264	0.394533	0.250032
H687	H	0.821264	0.644533	0.500032
H688	H	1.071264	0.894533	0.750032
H689	H	-0.202337	0.139211	0.000045
H690	H	0.047663	0.389211	0.250045
H691	H	0.297663	0.639211	0.500045
H692	H	0.547663	0.889211	0.750045
F693	F	0.567875	-0.693613	0.093391
F694	F	0.817875	-0.443613	0.343391
F695	F	1.067875	-0.193613	0.593391
F696	F	1.317875	0.056387	0.843391
F697	F	0.112792	-0.072950	0.000084
F698	F	0.362792	0.177050	0.250084
F699	F	0.612792	0.427050	0.500084
F700	F	0.862792	0.677050	0.750084
H701	H	0.574149	-0.084854	-0.081983
H702	H	0.824149	0.165146	0.168017
H703	H	1.074149	0.415146	0.418017
H704	H	1.324149	0.665146	0.668017
H705	H	0.574117	-0.084857	0.082111
H706	H	0.824117	0.165143	0.332111
H707	H	1.074117	0.415143	0.582111
H708	H	1.324117	0.665143	0.832111
H709	H	0.570834	-0.408202	-0.127226
H710	H	0.820834	-0.158202	0.122774
H711	H	1.070834	0.091798	0.372774
H712	H	1.320834	0.341798	0.622774
H713	H	0.566914	-0.791366	-0.082019
H714	H	0.816914	-0.541366	0.167981
H715	H	1.066914	-0.291366	0.417981
H716	H	1.316914	-0.041366	0.667981
F717	F	0.570710	-0.414509	0.138628
F718	F	0.820710	-0.164509	0.388628
F719	F	1.070710	0.085491	0.638628
F720	F	1.320710	0.335491	0.888628
F721	F	0.571772	-0.310454	0.138629
F722	F	0.821772	-0.060454	0.388629
F723	F	1.071772	0.189546	0.638629
F724	F	1.321772	0.439546	0.888629
H725	H	0.573180	-0.176324	0.082110
H726	H	0.823180	0.073676	0.332110
H727	H	1.073180	0.323676	0.582110
H728	H	1.323180	0.573676	0.832110
H729	H	0.570176	-0.468005	0.127309
H730	H	0.820176	-0.218005	0.377309
H731	H	1.070176	0.031995	0.627309
H732	H	1.320176	0.281995	0.877309
H733	H	0.174715	0.187185	0.000026
H734	H	0.424715	0.437185	0.250026
H735	H	0.674715	0.687185	0.500026
H736	H	0.924715	0.937185	0.750026
F737	F	0.502152	0.130197	0.764704
F738	F	0.752152	0.380197	1.014704
F739	F	1.002152	0.630197	1.264704
F740	F	1.252152	0.880197	1.514704
F741	F	0.638880	-0.006434	0.235394
F742	F	0.888880	0.243566	0.485394
F743	F	1.138880	0.493566	0.735394
F744	F	1.388880	0.743566	0.985394
H745	H	0.083267	0.186255	0.000035
H746	H	0.333267	0.436255	0.250035
H747	H	0.583267	0.686255	0.500035
H748	H	0.833267	0.936255	0.750035
F749	F	0.502166	0.130198	0.872484
F750	F	0.752166	0.380198	1.122484
F751	F	1.002166	0.630198	1.372484
F752	F	1.252166	0.880198	1.622484
