data_functionalizedCrystal
_audit_creation_method	'MofGen! by Chris Wilmer'
_symmetry_space_group_name_H-M	'P1'
_symmetry_Int_Tables_number	1
_symmetry_cell_setting	triclinic
loop_
_symmetry_equiv_pos_as_xyz
  x,y,z
_cell_length_a	19.288864
_cell_length_b	10.654541
_cell_length_c	18.366186
_cell_angle_alpha	89.994034
_cell_angle_beta	89.977106
_cell_angle_gamma	83.810087
loop_
_atom_site_label
_atom_site_type_symbol
_atom_site_fract_x
_atom_site_fract_y
_atom_site_fract_z
O1	O	0.922378	0.156657	-0.060783
O2	O	0.720255	0.177790	-0.060733
O3	O	0.825965	-0.015616	-0.060755
O4	O	0.816669	0.350062	-0.060761
O5	O	0.825946	-0.015625	0.060344
O6	O	0.720237	0.177780	0.060366
O7	O	0.922360	0.156647	0.060316
Zn8	Zn	0.821296	0.167212	0.079568
Zn9	Zn	0.821319	0.167225	-0.079985
O10	O	0.816650	0.350053	0.060338
C11	C	0.694365	0.177105	-0.000177
C12	C	0.617248	0.175064	-0.000158
C13	C	0.573295	0.288545	-0.000172
C14	C	0.500835	0.286627	-0.000180
C15	C	0.472332	0.171222	-0.000189
C16	C	0.516296	0.057725	-0.000171
C17	C	0.588754	0.059646	-0.000156
C18	C	0.363483	0.080504	-0.042638
C19	C	0.291026	0.078587	-0.042658
C20	C	0.248848	0.165292	-0.000233
C21	C	0.279134	0.253935	0.042203
C22	C	0.351592	0.255856	0.042218
C23	C	0.393765	0.169126	-0.000205
C24	C	0.126325	0.276702	-0.000254
C25	C	0.053864	0.274780	-0.000257
C26	C	0.069327	0.045875	-0.000256
C27	C	0.141786	0.047800	-0.000245
C28	C	0.170280	0.163218	-0.000248
C29	C	0.825273	-0.062404	-0.000205
C30	C	0.823232	-0.201804	-0.000206
C31	C	0.949636	-0.232480	-0.000228
C32	C	1.011877	-0.313307	-0.000237
C33	C	1.009955	-0.444284	-0.000239
C34	C	0.945785	-0.494436	-0.000234
C35	C	0.883545	-0.413609	-0.000225
C36	C	0.885474	-0.282631	-0.000221
C37	C	0.757142	-0.382933	-0.000208
C38	C	0.759063	-0.251955	-0.000201
C39	C	0.692973	-0.433084	-0.000203
C40	C	0.630732	-0.352257	-0.000188
C41	C	0.632656	-0.221273	-0.000186
C42	C	0.696823	-0.171129	-0.000192
C43	C	0.948250	0.157332	-0.000241
C44	C	1.025367	0.159373	-0.000265
C45	C	0.817342	0.396841	-0.000213
C46	C	0.819383	0.536241	-0.000217
N47	N	0.821284	0.167203	0.188459
N48	N	0.821336	0.167224	-0.188876
C49	C	0.868108	0.081605	0.226550
C50	C	0.868112	0.081599	0.302778
C51	C	0.821300	0.167213	0.340912
C52	C	0.774467	0.252818	0.302812
C53	C	0.774459	0.252813	0.226586
C54	C	0.812750	0.281635	0.461672
C55	C	0.812763	0.281642	0.537897
C56	C	0.821320	0.167229	0.576020
C57	C	0.829878	0.052805	0.537908
C58	C	0.829871	0.052799	0.461682
C59	C	0.821303	0.167228	0.423567
C60	C	0.868151	0.081618	0.696765
C61	C	0.868150	0.081611	0.772995
C62	C	0.774508	0.252840	0.773027
C63	C	0.774505	0.252836	0.696800
C64	C	0.821330	0.167227	0.658673
H65	H	0.596490	0.382527	-0.000175
Cl66	Cl	0.926983	-0.026018	0.350672
H67	H	0.836838	-0.040369	0.430655
H68	H	0.465041	0.379041	-0.000189
H69	H	0.736329	0.322518	0.195572
Cl70	Cl	0.840642	-0.091039	0.585825
Cl71	Cl	0.690557	-0.597742	-0.000251
Cl72	Cl	0.033502	-0.099209	-0.000259
H73	H	0.906278	0.011900	0.804009
Cl74	Cl	0.197045	-0.094871	-0.000233
H75	H	0.736350	0.322524	0.333865
Cl76	Cl	0.802057	0.425486	0.413754
H77	H	0.578490	-0.393102	-0.000189
Cl78	Cl	0.389665	0.367281	0.095566
Cl79	Cl	0.699248	-0.006473	-0.000183
H80	H	0.149526	0.370682	-0.000245
Cl81	Cl	0.554406	-0.119673	-0.000179
Cl82	Cl	0.943371	-0.659094	-0.000286
Cl83	Cl	0.226118	0.362944	0.095541
H84	H	0.018077	0.367194	-0.000264
H85	H	0.906234	0.011894	0.195510
H86	H	0.736380	0.322543	0.665784
H87	H	0.906276	0.011905	0.665722
H88	H	0.736390	0.322544	0.804076
Cl89	Cl	0.802008	0.425487	0.585800
H90	H	0.266373	0.006414	-0.077214
H91	H	0.397820	0.009895	-0.077190
H92	H	0.493085	-0.036239	-0.000189
Cl93	Cl	0.644013	-0.083028	-0.000140
H94	H	1.064122	-0.272459	-0.000235
Cl95	Cl	1.088200	-0.545898	-0.000257
Cl96	Cl	0.952058	-0.067824	-0.000209
