data_functionalizedCrystal
_audit_creation_method	'MofGen! by Chris Wilmer'
_symmetry_space_group_name_H-M	'P1'
_symmetry_Int_Tables_number	1
_symmetry_cell_setting	triclinic
loop_
_symmetry_equiv_pos_as_xyz
  x,y,z
_cell_length_a	13.032831
_cell_length_b	17.637651
_cell_length_c	13.032268
_cell_angle_alpha	95.517745
_cell_angle_beta	89.113023
_cell_angle_gamma	92.682084
loop_
_atom_site_label
_atom_site_type_symbol
_atom_site_fract_x
_atom_site_fract_y
_atom_site_fract_z
Zn1	Zn	1.381839	-0.508243	0.630045
Zn2	Zn	1.881839	-0.008243	1.130045
Zn3	Zn	1.377848	-0.620370	0.424798
Zn4	Zn	1.877848	-0.120370	0.924798
Zn5	Zn	1.238912	-0.476804	0.445613
Zn6	Zn	1.738912	0.023196	0.945613
Zn7	Zn	1.185030	-0.616301	0.576130
Zn8	Zn	1.685030	-0.116301	1.076130
O9	O	1.295908	-0.555429	0.519147
O10	O	1.795908	-0.055429	1.019147
O11	O	1.521820	-0.537977	0.616670
O12	O	2.021820	-0.037977	1.116670
O13	O	1.380298	-0.589871	0.287041
O14	O	1.880298	-0.089871	0.787041
O15	O	1.282092	-0.375669	0.501353
O16	O	1.782092	0.124331	1.001353
O17	O	1.518888	-0.620356	0.465876
O18	O	2.018888	-0.120356	0.965876
O19	O	1.387099	-0.398767	0.636854
O20	O	1.887099	0.101233	1.136854
O21	O	1.278222	-0.484394	0.302334
O22	O	1.778222	0.015606	0.802334
O23	O	1.091255	-0.480449	0.449074
O24	O	1.591255	0.019551	0.949074
O25	O	1.190258	-0.613421	0.723801
O26	O	1.690258	-0.113421	1.223801
O27	O	1.051668	-0.582936	0.544965
O28	O	1.551668	-0.082936	1.044965
O29	O	1.334852	-0.534031	0.763411
O30	O	1.834852	-0.034031	1.263411
O31	O	1.328051	-0.725135	0.413598
O32	O	1.828051	-0.225135	0.913598
O33	O	1.186388	-0.722146	0.524781
O34	O	1.686388	-0.222146	1.024781
C35	C	1.035028	-0.527840	0.493428
C36	C	1.535028	-0.027840	0.993428
C37	C	0.923415	-0.516057	0.482444
C38	C	1.423415	-0.016057	0.982444
C39	C	0.854092	-0.561579	0.524879
C40	C	1.354092	-0.061579	1.024879
C41	C	0.738734	-0.549402	0.513528
C42	C	1.238734	-0.049402	1.013528
C43	C	1.250963	-0.750950	0.461105
C44	C	1.750963	-0.250950	0.961105
C45	C	1.231823	-0.834607	0.436317
C46	C	1.731823	-0.334607	0.936317
C47	C	1.441920	-1.169577	0.707838
C48	C	1.941920	-0.669577	1.207838
C49	C	1.423906	-1.248181	0.684525
C50	C	1.923906	-0.748181	1.184525
C51	C	1.314665	-1.224235	0.543312
C52	C	1.814665	-0.724235	1.043312
C53	C	1.332675	-1.145628	0.566610
C54	C	1.832675	-0.645628	1.066610
C55	C	1.396302	-1.118306	0.648875
C56	C	1.896302	-0.618306	1.148875
C57	C	1.287057	-1.094357	0.507647
C58	C	1.787057	-0.594357	1.007647
C59	C	1.305061	-1.015756	0.530946
C60	C	1.805061	-0.515756	1.030946
C61	C	1.368683	-0.988427	0.613209
C62	C	1.868683	-0.488427	1.113209
C63	C	1.414306	-1.039705	0.672174
C64	C	1.914306	-0.539705	1.172174
C65	C	1.223424	-1.121681	0.425387
C66	C	1.723424	-0.621681	0.925387
C67	C	1.177806	-1.070409	0.366424
C68	C	1.677806	-0.570409	0.866424
C69	C	1.195815	-0.991807	0.389718
C70	C	1.695815	-0.491807	0.889718
C71	C	1.259437	-0.964478	0.471981
C72	C	1.759437	-0.464478	0.971981
C73	C	1.150192	-0.940529	0.330753
C74	C	1.650192	-0.440529	0.830753
C75	C	1.168196	-0.861929	0.354052
C76	C	1.668196	-0.361929	0.854052
C77	C	1.277441	-0.885878	0.495280
C78	C	1.777441	-0.385878	0.995280
C79	C	1.557805	-0.583127	0.544966
C80	C	2.057805	-0.083127	1.044966
C81	C	1.669411	-0.594930	0.555968
C82	C	2.169411	-0.094930	1.055968
C83	C	1.256990	-0.576779	0.781060
C84	C	1.756990	-0.076779	1.281060
C85	C	1.240405	-0.585877	0.892671
C86	C	1.740405	-0.085877	1.392671
C87	C	1.341051	-0.359150	0.577440
C88	C	1.841051	0.140850	1.077440
C89	C	1.360289	-0.275508	0.602281
C90	C	1.860289	0.224492	1.102281
C91	C	1.334744	-0.534115	0.258274
C92	C	1.834744	-0.034115	0.758274
C93	C	1.351572	-0.524825	0.146745
C94	C	1.851572	-0.024825	0.646745
C95	C	1.304554	-0.550652	0.962030
C96	C	1.804554	-0.050652	1.462030
C97	C	1.287414	-0.560055	1.077387
C98	C	1.787414	-0.060055	1.577387
H99	H	1.329262	-0.863632	0.562262
H100	H	1.829262	-0.363632	1.062262
Br101	Br	1.127708	-0.647737	0.936031
Br102	Br	1.627708	-0.147737	1.436031
Br103	Br	1.464279	-0.462966	1.103394
Br104	Br	1.964279	0.037034	1.603394
H105	H	0.897362	-0.468067	0.437716
H106	H	1.397362	0.031933	0.937716
Br107	Br	1.500677	-1.002618	0.783806
Br108	Br	2.000677	-0.502618	1.283806
Br109	Br	1.228305	-1.261323	0.431681
Br110	Br	1.728305	-0.761323	0.931681
H111	H	0.712686	-0.501408	0.468796
H112	H	1.212686	-0.001408	0.968796
H113	H	1.383341	-0.924425	0.632177
H114	H	1.883341	-0.424425	1.132177
Br115	Br	1.417219	-0.488759	0.918675
Br116	Br	1.917219	0.011241	1.418675
Br117	Br	0.897503	-0.641567	0.599438
Br118	Br	1.397503	-0.141567	1.099438
H119	H	0.695457	-0.642917	0.600712
H120	H	1.195457	-0.142917	1.100712
Br121	Br	1.091445	-1.107497	0.254792
Br122	Br	1.591445	-0.607497	0.754792
H123	H	1.493741	-1.147331	0.774819
H124	H	1.993741	-0.647331	1.274819
H125	H	1.461042	-1.289925	0.732559
H126	H	1.961042	-0.789925	1.232559
Br127	Br	1.063822	-0.977620	0.219130
Br128	Br	1.563822	-0.477620	0.719130
Br129	Br	1.174712	-0.621918	1.120741
Br130	Br	1.674712	-0.121918	1.620741
H131	H	1.208756	-1.185683	0.406428
H132	H	1.708756	-0.685683	0.906428
H133	H	1.131047	-0.820183	0.306039
H134	H	1.631047	-0.320183	0.806039
