data_functionalizedCrystal
_audit_creation_method	'MofGen! by Chris Wilmer'
_symmetry_space_group_name_H-M	'P1'
_symmetry_Int_Tables_number	1
_symmetry_cell_setting	triclinic
loop_
_symmetry_equiv_pos_as_xyz
  x,y,z
_cell_length_a	12.759387
_cell_length_b	19.077105
_cell_length_c	19.076808
_cell_angle_alpha	90.072392
_cell_angle_beta	87.665428
_cell_angle_gamma	92.320263
loop_
_atom_site_label
_atom_site_type_symbol
_atom_site_fract_x
_atom_site_fract_y
_atom_site_fract_z
Zn1	Zn	-0.638332	-1.063030	-0.322955
Zn2	Zn	-0.138332	-0.563030	0.177045
Zn3	Zn	-0.455298	-1.058212	-0.440483
Zn4	Zn	0.044702	-0.558212	0.059517
Zn5	Zn	-0.455904	-0.945514	-0.318262
Zn6	Zn	0.044096	-0.445514	0.181738
Zn7	Zn	-0.624182	-0.940768	-0.435704
Zn8	Zn	-0.124182	-0.440768	0.064296
O9	O	-0.543429	-1.001881	-0.379351
O10	O	-0.043429	-0.501881	0.120649
O11	O	-0.619720	-1.160722	-0.342510
O12	O	-0.119720	-0.660722	0.157490
O13	O	-0.308353	-1.043233	-0.424306
O14	O	0.191647	-0.543233	0.075694
O15	O	-0.486280	-0.965104	-0.220549
O16	O	0.013720	-0.465104	0.279451
O17	O	-0.485246	-1.157183	-0.428857
O18	O	0.014754	-0.657183	0.071143
O19	O	-0.620309	-1.051443	-0.223997
O20	O	-0.120309	-0.551443	0.276003
O21	O	-0.308799	-0.960433	-0.334511
O22	O	0.191201	-0.460433	0.165489
O23	O	-0.472559	-0.846552	-0.329877
O24	O	0.027441	-0.346552	0.170123
O25	O	-0.773084	-0.957016	-0.420712
O26	O	-0.273084	-0.457016	0.079288
O27	O	-0.596191	-0.843066	-0.416161
O28	O	-0.096191	-0.343066	0.083839
O29	O	-0.783480	-1.046841	-0.337876
O30	O	-0.283480	-0.546841	0.162124
O31	O	-0.471525	-1.038631	-0.538185
O32	O	0.028475	-0.538631	-0.038185
O33	O	-0.595603	-0.952345	-0.534674
O34	O	-0.095603	-0.452345	-0.034674
C35	C	-0.532906	-0.819313	-0.371992
C36	C	-0.032906	-0.319313	0.128008
C37	C	-0.528428	-0.741208	-0.368860
C38	C	-0.028428	-0.241208	0.131140
C39	C	-0.817470	-1.001937	-0.379285
C40	C	-0.317470	-0.501937	0.120715
C41	C	-0.934250	-1.001960	-0.379256
C42	C	-0.434250	-0.501960	0.120744
C43	C	-0.531986	-0.994469	-0.561928
C44	C	-0.031986	-0.494469	-0.061928
C45	C	-0.527130	-0.991363	-0.640038
C46	C	-0.027130	-0.491363	-0.140038
C47	C	-0.945095	-1.095501	-0.293005
C48	C	-0.445095	-0.595501	0.206995
C49	C	-1.005380	-1.142282	-0.249869
C50	C	-0.505380	-0.642282	0.250131
C51	C	-1.115104	-1.142300	-0.249844
C52	C	-0.615104	-0.642300	0.250156
C53	C	-1.164546	-1.095531	-0.292958
C54	C	-0.664546	-0.595531	0.207042
C55	C	-1.104261	-1.048750	-0.336094
C56	C	-0.604261	-0.548750	0.163906
C57	C	-0.994535	-1.048739	-0.336116
C58	C	-0.494535	-0.548739	0.163884
C59	C	-1.093416	-0.955207	-0.422340
C60	C	-0.593416	-0.455207	0.077660
C61	C	-0.983691	-0.955191	-0.422370
C62	C	-0.483691	-0.455191	0.077630
C63	C	-1.142857	-0.908438	-0.465454
C64	C	-0.642857	-0.408438	0.034546
C65	C	-1.082572	-0.861660	-0.508595
C66	C	-0.582572	-0.361660	-0.008595
C67	C	-0.972842	-0.861644	-0.508618
C68	C	-0.472842	-0.361644	-0.008618
C69	C	-0.923407	-0.908411	-0.465506
C70	C	-0.423407	-0.408411	0.034494
C71	C	-0.270460	-1.001868	-0.379369
C72	C	0.229540	-0.501868	0.120631
C73	C	-0.153701	-1.001988	-0.379205
C74	C	0.346299	-0.501988	0.120795
C75	C	-0.553994	-1.185162	-0.386740
C76	C	-0.053994	-0.685162	0.113260
C77	C	-0.558496	-1.263266	-0.389889
C78	C	-0.058496	-0.763266	0.110111
C79	C	-0.590583	-0.702715	-0.412380
C80	C	-0.090583	-0.202715	0.087620
C81	C	-0.586381	-0.629328	-0.409428
C82	C	-0.086381	-0.129328	0.090572
C83	C	-0.520018	-0.594436	-0.362960
C84	C	-0.020018	-0.094436	0.137040
C85	C	-0.457860	-0.632934	-0.319435
C86	C	0.042140	-0.132934	0.180565
C87	C	-0.462068	-0.706320	-0.322383
C88	C	0.037932	-0.206320	0.177617
C89	C	-0.500547	-0.375150	-0.349313
C90	C	-0.000547	0.124850	0.150687
C91	C	-0.496341	-0.301759	-0.346369
C92	C	0.003659	0.198241	0.153631
C93	C	-0.624864	-0.298158	-0.436362
C94	C	-0.124864	0.201842	0.063638
C95	C	-0.629061	-0.371545	-0.439310
C96	C	-0.129061	0.128455	0.060690
C97	C	-0.566908	-0.410037	-0.395782
C98	C	-0.066908	0.089963	0.104218
N99	N	-0.515719	-0.519423	-0.359943
N100	N	-0.015719	-0.019423	0.140057
N101	N	-0.571213	-0.485049	-0.398796
N102	N	-0.071213	0.014951	0.101204
C103	C	-0.594683	-1.034822	-0.678467
C104	C	-0.094683	-0.534822	-0.178467
C105	C	-0.590121	-1.031900	-0.751859
C106	C	-0.090121	-0.531900	-0.251859
C107	C	-0.518001	-0.985523	-0.786821
C108	C	-0.018001	-0.485523	-0.286821
C109	C	-0.450446	-0.942059	-0.748386
C110	C	0.049554	-0.442059	-0.248386
C111	C	-0.455013	-0.944978	-0.674995
C112	C	0.044987	-0.444978	-0.174995
C113	C	-0.496858	-0.971974	-1.006130
C114	C	0.003142	-0.471974	-0.506130
C115	C	-0.492293	-0.969060	-1.079526
C116	C	0.007707	-0.469060	-0.579526
C117	C	-0.631971	-1.058901	-1.082995
C118	C	-0.131971	-0.558901	-0.582995
C119	C	-0.636527	-1.061818	-1.009602
C120	C	-0.136527	-0.561818	-0.509602
C121	C	-0.568976	-1.018352	-0.971174
C122	C	-0.068976	-0.518352	-0.471174
N123	N	-0.513335	-0.982537	-0.861839
N124	N	-0.013335	-0.482537	-0.361839
N125	N	-0.573648	-1.021335	-0.896156
N126	N	-0.073648	-0.521335	-0.396156
C127	C	-0.554940	-1.009340	-0.196063
C128	C	-0.054940	-0.509340	0.303937
C129	C	-0.559846	-1.012519	-0.117956
C130	C	-0.059846	-0.512519	0.382044
H131	H	-0.855753	-1.095498	-0.293028
H132	H	-0.355753	-0.595498	0.206972
H133	H	-0.442307	-0.273352	-0.308520
H134	H	0.057693	0.226648	0.191480
H135	H	-0.636993	-0.597990	-0.444868
H136	H	-0.136993	-0.097990	0.055132
C137	C	-1.285239	-1.095548	-0.292926
C138	C	-0.785239	-0.595548	0.207074
H139	H	-1.314061	-1.130108	-0.261063
H140	H	-0.814061	-0.630108	0.238937
H141	H	-1.308204	-1.050701	-0.278939
H142	H	-0.808204	-0.550701	0.221061
H143	H	-1.307914	-1.105859	-0.338761
H144	H	-0.807914	-0.605859	0.161239
C145	C	-1.181424	-1.193756	-0.202398
C146	C	-0.681424	-0.693756	0.297602
H147	H	-1.253852	-1.187062	-0.208558
H148	H	-0.753852	-0.687062	0.291442
H149	H	-1.165525	-1.240547	-0.214592
H150	H	-0.665525	-0.740547	0.285408
H151	H	-1.165822	-1.185391	-0.154768
H152	H	-0.665822	-0.685391	0.345232
H153	H	-0.411461	-0.737660	-0.286941
H154	H	0.088539	-0.237660	0.213059
H155	H	-0.449929	-0.406481	-0.313875
H156	H	0.050071	0.093519	0.186125
C157	C	-0.702068	-0.409922	-0.490421
C158	C	-0.202068	0.090078	0.009579
H159	H	-0.738492	-0.376486	-0.515914
H160	H	-0.238492	0.123514	-0.015914
H161	H	-0.661530	-0.437297	-0.522157
H162	H	-0.161530	0.062703	-0.022157
H163	H	-0.751238	-0.439652	-0.464720
H164	H	-0.251238	0.060348	0.035280
H165	H	-1.232201	-0.908454	-0.465428
H166	H	-0.732201	-0.408454	0.034572
C167	C	-0.693284	-0.255820	-0.484203
C168	C	-0.193284	0.244180	0.015797
H169	H	-0.733420	-0.287112	-0.512294
H170	H	-0.233420	0.212888	-0.012294
H171	H	-0.739155	-0.228313	-0.456181
H172	H	-0.239155	0.271687	0.043819
H173	H	-0.649498	-0.225923	-0.513654
H174	H	-0.149498	0.274077	-0.013654
H175	H	-0.433564	-0.931291	-1.107990
H176	H	0.066436	-0.431291	-0.607990
H177	H	-0.391728	-0.904295	-0.776857
H178	H	0.108272	-0.404295	-0.276857
C179	C	-1.136958	-0.810223	-0.556014
C180	C	-0.636958	-0.310223	-0.056014
H181	H	-1.210939	-0.816934	-0.549822
H182	H	-0.710939	-0.316934	-0.049822
H183	H	-1.116893	-0.763426	-0.543832
H184	H	-0.616893	-0.263426	-0.043832
H185	H	-1.116608	-0.818586	-0.603652
H186	H	-0.616608	-0.318586	-0.103652
H187	H	-0.403830	-0.604519	-0.281596
H188	H	0.096170	-0.104519	0.218404
H189	H	-0.923764	-0.823542	-0.543737
H190	H	-0.423764	-0.323542	-0.043737
H191	H	-0.441853	-0.936584	-0.974847
H192	H	0.058147	-0.436584	-0.474847
C193	C	-0.802713	-0.908392	-0.465531
C194	C	-0.302713	-0.408392	0.034469
H195	H	-0.773887	-0.873836	-0.497397
H196	H	-0.273887	-0.373836	0.002603
H197	H	-0.780045	-0.898090	-0.419697
H198	H	-0.280045	-0.398090	0.080303
H199	H	-0.779747	-0.953240	-0.479526
H200	H	-0.279747	-0.453240	0.020474
C201	C	-0.380704	-0.897174	-0.632722
C202	C	0.119296	-0.397174	-0.132722
H203	H	-0.337092	-0.869139	-0.664054
H204	H	0.162908	-0.369139	-0.164054
H205	H	-0.420874	-0.867682	-0.602867
H206	H	0.079126	-0.367682	-0.102867
H207	H	-0.338288	-0.925211	-0.605174
H208	H	0.161712	-0.425211	-0.105174
H209	H	-0.644620	-0.731119	-0.450223
H210	H	-0.144620	-0.231119	0.049777
H211	H	-0.653406	-1.072590	-0.650007
H212	H	-0.153406	-0.572590	-0.150007
H213	H	-0.645122	-1.067294	-0.783146
H214	H	-0.145122	-0.567294	-0.283146
C215	C	-0.715861	-1.112830	-0.971146
C216	C	-0.215861	-0.612830	-0.471146
H217	H	-0.708899	-1.108347	-0.921933
H218	H	-0.208899	-0.608347	-0.421933
H219	H	-0.785099	-1.102046	-0.982733
H220	H	-0.285099	-0.602046	-0.482733
H221	H	-0.702511	-1.159574	-0.985041
H222	H	-0.202511	-0.659574	-0.485041
C223	C	-0.706279	-1.106703	-1.125267
C224	C	-0.206279	-0.606703	-0.625267
H225	H	-0.693239	-1.098320	-1.173983
H226	H	-0.193239	-0.598320	-0.673983
H227	H	-0.694439	-1.154401	-1.115106
H228	H	-0.194439	-0.654401	-0.615106
H229	H	-0.777015	-1.096865	-1.112797
H230	H	-0.277015	-0.596865	-0.612797
H231	H	-0.965113	-1.180359	-0.214766
H232	H	-0.465113	-0.680359	0.285234
