data_functionalizedCrystal
_audit_creation_method	'MofGen! by Chris Wilmer'
_symmetry_space_group_name_H-M	'P1'
_symmetry_Int_Tables_number	1
_symmetry_cell_setting	triclinic
loop_
_symmetry_equiv_pos_as_xyz
  x,y,z
_cell_length_a	18.101395
_cell_length_b	15.298183
_cell_length_c	15.296720
_cell_angle_alpha	69.223470
_cell_angle_beta	99.643705
_cell_angle_gamma	99.632174
loop_
_atom_site_label
_atom_site_type_symbol
_atom_site_fract_x
_atom_site_fract_y
_atom_site_fract_z
Zn1	Zn	-0.523352	-1.330519	-0.279432
Zn2	Zn	-0.628919	-1.357318	-0.123938
Zn3	Zn	-0.486871	-1.201942	-0.150885
Zn4	Zn	-0.628902	-1.174962	-0.306351
O5	O	-0.567011	-1.266185	-0.215152
O6	O	-0.552630	-1.464201	-0.236262
O7	O	-0.594815	-1.359214	0.002625
O8	O	-0.388090	-1.219074	-0.167949
O9	O	-0.630189	-1.483890	-0.122021
O10	O	-0.414892	-1.313539	-0.262392
O11	O	-0.490453	-1.245060	-0.017172
O12	O	-0.490438	-1.068236	-0.194051
O13	O	-0.630162	-1.173090	-0.432918
O14	O	-0.594787	-1.048414	-0.308271
O15	O	-0.552614	-1.287378	-0.413141
O16	O	-0.732537	-1.333052	-0.148124
O17	O	-0.732525	-1.199075	-0.282142
C18	C	-0.538653	-1.024584	-0.257007
C19	C	-0.526541	-0.921223	-0.274935
C20	C	-0.480555	-0.862402	-0.342934
C21	C	-0.469169	-0.765288	-0.359780
C22	C	-0.503773	-0.726985	-0.308635
C23	C	-0.549764	-0.785805	-0.240639
C24	C	-0.561147	-0.882929	-0.223786
C25	C	-0.584364	-0.747511	-0.189487
C26	C	-0.630356	-0.806332	-0.121491
C27	C	-0.641737	-0.903446	-0.104642
C28	C	-0.607133	-0.941750	-0.155787
C29	C	-0.572982	-0.650387	-0.206340
C30	C	-0.653573	-0.670914	-0.087193
C31	C	-0.664959	-0.768028	-0.070346
C32	C	-0.759404	-1.266066	-0.215146
C33	C	-0.841724	-1.266094	-0.215160
C34	C	-1.140845	-1.266289	-0.215174
C35	C	-1.109583	-1.182131	-0.299644
C36	C	-1.023899	-1.181829	-0.299478
C37	C	-0.992447	-1.266192	-0.215168
C38	C	-1.008974	-1.256633	-0.121752
C39	C	-1.094616	-1.256096	-0.122263
C40	C	-1.123677	-1.360313	-0.223230
C41	C	-1.038210	-1.359363	-0.225480
C42	C	-0.908579	-1.266140	-0.215158
C43	C	-1.224712	-1.266341	-0.215178
C44	C	-0.373872	-1.266327	-0.215173
C45	C	-0.291568	-1.266388	-0.215183
C46	C	-0.595456	-1.224235	-0.457716
C47	C	-0.607577	-1.206358	-0.561083
C48	C	-0.595474	-0.508731	-0.173124
C49	C	-0.607587	-0.612093	-0.155191
C50	C	-0.480252	-1.393988	-0.811267
C51	C	-0.468866	-1.410790	-0.714148
C52	C	-0.503542	-1.359683	-0.675877
C53	C	-0.549608	-1.291772	-0.734735
C54	C	-0.561000	-1.274974	-0.831862
C55	C	-0.584290	-1.240669	-0.696472
C56	C	-0.630356	-1.172758	-0.755330
C57	C	-0.641746	-1.155962	-0.852448
C58	C	-0.607069	-1.207068	-0.890719
C59	C	-0.572898	-1.257467	-0.599344
C60	C	-0.653646	-1.138453	-0.619940
C61	C	-0.665032	-1.121651	-0.717059
C62	C	-0.538630	-1.308026	0.026479
C63	C	-0.526321	-1.326083	0.129876
H64	H	-0.494497	-0.647910	-0.322353
F65	F	-0.690558	-1.084062	-0.579214
H66	H	-0.431724	-0.717404	-0.415144
H67	H	-0.431361	-1.466086	-0.666232
F68	F	-0.524036	-0.587798	-0.278704
F69	F	-0.690666	-0.966048	-0.032254
F70	F	-0.713905	-0.830639	0.002019
H71	H	-0.452382	-0.893600	-0.384565
F72	F	-0.491421	-1.377566	-0.572513
H73	H	-1.017680	-1.424020	-0.167084
H74	H	-0.679263	-1.100671	-0.900367
H75	H	-0.616412	-1.020825	-0.142086
H76	H	-0.616338	-1.193392	-0.969801
F77	F	-1.150155	-1.187104	-0.391226
F78	F	-0.714058	-1.049377	-0.779710
H79	H	-0.681751	-0.639728	-0.045546
F80	F	-1.010067	-1.187074	-0.390712
H81	H	-1.120740	-1.112502	-0.295785
H82	H	-1.144028	-1.422806	-0.161500
F83	F	-0.983468	-1.090286	-0.294265
F84	F	-1.106525	-1.166920	-0.110756
F85	F	-1.120831	-1.333936	-0.038389
H86	H	-0.976700	-1.189235	-0.112435
F87	F	-0.981638	-1.335209	-0.038217
F88	F	-1.166335	-1.376030	-0.309577
F89	F	-1.025738	-1.369190	-0.315231
F90	F	-0.443359	-1.448378	-0.852003
H91	H	-0.535390	-1.312761	-0.551432
