data_functionalizedCrystal
_audit_creation_method	'MofGen! by Chris Wilmer'
_symmetry_space_group_name_H-M	'P1'
_symmetry_Int_Tables_number	1
_symmetry_cell_setting	triclinic
loop_
_symmetry_equiv_pos_as_xyz
  x,y,z
_cell_length_a	16.992694
_cell_length_b	10.967829
_cell_length_c	16.053802
_cell_angle_alpha	80.477515
_cell_angle_beta	87.249047
_cell_angle_gamma	87.623462
loop_
_atom_site_label
_atom_site_type_symbol
_atom_site_fract_x
_atom_site_fract_y
_atom_site_fract_z
O1	O	1.046843	0.257191	-0.106324
O2	O	0.818523	0.254315	-0.105935
O3	O	0.936728	0.076458	-0.080330
O4	O	0.928638	0.435048	-0.131930
O5	O	0.930221	0.086205	0.057126
O6	O	0.812017	0.264061	0.031521
O7	O	1.040336	0.266938	0.031131
Zn8	Zn	0.925143	0.267047	0.053150
Zn9	Zn	0.933716	0.254206	-0.127954
O10	O	0.922131	0.444795	0.005526
C11	C	0.786012	0.255489	-0.036678
C12	C	0.698834	0.244453	-0.035100
C13	C	0.649897	0.350928	-0.050421
C14	C	0.567982	0.340553	-0.048916
C15	C	0.535007	0.223701	-0.032097
C16	C	0.583950	0.117219	-0.016772
C17	C	0.665862	0.127596	-0.018271
C18	C	0.290882	0.180693	-0.025886
C19	C	0.208963	0.170324	-0.024391
C20	C	0.193001	0.393660	-0.056533
C21	C	0.274916	0.404026	-0.058035
C22	C	0.323852	0.297544	-0.042706
N23	N	0.451278	0.213093	-0.030561
N24	N	0.407579	0.308153	-0.044236
C25	C	0.932395	0.035236	-0.004971
C26	C	0.929166	-0.102116	0.014787
C27	C	0.931098	-0.168395	-0.047611
C28	C	0.927761	-0.310355	-0.027191
C29	C	1.072847	0.265763	-0.038127
C30	C	1.160026	0.276799	-0.039711
C31	C	0.926465	0.486017	-0.069835
C32	C	0.929693	0.623368	-0.089598
N33	N	0.919298	0.275811	0.176749
N34	N	0.939567	0.245432	-0.251551
C35	C	0.969613	0.200164	0.231333
C36	C	0.965532	0.206306	0.317856
C37	C	0.911139	0.288104	0.349791
C38	C	0.860818	0.363755	0.295200
C39	C	0.864896	0.357605	0.208680
C40	C	0.893325	0.314933	0.607338
C41	C	0.889252	0.321080	0.693864
C42	C	0.993966	0.163629	0.716515
C43	C	0.998042	0.157492	0.629991
C44	C	0.947719	0.233138	0.575408
N45	N	0.906967	0.294388	0.438230
N46	N	0.951887	0.226847	0.486972
H47	H	0.153149	0.480351	-0.069011
H48	H	1.042334	0.090886	0.603992
H49	H	0.935218	-0.120041	-0.116149
H50	H	1.006502	0.144707	0.362299
O51	O	0.552016	0.003634	-0.000536
C52	C	0.580235	-0.066800	-0.062328
H53	H	0.638560	-0.029199	-0.091716
H54	H	0.589584	-0.167464	-0.031669
H55	H	0.535381	-0.060693	-0.113564
H56	H	1.034936	0.102041	0.760964
O57	O	0.713489	0.024248	-0.003515
C58	C	0.764695	0.018502	-0.074617
H59	H	0.771154	0.115325	-0.112528
H60	H	0.824920	-0.020322	-0.052857
H61	H	0.739421	-0.044141	-0.115958
H62	H	0.923632	-0.358703	0.041352
O63	O	0.934699	-0.319069	-0.171393
C64	C	1.003898	-0.360953	-0.211464
H65	H	1.023307	-0.455642	-0.176446
H66	H	0.991781	-0.368390	-0.279643
H67	H	1.052562	-0.292698	-0.210705
O68	O	0.807941	0.443045	0.326337
C69	C	0.756334	0.375588	0.386601
H70	H	0.785809	0.282913	0.413032
H71	H	0.741680	0.430262	0.440195
H72	H	0.699783	0.359045	0.355307
H73	H	0.844956	0.387695	0.719860
H74	H	0.852351	0.376530	0.562903
H75	H	0.823923	0.419203	0.164237
H76	H	0.330716	0.093987	-0.013403
H77	H	0.676739	0.446081	-0.064117
H78	H	0.925038	-0.150469	0.083326
H79	H	0.301759	0.499178	-0.071741
O80	O	1.022474	0.120597	0.200460
C81	C	1.066020	0.055168	0.267193
H82	H	1.030910	0.054953	0.329532
H83	H	1.077969	-0.044118	0.256233
H84	H	1.124393	0.101757	0.269774
H85	H	0.528141	0.427256	-0.061393
H86	H	0.182118	0.075165	-0.010694
