data_functionalizedCrystal
_audit_creation_method	'MofGen! by Chris Wilmer'
_symmetry_space_group_name_H-M	'P1'
_symmetry_Int_Tables_number	1
_symmetry_cell_setting	triclinic
loop_
_symmetry_equiv_pos_as_xyz
  x,y,z
_cell_length_a	13.032831
_cell_length_b	13.897448
_cell_length_c	13.033109
_cell_angle_alpha	97.153140
_cell_angle_beta	76.665514
_cell_angle_gamma	82.822399
loop_
_atom_site_label
_atom_site_type_symbol
_atom_site_fract_x
_atom_site_fract_y
_atom_site_fract_z
Zn1	Zn	1.700113	-0.678106	-0.806401
Zn2	Zn	2.200113	-0.178106	-0.306401
Zn3	Zn	1.677445	-0.815943	-0.628782
Zn4	Zn	2.177445	-0.315943	-0.128782
Zn5	Zn	1.499937	-0.631189	-0.606295
Zn6	Zn	1.999937	-0.131189	-0.106295
Zn7	Zn	1.522460	-0.815858	-0.783826
Zn8	Zn	2.022460	-0.315858	-0.283826
O9	O	1.599989	-0.735274	-0.706326
O10	O	2.099989	-0.235274	-0.206326
O11	O	1.845742	-0.716060	-0.801698
O12	O	2.345742	-0.216060	-0.301698
O13	O	1.634986	-0.771836	-0.477168
O14	O	2.134986	-0.271836	0.022832
O15	O	1.526552	-0.502443	-0.632875
O16	O	2.026552	-0.002443	-0.132875
O17	O	1.829088	-0.817329	-0.671203
O18	O	2.329088	-0.317329	-0.171203
O19	O	1.673620	-0.536912	-0.779893
O20	O	2.173620	-0.036912	-0.279893
O21	O	1.504572	-0.636098	-0.460646
O22	O	2.004572	-0.136098	0.039354
O23	O	1.354289	-0.636016	-0.610986
O24	O	1.854289	-0.136016	-0.110986
O25	O	1.564938	-0.817184	-0.935453
O26	O	2.064938	-0.317184	-0.435453
O27	O	1.370836	-0.771691	-0.741418
O28	O	1.870836	-0.271691	-0.241418
O29	O	1.695459	-0.715978	-0.952038
O30	O	2.195459	-0.215978	-0.452038
O31	O	1.656825	-0.950902	-0.649313
O32	O	2.156825	-0.450902	-0.149313
O33	O	1.542958	-0.950840	-0.763223
O34	O	2.042958	-0.450840	-0.263223
C35	C	1.324023	-0.698754	-0.671313
C36	C	1.824023	-0.198754	-0.171313
C37	C	1.205967	-0.683157	-0.656359
C38	C	1.705967	-0.183157	-0.156359
C39	C	1.599907	-0.985874	-0.706286
C40	C	2.099907	-0.485874	-0.206286
C41	C	1.599974	-1.093100	-0.706316
C42	C	2.099974	-0.593100	-0.206316
C43	C	1.161536	-0.743414	-0.714130
C44	C	1.661536	-0.243414	-0.214130
C45	C	1.039519	-0.727296	-0.698676
C46	C	1.539519	-0.227296	-0.198676
C47	C	1.600094	-1.289418	-0.706397
C48	C	2.100094	-0.789418	-0.206397
C49	C	1.600025	-1.180173	-0.706355
C50	C	2.100025	-0.680173	-0.206355
C51	C	1.877032	-0.771938	-0.741477
C52	C	2.377032	-0.271938	-0.241477
C53	C	1.995092	-0.787562	-0.756456
C54	C	2.495092	-0.287562	-0.256456
C55	C	1.635240	-0.771805	-0.983361
C56	C	2.135240	-0.271805	-0.483361
C57	C	1.650262	-0.787373	-1.101417
C58	C	2.150262	-0.287373	-0.601417
C59	C	1.600102	-0.483702	-0.706394
C60	C	2.100102	0.016298	-0.206394
C61	C	1.600151	-0.376498	-0.706423
C62	C	2.100151	0.123502	-0.206423
C63	C	1.592433	-0.727152	-1.145876
C64	C	2.092433	-0.227152	-0.645876
C65	C	1.607957	-0.743241	-1.267892
C66	C	2.107957	-0.243241	-0.767892
C67	C	1.564936	-0.698824	-0.430376
C68	C	2.064936	-0.198824	0.069624
C69	C	1.550120	-0.683012	-0.312347
C70	C	2.050120	-0.183012	0.187653
H71	H	1.213830	-0.806933	-0.775036
H72	H	1.713830	-0.306933	-0.275036
H73	H	1.047382	-0.851083	-0.817368
H74	H	1.547382	-0.351083	-0.317368
C75	C	1.731763	-0.871952	-1.170987
C76	C	2.231763	-0.371952	-0.670987
C77	C	1.833460	-0.861345	-1.157400
C78	C	2.333460	-0.361345	-0.657400
C79	C	1.908565	-0.939249	-1.221455
C80	C	2.408565	-0.439249	-0.721455
H81	H	1.731534	-0.871602	-1.243769
H82	H	2.231534	-0.371602	-0.743769
H83	H	1.713961	-0.932348	-1.150855
H84	H	2.213961	-0.432348	-0.650855
H85	H	1.851258	-0.800965	-1.177538
H86	H	2.351258	-0.300965	-0.677538
H87	H	1.833723	-0.861706	-1.084631
H88	H	2.333723	-0.361706	-0.584631
H89	H	1.890763	-0.999645	-1.201323
H90	H	2.390763	-0.499645	-0.701323
H91	H	1.908327	-0.938892	-1.294234
H92	H	2.408327	-0.438892	-0.794234
H93	H	1.977573	-0.932068	-1.212238
H94	H	2.477573	-0.432068	-0.712238
H95	H	1.668963	-0.806713	-1.320159
H96	H	2.168963	-0.306713	-0.820159
H97	H	1.531426	-0.663689	-1.093605
H98	H	2.031426	-0.163689	-0.593605
C99	C	0.969738	-0.642730	-0.617313
C100	C	1.469738	-0.142730	-0.117313
C101	C	0.897381	-0.679914	-0.541106
C102	C	1.397381	-0.179914	-0.041106
C103	C	0.833093	-0.602047	-0.466127
C104	C	1.333093	-0.102047	0.033873
H105	H	0.931554	-0.600397	-0.652436
H106	H	1.431554	-0.100397	-0.152436
H107	H	1.013400	-0.607026	-0.583005
H108	H	1.513400	-0.107026	-0.083005
H109	H	0.853724	-0.715602	-0.575410
H110	H	1.353724	-0.215602	-0.075410
H111	H	0.935535	-0.722238	-0.505956
H112	H	1.435535	-0.222238	-0.005956
H113	H	0.876756	-0.566344	-0.431819
H114	H	1.376756	-0.066344	0.068181
H115	H	0.794917	-0.559719	-0.501259
H116	H	1.294917	-0.059719	-0.001259
H117	H	0.783999	-0.627266	-0.414406
H118	H	1.283999	-0.127266	0.085594
C119	C	1.136182	-0.598596	-0.574999
C120	C	1.636182	-0.098596	-0.074999
C121	C	1.063825	-0.635780	-0.498793
C122	C	1.563825	-0.135780	0.001207
C123	C	0.999538	-0.557913	-0.423813
C124	C	1.499538	-0.057913	0.076187
H125	H	1.097998	-0.556263	-0.610122
H126	H	1.597998	-0.056263	-0.110122
H127	H	1.179844	-0.562892	-0.540692
H128	H	1.679844	-0.062892	-0.040692
H129	H	1.020168	-0.671467	-0.533097
H130	H	1.520168	-0.171467	-0.033097
H131	H	1.101979	-0.678103	-0.463643
H132	H	1.601979	-0.178103	0.036357
H133	H	1.043200	-0.522209	-0.389506
H134	H	1.543200	-0.022209	0.110494
H135	H	0.961362	-0.515585	-0.458946
H136	H	1.461362	-0.015585	0.041054
H137	H	0.950443	-0.583132	-0.372093
H138	H	1.450443	-0.083132	0.127907
C139	C	1.468861	-0.598405	-1.242491
C140	C	1.968861	-0.098405	-0.742491
C141	C	1.469638	-0.599247	-1.135359
C142	C	1.969638	-0.099247	-0.635359
C143	C	1.394808	-0.521317	-1.070978
C144	C	1.894808	-0.021317	-0.570978
H145	H	1.399720	-0.605367	-1.251427
H146	H	1.899720	-0.105367	-0.751427
H147	H	1.486728	-0.538003	-1.262545
H148	H	1.986728	-0.038003	-0.762545
H149	H	1.451765	-0.659634	-1.115311
H150	H	1.951765	-0.159634	-0.615311
H151	H	1.538761	-0.592272	-1.126389
H152	H	2.038761	-0.092272	-0.626389
H153	H	1.412675	-0.460915	-1.091033
H154	H	1.912675	0.039085	-0.591033
H155	H	1.325673	-0.528285	-1.079924
H156	H	1.825673	-0.028285	-0.579924
H157	H	1.395333	-0.521872	-0.998284
H158	H	1.895333	-0.021872	-0.498284
