data_functionalizedCrystal
_audit_creation_method	'MofGen! by Chris Wilmer'
_symmetry_space_group_name_H-M	'P1'
_symmetry_Int_Tables_number	1
_symmetry_cell_setting	triclinic
loop_
_symmetry_equiv_pos_as_xyz
  x,y,z
_cell_length_a	13.032831
_cell_length_b	12.759400
_cell_length_c	13.032268
_cell_angle_alpha	82.848512
_cell_angle_beta	89.113023
_cell_angle_gamma	82.818273
loop_
_atom_site_label
_atom_site_type_symbol
_atom_site_fract_x
_atom_site_fract_y
_atom_site_fract_z
Zn1	Zn	1.498533	-0.709536	0.780860
Zn2	Zn	1.998533	-0.209536	1.280860
Zn3	Zn	1.520287	-0.866072	0.608886
Zn4	Zn	2.020287	-0.366072	1.108886
Zn5	Zn	1.348388	-0.665647	0.587100
Zn6	Zn	1.848388	-0.165647	1.087100
Zn7	Zn	1.326535	-0.860392	0.759011
Zn8	Zn	1.826535	-0.360392	1.259011
O9	O	1.423436	-0.775412	0.683964
O10	O	1.923436	-0.275412	1.183964
O11	O	1.645341	-0.751047	0.776309
O12	O	2.145341	-0.251047	1.276309
O13	O	1.515734	-0.823495	0.462079
O14	O	2.015734	-0.323495	0.962079
O15	O	1.368347	-0.524456	0.612829
O16	O	1.868347	-0.024456	1.112829
O17	O	1.661324	-0.866053	0.649961
O18	O	2.161324	-0.366053	1.149961
O19	O	1.478658	-0.556702	0.755184
O20	O	1.978658	-0.056702	1.255184
O21	O	1.389441	-0.676243	0.446073
O22	O	1.889441	-0.176243	0.946073
O23	O	1.201567	-0.670734	0.591643
O24	O	1.701567	-0.170734	1.091643
O25	O	1.331101	-0.856371	0.905827
O26	O	1.831101	-0.356371	1.405827
O27	O	1.185512	-0.813813	0.717945
O28	O	1.685512	-0.313813	1.217945
O29	O	1.457467	-0.745538	0.921879
O30	O	1.957467	-0.245538	1.421879
O31	O	1.494544	-1.012331	0.628774
O32	O	1.994544	-0.512331	1.128774
O33	O	1.352195	-1.008158	0.739070
O34	O	1.852195	-0.508158	1.239070
C35	C	1.156222	-0.736896	0.650059
C36	C	1.656222	-0.236896	1.150059
C37	C	1.041904	-0.720446	0.635579
C38	C	1.541904	-0.220446	1.135579
C39	C	0.983032	-0.783997	0.691522
C40	C	1.483032	-0.283997	1.191522
C41	C	0.864878	-0.766997	0.676557
C42	C	1.364878	-0.266997	1.176557
C43	C	1.423384	-1.048369	0.683941
C44	C	1.923384	-0.548369	1.183941
C45	C	1.423452	-1.165159	0.683978
C46	C	1.923452	-0.665159	1.183978
C47	C	1.480851	-1.236733	0.758152
C48	C	1.980851	-0.736733	1.258152
C49	C	1.480895	-1.346467	0.758183
C50	C	1.980895	-0.846467	1.258183
C51	C	1.366140	-1.313042	0.609857
C52	C	1.866140	-0.813042	1.109857
C53	C	1.366090	-1.203310	0.609831
C54	C	1.866090	-0.703310	1.109831
C55	C	1.538212	-1.198582	0.832298
C56	C	2.038212	-0.698582	1.332298
C57	C	1.595617	-1.270158	0.906478
C58	C	2.095617	-0.770158	1.406478
C59	C	1.595661	-1.379892	0.906509
C60	C	2.095661	-0.879892	1.406509
C61	C	1.538301	-1.418050	0.832361
C62	C	2.038301	-0.918050	1.332361
C63	C	1.691693	-0.814079	0.718002
C64	C	2.191693	-0.314079	1.218002
C65	C	1.806009	-0.830557	0.732507
C66	C	2.306009	-0.330557	1.232507
C67	C	1.389420	-0.805217	0.952213
C68	C	1.889420	-0.305217	1.452213
C69	C	1.374924	-0.817918	1.066524
C70	C	1.874924	-0.317918	1.566524
C71	C	1.423513	-0.501395	0.684014
C72	C	1.923513	-0.001395	1.184014
C73	C	1.423546	-0.384625	0.684035
C74	C	1.923546	0.115375	1.184035
C75	C	1.457379	-0.745655	0.416767
C76	C	1.957379	-0.245655	0.916767
C77	C	1.472074	-0.732687	0.302482
C78	C	1.972074	-0.232687	0.802482
C79	C	1.430985	-0.768743	1.125430
C80	C	1.930985	-0.268743	1.625430
C81	C	1.416005	-0.781869	1.243577
C82	C	1.916005	-0.281869	1.743577
H83	H	0.827811	-0.699995	0.617584
H84	H	1.327811	-0.199995	1.117584
H85	H	1.020103	-0.850987	0.750499
H86	H	1.520103	-0.350987	1.250499
H87	H	1.490068	-0.716920	1.088394
H88	H	1.990068	-0.216920	1.588394
N89	N	1.296647	-0.886544	1.115580
N90	N	1.796647	-0.386544	1.615580
H91	H	1.332814	-0.946169	1.165452
H92	H	1.832814	-0.446169	1.665452
H93	H	1.261307	-0.917484	1.059980
H94	H	1.761307	-0.417484	1.559980
H95	H	1.531159	-0.680858	1.265451
H96	H	2.031159	-0.180858	1.765451
H97	H	0.843073	-0.897550	0.791491
H98	H	1.343073	-0.397550	1.291491
N99	N	1.538153	-1.080227	0.832261
N100	N	2.038153	-0.580227	1.332261
H101	H	1.566041	-1.048706	0.764120
H102	H	2.066041	-0.548706	1.264120
H103	H	1.583183	-1.066997	0.890529
H104	H	2.083183	-0.566997	1.390529
N105	N	0.992813	-0.631708	0.557453
N106	N	1.492813	-0.131708	1.057453
H107	H	0.915367	-0.632146	0.557832
H108	H	1.415367	-0.132146	1.057832
H109	H	1.020843	-0.642466	0.486332
H110	H	1.520843	-0.142466	0.986332
N111	N	1.657467	-1.229008	0.986459
N112	N	2.157467	-0.729008	1.486459
H113	H	1.648730	-1.148633	0.975187
H114	H	2.148730	-0.648633	1.475187
H115	H	1.732963	-1.256955	0.979842
H116	H	2.232963	-0.756955	1.479842
H117	H	1.642394	-1.438166	0.966916
H118	H	2.142394	-0.938166	1.466916
N119	N	1.538336	-1.536405	0.832400
N120	N	2.038336	-1.036405	1.332400
H121	H	1.583398	-1.575960	0.890644
H122	H	2.083398	-1.075960	1.390644
H123	H	1.566225	-1.557656	0.764240
H124	H	2.066225	-1.057656	1.264240
N125	N	1.304196	-1.126108	0.529819
N126	N	1.804196	-0.626108	1.029819
H127	H	1.312868	-1.050805	0.541057
H128	H	1.812868	-0.550805	1.041057
H129	H	1.228715	-1.136520	0.536445
H130	H	1.728715	-0.636520	1.036445
H131	H	1.319441	-1.344120	0.549489
H132	H	1.819441	-0.844120	1.049489
N133	N	1.337716	-0.850497	1.292615
N134	N	1.837716	-0.350497	1.792615
H135	H	1.338105	-0.850140	1.370063
H136	H	1.838105	-0.350140	1.870063
H137	H	1.356048	-0.925773	1.275915
H138	H	1.856048	-0.425773	1.775915
