data_functionalizedCrystal
_audit_creation_method	'MofGen! by Chris Wilmer'
_symmetry_space_group_name_H-M	'P1'
_symmetry_Int_Tables_number	1
_symmetry_cell_setting	triclinic
loop_
_symmetry_equiv_pos_as_xyz
  x,y,z
_cell_length_a	10.654545
_cell_length_b	14.044190
_cell_length_c	9.130313
_cell_angle_alpha	89.990619
_cell_angle_beta	89.996934
_cell_angle_gamma	88.837428
loop_
_atom_site_label
_atom_site_type_symbol
_atom_site_fract_x
_atom_site_fract_y
_atom_site_fract_z
O1	O	1.681234	0.133211	-0.121803
O2	O	1.317031	0.145909	-0.121811
O3	O	1.493661	0.001540	-0.121778
O4	O	1.504604	0.277581	-0.121836
O5	O	1.493647	0.001535	0.121821
O6	O	1.317017	0.145905	0.121788
O7	O	1.681220	0.133207	0.121796
Cu8	Cu	1.499117	0.139556	0.144034
Cu9	Cu	1.499133	0.139561	-0.144050
O10	O	1.504590	0.277577	0.121763
C11	C	1.270132	0.144976	-0.000012
C12	C	1.130409	0.142189	-0.000014
C13	C	1.064765	0.140875	0.132773
C14	C	0.933481	0.138241	0.132774
C15	C	0.933495	0.138239	-0.132811
C16	C	1.064778	0.140866	-0.132810
C17	C	1.488867	-0.033808	0.000025
C18	C	1.474588	-0.139128	0.000038
C19	C	1.549753	-0.388921	-0.000018
C20	C	1.448503	-0.331957	-0.000010
C21	C	1.463020	-0.224657	0.000017
C22	C	1.535238	-0.496231	-0.000045
C23	C	1.728119	0.134141	-0.000006
C24	C	1.867842	0.136927	-0.000014
C25	C	1.509384	0.312925	-0.000044
C26	C	1.523663	0.418244	-0.000066
N27	N	1.499115	0.139552	0.346657
N28	N	1.499145	0.139557	-0.346672
C29	C	1.577359	0.075652	0.423323
C30	C	1.577371	0.075652	0.576660
C31	C	1.420893	0.203460	0.576651
C32	C	1.420875	0.203454	0.423317
H33	H	0.880043	0.137163	-0.240929
H34	H	1.641082	0.023618	0.639078
H35	H	1.357193	0.255490	0.639083
H36	H	1.350917	-0.363772	-0.000021
H37	H	1.118226	0.141934	-0.240948
C38	C	1.335876	0.272943	0.340332
C39	C	1.267393	0.328930	0.440282
C40	C	1.189093	0.392955	0.363891
H41	H	1.279629	0.238557	0.280536
H42	H	1.385474	0.312796	0.280522
H43	H	1.217799	0.289081	0.500067
H44	H	1.323607	0.363336	0.500082
H45	H	1.238690	0.432808	0.304080
H46	H	1.132854	0.358561	0.304097
H47	H	1.142626	0.430955	0.431695
C48	C	1.679976	-0.346690	-0.000068
C49	C	1.770547	-0.420331	-0.000113
C50	C	1.890519	-0.381451	-0.000177
H51	H	1.689997	-0.308541	0.084867
H52	H	1.689906	-0.308520	-0.085041
H53	H	1.760622	-0.458484	0.084850
H54	H	1.760567	-0.458485	-0.085042
H55	H	1.900449	-0.343282	-0.085149
H56	H	1.900527	-0.343303	0.084760
H57	H	1.951986	-0.431410	-0.000221
C58	C	1.662336	0.006161	0.340356
C59	C	1.730834	-0.049817	0.440324
C60	C	1.809115	-0.113855	0.363954
H61	H	1.718575	0.040537	0.280510
H62	H	1.612724	-0.033698	0.280597
H63	H	1.780443	-0.009964	0.500058
H64	H	1.674628	-0.084214	0.500173
H65	H	1.759503	-0.153714	0.304195
H66	H	1.865345	-0.079471	0.304111
H67	H	1.855592	-0.151849	0.431770
H68	H	0.880039	0.137171	0.240902
C69	C	1.135800	0.142246	0.277100
C70	C	1.050207	0.140503	0.393388
C71	C	1.115595	0.141748	0.526366
H72	H	1.183625	0.198473	0.282823
H73	H	1.190381	0.088029	0.282709
H74	H	0.995648	0.194715	0.387782
H75	H	1.002379	0.084280	0.387713
H76	H	1.170176	0.087531	0.531975
H77	H	1.163418	0.197976	0.532074
H78	H	1.057531	0.140557	0.605283
