data_functionalizedCrystal
_audit_creation_method	'MofGen! by Chris Wilmer'
_symmetry_space_group_name_H-M	'P1'
_symmetry_Int_Tables_number	1
_symmetry_cell_setting	triclinic
loop_
_symmetry_equiv_pos_as_xyz
  x,y,z
_cell_length_a	14.908571
_cell_length_b	16.959454
_cell_length_c	14.908694
_cell_angle_alpha	93.271572
_cell_angle_beta	83.592472
_cell_angle_gamma	86.716421
loop_
_atom_site_label
_atom_site_type_symbol
_atom_site_fract_x
_atom_site_fract_y
_atom_site_fract_z
Zn1	Zn	1.413345	-0.416138	-0.591530
Zn2	Zn	1.913345	0.083862	-0.091530
Zn3	Zn	1.404514	-0.540230	-0.440172
Zn4	Zn	1.904514	-0.040230	0.059828
Zn5	Zn	1.253246	-0.399970	-0.431464
Zn6	Zn	1.753246	0.100030	0.068536
Zn7	Zn	1.261946	-0.540169	-0.582770
Zn8	Zn	1.761946	-0.040169	-0.082770
O9	O	1.333263	-0.474127	-0.511484
O10	O	1.833263	0.025873	-0.011484
O11	O	1.538840	-0.439390	-0.578762
O12	O	2.038840	0.060610	-0.078762
O13	O	1.377112	-0.514884	-0.312351
O14	O	1.877112	-0.014884	0.187649
O15	O	1.274539	-0.291508	-0.452719
O16	O	1.774539	0.208492	0.047281
O17	O	1.532352	-0.530561	-0.467560
O18	O	2.032352	-0.030561	0.032440
O19	O	1.392162	-0.303386	-0.570319
O20	O	1.892162	0.196614	-0.070319
O21	O	1.265976	-0.411835	-0.305953
O22	O	1.765976	0.088165	0.194047
O23	O	1.127733	-0.411776	-0.444225
O24	O	1.627733	0.088224	0.055775
O25	O	1.289365	-0.530456	-0.710598
O26	O	1.789365	-0.030456	-0.210598
O27	O	1.134125	-0.514779	-0.555389
O28	O	1.634125	-0.014779	-0.055389
O29	O	1.400598	-0.439331	-0.717034
O30	O	1.900598	0.060669	-0.217034
O31	O	1.385547	-0.650829	-0.459065
O32	O	1.885547	-0.150829	0.040935
O33	O	1.280802	-0.650784	-0.563832
O34	O	1.780802	-0.150784	-0.063832
C35	C	1.098086	-0.461517	-0.497912
C36	C	1.598086	0.038483	0.002088
C37	C	0.997477	-0.456143	-0.492127
C38	C	1.497477	0.043857	0.007873
C39	C	1.333186	-0.679488	-0.511464
C40	C	1.833186	-0.179488	-0.011464
C41	C	1.333238	-0.767349	-0.511491
C42	C	1.833238	-0.267349	-0.011491
C43	C	0.815118	-0.553450	-0.596856
C44	C	1.315118	-0.053450	-0.096856
C45	C	0.720587	-0.548404	-0.591424
C46	C	1.220587	-0.048404	-0.091424
C47	C	0.713885	-0.440999	-0.475836
C48	C	1.213885	0.059001	0.024164
C49	C	0.808415	-0.446046	-0.481268
C50	C	1.308415	0.053954	0.018732
C51	C	0.859028	-0.502274	-0.541780
C52	C	1.359028	-0.002274	-0.041780
C53	C	0.953560	-0.507325	-0.547206
C54	C	1.453560	-0.007325	-0.047206
C55	C	0.946856	-0.399917	-0.431624
C56	C	1.446856	0.100083	0.068376
C57	C	0.852326	-0.394870	-0.426192
C58	C	1.352326	0.105130	0.073808
C59	C	1.278806	-1.138836	-0.566034
C60	C	1.778806	-0.638836	-0.066034
C61	C	1.387977	-1.138833	-0.457040
C62	C	1.887977	-0.638833	0.042960
C63	C	1.387945	-1.056285	-0.457030
C64	C	1.887945	-0.556285	0.042970
C65	C	1.333341	-1.015008	-0.511522
C66	C	1.833341	-0.515008	-0.011522
C67	C	1.278770	-1.056280	-0.566024
C68	C	1.778770	-0.556280	-0.066024
C69	C	1.442508	-1.015006	-0.402522
C70	C	1.942508	-0.515006	0.097478
C71	C	1.442477	-0.932453	-0.402509
C72	C	1.942477	-0.432453	0.097491
C73	C	1.387878	-0.891176	-0.457006
C74	C	1.887878	-0.391176	0.042994
C75	C	1.333306	-0.932452	-0.511511
C76	C	1.833306	-0.432452	-0.011511
C77	C	1.278702	-0.891176	-0.566003
C78	C	1.778702	-0.391176	-0.066003
C79	C	1.224134	-0.932452	-0.620514
C80	C	1.724134	-0.432452	-0.120514
C81	C	1.224171	-1.015002	-0.620521
C82	C	1.724171	-0.515002	-0.120521
C83	C	1.387841	-0.808625	-0.456999
C84	C	1.887841	-0.308625	0.043001
C85	C	1.278666	-0.808620	-0.565993
C86	C	1.778666	-0.308620	-0.065993
C87	C	1.569358	-0.486786	-0.525109
C88	C	2.069358	0.013214	-0.025109
C89	C	1.669968	-0.492181	-0.530916
C90	C	2.169968	0.007819	-0.030916
C91	C	1.346937	-0.486690	-0.747577
C92	C	1.846937	0.013310	-0.247577
C93	C	1.352764	-0.492044	-0.848186
C94	C	1.852764	0.007956	-0.348186
C95	C	1.333365	-0.267966	-0.511525
C96	C	1.833365	0.232034	-0.011525
C97	C	1.333409	-0.180112	-0.511542
C98	C	1.833409	0.319888	-0.011542
C99	C	1.247967	-0.394801	-1.030580
C100	C	1.747967	0.105199	-0.530580
C101	C	1.253439	-0.399829	-1.125110
C102	C	1.753439	0.100171	-0.625110
C103	C	1.369175	-0.507130	-1.131780
C104	C	1.869175	-0.007130	-0.631780
C105	C	1.363703	-0.502103	-1.037249
C106	C	1.863703	-0.002103	-0.537249
C107	C	1.303098	-0.445935	-0.986652
C108	C	1.803098	0.054065	-0.486652
C109	C	1.297631	-0.440904	-0.892120
C110	C	1.797631	0.059096	-0.392120
C111	C	1.413361	-0.548209	-0.898791
C112	C	1.913361	-0.048209	-0.398791
C113	C	1.418833	-0.553237	-0.993322
C114	C	1.918833	-0.053237	-0.493322
C115	C	1.319694	-0.461558	-0.276312
C116	C	1.819694	0.038442	0.223688
C117	C	1.314042	-0.455991	-0.175714
C118	C	1.814042	0.044009	0.324286
H119	H	0.994768	-0.553110	-0.596476
H120	H	1.494768	-0.053110	-0.096476
C121	C	1.192800	-0.343578	-1.173428
C122	C	1.692800	0.156422	-0.673428
H123	H	1.155929	-0.309405	-1.129753
H124	H	1.655929	0.190595	-0.629753
H125	H	1.155482	-0.373659	-1.208025
H126	H	1.655482	0.126341	-0.708025
H127	H	1.229582	-0.312952	-1.212307
H128	H	1.729582	0.187048	-0.712307
C129	C	1.485496	-0.615013	-1.048983
C130	C	1.985496	-0.115013	-0.548983
H131	H	1.480865	-0.610681	-1.111574
H132	H	1.980865	-0.110681	-0.611574
H133	H	1.471337	-0.666587	-1.032717
H134	H	1.971337	-0.166587	-0.532717
H135	H	1.545424	-0.605868	-1.037004
H136	H	2.045424	-0.105868	-0.537004
C137	C	1.448033	-1.184230	-0.397099
C138	C	1.948033	-0.684230	0.102901
H139	H	1.480523	-1.147825	-0.364634
H140	H	1.980523	-0.647825	0.135366
H141	H	1.489462	-1.220361	-0.434032
H142	H	1.989462	-0.720361	0.065968
H143	H	1.411158	-1.212505	-0.355634
H144	H	1.911158	-0.712505	0.144366
H145	H	1.418504	-0.552869	-1.172991
H146	H	1.918504	-0.052869	-0.672991
C147	C	1.181314	-0.333019	-0.974917
C148	C	1.681314	0.166981	-0.474917
H149	H	1.185957	-0.337344	-0.912327
H150	H	1.685957	0.162656	-0.412327
H151	H	1.121386	-0.342144	-0.986893
H152	H	1.621386	0.157856	-0.486893
H153	H	1.195494	-0.281444	-0.991183
H154	H	1.695494	0.218556	-0.491183
C155	C	1.474004	-0.604462	-0.850469
C156	C	1.974004	-0.104462	-0.350469
H157	H	1.462064	-0.593428	-0.786923
H158	H	1.962064	-0.093428	-0.286923
H159	H	1.535724	-0.596979	-0.869477
H160	H	2.035724	-0.096979	-0.369477
H161	H	1.461623	-0.657686	-0.865186
H162	H	1.961623	-0.157686	-0.365186
H163	H	0.856328	-0.599238	-0.646122
H164	H	1.356328	-0.099238	-0.146122
C165	C	0.995159	-0.343619	-0.371039
C166	C	1.495159	0.156381	0.128961
H167	H	1.058708	-0.354673	-0.382942
H168	H	1.558708	0.145327	0.117058
H169	H	0.976124	-0.351039	-0.309309
H170	H	1.476124	0.148961	0.190691
H171	H	0.980456	-0.290409	-0.383504
H172	H	1.480456	0.209591	0.116496
C173	C	1.230970	-0.379126	-0.836460
C174	C	1.730970	0.120874	-0.336460
H175	H	1.235611	-0.383449	-0.773869
H176	H	1.735611	0.116551	-0.273869
H177	H	1.171045	-0.388261	-0.848439
H178	H	1.671045	0.111739	-0.348439
H179	H	1.245142	-0.327550	-0.852728
H180	H	1.745142	0.172450	-0.352728
C181	C	1.502563	-1.060406	-0.342581
C182	C	2.002563	-0.560406	0.157419
H183	H	1.535049	-1.024002	-0.310110
H184	H	2.035049	-0.524002	0.189890
H185	H	1.543997	-1.096531	-0.379516
H186	H	2.043997	-0.596531	0.120484
H187	H	1.465688	-1.088686	-0.301123
H188	H	1.965688	-0.588686	0.198877
C189	C	1.502508	-0.887058	-0.342560
C190	C	2.002508	-0.387058	0.157440
H191	H	1.535036	-0.923465	-0.310114
H192	H	2.035036	-0.423465	0.189886
H193	H	1.465621	-0.850927	-0.301093
H194	H	1.965621	-0.350927	0.198907
H195	H	1.543917	-0.858784	-0.379499
H196	H	2.043917	-0.358784	0.120501
C197	C	0.672290	-0.604682	-0.652027
C198	C	1.172290	-0.104682	-0.152027
H199	H	0.715975	-0.638888	-0.688843
H200	H	1.215975	-0.138888	-0.188843
H201	H	0.637726	-0.574615	-0.689398
H202	H	1.137726	-0.074615	-0.189398
H203	H	0.633381	-0.635272	-0.615231
H204	H	1.133381	-0.135272	-0.115231
H205	H	0.672659	-0.395216	-0.426577
H206	H	1.172659	0.104784	0.073423
H207	H	0.811104	-0.349089	-0.376928
H208	H	1.311104	0.150911	0.123072
H209	H	1.234205	-0.775018	-0.610370
H210	H	1.734205	-0.275018	-0.110370
H211	H	1.179671	-0.898834	-0.664877
H212	H	1.679671	-0.398834	-0.164877
H213	H	1.179743	-1.048616	-0.664900
H214	H	1.679743	-0.548616	-0.164900
C215	C	1.218782	-1.184233	-0.625988
C216	C	1.718782	-0.684233	-0.125988
H217	H	1.226617	-1.239310	-0.618190
H218	H	1.726617	-0.739310	-0.118190
H219	H	1.235494	-1.174624	-0.687575
H220	H	1.735494	-0.674624	-0.187575
H221	H	1.157196	-1.166781	-0.609172
H222	H	1.657196	-0.666781	-0.109172
C223	C	1.447858	-0.763225	-0.397046
C224	C	1.947858	-0.263225	0.102954
H225	H	1.480384	-0.799631	-0.364596
H226	H	1.980384	-0.299631	0.135404
H227	H	1.410965	-0.727096	-0.355582
H228	H	1.910965	-0.227096	0.144418
H229	H	1.489270	-0.734949	-0.433979
H230	H	1.989270	-0.234949	0.066021
