data_functionalizedCrystal
_audit_creation_method	'MofGen! by Chris Wilmer'
_symmetry_space_group_name_H-M	'P1'
_symmetry_Int_Tables_number	1
_symmetry_cell_setting	triclinic
loop_
_symmetry_equiv_pos_as_xyz
  x,y,z
_cell_length_a	18.215407
_cell_length_b	16.625546
_cell_length_c	18.215399
_cell_angle_alpha	89.968415
_cell_angle_beta	89.985195
_cell_angle_gamma	90.016981
loop_
_atom_site_label
_atom_site_type_symbol
_atom_site_fract_x
_atom_site_fract_y
_atom_site_fract_z
Zn1	Zn	1.125062	-0.321109	-0.416070
Zn2	Zn	1.458396	0.012225	-0.082737
Zn3	Zn	1.791729	0.345558	0.250597
Zn4	Zn	1.124982	-0.455955	-0.293001
Zn5	Zn	1.458316	-0.122621	0.040332
Zn6	Zn	1.791649	0.210712	0.373666
Zn7	Zn	1.002001	-0.321127	-0.293022
Zn8	Zn	1.335335	0.012206	0.040312
Zn9	Zn	1.668668	0.345540	0.373645
Zn10	Zn	1.001966	-0.455890	-0.416030
Zn11	Zn	1.335299	-0.122557	-0.082697
Zn12	Zn	1.668633	0.210776	0.250636
O13	O	1.063503	-0.388520	-0.354531
O14	O	1.396836	-0.055187	-0.021197
O15	O	1.730170	0.278147	0.312136
O16	O	1.228036	-0.339016	-0.399753
O17	O	1.561369	-0.005683	-0.066419
O18	O	1.894703	0.327651	0.266914
O19	O	1.108650	-0.438104	-0.190019
O20	O	1.441983	-0.104771	0.143314
O21	O	1.775317	0.228563	0.476647
O22	O	1.018374	-0.208292	-0.309369
O23	O	1.351707	0.125041	0.023964
O24	O	1.685041	0.458375	0.357297
O25	O	1.227977	-0.438087	-0.309334
O26	O	1.561311	-0.104753	0.023999
O27	O	1.894644	0.228580	0.357332
O28	O	1.108786	-0.208279	-0.399773
O29	O	1.442120	0.125055	-0.066439
O30	O	1.775453	0.458388	0.266894
O31	O	1.018297	-0.339047	-0.190035
O32	O	1.351630	-0.005713	0.143299
O33	O	1.684963	0.327620	0.476632
O34	O	0.899013	-0.338984	-0.309331
O35	O	1.232346	-0.005651	0.024002
O36	O	1.565679	0.327683	0.357336
O37	O	1.018314	-0.437977	-0.519020
O38	O	1.351647	-0.104643	-0.185686
O39	O	1.684980	0.228690	0.147647
O40	O	0.898987	-0.437994	-0.399705
O41	O	1.232320	-0.104661	-0.066372
O42	O	1.565653	0.228673	0.266962
O43	O	1.108752	-0.338953	-0.519049
O44	O	1.442085	-0.005620	-0.185716
O45	O	1.775419	0.327713	0.147618
O46	O	1.108616	-0.568779	-0.309296
O47	O	1.441949	-0.235445	0.024038
O48	O	1.775282	0.097888	0.357371
O49	O	1.018236	-0.568731	-0.399685
O50	O	1.351570	-0.235398	-0.066352
O51	O	1.684903	0.097936	0.266982
C52	C	0.872297	-0.388485	-0.354516
C53	C	1.205630	-0.055151	-0.021183
C54	C	1.538964	0.278182	0.312150
C55	C	0.790498	-0.388489	-0.354528
C56	C	1.123831	-0.055156	-0.021194
C57	C	1.457165	0.278178	0.312139
C58	C	0.525465	-0.337033	-0.401686
C59	C	0.858799	-0.003700	-0.068353
C60	C	1.192132	0.329633	0.264980
C61	C	0.602324	-0.337020	-0.401684
C62	C	0.935657	-0.003687	-0.068351
C63	C	1.268991	0.329646	0.264983
C64	C	0.602282	-0.440033	-0.307391
C65	C	0.935615	-0.106700	0.025942
C66	C	1.268949	0.226634	0.359276
C67	C	0.525425	-0.440050	-0.307398
C68	C	0.858758	-0.106716	0.025936
C69	C	1.192091	0.226617	0.359269
C70	C	0.487018	-0.388545	-0.354544
C71	C	0.820352	-0.055212	-0.021211
C72	C	1.153685	0.278122	0.312122
C73	C	0.640734	-0.388516	-0.354535
C74	C	0.974068	-0.055182	-0.021202
C75	C	1.307401	0.278151	0.312131
C76	C	0.724068	-0.388502	-0.354532
C77	C	1.057401	-0.055168	-0.021199
C78	C	1.390735	0.278165	0.312134
C79	C	0.403679	-0.388560	-0.354548
C80	C	0.737013	-0.055226	-0.021215
C81	C	1.070346	0.278107	0.312118
C82	C	1.063433	-0.598011	-0.354500
C83	C	1.396767	-0.264678	-0.021167
C84	C	1.730100	0.068656	0.312167
C85	C	1.063471	-0.687632	-0.354511
C86	C	1.396804	-0.354299	-0.021178
C87	C	1.730138	-0.020965	0.312155
C88	C	1.063599	-1.015808	-0.354588
C89	C	1.396933	-0.682474	-0.021255
C90	C	1.730266	-0.349141	0.312079
C91	C	1.063561	-0.924499	-0.354569
C92	C	1.396895	-0.591166	-0.021235
C93	C	1.730228	-0.257833	0.312098
C94	C	1.063535	-0.851723	-0.354549
C95	C	1.396868	-0.518389	-0.021216
C96	C	1.730201	-0.185056	0.312117
C97	C	1.063498	-0.760409	-0.354531
C98	C	1.396831	-0.427075	-0.021197
C99	C	1.730164	-0.093742	0.312136
C100	C	1.255456	-0.388556	-0.354546
C101	C	1.588789	-0.055223	-0.021212
C102	C	1.922123	0.278110	0.312121
C103	C	1.337255	-0.388572	-0.354552
C104	C	1.670588	-0.055238	-0.021219
C105	C	2.003922	0.278095	0.312115
C106	C	1.063538	-0.388456	-0.546484
C107	C	1.396871	-0.055122	-0.213150
C108	C	1.730205	0.278211	0.120183
C109	C	1.063553	-0.388428	-0.628283
C110	C	1.396886	-0.055095	-0.294949
C111	C	1.730219	0.278238	0.038384
C112	C	1.063593	-0.178211	-0.354578
C113	C	1.396926	0.155122	-0.021244
C114	C	1.730260	0.488455	0.312089
C115	C	1.063631	-0.088590	-0.354598
C116	C	1.396965	0.244743	-0.021264
C117	C	1.730298	0.578077	0.312069
C118	C	1.016545	-0.336814	-0.816485
C119	C	1.349879	-0.003481	-0.483152
C120	C	1.683212	0.329852	-0.149819
C121	C	1.016558	-0.336798	-0.893344
C122	C	1.349891	-0.003465	-0.560011
C123	C	1.683225	0.329869	-0.226678
C124	C	1.110648	-0.439946	-0.893318
C125	C	1.443981	-0.106613	-0.559984
C126	C	1.777315	0.226721	-0.226651
C127	C	1.110631	-0.439966	-0.816460
C128	C	1.443964	-0.106633	-0.483127
C129	C	1.777298	0.226701	-0.149794
C130	C	1.063581	-0.388395	-0.778046
C131	C	1.396914	-0.055062	-0.444713
C132	C	1.730247	0.278271	-0.111380
C133	C	1.063611	-0.388359	-0.931762
C134	C	1.396944	-0.055026	-0.598429
C135	C	1.730277	0.278307	-0.265096
C136	C	1.063625	-0.388342	-1.015096
C137	C	1.396958	-0.055009	-0.681763
C138	C	1.730291	0.278325	-0.348429
C139	C	1.063565	-0.388413	-0.694707
C140	C	1.396899	-0.055080	-0.361374
C141	C	1.730232	0.278253	-0.028041
C142	C	1.063511	-0.388526	-0.163324
C143	C	1.396844	-0.055193	0.170009
C144	C	1.730178	0.278141	0.503342
C145	C	1.063639	-0.388326	-0.081526
C146	C	1.396972	-0.054993	0.251807
C147	C	1.730305	0.278340	0.585141
H148	H	0.633624	-0.295075	-0.440073
H149	H	0.966958	0.038258	-0.106739
H150	H	1.300291	0.371592	0.226594
H151	H	0.494120	-0.482001	-0.269008
H152	H	0.827454	-0.148668	0.064325
H153	H	1.160787	0.184666	0.397659
N154	N	1.158712	-0.492600	-0.932575
N155	N	1.492045	-0.159267	-0.599242
N156	N	1.825379	0.174067	-0.265908
N157	N	1.205623	-0.464215	-0.975471
N158	N	1.538957	-0.130882	-0.642138
N159	N	1.872290	0.202451	-0.308805
H160	H	1.239571	-0.501400	-1.003199
H161	H	1.572905	-0.168066	-0.669866
H162	H	1.906238	0.165267	-0.336532
N163	N	0.968486	-0.284130	-0.777257
N164	N	1.301819	0.049204	-0.443924
N165	N	1.635152	0.382537	-0.110590
N166	N	0.926495	-0.238077	-0.811591
N167	N	1.259829	0.095256	-0.478258
N168	N	1.593162	0.428589	-0.144924
H169	H	0.892552	-0.200866	-0.783888
H170	H	1.225885	0.132467	-0.450555
H171	H	1.559218	0.465801	-0.117222
N172	N	0.968504	-0.284108	-0.932597
N173	N	1.301837	0.049225	-0.599264
N174	N	1.635171	0.382558	-0.265931
N175	N	0.926498	-0.238074	-0.898287
N176	N	1.259831	0.095260	-0.564954
N177	N	1.593165	0.428593	-0.231620
H178	H	0.892556	-0.200860	-0.926008
H179	H	1.225889	0.132473	-0.592675
H180	H	1.559223	0.465807	-0.259342
N181	N	1.158673	-0.492652	-0.777176
N182	N	1.492006	-0.159318	-0.443842
N183	N	1.825340	0.174015	-0.110509
N184	N	1.132749	-0.544034	-0.734268
N185	N	1.466083	-0.210701	-0.400935
N186	N	1.799416	0.122632	-0.067602
H187	H	1.166676	-0.581242	-0.706521
H188	H	1.500009	-0.247908	-0.373187
H189	H	1.833342	0.085425	-0.039854
H190	H	0.494197	-0.295095	-0.440076
H191	H	0.827530	0.038238	-0.106743
H192	H	1.160864	0.371572	0.226591
H193	H	0.633562	-0.481965	-0.269004
H194	H	0.966895	-0.148631	0.064329
H195	H	1.300229	0.184702	0.397662
