data_functionalizedCrystal
_audit_creation_method	'MofGen! by Chris Wilmer'
_symmetry_space_group_name_H-M	'P1'
_symmetry_Int_Tables_number	1
_symmetry_cell_setting	triclinic
loop_
_symmetry_equiv_pos_as_xyz
  x,y,z
_cell_length_a	6.817900
_cell_length_b	12.200863
_cell_length_c	10.943624
_cell_angle_alpha	92.412930
_cell_angle_beta	108.838799
_cell_angle_gamma	107.143441
loop_
_atom_site_label
_atom_site_type_symbol
_atom_site_fract_x
_atom_site_fract_y
_atom_site_fract_z
V1	V	-4.106715	-0.158682	-0.402682
O2	O	-4.073628	0.007656	-0.394882
O3	O	-4.076034	-0.314670	-0.400058
O4	O	-4.084813	-0.156228	-0.578247
O5	O	-4.064787	-0.151883	-0.215460
V6	V	-4.584613	-0.138788	-0.380273
O7	O	-4.380311	-0.202322	-0.451839
O8	O	-4.761214	-0.095148	-0.331117
O9	O	-4.392088	0.017200	-0.382897
O10	O	-4.735097	-0.305127	-0.388074
O11	O	-4.743937	-0.145587	-0.567496
O12	O	-4.383308	-0.141242	-0.204709
C13	C	-3.924487	-0.352697	-0.393739
C14	C	-3.980865	-0.480219	-0.392764
C15	C	-3.935685	-0.150587	-0.621035
C16	C	-3.999179	-0.149612	-0.764560
C17	C	-4.084050	-0.713696	-0.390988
C18	C	-4.026623	-0.583773	-0.391976
C19	C	-3.844372	-0.143049	-0.841703
C20	C	-4.028340	-0.240467	-0.947773
C21	C	-3.928372	-0.050468	-0.914229
C22	C	-4.182352	-0.247122	-0.868755
C23	C	-4.082309	-0.057036	-0.835187
C24	C	-4.266412	-0.154483	-0.941228
C25	C	-4.206976	0.055221	-0.389213
C26	C	-4.129837	0.182742	-0.390197
C27	C	-4.195777	-0.146887	-0.161914
C28	C	-4.111521	-0.147856	-0.018387
H29	H	-3.665432	-0.138345	-0.798250
C30	C	-4.326602	-0.359529	-0.841098
N31	N	-4.435240	-0.444195	-0.820263
H32	H	-4.006187	-0.318015	-0.996786
C33	C	-4.508300	-0.161066	-0.999707
N34	N	-4.690494	-0.166038	-1.043775
C35	C	-3.784145	0.061819	-0.942116
N36	N	-3.675500	0.146391	-0.963115
C37	C	-4.112108	0.047734	-0.768913
N38	N	-4.134529	0.126656	-0.718989
