data_functionalizedCrystal
_audit_creation_method	'MofGen! by Chris Wilmer'
_symmetry_space_group_name_H-M	'P1'
_symmetry_Int_Tables_number	1
_symmetry_cell_setting	triclinic
loop_
_symmetry_equiv_pos_as_xyz
  x,y,z
_cell_length_a	19.077105
_cell_length_b	18.101395
_cell_length_c	19.076919
_cell_angle_alpha	92.272317
_cell_angle_beta	90.076224
_cell_angle_gamma	87.727498
loop_
_atom_site_label
_atom_site_type_symbol
_atom_site_fract_x
_atom_site_fract_y
_atom_site_fract_z
Zn1	Zn	1.058231	-0.358271	-0.440421
Zn2	Zn	1.391564	-0.024938	-0.107088
Zn3	Zn	1.724897	0.308395	0.226246
Zn4	Zn	1.062857	-0.477344	-0.322915
Zn5	Zn	1.396191	-0.144010	0.010418
Zn6	Zn	1.729524	0.189323	0.343751
Zn7	Zn	0.945450	-0.348351	-0.318214
Zn8	Zn	1.278783	-0.015017	0.015119
Zn9	Zn	1.612116	0.318316	0.348452
Zn10	Zn	0.940679	-0.476897	-0.435668
Zn11	Zn	1.274013	-0.143564	-0.102335
Zn12	Zn	1.607346	0.189769	0.230999
O13	O	1.001804	-0.415216	-0.379305
O14	O	1.335138	-0.081882	-0.045971
O15	O	1.668471	0.251451	0.287362
O16	O	1.157176	-0.378405	-0.428790
O17	O	1.490509	-0.045072	-0.095457
O18	O	1.823842	0.288261	0.237876
O19	O	1.051216	-0.456268	-0.223960
O20	O	1.384549	-0.122934	0.109373
O21	O	1.717882	0.210399	0.442706
O22	O	0.960470	-0.246037	-0.334447
O23	O	1.293804	0.087296	-0.001114
O24	O	1.627137	0.420629	0.332220
O25	O	1.160575	-0.465887	-0.342459
O26	O	1.493908	-0.132554	-0.009126
O27	O	1.827242	0.200779	0.324207
O28	O	1.043330	-0.253326	-0.424232
O29	O	1.376663	0.080007	-0.090898
O30	O	1.709997	0.413341	0.242435
O31	O	0.964957	-0.361497	-0.220507
O32	O	1.298290	-0.028164	0.112827
O33	O	1.631623	0.305170	0.446160
O34	O	0.846486	-0.361064	-0.329838
O35	O	1.179819	-0.027731	0.003495
O36	O	1.513152	0.305603	0.336829
O37	O	0.952340	-0.465126	-0.534630
O38	O	1.285673	-0.131793	-0.201296
O39	O	1.619007	0.201541	0.132037
O40	O	0.842981	-0.455506	-0.416131
O41	O	1.176314	-0.122173	-0.082797
O42	O	1.509647	0.211160	0.250536
O43	O	1.038704	-0.377972	-0.538122
O44	O	1.372038	-0.044639	-0.204788
O45	O	1.705371	0.288694	0.128545
O46	O	1.046590	-0.580914	-0.337850
O47	O	1.379923	-0.247581	-0.004517
O48	O	1.713257	0.085753	0.328816
O49	O	0.956826	-0.580586	-0.420689
O50	O	1.290160	-0.247253	-0.087356
O51	O	1.623493	0.086081	0.245978
C52	C	0.819237	-0.407161	-0.371959
C53	C	1.152570	-0.073827	-0.038626
C54	C	1.485904	0.259506	0.294708
C55	C	0.741133	-0.403733	-0.368833
C56	C	1.074466	-0.070400	-0.035500
C57	C	1.407800	0.262933	0.297834
C58	C	0.702636	-0.451363	-0.412222
C59	C	1.035970	-0.118029	-0.078889
C60	C	1.369303	0.215304	0.254445
C61	C	0.629249	-0.448133	-0.409288
C62	C	0.962583	-0.114799	-0.075955
C63	C	1.295916	0.218534	0.257378
C64	C	0.594361	-0.397276	-0.362962
C65	C	0.927694	-0.063943	-0.029628
C66	C	1.261027	0.269390	0.303705
C67	C	0.632863	-0.349642	-0.319571
C68	C	0.966196	-0.016308	0.013762
C69	C	1.299529	0.317025	0.347095
C70	C	0.706248	-0.352869	-0.322509
C71	C	1.039582	-0.019535	0.010824
C72	C	1.372915	0.313798	0.344158
C73	C	0.375075	-0.382341	-0.349369
C74	C	0.708408	-0.049008	-0.016036
C75	C	1.041742	0.284325	0.317298
C76	C	0.301684	-0.379119	-0.346433
C77	C	0.635018	-0.045786	-0.013100
C78	C	0.968351	0.287547	0.320234
C79	C	0.298076	-0.477610	-0.436152
C80	C	0.631409	-0.144277	-0.102818
C81	C	0.964743	0.189057	0.230515
C82	C	0.371463	-0.480836	-0.439082
C83	C	0.704796	-0.147502	-0.105749
C84	C	1.038130	0.185831	0.227585
C85	C	0.409959	-0.433198	-0.395694
C86	C	0.743292	-0.099865	-0.062361
C87	C	1.076625	0.233468	0.270972
N88	N	0.519348	-0.393975	-0.359960
N89	N	0.852681	-0.060642	-0.026627
N90	N	1.186014	0.272692	0.306706
N91	N	0.484970	-0.436497	-0.398700
N92	N	0.818304	-0.103163	-0.065366
N93	N	1.151637	0.230170	0.267967
C94	C	1.001711	-0.607621	-0.379280
C95	C	1.335044	-0.274288	-0.045947
C96	C	1.668378	0.059045	0.287387
C97	C	1.001735	-0.689937	-0.379296
C98	C	1.335068	-0.356604	-0.045962
C99	C	1.668401	-0.023270	0.287371
C100	C	1.001887	-0.989036	-0.379340
C101	C	1.335221	-0.655703	-0.046006
C102	C	1.668554	-0.322370	0.287327
C103	C	0.945531	-0.957547	-0.431600
C104	C	1.278864	-0.624213	-0.098266
C105	C	1.612197	-0.290880	0.235067
C106	C	0.945280	-0.871910	-0.431419
C107	C	1.278613	-0.538577	-0.098086
C108	C	1.611947	-0.205244	0.235248
C109	C	1.001811	-0.840650	-0.379319
C110	C	1.335145	-0.507316	-0.045985
C111	C	1.668478	-0.173983	0.287348
C112	C	0.984741	-0.867911	-0.304458
C113	C	1.318075	-0.534578	0.028875
C114	C	1.651408	-0.201244	0.362209
C115	C	0.984379	-0.953554	-0.304770
C116	C	1.317712	-0.620221	0.028564
C117	C	1.651046	-0.286887	0.361897
C118	C	1.075459	-0.961424	-0.401293
C119	C	1.408792	-0.628091	-0.067960
C120	C	1.742125	-0.294757	0.265373
C121	C	1.074956	-0.875820	-0.402900
C122	C	1.408289	-0.542486	-0.069567
C123	C	1.741623	-0.209153	0.263767
C124	C	1.001770	-0.756788	-0.379302
C125	C	1.335103	-0.423454	-0.045969
C126	C	1.668437	-0.090121	0.287365
C127	C	1.001927	-1.072898	-0.379351
C128	C	1.335260	-0.739565	-0.046018
C129	C	1.668594	-0.406231	0.287315
C130	C	1.185084	-0.423303	-0.386679
C131	C	1.518418	-0.089969	-0.053346
C132	C	1.851751	0.243364	0.279987
C133	C	1.263188	-0.426749	-0.389822
C134	C	1.596521	-0.093416	-0.056489
C135	C	1.929854	0.239918	0.276845
C136	C	0.994474	-0.422606	-0.562585
C137	C	1.327807	-0.089273	-0.229251
C138	C	1.661141	0.244061	0.104082
C139	C	0.991350	-0.425755	-0.640688
C140	C	1.324684	-0.092422	-0.307355
C141	C	1.658017	0.240911	0.025979
C142	C	1.001916	-0.222060	-0.379345
C143	C	1.335250	0.111273	-0.046012
C144	C	1.668583	0.444606	0.287321
C145	C	1.001964	-0.139749	-0.379363
C146	C	1.335297	0.193584	-0.046029
C147	C	1.668631	0.526918	0.287304
C148	C	1.034846	-0.381860	-0.679200
C149	C	1.368179	-0.048527	-0.345867
C150	C	1.701512	0.284806	-0.012533
C151	C	1.031902	-0.384816	-0.752586
C152	C	1.365236	-0.051483	-0.419253
C153	C	1.698569	0.281850	-0.085919
C154	C	0.985466	-0.431671	-0.787458
C155	C	1.318799	-0.098338	-0.454125
C156	C	1.652133	0.234995	-0.120792
C157	C	0.941966	-0.475568	-0.748941
C158	C	1.275299	-0.142235	-0.415608
C159	C	1.608632	0.191099	-0.082274
C160	C	0.944906	-0.472608	-0.675556
C161	C	1.278240	-0.139274	-0.342223
C162	C	1.611573	0.194059	-0.008890
C163	C	0.971847	-0.445387	-1.006740
C164	C	1.305180	-0.112054	-0.673406
C165	C	1.638513	0.221280	-0.340073
C166	C	0.968911	-0.448346	-1.080130
C167	C	1.302244	-0.115012	-0.746796
C168	C	1.635577	0.218321	-0.413463
C169	C	1.058847	-0.357593	-1.083770
C170	C	1.392180	-0.024259	-0.750436
C171	C	1.725513	0.309074	-0.417103
C172	C	1.061786	-0.354640	-1.010384
C173	C	1.395119	-0.021306	-0.677050
C174	C	1.728453	0.312027	-0.343717
C175	C	1.018283	-0.398533	-0.971872
C176	C	1.351617	-0.065200	-0.638539
C177	C	1.684950	0.268133	-0.305206
N178	N	0.982458	-0.434696	-0.862471
N179	N	1.315791	-0.101362	-0.529137
N180	N	1.649124	0.231971	-0.195804
N181	N	1.021289	-0.395505	-0.896861
N182	N	1.354622	-0.062171	-0.563528
N183	N	1.687955	0.271162	-0.230195
C184	C	1.009146	-0.407803	-0.196739
C185	C	1.342480	-0.074469	0.136594
C186	C	1.675813	0.258864	0.469928
C187	C	1.012406	-0.404451	-0.118642
C188	C	1.345740	-0.071117	0.214692
C189	C	1.679073	0.262216	0.548025
H190	H	0.604451	-0.308230	-0.281854
H191	H	0.937784	0.025103	0.051479
H192	H	1.271117	0.358437	0.384812
H193	H	0.273280	-0.337698	-0.308713
H194	H	0.606614	-0.004364	0.024621
H195	H	0.939947	0.328969	0.357954
H196	H	1.024629	-0.847532	-0.264328
H197	H	1.357962	-0.514198	0.069005
H198	H	1.691295	-0.180865	0.402338
H199	H	0.931637	-0.843494	-0.285943
H200	H	1.264970	-0.510161	0.047391
H201	H	1.598303	-0.176828	0.380724
H202	H	1.094263	-0.321856	-1.115133
H203	H	1.427597	0.011477	-0.781800
H204	H	1.760930	0.344811	-0.448467
H205	H	0.931095	-0.486502	-1.108520
H206	H	1.264428	-0.153169	-0.775187
H207	H	1.597761	0.180164	-0.441854
H208	H	1.091602	-0.985932	-0.455108
H209	H	1.424935	-0.652599	-0.121775
H210	H	1.758269	-0.319266	0.211559
H211	H	0.936434	-0.481139	-0.975393
H212	H	1.269767	-0.147806	-0.642060
H213	H	1.603100	0.185527	-0.308726
Cl214	Cl	0.890222	-0.527790	-0.627140
Cl215	Cl	1.223555	-0.194456	-0.293807
Cl216	Cl	1.556888	0.138877	0.039526
Cl217	Cl	0.883586	-0.534469	-0.792781
Cl218	Cl	1.216919	-0.201136	-0.459447
Cl219	Cl	1.550253	0.132198	-0.126114
H220	H	1.072661	-0.343708	-0.650813
H221	H	1.405995	-0.010375	-0.317479
H222	H	1.739328	0.322958	0.015854
Cl223	Cl	1.045244	-0.985480	-0.242350
Cl224	Cl	1.378578	-0.652146	0.090983
Cl225	Cl	1.711911	-0.318813	0.424316
Cl226	Cl	0.580856	-0.508013	-0.463837
Cl227	Cl	0.914189	-0.174680	-0.130504
Cl228	Cl	1.247523	0.158654	0.202830
H229	H	1.099601	-0.316487	-0.981996
H230	H	1.432935	0.016846	-0.648662
H231	H	1.766268	0.350179	-0.315329
H232	H	1.117410	-0.981841	-0.363267
H233	H	1.450743	-0.648508	-0.029934
H234	H	1.784076	-0.315174	0.303400
Cl235	Cl	0.415318	-0.544774	-0.497322
Cl236	Cl	0.748651	-0.211441	-0.163988
Cl237	Cl	1.081984	0.121893	0.169345
Cl238	Cl	0.746489	-0.515304	-0.470461
Cl239	Cl	1.079822	-0.181970	-0.137127
Cl240	Cl	1.413156	0.151363	0.196206
Cl241	Cl	0.249678	-0.537494	-0.490692
Cl242	Cl	0.583011	-0.204160	-0.157358
Cl243	Cl	0.916344	0.129173	0.175975
Cl244	Cl	1.086616	-0.329666	-0.801000
Cl245	Cl	1.419950	0.003668	-0.467666
Cl246	Cl	1.753283	0.337001	-0.134333
H247	H	0.406410	-0.343557	-0.314034
H248	H	0.739743	-0.010224	0.019299
H249	H	1.073076	0.323110	0.352633
H250	H	1.087883	-0.858335	-0.458008
H251	H	1.421216	-0.525002	-0.124674
H252	H	1.754549	-0.191669	0.208659
Cl253	Cl	1.142848	-0.843341	-0.348788
Cl254	Cl	1.476181	-0.510008	-0.015454
Cl255	Cl	1.809514	-0.176675	0.317879
H256	H	0.955734	-0.980878	-0.487188
H257	H	1.289067	-0.647545	-0.153854
H258	H	1.622401	-0.314211	0.179479
H259	H	0.737591	-0.314080	-0.287181
H260	H	1.070925	0.019254	0.046153
H261	H	1.404258	0.352587	0.379486
H262	H	0.955615	-0.853628	-0.486834
H263	H	1.288948	-0.520295	-0.153501
H264	H	1.622282	-0.186962	0.179833
H265	H	0.890687	-0.848550	-0.416642
H266	H	1.224020	-0.515217	-0.083309
H267	H	1.557354	-0.181884	0.250025
Cl268	Cl	0.861752	-0.986389	-0.409066
Cl269	Cl	1.195085	-0.653056	-0.075732
Cl270	Cl	1.528418	-0.319722	0.257601
H271	H	0.930687	-0.970551	-0.286519
H272	H	1.264021	-0.637218	0.046814
H273	H	1.597354	-0.303885	0.380147
