data_functionalizedCrystal
_audit_creation_method	'MofGen! by Chris Wilmer'
_symmetry_space_group_name_H-M	'P1'
_symmetry_Int_Tables_number	1
_symmetry_cell_setting	triclinic
loop_
_symmetry_equiv_pos_as_xyz
  x,y,z
_cell_length_a	10.489741
_cell_length_b	10.489741
_cell_length_c	9.565339
_cell_angle_alpha	89.998731
_cell_angle_beta	90.001147
_cell_angle_gamma	84.539174
loop_
_atom_site_label
_atom_site_type_symbol
_atom_site_fract_x
_atom_site_fract_y
_atom_site_fract_z
O1	O	1.694054	0.179957	0.116173
O2	O	1.322858	0.196850	0.116194
O3	O	1.516902	0.002806	0.116175
O4	O	1.500009	0.374002	0.116192
O5	O	1.516885	0.002821	-0.116345
O6	O	1.322841	0.196865	-0.116326
O7	O	1.694037	0.179972	-0.116347
Zn8	Zn	1.508436	0.188421	-0.153254
Zn9	Zn	1.508458	0.188401	0.153101
O10	O	1.499993	0.374017	-0.116328
C11	C	1.275318	0.195582	-0.000063
C12	C	1.133688	0.191765	-0.000055
C13	C	1.515618	-0.044718	-0.000084
C14	C	1.511801	-0.186348	-0.000082
C15	C	1.065548	0.068300	-0.000074
C16	C	0.973430	0.126616	0.114571
C17	C	0.973447	0.126660	-0.114676
C18	C	1.043435	0.250131	0.114684
C19	C	1.043462	0.250159	-0.114665
C20	C	0.951371	0.308564	0.000007
C21	C	1.388336	-0.254488	-0.000064
C22	C	1.446651	-0.346603	-0.114712
C23	C	1.446697	-0.346592	0.114534
C24	C	1.570167	-0.276597	-0.114824
C25	C	1.570195	-0.276577	0.114525
C26	C	1.628600	-0.368665	-0.000150
C27	C	1.741577	0.181241	-0.000087
C28	C	1.883206	0.185058	-0.000086
C29	C	1.501277	0.421541	-0.000066
C30	C	1.505094	0.563170	-0.000059
N31	N	1.508431	0.188434	-0.362334
C32	C	1.419439	0.278873	-0.546697
C33	C	1.392583	0.163729	-0.453475
C34	C	1.535229	0.303568	-0.453487
C35	C	1.481560	0.073176	-0.546649
C36	C	1.624258	0.213091	-0.546669
C37	C	1.597450	0.097864	-0.453488
N38	N	1.508474	0.188379	0.362180
H39	H	1.115238	-0.033196	0.000065
H40	H	1.074270	0.302325	0.211717
C41	C	0.931537	0.056050	0.245505
H42	H	0.874850	0.112386	0.299486
H43	H	0.889183	-0.016024	0.217956
H44	H	1.004750	0.028268	0.299869
H45	H	1.286824	-0.204837	-0.000174
H46	H	0.901947	0.410168	0.000074
C47	C	1.085410	0.320677	-0.245598
H48	H	1.061708	0.276695	-0.326985
H49	H	1.044736	0.405546	-0.246420
H50	H	1.175683	0.323264	-0.244182
H51	H	0.942462	0.074403	-0.211599
C52	C	1.376075	-0.388498	-0.245639
H53	H	1.290714	-0.349035	-0.245497
H54	H	1.419112	-0.363374	-0.327053
H55	H	1.374833	-0.478935	-0.245118
H56	H	1.622355	-0.245759	-0.211859
C57	C	1.565835	0.435125	-0.398195
H58	H	1.641742	0.425056	-0.343528
H59	H	1.577881	0.490402	-0.474753
H60	H	1.496756	0.471072	-0.342167
H61	H	1.394448	-0.377562	0.211470
C62	C	1.765848	-0.435447	-0.000243
H63	H	1.809486	-0.411488	-0.081758
H64	H	1.810043	-0.410413	0.080421
H65	H	1.762682	-0.525653	0.000520
C66	C	1.317686	0.382101	-0.601997
H67	H	1.235451	0.364345	-0.570085
H68	H	1.335900	0.463744	-0.568730
H69	H	1.318918	0.381875	-0.701305
H70	H	1.294650	0.142846	-0.412530
H71	H	1.722161	0.234017	-0.587639
H72	H	1.622399	-0.245539	0.211451
H73	H	1.458798	-0.024236	-0.587400
H74	H	1.672729	0.021277	-0.412822
