data_functionalizedCrystal
_audit_creation_method	'MofGen! by Chris Wilmer'
_symmetry_space_group_name_H-M	'P1'
_symmetry_Int_Tables_number	1
_symmetry_cell_setting	triclinic
loop_
_symmetry_equiv_pos_as_xyz
  x,y,z
_cell_length_a	10.489741
_cell_length_b	10.654545
_cell_length_c	8.965430
_cell_angle_alpha	90.003394
_cell_angle_beta	90.000707
_cell_angle_gamma	95.488874
loop_
_atom_site_label
_atom_site_type_symbol
_atom_site_fract_x
_atom_site_fract_y
_atom_site_fract_z
O1	O	0.179125	-1.667928	-0.124024
O2	O	0.196201	-1.302457	-0.124030
O3	O	0.002061	-1.493509	-0.124018
O4	O	0.373265	-1.476876	-0.124036
O5	O	0.002074	-1.493492	0.124061
O6	O	0.196214	-1.302441	0.124049
O7	O	0.179138	-1.667912	0.124055
Cu8	Cu	0.187677	-1.485175	0.146704
Cu9	Cu	0.187662	-1.485194	-0.146678
O10	O	0.373278	-1.476860	0.124043
C11	C	-0.045464	-1.492244	0.000021
C12	C	-0.187091	-1.488486	0.000018
C13	C	0.194955	-1.255650	0.000009
C14	C	0.191207	-1.116205	0.000007
C15	C	0.180384	-1.714719	0.000013
C16	C	0.184132	-1.854164	0.000006
C17	C	-0.255171	-1.366925	0.000005
C18	C	-0.347315	-1.424342	0.122322
C19	C	-0.347303	-1.424386	-0.122264
C20	C	-0.277371	-1.545952	0.122436
C21	C	-0.277348	-1.545980	-0.122260
C22	C	-0.369466	-1.603484	0.000086
C23	C	0.420802	-1.478125	0.000001
C24	C	0.562430	-1.481883	-0.000006
N25	N	0.187687	-1.485171	0.353053
C26	C	0.189450	-1.050691	0.135235
C27	C	0.185908	-0.919670	0.135236
C28	C	0.185885	-0.919688	-0.135234
C29	C	0.189418	-1.050708	-0.135232
C30	C	0.106489	-0.749555	0.297706
C31	C	0.104754	-0.684034	0.432942
C32	C	0.180525	-0.717595	0.552334
C33	C	0.258061	-0.816672	0.536495
C34	C	0.259807	-0.882185	0.401257
C35	C	0.184007	-0.848629	0.281871
C36	C	0.268847	-1.220823	-0.297693
C37	C	0.270603	-1.286338	-0.432933
C38	C	0.194841	-1.252778	-0.552337
C39	C	0.117323	-1.153695	-0.536513
C40	C	0.115568	-1.088181	-0.401274
C41	C	0.191328	-1.121749	-0.281869
N42	N	0.187642	-1.485208	-0.353027
C43	C	0.277440	-1.396788	0.450353
C44	C	0.303194	-1.510503	0.549768
C45	C	0.161944	-1.371503	0.549766
C46	C	0.213499	-1.598944	0.450278
C47	C	0.072198	-1.459868	0.450268
C48	C	0.097904	-1.573665	0.549638
H49	H	-0.378296	-1.372900	0.225730
H50	H	0.184430	-0.866344	-0.245340
H51	H	0.044772	-0.722231	0.200503
C52	C	-0.522395	-1.353138	-0.261077
C53	C	-0.389097	-1.354938	-0.261864
H54	H	-0.548188	-1.310250	-0.347251
H55	H	-0.561895	-1.437161	-0.261243
H56	H	-0.547497	-1.310761	-0.174213
H57	H	-0.363995	-1.397323	-0.348723
H58	H	-0.349583	-1.270899	-0.261712
C59	C	0.409785	-0.954343	0.625270
C60	C	0.341364	-0.853552	0.667733
H61	H	0.461216	-0.977107	0.706292
H62	H	0.351498	-1.024369	0.598186
H63	H	0.463061	-0.929896	0.542546
H64	H	0.288081	-0.878002	0.750450
H65	H	0.399658	-0.783512	0.694837
H66	H	0.196289	-1.306122	-0.662461
C67	C	-0.174424	-1.720622	0.219091
C68	C	-0.235785	-1.615314	0.262197
H69	H	-0.148742	-1.763433	0.305375
H70	H	-0.231702	-1.775848	0.161932
H71	H	-0.101198	-1.693998	0.160750
H72	H	-0.309016	-1.641939	0.320529
H73	H	-0.178503	-1.560079	0.319381
H74	H	-0.205470	-1.266979	0.000127
C75	C	-0.399296	-1.802637	-0.126694
C76	C	-0.436222	-1.738542	0.000175
H77	H	-0.440492	-1.886021	-0.126625
H78	H	-0.423261	-1.759682	-0.213627
H79	H	-0.309089	-1.805694	-0.125853
H80	H	-0.526429	-1.735478	-0.000671
H81	H	-0.412265	-1.781508	0.087130
H82	H	0.052446	-1.007500	-0.388398
H83	H	-0.246335	-1.597378	-0.225674
C84	C	-0.153822	-1.522256	0.443510
C85	C	-0.059577	-1.430899	0.391205
H86	H	-0.235174	-1.504353	0.407049
H87	H	-0.135662	-1.603079	0.409502
H88	H	-0.154559	-1.521275	0.549456
H89	H	-0.058834	-1.431886	0.285259
H90	H	-0.077743	-1.350054	0.425205
C91	C	0.051947	-1.195224	-0.789806
C92	C	0.034041	-1.116795	-0.667763
H93	H	0.000530	-1.172445	-0.870834
H94	H	0.139509	-1.185980	-0.818485
H95	H	0.027925	-1.280438	-0.762868
H96	H	0.058072	-1.031581	-0.694698
H97	H	-0.053540	-1.126029	-0.639081
H98	H	0.190907	-1.104015	0.245356
H99	H	0.400841	-1.531930	0.593472
C100	C	0.432912	-0.963233	0.268222
C101	C	0.344995	-0.991107	0.383831
H102	H	0.485496	-1.030486	0.257476
H103	H	0.388024	-0.952615	0.177782
H104	H	0.484854	-0.887700	0.291021
H105	H	0.293046	-1.066635	0.361028
H106	H	0.389886	-1.001740	0.474292
H107	H	0.353412	-1.322115	0.406760
C108	C	0.012550	-1.214340	0.556375
C109	C	0.132558	-1.241721	0.608761
H110	H	-0.005586	-1.134220	0.592802
H111	H	0.013142	-1.213169	0.450443
H112	H	-0.051298	-1.277056	0.590376
H113	H	0.196408	-1.179010	0.574751
H114	H	0.131976	-1.242882	0.714715
C115	C	0.363570	-1.755434	0.443104
C116	C	0.243058	-1.728772	0.391600
H117	H	0.381823	-1.835587	0.406897
H118	H	0.426941	-1.692617	0.408293
H119	H	0.363665	-1.756200	0.549057
H120	H	0.242966	-1.727996	0.285647
H121	H	0.179670	-1.791605	0.426404
H122	H	0.179110	-0.664238	0.662445
C123	C	0.022657	-1.793589	0.557642
C124	C	-0.004589	-1.674690	0.608139
H125	H	-0.040610	-1.855958	0.593771
H126	H	0.022587	-1.794575	0.451706
H127	H	0.104467	-1.810878	0.593227
H128	H	-0.086395	-1.657398	0.572544
H129	H	-0.004532	-1.673702	0.714097
H130	H	0.041616	-0.603366	0.445828
H131	H	0.330538	-1.248163	-0.200465
H132	H	0.333741	-1.367004	-0.445817
