data_functionalizedCrystal
_audit_creation_method	'MofGen! by Chris Wilmer'
_symmetry_space_group_name_H-M	'P1'
_symmetry_Int_Tables_number	1
_symmetry_cell_setting	triclinic
loop_
_symmetry_equiv_pos_as_xyz
  x,y,z
_cell_length_a	15.944499
_cell_length_b	15.944551
_cell_length_c	17.766277
_cell_angle_alpha	89.992686
_cell_angle_beta	89.988049
_cell_angle_gamma	83.488174
loop_
_atom_site_label
_atom_site_type_symbol
_atom_site_fract_x
_atom_site_fract_y
_atom_site_fract_z
O1	O	1.114557	0.108127	-0.062641
O2	O	1.614557	0.608127	0.437359
O3	O	0.870001	0.121528	-0.062633
O4	O	1.370001	0.621528	0.437367
O5	O	0.998957	-0.007449	-0.062630
O6	O	1.498957	0.492551	0.437370
O7	O	0.985601	0.237103	-0.062643
O8	O	1.485601	0.737103	0.437357
O9	O	0.998935	-0.007455	0.062558
O10	O	1.498935	0.492545	0.562558
O11	O	0.869979	0.121522	0.062556
O12	O	1.369979	0.621522	0.562556
O13	O	1.114534	0.108120	0.062548
O14	O	1.614534	0.608120	0.562548
Cu15	Cu	0.992254	0.114820	0.073982
Cu16	Cu	1.492254	0.614820	0.573982
Cu17	Cu	0.992281	0.114828	-0.074068
Cu18	Cu	1.492281	0.614828	0.425932
O19	O	0.985578	0.237097	0.062545
O20	O	1.485578	0.737097	0.562545
C21	C	0.838695	0.120976	-0.000037
C22	C	1.338695	0.620976	0.499963
C23	C	0.745447	0.119331	-0.000034
C24	C	1.245447	0.619331	0.499966
C25	C	0.453911	0.194263	-0.000049
C26	C	0.953911	0.694263	0.499951
C27	C	0.514951	0.155315	-0.061773
C28	C	1.014951	0.655315	0.438227
C29	C	0.409810	0.113355	-0.000051
C30	C	0.909810	0.613355	0.499949
C31	C	0.514915	0.155287	0.061653
C32	C	1.014915	0.655287	0.561653
C33	C	0.574719	0.116296	-0.000041
C34	C	1.074719	0.616296	0.499959
C35	C	0.469623	0.074384	-0.061826
C36	C	0.969623	0.574384	0.438174
C37	C	0.469580	0.074367	0.061656
C38	C	0.969580	0.574367	0.561656
C39	C	0.530603	0.035360	-0.000083
C40	C	1.030603	0.535360	0.499917
C41	C	0.314810	0.111663	-0.000057
C42	C	0.814810	0.611663	0.499943
C43	C	0.669718	0.117981	-0.000041
C44	C	1.169718	0.617981	0.499959
C45	C	0.998392	-0.038746	-0.000036
C46	C	1.498392	0.461254	0.499964
C47	C	0.996729	-0.131992	-0.000035
C48	C	1.496729	0.368008	0.499965
C49	C	0.912823	-0.346833	-0.000043
C50	C	1.412823	0.153167	0.499957
C51	C	0.951775	-0.407860	0.061681
C52	C	1.451775	0.092140	0.561681
C53	C	0.993722	-0.302717	-0.000041
C54	C	1.493722	0.197283	0.499959
C55	C	0.951817	-0.407837	-0.061745
C56	C	1.451817	0.092163	0.438255
C57	C	0.990811	-0.467629	-0.000050
C58	C	1.490811	0.032371	0.499950
C59	C	1.032696	-0.362517	0.061734
C60	C	1.532696	0.137483	0.561734
C61	C	1.032726	-0.362487	-0.061747
C62	C	1.532726	0.137513	0.438253
C63	C	1.071737	-0.423497	-0.000008
C64	C	1.571737	0.076503	0.499992
C65	C	0.995397	-0.207715	-0.000035
C66	C	1.495397	0.292285	0.499965
C67	C	0.989143	-0.562630	-0.000050
C68	C	1.489143	-0.062630	0.499950
C69	C	1.145840	0.108672	-0.000049
C70	C	1.645840	0.608672	0.499951
C71	C	1.239089	0.110317	-0.000058
C72	C	1.739089	0.610317	0.499942
C73	C	0.986144	0.268394	-0.000051
C74	C	1.486144	0.768394	0.499949
C75	C	0.987806	0.361640	-0.000056
C76	C	1.487806	0.861640	0.499944
N77	N	0.992242	0.114814	0.178113
N78	N	1.492242	0.614814	0.678113
N79	N	0.992301	0.114827	-0.178198
N80	N	1.492301	0.614827	0.321802
C81	C	1.049362	0.057731	0.217501
C82	C	1.549362	0.557731	0.717501
C83	C	1.049367	0.057727	0.296303
C84	C	1.549367	0.557727	0.796303
C85	C	0.992259	0.114821	0.335713
C86	C	1.492259	0.614821	0.835713
C87	C	0.935128	0.171908	0.296316
C88	C	1.435128	0.671908	0.796316
C89	C	0.935120	0.171905	0.217515
C90	C	1.435120	0.671905	0.717515
C91	C	0.981258	0.191321	0.460547
C92	C	1.481258	0.691321	0.960547
C93	C	0.981273	0.191326	0.539346
C94	C	1.481273	0.691326	1.039346
C95	C	0.992282	0.114831	0.578760
C96	C	1.492282	0.614831	1.078760
C97	C	1.003294	0.038329	0.539364
C98	C	1.503294	0.538329	1.039364
C99	C	1.003285	0.038325	0.460564
C100	C	1.503285	0.538325	0.960564
C101	C	0.992262	0.114830	0.421159
C102	C	1.492262	0.614830	0.921159
C103	C	1.049411	0.057739	0.703594
C104	C	1.549411	0.557739	1.203594
C105	C	1.049410	0.057734	0.782397
C106	C	1.549410	0.557734	1.282397
C107	C	0.935175	0.171922	0.782409
C108	C	1.435175	0.671922	1.282409
C109	C	0.935172	0.171920	0.703607
C110	C	1.435172	0.671920	1.203607
C111	C	0.992294	0.114829	0.664204
C112	C	1.492294	0.614829	1.164204
H113	H	0.535059	0.189542	-0.113956
H114	H	1.035059	0.689542	0.386044
H115	H	1.066924	-0.342360	-0.113935
H116	H	1.566924	0.157640	0.386065
H117	H	0.888604	0.218389	0.185445
H118	H	1.388604	0.718389	0.685445
H119	H	0.888629	0.218393	0.328408
H120	H	1.388629	0.718393	0.828408
H121	H	0.972311	0.253618	0.571416
H122	H	1.472311	0.753618	1.071416
H123	H	1.066875	-0.342535	0.113974
H124	H	1.566875	0.157465	0.613974
H125	H	1.138946	-0.456668	0.000024
H126	H	1.638946	0.043332	0.500024
H127	H	0.420581	0.261409	-0.000113
H128	H	0.920581	0.761409	0.499887
H129	H	1.095920	0.011250	0.671511
H130	H	1.595920	0.511250	1.171511
H131	H	0.917598	-0.427905	-0.113931
H132	H	1.417598	0.072095	0.386069
C133	C	0.442652	0.028205	-0.132401
C134	C	0.942652	0.528205	0.367599
H135	H	0.383160	0.027450	-0.131988
H136	H	0.883160	0.527450	0.368012
H137	H	0.469602	-0.028072	-0.132580
H138	H	0.969602	0.471928	0.367420
H139	H	0.458543	0.056765	-0.176180
H140	H	0.958543	0.556765	0.323820
C141	C	1.112185	-0.005075	0.174162
C142	C	1.612185	0.494925	0.674162
H143	H	1.146199	-0.039077	0.208911
H144	H	1.646199	0.460923	0.708911
H145	H	1.147146	0.025152	0.143404
H146	H	1.647146	0.525152	0.643404
H147	H	1.081959	-0.040060	0.143440
H148	H	1.581959	0.459940	0.643440
H149	H	1.012259	-0.023961	0.571453
H150	H	1.512259	0.476039	1.071453
C151	C	0.575435	-0.055422	-0.000124
C152	C	1.075435	0.444578	0.499876
H153	H	0.559940	-0.084021	-0.044008
H154	H	1.059940	0.415979	0.455992
H155	H	0.559213	-0.084376	0.043309
H156	H	1.059213	0.415624	0.543309
H157	H	0.634820	-0.053872	0.000287
H158	H	1.134820	0.446128	0.500287
H159	H	0.449454	0.040172	0.113844
H160	H	0.949454	0.540172	0.613844
C161	C	0.872356	0.234726	0.660274
C162	C	1.372356	0.734726	1.160274
H163	H	0.880528	0.226546	0.607700
H164	H	1.380528	0.726546	1.107700
H165	H	0.881487	0.290787	0.673181
H166	H	1.381487	0.790787	1.173181
H167	H	0.816294	0.225581	0.673201
H168	H	1.316294	0.725581	1.173201
H169	H	0.917548	-0.427965	0.113866
H170	H	1.417548	0.072035	0.613866
H171	H	0.972278	0.253616	0.428464
H172	H	1.472278	0.753616	0.928464
H173	H	0.534981	0.189519	0.113834
H174	H	1.034981	0.689519	0.613834
C175	C	0.822115	-0.301813	0.000041
C176	C	1.322115	0.198187	0.500041
H177	H	0.793498	-0.317233	0.043955
H178	H	1.293498	0.182767	0.543955
H179	H	0.793095	-0.317978	-0.043361
H180	H	1.293095	0.182022	0.456639
H181	H	0.823795	-0.242448	-0.000402
H182	H	1.323795	0.257552	0.499598
H183	H	1.012250	-0.023965	0.428492
H184	H	1.512250	0.476035	0.928492
C185	C	1.112203	-0.005065	0.339639
C186	C	1.612203	0.494935	0.839639
H187	H	1.146223	-0.039063	0.304885
H188	H	1.646223	0.460937	0.804885
H189	H	1.081995	-0.040044	0.370395
H190	H	1.581995	0.459956	0.870395
H191	H	1.147169	0.025180	0.370362
H192	H	1.647169	0.525180	0.870362
H193	H	1.095921	0.011246	0.814467
H194	H	1.595921	0.511246	1.314467
C195	C	0.872358	0.234724	0.825751
C196	C	1.372358	0.734724	1.325751
H197	H	0.880546	0.226554	0.878323
H198	H	1.380546	0.726554	1.378323
H199	H	0.816299	0.225577	0.812853
H200	H	1.316299	0.725577	1.312853
H201	H	0.881485	0.290791	0.812826
H202	H	1.381485	0.790791	1.312826
