data_functionalizedCrystal
_audit_creation_method	'MofGen! by Chris Wilmer'
_symmetry_space_group_name_H-M	'P1'
_symmetry_Int_Tables_number	1
_symmetry_cell_setting	triclinic
loop_
_symmetry_equiv_pos_as_xyz
  x,y,z
_cell_length_a	10.489741
_cell_length_b	10.654550
_cell_length_c	9.730223
_cell_angle_alpha	89.998044
_cell_angle_beta	90.003186
_cell_angle_gamma	95.487962
loop_
_atom_site_label
_atom_site_type_symbol
_atom_site_fract_x
_atom_site_fract_y
_atom_site_fract_z
O1	O	1.693960	-0.177183	-0.114201
O2	O	1.322756	-0.193815	-0.114222
O3	O	1.516893	-0.002764	-0.114206
O4	O	1.499823	-0.368234	-0.114217
O5	O	1.516892	-0.002776	0.114374
O6	O	1.322756	-0.193828	0.114358
O7	O	1.693959	-0.177195	0.114379
Zn8	Zn	1.508358	-0.185513	0.150660
Zn9	Zn	1.508358	-0.185497	-0.150504
O10	O	1.499823	-0.368247	0.114363
C11	C	1.275225	-0.192565	0.000065
C12	C	1.133597	-0.188807	0.000057
N13	N	1.508367	-0.185524	0.356197
C14	C	1.515639	0.044029	0.000082
C15	C	1.511889	0.183474	0.000077
C16	C	1.065516	-0.067246	0.000074
C17	C	0.973361	-0.124664	-0.112627
C18	C	0.973395	-0.124706	0.112735
C19	C	1.043308	-0.246275	-0.112737
C20	C	1.043351	-0.246299	0.112726
C21	C	0.951224	-0.303805	-0.000002
C22	C	1.741491	-0.178445	0.000089
C23	C	1.883118	-0.182204	0.000088
C24	C	1.501076	-0.415039	0.000071
C25	C	1.504826	-0.554484	0.000067
C26	C	1.626194	0.262906	0.000088
C27	C	1.622663	0.393928	0.000078
C28	C	1.390513	0.366074	0.000053
C29	C	1.394045	0.235054	0.000053
C30	C	1.760224	0.278989	0.000108
C31	C	1.756693	0.410011	0.000099
N32	N	1.508359	-0.185477	-0.356040
C33	C	1.422381	-0.270058	0.572035
C34	C	1.422381	-0.270079	0.428152
C35	C	1.594349	-0.100934	0.428132
C36	C	1.594341	-0.100908	0.572012
C37	C	1.323101	-0.367716	0.572045
C38	C	1.323101	-0.367737	0.428162
H39	H	1.115254	0.032684	-0.000064
H40	H	1.664340	-0.032025	0.630572
H41	H	1.812648	0.249611	-0.095542
H42	H	1.802904	0.243336	0.098807
H43	H	1.074372	-0.297697	0.208010
H44	H	0.942372	-0.073224	-0.207906
C45	C	0.931583	-0.055208	0.241453
H46	H	0.971109	0.028827	0.241305
H47	H	0.841154	-0.053981	0.240982
H48	H	0.956720	-0.097583	0.321485
H49	H	1.344881	-0.464290	0.389140
C50	C	1.084907	-0.315723	-0.241581
H51	H	1.175263	-0.317660	-0.240823
H52	H	1.044739	-0.399501	-0.241874
H53	H	1.060400	-0.272839	-0.321535
H54	H	0.901752	-0.403841	-0.000066
C55	C	1.268311	0.147682	0.000032
H56	H	1.197626	0.197170	0.000031
H57	H	1.264869	0.095993	-0.079678
H58	H	1.264857	0.095992	0.079754
H59	H	1.294568	0.408086	0.000032
H60	H	1.797199	0.455640	-0.098594
C61	C	1.824893	0.466394	0.129331
H62	H	1.855326	0.400669	0.182493
H63	H	1.895019	0.524356	0.102776
H64	H	1.766390	0.508923	0.182467
C65	C	1.688935	-0.007930	0.348985
H66	H	1.676634	-0.020064	0.252993
H67	H	1.674356	0.076032	0.372540
H68	H	1.774184	-0.022402	0.372582
H69	H	1.225072	-0.346156	0.611072
C70	C	1.364970	-0.490938	0.632382
H71	H	1.383614	-0.545833	0.559688
H72	H	1.439251	-0.472494	0.687339
H73	H	1.297861	-0.530520	0.687329
C74	C	1.197984	-0.326393	0.367840
H75	H	1.142261	-0.307973	0.440541
H76	H	1.216781	-0.253279	0.312874
H77	H	1.157708	-0.392437	0.312905
