data_functionalizedCrystal
_audit_creation_method	'MofGen! by Chris Wilmer'
_symmetry_space_group_name_H-M	'P1'
_symmetry_Int_Tables_number	1
_symmetry_cell_setting	triclinic
loop_
_symmetry_equiv_pos_as_xyz
  x,y,z
_cell_length_a	12.837942
_cell_length_b	16.992694
_cell_length_c	16.053802
_cell_angle_alpha	92.750953
_cell_angle_beta	92.838962
_cell_angle_gamma	87.251418
loop_
_atom_site_label
_atom_site_type_symbol
_atom_site_fract_x
_atom_site_fract_y
_atom_site_fract_z
O1	O	0.217066	-1.059913	-0.069322
O2	O	0.214638	-0.831447	-0.069347
O3	O	0.064530	-0.940614	-0.069330
O4	O	0.367174	-0.950746	-0.069339
O5	O	0.072756	-0.934602	0.069528
O6	O	0.222864	-0.825435	0.069511
O7	O	0.225292	-1.053901	0.069536
Zn8	Zn	0.225384	-0.938714	0.091570
Zn9	Zn	0.214546	-0.946634	-0.091381
O10	O	0.375400	-0.944734	0.069519
C11	C	0.215629	-0.798996	0.000079
C12	C	0.206315	-0.711256	0.000070
C13	C	0.029738	-0.934185	0.000098
C14	C	-0.086184	-0.923977	0.000096
C15	C	0.224300	-1.086353	0.000108
C16	C	0.233614	-1.174092	0.000112
C17	C	-0.316977	-1.046699	0.000092
C18	C	-0.425897	-1.037111	0.000089
C19	C	-0.412948	-0.895215	0.000082
C20	C	-0.304027	-0.904802	0.000085
C21	C	-0.256046	-0.980547	0.000091
C22	C	-0.147123	-0.990134	0.000099
C23	C	-0.134176	-0.848238	0.000086
C24	C	-0.243097	-0.838650	0.000084
C25	C	0.410191	-0.951163	0.000089
C26	C	0.526114	-0.961371	0.000086
N27	N	0.232780	-0.933314	0.216430
C28	C	0.296178	-0.667730	0.000068
C29	C	0.287422	-0.585288	0.000079
C30	C	0.188801	-0.546375	0.000087
C31	C	0.098931	-0.589907	0.000092
C32	C	0.107689	-0.672346	0.000086
C33	C	0.152502	-0.300064	0.000111
C34	C	0.143751	-0.217618	0.000114
C35	C	0.332243	-0.213006	0.000103
C36	C	0.340992	-0.295447	0.000092
C37	C	0.251122	-0.338972	0.000101
N38	N	0.179847	-0.462107	0.000097
N39	N	0.260077	-0.423238	0.000098
N40	N	0.207141	-0.952040	-0.216241
C41	C	0.168935	-0.979785	0.260131
C42	C	0.174120	-0.976016	0.347537
C43	C	0.243156	-0.925779	0.391240
C44	C	0.307004	-0.879303	0.347533
C45	C	0.301813	-0.883068	0.260129
C46	C	0.265799	-0.909329	0.652647
C47	C	0.270987	-0.905569	0.740058
C48	C	0.138101	-1.002281	0.740056
C49	C	0.132921	-1.006046	0.652650
C50	C	0.196765	-0.959566	0.608950
N51	N	0.248459	-0.921927	0.480584
N52	N	0.191455	-0.963414	0.519608
H53	H	-0.108058	-1.051809	0.000107
O54	O	0.419454	-0.170645	-0.000010
C55	C	0.415784	-0.125936	-0.071932
H56	H	0.331226	-0.116623	-0.095907
H57	H	0.450473	-0.066291	-0.055754
H58	H	0.462684	-0.158741	-0.122293
H59	H	-0.084554	-0.794372	0.000092
H60	H	0.034512	-0.707785	0.000087
H61	H	0.327208	-0.864658	0.775638
O62	O	0.436875	-0.333119	0.000126
C63	C	0.514315	-0.277024	0.000107
H64	H	0.482003	-0.217800	0.026400
H65	H	0.585147	-0.297491	0.040417
H66	H	0.538414	-0.270421	-0.066511
H67	H	0.076706	-1.046952	0.617068
O68	O	0.003115	-0.552139	0.000246
C69	C	-0.047830	-0.570600	0.072151
H70	H	0.012697	-0.589739	0.122416
H71	H	-0.094912	-0.516391	0.096292
H72	H	-0.102471	-0.620596	0.055892
H73	H	0.122131	-1.013856	0.383118
H74	H	-0.277909	-1.108373	0.000104
H75	H	0.317785	-0.871485	0.617074
O76	O	0.374040	-0.830570	0.390113
C77	C	0.364917	-0.837198	0.476631
H78	H	0.331885	-0.896500	0.488564
H79	H	0.445150	-0.832888	0.509838
H80	H	0.310341	-0.787565	0.501449
H81	H	0.112723	-1.020697	0.224553
H82	H	0.086121	-1.040121	0.775644
H83	H	-0.475503	-1.090979	0.000087
H84	H	0.063438	-0.185938	0.000120
H85	H	0.353801	-0.845226	0.224548
H86	H	0.079324	-0.335492	0.000119
O87	O	0.392062	-0.705401	0.000096
C88	C	0.469497	-0.649302	0.000077
H89	H	0.437181	-0.590080	0.026371
H90	H	0.540330	-0.669766	0.040387
H91	H	0.493596	-0.642697	-0.066541
O92	O	-0.459697	-0.821689	-0.000038
C93	C	-0.526544	-0.815010	-0.071970
H94	H	-0.549885	-0.876213	-0.095943
H95	H	-0.599449	-0.777550	-0.055805
H96	H	-0.484353	-0.785867	-0.122327
O97	O	-0.289838	-0.765121	-0.000031
C98	C	-0.356687	-0.758430	-0.071960
H99	H	-0.380042	-0.819628	-0.095938
H100	H	-0.429585	-0.720964	-0.055788
H101	H	-0.314494	-0.729287	-0.122315
H102	H	0.360598	-0.549853	0.000077
