data_functionalizedCrystal
_audit_creation_method	'MofGen! by Chris Wilmer'
_symmetry_space_group_name_H-M	'P1'
_symmetry_Int_Tables_number	1
_symmetry_cell_setting	triclinic
loop_
_symmetry_equiv_pos_as_xyz
  x,y,z
_cell_length_a	23.532407
_cell_length_b	10.654550
_cell_length_c	9.130313
_cell_angle_alpha	90.004127
_cell_angle_beta	89.998676
_cell_angle_gamma	83.666804
loop_
_atom_site_label
_atom_site_type_symbol
_atom_site_fract_x
_atom_site_fract_y
_atom_site_fract_z
O1	O	-0.756252	-0.152438	-0.121616
O2	O	-0.590533	-0.174494	-0.121659
O3	O	-0.677203	0.019394	-0.121628
O4	O	-0.669582	-0.346326	-0.121648
O5	O	-0.677196	0.019398	0.121971
O6	O	-0.590526	-0.174490	0.121940
O7	O	-0.756245	-0.152433	0.121983
Cu8	Cu	-0.673385	-0.163461	0.144204
Cu9	Cu	-0.673393	-0.163466	-0.143880
O10	O	-0.669575	-0.346322	0.121951
C11	C	-0.569310	-0.173931	0.000135
C12	C	-0.506082	-0.172242	0.000119
C13	C	-0.676640	0.066176	0.000171
C14	C	-0.674966	0.205567	0.000168
C15	C	-0.777469	-0.152997	0.000185
C16	C	-0.840697	-0.154686	0.000192
C17	C	-0.107657	-0.276389	0.000179
C18	C	-0.048247	-0.274820	0.000188
O19	O	-0.012131	-0.371366	0.000236
N20	N	-0.024869	-0.159554	0.000192
C21	C	-0.060906	-0.045849	0.000202
O22	O	-0.035567	0.052339	0.000208
C23	C	-0.120315	-0.047419	0.000203
C24	C	-0.143689	-0.162693	0.000185
C25	C	-0.131031	-0.391654	0.000162
C26	C	-0.190438	-0.393222	0.000150
C27	C	-0.226470	-0.279525	0.000156
C28	C	-0.203095	-0.164261	0.000173
C29	C	-0.156351	0.066285	0.000224
C30	C	-0.215764	0.064705	0.000226
C31	C	-0.239138	-0.050569	0.000207
C32	C	-0.298534	-0.052133	0.000166
N33	N	-0.321911	-0.167399	0.000162
C34	C	-0.285879	-0.281095	0.000157
C35	C	0.063858	-0.042560	0.000202
C36	C	0.123266	-0.040989	0.000190
C37	C	0.135922	-0.269961	0.000179
C38	C	0.076512	-0.271531	0.000180
C39	C	0.040481	-0.157827	0.000198
C40	C	-0.410637	-0.284380	0.000131
C41	C	-0.470049	-0.285938	0.000113
C42	C	-0.482700	-0.056967	0.000132
C43	C	-0.423293	-0.055408	0.000142
C44	C	-0.387262	-0.169125	0.000147
O45	O	-0.334684	0.044362	0.000125
O46	O	-0.311227	-0.379267	0.000171
C47	C	-0.670138	-0.393104	0.000149
C48	C	-0.671812	-0.532494	0.000142
N49	N	-0.673383	-0.163457	0.346826
C50	C	-0.725996	0.286669	0.000181
C51	C	-0.724419	0.417640	0.000163
C52	C	-0.620779	0.386393	0.000125
C53	C	-0.622356	0.255425	0.000133
C54	C	-0.711774	-0.077639	0.423492
C55	C	-0.711779	-0.077640	0.576829
C56	C	-0.635001	-0.249287	0.576821
C57	C	-0.634994	-0.249280	0.423486
N58	N	-0.673396	-0.163465	0.653497
H59	H	-0.489077	-0.379812	0.000097
H60	H	-0.577945	0.427004	0.000099
O61	O	-0.133630	0.178234	-0.000011
C62	C	-0.099631	0.186011	-0.126148
H63	H	-0.113932	0.120569	-0.214344
H64	H	-0.104566	0.287287	-0.168475
H65	H	-0.052904	0.156468	-0.097623
O66	O	-0.572728	0.176811	0.000187
C67	C	-0.525955	0.248898	0.000129
H68	H	-0.540018	0.346841	0.046251
H69	H	-0.490166	0.200130	0.070839
H70	H	-0.509860	0.258013	-0.116744
O71	O	-0.773951	0.496551	0.000372
C72	C	-0.776142	0.573240	0.126543
H73	H	-0.730912	0.579303	0.168586
H74	H	-0.796966	0.671945	0.098163
H75	H	-0.802318	0.530488	0.214902
H76	H	0.142291	0.052879	0.000182
H77	H	-0.245099	0.157299	0.000242
H78	H	-0.512048	0.035602	0.000131
O79	O	-0.597691	-0.332485	0.651456
C80	C	-0.562293	-0.265627	0.740148
H81	H	-0.584590	-0.167109	0.763126
H82	H	-0.553497	-0.318148	0.847968
H83	H	-0.520170	-0.257562	0.681072
H84	H	-0.743032	-0.007755	0.361079
O85	O	-0.777148	0.238444	0.000132
C86	C	-0.821849	0.338119	0.000171
H87	H	-0.805533	0.426893	-0.045952
H88	H	-0.858548	0.311201	-0.070546
H89	H	-0.837614	0.356862	0.117039
O90	O	-0.375725	-0.394958	0.000060
C91	C	-0.409105	-0.497017	0.000076
H92	H	-0.453308	-0.464553	-0.046039
H93	H	-0.387519	-0.576635	-0.070661
H94	H	-0.413482	-0.532391	0.116936
O95	O	-0.749127	0.005769	0.651075
C96	C	-0.782996	0.081537	0.550525
H97	H	-0.783835	0.030059	0.441218
H98	H	-0.828399	0.101198	0.594821
H99	H	-0.764142	0.174622	0.534232
O100	O	-0.597757	-0.332824	0.349072
C101	C	-0.607492	-0.457037	0.386540
H102	H	-0.653087	-0.457148	0.428680
H103	H	-0.601184	-0.520125	0.285690
H104	H	-0.576077	-0.494279	0.475543
O105	O	-0.213066	-0.505285	-0.000054
C106	C	-0.194697	-0.574529	-0.126236
H107	H	-0.153368	-0.540805	-0.168294
H108	H	-0.186859	-0.679204	-0.097864
H109	H	-0.229011	-0.559571	-0.214580
O110	O	-0.095977	-0.502027	-0.000048
C111	C	-0.061247	-0.507991	-0.126237
H112	H	-0.057832	-0.408358	-0.168278
H113	H	-0.016795	-0.555367	-0.097882
H114	H	-0.081029	-0.565071	-0.214588
H115	H	0.165270	-0.362539	0.000181
O116	O	0.053904	-0.383617	0.000237
C117	C	0.098453	-0.483623	0.000188
H118	H	0.138945	-0.448930	0.046303
H119	H	0.085720	-0.564150	0.070907
H120	H	0.106718	-0.518656	-0.116683
H121	H	0.034524	0.050038	0.000203
H122	H	-0.404261	0.038457	0.000136
