data_functionalizedCrystal
_audit_creation_method	'MofGen! by Chris Wilmer'
_symmetry_space_group_name_H-M	'P1'
_symmetry_Int_Tables_number	1
_symmetry_cell_setting	triclinic
loop_
_symmetry_equiv_pos_as_xyz
  x,y,z
_cell_length_a	29.019771
_cell_length_b	29.019011
_cell_length_c	29.015668
_cell_angle_alpha	60.004890
_cell_angle_beta	60.009825
_cell_angle_gamma	59.993818
loop_
_atom_site_label
_atom_site_type_symbol
_atom_site_fract_x
_atom_site_fract_y
_atom_site_fract_z
O1	O	0.063866	-0.673289	0.563007
O2	O	0.024059	-0.524205	0.453633
O3	O	0.118464	-0.618532	0.453552
O4	O	-0.030540	-0.578962	0.563088
O5	O	0.149785	-0.587215	0.484789
O6	O	0.055379	-0.492888	0.484869
O7	O	0.095186	-0.641972	0.594244
Cu8	Cu	0.078143	-0.564571	0.542409
Cu9	Cu	0.041102	-0.601606	0.505468
O10	O	0.000781	-0.547645	0.594325
N11	N	0.104196	-0.538525	0.568394
N12	N	0.015054	-0.627656	0.479483
C13	C	0.143783	-0.499167	0.850823
C14	C	0.386758	-0.499111	0.607645
C15	C	0.143618	-0.499136	0.607763
C16	C	0.143598	-0.256029	0.607770
C17	C	0.182748	-0.373362	0.646852
C18	C	0.182758	-0.460025	0.646847
C19	C	0.204440	-0.438361	0.668500
C20	C	0.298958	-0.422064	0.618723
C21	C	0.358043	-0.441753	0.599006
C22	C	0.358069	-0.537354	0.635461
C23	C	0.298985	-0.517664	0.655180
C24	C	0.196983	-0.343808	0.588767
C25	C	0.177262	-0.284720	0.569090
C26	C	0.129075	-0.284743	0.665586
C27	C	0.148797	-0.343831	0.685263
C28	C	0.124666	-0.445760	0.661149
C29	C	0.104961	-0.465454	0.641458
C30	C	0.201435	-0.513678	0.593176
C31	C	0.221143	-0.493984	0.612860
C32	C	0.124738	-0.445777	0.763064
C33	C	0.105085	-0.465488	0.822151
C34	C	0.201594	-0.513722	0.822097
C35	C	0.221247	-0.494012	0.763009
C36	C	0.182817	-0.460038	0.733494
C37	C	0.269432	-0.460018	0.646809
C38	C	0.121399	-0.520450	0.915812
C39	C	0.451745	-0.520012	0.585655
C40	C	0.121177	-0.520429	0.586502
C41	C	0.121544	-0.191035	0.586883
C42	C	-0.110592	-0.666601	0.440035
C43	C	-0.023978	-0.666709	0.440231
C44	C	-0.045598	-0.688342	0.418486
C45	C	-0.061967	-0.782825	0.468184
C46	C	-0.042323	-0.841914	0.487907
C47	C	0.053280	-0.842025	0.451623
C48	C	0.033634	-0.782937	0.431899
C49	C	-0.140218	-0.680832	0.498102
C50	C	-0.199302	-0.661065	0.517690
C51	C	-0.199129	-0.612843	0.421140
C52	C	-0.140045	-0.632610	0.401552
C53	C	-0.038209	-0.608622	0.425941
C54	C	-0.018555	-0.588961	0.445716
C55	C	0.029562	-0.685470	0.494059
C56	C	0.009908	-0.705133	0.474291
C57	C	-0.038037	-0.608631	0.323917
C58	C	-0.018247	-0.588973	0.264830
C59	C	0.029955	-0.685489	0.264893
C60	C	0.010165	-0.705145	0.323981
C61	C	-0.023833	-0.666715	0.353492
C62	C	-0.023990	-0.753339	0.440182
N63	N	0.504925	-0.538487	0.568205
O64	O	0.685342	-0.543679	0.433426
O65	O	0.685533	-0.653395	0.582361
O66	O	0.685457	-0.653145	0.487904
O67	O	0.685418	-0.543929	0.527882
O68	O	0.591592	-0.621921	0.519268
O69	O	0.591667	-0.622171	0.613725
O70	O	0.591477	-0.512455	0.464790
Cu71	Cu	0.583001	-0.564462	0.542121
Cu72	Cu	0.694008	-0.601388	0.505029
O73	O	0.591553	-0.512705	0.559246
N74	N	0.772084	-0.627363	0.478939
N75	N	0.104168	-0.137853	0.568408
O76	O	-0.030538	0.042663	0.563097
O77	O	0.118403	0.042683	0.453379
O78	O	0.023918	0.042657	0.453664
O79	O	0.063947	0.042689	0.562813
O80	O	0.055242	-0.051215	0.484950
O81	O	0.149727	-0.051189	0.484666
O82	O	0.000787	-0.051210	0.594384
Cu83	Cu	0.078117	-0.059771	0.542381
Cu84	Cu	0.041072	0.051244	0.505382
O85	O	0.095272	-0.051184	0.594099
N86	N	0.015015	0.129326	0.479356
N87	N	0.104469	-0.538576	0.968995
O88	O	0.099171	-0.673268	1.149499
O89	O	-0.010519	-0.524279	1.149527
O90	O	-0.010265	-0.618748	1.149494
O91	O	0.098916	-0.578799	1.149533
O92	O	0.021008	-0.587443	1.055625
O93	O	0.020753	-0.492974	1.055659
O94	O	0.130444	-0.641963	1.055630
Cu95	Cu	0.078454	-0.564610	1.047074
Cu96	Cu	0.041470	-0.601632	1.158084
O97	O	0.130189	-0.547494	1.055664
N98	N	0.015455	-0.627672	1.236163
C99	C	0.035988	-0.489761	0.454182
C100	C	0.152897	-0.606574	0.454082
C101	C	0.083257	-0.676417	0.593694
C102	C	-0.033653	-0.559604	0.593794
C103	C	0.638623	-0.652892	0.616806
C104	C	0.638531	-0.652583	0.499833
C105	C	0.638384	-0.512957	0.430345
C106	C	0.638480	-0.513267	0.547317
C107	C	0.152789	-0.004135	0.453875
C108	C	0.035820	-0.004282	0.454266
C109	C	-0.033639	-0.004275	0.593849
C110	C	0.083370	-0.004245	0.593498
C111	C	-0.009989	-0.489856	1.102597
C112	C	-0.009667	-0.606839	1.102536
C113	C	0.129914	-0.676386	1.102561
C114	C	0.129599	-0.559396	1.102601
H115	H	0.057789	-0.453866	0.846219
H116	H	0.027247	-0.004286	0.419974
O117	O	0.171070	-0.727392	1.102527
C118	C	0.266212	-0.785245	1.102562
C119	C	0.219657	-0.727452	1.102588
H120	H	0.305501	-0.785317	1.102624
H121	H	0.276913	-0.793520	1.063261
H122	H	0.250667	-0.819702	1.141828
H123	H	0.235163	-0.692959	1.063349
H124	H	0.208962	-0.719226	1.141916
O125	O	0.203734	-0.003789	0.412730
C126	C	0.296568	-0.003340	0.386322
C127	C	0.238895	-0.003718	0.432964
H128	H	0.325016	-0.003294	0.402668
H129	H	0.290429	0.036040	0.347953
H130	H	0.316969	-0.042530	0.373825
H131	H	0.218463	0.035445	0.445509
H132	H	0.245071	-0.043124	0.471302
O133	O	-0.084730	-0.549445	0.634779
C134	C	-0.177684	-0.482582	0.660868
C135	C	-0.119862	-0.494008	0.614407
H136	H	-0.206108	-0.437767	0.644411
H137	H	-0.171801	-0.487633	0.699356
H138	H	-0.197962	-0.513910	0.673222
H139	H	-0.099552	-0.462690	0.602005
H140	H	-0.125781	-0.488977	0.575950
H141	H	0.638547	-0.686893	0.491276
O142	O	0.386639	-0.404805	0.571712
C143	C	0.380380	-0.307908	0.537659
C144	C	0.347923	-0.349689	0.568567
H145	H	0.349093	-0.263339	0.535117
H146	H	0.408004	-0.309668	0.493214
H147	H	0.408078	-0.319798	0.561800
H148	H	0.320195	-0.337827	0.544473
H149	H	0.320335	-0.347921	0.613014
H150	H	0.638471	-0.478960	0.555871
H151	H	0.163899	-0.550848	1.102605
H152	H	0.091761	-0.719242	0.628046
H153	H	-0.044426	-0.447066	1.102605
H154	H	-0.043953	-0.615372	1.102487
H155	H	0.638671	-0.687334	0.659583
H156	H	0.137197	-0.367895	0.732563
O157	O	0.093490	-0.004213	0.634463
C158	C	0.056622	-0.004247	0.729568
C159	C	0.045082	-0.004269	0.683221
H160	H	0.017497	-0.004304	0.769004
H161	H	0.067333	0.035054	0.713956
H162	H	0.093602	-0.043518	0.740067
H163	H	0.008096	0.034975	0.672701
H164	H	0.034405	-0.043596	0.698858
O165	O	-0.084709	-0.004247	0.634871
C166	C	-0.177683	-0.004279	0.661140
C167	C	-0.119875	-0.004305	0.614632
H168	H	-0.206126	-0.004339	0.644799
H169	H	-0.197982	0.035023	0.673432
H170	H	-0.171722	-0.043548	0.699641
H171	H	-0.125787	0.034937	0.576101
H172	H	-0.099596	-0.043633	0.602388
O173	O	0.048512	-0.451573	0.655426
C174	C	-0.045102	-0.401650	0.705380
C175	C	0.018810	-0.417337	0.689613
H176	H	-0.069135	-0.373958	0.733012
H177	H	-0.056738	-0.441736	0.729467
H178	H	-0.056747	-0.377611	0.665292
H179	H	0.030500	-0.441362	0.729671
H180	H	0.030411	-0.377231	0.665504
O181	O	0.638336	-0.471929	0.379280
C182	C	0.638199	-0.445670	0.286337
C183	C	0.638268	-0.492188	0.344136
H184	H	0.638132	-0.462028	0.257910
H185	H	0.677467	-0.433329	0.266003
H186	H	0.598902	-0.407195	0.292323
H187	H	0.677539	-0.530693	0.338198
H188	H	0.598974	-0.504481	0.364450
H189	H	0.093440	-0.418108	0.739036
O190	O	0.203911	-0.616546	0.412973
C191	C	0.261824	-0.579375	0.317832
C192	C	0.204022	-0.568011	0.364333
H193	H	0.261936	-0.540139	0.278499
H194	H	0.270072	-0.616276	0.307189
H195	H	0.296272	-0.590116	0.333401
H196	H	0.169537	-0.557246	0.348802
H197	H	0.195822	-0.531126	0.374969
H198	H	0.232890	-0.541375	0.846122
H199	H	0.093408	-0.418110	0.688821
O200	O	0.277687	-0.507901	0.734373
C201	C	0.371336	-0.557853	0.740559
C202	C	0.307435	-0.542155	0.773057
H203	H	0.395406	-0.585559	0.771821
H204	H	0.382980	-0.517773	0.712912
H205	H	0.382928	-0.581881	0.712879
H206	H	0.295797	-0.518141	0.800768
H207	H	0.295825	-0.582256	0.800669
H208	H	0.232695	-0.541333	0.565509
H209	H	0.268446	-0.505593	0.601208
H210	H	0.382132	-0.584293	0.642268
O211	O	0.270390	-0.554607	0.682428
C212	C	0.276653	-0.651513	0.716532
C213	C	0.309107	-0.609735	0.685652
H214	H	0.307942	-0.696095	0.719159
H215	H	0.248984	-0.639695	0.692390
H216	H	0.249000	-0.649680	0.760948
H217	H	0.336791	-0.611547	0.641236
H218	H	0.336740	-0.621567	0.709837
H219	H	0.224626	-0.367851	0.557490
O220	O	0.270191	-0.366090	0.610691
C221	C	0.203526	-0.294594	0.654237
C222	C	0.236061	-0.358002	0.663414
H223	H	0.175933	-0.288034	0.696856
H224	H	0.175803	-0.277939	0.628304
H225	H	0.234793	-0.270860	0.630751
H226	H	0.204834	-0.381782	0.686915
H227	H	0.263792	-0.374614	0.689323
H228	H	0.101438	-0.260698	0.696864
O229	O	0.191159	-0.256095	0.512645
C230	C	0.241002	-0.262305	0.419008
C231	C	0.225317	-0.294791	0.482915
H232	H	0.268612	-0.293576	0.394953
H233	H	0.265086	-0.234652	0.407336
H234	H	0.200882	-0.234629	0.407423
H235	H	0.265409	-0.322497	0.494545
H236	H	0.201212	-0.322409	0.494553
H237	H	-0.029822	-0.541673	0.240758
O238	O	-0.070973	-0.571280	0.352563
C239	C	-0.078538	-0.494841	0.370659
C240	C	-0.041181	-0.537111	0.338189
H241	H	-0.054470	-0.467197	0.359041
H242	H	-0.090222	-0.518845	0.417975
H243	H	-0.118600	-0.467160	0.358970
H244	H	-0.001095	-0.564803	0.349831
H245	H	-0.029542	-0.513073	0.290882
O246	O	0.062985	-0.722897	0.236319
C247	C	0.108665	-0.820704	0.242626
C248	C	0.071263	-0.778399	0.275056
H249	H	0.115360	-0.865587	0.273931
H250	H	0.151215	-0.814001	0.215053
H251	H	0.087073	-0.813839	0.214877
H252	H	0.092805	-0.785239	0.302835
H253	H	0.028715	-0.785113	0.302593
H254	H	0.021738	-0.752445	0.348058
H255	H	-0.065797	-0.577331	0.398207
H256	H	-0.108889	-0.758731	0.474933
H257	H	-0.030145	-0.541661	0.434082
H258	H	0.057158	-0.716762	0.521784
H259	H	0.027485	-0.446933	0.419832
H260	H	0.064563	-0.758931	0.409098
O261	O	0.023707	-0.761569	0.488248
C262	C	0.019044	-0.850040	0.563128
C263	C	0.003390	-0.786140	0.547416
H264	H	0.002614	-0.869923	0.610965
H265	H	0.066885	-0.870043	0.546939
H266	H	-0.000813	-0.857455	0.543104
H267	H	0.023209	-0.778675	0.567435
H268	H	-0.044456	-0.766170	0.563594
O269	O	0.109279	-0.870693	0.443511
C270	C	0.202028	-0.864573	0.405469
C271	C	0.138628	-0.832037	0.414608
H272	H	0.225774	-0.833333	0.382111
H273	H	0.218724	-0.892230	0.379457
H274	H	0.208516	-0.892249	0.448115
H275	H	0.132092	-0.804330	0.371989
H276	H	0.121964	-0.804415	0.440646
H277	H	-0.073247	-0.865920	0.510699
O278	O	-0.111693	-0.713824	0.535558
C279	C	-0.118101	-0.759589	0.633393
C280	C	-0.150475	-0.722210	0.591034
H281	H	-0.149442	-0.766391	0.678253
H282	H	-0.090451	-0.737991	0.626692
H283	H	-0.090436	-0.802096	0.626586
H284	H	-0.178170	-0.679697	0.597814
H285	H	-0.178089	-0.743853	0.597745
H286	H	-0.223425	-0.672650	0.564976
O287	O	-0.227657	-0.579815	0.383683
C288	C	-0.221253	-0.534117	0.285850
C289	C	-0.188877	-0.571515	0.328207
H290	H	-0.189914	-0.527405	0.240989
H291	H	-0.248885	-0.491571	0.292575
H292	H	-0.248935	-0.555726	0.292634
H293	H	-0.161164	-0.549956	0.321449
H294	H	-0.161280	-0.614060	0.321472
H295	H	-0.115923	-0.621016	0.354266
