data_functionalizedCrystal
_audit_creation_method	'MofGen! by Chris Wilmer'
_symmetry_space_group_name_H-M	'P1'
_symmetry_Int_Tables_number	1
_symmetry_cell_setting	triclinic
loop_
_symmetry_equiv_pos_as_xyz
  x,y,z
_cell_length_a	12.827893
_cell_length_b	12.827892
_cell_length_c	17.077396
_cell_angle_alpha	90.024877
_cell_angle_beta	90.017423
_cell_angle_gamma	90.015553
loop_
_atom_site_label
_atom_site_type_symbol
_atom_site_fract_x
_atom_site_fract_y
_atom_site_fract_z
Zn1	Zn	1.597652	-0.416029	0.443819
Zn2	Zn	2.097652	0.083971	0.943819
Zn3	Zn	1.597552	-0.590791	0.312561
Zn4	Zn	2.097552	-0.090791	0.812561
Zn5	Zn	1.422899	-0.416065	0.312572
Zn6	Zn	1.922899	0.083935	0.812572
Zn7	Zn	1.422879	-0.590729	0.443789
Zn8	Zn	1.922879	-0.090729	0.943789
O9	O	1.510246	-0.503403	0.378185
O10	O	2.010246	-0.003403	0.878185
O11	O	1.743875	-0.439222	0.426415
O12	O	2.243875	0.060778	0.926415
O13	O	1.574350	-0.567655	0.202716
O14	O	2.074350	-0.067655	0.702716
O15	O	1.446131	-0.269824	0.329998
O16	O	1.946131	0.230176	0.829998
O17	O	1.743801	-0.567619	0.329981
O18	O	2.243801	-0.067619	0.829981
O19	O	1.574522	-0.269797	0.426425
O20	O	2.074522	0.230203	0.926425
O21	O	1.446033	-0.439284	0.202723
O22	O	1.946033	0.060716	0.702723
O23	O	1.276660	-0.439224	0.329970
O24	O	1.776660	0.060776	0.829970
O25	O	1.446097	-0.567513	0.553640
O26	O	1.946097	-0.067513	1.053640
O27	O	1.276646	-0.567548	0.426375
O28	O	1.776646	-0.067548	0.926375
O29	O	1.574502	-0.439162	0.553662
O30	O	2.074502	0.060838	1.053662
O31	O	1.574330	-0.737019	0.329952
O32	O	2.074330	-0.237019	0.829952
O33	O	1.445999	-0.736973	0.426365
O34	O	1.945999	-0.236973	0.926365
C35	C	1.238736	-0.503384	0.378171
C36	C	1.738736	-0.003384	0.878171
C37	C	1.122583	-0.503401	0.378184
C38	C	1.622583	-0.003401	0.878184
C39	C	1.070777	-0.439818	0.330564
C40	C	1.570777	0.060182	0.830564
C41	C	0.950727	-0.439834	0.330576
C42	C	1.450727	0.060166	0.830576
C43	C	1.510180	-0.774913	0.378171
C44	C	2.010180	-0.274913	0.878171
C45	C	1.510248	-0.891066	0.378192
C46	C	2.010248	-0.391066	0.878192
C47	C	1.573826	-0.942839	0.330537
C48	C	2.073826	-0.442839	0.830537
C49	C	1.573897	-1.062889	0.330556
C50	C	2.073897	-0.562889	0.830556
C51	C	1.782816	-0.503423	0.378200
C52	C	2.282816	-0.003423	0.878200
C53	C	1.898969	-0.503432	0.378206
C54	C	2.398969	-0.003432	0.878206
C55	C	1.510309	-0.503326	0.582930
C56	C	2.010309	-0.003326	1.082930
C57	C	1.510336	-0.503294	0.670179
C58	C	2.010336	-0.003294	1.170179
C59	C	1.510340	-0.230833	0.378216
C60	C	2.010340	0.269167	0.878216
C61	C	1.510380	-0.114680	0.378230
C62	C	2.010380	0.385320	0.878230
C63	C	1.510243	-0.503405	0.174237
C64	C	2.010243	-0.003405	0.674237
C65	C	1.510418	-0.503143	0.086988
C66	C	2.010418	-0.003143	0.586988
C67	C	1.577199	-0.436455	0.711182
C68	C	2.077199	0.063545	1.211182
C69	C	1.577211	-0.436421	0.793163
C70	C	2.077211	0.063579	1.293163
C71	C	1.510365	-0.503230	0.834139
C72	C	2.010365	-0.003230	1.334139
C73	C	1.443495	-0.570071	0.793131
C74	C	1.943495	-0.070071	1.293131
C75	C	1.443478	-0.570100	0.711152
C76	C	1.943478	-0.070100	1.211152
C77	C	1.443537	-0.570008	0.964001
C78	C	1.943537	-0.070008	1.464001
C79	C	1.443555	-0.569981	1.045985
C80	C	1.943555	-0.069981	1.545985
C81	C	1.577270	-0.436329	1.046012
C82	C	2.077270	0.063671	1.546012
C83	C	1.577253	-0.436358	0.964033
C84	C	2.077253	0.063642	1.464033
C85	C	1.510384	-0.503201	0.923030
C86	C	2.010384	-0.003201	1.423030
H87	H	1.078058	-0.557852	0.418959
H88	H	1.578058	-0.057852	0.918959
H89	H	1.455941	-1.070164	0.419028
H90	H	1.955941	-0.570164	0.919028
H91	H	0.943513	-0.557866	0.418981
H92	H	1.443513	-0.057866	0.918981
H93	H	1.628325	-1.107413	0.289755
H94	H	2.128325	-0.607413	0.789755
H95	H	1.631716	-0.381901	1.079400
H96	H	2.131716	0.118099	1.579400
H97	H	1.628209	-0.898289	0.289725
H98	H	2.128209	-0.398289	0.789725
H99	H	1.389121	-0.624381	1.079346
H100	H	1.889121	-0.124381	1.579346
H101	H	1.455874	-0.935618	0.419009
H102	H	1.955874	-0.435618	0.919009
H103	H	1.631636	-0.382054	0.677825
H104	H	2.131636	0.117946	1.177825
H105	H	1.115302	-0.385374	0.289783
H106	H	1.615302	0.114626	0.789783
H107	H	1.631660	-0.381997	0.826543
H108	H	2.131660	0.118003	1.326543
H109	H	1.631691	-0.381961	0.930672
H110	H	2.131691	0.118039	1.430672
H111	H	1.389069	-0.624422	0.930619
H112	H	1.889069	-0.124422	1.430619
H113	H	0.906176	-0.385393	0.289810
H114	H	1.406176	0.114607	0.789810
H115	H	1.389064	-0.624465	0.826500
H116	H	1.889064	-0.124465	1.326500
H117	H	1.389021	-0.624516	0.677768
H118	H	1.889021	-0.124516	1.177768
