data_functionalizedCrystal
_audit_creation_method	'MofGen! by Chris Wilmer'
_symmetry_space_group_name_H-M	'P1'
_symmetry_Int_Tables_number	1
_symmetry_cell_setting	triclinic
loop_
_symmetry_equiv_pos_as_xyz
  x,y,z
_cell_length_a	11.169417
_cell_length_b	16.120484
_cell_length_c	11.169409
_cell_angle_alpha	92.860730
_cell_angle_beta	89.980176
_cell_angle_gamma	92.926269
loop_
_atom_site_label
_atom_site_type_symbol
_atom_site_fract_x
_atom_site_fract_y
_atom_site_fract_z
Zn1	Zn	1.810616	-0.331818	-0.702705
Zn2	Zn	2.310616	0.168182	-0.202705
Zn3	Zn	1.800274	-0.471261	-0.512176
Zn4	Zn	2.300274	0.028739	-0.012176
Zn5	Zn	1.609898	-0.331869	-0.502043
Zn6	Zn	2.109898	0.168131	-0.002043
Zn7	Zn	1.599683	-0.471193	-0.712816
Zn8	Zn	2.099683	0.028807	-0.212816
O9	O	1.705118	-0.401535	-0.607435
O10	O	2.205118	0.098465	-0.107435
O11	O	1.977193	-0.350323	-0.677440
O12	O	2.477193	0.149677	-0.177440
O13	O	1.774967	-0.452820	-0.342886
O14	O	2.274967	0.047180	0.157114
O15	O	1.645127	-0.215197	-0.520189
O16	O	2.145127	0.284803	-0.020189
O17	O	1.969595	-0.452771	-0.537459
O18	O	2.469595	0.047229	-0.037459
O19	O	1.792593	-0.215160	-0.667615
O20	O	2.292593	0.284840	-0.167615
O21	O	1.635099	-0.350409	-0.335441
O22	O	2.135099	0.149591	0.164559
O23	O	1.440594	-0.350344	-0.529994
O24	O	1.940594	0.149656	-0.029994
O25	O	1.627717	-0.452655	-0.879421
O26	O	2.127717	0.047345	-0.379421
O27	O	1.433089	-0.452705	-0.684847
O28	O	1.933089	0.047295	-0.184847
O29	O	1.782688	-0.350257	-0.871993
O30	O	2.282688	0.149743	-0.371993
O31	O	1.765062	-0.587917	-0.547264
O32	O	2.265062	-0.087917	-0.047264
O33	O	1.617688	-0.587867	-0.694673
O34	O	2.117688	-0.087867	-0.194673
C35	C	1.393294	-0.401523	-0.607419
C36	C	1.893294	0.098477	-0.107419
C37	C	1.259893	-0.401537	-0.607442
C38	C	1.759893	0.098463	-0.107442
C39	C	1.689177	-0.618142	-0.623191
C40	C	2.189177	-0.118142	-0.123191
C41	C	1.682467	-0.710808	-0.629972
C42	C	2.182467	-0.210808	-0.129972
C43	C	1.670224	-0.880468	-0.642376
C44	C	2.170224	-0.380468	-0.142376
C45	C	1.740226	-0.921762	-0.572514
C46	C	2.240226	-0.421762	-0.072514
C47	C	1.733414	-1.016167	-0.579416
C48	C	2.233414	-0.516167	-0.079416
C49	C	1.677035	-0.786055	-0.635476
C50	C	2.177035	-0.286055	-0.135476
C51	C	2.018159	-0.401549	-0.607452
C52	C	2.518159	0.098451	-0.107452
C53	C	2.151558	-0.401554	-0.607460
C54	C	2.651558	0.098446	-0.107460
C55	C	1.705217	-0.401443	-0.920471
C56	C	2.205217	0.098557	-0.420471
C57	C	1.705259	-0.401403	-1.053868
C58	C	2.205259	0.098597	-0.553868
C59	C	1.721153	-0.184083	-0.591644
C60	C	2.221153	0.315917	-0.091644
C61	C	1.727987	-0.091417	-0.584915
C62	C	2.227987	0.408583	-0.084915
C63	C	1.705093	-0.401568	-0.295613
C64	C	2.205093	0.098432	0.204387
C65	C	1.705300	-0.401372	-0.162199
C66	C	2.205300	0.098628	0.337801
H67	H	1.805272	-0.886215	-0.507520
H68	H	2.305272	-0.386215	-0.007520
O69	O	1.592649	-0.922997	-0.719799
O70	O	2.092649	-0.422997	-0.219799
C71	C	1.603049	-1.009152	-0.709543
C72	C	2.103049	-0.509152	-0.209543
H73	H	1.641581	-1.020966	-0.617805
H74	H	2.141581	-0.520966	-0.117805
H75	H	1.665175	-1.033784	-0.782557
H76	H	2.165175	-0.533784	-0.282557
C77	C	1.431109	-1.039520	-0.836304
C78	C	1.931109	-0.539520	-0.336304
C79	C	1.478426	-1.054031	-0.723626
C80	C	1.978426	-0.554031	-0.223626
H81	H	1.354238	-1.067205	-0.844997
H82	H	1.854238	-0.567205	-0.344997
H83	H	1.424105	-0.981476	-0.843218
H84	H	1.924105	-0.481476	-0.343218
H85	H	1.482893	-1.060047	-0.897137
H86	H	1.982893	-0.560047	-0.397137
H87	H	1.426651	-1.033495	-0.662796
H88	H	1.926651	-0.533495	-0.162796
H89	H	1.485419	-1.112073	-0.716702
H90	H	1.985419	-0.612073	-0.216702
