data_functionalizedCrystal
_audit_creation_method	'MofGen! by Chris Wilmer'
_symmetry_space_group_name_H-M	'P1'
_symmetry_Int_Tables_number	1
_symmetry_cell_setting	triclinic
loop_
_symmetry_equiv_pos_as_xyz
  x,y,z
_cell_length_a	17.699083
_cell_length_b	17.699077
_cell_length_c	16.176319
_cell_angle_alpha	90.005422
_cell_angle_beta	90.004339
_cell_angle_gamma	83.281795
loop_
_atom_site_label
_atom_site_type_symbol
_atom_site_fract_x
_atom_site_fract_y
_atom_site_fract_z
O1	O	0.095688	1.004080	0.068737
O2	O	0.595688	1.504080	0.568737
O3	O	0.108145	0.783701	0.068741
O4	O	0.608145	1.283701	0.568741
O5	O	-0.008273	0.900117	0.068732
O6	O	0.491727	1.400117	0.568732
O7	O	0.212106	0.887665	0.068747
O8	O	0.712106	1.387665	0.568747
O9	O	-0.008273	0.900104	-0.068761
O10	O	0.491727	1.400104	0.431239
O11	O	0.108145	0.783688	-0.068752
O12	O	0.608145	1.283688	0.431248
O13	O	0.095688	1.004067	-0.068756
O14	O	0.595688	1.504067	0.431244
Cu15	Cu	0.101916	0.893876	-0.081308
Cu16	Cu	0.601916	1.393876	0.418692
Cu17	Cu	0.101917	0.893892	0.081294
Cu18	Cu	0.601917	1.393892	0.581294
O19	O	0.212106	0.887651	-0.068746
O20	O	0.712106	1.387651	0.431254
C21	C	0.107700	0.755498	-0.000005
C22	C	0.607700	1.255498	0.499995
C23	C	0.106363	0.671479	-0.000003
C24	C	0.606363	1.171479	0.499997
C25	C	0.105733	0.632004	-0.074952
C26	C	0.605733	1.132004	0.425048
C27	C	0.104464	0.553062	-0.074953
C28	C	0.604464	1.053062	0.425047
C29	C	0.103832	0.513595	-0.000004
C30	C	0.603832	1.013595	0.499996
C31	C	0.104460	0.553076	0.074950
C32	C	0.604460	1.053076	0.574950
C33	C	0.105722	0.632017	0.074950
C34	C	0.605722	1.132017	0.574950
C35	C	0.099366	0.234712	0.074951
C36	C	0.599366	0.734712	0.574951
C37	C	0.098106	0.155765	0.074945
C38	C	0.598106	0.655765	0.574945
C39	C	0.098108	0.155757	-0.074952
C40	C	0.598108	0.655757	0.425048
C41	C	0.099371	0.234699	-0.074951
C42	C	0.599371	0.734699	0.425049
C43	C	0.099995	0.274173	0.000002
C44	C	0.599995	0.774173	0.500002
C45	C	0.101369	0.359772	0.000002
C46	C	0.601369	0.859772	0.500002
C47	C	0.102464	0.427997	-0.000004
C48	C	0.602464	0.927997	0.499996
C49	C	-0.036470	0.899664	-0.000015
C50	C	0.463530	1.399664	0.499985
C51	C	-0.120488	0.898326	-0.000015
C52	C	0.379512	1.398326	0.499985
C53	C	-0.169110	0.966659	-0.000018
C54	C	0.330890	1.466659	0.499982
C55	C	-0.248054	0.965397	-0.000010
C56	C	0.251946	1.465397	0.499990
C57	C	-0.278373	0.895800	-0.000006
C58	C	0.221627	1.395800	0.499994
C59	C	-0.229744	0.827461	-0.000001
C60	C	0.270256	1.327461	0.499999
C61	C	-0.150803	0.828724	-0.000003
C62	C	0.349197	1.328724	0.499997
C63	C	-0.548107	0.822366	0.000005
C64	C	-0.048107	1.322366	0.500005
C65	C	-0.627055	0.821108	0.000004
C66	C	-0.127055	1.321108	0.500004
C67	C	-0.645358	0.959039	-0.000002
C68	C	-0.145358	1.459039	0.499998
C69	C	-0.566417	0.960302	-0.000003
C70	C	-0.066417	1.460302	0.499997
C71	C	-0.517795	0.891963	0.000006
C72	C	-0.017795	1.391963	0.500006
C73	C	-0.432196	0.893333	-0.000000
C74	C	0.067804	1.393333	0.500000
C75	C	-0.363971	0.894430	-0.000006
C76	C	0.136029	1.394430	0.499994
C77	C	0.240303	0.888104	0.000002
C78	C	0.740303	1.388104	0.500002
C79	C	0.324321	0.889443	0.000008
C80	C	0.824321	1.389443	0.500008
C81	C	0.096133	1.032271	-0.000008
C82	C	0.596133	1.532271	0.499992
C83	C	0.097470	1.116289	-0.000004
C84	C	0.597470	1.616289	0.499996
N85	N	0.101916	0.893870	-0.195673
N86	N	0.601916	1.393870	0.304327
C87	C	0.147763	0.939685	-0.238932
C88	C	0.647763	1.439685	0.261068
C89	C	0.147760	0.939693	-0.325479
C90	C	0.647760	1.439693	0.174521
C91	C	0.101913	0.893882	-0.368766
C92	C	0.601913	1.393882	0.131234
C93	C	0.056060	0.848065	-0.325502
C94	C	0.556060	1.348065	0.174498
C95	C	0.056060	0.848062	-0.238956
C96	C	0.556060	1.348062	0.261044
C97	C	0.056061	0.848079	-0.674530
C98	C	0.556061	1.348079	-0.174530
C99	C	0.056067	0.848084	-0.761081
C100	C	0.556067	1.348084	-0.261081
C101	C	0.147762	0.939711	-0.761052
C102	C	0.647762	1.439711	-0.261052
C103	C	0.147761	0.939707	-0.674507
C104	C	0.647761	1.439707	-0.174507
C105	C	0.101906	0.893894	-0.631250
C106	C	0.601906	1.393894	-0.131250
C107	C	0.101908	0.893887	-0.537406
C108	C	0.601908	1.393887	-0.037406
C109	C	0.101914	0.893884	-0.462608
C110	C	0.601914	1.393884	0.037392
N111	N	0.101911	0.893904	0.195659
N112	N	0.601911	1.393904	0.695659
H113	H	0.099890	0.266828	-0.135982
H114	H	0.599890	0.766828	0.364018
F115	F	0.097432	0.113763	0.154720
F116	F	0.597432	0.613763	0.654720
H117	H	-0.254436	0.770794	0.000007
H118	H	0.245564	1.270794	0.500007
H119	H	0.018723	0.810775	-0.639321
H120	H	0.518723	1.310775	-0.139321
F121	F	0.103763	0.511073	0.154716
F122	F	0.603763	1.011073	0.654716
H123	H	-0.111214	0.773080	-0.000001
H124	H	0.388786	1.273080	0.499999
F125	F	-0.299798	1.038127	-0.000014
F126	F	0.200202	1.538127	0.499986
H127	H	0.103939	0.520927	-0.135983
H128	H	0.603939	1.020927	0.364017
H129	H	0.185098	0.977016	-0.796282
H130	H	0.685098	1.477016	-0.296282
H131	H	-0.651737	0.764431	0.000006
H132	H	-0.151737	1.264431	0.500006
F133	F	0.196559	0.988455	-0.371514
F134	F	0.696559	1.488455	0.128486
H135	H	0.106254	0.664132	-0.135984
H136	H	0.606254	1.164132	0.364016
H137	H	0.106237	0.664157	0.135981
H138	H	0.606237	1.164157	0.635981
F139	F	0.196563	0.988443	-0.192870
F140	F	0.696563	1.488443	0.307130
H141	H	0.018727	0.810768	-0.360753
H142	H	0.518727	1.310768	0.139247
F143	F	-0.496370	0.749634	0.000017
F144	F	0.003630	1.249634	0.500017
H145	H	0.099872	0.266843	0.135983
H146	H	0.599872	0.766843	0.635983
H147	H	0.185098	0.977009	-0.639267
H148	H	0.685098	1.477009	-0.139267
H149	H	-0.541735	1.016974	-0.000011
H150	H	-0.041735	1.516974	0.499989
F151	F	0.007267	0.799324	-0.807149
F152	F	0.507267	1.299324	-0.307149
F153	F	0.007256	0.799305	-0.192918
F154	F	0.507256	1.299305	0.307082
H155	H	-0.144431	1.023333	-0.000026
H156	H	0.355569	1.523333	0.499974
H157	H	0.097597	0.123608	-0.135983
H158	H	0.597597	0.623608	0.364017
H159	H	-0.684956	1.014683	-0.000005
H160	H	-0.184956	1.514683	0.499995
