data_functionalizedCrystal
_audit_creation_method	'MofGen! by Chris Wilmer'
_symmetry_space_group_name_H-M	'P1'
_symmetry_Int_Tables_number	1
_symmetry_cell_setting	triclinic
loop_
_symmetry_equiv_pos_as_xyz
  x,y,z
_cell_length_a	19.805407
_cell_length_b	18.101397
_cell_length_c	19.805399
_cell_angle_alpha	89.970675
_cell_angle_beta	89.980427
_cell_angle_gamma	90.020466
loop_
_atom_site_label
_atom_site_type_symbol
_atom_site_fract_x
_atom_site_fract_y
_atom_site_fract_z
Zn1	Zn	1.034764	-0.294847	-0.382711
Zn2	Zn	1.034690	-0.418690	-0.269520
Zn3	Zn	0.921578	-0.294867	-0.269536
Zn4	Zn	0.921554	-0.418651	-0.382667
O5	O	0.978146	-0.356764	-0.326108
O6	O	1.129470	-0.311283	-0.367708
O7	O	1.019665	-0.402290	-0.174805
O8	O	0.936634	-0.191232	-0.284575
O9	O	1.129417	-0.402270	-0.284547
O10	O	1.019790	-0.191217	-0.367724
O11	O	0.936562	-0.311318	-0.174817
O12	O	0.826858	-0.311279	-0.284531
O13	O	0.936591	-0.402203	-0.477389
O14	O	0.826840	-0.402223	-0.367648
O15	O	1.019766	-0.311245	-0.477422
O16	O	1.019641	-0.522318	-0.284503
O17	O	0.936520	-0.522289	-0.367632
C18	C	0.802290	-0.356750	-0.326087
C19	C	0.727058	-0.356761	-0.326093
C20	C	0.691722	-0.404187	-0.369302
C21	C	0.621034	-0.404188	-0.369311
C22	C	0.585683	-0.356767	-0.326108
C23	C	0.621024	-0.309336	-0.282898
C24	C	0.691711	-0.309332	-0.282892
C25	C	0.335950	-0.309353	-0.282920
C26	C	0.265258	-0.309362	-0.282928
C27	C	0.265274	-0.404209	-0.369339
C28	C	0.335961	-0.404205	-0.369334
C29	C	0.371295	-0.356771	-0.326126
C30	C	0.447944	-0.356770	-0.326117
C31	C	0.509036	-0.356772	-0.326113
C32	C	0.978088	-0.549174	-0.326076
C33	C	0.978126	-0.631488	-0.326084
C34	C	0.978212	-0.930579	-0.326146
C35	C	1.030364	-0.899242	-0.273704
C36	C	1.030544	-0.813623	-0.273840
C37	C	0.978169	-0.782197	-0.326115
C38	C	0.997504	-0.813206	-0.397460
C39	C	0.997908	-0.898851	-0.397174
C40	C	0.906586	-0.899088	-0.307861
C41	C	0.906940	-0.813438	-0.306268
C42	C	0.978144	-0.698337	-0.326101
C43	C	0.978239	-1.014439	-0.326164
C44	C	1.154689	-0.356779	-0.326131
C45	C	1.229921	-0.356785	-0.326140
C46	C	0.978184	-0.356717	-0.502651
C47	C	0.978201	-0.356697	-0.577883
C48	C	0.978223	-0.163602	-0.326156
C49	C	0.978256	-0.081288	-0.326177
C50	C	1.021511	-0.309333	-0.613246
C51	C	1.021518	-0.309311	-0.683934
C52	C	0.978217	-0.356659	-0.719259
C53	C	0.934902	-0.404025	-0.683892
C54	C	0.934893	-0.404042	-0.613204
C55	C	0.934941	-0.403956	-0.968965
C56	C	0.934955	-0.403937	-1.039657
C57	C	1.021566	-0.309225	-1.039695
C58	C	1.021556	-0.309242	-0.969008
C59	C	0.978239	-0.356606	-0.933646
C60	C	0.978231	-0.356627	-0.856998
C61	C	0.978228	-0.356641	-0.795906
C62	C	0.978148	-0.356757	-0.150252
C63	C	0.978263	-0.356568	-0.075021
H64	H	1.018413	-0.919883	-0.220644
C65	C	1.069143	-0.257250	-0.574391
C66	C	1.039831	-0.199118	-0.525804
C67	C	1.087462	-0.147032	-0.486951
C68	C	1.164406	-0.153076	-0.496687
C69	C	1.193723	-0.211210	-0.545277
C70	C	1.146091	-0.263297	-0.584129
H71	H	0.982868	-0.194641	-0.518595
H72	H	1.065760	-0.103997	-0.450982
H73	H	1.199666	-0.114519	-0.467926
H74	H	1.250685	-0.215687	-0.552485
H75	H	1.167793	-0.306331	-0.620098
C76	C	0.948830	-0.926865	-0.451763
C77	C	0.873489	-0.906218	-0.448258
C78	C	0.824418	-0.934230	-0.502850
C79	C	0.850688	-0.982889	-0.560946
C80	C	0.926032	-1.003539	-0.564453
C81	C	0.975104	-0.975526	-0.509862
H82	H	0.854039	-0.870195	-0.405250
H83	H	0.768643	-0.918944	-0.500254
H84	H	0.814362	-1.003626	-0.601358
H85	H	0.945482	-1.039561	-0.607462
H86	H	1.030879	-0.990813	-0.512458
C87	C	1.101650	-0.928237	-0.289861
C88	C	1.115623	-1.011919	-0.289699
C89	C	1.186908	-1.040916	-0.305860
C90	C	1.244220	-0.986231	-0.322183
C91	C	1.230248	-0.902544	-0.322345
C92	C	1.158963	-0.873547	-0.306185
H93	H	1.073196	-1.052404	-0.277615
H94	H	1.197250	-1.102867	-0.305739
H95	H	1.296989	-1.007697	-0.334146
H96	H	1.272675	-0.862058	-0.334429
H97	H	1.148621	-0.811596	-0.306305
H98	H	0.236496	-0.442829	-0.404524
H99	H	1.056834	-0.270657	-1.068494
C100	C	0.887316	-0.456016	-1.078516
C101	C	0.839665	-0.508111	-1.039622
C102	C	0.792030	-0.560187	-1.078482
C103	C	0.792045	-0.560168	-1.156235
C104	C	0.839698	-0.508071	-1.195133
C105	C	0.887333	-0.455995	-1.156274
H106	H	0.839653	-0.508127	-0.982061
H107	H	0.756754	-0.598753	-1.049686
H108	H	0.756782	-0.598718	-1.185001
H109	H	0.839710	-0.508055	-1.252695
H110	H	0.922609	-0.417430	-1.185069
C111	C	0.374846	-0.456368	-0.416859
C112	C	0.423413	-0.514466	-0.387431
C113	C	0.462296	-0.566629	-0.434959
C114	C	0.452612	-0.560694	-0.511915
C115	C	0.404043	-0.502593	-0.541347
C116	C	0.365160	-0.450431	-0.493819
H117	H	0.430583	-0.518862	-0.330460
H118	H	0.498250	-0.609639	-0.413171
H119	H	0.481396	-0.599308	-0.547098
H120	H	0.396872	-0.498197	-0.598318
H121	H	0.329205	-0.407421	-0.515607
C122	C	0.730585	-0.257163	-0.235363
C123	C	0.720889	-0.172984	-0.241031
C124	C	0.759762	-0.120809	-0.193504
C125	C	0.808332	-0.152815	-0.140310
C126	C	0.818030	-0.236999	-0.134639
C127	C	0.779156	-0.289173	-0.182166
H128	H	0.684933	-0.149287	-0.280411
H129	H	0.752583	-0.058491	-0.197702
H130	H	0.837109	-0.114193	-0.105127
H131	H	0.853986	-0.260695	-0.095259
H132	H	0.786336	-0.351491	-0.177968
H133	H	0.899618	-0.442604	-0.584413
H134	H	0.899679	-0.442533	-0.940182
C135	C	0.730606	-0.456352	-0.416827
C136	C	0.720859	-0.540533	-0.411167
C137	C	0.759741	-0.592697	-0.458695
C138	C	0.808369	-0.560680	-0.511883
C139	C	0.818118	-0.476495	-0.517545
C140	C	0.779236	-0.424330	-0.470017
H141	H	0.684860	-0.564238	-0.371792
H142	H	0.752524	-0.655017	-0.454503
H143	H	0.837151	-0.599296	-0.547066
H144	H	0.854117	-0.452790	-0.556920
H145	H	0.786453	-0.362011	-0.474209
C146	C	0.947764	-0.785703	-0.451670
C147	C	0.906131	-0.841609	-0.492895
C148	C	0.856389	-0.814104	-0.547105
C149	C	0.848282	-0.730693	-0.560088
C150	C	0.889917	-0.674781	-0.518862
C151	C	0.939658	-0.702286	-0.464653
H152	H	0.912131	-0.903360	-0.483285
H153	H	0.825569	-0.855494	-0.577623
H154	H	0.811460	-0.710332	-0.600217
H155	H	0.883916	-0.613031	-0.528472
H156	H	0.970479	-0.660896	-0.434134
C157	C	1.069158	-0.257208	-0.722833
C158	C	1.116789	-0.205129	-0.683978
C159	C	1.164430	-0.153020	-0.722877
C160	C	1.164438	-0.152990	-0.800630
C161	C	1.116805	-0.205071	-0.839489
C162	C	1.069165	-0.257179	-0.800590
H163	H	1.116785	-0.205150	-0.626417
H164	H	1.199691	-0.114466	-0.694110
H165	H	1.199704	-0.114416	-0.829425
H166	H	1.116810	-0.205050	-0.897050
H167	H	1.033904	-0.295733	-0.829357
H168	H	1.018448	-0.792660	-0.220938
C169	C	1.067444	-0.784161	-0.418740
C170	C	1.125246	-0.838818	-0.433122
C171	C	1.195187	-0.809775	-0.454398
C172	C	1.207327	-0.726076	-0.461291
C173	C	1.149523	-0.671415	-0.446908
C174	C	1.079582	-0.700457	-0.425632
H175	H	1.116261	-0.900782	-0.428020
H176	H	1.237977	-0.850240	-0.465045
H177	H	1.259101	-0.704577	-0.477040
H178	H	1.158508	-0.609451	-0.452010
H179	H	1.036792	-0.659992	-0.414985
C180	C	0.887271	-0.456108	-0.722746
C181	C	0.887282	-0.456096	-0.800500
C182	C	0.839651	-0.508182	-0.839353
C183	C	0.792008	-0.560281	-0.800453
C184	C	0.791996	-0.560296	-0.722695
C185	C	0.839627	-0.508209	-0.683842
H186	H	0.922551	-0.417527	-0.829300
H187	H	0.839660	-0.508171	-0.896914
H188	H	0.756749	-0.598839	-0.829214
H189	H	0.756726	-0.598865	-0.693895
H190	H	0.839617	-0.508220	-0.626281
H191	H	0.364711	-0.270735	-0.247733
H192	H	0.236477	-0.270742	-0.247747
C193	C	0.582140	-0.257172	-0.235373
C194	C	0.504387	-0.257178	-0.235373
C195	C	0.465504	-0.205014	-0.187845
C196	C	0.504375	-0.152845	-0.140317
C197	C	0.582132	-0.152838	-0.140315
C198	C	0.621015	-0.205001	-0.187843
H199	H	0.475608	-0.295798	-0.270558
H200	H	0.407943	-0.205020	-0.187847
H201	H	0.475592	-0.114231	-0.105133
H202	H	0.610911	-0.114218	-0.105130
H203	H	0.678576	-0.204996	-0.187841
H204	H	1.083601	-0.793080	-0.285938
H205	H	1.050263	-0.918770	-0.412663
C206	C	0.882823	-0.928337	-0.238794
C207	C	0.928159	-0.981202	-0.198113
C208	C	0.904405	-1.010451	-0.129043
C209	C	0.835315	-0.986836	-0.100654
C210	C	0.789975	-0.933968	-0.141335
C211	C	0.813729	-0.904719	-0.210405
H212	H	0.979307	-0.998685	-0.219128
H213	H	0.937969	-1.049587	-0.098928
H214	H	0.817731	-1.008488	-0.049524
H215	H	0.738827	-0.916484	-0.120320
H216	H	0.780164	-0.865583	-0.240520
H217	H	0.892360	-0.793179	-0.253764
C218	C	0.854088	-0.926471	-0.359453
C219	C	0.876059	-0.977152	-0.417888
C220	C	0.823568	-1.004540	-0.469482
C221	C	0.749106	-0.981248	-0.462641
C222	C	0.727131	-0.930565	-0.404204
C223	C	0.779622	-0.903176	-0.352610
H224	H	0.931184	-0.994397	-0.422954
H225	H	0.839836	-1.042060	-0.512741
H226	H	0.710249	-1.001523	-0.500834
H227	H	0.672007	-0.913320	-0.399138
H228	H	0.763355	-0.865657	-0.309351
H229	H	0.592267	-0.442808	-0.404496
H230	H	0.865993	-0.792054	-0.341667
H231	H	1.056818	-0.270690	-0.940250
