data_functionalizedCrystal
_audit_creation_method	'MofGen! by Chris Wilmer'
_symmetry_space_group_name_H-M	'P1'
_symmetry_Int_Tables_number	1
_symmetry_cell_setting	triclinic
loop_
_symmetry_equiv_pos_as_xyz
  x,y,z
_cell_length_a	17.640280
_cell_length_b	18.101398
_cell_length_c	17.640968
_cell_angle_alpha	101.230909
_cell_angle_beta	114.317439
_cell_angle_gamma	78.794605
loop_
_atom_site_label
_atom_site_type_symbol
_atom_site_fract_x
_atom_site_fract_y
_atom_site_fract_z
Zn1	Zn	-0.233936	1.252274	0.399838
Zn2	Zn	-0.399605	1.252213	0.234199
Zn3	Zn	-0.261814	1.107606	0.262023
Zn4	Zn	-0.371695	1.149239	0.371967
O5	O	-0.316763	1.190333	0.317007
O6	O	-0.255926	1.355905	0.377885
O7	O	-0.404674	1.215582	0.122557
O8	O	-0.142797	1.109399	0.303613
O9	O	-0.377642	1.355861	0.256191
O10	O	-0.122316	1.215685	0.404865
O11	O	-0.303439	1.109340	0.142999
O12	O	-0.276376	1.009490	0.276587
O13	O	-0.330074	1.180355	0.490996
O14	O	-0.357106	1.040077	0.357363
O15	O	-0.228863	1.256055	0.511473
O16	O	-0.511221	1.255951	0.229166
O17	O	-0.490716	1.180296	0.330383
C18	C	-0.316738	0.997911	0.316970
C19	C	-0.316743	0.915598	0.316970
C20	C	-0.530866	1.222658	0.273749
C21	C	-0.622455	1.236559	0.255271
C22	C	-0.870498	1.085081	0.457684
C23	C	-0.956565	1.098140	0.440294
C24	C	-0.977830	1.176994	0.335003
C25	C	-0.891762	1.163945	0.352387
C26	C	-0.838103	1.117986	0.413727
C27	C	-0.859368	1.196851	0.308430
C28	C	-0.773308	1.183799	0.325809
C29	C	-0.719644	1.137841	0.387145
C30	C	-0.752044	1.104934	0.431106
C31	C	-0.913029	1.242804	0.247086
C32	C	-0.880635	1.275710	0.203129
C33	C	-0.794573	1.262663	0.220512
C34	C	-0.740909	1.216705	0.281848
C35	C	-0.762173	1.295569	0.176551
C36	C	-0.676114	1.282517	0.193930
C37	C	-0.654849	1.203653	0.299227
C38	C	-0.316781	0.616525	0.317029
C39	C	-0.265607	0.628580	0.266582
C40	C	-0.265833	0.714183	0.266277
C41	C	-0.316761	0.764899	0.317000
C42	C	-0.408363	0.743342	0.275743
C43	C	-0.408097	0.657576	0.275374
C44	C	-0.277077	0.657984	0.408730
C45	C	-0.275240	0.743270	0.408644
C46	C	-0.316755	0.848754	0.316984
C47	C	-0.316793	0.532670	0.317042
C48	C	-0.101820	1.157905	0.360451
C49	C	-0.010224	1.144086	0.378965
C50	C	-0.273246	1.222856	0.531975
C51	C	-0.254701	1.236715	0.623582
C52	C	-0.316788	1.383507	0.317043
C53	C	-0.316799	1.465826	0.317059
C54	C	-0.360051	1.157970	0.102886
C55	C	-0.378363	1.144220	0.011327
C56	C	-0.457194	1.085262	0.871558
C57	C	-0.439758	1.098299	0.957639
C58	C	-0.334376	1.177118	0.978949
C59	C	-0.351800	1.164085	0.892869
C60	C	-0.413210	1.118157	0.839180
C61	C	-0.307817	1.196980	0.860491
C62	C	-0.325243	1.183951	0.774418
C63	C	-0.386652	1.138027	0.720723
C64	C	-0.430636	1.105128	0.753107
C65	C	-0.246411	1.242912	0.914180
C66	C	-0.202428	1.275807	0.881802
C67	C	-0.219849	1.262774	0.795728
C68	C	-0.281259	1.216849	0.742034
C69	C	-0.175865	1.295672	0.763344
C70	C	-0.193291	1.282643	0.677271
C71	C	-0.298684	1.203820	0.655960
H72	H	-0.611156	1.166235	0.349183
H73	H	-0.157474	1.309428	0.650909
F74	F	-1.034946	1.225906	0.269723
F75	F	-0.991039	1.063105	0.487077
H76	H	-0.284378	1.214515	1.022674
F77	F	-0.522547	1.036373	0.814415
F78	F	-0.486574	1.063282	0.992095
H79	H	-0.198067	0.600453	0.294330
H80	H	-0.152430	1.313204	0.925527
F81	F	-0.301979	0.731037	0.177928
H82	H	-0.983103	1.253432	0.232940
F83	F	-0.460531	0.788475	0.321265
F84	F	-0.495990	1.056239	0.695963
H85	H	-0.924336	1.313127	0.153183
F86	F	-0.227869	1.256781	1.005787
F87	F	-0.110518	1.344559	0.820492
H88	H	-0.293023	0.599501	0.199399
F89	F	-0.819293	1.344474	0.111265
H90	H	-0.708350	1.067517	0.481062
H91	H	-0.400842	1.127423	0.650636
F92	F	-0.641636	1.317532	0.147140
F93	F	-0.364038	1.154931	0.598817
H94	H	-0.826804	1.047663	0.507640
F95	F	-0.628021	1.124105	0.405790
H96	H	-0.198457	0.727722	0.294149
F97	F	-0.449408	0.622521	0.187071
H98	H	-0.448461	0.650991	0.309563
F99	F	-0.190079	0.621739	0.453345
F100	F	-0.187022	0.760761	0.448898
F101	F	-0.318572	0.789625	0.462259
F102	F	-0.449920	0.762634	0.188253
F103	F	-0.325513	0.650061	0.458143
