data_functionalizedCrystal
_audit_creation_method	'MofGen! by Chris Wilmer'
_symmetry_space_group_name_H-M	'P1'
_symmetry_Int_Tables_number	1
_symmetry_cell_setting	triclinic
loop_
_symmetry_equiv_pos_as_xyz
  x,y,z
_cell_length_a	33.592126
_cell_length_b	33.591377
_cell_length_c	33.588093
_cell_angle_alpha	60.004089
_cell_angle_beta	60.008299
_cell_angle_gamma	59.994549
loop_
_atom_site_label
_atom_site_type_symbol
_atom_site_fract_x
_atom_site_fract_y
_atom_site_fract_z
O1	O	0.055297	-0.581666	0.486338
O2	O	0.020882	-0.452873	0.391864
O3	O	0.102445	-0.534352	0.391775
O4	O	-0.026266	-0.500187	0.486427
O5	O	0.129510	-0.507292	0.418747
O6	O	0.047947	-0.425814	0.418835
O7	O	0.082362	-0.554606	0.513309
Cu8	Cu	0.067626	-0.487739	0.468535
Cu9	Cu	0.035618	-0.519740	0.436638
O10	O	0.000799	-0.473128	0.513398
N11	N	0.090139	-0.465235	0.490972
N12	N	0.013110	-0.542249	0.414202
C13	C	0.124394	-0.431229	0.734914
C14	C	0.334265	-0.431145	0.524799
C15	C	0.124204	-0.431200	0.524965
C16	C	0.124184	-0.221175	0.524955
C17	C	0.158017	-0.322536	0.558710
C18	C	0.158027	-0.397406	0.558711
C19	C	0.176763	-0.378688	0.577408
C20	C	0.258412	-0.364594	0.534386
C21	C	0.309454	-0.381596	0.517340
C22	C	0.309485	-0.464188	0.548836
C23	C	0.258444	-0.447186	0.565883
C24	C	0.170304	-0.297002	0.508532
C25	C	0.153260	-0.245956	0.491537
C26	C	0.111648	-0.245983	0.574901
C27	C	0.128691	-0.297029	0.591896
C28	C	0.107841	-0.385091	0.571080
C29	C	0.090813	-0.402108	0.554078
C30	C	0.174153	-0.443755	0.512351
C31	C	0.191183	-0.426739	0.529347
C32	C	0.107923	-0.385106	0.659111
C33	C	0.090955	-0.402138	0.710156
C34	C	0.174335	-0.443795	0.710087
C35	C	0.191302	-0.426764	0.659041
C36	C	0.158095	-0.397418	0.633555
C37	C	0.232909	-0.397388	0.558656
C38	C	0.105069	-0.449619	0.791057
C39	C	0.390406	-0.449193	0.505789
C40	C	0.104813	-0.449599	0.506607
C41	C	0.105125	-0.165028	0.506915
C42	C	-0.020560	-0.576246	0.169890
C43	C	-0.020889	-0.786183	0.379970
C44	C	-0.020859	-0.576235	0.380063
C45	C	-0.230772	-0.576015	0.379658
C46	C	-0.129417	-0.609898	0.346025
C47	C	-0.054587	-0.609979	0.346172
C48	C	-0.073269	-0.628671	0.327396
C49	C	-0.087401	-0.710299	0.370335
C50	C	-0.070424	-0.761345	0.387369
C51	C	0.012165	-0.761428	0.356003
C52	C	-0.004813	-0.710383	0.338967
C53	C	-0.155001	-0.622196	0.396191
C54	C	-0.206043	-0.605128	0.413125
C55	C	-0.205914	-0.563467	0.329724
C56	C	-0.154872	-0.580535	0.312790
C57	C	-0.066886	-0.559797	0.333828
C58	C	-0.049903	-0.542809	0.350903
C59	C	-0.008321	-0.626180	0.392654
C60	C	-0.025304	-0.643170	0.375585
C61	C	-0.066758	-0.559805	0.245702
C62	C	-0.049671	-0.542819	0.194658
C63	C	-0.008026	-0.626194	0.194706
C64	C	-0.025111	-0.643179	0.245752
C65	C	-0.054479	-0.609983	0.271248
C66	C	-0.054597	-0.684821	0.346135
C67	C	-0.002109	-0.556901	0.113746
C68	C	-0.002869	-0.842328	0.398966
C69	C	-0.002496	-0.556887	0.398501
C70	C	-0.286914	-0.556929	0.397631
N71	N	0.436349	-0.465146	0.490703
O72	O	0.592194	-0.469605	0.374236
O73	O	0.592389	-0.564393	0.502890
O74	O	0.592305	-0.564176	0.421300
O75	O	0.592277	-0.469822	0.455826
O76	O	0.511216	-0.537214	0.448415
O77	O	0.511300	-0.537431	0.530004
O78	O	0.511104	-0.442643	0.401350
Cu79	Cu	0.503798	-0.487575	0.468153
Cu80	Cu	0.599695	-0.519461	0.436087
O81	O	0.511188	-0.442860	0.482940
N82	N	0.667145	-0.541890	0.413532
N83	N	0.090108	-0.119085	0.490958
O84	O	-0.026275	0.036848	0.486394
O85	O	0.102381	0.036888	0.391584
O86	O	0.020751	0.036852	0.391854
O87	O	0.055356	0.036884	0.486124
O88	O	0.047821	-0.044242	0.418876
O89	O	0.129452	-0.044207	0.418606
O90	O	0.000796	-0.044246	0.513417
Cu91	Cu	0.067596	-0.051631	0.468479
Cu92	Cu	0.035582	0.044273	0.436522
O93	O	0.082426	-0.044211	0.513146
N94	N	0.013063	0.111726	0.414043
N95	N	0.090453	-0.465282	0.837001
O96	O	0.085913	-0.581648	0.992925
O97	O	-0.008857	-0.452947	0.992970
O98	O	-0.008635	-0.534562	0.992946
O99	O	0.085691	-0.500033	0.992949
O100	O	0.018365	-0.507512	0.911855
O101	O	0.018143	-0.425898	0.911878
O102	O	0.112912	-0.554598	0.911834
Cu103	Cu	0.067993	-0.487778	0.904452
Cu104	Cu	0.036063	-0.519767	1.000352
O105	O	0.112691	-0.472984	0.911857
N106	N	0.013602	-0.542269	1.067803
C107	C	0.031188	-0.423114	0.392334
C108	C	0.132194	-0.524016	0.392223
C109	C	0.072056	-0.584366	0.512840
C110	C	-0.028950	-0.483464	0.512950
C111	C	0.551868	-0.563965	0.532655
C112	C	0.551766	-0.563697	0.431617
C113	C	0.551623	-0.443070	0.371586
C114	C	0.551728	-0.443339	0.472623
C115	C	0.132090	-0.003555	0.392006
C116	C	0.031035	-0.003698	0.392374
C117	C	-0.028947	-0.003703	0.512961
C118	C	0.072143	-0.003661	0.512626
C119	C	-0.008408	-0.423209	0.952430
C120	C	-0.008128	-0.524272	0.952385
C121	C	0.112464	-0.584336	0.952374
C122	C	0.112190	-0.483267	0.952401
H123	H	0.050098	-0.392105	0.730957
O124	O	0.080819	-0.628539	0.548197
C125	C	0.102238	-0.715292	0.571565
C126	C	0.092315	-0.665296	0.531486
H127	H	0.111545	-0.745025	0.558065
H128	H	0.068408	-0.715499	0.605605
H129	H	0.134142	-0.722367	0.580685
H130	H	0.060426	-0.658190	0.522324
H131	H	0.126170	-0.665114	0.497471
O132	O	-0.073070	-0.474695	0.548364
C133	C	-0.153373	-0.416944	0.570919
C134	C	-0.103427	-0.426807	0.530773
H135	H	-0.177934	-0.378231	0.556709
H136	H	-0.148283	-0.421307	0.604163
H137	H	-0.170890	-0.444012	0.581598
H138	H	-0.085883	-0.399747	0.520053
H139	H	-0.108549	-0.422461	0.497556
H140	H	0.551560	-0.413310	0.334638
O141	O	0.551954	-0.599421	0.576755
C142	C	0.552013	-0.622082	0.657065
C143	C	0.551928	-0.581889	0.607141
H144	H	0.551982	-0.607919	0.681650
H145	H	0.585977	-0.655320	0.651940
H146	H	0.518105	-0.632754	0.674577
H147	H	0.585812	-0.571176	0.589602
H148	H	0.517941	-0.548678	0.612298
O149	O	0.176291	-0.532776	0.356779
C150	C	0.234975	-0.582068	0.305311
C151	C	0.185031	-0.572207	0.345461
H152	H	0.242052	-0.613940	0.296140
H153	H	0.264769	-0.591354	0.318718
H154	H	0.235062	-0.548180	0.271324
H155	H	0.184896	-0.606077	0.379461
H156	H	0.155258	-0.562899	0.332014
O157	O	0.080893	-0.003632	0.548009
C158	C	0.049060	-0.003667	0.630168
C159	C	0.039082	-0.003688	0.590137
H160	H	0.015266	-0.003722	0.664242
H161	H	0.058310	0.030287	0.616677
H162	H	0.081011	-0.037589	0.639230
H163	H	0.007125	0.030211	0.581058
H164	H	0.029860	-0.037664	0.603649
H165	H	0.168963	-0.003318	0.362168
O166	O	0.551757	-0.598999	0.422734
C167	C	0.551740	-0.621315	0.364812
C168	C	0.551739	-0.581289	0.374810
H169	H	0.551736	-0.607015	0.326063
H170	H	0.517826	-0.632002	0.391801
H171	H	0.585698	-0.654578	0.369164
H172	H	0.517804	-0.548000	0.370453
H173	H	0.585675	-0.570643	0.347824
O174	O	0.551695	-0.408023	0.481520
C175	C	0.551774	-0.385728	0.539421
C176	C	0.551801	-0.425763	0.529414
H177	H	0.551870	-0.400059	0.578139
H178	H	0.517800	-0.352466	0.535133
H179	H	0.585672	-0.375030	0.512380
H180	H	0.517926	-0.436502	0.556446
H181	H	0.585797	-0.458999	0.533686
O182	O	0.022128	-0.003743	0.357105
C183	C	-0.035828	-0.003775	0.334852
C184	C	-0.025806	-0.003725	0.374838
H185	H	-0.074585	-0.003749	0.349171
H186	H	-0.008860	-0.037724	0.324205
H187	H	-0.031466	0.030152	0.301560
H188	H	-0.030175	-0.037629	0.408155
H189	H	-0.052772	0.030247	0.385443
O190	O	-0.073061	-0.003686	0.548408
C191	C	-0.153381	-0.003727	0.571123
C192	C	-0.103446	-0.003741	0.530936
H193	H	-0.177957	-0.003782	0.557016
H194	H	-0.170916	0.030224	0.581744
H195	H	-0.148222	-0.037652	0.604380
H196	H	-0.108562	0.030161	0.497653
H197	H	-0.085928	-0.037715	0.520357
H198	H	-0.038161	-0.386246	0.952443
O199	O	-0.043450	-0.533148	0.952408
C200	C	-0.094726	-0.582599	0.994365
C201	C	-0.054714	-0.572608	0.994394
H202	H	-0.103852	-0.614497	1.028312
H203	H	-0.081206	-0.591907	0.960434
H204	H	-0.128768	-0.548762	0.994342
H205	H	-0.020659	-0.606429	0.994435
H206	H	-0.068274	-0.563280	1.028322
O207	O	0.147559	-0.474403	0.952307
C208	C	0.198785	-0.424895	0.910309
C209	C	0.158737	-0.434888	0.910348
H210	H	0.207828	-0.392941	0.876394
H211	H	0.232870	-0.458690	0.910263
H212	H	0.185279	-0.415635	0.944266
H213	H	0.172198	-0.444135	0.876398
H214	H	0.124661	-0.401085	0.910420
O215	O	0.075597	-0.356622	0.634430
C216	C	-0.008896	-0.317075	0.639886
C217	C	0.027656	-0.349343	0.667898
H218	H	-0.047664	-0.311171	0.666933
H219	H	-0.003072	-0.335767	0.616006
H220	H	-0.003008	-0.280365	0.615975
H221	H	0.021791	-0.386059	0.691835
H222	H	0.021823	-0.330613	0.691747
O223	O	0.206660	-0.472305	0.734765
C224	C	0.291154	-0.511788	0.729302
C225	C	0.254599	-0.479506	0.701294
H226	H	0.329921	-0.517612	0.702253
H227	H	0.285341	-0.548534	0.753186
H228	H	0.285260	-0.493087	0.753210
H229	H	0.260472	-0.498164	0.677360
H230	H	0.260422	-0.442762	0.677441
O231	O	0.147901	-0.628464	0.952377
C232	C	0.170586	-0.708776	0.952316
C233	C	0.130406	-0.658828	0.952325
H234	H	0.156460	-0.733335	0.952263
H235	H	0.181231	-0.726326	0.986256
H236	H	0.203831	-0.703628	0.918383
H237	H	0.097136	-0.663933	0.986235
H238	H	0.119803	-0.641294	0.918362
H239	H	0.232159	-0.436796	0.638236
O240	O	0.042059	-0.390209	0.566175
C241	C	-0.034349	-0.394119	0.630935
C242	C	0.020858	-0.407634	0.617303
H243	H	-0.051508	-0.408193	0.672272
H244	H	-0.040850	-0.411337	0.613777
H245	H	-0.051568	-0.352788	0.616844
H246	H	0.038114	-0.448958	0.631391
H247	H	0.027324	-0.390382	0.634454
O248	O	0.206429	-0.472228	0.483817
C249	C	0.290892	-0.511768	0.444252
C250	C	0.254392	-0.479510	0.476561
H251	H	0.329678	-0.517673	0.438384
H252	H	0.285013	-0.493066	0.407529
H253	H	0.285000	-0.548478	0.462953
H254	H	0.260261	-0.442794	0.457903
H255	H	0.260279	-0.498250	0.513283
H256	H	0.080840	-0.361208	0.594989
H257	H	-0.015291	-0.684031	0.385637
O258	O	0.233744	-0.479106	0.589429
C259	C	0.239164	-0.562825	0.618891
C260	C	0.267196	-0.526727	0.592207
H261	H	0.266197	-0.601336	0.621155
H262	H	0.215255	-0.552619	0.598045
H263	H	0.215282	-0.561245	0.657264
H264	H	0.291104	-0.528288	0.553834
H265	H	0.291075	-0.536945	0.613091
H266	H	-0.127938	-0.689491	0.376175
H267	H	0.330277	-0.504737	0.554712
O268	O	0.334206	-0.349709	0.493690
C269	C	0.349740	-0.278925	0.424906
C270	C	0.321687	-0.315011	0.451635
H271	H	0.339621	-0.250857	0.390905
H272	H	0.390614	-0.299601	0.413924
H273	H	0.339728	-0.259583	0.450124
H274	H	0.331659	-0.334363	0.426444
H275	H	0.280820	-0.294308	0.462625
O276	O	0.233556	-0.316241	0.527452
C277	C	0.175968	-0.254484	0.565079
C278	C	0.204079	-0.309259	0.573001
H279	H	0.152137	-0.248820	0.601899
H280	H	0.152011	-0.240098	0.542685
H281	H	0.202976	-0.233975	0.544782
H282	H	0.177106	-0.329807	0.593310
H283	H	0.228043	-0.323607	0.595375
H284	H	0.232048	-0.436761	0.519270
O285	O	0.020548	-0.658393	0.169888
C286	C	0.098298	-0.687668	0.112377
C287	C	0.065985	-0.651168	0.140445
H288	H	0.135045	-0.681846	0.088574
H289	H	0.079671	-0.681763	0.088396
H290	H	0.104109	-0.726445	0.139414
H291	H	0.060163	-0.612376	0.113444
H292	H	0.084627	-0.657115	0.164435
O293	O	0.022506	-0.378999	0.356884
C294	C	0.054454	-0.328869	0.274686
C295	C	0.064355	-0.378847	0.314793
H296	H	0.088279	-0.328733	0.240642
H297	H	0.045215	-0.299108	0.288114
H298	H	0.022518	-0.321776	0.265602
H299	H	0.096296	-0.385986	0.323895
H300	H	0.073565	-0.408580	0.301344
H301	H	0.163263	-0.225165	0.450676
O302	O	0.198716	-0.321760	0.476281
C303	C	0.205188	-0.337346	0.410242
C304	C	0.172956	-0.309286	0.446750
H305	H	0.184378	-0.327264	0.386350
H306	H	0.215249	-0.378221	0.430985
H307	H	0.239817	-0.327300	0.386342
H308	H	0.138307	-0.319291	0.470660
H309	H	0.162934	-0.268417	0.425977
O310	O	0.083230	-0.221177	0.607113
C311	C	0.074126	-0.163513	0.636245
C312	C	0.106367	-0.191585	0.599748
H313	H	0.092815	-0.139573	0.630297
H314	H	0.068283	-0.190506	0.675043
H315	H	0.037390	-0.139652	0.630393
H316	H	0.143121	-0.215447	0.605555
H317	H	0.112169	-0.164565	0.560963
O318	O	0.116730	-0.321761	0.640658
C319	C	0.073631	-0.316404	0.721552
C320	C	0.087151	-0.288335	0.666344
H321	H	0.049707	-0.289392	0.742335
H322	H	0.108270	-0.340281	0.731600
H323	H	0.052879	-0.340325	0.731591
H324	H	0.107891	-0.264388	0.656265
H325	H	0.052495	-0.264489	0.656325
H326	H	-0.097137	-0.782089	0.407066
O327	O	-0.061671	-0.494056	0.169923
C328	C	-0.104767	-0.413154	0.175268
C329	C	-0.091224	-0.468363	0.203342
H330	H	-0.128654	-0.392365	0.202275
H331	H	-0.125532	-0.403064	0.151331
H332	H	-0.070106	-0.403161	0.151409
H333	H	-0.125860	-0.478395	0.227228
H334	H	-0.070439	-0.478422	0.227249
H335	H	-0.090673	-0.532769	0.266460
O336	O	0.027118	-0.685707	0.315488
C337	C	0.110831	-0.691178	0.286150
C338	C	0.074721	-0.719183	0.312759
H339	H	0.149327	-0.718232	0.283926
H340	H	0.100601	-0.667289	0.307027
H341	H	0.109298	-0.667276	0.247763
H342	H	0.076235	-0.743113	0.351146
H343	H	0.084963	-0.743042	0.291845
O344	O	-0.013241	-0.691929	0.270545
C345	C	-0.017139	-0.768353	0.286114
C346	C	-0.030622	-0.713150	0.258015
H347	H	-0.031177	-0.785528	0.275986
H348	H	-0.034408	-0.774821	0.326981
H349	H	0.024185	-0.785585	0.276150
H350	H	-0.071940	-0.695882	0.267938
H351	H	-0.013320	-0.706717	0.217155
O352	O	-0.095346	-0.527489	0.305282
C353	C	-0.134776	-0.443002	0.265650
C354	C	-0.102552	-0.479538	0.297993
H355	H	-0.140604	-0.404225	0.259738
H356	H	-0.171521	-0.448806	0.284285
H357	H	-0.116028	-0.448931	0.228951
H358	H	-0.121257	-0.473630	0.334698
H359	H	-0.065808	-0.473724	0.279320
H360	H	-0.059919	-0.501948	0.340854
H361	H	0.015526	-0.653210	0.416597
H362	H	0.052703	-0.782242	0.350169
H363	H	-0.226875	-0.615140	0.453976
O364	O	-0.130349	-0.650695	0.428539
C365	C	-0.135866	-0.690235	0.513051
C366	C	-0.163844	-0.657946	0.476468
H367	H	-0.162934	-0.696115	0.551809
H368	H	-0.111979	-0.671571	0.507254
H369	H	-0.111966	-0.726953	0.507167
H370	H	-0.187770	-0.621222	0.482330
H371	H	-0.187699	-0.676648	0.482274
H372	H	-0.226640	-0.539563	0.302661
H373	H	-0.134040	-0.570516	0.271939
