data_functionalizedCrystal
_audit_creation_method	'MofGen! by Chris Wilmer'
_symmetry_space_group_name_H-M	'P1'
_symmetry_Int_Tables_number	1
_symmetry_cell_setting	triclinic
loop_
_symmetry_equiv_pos_as_xyz
  x,y,z
_cell_length_a	13.635800
_cell_length_b	23.752966
_cell_length_c	10.943624
_cell_angle_alpha	84.949430
_cell_angle_beta	108.838799
_cell_angle_gamma	79.933465
loop_
_atom_site_label
_atom_site_type_symbol
_atom_site_fract_x
_atom_site_fract_y
_atom_site_fract_z
V1	V	2.035757	-0.079145	0.403276
O2	O	2.037663	0.003819	0.394853
O3	O	2.003116	-0.156946	0.401235
O4	O	2.025079	-0.077921	0.578831
O5	O	2.015548	-0.075754	0.216028
V6	V	2.276913	-0.069222	0.380792
O7	O	2.167715	-0.100911	0.452595
O8	O	2.370054	-0.047456	0.331473
O9	O	2.197951	0.008579	0.382833
O10	O	2.333706	-0.152186	0.389215
O11	O	2.355821	-0.072614	0.568040
O12	O	2.175988	-0.070446	0.205237
V13	V	2.535757	-0.079145	0.403276
O14	O	2.537663	0.003819	0.394853
O15	O	2.503116	-0.156946	0.401235
O16	O	2.525079	-0.077921	0.578831
O17	O	2.515548	-0.075754	0.216028
V18	V	2.776913	-0.069222	0.380792
O19	O	2.667715	-0.100911	0.452595
O20	O	2.870054	-0.047456	0.331473
O21	O	2.697951	0.008579	0.382833
O22	O	2.833706	-0.152186	0.389215
O23	O	2.855821	-0.072614	0.568040
O24	O	2.675988	-0.070446	0.205237
C25	C	1.923125	-0.175912	0.395058
C26	C	1.937170	-0.239516	0.394560
C27	C	2.115648	-0.636849	0.398079
C28	C	2.128863	-0.696613	0.397630
O29	O	2.213303	-0.730003	0.402944
N30	N	2.044228	-0.723589	0.390929
C31	C	1.946374	-0.690799	0.384689
O32	O	1.875600	-0.719232	0.378949
C33	C	1.933162	-0.631037	0.385147
C34	C	2.017801	-0.604063	0.391835
C35	C	2.200279	-0.609875	0.404768
C36	C	2.187063	-0.550115	0.405214
C37	C	2.089216	-0.517329	0.398970
C38	C	2.004585	-0.544303	0.392281
C39	C	1.835312	-0.598249	0.378916
C40	C	1.822107	-0.538483	0.379376
C41	C	1.906745	-0.511509	0.386064
C42	C	1.893522	-0.451758	0.386484
N43	N	1.978157	-0.424781	0.393185
C44	C	2.076004	-0.457567	0.399428
C45	C	1.974128	-0.816303	0.383730
C46	C	1.987337	-0.876064	0.383263
C47	C	2.169826	-0.881874	0.396207
C48	C	2.156614	-0.822112	0.396664
C49	C	2.058763	-0.789327	0.390431
C50	C	2.048243	-0.332067	0.400363
C51	C	2.035017	-0.272301	0.400803
C52	C	1.852531	-0.266497	0.387866
C53	C	1.865754	-0.326257	0.387419
C54	C	1.963619	-0.359041	0.393673
O55	O	1.809115	-0.418331	0.381178
O56	O	2.146768	-0.429128	0.405184
C57	C	1.951140	-0.075107	0.621598
C58	C	1.982995	-0.074621	0.765120
C59	C	2.109613	0.027542	0.389006
C60	C	2.085187	0.091145	0.389513
C61	C	2.081597	-0.073262	0.162463
C62	C	2.039361	-0.073745	0.018940
C63	C	2.423125	-0.175912	0.395058
C64	C	2.437170	-0.239516	0.394560
C65	C	2.451140	-0.075107	0.621598
C66	C	2.482995	-0.074621	0.765120
C67	C	1.906320	-0.071348	0.842238
C68	C	1.987499	-0.119936	0.948672
C69	C	1.958588	-0.025172	0.914418
C70	C	2.063767	-0.123255	0.869679
C71	C	2.034828	-0.028448	0.835400
C72	C	2.116072	-0.077050	0.941806
C73	C	2.609613	0.027542	0.389006
C74	C	2.585187	0.091145	0.389513
C75	C	2.581597	-0.073262	0.162463
C76	C	2.539361	-0.073745	0.018940
C77	C	2.535017	-0.272301	0.400803
C78	C	2.548232	-0.332065	0.400355
C79	C	2.463598	-0.359041	0.393653
C80	C	2.365744	-0.326251	0.387413
C81	C	2.352531	-0.266489	0.387871
C82	C	2.659834	0.123930	0.383273
C83	C	2.636891	0.183694	0.383728
C84	C	2.539303	0.210670	0.390432
C85	C	2.464650	0.177880	0.396669
C86	C	2.487591	0.118118	0.396204
C87	C	2.406320	-0.071348	0.842238
C88	C	2.487499	-0.119936	0.948672
C89	C	2.458588	-0.025172	0.914418
C90	C	2.563767	-0.123255	0.869679
C91	C	2.534828	-0.028448	0.835400
C92	C	2.616072	-0.077050	0.941806
H93	H	2.103943	-0.250342	0.406245
H94	H	2.107928	-0.164754	0.849514
C95	C	2.398936	0.030833	0.941879
H96	H	2.324710	0.032789	0.907620
H97	H	2.420233	0.030920	1.033508
H98	H	2.415047	0.063342	0.901419
H99	H	1.967821	-0.158614	0.997975
H100	H	2.385192	0.199853	0.402126
H101	H	2.426802	0.091428	0.401297
H102	H	2.627916	-0.358754	0.405433
C103	C	2.719017	0.219753	0.376879
H104	H	2.691382	0.259211	0.378099
H105	H	2.782473	0.205928	0.449838
H106	H	2.733848	0.216373	0.298453
C107	C	1.894230	-0.905729	0.375878
H108	H	1.916101	-0.946017	0.376492
H109	H	1.872660	-0.899959	0.448975
H110	H	1.836488	-0.889516	0.297592
C111	C	2.561340	0.023802	0.768717
H112	H	2.609966	0.010485	0.726552
H113	H	2.498171	0.046954	0.705902
H114	H	2.592251	0.046199	0.832561
C115	C	2.514077	0.276406	0.390948
H116	H	2.445264	0.287781	0.395827
H117	H	2.565016	0.285772	0.464350
H118	H	2.516375	0.296221	0.312967
H119	H	2.317371	-0.069001	0.798768
C120	C	2.736276	-0.080317	1.000264
H121	H	2.748287	-0.046812	1.039262
H122	H	2.768622	-0.113837	1.064619
H123	H	2.766076	-0.082309	0.932962
C124	C	2.236278	-0.080322	1.000271
H125	H	2.273699	-0.115174	0.985317
H126	H	2.253385	-0.048149	0.959970
H127	H	2.255910	-0.079676	1.091617
C128	C	2.277465	-0.917948	0.403102
H129	H	2.273209	-0.957403	0.401890
H130	H	2.294716	-0.904135	0.330157
H131	H	2.330875	-0.914568	0.481540
C132	C	2.460921	-0.172182	1.015293
H133	H	2.386657	-0.170107	0.981019
H134	H	2.497588	-0.206980	0.999186
H135	H	2.482100	-0.171682	1.106780
H136	H	1.817371	-0.069001	0.798768
C137	C	2.623431	-0.179317	0.842456
H138	H	2.668745	-0.202387	0.922906
H139	H	2.573725	-0.200233	0.796269
H140	H	2.664649	-0.169914	0.791410
C141	C	2.280175	-0.520454	0.412602
H142	H	2.340340	-0.548547	0.416273
H143	H	2.260742	-0.492038	0.337370
H144	H	2.296906	-0.502488	0.488753
C145	C	2.155887	-0.368120	0.407230
H146	H	2.204386	-0.343488	0.411265
H147	H	2.182942	-0.396776	0.483009
H148	H	2.146739	-0.386331	0.331624
H149	H	2.279961	-0.636564	0.409857
C150	C	1.898936	0.030833	0.941879
H151	H	1.824710	0.032789	0.907620
H152	H	1.920233	0.030920	1.033508
H153	H	1.915047	0.063342	0.901419
C154	C	2.478136	-0.424778	0.393143
H155	H	2.413722	-0.436153	0.388265
H156	H	2.496735	-0.434145	0.319742
H157	H	2.532919	-0.444592	0.471125
C158	C	2.249717	-0.792446	0.404027
H159	H	2.309880	-0.820537	0.407683
H160	H	2.230266	-0.764031	0.328789
H161	H	2.266459	-0.774478	0.480173
H162	H	2.603941	-0.250345	0.406252
H163	H	1.894441	-0.789613	0.378645
C164	C	2.061348	0.023803	0.768734
H165	H	2.023621	0.058609	0.783476
H166	H	2.135416	0.022142	0.804124
H167	H	2.041340	0.022903	0.677457
C168	C	1.742209	-0.627908	0.371576
H169	H	1.682055	-0.599816	0.367943
H170	H	1.725458	-0.645883	0.295448
H171	H	1.761670	-0.656318	0.446834
C172	C	1.714466	-0.502423	0.372506
H173	H	1.665956	-0.527050	0.368446
H174	H	1.723603	-0.484205	0.448095
H175	H	1.687422	-0.473771	0.296711
H176	H	2.272851	-0.239799	0.382780
C177	C	1.772653	-0.355929	0.380051
H178	H	1.712487	-0.327841	0.376401
H179	H	1.755922	-0.373907	0.303926
H180	H	1.792111	-0.384337	0.455311
H181	H	2.739301	0.101974	0.377815
C182	C	1.744908	-0.230426	0.381009
H183	H	1.749172	-0.190973	0.382251
H184	H	1.691479	-0.233801	0.302597
H185	H	1.727690	-0.244247	0.453982
H186	H	2.296839	-0.348224	0.381958
