data_functionalizedCrystal
_audit_creation_method	'MofGen! by Chris Wilmer'
_symmetry_space_group_name_H-M	'P1'
_symmetry_Int_Tables_number	1
_symmetry_cell_setting	triclinic
loop_
_symmetry_equiv_pos_as_xyz
  x,y,z
_cell_length_a	15.297475
_cell_length_b	25.639239
_cell_length_c	25.639234
_cell_angle_alpha	89.978894
_cell_angle_beta	80.325598
_cell_angle_gamma	80.340538
loop_
_atom_site_label
_atom_site_type_symbol
_atom_site_fract_x
_atom_site_fract_y
_atom_site_fract_z
Zn1	Zn	1.378947	-0.346740	-0.433676
Zn2	Zn	1.378822	-0.434150	-0.346228
Zn3	Zn	1.228114	-0.331589	-0.331153
Zn4	Zn	1.228013	-0.418983	-0.418533
O5	O	1.303474	-0.382865	-0.382397
O6	O	1.505169	-0.371023	-0.434723
O7	O	1.358820	-0.420552	-0.271062
O8	O	1.248218	-0.260443	-0.344781
O9	O	1.505076	-0.435243	-0.370475
O10	O	1.359034	-0.271575	-0.420105
O11	O	1.248096	-0.345201	-0.259986
O12	O	1.101863	-0.330494	-0.330097
O13	O	1.248045	-0.409393	-0.493708
O14	O	1.101789	-0.394701	-0.394295
O15	O	1.358936	-0.356316	-0.504834
O16	O	1.358722	-0.505294	-0.355791
O17	O	1.247924	-0.494150	-0.408913
C18	C	1.069094	-0.359308	-0.358917
C19	C	0.968825	-0.349243	-0.348885
C20	C	0.686129	-0.454808	-0.454102
C21	C	0.780336	-0.464268	-0.463527
C22	C	0.827463	-0.435513	-0.434867
C23	C	0.780373	-0.397295	-0.396781
C24	C	0.686156	-0.387836	-0.387353
C25	C	0.827491	-0.368541	-0.368118
C26	C	0.780400	-0.330323	-0.330032
C27	C	0.686193	-0.320866	-0.320605
C28	C	0.639066	-0.349622	-0.349265
C29	C	0.921707	-0.378000	-0.377546
C30	C	0.921735	-0.311028	-0.310797
C31	C	0.827527	-0.301567	-0.301372
C32	C	1.303323	-0.518693	-0.382358
C33	C	1.303340	-0.576809	-0.382367
C34	C	1.361317	-0.942990	-0.354809
C35	C	1.361352	-0.997598	-0.354819
O36	O	1.410489	-1.030766	-0.331346
N37	N	1.303633	-1.019120	-0.382448
C38	C	1.245881	-0.986033	-0.410072
O39	O	1.196790	-1.009354	-0.433574
C40	C	1.245851	-0.931426	-0.410064
C41	C	1.303568	-0.909906	-0.382430
C42	C	1.419030	-0.921469	-0.327177
C43	C	1.418994	-0.866865	-0.327165
C44	C	1.361245	-0.833782	-0.354786
C45	C	1.303532	-0.855302	-0.382418
C46	C	1.188105	-0.898340	-0.437692
C47	C	1.188080	-0.843731	-0.437682
C48	C	1.245797	-0.822211	-0.410047
C49	C	1.245746	-0.767614	-0.410028
N50	N	1.303466	-0.746092	-0.382399
C51	C	1.361215	-0.779175	-0.354779
C52	C	1.245949	-1.100710	-0.410087
C53	C	1.245973	-1.155315	-0.410092
C54	C	1.361446	-1.166876	-0.354840
C55	C	1.361417	-1.112270	-0.354832
C56	C	1.303668	-1.079187	-0.382458
C57	C	1.361134	-0.664502	-0.354757
C58	C	1.361089	-0.609892	-0.354746
C59	C	1.245620	-0.598336	-0.410001
C60	C	1.245661	-0.652941	-0.410009
C61	C	1.303425	-0.686023	-0.382386
O62	O	1.196637	-0.734414	-0.433491
O63	O	1.410306	-0.755848	-0.331287
C64	C	1.538770	-0.406515	-0.405969
C65	C	1.639039	-0.416593	-0.416014
C66	C	1.303493	-0.382853	-0.518772
C67	C	1.303502	-0.382847	-0.576887
C68	C	1.303651	-0.246510	-0.382450
C69	C	1.303726	-0.188404	-0.382473
C70	C	1.245821	-0.410424	-0.822288
C71	C	1.245805	-0.410434	-0.767682
O72	O	1.196677	-0.433925	-0.734511
N73	N	1.303536	-0.382808	-0.746165
C74	C	1.361280	-0.355166	-0.779256
O75	O	1.410382	-0.331668	-0.755939
C76	C	1.361290	-0.355153	-0.833860
C77	C	1.303562	-0.382785	-0.855375
C78	C	1.188097	-0.438054	-0.843803
C79	C	1.188114	-0.438044	-0.898405
C80	C	1.245856	-0.410405	-0.931492
C81	C	1.303580	-0.382776	-0.909977
C82	C	1.419029	-0.327508	-0.866950
C83	C	1.419034	-0.327497	-0.921557
C84	C	1.361306	-0.355129	-0.943072
C85	C	1.361338	-0.355127	-0.997667
N86	N	1.303608	-0.382753	-1.019184
C87	C	1.245866	-0.410392	-0.986097
C88	C	1.361252	-0.355194	-0.664582
C89	C	1.361247	-0.355210	-0.609979
C90	C	1.245771	-0.410478	-0.598409
C91	C	1.245781	-0.410465	-0.653014
C92	C	1.303521	-0.382820	-0.686100
C93	C	1.245907	-0.410371	-1.100766
C94	C	1.245932	-0.410360	-1.155374
C95	C	1.361405	-0.355091	-1.166939
C96	C	1.361383	-0.355103	-1.112336
C97	C	1.303627	-0.382744	-1.079250
O98	O	1.410439	-0.331647	-1.030869
O99	O	1.196764	-0.433880	-1.009420
C100	C	1.303507	-0.382846	-0.246558
C101	C	1.303674	-0.382721	-0.188461
H102	H	0.647750	-0.478220	-0.477430
H103	H	1.408278	-0.332684	-0.691519
H104	H	0.818671	-0.495387	-0.494536
H105	H	1.466062	-0.948402	-0.304685
C106	C	1.233162	-0.479517	-0.713141
C107	C	1.182322	-0.440838	-0.676658
H108	H	1.193981	-0.498270	-0.727733
H109	H	1.267536	-0.463054	-0.740663
H110	H	1.272439	-0.503465	-0.695767
H111	H	1.143050	-0.416887	-0.694034
H112	H	1.147933	-0.457302	-0.649132
C113	C	1.124509	-0.405466	-1.027217
C114	C	1.182425	-0.440759	-1.064408
H115	H	1.085319	-0.424230	-1.004775
H116	H	1.158876	-0.389020	-1.006581
H117	H	1.090043	-0.379216	-1.045075
H118	H	1.216897	-0.467007	-1.046550
H119	H	1.148055	-0.457213	-1.085046
H120	H	1.198966	-1.172830	-0.432589
H121	H	1.408472	-1.193824	-0.332351
H122	H	1.198916	-1.073775	-0.432581
C123	C	0.580257	-0.239913	-0.302843
C124	C	0.634407	-0.278879	-0.278725
H125	H	0.548279	-0.214000	-0.276983
H126	H	0.617027	-0.223619	-0.329324
H127	H	0.538731	-0.255695	-0.318573
H128	H	0.675938	-0.263098	-0.262998
H129	H	0.597635	-0.295174	-0.252235
C130	C	1.201870	-0.494466	-1.167749
C131	C	1.182470	-0.440736	-1.179019
H132	H	1.162687	-0.513216	-1.182341
H133	H	1.262465	-0.508204	-1.182768
H134	H	1.193599	-0.498416	-1.130491
H135	H	1.190746	-0.436785	-1.216277
H136	H	1.121860	-0.426994	-1.164001
H137	H	1.141104	-0.460544	-0.915917
H138	H	1.408415	-1.094752	-0.332330
H139	H	1.466038	-0.305007	-0.849442
C140	C	1.533172	-0.272864	-0.927504
C141	C	1.482510	-0.297111	-0.957925
H142	H	1.572363	-0.254109	-0.949957
H143	H	1.493885	-0.248923	-0.902278
H144	H	1.567640	-0.299119	-0.909654
H145	H	1.448037	-0.270855	-0.975773
H146	H	1.521802	-0.321054	-0.983161
H147	H	1.141101	-0.915851	-0.460192
C148	C	0.504085	-0.349316	-0.285985
C149	C	0.535508	-0.339218	-0.338894
H150	H	0.440152	-0.342890	-0.279581
H151	H	0.525354	-0.385177	-0.279020
H152	H	0.525427	-0.326722	-0.263472
H153	H	0.514171	-0.361815	-0.361407
H154	H	0.514229	-0.303352	-0.345865
C155	C	0.950725	-0.406507	-0.468935
C156	C	0.973464	-0.420003	-0.419413
H157	H	0.982683	-0.432438	-0.494784
H158	H	0.887880	-0.404992	-0.467418
H159	H	0.966208	-0.372942	-0.478194
H160	H	0.957976	-0.453566	-0.410152
H161	H	1.036324	-0.421524	-0.420929
H162	H	1.141056	-0.816797	-0.460180
C163	C	1.066164	-0.295785	-0.295613
C164	C	0.973527	-0.279415	-0.279292
H165	H	1.098140	-0.276268	-0.276166
H166	H	1.081561	-0.332445	-0.289436
H167	H	1.081615	-0.289735	-0.332304
H168	H	0.958074	-0.285469	-0.242601
H169	H	0.958124	-0.242747	-0.285464
C170	C	1.405456	-0.270982	-1.188181
C171	C	1.424870	-0.324709	-1.203315
H172	H	1.444638	-0.252225	-1.210638
H173	H	1.344861	-0.257246	-1.191062
H174	H	1.413719	-0.267039	-1.152583
H175	H	1.416600	-0.328652	-1.238912
H176	H	1.485479	-0.338448	-1.200439
C177	C	1.194474	-0.435024	-0.509561
C178	C	1.182291	-0.440855	-0.562031
H179	H	1.155282	-0.453774	-0.487103
H180	H	1.255066	-0.448772	-0.506684
H181	H	1.181320	-0.398571	-0.499309
H182	H	1.195451	-0.477308	-0.572284
H183	H	1.121685	-0.427110	-0.564911
C184	C	1.201582	-0.577076	-0.494100
C185	C	1.182154	-0.561963	-0.440366
H186	H	1.162401	-0.554621	-0.512849
H187	H	1.262177	-0.574179	-0.507838
H188	H	1.193328	-0.612676	-0.498056
H189	H	1.190414	-0.526364	-0.436410
H190	H	1.121544	-0.564855	-0.426625
H191	H	0.789173	-0.270450	-0.270362
H192	H	1.465994	-0.849348	-0.304665
C193	C	1.475388	-0.300580	-0.626914
C194	C	1.424709	-0.324840	-0.586335
H195	H	1.514560	-0.281825	-0.612317
H196	H	1.509867	-0.326822	-0.651658
H197	H	1.436103	-0.276631	-0.644282
H198	H	1.463994	-0.348792	-0.568969
H199	H	1.390227	-0.298594	-0.561582
C200	C	1.124337	-0.702229	-0.405074
C201	C	1.182210	-0.676596	-0.440381
H202	H	1.085165	-0.716827	-0.423828
H203	H	1.158736	-0.729749	-0.388634
H204	H	1.089848	-0.677493	-0.378819
H205	H	1.216703	-0.701333	-0.466634
H206	H	1.147806	-0.649072	-0.456829
H207	H	1.408089	-0.592373	-0.332241
C208	C	1.374007	-0.286063	-1.052197
C209	C	1.424849	-0.324742	-1.088679
H210	H	1.413189	-0.267321	-1.037592
H211	H	1.334753	-0.262109	-1.069571
H212	H	1.339611	-0.302528	-1.024680
H213	H	1.459240	-0.308276	-1.116199
H214	H	1.464119	-0.348699	-1.071304
C215	C	1.073972	-0.492688	-0.837867
C216	C	1.124626	-0.468442	-0.807440
H217	H	1.034794	-0.511454	-0.815420
H218	H	1.039500	-0.466435	-0.855710
H219	H	1.113273	-0.516623	-0.863101
H220	H	1.085325	-0.444503	-0.782208
H221	H	1.159100	-0.494697	-0.789588
H222	H	1.408172	-0.691432	-0.332265
H223	H	0.904171	-0.443218	-0.442543
