data_functionalizedCrystal
_audit_creation_method	'MofGen! by Chris Wilmer'
_symmetry_space_group_name_H-M	'P1'
_symmetry_Int_Tables_number	1
_symmetry_cell_setting	triclinic
loop_
_symmetry_equiv_pos_as_xyz
  x,y,z
_cell_length_a	29.839131
_cell_length_b	19.805407
_cell_length_c	19.805399
_cell_angle_alpha	89.980427
_cell_angle_beta	89.970435
_cell_angle_gamma	90.041420
loop_
_atom_site_label
_atom_site_type_symbol
_atom_site_fract_x
_atom_site_fract_y
_atom_site_fract_z
Zn1	Zn	-0.178864	1.034665	-0.382710
Zn2	Zn	-0.253991	1.034550	-0.269518
Zn3	Zn	-0.178876	0.921480	-0.269535
Zn4	Zn	-0.253967	0.921414	-0.382665
O5	O	-0.216425	0.978027	-0.326107
O6	O	-0.188834	1.129366	-0.367707
O7	O	-0.244042	1.019531	-0.174804
O8	O	-0.116007	0.936570	-0.284574
O9	O	-0.244030	1.129282	-0.284545
O10	O	-0.115998	1.019727	-0.367723
O11	O	-0.188856	0.936458	-0.174816
O12	O	-0.188832	0.826754	-0.284530
O13	O	-0.243990	0.936457	-0.477388
O14	O	-0.244002	0.826706	-0.367646
O15	O	-0.188811	1.019662	-0.477421
O16	O	-0.316855	1.019467	-0.284501
O17	O	-0.316838	0.936346	-0.367630
C18	C	-0.216416	0.802171	-0.326085
C19	C	-0.216423	0.726939	-0.326092
C20	C	-0.333147	0.977905	-0.326073
C21	C	-0.383082	0.977915	-0.326082
C22	C	-0.245193	0.691587	-0.369300
C23	C	-0.245194	0.620899	-0.369310
C24	C	-0.216427	0.585564	-0.326107
C25	C	-0.187654	0.620920	-0.282897
C26	C	-0.187651	0.691607	-0.282891
C27	C	-0.187664	0.335847	-0.282919
C28	C	-0.187669	0.265155	-0.282927
C29	C	-0.245207	0.265139	-0.369338
C30	C	-0.245204	0.335826	-0.369332
C31	C	-0.216429	0.371176	-0.326125
C32	C	-0.216428	0.447825	-0.326116
C33	C	-0.216430	0.508916	-0.326112
C34	C	-0.692722	1.021387	-0.282885
C35	C	-0.880395	1.021471	-0.282912
O36	O	-0.904656	1.058335	-0.246159
N37	N	-0.903867	0.978168	-0.326158
C38	C	-0.880418	0.934844	-0.369404
O39	O	-0.904688	0.898019	-0.406194
C40	C	-0.692746	0.934764	-0.369381
C41	C	-0.669276	0.978065	-0.326127
C42	C	-0.669252	1.064685	-0.239635
C43	C	-0.622336	1.064661	-0.239626
C44	C	-0.598891	1.021339	-0.282868
C45	C	-0.622360	0.978041	-0.326118
C46	C	-0.669297	0.891444	-0.412630
C47	C	-0.622376	0.891429	-0.412621
C48	C	-0.598907	0.934730	-0.369367
C49	C	-0.551999	0.934695	-0.369351
N50	N	-0.528527	0.977998	-0.326104
C51	C	-0.551973	1.021320	-0.282863
C52	C	-0.978948	0.934888	-0.369412
C53	C	-1.025866	0.934907	-0.369418
C54	C	-1.025840	1.021534	-0.282926
C55	C	-0.978921	1.021512	-0.282918
C56	C	-0.955476	0.978191	-0.326166
C57	C	-0.453447	1.021266	-0.282847
C58	C	-0.406527	1.021237	-0.282840
C59	C	-0.406558	0.934611	-0.369334
C60	C	-0.453473	0.934638	-0.369339
C61	C	-0.476917	0.977971	-0.326093
O62	O	-0.527708	0.897855	-0.406090
O63	O	-0.527694	1.058150	-0.246090
C64	C	-0.739637	1.021411	-0.282894
C65	C	-0.763107	0.978113	-0.326144
C66	C	-0.739661	0.934791	-0.369386
C67	C	-0.810025	0.978132	-0.326149
C68	C	-0.833470	1.021454	-0.282908
C69	C	-0.809998	1.064757	-0.239661
C70	C	-0.763083	1.064733	-0.239653
C71	C	-0.763133	0.891488	-0.412632
C72	C	-0.810049	0.891515	-0.412637
C73	C	-0.833494	0.934837	-0.369395
C74	C	-0.099246	0.978168	-0.326156
C75	C	-0.049312	0.978228	-0.326176
C76	C	-0.216396	0.978065	-0.502650
C77	C	-0.216384	0.978081	-0.577882
C78	C	-0.216434	1.154570	-0.326129
C79	C	-0.216437	1.229802	-0.326139
C80	C	-0.187652	1.021407	-0.613244
C81	C	-0.187638	1.021414	-0.683933
C82	C	-0.216361	0.978098	-0.719258
C83	C	-0.245095	0.934767	-0.683890
C84	C	-0.245105	0.934757	-0.613203
C85	C	-0.245053	0.934806	-0.968963
C86	C	-0.245041	0.934820	-1.039656
C87	C	-0.187586	1.021462	-1.039694
C88	C	-0.187597	1.021453	-0.969006
C89	C	-0.216329	0.978120	-0.933645
C90	C	-0.216342	0.978112	-0.856997
C91	C	-0.216350	0.978109	-0.795905
C92	C	-0.216420	0.978028	-0.150251
C93	C	-0.216306	0.978143	-0.075019
H94	H	-0.268620	0.720352	-0.404479
H95	H	-0.268631	0.364592	-0.404510
C96	C	-0.835378	1.111820	-0.192640
C97	C	-0.804787	1.149731	-0.154746
C98	C	-0.828153	1.193086	-0.111423
H99	H	-0.853651	1.141360	-0.218493
H100	H	-0.853702	1.085968	-0.163093
H101	H	-0.786471	1.175581	-0.184289
H102	H	-0.786513	1.120209	-0.128880
H103	H	-0.846477	1.167234	-0.081876
H104	H	-0.846425	1.222621	-0.137281
H105	H	-0.807401	1.218809	-0.085702
H106	H	-0.829154	0.856248	-0.447859
H107	H	-1.044937	1.056809	-0.247717
H108	H	-0.268622	0.592119	-0.404494
C109	C	-0.737547	1.111789	-0.192803
C110	C	-0.710559	1.155129	-0.231159
C111	C	-0.687028	1.198483	-0.188022
H112	H	-0.758184	1.137654	-0.167039
H113	H	-0.719249	1.085928	-0.163292
H114	H	-0.728856	1.180987	-0.260658
H115	H	-0.689914	1.129282	-0.256921
H116	H	-0.668729	1.172622	-0.158511
H117	H	-0.707668	1.224344	-0.162261
H118	H	-0.668711	1.227890	-0.214040
H119	H	-0.268634	0.236348	-0.404522
C120	C	-0.276335	0.887850	-0.722277
C121	C	-0.305134	0.926145	-0.762839
C122	C	-0.333923	0.882949	-0.798202
H123	H	-0.259196	0.858371	-0.749910
H124	H	-0.293475	0.862055	-0.691112
H125	H	-0.287996	0.951929	-0.794000
H126	H	-0.322283	0.955622	-0.735222
H127	H	-0.351063	0.857154	-0.767037
H128	H	-0.316781	0.853472	-0.825831
H129	H	-0.353470	0.908926	-0.825722
C130	C	-0.478957	1.068207	-0.235865
C131	C	-0.505950	1.029933	-0.192459
C132	C	-0.529463	1.073151	-0.149179
H133	H	-0.458310	1.094008	-0.210043
H134	H	-0.497252	1.097679	-0.261775
H135	H	-0.487658	1.000472	-0.166551
H136	H	-0.526606	1.004133	-0.218262
H137	H	-0.547758	1.102623	-0.175089
H138	H	-0.508813	1.098950	-0.123362
H139	H	-0.547784	1.047189	-0.119727
H140	H	-0.164241	0.236387	-0.247745
H141	H	-0.268498	0.899470	-0.584411
C142	C	-0.156453	1.068444	-0.930533
C143	C	-0.162617	1.059169	-0.861059
C144	C	-0.133934	1.102445	-0.825597
H145	H	-0.126250	1.058608	-0.942053
H146	H	-0.163025	1.113934	-0.942077
H147	H	-0.156042	1.013689	-0.849519
H148	H	-0.192814	1.069010	-0.849519
H149	H	-0.140506	1.147936	-0.837142
H150	H	-0.103733	1.092605	-0.837123
H151	H	-0.138115	1.096163	-0.778456
H152	H	-0.744047	0.856211	-0.447845
C153	C	-0.156372	0.374261	-0.236119
C154	C	-0.127601	0.414873	-0.274519
C155	C	-0.098765	0.450267	-0.231428
H156	H	-0.173479	0.401863	-0.206566
H157	H	-0.139215	0.343115	-0.210399
H158	H	-0.144756	0.446015	-0.300227
H159	H	-0.110484	0.387288	-0.304070
H160	H	-0.081607	0.419122	-0.205708
H161	H	-0.115875	0.477865	-0.201877
H162	H	-0.079237	0.477822	-0.257476
C163	C	-0.156513	1.068409	-0.574773
C164	C	-0.162678	1.059141	-0.505299
C165	C	-0.134003	1.102431	-0.469840
H166	H	-0.126308	1.058580	-0.586290
H167	H	-0.163091	1.113895	-0.586324
H168	H	-0.156097	1.013665	-0.493752
H169	H	-0.192877	1.068974	-0.493762
H170	H	-0.140581	1.147918	-0.481392
H171	H	-0.103800	1.092599	-0.481362
H172	H	-0.138185	1.096154	-0.422699
C173	C	-0.276210	0.887861	-1.078132
C174	C	-0.270060	0.897163	-1.147605
C175	C	-0.298768	0.853928	-1.183070
H176	H	-0.269663	0.842362	-1.066628
H177	H	-0.306407	0.897733	-1.066574
H178	H	-0.239870	0.887287	-1.159158
H179	H	-0.276611	0.942654	-1.159128
H180	H	-0.328966	0.863800	-1.171512
H181	H	-0.292218	0.808431	-1.171561
H182	H	-0.294603	0.860238	-1.230211
H183	H	-0.164229	0.592145	-0.247723
C184	C	-0.156427	1.068532	-0.722205
C185	C	-0.131287	1.106480	-0.676140
C186	C	-0.102534	1.149900	-0.711370
H187	H	-0.136805	1.042746	-0.749785
H188	H	-0.173602	1.098040	-0.749764
H189	H	-0.114114	1.076976	-0.648592
H190	H	-0.150897	1.132279	-0.648558
H191	H	-0.119708	1.179408	-0.738930
H192	H	-0.082915	1.124109	-0.738949
H193	H	-0.085476	1.175657	-0.680121
C194	C	-0.156473	0.729958	-0.235862
C195	C	-0.166207	0.712740	-0.168867
C196	C	-0.137498	0.748062	-0.125526
H197	H	-0.126281	0.718439	-0.245760
H198	H	-0.160596	0.777123	-0.242002
H199	H	-0.162080	0.665586	-0.162730
H200	H	-0.196394	0.724262	-0.158948
H201	H	-0.141620	0.795227	-0.131665
H202	H	-0.107307	0.736540	-0.135430
H203	H	-0.144100	0.736390	-0.080065
C204	C	-0.381128	1.068327	-0.235852
C205	C	-0.411706	1.106284	-0.198001
C206	C	-0.388326	1.149676	-0.154717
H207	H	-0.362854	1.042521	-0.206271
H208	H	-0.362803	1.097831	-0.261752
H209	H	-0.430023	1.076784	-0.172102
H210	H	-0.429981	1.132104	-0.227563
H211	H	-0.370002	1.179180	-0.180617
H212	H	-0.370054	1.123865	-0.125141
H213	H	-0.409070	1.175439	-0.129034
C214	C	-0.156402	1.068431	-1.078209
C215	C	-0.162528	1.059157	-1.147675
C216	C	-0.133807	1.102406	-1.183174
H217	H	-0.162954	1.113926	-1.066714
H218	H	-0.126209	1.058554	-1.066672
H219	H	-0.192714	1.069039	-1.159208
H220	H	-0.155974	1.013671	-1.159191
H221	H	-0.103614	1.092529	-1.171637
H222	H	-0.140361	1.147898	-1.171673
H223	H	-0.137957	1.096115	-1.230310
H224	H	-0.603230	1.099922	-0.204407
H225	H	-0.268455	0.899531	-0.940181
C226	C	-0.694796	0.844354	-0.459486
C227	C	-0.721770	0.800984	-0.421141
C228	C	-0.745261	0.757589	-0.464285
H229	H	-0.713103	0.870162	-0.489017
H230	H	-0.674122	0.818517	-0.485227
H231	H	-0.742442	0.826818	-0.395411
H232	H	-0.703474	0.775161	-0.391611
H233	H	-0.724587	0.731753	-0.490026
H234	H	-0.763566	0.783403	-0.493814
H235	H	-0.763563	0.728154	-0.438274
H236	H	-0.959815	1.056771	-0.247697
C237	C	-1.051263	0.887862	-0.416448
C238	C	-1.020683	0.849936	-0.454327
C239	C	-1.044060	0.806600	-0.497669
H240	H	-1.069598	0.858331	-0.390610
H241	H	-1.069527	0.913728	-0.446005
H242	H	-1.002427	0.824072	-0.424774
H243	H	-1.002347	0.879449	-0.480178
H244	H	-1.062324	0.832466	-0.527225
H245	H	-1.062394	0.777073	-0.471826
H246	H	-1.023315	0.780866	-0.523379
C247	C	-0.953475	0.887957	-0.416451
C248	C	-0.926505	0.926235	-0.459887
C249	C	-0.903040	0.883023	-0.503232
H250	H	-0.935166	0.858458	-0.390610
H251	H	-0.974164	0.862185	-0.442242
H252	H	-0.905819	0.951995	-0.434100
H253	H	-0.944803	0.955732	-0.485743
H254	H	-0.923729	0.857251	-0.529023
H255	H	-0.884734	0.853526	-0.477386
H256	H	-0.884742	0.908988	-0.532713
H257	H	-0.603290	0.856153	-0.447842
H258	H	-0.472583	0.899381	-0.404562
C259	C	-0.381071	0.887695	-0.416367
C260	C	-0.354102	0.925996	-0.459782
C261	C	-0.330619	0.882806	-0.503128
H262	H	-0.362760	0.858199	-0.390525
H263	H	-0.401750	0.861919	-0.442172
H264	H	-0.333425	0.951761	-0.433980
H265	H	-0.372401	0.955491	-0.485639
H266	H	-0.351298	0.857030	-0.528933
H267	H	-0.312311	0.853312	-0.477280
H268	H	-0.312321	0.908787	-0.532594
H269	H	-0.688336	1.099967	-0.204423
