data_functionalizedCrystal
_audit_creation_method	'MofGen! by Chris Wilmer'
_symmetry_space_group_name_H-M	'P1'
_symmetry_Int_Tables_number	1
_symmetry_cell_setting	triclinic
loop_
_symmetry_equiv_pos_as_xyz
  x,y,z
_cell_length_a	8.559649
_cell_length_b	23.532407
_cell_length_c	7.681481
_cell_angle_alpha	84.289450
_cell_angle_beta	94.913240
_cell_angle_gamma	76.313671
loop_
_atom_site_label
_atom_site_type_symbol
_atom_site_fract_x
_atom_site_fract_y
_atom_site_fract_z
O1	O	2.105234	-0.013278	-0.146397
O2	O	1.639561	0.016154	-0.146414
O3	O	1.886443	-0.082081	-0.146373
O4	O	1.858352	0.084957	-0.146438
O5	O	1.916831	-0.094196	0.146490
O6	O	1.669949	0.004039	0.146449
O7	O	2.135622	-0.025394	0.146466
Zn8	Zn	1.907610	-0.012601	0.192956
Zn9	Zn	1.867573	0.003362	-0.192904
O10	O	1.888739	0.072842	0.146425
C11	C	1.595190	0.012327	0.000016
C12	C	1.417704	0.018967	0.000010
C13	C	1.900922	-0.109325	0.000063
C14	C	1.898774	-0.172453	0.000077
C15	C	2.031375	-0.577085	-0.000015
C16	C	2.029376	-0.636401	-0.000028
O17	O	2.152301	-0.678272	-0.000089
N18	N	1.882607	-0.652904	-0.000032
C19	C	1.737825	-0.610085	-0.000041
O20	O	1.612803	-0.629568	-0.000048
C21	C	1.739824	-0.550770	-0.000040
C22	C	1.886605	-0.534272	-0.000018
C23	C	2.178143	-0.560586	0.000005
C24	C	2.180142	-0.501274	0.000022
C25	C	2.035372	-0.458460	0.000019
C26	C	1.888603	-0.474960	-0.000002
C27	C	1.595043	-0.507952	-0.000062
C28	C	1.597055	-0.448633	-0.000062
C29	C	1.743835	-0.432135	-0.000040
C30	C	1.745832	-0.372834	0.000012
N31	N	1.892601	-0.356332	0.000016
C32	C	2.037371	-0.399145	0.000019
C33	C	1.733637	-0.734653	-0.000046
C34	C	1.731638	-0.793968	-0.000034
C35	C	2.023189	-0.820279	-0.000025
C36	C	2.025188	-0.760964	-0.000024
C37	C	1.880407	-0.718150	-0.000042
C38	C	2.041557	-0.274584	0.000056
C39	C	2.043544	-0.215266	0.000080
C40	C	1.751992	-0.188959	0.000061
C41	C	1.750006	-0.248272	0.000046
C42	C	1.894801	-0.291084	0.000038
O43	O	1.622970	-0.330931	0.000065
O44	O	2.162370	-0.379651	0.000003
C45	C	2.179993	-0.021566	0.000033
C46	C	2.357478	-0.028205	0.000026
C47	C	1.874260	0.100086	-0.000015
C48	C	1.876408	0.163214	-0.000040
N49	N	1.934946	-0.023496	0.456295
N50	N	1.840250	0.014252	-0.456243
H51	H	2.163075	-0.201838	0.000103
C52	C	1.592753	-0.141860	0.000046
H53	H	1.505045	-0.160178	0.000042
H54	H	1.576897	-0.113946	-0.102081
H55	H	1.598068	-0.122404	0.102187
C56	C	1.303936	0.080392	-0.000025
H57	H	1.365518	0.109096	-0.000048
H58	H	1.248646	0.080767	0.102093
H59	H	1.227470	0.089213	-0.102175
H60	H	1.441697	-0.073670	0.000035
H61	H	2.159463	-0.309436	0.000042
H62	H	2.141068	-0.855149	-0.000029
C63	C	1.709659	0.066301	0.442159
H64	H	1.712622	0.065111	0.319200
H65	H	1.729669	0.102324	0.472271
H66	H	1.606107	0.063573	0.472302
C67	C	1.433584	-0.526088	-0.000107
H68	H	1.453102	-0.567546	-0.000102
H69	H	1.363440	-0.506726	-0.102245
H70	H	1.384605	-0.515189	0.102023
C71	C	2.065544	-0.075548	0.557900
H72	H	2.062571	-0.074363	0.680861
H73	H	2.169090	-0.072825	0.527751
H74	H	2.045517	-0.111571	0.527790
H75	H	2.299665	-0.487847	0.000033
H76	H	2.296039	-0.595440	0.000002
H77	H	2.144710	-0.747536	-0.000007
C78	C	1.437791	-0.401541	-0.000075
H79	H	1.350100	-0.419867	-0.000076
H80	H	1.421912	-0.373623	-0.102196
H81	H	1.443102	-0.382089	0.102073
H82	H	1.612118	-0.807395	-0.000022
H83	H	1.615733	-0.699796	-0.000046
H84	H	1.630490	-0.261707	0.000077
