data_functionalizedCrystal
_audit_creation_method	'MofGen! by Chris Wilmer'
_symmetry_space_group_name_H-M	'P1'
_symmetry_Int_Tables_number	1
_symmetry_cell_setting	triclinic
loop_
_symmetry_equiv_pos_as_xyz
  x,y,z
_cell_length_a	14.853569
_cell_length_b	14.853567
_cell_length_c	16.776229
_cell_angle_alpha	89.997147
_cell_angle_beta	89.994835
_cell_angle_gamma	83.635248
loop_
_atom_site_label
_atom_site_type_symbol
_atom_site_fract_x
_atom_site_fract_y
_atom_site_fract_z
O1	O	1.196367	0.117713	-0.066245
O2	O	1.696367	0.617713	0.433755
O3	O	0.933908	0.131733	-0.066254
O4	O	1.433908	0.631733	0.433746
O5	O	1.072148	-0.006507	-0.066251
O6	O	1.572148	0.493493	0.433749
O7	O	1.058127	0.255953	-0.066247
O8	O	1.558127	0.755953	0.433753
O9	O	1.072130	-0.006515	0.066325
O10	O	1.572130	0.493485	0.566325
O11	O	0.933889	0.131724	0.066323
O12	O	1.433889	0.631724	0.566323
O13	O	1.196349	0.117704	0.066332
O14	O	1.696349	0.617704	0.566332
Zn15	Zn	1.065116	0.124713	0.087377
Zn16	Zn	1.565116	0.624713	0.587377
Zn17	Zn	1.065140	0.124724	-0.087299
Zn18	Zn	1.565140	0.624724	0.412701
O19	O	1.058108	0.255944	0.066329
O20	O	1.558108	0.755944	0.566329
C21	C	0.900310	0.131093	0.000033
C22	C	1.400310	0.631093	0.500033
C23	C	0.800226	0.129189	0.000030
C24	C	1.300226	0.629189	0.500030
C25	C	0.763850	0.046178	0.000026
C26	C	1.263850	0.546178	0.500026
C27	C	0.742560	0.210410	0.000037
C28	C	1.242560	0.710410	0.500037
C29	C	0.648526	0.208624	0.000038
C30	C	1.148526	0.708624	0.500038
C31	C	0.612150	0.125613	0.000034
C32	C	1.112150	0.625613	0.500034
C33	C	0.669807	0.044389	0.000029
C34	C	1.169807	0.544389	0.500029
C35	C	0.590862	0.289847	0.000051
C36	C	1.090862	0.789847	0.500051
C37	C	0.496821	0.288064	0.000053
C38	C	0.996821	0.788064	0.500053
C39	C	0.460443	0.205052	0.000043
C40	C	0.960443	0.705052	0.500043
C41	C	0.518107	0.123824	0.000037
C42	C	1.018107	0.623824	0.500037
C43	C	0.481730	0.040813	0.000033
C44	C	0.981730	0.540813	0.500033
C45	C	0.539393	-0.040415	0.000021
C46	C	1.039393	0.459585	0.500021
C47	C	0.633429	-0.038623	0.000019
C48	C	1.133429	0.461377	0.500019
C49	C	0.366407	0.203259	0.000046
C50	C	0.866407	0.703259	0.500046
C51	C	0.387688	0.039024	0.000036
C52	C	0.887688	0.539024	0.500036
C53	C	1.071504	-0.040100	0.000035
C54	C	1.571504	0.459900	0.500035
C55	C	1.069600	-0.140183	0.000028
C56	C	1.569600	0.359817	0.500028
C57	C	0.979434	-0.552718	0.000040
C58	C	1.479434	-0.052718	0.500040
C59	C	1.143667	-0.573998	0.000045
C60	C	1.643667	-0.073998	0.500045
C61	C	1.145457	-0.479964	0.000040
C62	C	1.645457	0.020036	0.500040
C63	C	1.064234	-0.422303	0.000037
C64	C	1.564234	0.077697	0.500037
C65	C	0.981222	-0.458675	0.000037
C66	C	1.481222	0.041325	0.500037
C67	C	1.228468	-0.443585	0.000048
C68	C	1.728468	0.056415	0.500048
C69	C	1.230262	-0.349545	0.000044
C70	C	1.730262	0.150455	0.500044
C71	C	1.149038	-0.291882	0.000035
C72	C	1.649038	0.208118	0.500035
C73	C	1.066022	-0.328260	0.000034
C74	C	1.566022	0.171740	0.500034
C75	C	0.984800	-0.270599	0.000031
C76	C	1.484800	0.229401	0.500031
C77	C	0.901783	-0.306974	0.000025
C78	C	1.401783	0.193026	0.500025
C79	C	0.899998	-0.401012	0.000028
C80	C	1.399998	0.098988	0.500028
C81	C	1.150822	-0.197845	0.000031
C82	C	1.650822	0.302155	0.500031
C83	C	0.986587	-0.176556	0.000028
C84	C	1.486587	0.323444	0.500028
C85	C	1.229947	0.118344	0.000043
C86	C	1.729947	0.618344	0.500043
C87	C	1.330030	0.120249	0.000041
C88	C	1.830030	0.620249	0.500041
C89	C	1.058753	0.289537	0.000042
C90	C	1.558753	0.789537	0.500042
C91	C	1.060657	0.389621	0.000044
C92	C	1.560657	0.889621	0.500044
N93	N	1.065106	0.124705	0.206588
N94	N	1.565106	0.624705	0.706588
N95	N	1.065157	0.124725	-0.206510
N96	N	1.565157	0.624725	0.293490
C97	C	1.126338	0.063517	0.248306
C98	C	1.626338	0.563517	0.748306
C99	C	1.126343	0.063517	0.331758
C100	C	1.626343	0.563517	0.831758
C101	C	1.065120	0.124708	0.373491
C102	C	1.565120	0.624708	0.873491
C103	C	1.003882	0.185899	0.331767
C104	C	1.503882	0.685899	0.831767
C105	C	1.003873	0.185894	0.248316
C106	C	1.503873	0.685894	0.748316
C107	C	1.003914	0.185916	0.668314
C108	C	1.503914	0.685916	1.168314
C109	C	1.003930	0.185918	0.751771
C110	C	1.503930	0.685918	1.251771
C111	C	1.126384	0.063539	0.751756
C112	C	1.626384	0.563539	1.251756
C113	C	1.126375	0.063535	0.668305
C114	C	1.626375	0.563535	1.168305
C115	C	1.065135	0.124721	0.626589
C116	C	1.565135	0.624721	1.126589
C117	C	1.065129	0.124720	0.536100
C118	C	1.565129	0.624720	1.036100
C119	C	1.065129	0.124714	0.463978
C120	C	1.565129	0.624714	0.963978
H121	H	0.319463	0.269395	0.000062
H122	H	0.819463	0.769395	0.500062
O123	O	1.192438	-0.002465	0.796746
O124	O	1.692438	0.497535	1.296746
H125	H	1.154448	-0.046364	0.834770
H126	H	1.654448	0.453636	1.334770
H127	H	0.920445	-0.129613	0.000022
H128	H	1.420445	0.370387	0.500022
O129	O	0.937870	0.251918	0.623330
O130	O	1.437870	0.751918	1.123330
H131	H	0.948138	0.241635	0.558290
H132	H	1.448138	0.741635	1.058290
H133	H	0.680385	-0.104755	0.000011
H134	H	1.180385	0.395245	0.500011
O135	O	0.937832	0.251882	0.203306
O136	O	1.437832	0.751882	0.703306
H137	H	0.949402	0.322190	0.219301
H138	H	1.449402	0.822190	0.719301
O139	O	1.240354	-0.158614	0.000033
O140	O	1.740354	0.341386	0.500033
H141	H	1.245092	-0.116283	0.054070
H142	H	1.745092	0.383717	0.554070
H143	H	1.297859	-0.319937	0.000048
H144	H	1.797859	0.180063	0.500048
O145	O	0.814180	-0.244778	0.000030
O146	O	1.314180	0.255222	0.500030
H147	H	0.774460	-0.257716	-0.054004
H148	H	1.274460	0.242284	0.445996
H149	H	1.176232	0.013710	0.634329
H150	H	1.676232	0.513710	1.134329
H151	H	0.954071	0.235749	0.785748
H152	H	1.454071	0.735749	1.285748
H153	H	0.911844	-0.582339	0.000032
H154	H	1.411844	-0.082339	0.500032
O155	O	0.937849	0.251905	0.376772
O156	O	1.437849	0.751905	0.876772
H157	H	0.948148	0.241638	0.441810
H158	H	1.448148	0.741638	0.941810
H159	H	0.772184	0.277994	0.000046
H160	H	1.272184	0.777994	0.500046
H161	H	0.832410	-0.430638	0.000024
H162	H	1.332410	0.069362	0.500024
H163	H	0.358078	-0.028574	0.000029
H164	H	0.858078	0.471426	0.500029
O165	O	1.231269	-0.636182	0.000057
O166	O	1.731269	-0.136182	0.500057
H167	H	1.216080	-0.707684	0.000058
H168	H	1.716080	-0.207684	0.500058
O169	O	0.630094	0.379376	0.000063
O170	O	1.130094	0.879376	0.500063
H171	H	0.672422	0.384132	-0.053979
H172	H	1.172422	0.884132	0.446021
H173	H	0.509763	-0.108003	0.000013
H174	H	1.009763	0.391997	0.500013
O175	O	0.434637	0.375672	0.000063
O176	O	0.934637	0.875672	0.500063
H177	H	0.363135	0.360486	0.000068
H178	H	0.863135	0.860486	0.500068
H179	H	0.810802	-0.019956	0.000013
H180	H	1.310802	0.480044	0.500013
O181	O	1.192368	-0.002486	0.203295
O182	O	1.692368	0.497514	0.703295
H183	H	1.234939	-0.045040	0.246328
H184	H	1.734939	0.454960	0.746328
H185	H	1.294595	-0.490539	0.000058
H186	H	1.794595	0.009461	0.500058
O187	O	1.192401	-0.002461	0.376757
O188	O	1.692401	0.497539	0.876757
H189	H	1.234984	-0.044999	0.333718
H190	H	1.734984	0.455001	0.833718
