data_functionalizedCrystal
_audit_creation_method	'MofGen! by Chris Wilmer'
_symmetry_space_group_name_H-M	'P1'
_symmetry_Int_Tables_number	1
_symmetry_cell_setting	triclinic
loop_
_symmetry_equiv_pos_as_xyz
  x,y,z
_cell_length_a	14.044191
_cell_length_b	14.044202
_cell_length_c	12.503572
_cell_angle_alpha	93.856143
_cell_angle_beta	93.844747
_cell_angle_gamma	86.807761
loop_
_atom_site_label
_atom_site_type_symbol
_atom_site_fract_x
_atom_site_fract_y
_atom_site_fract_z
O1	O	1.272127	-0.235249	-0.089306
O2	O	1.522127	0.014751	0.160694
O3	O	1.772127	0.264751	0.410694
O4	O	2.022127	0.514751	0.660694
O5	O	0.995454	-0.226937	-0.089318
O6	O	1.245454	0.023063	0.160682
O7	O	1.495454	0.273063	0.410682
O8	O	1.745454	0.523063	0.660682
O9	O	1.129635	-0.092755	-0.089283
O10	O	1.379635	0.157245	0.160717
O11	O	1.629635	0.407245	0.410717
O12	O	1.879635	0.657245	0.660717
O13	O	1.137946	-0.369431	-0.089341
O14	O	1.387946	-0.119431	0.160659
O15	O	1.637946	0.130569	0.410659
O16	O	1.887946	0.380569	0.660659
O17	O	1.139729	-0.082651	0.089361
O18	O	1.389729	0.167349	0.339361
O19	O	1.639729	0.417349	0.589361
O20	O	1.889729	0.667349	0.839361
O21	O	1.005549	-0.216833	0.089326
O22	O	1.255549	0.033167	0.339326
O23	O	1.505549	0.283167	0.589326
O24	O	1.755549	0.533167	0.839326
O25	O	1.282222	-0.225145	0.089339
O26	O	1.532222	0.024855	0.339339
O27	O	1.782222	0.274855	0.589339
O28	O	2.032222	0.524855	0.839339
Cu29	Cu	1.144807	-0.220066	0.105644
Cu30	Cu	1.394807	0.029934	0.355644
Cu31	Cu	1.644807	0.279934	0.605644
Cu32	Cu	1.894807	0.529934	0.855644
Cu33	Cu	1.132869	-0.232016	-0.105624
Cu34	Cu	1.382869	0.017984	0.144376
Cu35	Cu	1.632869	0.267984	0.394376
Cu36	Cu	1.882869	0.517984	0.644376
O37	O	1.148041	-0.359327	0.089303
O38	O	1.398041	-0.109327	0.339303
O39	O	1.648041	0.140673	0.589303
O40	O	1.898041	0.390673	0.839303
C41	C	0.964879	-0.218248	0.000003
C42	C	1.214879	0.031752	0.250003
C43	C	1.464879	0.281752	0.500003
C44	C	1.714879	0.531752	0.750003
C45	C	0.858735	-0.207401	-0.000000
C46	C	1.108735	0.042599	0.250000
C47	C	1.358735	0.292599	0.500000
C48	C	1.608735	0.542599	0.750000
C49	C	0.613279	-0.264502	-0.000002
C50	C	0.863279	-0.014502	0.249998
C51	C	1.113279	0.235498	0.499998
C52	C	1.363279	0.485498	0.749998
C53	C	0.664402	-0.187585	0.000013
C54	C	0.914402	0.062415	0.250013
C55	C	1.164402	0.312415	0.500013
C56	C	1.414402	0.562415	0.750013
C57	C	0.772539	-0.198613	0.000005
C58	C	1.022539	0.051387	0.250005
C59	C	1.272539	0.301387	0.500005
C60	C	1.522539	0.551387	0.750005
C61	C	0.505132	-0.253475	0.000006
C62	C	0.755132	-0.003475	0.250006
C63	C	1.005132	0.246525	0.500006
C64	C	1.255132	0.496525	0.750006
C65	C	1.131045	-0.052081	0.000044
C66	C	1.381045	0.197919	0.250044
C67	C	1.631045	0.447919	0.500044
C68	C	1.881045	0.697919	0.750044
C69	C	1.120198	0.054064	0.000059
C70	C	1.370198	0.304064	0.250059
C71	C	1.620198	0.554064	0.500059
C72	C	1.870198	0.804064	0.750059
C73	C	1.312797	-0.233834	0.000015
C74	C	1.562797	0.016166	0.250015
C75	C	1.812797	0.266166	0.500015
C76	C	2.062797	0.516166	0.750015
C77	C	1.418940	-0.244681	0.000011
C78	C	1.668940	0.005319	0.250011
C79	C	1.918940	0.255319	0.500011
C80	C	2.168940	0.505319	0.750011
N81	N	1.124472	-0.240413	-0.254218
N82	N	1.374472	0.009587	-0.004218
N83	N	1.624472	0.259587	0.245782
N84	N	1.874472	0.509587	0.495782
C85	C	1.177295	0.299519	0.000034
C86	C	1.427295	0.549519	0.250034
C87	C	1.677295	0.799519	0.500034
C88	C	1.927295	1.049519	0.750034
C89	C	1.100379	0.248396	0.000035
C90	C	1.350379	0.498396	0.250035
C91	C	1.600379	0.748396	0.500035
C92	C	1.850379	0.998396	0.750035
C93	C	1.111409	0.140259	0.000048
C94	C	1.361409	0.390259	0.250048
C95	C	1.611409	0.640259	0.500048
C96	C	1.861409	0.890259	0.750048
C97	C	1.166267	0.407665	0.000021
C98	C	1.416267	0.657665	0.250021
C99	C	1.666267	0.907665	0.500021
C100	C	1.916267	1.157665	0.750021
C101	C	1.146629	0.599999	-0.000012
C102	C	1.396629	0.849999	0.249988
C103	C	1.646629	1.099999	0.499988
C104	C	1.896629	1.349999	0.749988
C105	C	1.157472	0.493857	0.000010
C106	C	1.407472	0.743857	0.250010
C107	C	1.657472	0.993857	0.500010
C108	C	1.907472	1.243857	0.750010
C109	C	1.112112	-0.252766	-0.473337
C110	C	1.362112	-0.002766	-0.223337
C111	C	1.612112	0.247234	0.026663
C112	C	1.862112	0.497234	0.276663
C113	C	1.165568	-0.199311	-0.526650
C114	C	1.415568	0.050689	-0.276650
C115	C	1.665568	0.300689	-0.026650
C116	C	1.915568	0.550689	0.223350
C117	C	1.158691	-0.206185	-0.648575
C118	C	1.408691	0.043815	-0.398575
C119	C	1.658691	0.293815	-0.148575
C120	C	1.908691	0.543815	0.101425
C121	C	1.118988	-0.245894	-0.351401
C122	C	1.368988	0.004106	-0.101401
C123	C	1.618988	0.254106	0.148599
C124	C	1.868988	0.504106	0.398599
N125	N	1.153211	-0.211661	0.254239
N126	N	1.403211	0.038339	0.504239
N127	N	1.653211	0.288339	0.754239
N128	N	1.903211	0.538339	1.004239
H129	H	0.650721	-0.338630	-0.000021
H130	H	0.900721	-0.088630	0.249979
H131	H	1.150721	0.161370	0.499979
H132	H	1.400721	0.411370	0.749979
H133	H	0.626953	-0.113455	-0.000048
H134	H	0.876953	0.136545	0.249952
H135	H	1.126953	0.386545	0.499952
H136	H	1.376953	0.636545	0.749952
H137	H	1.026246	0.285841	0.000028
H138	H	1.276246	0.535841	0.250028
H139	H	1.526246	0.785841	0.500028
H140	H	1.776246	1.035841	0.750028
H141	H	1.251423	0.262077	0.000046
H142	H	1.501423	0.512077	0.250046
H143	H	1.751423	0.762077	0.500046
H144	H	2.001423	1.012077	0.750046
H145	H	1.216497	-0.148384	-0.480724
H146	H	1.466497	0.101616	-0.230724
H147	H	1.716497	0.351616	0.019276
H148	H	1.966497	0.601616	0.269276
H149	H	1.061185	-0.303689	-0.519258
H150	H	1.311185	-0.053689	-0.269258
H151	H	1.561185	0.196311	-0.019258
H152	H	1.811185	0.446311	0.230742
