data_functionalizedCrystal
_audit_creation_method	'MofGen! by Chris Wilmer'
_symmetry_space_group_name_H-M	'P1'
_symmetry_Int_Tables_number	1
_symmetry_cell_setting	triclinic
loop_
_symmetry_equiv_pos_as_xyz
  x,y,z
_cell_length_a	15.995350
_cell_length_b	17.666332
_cell_length_c	19.188924
_cell_angle_alpha	90.008552
_cell_angle_beta	83.317170
_cell_angle_gamma	90.005705
loop_
_atom_site_label
_atom_site_type_symbol
_atom_site_fract_x
_atom_site_fract_y
_atom_site_fract_z
O1	O	1.110659	0.062888	0.089998
O2	O	0.866843	0.062904	0.101111
O3	O	0.995790	0.062886	-0.006084
O4	O	0.981712	0.062905	0.197192
O5	O	0.995767	-0.063010	-0.006089
O6	O	0.866820	-0.062993	0.101105
O7	O	1.110636	-0.063009	0.089992
Cu8	Cu	0.988726	-0.074496	0.095548
Cu9	Cu	0.988753	0.074391	0.095555
O10	O	0.981689	-0.062992	0.197187
C11	C	0.835638	-0.000043	0.100649
C12	C	0.742693	-0.000037	0.099271
C13	C	0.404964	-0.000053	0.094325
C14	C	0.452680	-0.000341	0.017982
C15	C	0.549365	-0.000052	0.019360
C16	C	0.572515	-0.000046	0.096778
C17	C	0.531302	0.071848	0.134436
C18	C	0.434673	0.071903	0.132518
C19	C	0.434303	-0.071265	0.134089
C20	C	0.531248	-0.072210	0.134071
C21	C	0.667208	-0.000039	0.098169
C22	C	0.310271	-0.000055	0.092936
N23	N	0.988714	-0.179216	0.095543
C24	C	1.045830	-0.218833	0.048100
C25	C	1.045835	-0.298081	0.048097
C26	C	0.988731	-0.337708	0.095548
C27	C	0.931604	-0.298081	0.142994
C28	C	0.931596	-0.218835	0.142992
N29	N	0.977845	-0.462120	0.157328
N30	N	0.977858	-0.537401	0.157328
C31	C	0.988753	-0.576472	0.095558
N32	N	0.999651	-0.537419	0.033785
N33	N	0.999642	-0.462131	0.033786
C34	C	0.988734	-0.423637	0.095556
C35	C	1.045878	-0.702019	0.048108
C36	C	1.045877	-0.781268	0.048104
C37	C	0.931651	-0.781266	0.143007
C38	C	0.931648	-0.702019	0.143005
C39	C	0.988766	-0.662400	0.095556
C40	C	1.141841	-0.000061	0.090454
C41	C	1.234786	-0.000062	0.091832
C42	C	0.995324	-0.000063	-0.032099
C43	C	0.993958	-0.000065	-0.109607
N44	N	0.988772	0.179111	0.095554
C45	C	0.993333	0.068562	-0.146005
C46	C	0.992038	0.068568	-0.218831
C47	C	0.991385	-0.000057	-0.255258
C48	C	0.992005	-0.068692	-0.218851
C49	C	0.993292	-0.068696	-0.146026
N50	N	1.037003	-0.051136	-0.374808
N51	N	1.035783	-0.051127	-0.443989
C52	C	0.987506	-0.000049	-0.474677
N53	N	0.940507	0.051031	-0.433572
N54	N	0.941731	0.051025	-0.364384
C55	C	0.989989	-0.000060	-0.334225
C56	C	0.985476	0.068588	-0.590041
C57	C	0.984176	0.068591	-0.662868
C58	C	0.984151	-0.068671	-0.662888
C59	C	0.985443	-0.068672	-0.590062
C60	C	0.986109	-0.000040	-0.553643
C61	C	0.982155	-0.000041	0.223202
C62	C	0.983521	-0.000034	0.300710
H63	H	0.545217	0.074526	0.191313
H64	H	0.985959	-0.124555	-0.560427
H65	H	0.991471	-0.124567	-0.248515
H66	H	0.546404	-0.076548	0.190526
H67	H	0.577894	-0.051589	-0.010241
H68	H	0.434261	-0.051899	-0.012536
H69	H	0.983613	-0.124546	-0.692546
H70	H	0.433207	0.050927	-0.012391
H71	H	0.577342	0.051569	-0.010436
H72	H	0.416476	0.125641	0.105061
H73	H	0.402218	0.075170	0.188567
H74	H	0.559782	0.125348	0.108285
H75	H	0.413850	-0.125759	0.109129
H76	H	0.558657	-0.125397	0.106581
H77	H	1.092385	-0.669760	0.009470
H78	H	1.092337	-0.186578	0.009463
H79	H	0.402334	-0.071747	0.190376
H80	H	1.092347	-0.330343	0.009462
H81	H	1.092385	-0.813525	0.009466
H82	H	0.986013	0.124472	-0.560386
H83	H	0.885109	-0.330349	0.181629
H84	H	0.993873	0.124447	-0.116357
H85	H	0.885153	-0.813530	0.181640
H86	H	0.885084	-0.186578	0.181626
H87	H	0.885142	-0.669760	0.181640
H88	H	0.991524	0.124453	-0.248471
H89	H	0.993797	-0.124582	-0.116391
H90	H	0.983662	0.124478	-0.692501
