data_functionalizedCrystal
_audit_creation_method	'MofGen! by Chris Wilmer'
_symmetry_space_group_name_H-M	'P1'
_symmetry_Int_Tables_number	1
_symmetry_cell_setting	triclinic
loop_
_symmetry_equiv_pos_as_xyz
  x,y,z
_cell_length_a	19.121102
_cell_length_b	21.295417
_cell_length_c	19.120904
_cell_angle_alpha	92.408338
_cell_angle_beta	90.088173
_cell_angle_gamma	87.584620
loop_
_atom_site_label
_atom_site_type_symbol
_atom_site_fract_x
_atom_site_fract_y
_atom_site_fract_z
Zn1	Zn	1.054814	-0.307921	-0.442032
Zn2	Zn	1.554814	0.192079	0.057968
Zn3	Zn	1.059724	-0.408895	-0.324785
Zn4	Zn	1.559724	0.091105	0.175215
Zn5	Zn	0.942584	-0.298967	-0.319816
Zn6	Zn	1.442584	0.201033	0.180184
Zn7	Zn	0.937535	-0.408472	-0.436987
Zn8	Zn	1.437535	0.091528	0.063013
O9	O	0.998664	-0.356064	-0.380905
O10	O	1.498664	0.143936	0.119095
O11	O	1.153571	-0.325239	-0.430669
O12	O	1.653571	0.174761	0.069331
O13	O	1.048352	-0.390743	-0.226021
O14	O	1.548352	0.109257	0.273979
O15	O	0.957530	-0.212069	-0.336060
O16	O	1.457530	0.287931	0.163940
O17	O	1.157177	-0.399425	-0.344528
O18	O	1.657177	0.100575	0.155472
O19	O	1.039985	-0.218647	-0.425851
O20	O	1.539985	0.281353	0.074149
O21	O	0.962291	-0.309980	-0.222371
O22	O	1.462291	0.190020	0.277629
O23	O	0.843809	-0.309569	-0.331169
O24	O	1.343809	0.190431	0.168831
O25	O	0.948925	-0.398703	-0.535761
O26	O	1.448925	0.101297	-0.035761
O27	O	0.840100	-0.390022	-0.417254
O28	O	1.340100	0.109978	0.082746
O29	O	1.035089	-0.324829	-0.539467
O30	O	1.535089	0.175171	-0.039467
O31	O	1.043456	-0.496925	-0.339637
O32	O	1.543456	0.003075	0.160363
O33	O	0.953685	-0.496614	-0.422072
O34	O	1.453685	0.003386	0.077928
C35	C	0.816517	-0.348778	-0.373125
C36	C	1.316517	0.151222	0.126875
C37	C	0.738593	-0.345677	-0.369814
C38	C	1.238593	0.154323	0.130186
C39	C	0.700074	-0.386166	-0.413007
C40	C	1.200074	0.113834	0.086993
C41	C	0.626856	-0.383244	-0.409899
C42	C	1.126856	0.116756	0.090101
C43	C	0.592158	-0.339836	-0.363593
C44	C	1.092158	0.160164	0.136407
C45	C	0.630682	-0.299344	-0.320398
C46	C	1.130682	0.200656	0.179602
C47	C	0.703899	-0.302263	-0.323510
C48	C	1.203899	0.197737	0.176490
C49	C	0.371187	-0.328921	-0.351961
C50	C	0.871187	0.171079	0.148039
C51	C	0.297965	-0.326006	-0.348850
C52	C	0.797965	0.173994	0.151150
C53	C	0.294144	-0.409906	-0.438353
C54	C	0.794144	0.090094	0.061647
C55	C	0.367362	-0.412824	-0.441458
C56	C	0.867362	0.087176	0.058542
C57	C	0.405880	-0.372329	-0.398265
C58	C	0.905880	0.127671	0.101735
C59	C	0.517318	-0.336850	-0.360413
C60	C	1.017318	0.163150	0.139587
C61	C	0.480719	-0.375313	-0.401449
C62	C	0.980719	0.124687	0.098551
C63	C	0.998574	-0.519610	-0.380862
C64	C	1.498574	-0.019610	0.119138
C65	C	0.998599	-0.589580	-0.380870
C66	C	1.498599	-0.089580	0.119130
C67	C	1.045380	-0.622590	-0.337994
C68	C	1.545380	-0.122590	0.162006
C69	C	1.045413	-0.688335	-0.338011
C70	C	1.545413	-0.188335	0.161989
C71	C	0.998651	-0.721065	-0.380897
C72	C	1.498651	-0.221065	0.119103
C73	C	0.951865	-0.688046	-0.423781
C74	C	1.451865	-0.188046	0.076219
C75	C	0.951839	-0.622304	-0.423768
C76	C	1.451839	-0.122304	0.076232
N77	N	0.937094	-0.822078	-0.383622
N78	N	1.437094	-0.322078	0.116378
N79	N	0.937121	-0.884530	-0.383630
N80	N	1.437121	-0.384530	0.116370
C81	C	0.998728	-0.919144	-0.380940
C82	C	1.498728	-0.419144	0.119060
N83	N	1.060308	-0.888946	-0.378228
N84	N	1.560308	-0.388946	0.121772
N85	N	1.060281	-0.826487	-0.378215
N86	N	1.560281	-0.326487	0.121785
C87	C	0.998674	-0.792352	-0.380916
C88	C	1.498674	-0.292352	0.119084
C89	C	1.045548	-1.023443	-0.338080
C90	C	1.545548	-0.523443	0.161920
C91	C	1.045581	-1.089189	-0.338103
C92	C	1.545581	-0.589189	0.161897
C93	C	0.952028	-1.088899	-0.423869
C94	C	1.452028	-0.588899	0.076131
C95	C	0.952001	-1.023154	-0.423850
C96	C	1.452001	-0.523154	0.076150
C97	C	0.998760	-0.990430	-0.380953
C98	C	1.498760	-0.490430	0.119047
C99	C	1.181523	-0.363378	-0.388716
C100	C	1.681523	0.136622	0.111284
C101	C	1.259446	-0.366495	-0.392044
C102	C	1.759446	0.133505	0.107956
C103	C	0.990896	-0.362718	-0.563763
C104	C	1.490896	0.137282	-0.063763
C105	C	0.987586	-0.365553	-0.641686
C106	C	1.487586	0.134447	-0.141686
C107	C	0.998773	-0.191880	-0.380964
C108	C	1.498773	0.308120	0.119036
C109	C	0.998820	-0.121914	-0.380989
C110	C	1.498820	0.378086	0.119011
C111	C	1.030890	-0.328425	-0.680225
C112	C	1.530890	0.171575	-0.180225
C113	C	1.027771	-0.331086	-0.753441
C114	C	1.527771	0.168914	-0.253441
C115	C	0.981351	-0.370880	-0.788118
C116	C	1.481351	0.129120	-0.288118
C117	C	0.938043	-0.408010	-0.749573
C118	C	1.438043	0.091990	-0.249573
C119	C	0.941159	-0.405345	-0.676358
C120	C	1.441159	0.094655	-0.176358
C121	C	0.969696	-0.380849	-1.009084
C122	C	1.469696	0.119151	-0.509084
C123	C	0.966585	-0.383513	-1.082305
C124	C	1.466585	0.116487	-0.582305
C125	C	1.056312	-0.306588	-1.086168
C126	C	1.556312	0.193412	-0.586168
C127	C	1.059427	-0.303929	-1.012951
C128	C	1.559427	0.196071	-0.512951
C129	C	1.016116	-0.341056	-0.974413
C130	C	1.516116	0.158944	-0.474413
C131	C	0.978164	-0.373603	-0.862957
C132	C	1.478164	0.126397	-0.362957
C133	C	1.019300	-0.338330	-0.899575
C134	C	1.519300	0.161670	-0.399575
C135	C	1.006442	-0.349392	-0.198761
C136	C	1.506442	0.150608	0.301239
C137	C	1.009889	-0.346384	-0.120844
C138	C	1.509889	0.153616	0.379156
H139	H	0.595497	-0.416215	-0.445071
H140	H	1.095497	0.083785	0.054929
H141	H	0.913793	-0.714700	-0.458700
H142	H	1.413793	-0.214700	0.041300
H143	H	1.083625	-0.996798	-0.303153
H144	H	1.583625	-0.496798	0.196847
C145	C	1.081311	-0.285156	-0.642707
C146	C	1.581311	0.214844	-0.142707
C147	C	1.118552	-0.253197	-0.692132
C148	C	1.618552	0.246803	-0.192132
C149	C	1.164999	-0.213324	-0.657599
C150	C	1.664999	0.286676	-0.157599
H151	H	1.113120	-0.309348	-0.615443
H152	H	1.613120	0.190652	-0.115443
H153	H	1.055741	-0.255584	-0.613024
H154	H	1.555741	0.244416	-0.113024
H155	H	1.144121	-0.282765	-0.721802
H156	H	1.644121	0.217235	-0.221802
H157	H	1.086762	-0.228993	-0.719398
H158	H	1.586762	0.271007	-0.219398
H159	H	1.139429	-0.183752	-0.627916
H160	H	1.639429	0.316248	-0.127916
H161	H	1.196803	-0.237521	-0.630336
H162	H	1.696803	0.262479	-0.130336
H163	H	1.190268	-0.191631	-0.691128
H164	H	1.690268	0.308369	-0.191128
H165	H	1.091573	-0.276360	-1.117553
H166	H	1.591573	0.223640	-0.617553
H167	H	1.063035	-0.300854	-0.784817
H168	H	1.563035	0.199146	-0.284817
C169	C	0.518476	-0.422344	-0.451767
C170	C	1.018476	0.077656	0.048233
C171	C	0.558639	-0.390079	-0.498551
C172	C	1.058639	0.109921	0.001449
C173	C	0.593445	-0.433385	-0.544906
C174	C	1.093445	0.066615	-0.044906
H175	H	0.485130	-0.446064	-0.477118
H176	H	0.985130	0.053936	0.022882
H177	H	0.548200	-0.449882	-0.426122
H178	H	1.048200	0.050118	0.073878
H179	H	0.528918	-0.362552	-0.524194
H180	H	1.028918	0.137448	-0.024194
H181	H	0.591997	-0.366361	-0.473220
H182	H	1.091997	0.133639	0.026780
H183	H	0.623169	-0.460923	-0.519260
H184	H	1.123169	0.039077	-0.019260
H185	H	0.560094	-0.457103	-0.570251
H186	H	1.060094	0.042897	-0.070251
H187	H	0.620705	-0.411500	-0.576650
H188	H	1.120705	0.088500	-0.076650
H189	H	0.928782	-0.415919	-1.110536
H190	H	1.428782	0.084081	-0.610536
H191	H	1.083510	-0.715218	-0.303097
H192	H	1.583510	-0.215218	0.196903
C193	C	0.894059	-0.445552	-0.634477
C194	C	1.394059	0.054448	-0.134477
C195	C	0.850920	-0.406586	-0.590548
C196	C	1.350920	0.093414	-0.090548
C197	C	0.807513	-0.443603	-0.551967
C198	C	1.307513	0.056397	-0.051967
H199	H	0.921993	-0.473020	-0.606992
H200	H	1.421993	0.026980	-0.106992
H201	H	0.865930	-0.469620	-0.665594
H202	H	1.365930	0.030380	-0.165594
H203	H	0.879046	-0.382529	-0.559435
H204	H	1.379046	0.117471	-0.059435
H205	H	0.822971	-0.379118	-0.618015
H206	H	1.322971	0.120882	-0.118015
H207	H	0.779384	-0.467670	-0.583084
H208	H	1.279384	0.032330	-0.083084
H209	H	0.835453	-0.471069	-0.524487
H210	H	1.335453	0.028931	-0.024487
H211	H	0.778234	-0.417170	-0.522162
H212	H	1.278234	0.082830	-0.022162
C213	C	0.922632	-0.421221	-0.967374
C214	C	1.422632	0.078779	-0.467374
C215	C	0.881323	-0.456647	-1.013416
C216	C	1.381323	0.043353	-0.513416
C217	C	0.837958	-0.493847	-0.975015
C218	C	1.337958	0.006153	-0.475015
H219	H	0.893257	-0.394937	-0.937518
H220	H	1.393257	0.105063	-0.437518
H221	H	0.950615	-0.448718	-0.939955
H222	H	1.450615	0.051282	-0.439955
H223	H	0.853342	-0.429153	-1.040823
H224	H	1.353342	0.070847	-0.540823
H225	H	0.910679	-0.482943	-1.043272
H226	H	1.410679	0.017057	-0.543272
H227	H	0.865942	-0.521345	-0.947596
H228	H	1.365942	-0.021345	-0.447596
H229	H	0.808588	-0.467558	-0.945161
H230	H	1.308588	0.032442	-0.445161
H231	H	0.809930	-0.517893	-1.006248
H232	H	1.309930	-0.017893	-0.506248
C233	C	1.069720	-0.295063	-0.862057
C234	C	1.569720	0.204937	-0.362057
C235	C	1.106972	-0.263105	-0.911474
C236	C	1.606972	0.236895	-0.411474
C237	C	1.153420	-0.223239	-0.876931
C238	C	1.653420	0.276761	-0.376931
H239	H	1.101523	-0.319261	-0.834792
H240	H	1.601523	0.180739	-0.334792
H241	H	1.044150	-0.265491	-0.832374
H242	H	1.544150	0.234509	-0.332374
H243	H	1.132540	-0.292673	-0.941144
H244	H	1.632540	0.207327	-0.441144
H245	H	1.075187	-0.238895	-0.938741
H246	H	1.575187	0.261105	-0.438741
H247	H	1.127850	-0.193667	-0.847249
H248	H	1.627850	0.306333	-0.347249
H249	H	1.185218	-0.247441	-0.849667
H250	H	1.685218	0.252559	-0.349667
H251	H	1.178696	-0.201546	-0.910455
H252	H	1.678696	0.298454	-0.410455
H253	H	0.489059	-0.301509	-0.322710
H254	H	0.989059	0.198491	0.177290
H255	H	0.913743	-0.595426	-0.458684
H256	H	1.413743	-0.095426	0.041316
C257	C	0.593105	-0.252250	-0.270014
C258	C	1.093105	0.247750	0.229986
C259	C	0.613855	-0.264032	-0.201379
C260	C	1.113855	0.235968	0.298621
C261	C	0.579261	-0.220657	-0.154945
C262	C	1.079261	0.279343	0.345055
H263	H	0.543977	-0.256268	-0.274250
H264	H	1.043977	0.243732	0.225750
H265	H	0.604704	-0.210813	-0.280832
H266	H	1.104704	0.289187	0.219168
H267	H	0.602251	-0.305458	-0.190564
H268	H	1.102251	0.194542	0.309436
H269	H	0.662978	-0.260009	-0.197120
H270	H	1.162978	0.239991	0.302880
H271	H	0.590860	-0.179220	-0.165763
H272	H	1.090860	0.320780	0.334237
H273	H	0.530134	-0.224678	-0.159188
H274	H	1.030134	0.275322	0.340812
H275	H	0.593339	-0.228641	-0.108372
H276	H	1.093339	0.271359	0.391628
H277	H	1.083681	-1.116065	-0.303189
H278	H	1.583681	-0.616065	0.196811
H279	H	0.900244	-0.440409	-0.777813
H280	H	1.400244	0.059591	-0.277813
H281	H	1.097229	-0.271526	-0.984722
H282	H	1.597229	0.228474	-0.484722
H283	H	0.940372	-0.406006	-0.891199
H284	H	1.440372	0.093994	-0.391199
C285	C	0.404902	-0.459975	-0.491806
C286	C	0.904902	0.040025	0.008194
C287	C	0.355496	-0.494799	-0.528981
C288	C	0.855496	0.005201	-0.028981
C289	C	0.390052	-0.538237	-0.575371
C290	C	0.890052	-0.038237	-0.075371
H291	H	0.434584	-0.487583	-0.466220
H292	H	0.934584	0.012417	0.033780
H293	H	0.432168	-0.438206	-0.523653
H294	H	0.932168	0.061794	-0.023653
H295	H	0.328242	-0.516566	-0.497137
H296	H	0.828242	-0.016566	0.002863
H297	H	0.325812	-0.467208	-0.554581
H298	H	0.825812	0.032792	-0.054581
H299	H	0.417317	-0.516468	-0.607219
H300	H	0.917317	-0.016468	-0.107219
H301	H	0.419733	-0.565840	-0.549780
H302	H	0.919733	-0.065840	-0.049780
H303	H	0.356535	-0.561866	-0.600604
H304	H	0.856535	-0.061866	-0.100604
C305	C	0.901290	-1.124538	-0.470359
C306	C	1.401290	-0.624538	0.029641
C307	C	0.911315	-1.189179	-0.461185
C308	C	1.411315	-0.689179	0.038815
C309	C	0.864583	-1.222032	-0.503998
C310	C	1.364583	-0.722032	-0.003998
H311	H	0.909462	-1.115931	-0.517931
H312	H	1.409462	-0.615931	-0.017931
H313	H	0.854611	-1.111588	-0.458041
H314	H	1.354611	-0.611588	0.041959
H315	H	0.957983	-1.202124	-0.473508
H316	H	1.457983	-0.702124	0.026492
H317	H	0.903137	-1.197804	-0.413622
H318	H	1.403137	-0.697804	0.086378
H319	H	0.817904	-1.209082	-0.491680
H320	H	1.317904	-0.709082	0.008320
H321	H	0.872759	-1.213420	-0.551568
H322	H	1.372759	-0.713420	-0.051568
H323	H	0.871374	-1.265893	-0.497775
H324	H	1.371374	-0.765893	0.002225
C325	C	1.096232	-0.587178	-0.291406
C326	C	1.596232	-0.087178	0.208594
C327	C	1.137223	-0.630166	-0.253875
C328	C	1.637223	-0.130166	0.246125
C329	C	1.184083	-0.597567	-0.210961
C330	C	1.684083	-0.097567	0.289039
H331	H	1.070812	-0.559380	-0.259629
H332	H	1.570812	-0.059380	0.240371
H333	H	1.125645	-0.563710	-0.319536
H334	H	1.625645	-0.063710	0.180464
H335	H	1.107814	-0.653625	-0.225747
H336	H	1.607814	-0.153625	0.274253
H337	H	1.162658	-0.657966	-0.285634
H338	H	1.662658	-0.157966	0.214366
H339	H	1.213496	-0.574098	-0.239091
H340	H	1.713496	-0.074098	0.260909
H341	H	1.158657	-0.569770	-0.179189
H342	H	1.658657	-0.069770	0.320811
H343	H	1.211905	-0.626730	-0.185496
H344	H	1.711905	-0.126730	0.314504
H345	H	0.728320	-0.421515	-0.450712
H346	H	1.228320	0.078485	0.049288
H347	H	0.269716	-0.290651	-0.311147
H348	H	0.769716	0.209349	0.188853
C349	C	0.901122	-0.987421	-0.470418
C350	C	1.401122	-0.487421	0.029582
C351	C	0.860163	-1.030152	-0.507966
C352	C	1.360163	-0.530152	-0.007966
C353	C	0.813279	-0.997257	-0.550867
C354	C	1.313279	-0.497257	-0.050867
H355	H	0.926524	-0.963918	-0.502184
H356	H	1.426524	-0.463918	-0.002184
H357	H	0.871691	-0.959628	-0.442277
H358	H	1.371691	-0.459628	0.057723
H359	H	0.889591	-1.057933	-0.536105
H360	H	1.389591	-0.557933	-0.036105
H361	H	0.834747	-1.053656	-0.476218
H362	H	1.334747	-0.553656	0.023782
H363	H	0.783847	-0.969465	-0.522726
H364	H	1.283847	-0.469465	-0.022726
H365	H	0.838686	-0.973755	-0.582629
H366	H	1.338686	-0.473755	-0.082629
H367	H	0.785478	-1.026245	-0.576343
H368	H	1.285478	-0.526245	-0.076343
H369	H	0.262775	-0.442874	-0.473519
H370	H	0.762775	0.057126	0.026481
H371	H	0.735260	-0.269289	-0.288341
H372	H	1.235260	0.230711	0.211659
C373	C	0.412877	-0.284924	-0.304985
C374	C	0.912877	0.215076	0.195015
C375	C	0.366817	-0.246298	-0.263756
C376	C	0.866817	0.253702	0.236244
C377	C	0.405199	-0.205762	-0.220467
C378	C	0.905199	0.294238	0.279533
H379	H	0.440319	-0.259592	-0.333000
H380	H	0.940319	0.240408	0.167000
H381	H	0.442709	-0.308965	-0.275563
H382	H	0.942709	0.191035	0.224437
H383	H	0.336996	-0.222259	-0.293175
H384	H	0.836996	0.277741	0.206825
H385	H	0.339374	-0.271613	-0.235727
H386	H	0.839374	0.228387	0.264273
H387	H	0.435032	-0.229803	-0.191044
H388	H	0.935032	0.270197	0.308956
H389	H	0.432640	-0.180434	-0.248486
H390	H	0.932640	0.319566	0.251514
H391	H	0.373953	-0.179554	-0.192483
H392	H	0.873953	0.320446	0.307517
