data_functionalizedCrystal
_audit_creation_method	'MofGen! by Chris Wilmer'
_symmetry_space_group_name_H-M	'P1'
_symmetry_Int_Tables_number	1
_symmetry_cell_setting	triclinic
loop_
_symmetry_equiv_pos_as_xyz
  x,y,z
_cell_length_a	10.540539
_cell_length_b	17.038272
_cell_length_c	9.616153
_cell_angle_alpha	89.997688
_cell_angle_beta	89.995174
_cell_angle_gamma	87.818524
loop_
_atom_site_label
_atom_site_type_symbol
_atom_site_fract_x
_atom_site_fract_y
_atom_site_fract_z
O1	O	1.696176	0.110247	-0.115581
O2	O	1.327732	0.120634	-0.115599
O3	O	1.509764	0.001613	-0.115579
O4	O	1.514144	0.229269	-0.115601
O5	O	1.509738	0.001615	0.115712
O6	O	1.327705	0.120637	0.115693
O7	O	1.696149	0.110249	0.115710
Zn8	Zn	1.511923	0.115443	0.152424
Zn9	Zn	1.511958	0.115440	-0.152313
O10	O	1.514117	0.229271	0.115690
C11	C	1.280343	0.119857	0.000045
C12	C	1.139177	0.117526	0.000039
C13	C	1.505768	-0.027537	0.000066
C14	C	1.493883	-0.114398	0.000065
C15	C	0.947420	0.028219	0.000587
C16	C	1.094259	0.030581	0.000051
C17	C	1.081423	0.159366	-0.132039
C18	C	0.934602	0.156399	-0.132135
C19	C	0.934248	0.158170	0.130886
C20	C	1.081305	0.158971	0.132618
C21	C	1.602994	-0.163886	0.000072
C22	C	1.591820	-0.245501	0.000058
C23	C	1.471534	-0.277626	0.000048
C24	C	1.362416	-0.228133	0.000037
C25	C	1.373591	-0.146519	0.000041
C26	C	1.432055	-0.523611	0.000027
C27	C	1.420888	-0.605231	0.000027
C28	C	1.650293	-0.622593	0.000046
C29	C	1.661457	-0.540977	0.000058
C30	C	1.552339	-0.491491	0.000040
C31	C	1.460110	-0.361050	0.000038
C32	C	1.563764	-0.408069	0.000040
C33	C	1.743538	0.111027	0.000063
C34	C	1.884704	0.113358	0.000061
C35	C	1.518114	0.258421	0.000042
C36	C	1.529998	0.345282	0.000034
N37	N	1.511909	0.115445	0.360398
N38	N	1.511982	0.115432	-0.360287
C39	C	1.414198	0.178900	0.580758
C40	C	1.414448	0.179138	0.419590
C41	C	1.646364	0.134015	0.418852
C42	C	1.645842	0.134465	0.580070
C43	C	1.476466	0.033212	0.580316
C44	C	1.473469	0.033745	0.419089
H45	H	1.133791	-0.002340	0.094731
C46	C	1.686278	0.215508	0.630847
N47	N	1.716726	0.276553	0.669085
C48	C	1.312019	-0.469186	-0.000001
N49	N	1.221603	-0.428190	-0.000025
C50	C	1.346226	0.009351	0.635295
N51	N	1.248124	-0.008611	0.676705
C52	C	1.445706	0.260844	0.635460
N53	N	1.469442	0.322563	0.676664
H54	H	1.547672	-0.014028	0.618440
C55	C	1.288559	-0.640566	0.000005
N56	N	1.188894	-0.667181	-0.000011
C57	C	0.904446	-0.018184	0.128548
N58	N	0.872067	-0.053136	0.224930
H59	H	1.264477	-0.254296	0.000020
C60	C	1.747502	0.073273	0.367048
N61	N	1.823678	0.027520	0.328026
C62	C	1.253561	-0.092083	0.000037
N63	N	1.163150	-0.051082	0.000030
C64	C	0.902297	-0.017997	-0.126638
N65	N	0.868305	-0.052805	-0.222464
C66	C	1.279808	0.164057	0.366199
N67	N	1.178389	0.152703	0.325992
H68	H	1.661700	-0.381909	0.000017
C69	C	1.146497	-0.014207	-0.128074
N70	N	1.185841	-0.047942	-0.224585
H71	H	1.374518	0.019669	0.380886
H72	H	1.109732	0.223216	-0.136959
C73	C	1.446324	0.261546	0.367458
N74	N	1.470341	0.323619	0.328194
C75	C	0.878356	0.243008	0.132088
N76	N	0.836250	0.306905	0.132984
H77	H	1.539379	-0.015754	0.378802
H78	H	0.903518	0.125473	-0.230858
H79	H	1.721346	0.090100	0.619066
H80	H	1.700943	-0.137736	0.000089
H81	H	1.676794	0.193323	0.378457
H82	H	0.892466	0.218928	-0.138136
C83	C	1.135299	0.120095	-0.264827
N84	N	1.175875	0.090510	-0.364839
C85	C	1.122040	0.244603	0.143401
N86	N	1.152729	0.309102	0.151519
C87	C	0.888082	0.120154	0.266137
N88	N	0.853312	0.091510	0.368001
C89	C	1.711851	-0.299934	0.000088
N90	N	1.802264	-0.340932	0.000117
H91	H	1.759406	-0.514827	0.000067
C92	C	1.770314	-0.677034	0.000053
N93	N	1.860720	-0.718040	0.000051
H94	H	1.119404	0.128406	0.230328
H95	H	1.314247	0.167898	0.619566
H96	H	1.362173	-0.387215	0.000033
