data_functionalizedCrystal
_audit_creation_method	'MofGen! by Chris Wilmer'
_symmetry_space_group_name_H-M	'P1'
_symmetry_Int_Tables_number	1
_symmetry_cell_setting	triclinic
loop_
_symmetry_equiv_pos_as_xyz
  x,y,z
_cell_length_a	12.759401
_cell_length_b	12.759400
_cell_length_c	12.759401
_cell_angle_alpha	90.007905
_cell_angle_beta	90.006940
_cell_angle_gamma	90.016209
loop_
_atom_site_label
_atom_site_type_symbol
_atom_site_fract_x
_atom_site_fract_y
_atom_site_fract_z
Zn1	Zn	1.606121	-0.418407	0.594020
Zn2	Zn	1.606055	-0.594053	0.418340
Zn3	Zn	1.430463	-0.418394	0.418355
Zn4	Zn	1.430412	-0.594049	0.593977
O5	O	1.518263	-0.506226	0.506173
O6	O	1.753134	-0.441714	0.570727
O7	O	1.582756	-0.570748	0.271321
O8	O	1.453813	-0.271374	0.441681
O9	O	1.753085	-0.570761	0.441656
O10	O	1.582869	-0.271384	0.570742
O11	O	1.453749	-0.441691	0.271332
O12	O	1.283435	-0.441687	0.441640
O13	O	1.453726	-0.570754	0.741004
O14	O	1.283398	-0.570741	0.570669
O15	O	1.582819	-0.441710	0.741035
O16	O	1.582707	-0.741074	0.441614
O17	O	1.453663	-0.741071	0.570654
C18	C	1.245296	-0.506213	0.506152
C19	C	1.128519	-0.506233	0.506168
C20	C	1.518201	-0.779193	0.506151
C21	C	1.518270	-0.895970	0.506177
C22	C	1.073665	-0.573533	0.573248
C23	C	0.963941	-0.573537	0.573268
C24	C	0.963934	-0.438937	0.439121
C25	C	1.073656	-0.438929	0.439106
C26	C	1.585538	-0.950798	0.439060
C27	C	1.585602	-1.060522	0.439092
C28	C	1.451122	-1.060579	0.573361
C29	C	1.451064	-0.950857	0.573333
C30	C	1.663176	-0.950766	0.361538
C31	C	1.663241	-1.060491	0.361570
C32	C	1.792296	-0.506239	0.506194
C33	C	1.909073	-0.506245	0.506204
C34	C	1.518275	-0.506233	0.780206
C35	C	1.518279	-0.506236	0.896983
C36	C	1.518354	-0.232192	0.506218
C37	C	1.518393	-0.115416	0.506237
C38	C	1.585490	-0.439054	0.951863
C39	C	1.585481	-0.439052	1.061587
C40	C	1.451048	-0.573423	1.061541
C41	C	1.451053	-0.573419	0.951819
C42	C	1.518250	-0.506242	1.233206
C43	C	1.518266	-0.506238	1.116429
H44	H	1.118331	-0.628333	0.627856
O45	O	1.378500	-0.891715	0.645711
H46	H	1.331766	-0.948318	0.692397
O47	O	1.657992	-0.366586	0.892722
H48	H	1.711439	-0.413611	0.842743
H49	H	1.396317	-0.628123	1.106203
O50	O	1.765620	-1.105483	0.400273
H51	H	1.830362	-1.078558	0.348788
O52	O	1.378625	-1.119786	0.645775
H53	H	1.425632	-1.169724	0.699277
H54	H	1.396315	-0.628126	0.907135
H55	H	1.640208	-0.384344	1.106265
H56	H	0.919252	-0.384143	0.384520
O57	O	1.624624	-0.905742	0.259115
H58	H	1.687178	-0.856749	0.223693
H59	H	0.919284	-0.628338	0.627893
H60	H	1.118320	-0.384118	0.384482
O61	O	1.634474	-1.100002	0.253772
H62	H	1.699642	-1.148261	0.222314
O63	O	1.770910	-0.911210	0.390488
H64	H	1.823699	-0.978861	0.404695
