data_functionalizedCrystal
_audit_creation_method	'MofGen! by Chris Wilmer'
_symmetry_space_group_name_H-M	'P1'
_symmetry_Int_Tables_number	1
_symmetry_cell_setting	triclinic
loop_
_symmetry_equiv_pos_as_xyz
  x,y,z
_cell_length_a	12.759401
_cell_length_b	18.050589
_cell_length_c	12.759393
_cell_angle_alpha	89.970454
_cell_angle_beta	89.979062
_cell_angle_gamma	90.029746
loop_
_atom_site_label
_atom_site_type_symbol
_atom_site_fract_x
_atom_site_fract_y
_atom_site_fract_z
Zn1	Zn	1.606168	-0.295593	-0.594027
Zn2	Zn	1.939501	0.037740	-0.260694
Zn3	Zn	2.272834	0.371073	0.072640
Zn4	Zn	1.606017	-0.419801	-0.418350
Zn5	Zn	1.939351	-0.086468	-0.085017
Zn6	Zn	2.272684	0.246865	0.248317
Zn7	Zn	1.430466	-0.295633	-0.418362
Zn8	Zn	1.763800	0.037701	-0.085029
Zn9	Zn	2.097133	0.371034	0.248304
Zn10	Zn	1.430417	-0.419749	-0.593987
Zn11	Zn	1.763750	-0.086416	-0.260654
Zn12	Zn	2.097084	0.246917	0.072679
O13	O	1.518267	-0.357694	-0.506182
O14	O	1.851600	-0.024361	-0.172848
O15	O	2.184934	0.308973	0.160485
O16	O	1.753169	-0.312075	-0.570735
O17	O	2.086502	0.021258	-0.237401
O18	O	2.419835	0.354592	0.095932
O19	O	1.582688	-0.403368	-0.271331
O20	O	1.916021	-0.070035	0.062003
O21	O	2.249355	0.263298	0.395336
O22	O	1.453857	-0.191703	-0.441686
O23	O	1.787191	0.141630	-0.108353
O24	O	2.120524	0.474964	0.224980
O25	O	1.753058	-0.403330	-0.441666
O26	O	2.086392	-0.069997	-0.108332
O27	O	2.419725	0.263337	0.225001
O28	O	1.582944	-0.191674	-0.570746
O29	O	1.916278	0.141659	-0.237413
O30	O	2.249611	0.474993	0.095920
O31	O	1.453711	-0.312142	-0.271339
O32	O	1.787045	0.021191	0.061994
O33	O	2.120378	0.354524	0.395327
O34	O	1.283439	-0.312092	-0.441648
O35	O	1.616772	0.021241	-0.108314
O36	O	1.950105	0.354575	0.225019
O37	O	1.453773	-0.403241	-0.741014
O38	O	1.787106	-0.069908	-0.407680
O39	O	2.120439	0.263425	-0.074347
O40	O	1.283402	-0.403280	-0.570679
O41	O	1.616736	-0.069946	-0.237345
O42	O	1.950069	0.263387	0.095988
O43	O	1.582896	-0.312025	-0.741043
O44	O	1.916229	0.021309	-0.407710
O45	O	2.249563	0.354642	-0.074376
O46	O	1.582640	-0.523719	-0.441627
O47	O	1.915973	-0.190386	-0.108294
O48	O	2.249307	0.142948	0.225040
O49	O	1.453627	-0.523681	-0.570667
O50	O	1.786960	-0.190347	-0.237334
O51	O	2.120294	0.142986	0.096000
C52	C	1.245300	-0.357685	-0.506161
C53	C	1.578633	-0.024352	-0.172827
C54	C	1.911966	0.308982	0.160506
C55	C	1.128523	-0.357699	-0.506177
C56	C	1.461856	-0.024366	-0.172843
C57	C	1.795190	0.308968	0.160490
C58	C	1.518140	-0.550646	-0.506164
C59	C	1.851474	-0.217313	-0.172831
C60	C	2.184807	0.116020	0.160502
C61	C	1.518182	-0.633192	-0.506192
C62	C	1.851515	-0.299859	-0.172859
C63	C	2.184849	0.033475	0.160475
C64	C	1.073670	-0.405253	-0.573257
C65	C	1.407003	-0.071920	-0.239924
C66	C	1.740336	0.261414	0.093409
C67	C	0.963946	-0.405256	-0.573278
C68	C	1.297279	-0.071922	-0.239945
C69	C	1.630612	0.261411	0.093388
C70	C	0.963938	-0.310149	-0.439129
C71	C	1.297271	0.023184	-0.105795
C72	C	1.630605	0.356518	0.227538
C73	C	1.073660	-0.310143	-0.439114
C74	C	1.406993	0.023190	-0.105781
C75	C	1.740327	0.356524	0.227553
C76	C	1.448094	-0.832649	-0.576339
C77	C	1.781427	-0.499316	-0.243006
C78	C	2.114761	-0.165982	0.090327
C79	C	1.422478	-0.882097	-0.480470
C80	C	1.755811	-0.548763	-0.147137
C81	C	2.089144	-0.215430	0.186196
C82	C	1.518285	-0.784322	-0.506206
C83	C	1.851619	-0.450989	-0.172872
C84	C	2.184952	-0.117656	0.160461
C85	C	1.543953	-0.881956	-0.602085
C86	C	1.877286	-0.548623	-0.268752
C87	C	2.210620	-0.215290	0.064581
C88	C	1.518383	-0.930307	-0.506227
C89	C	1.851716	-0.596974	-0.172894
C90	C	2.185050	-0.263641	0.160439
C91	C	1.492619	-0.832683	-0.410286
C92	C	1.825952	-0.499350	-0.076953
C93	C	2.159286	-0.166016	0.256381
C94	C	1.614139	-0.832538	-0.531966
C95	C	1.947472	-0.499205	-0.198632
C96	C	2.280805	-0.165871	0.134701
C97	C	1.588559	-0.881964	-0.436031
C98	C	1.921892	-0.548630	-0.102697
C99	C	2.255226	-0.215297	0.230636
C100	C	1.518226	-0.700224	-0.506194
C101	C	1.851560	-0.366891	-0.172861
C102	C	2.184893	-0.033557	0.160472
C103	C	1.518442	-1.014404	-0.506228
C104	C	1.851776	-0.681071	-0.172894
C105	C	2.185109	-0.347737	0.160439
C106	C	1.792300	-0.357704	-0.506203
C107	C	2.125634	-0.024370	-0.172870
C108	C	2.458967	0.308963	0.160463
C109	C	1.909077	-0.357708	-0.506212
C110	C	2.242410	-0.024375	-0.172879
C111	C	2.575744	0.308959	0.160454
C112	C	1.518346	-0.357623	-0.780215
C113	C	1.851679	-0.024290	-0.446882
C114	C	2.185012	0.309044	-0.113548
C115	C	1.518379	-0.357592	-0.896992
C116	C	1.851713	-0.024259	-0.563658
C117	C	2.185046	0.309074	-0.230325
C118	C	1.518423	-0.163989	-0.506222
C119	C	1.851756	0.169345	-0.172889
C120	C	2.185090	0.502678	0.160445
C121	C	1.518489	-0.081443	-0.506239
C122	C	1.851823	0.251891	-0.172906
C123	C	2.185156	0.585224	0.160427
C124	C	1.585619	-0.310088	-0.951871
C125	C	1.918952	0.023245	-0.618537
C126	C	2.252285	0.356578	-0.285204
C127	C	1.585637	-0.310056	-1.061595
C128	C	1.918970	0.023277	-0.728262
C129	C	2.252303	0.356610	-0.394928
C130	C	1.451172	-0.405039	-1.061552
C131	C	1.784506	-0.071706	-0.728218
C132	C	2.117839	0.261628	-0.394885
C133	C	1.451150	-0.405067	-0.951829
C134	C	1.784483	-0.071733	-0.618496
C135	C	2.117817	0.261600	-0.285163
C136	C	1.518249	-0.357712	-0.233214
C137	C	1.851583	-0.024378	0.100119
C138	C	2.184916	0.308955	0.433452
C139	C	1.518419	-0.357533	-0.116438
C140	C	1.851753	-0.024199	0.216895
C141	C	2.185086	0.309134	0.550229
H142	H	1.118336	-0.443974	-0.627867
H143	H	1.451669	-0.110641	-0.294534
H144	H	1.785003	0.222692	0.038800
H145	H	1.396439	-0.443693	-1.106214
H146	H	1.729772	-0.110359	-0.772880
H147	H	2.063106	0.222974	-0.439547
F148	F	1.132043	-0.259523	-0.367719
F149	F	1.465376	0.073810	-0.034386
F150	F	1.798709	0.407144	0.298948
H151	H	0.919289	-0.443978	-0.627904
H152	H	1.252622	-0.110644	-0.294570
H153	H	1.585955	0.222689	0.038763
F154	F	0.905540	-0.259540	-0.367758
F155	F	1.238873	0.073793	-0.034425
F156	F	1.572206	0.407127	0.298908
F157	F	1.379576	-0.455627	-0.893420
F158	F	1.712909	-0.122293	-0.560086
F159	F	2.046242	0.211040	-0.226753
H160	H	1.388648	-0.810995	-0.635565
H161	H	1.721981	-0.477662	-0.302232
H162	H	2.055315	-0.144328	0.031102
H163	H	1.565624	-0.903600	-0.683161
H164	H	1.898957	-0.570267	-0.349828
H165	H	2.232290	-0.236934	-0.016495
H166	H	1.341464	-0.903882	-0.458702
H167	H	1.674797	-0.570548	-0.125369
H168	H	2.008130	-0.237215	0.207965
H169	H	1.470854	-0.811128	-0.329188
H170	H	1.804188	-0.477795	0.004146
H171	H	2.137521	-0.144462	0.337479
F172	F	1.666202	-0.910088	-0.358435
F173	F	1.999536	-0.576755	-0.025101
F174	F	2.332869	-0.243422	0.308232
F175	F	1.657167	-0.259560	-0.893512
F176	F	1.990501	0.073773	-0.560179
F177	F	2.323834	0.407107	-0.226845
F178	F	1.720007	-0.804064	-0.560478
F179	F	2.053340	-0.470731	-0.227145
F180	F	2.386673	-0.137398	0.106189
H181	H	1.640388	-0.271372	-1.106272
H182	H	1.973721	0.061961	-0.772939
H183	H	2.307055	0.395294	-0.439606
