data_functionalizedCrystal
_audit_creation_method	'MofGen! by Chris Wilmer'
_symmetry_space_group_name_H-M	'P1'
_symmetry_Int_Tables_number	1
_symmetry_cell_setting	triclinic
loop_
_symmetry_equiv_pos_as_xyz
  x,y,z
_cell_length_a	6.817900
_cell_length_b	15.300992
_cell_length_c	9.582880
_cell_angle_alpha	92.795750
_cell_angle_beta	111.207034
_cell_angle_gamma	104.175078
loop_
_atom_site_label
_atom_site_type_symbol
_atom_site_fract_x
_atom_site_fract_y
_atom_site_fract_z
V1	V	-4.120121	-0.124377	-0.467051
O2	O	-4.102208	0.006368	-0.457696
O3	O	-4.074509	-0.246996	-0.464302
O4	O	-4.110836	-0.122292	-0.670544
O5	O	-4.065629	-0.119198	-0.250027
V6	V	-4.598319	-0.108759	-0.441039
O7	O	-4.393060	-0.158638	-0.524110
O8	O	-4.775578	-0.074499	-0.383979
O9	O	-4.420724	0.013860	-0.443787
O10	O	-4.733629	-0.239505	-0.450393
O11	O	-4.770208	-0.113938	-0.658063
O12	O	-4.384397	-0.110844	-0.237545
C13	C	-3.918923	-0.276893	-0.457050
C14	C	-3.963177	-0.377134	-0.456159
C15	C	-3.916975	-0.411462	-0.318649
C16	C	-3.958578	-0.505650	-0.317817
C17	C	-4.046368	-0.565508	-0.454497
C18	C	-4.092578	-0.531175	-0.592018
C19	C	-4.050990	-0.436989	-0.592848
C20	C	-4.179252	-0.727487	-0.590277
C21	C	-4.220840	-0.821680	-0.589446
C22	C	-4.086840	-0.796149	-0.315245
C23	C	-4.045252	-0.701963	-0.316076
C24	C	-4.091461	-0.667636	-0.453597
C25	C	-3.965260	-0.117820	-0.720129
C26	C	-4.038971	-0.116927	-0.886489
C27	C	-4.239652	0.043752	-0.451036
C28	C	-4.174638	0.143992	-0.451936
C29	C	-4.193314	-0.115319	-0.187952
C30	C	-4.098842	-0.116208	-0.021591
H31	H	-4.292320	-0.870415	-0.700743
H32	H	-4.088636	-0.409042	-0.704824
H33	H	-4.164075	-0.579919	-0.703305
O34	O	-4.224177	-0.694291	-0.723994
C35	C	-4.361578	-0.729551	-0.995881
C36	C	-4.310771	-0.767268	-0.844560
H37	H	-4.431641	-0.788535	-1.093399
H38	H	-4.204465	-0.682608	-0.997478
H39	H	-4.486393	-0.689579	-1.008788
H40	H	-4.186024	-0.807281	-0.831554
H41	H	-4.467983	-0.814163	-0.843030
O42	O	-3.913872	-0.538882	-0.184144
C43	C	-3.986739	-0.550243	0.043321
C44	C	-4.037529	-0.512545	-0.108017
H45	H	-4.086722	-0.528981	0.104898
H46	H	-3.804542	-0.521883	0.116606
H47	H	-4.031461	-0.627839	0.020438
H48	H	-3.992940	-0.434952	-0.085275
H49	H	-4.219724	-0.540976	-0.181255
O50	O	-3.959613	-0.643768	-0.183334
C51	C	-3.660396	-0.518213	-0.018089
C52	C	-3.757100	-0.584076	-0.168445
H53	H	-3.496672	-0.469923	-0.006018
H54	H	-3.634337	-0.558872	0.080412
H55	H	-3.778693	-0.477043	-0.017402
H56	H	-3.638900	-0.625261	-0.169281
H57	H	-3.783208	-0.543364	-0.266879
O58	O	-3.831613	-0.353190	-0.186008
C59	C	-3.708288	-0.196784	-0.065763
C60	C	-3.804908	-0.262669	-0.216088
H61	H	-3.686710	-0.123585	-0.090032
H62	H	-3.542338	-0.205421	0.007779
H63	H	-3.824445	-0.212584	-0.003742
H64	H	-3.688918	-0.246911	-0.278235
H65	H	-3.970893	-0.254020	-0.289519
O66	O	-4.042227	-0.829644	-0.181794
C67	C	-4.046910	-0.963428	-0.058984
C68	C	-4.097558	-0.925612	-0.210217
H69	H	-4.091580	-1.041021	-0.081909
H70	H	-4.146791	-0.942188	0.002704
H71	H	-3.864694	-0.935055	0.014231
H72	H	-4.279726	-0.953966	-0.283550
H73	H	-3.997530	-0.946843	-0.271786
