data_functionalizedCrystal
_audit_creation_method	'MofGen! by Chris Wilmer'
_symmetry_space_group_name_H-M	'P1'
_symmetry_Int_Tables_number	1
_symmetry_cell_setting	triclinic
loop_
_symmetry_equiv_pos_as_xyz
  x,y,z
_cell_length_a	10.489746
_cell_length_b	10.489741
_cell_length_c	15.186229
_cell_angle_alpha	89.996534
_cell_angle_beta	89.999565
_cell_angle_gamma	84.540238
loop_
_atom_site_label
_atom_site_type_symbol
_atom_site_fract_x
_atom_site_fract_y
_atom_site_fract_z
O1	O	1.694048	0.179998	-0.073169
O2	O	1.322853	0.196884	-0.073184
O3	O	1.516897	0.002843	-0.073171
O4	O	1.500004	0.374039	-0.073182
O5	O	1.516884	0.002840	0.073287
O6	O	1.322840	0.196881	0.073274
O7	O	1.694035	0.179995	0.073288
Zn8	Zn	1.508435	0.188437	0.096534
Zn9	Zn	1.508453	0.188441	-0.096429
O10	O	1.499991	0.374036	0.073275
C11	C	1.275315	0.195606	0.000043
C12	C	1.133686	0.191786	0.000038
C13	C	1.515614	-0.044690	0.000057
C14	C	1.511797	-0.186320	0.000056
C15	C	0.980828	0.066062	0.000054
C16	C	1.058215	0.128917	0.072261
C17	C	1.058184	0.128950	-0.072135
C18	C	0.958724	0.247899	0.072326
C19	C	0.958687	0.247914	-0.072134
C20	C	1.036025	0.310856	0.000090
C21	C	1.388333	-0.254462	0.000044
C22	C	1.446650	-0.346585	0.072258
C23	C	1.446692	-0.346557	-0.072138
C24	C	1.570165	-0.276577	0.072329
C25	C	1.570190	-0.276539	-0.072132
C26	C	1.628597	-0.368635	0.000099
C27	C	1.741573	0.181273	0.000060
C28	C	1.883202	0.185093	0.000059
C29	C	1.501273	0.421569	0.000045
C30	C	1.505091	0.563198	0.000041
N31	N	1.508433	0.188434	0.228227
N32	N	1.508465	0.188435	-0.228122
C33	C	1.594385	0.102542	0.453956
C34	C	1.594389	0.102539	0.546145
C35	C	1.422503	0.274330	0.546143
C36	C	1.422494	0.274326	0.453955
C37	C	1.508442	0.188434	0.407864
C38	C	1.508456	0.188435	0.592241
C39	C	1.508459	0.188432	0.692197
C40	C	1.508437	0.188434	0.307901
H41	H	0.956107	-0.037439	0.000130
H42	H	1.664368	0.032602	0.416430
O43	O	1.384347	-0.383728	-0.144907
C44	C	1.382646	-0.517964	-0.144327
H45	H	1.394954	-0.554883	-0.073943
H46	H	1.464245	-0.563375	-0.186885
C47	C	1.238816	-0.508038	-0.267729
C48	C	1.253922	-0.553381	-0.181281
H49	H	1.159417	-0.529887	-0.290527
H50	H	1.239966	-0.417601	-0.268122
H51	H	1.306823	-0.545885	-0.303183
H52	H	1.185925	-0.515522	-0.145826
H53	H	1.252758	-0.643813	-0.180882
O54	O	1.677931	0.019282	0.591016
C55	C	1.757273	0.088366	0.644319
H56	H	1.707384	0.187687	0.658129
H57	H	1.851620	0.097956	0.608786
C58	C	1.845159	-0.105278	0.714928
C59	C	1.783879	0.016706	0.731895
H60	H	1.861577	-0.149483	0.768947
H61	H	1.791709	-0.151822	0.679014
H62	H	1.923774	-0.097269	0.685315
H63	H	1.705258	0.008695	0.761498
H64	H	1.837317	0.063248	0.767816
O65	O	1.384123	-0.383509	0.145021
C66	C	1.257494	-0.324808	0.144774
H67	H	1.228149	-0.297367	0.074502
H68	H	1.251627	-0.235154	0.187571
C69	C	1.202781	-0.452564	0.267927
C70	C	1.166735	-0.418871	0.181617
H71	H	1.146796	-0.510583	0.290657
H72	H	1.288094	-0.492110	0.268096
H73	H	1.197891	-0.377844	0.303581
H74	H	1.171641	-0.493589	0.145963
H75	H	1.081420	-0.379340	0.181442
O76	O	0.906572	0.307817	-0.144898
C77	C	0.772550	0.304361	-0.143446
H78	H	0.739474	0.291424	-0.072775
H79	H	0.745410	0.220933	-0.185368
C80	C	0.748117	0.446649	-0.267496
C81	C	0.707492	0.430770	-0.180694
H82	H	0.707984	0.524620	-0.290476
H83	H	0.838410	0.448974	-0.268477
H84	H	0.725498	0.377117	-0.302420
H85	H	0.730125	0.500291	-0.145770
H86	H	0.617200	0.428459	-0.179708
H87	H	1.352528	0.344264	0.583680
H88	H	1.352503	0.344270	0.416424
O89	O	1.749825	-0.427550	0.000304
C90	C	1.814424	-0.391836	0.076530
H91	H	1.741491	-0.359241	0.129501
H92	H	1.874562	-0.310064	0.059995
C93	C	1.991851	-0.547348	0.045519
C94	C	1.902273	-0.507325	0.110581
H95	H	2.046046	-0.618584	0.066521
H96	H	1.948333	-0.571407	-0.005839
H97	H	2.041953	-0.479195	0.031745
H98	H	1.852163	-0.575472	0.124346
H99	H	1.945785	-0.483280	0.161942
H100	H	1.101632	0.078680	-0.133182
H101	H	1.622355	-0.245745	0.133448
H102	H	1.286821	-0.204813	0.000113
O103	O	1.110123	0.069186	0.145156
C104	C	1.173430	0.156887	0.195489
H105	H	1.132037	0.258637	0.179351
H106	H	1.280029	0.145597	0.179291
C107	C	1.205341	0.005521	0.313972
C108	C	1.154493	0.130491	0.294156
H109	H	1.193665	-0.010764	0.374834
H110	H	1.162694	-0.053568	0.280061
H111	H	1.294169	-0.003873	0.300467
H112	H	1.065664	0.139878	0.307650
H113	H	1.197125	0.189581	0.328072
H114	H	1.060501	0.414436	0.000126
O115	O	0.907067	0.307582	0.145310
C116	C	0.842871	0.220161	0.195290
H117	H	0.883516	0.118257	0.178918
H118	H	0.736328	0.232402	0.178963
C119	C	0.811843	0.370950	0.314165
C120	C	0.861771	0.245789	0.294062
H121	H	0.823495	0.386761	0.375092
H122	H	0.855089	0.429850	0.280492
H123	H	0.723061	0.381135	0.300553
H124	H	0.950554	0.235611	0.307664
H125	H	0.818541	0.186888	0.327740
H126	H	1.622392	-0.245492	-0.133182
