data_functionalizedCrystal
_audit_creation_method	'MofGen! by Chris Wilmer'
_symmetry_space_group_name_H-M	'P1'
_symmetry_Int_Tables_number	1
_symmetry_cell_setting	triclinic
loop_
_symmetry_equiv_pos_as_xyz
  x,y,z
_cell_length_a	11.792254
_cell_length_b	23.532357
_cell_length_c	10.868271
_cell_angle_alpha	89.989339
_cell_angle_beta	89.995741
_cell_angle_gamma	83.513444
loop_
_atom_site_label
_atom_site_type_symbol
_atom_site_fract_x
_atom_site_fract_y
_atom_site_fract_z
O1	O	1.505034	0.078091	-0.102337
O2	O	1.174503	0.086128	-0.102342
O3	O	1.349765	-0.000765	-0.102314
O4	O	1.329772	0.164984	-0.102365
O5	O	1.349751	-0.000768	0.102330
O6	O	1.174488	0.086125	0.102303
O7	O	1.505020	0.078088	0.102307
Zn8	Zn	1.339752	0.082105	0.134797
Zn9	Zn	1.339770	0.082110	-0.134831
O10	O	1.329757	0.164980	0.102280
C11	C	1.132217	0.085620	-0.000020
C12	C	1.006240	0.084105	-0.000020
C13	C	0.903933	0.082873	-0.000025
C14	C	0.775583	0.081334	-0.000025
C15	C	1.349258	-0.021986	0.000012
C16	C	1.347754	-0.085214	0.000023
C17	C	1.338323	-0.477279	-0.111595
C18	C	1.336893	-0.536687	-0.111602
O19	O	1.336122	-0.567406	-0.206472
N20	N	1.336177	-0.566404	-0.000052
C21	C	1.336878	-0.536710	0.111513
O22	O	1.336136	-0.567442	0.206394
C23	C	1.338299	-0.477303	0.111519
C24	C	1.339027	-0.447589	-0.000039
C25	C	1.339049	-0.447566	-0.223143
C26	C	1.340481	-0.388162	-0.223136
C27	C	1.341185	-0.358472	-0.111580
C28	C	1.340459	-0.388185	-0.000031
C29	C	1.338992	-0.447609	0.223082
C30	C	1.340413	-0.388197	0.223078
C31	C	1.341141	-0.358484	0.111521
C32	C	1.342595	-0.299092	0.111532
N33	N	1.343311	-0.269374	-0.000018
C34	C	1.342606	-0.299064	-0.111574
C35	C	1.333892	-0.661469	0.111492
C36	C	1.332479	-0.720876	0.111488
C37	C	1.332492	-0.720849	-0.111627
C38	C	1.333913	-0.661442	-0.111622
C39	C	1.334608	-0.631752	-0.000058
C40	C	1.345613	-0.174312	-0.111550
C41	C	1.347050	-0.114904	-0.111533
C42	C	1.347030	-0.114936	0.111582
C43	C	1.345600	-0.174339	0.111565
C44	C	1.344888	-0.204026	-0.000011
O45	O	1.343362	-0.268334	0.206354
O46	O	1.343333	-0.268324	-0.206440
C47	C	1.547305	0.078596	-0.000018
C48	C	1.673282	0.080111	-0.000025
C49	C	1.330264	0.186202	-0.000049
C50	C	1.331768	0.249429	-0.000069
N51	N	1.339747	0.082102	0.318811
N52	N	1.339784	0.082109	-0.318846
C53	C	1.339765	0.082109	0.569817
C54	C	1.339751	0.082107	0.430139
H55	H	1.347645	-0.090714	-0.202380
N56	N	1.347779	-0.082910	0.231903
H57	H	1.417885	-0.097651	0.280686
H58	H	1.348745	-0.040774	0.214875
H59	H	1.345018	-0.198534	0.202405
N60	N	1.341166	-0.356172	0.343406
H61	H	1.270550	-0.362114	0.392170
H62	H	1.411322	-0.370934	0.392081
H63	H	1.338401	-0.471791	0.313924
N64	N	1.334621	-0.629374	-0.231921
H65	H	1.405552	-0.609109	-0.236921
H66	H	1.333897	-0.657219	-0.302542
N67	N	1.344877	-0.206328	-0.231889
H68	H	1.345568	-0.178484	-0.302544
H69	H	1.414662	-0.235372	-0.236729
H70	H	1.331914	-0.745033	-0.202463
N71	N	1.334666	-0.629455	0.231835
H72	H	1.405621	-0.609210	0.236813
H73	H	1.264848	-0.600436	0.236755
H74	H	1.338472	-0.471733	-0.313991
N75	N	1.341260	-0.356117	-0.343459
H76	H	1.340593	-0.383948	-0.414120
H77	H	1.271484	-0.327069	-0.348322
H78	H	1.331903	-0.745065	0.202329
