data_functionalizedCrystal
_audit_creation_method	'MofGen! by Chris Wilmer'
_symmetry_space_group_name_H-M	'P1'
_symmetry_Int_Tables_number	1
_symmetry_cell_setting	triclinic
loop_
_symmetry_equiv_pos_as_xyz
  x,y,z
_cell_length_a	18.050591
_cell_length_b	18.050589
_cell_length_c	21.395364
_cell_angle_alpha	89.998272
_cell_angle_beta	90.023013
_cell_angle_gamma	90.024227
loop_
_atom_site_label
_atom_site_type_symbol
_atom_site_fract_x
_atom_site_fract_y
_atom_site_fract_z
Zn1	Zn	1.135308	-0.295932	0.354386
Zn2	Zn	1.385308	-0.045932	0.604386
Zn3	Zn	1.635308	0.204068	0.854386
Zn4	Zn	1.885308	0.454068	1.104386
Zn5	Zn	1.135214	-0.420072	0.249619
Zn6	Zn	1.385214	-0.170072	0.499619
Zn7	Zn	1.635214	0.079928	0.749619
Zn8	Zn	1.885214	0.329928	0.999619
Zn9	Zn	1.011122	-0.295892	0.249612
Zn10	Zn	1.261122	-0.045892	0.499612
Zn11	Zn	1.511122	0.204108	0.749612
Zn12	Zn	1.761122	0.454108	0.999612
Zn13	Zn	1.011075	-0.420076	0.354348
Zn14	Zn	1.261075	-0.170076	0.604348
Zn15	Zn	1.511075	0.079924	0.854348
Zn16	Zn	1.761075	0.329924	1.104348
O17	O	1.073180	-0.357993	0.301991
O18	O	1.323180	-0.107993	0.551991
O19	O	1.573180	0.142007	0.801991
O20	O	1.823180	0.392007	1.051991
O21	O	1.239220	-0.312415	0.340507
O22	O	1.489220	-0.062415	0.590507
O23	O	1.739220	0.187585	0.840507
O24	O	1.989220	0.437585	1.090507
O25	O	1.118734	-0.403581	0.161940
O26	O	1.368734	-0.153581	0.411940
O27	O	1.618734	0.096419	0.661940
O28	O	1.868734	0.346419	0.911940
O29	O	1.027655	-0.191972	0.263523
O30	O	1.277655	0.058028	0.513523
O31	O	1.527655	0.308028	0.763523
O32	O	1.777655	0.558028	1.013523
O33	O	1.239151	-0.403620	0.263535
O34	O	1.489151	-0.153620	0.513535
O35	O	1.739151	0.096380	0.763535
O36	O	1.989151	0.346380	1.013535
O37	O	1.118893	-0.192002	0.340500
O38	O	1.368893	0.057998	0.590500
O39	O	1.618893	0.307998	0.840500
O40	O	1.868893	0.557998	1.090500
O41	O	1.027564	-0.312346	0.161935
O42	O	1.277564	-0.062346	0.411935
O43	O	1.527564	0.187654	0.661935
O44	O	1.777564	0.437654	0.911935
O45	O	0.907192	-0.312350	0.263486
O46	O	1.157192	-0.062350	0.513486
O47	O	1.407192	0.187650	0.763486
O48	O	1.657192	0.437650	1.013486
O49	O	1.027574	-0.403626	0.442031
O50	O	1.277574	-0.153626	0.692031
O51	O	1.527574	0.096374	0.942031
O52	O	1.777574	0.346374	1.192031
O53	O	0.907157	-0.403587	0.340436
O54	O	1.157157	-0.153587	0.590436
O55	O	1.407157	0.096413	0.840436
O56	O	1.657157	0.346413	1.090436
O57	O	1.118847	-0.312418	0.442059
O58	O	1.368847	-0.062418	0.692059
O59	O	1.618847	0.187582	0.942059
O60	O	1.868847	0.437582	1.192059
O61	O	1.118688	-0.523997	0.263498
O62	O	1.368688	-0.273997	0.513498
O63	O	1.618688	-0.023997	0.763498
O64	O	1.868688	0.226003	1.013498
O65	O	1.027483	-0.524000	0.340443
O66	O	1.277483	-0.274000	0.590443
O67	O	1.527483	-0.024000	0.840443
O68	O	1.777483	0.226000	1.090443
C69	C	0.880228	-0.357965	0.301957
C70	C	1.130228	-0.107965	0.551957
C71	C	1.380228	0.142035	0.801957
C72	C	1.630228	0.392035	1.051957
C73	C	0.797682	-0.357971	0.301957
C74	C	1.047682	-0.107971	0.551957
C75	C	1.297682	0.142029	0.801957
C76	C	1.547682	0.392029	1.051957
C77	C	0.598229	-0.308299	0.260208
C78	C	0.848229	-0.058299	0.510208
C79	C	1.098229	0.191701	0.760208
C80	C	1.348229	0.441701	1.010208
C81	C	0.548808	-0.376028	0.244793
C82	C	0.798808	-0.126028	0.494793
C83	C	1.048808	0.123972	0.744793
C84	C	1.298808	0.373972	0.994793
C85	C	0.646552	-0.357994	0.301985
C86	C	0.896552	-0.107994	0.551985
C87	C	1.146552	0.142006	0.801985
C88	C	1.396552	0.392006	1.051985
C89	C	0.548890	-0.290288	0.317398
C90	C	0.798890	-0.040288	0.567398
C91	C	1.048890	0.209712	0.817398
C92	C	1.298890	0.459712	1.067398
C93	C	0.500566	-0.358010	0.302011
C94	C	0.750566	-0.108010	0.552011
C95	C	1.000566	0.141990	0.802011
C96	C	1.250566	0.391990	1.052011
C97	C	0.598218	-0.425759	0.286540
C98	C	0.848218	-0.175759	0.536540
C99	C	1.098218	0.074241	0.786540
C100	C	1.348218	0.324241	1.036540
C101	C	0.598305	-0.339973	0.359172
C102	C	0.848305	-0.089973	0.609172
C103	C	1.098305	0.160027	0.859172
C104	C	1.348305	0.410027	1.109172
C105	C	0.548907	-0.407749	0.343779
C106	C	0.798907	-0.157749	0.593779
C107	C	1.048907	0.092251	0.843779
C108	C	1.298907	0.342251	1.093779
C109	C	0.730650	-0.357984	0.301968
C110	C	0.980650	-0.107984	0.551968
C111	C	1.230650	0.142016	0.801968
C112	C	1.480650	0.392016	1.051968
C113	C	0.416470	-0.358027	0.302028
C114	C	0.666470	-0.108027	0.552028
C115	C	0.916470	0.141973	0.802028
C116	C	1.166470	0.391973	1.052028
C117	C	1.073090	-0.550945	0.301981
C118	C	1.323090	-0.300945	0.551981
C119	C	1.573090	-0.050945	0.801981
C120	C	1.823090	0.199055	1.051981
C121	C	1.073120	-0.633491	0.301997
C122	C	1.323120	-0.383491	0.551997
C123	C	1.573120	-0.133491	0.801997
C124	C	1.823120	0.116509	1.051997
C125	C	1.023572	-0.832970	0.343825
C126	C	1.273572	-0.582970	0.593825
C127	C	1.523572	-0.332970	0.843825
C128	C	1.773572	-0.082970	1.093825
C129	C	1.005471	-0.882379	0.286650
C130	C	1.255471	-0.632379	0.536650
C131	C	1.505471	-0.382379	0.786650
C132	C	1.755471	-0.132379	1.036650
C133	C	1.073193	-0.784621	0.302005
C134	C	1.323193	-0.534621	0.552005
C135	C	1.573193	-0.284621	0.802005
C136	C	1.823193	-0.034621	1.052005
C137	C	1.091329	-0.882294	0.359187
C138	C	1.341329	-0.632294	0.609187
C139	C	1.591329	-0.382294	0.859187
C140	C	1.841329	-0.132294	1.109187
C141	C	1.073262	-0.930606	0.302018
C142	C	1.323262	-0.680606	0.552018
C143	C	1.573262	-0.430606	0.802018
C144	C	1.823262	-0.180606	1.052018
C145	C	1.055057	-0.832943	0.244800
C146	C	1.305057	-0.582943	0.494800
C147	C	1.555057	-0.332943	0.744800
C148	C	1.805057	-0.082943	0.994800
C149	C	1.140947	-0.832853	0.317376
C150	C	1.390947	-0.582853	0.567376
C151	C	1.640947	-0.332853	0.817376
C152	C	1.890947	-0.082853	1.067376
C153	C	1.122872	-0.882240	0.260162
C154	C	1.372872	-0.632240	0.510162
C155	C	1.622872	-0.382240	0.760162
C156	C	1.872872	-0.132240	1.010162
C157	C	1.073151	-0.700523	0.301999
C158	C	1.323151	-0.450523	0.551999
C159	C	1.573151	-0.200523	0.801999
C160	C	1.823151	0.049477	1.051999
C161	C	1.073304	-1.014703	0.302019
C162	C	1.323304	-0.764703	0.552019
C163	C	1.573304	-0.514703	0.802019
C164	C	1.823304	-0.264703	1.052019
C165	C	1.266885	-0.358021	0.302026
C166	C	1.516885	-0.108021	0.552026
C167	C	1.766885	0.141979	0.802026
C168	C	2.016885	0.391979	1.052026
C169	C	1.349431	-0.358033	0.302041
C170	C	1.599431	-0.108033	0.552041
C171	C	1.849431	0.141967	0.802041
C172	C	2.099431	0.391967	1.052041
C173	C	1.073216	-0.358027	0.465414
C174	C	1.323216	-0.108027	0.715414
C175	C	1.573216	0.141973	0.965414
C176	C	1.823216	0.391973	1.215414
C177	C	1.073231	-0.358042	0.535056
C178	C	1.323231	-0.108042	0.785056
C179	C	1.573231	0.141958	1.035056
C180	C	1.823231	0.391958	1.285056
C181	C	1.073290	-0.164287	0.302015
C182	C	1.323290	0.085713	0.552015
C183	C	1.573290	0.335713	0.802015
C184	C	1.823290	0.585713	1.052015
C185	C	1.073337	-0.081741	0.302026
C186	C	1.323337	0.168259	0.552026
C187	C	1.573337	0.418259	0.802026
C188	C	1.823337	0.668259	1.052026
C189	C	1.120750	-0.310558	0.567784
C190	C	1.370750	-0.060558	0.817784
C191	C	1.620750	0.189442	1.067784
C192	C	1.870750	0.439442	1.317784
C193	C	1.120739	-0.310546	0.633220
C194	C	1.370739	-0.060546	0.883220
C195	C	1.620739	0.189454	1.133220
C196	C	1.870739	0.439454	1.383220
C197	C	1.073217	-0.358031	0.665924
C198	C	1.323217	-0.108031	0.915924
C199	C	1.573217	0.141969	1.165924
C200	C	1.823217	0.391969	1.415924
C201	C	1.025689	-0.405518	0.633187
C202	C	1.275689	-0.155518	0.883187
C203	C	1.525689	0.094482	1.133187
C204	C	1.775689	0.344482	1.383187
C205	C	1.025696	-0.405524	0.567753
C206	C	1.275696	-0.155524	0.817753
C207	C	1.525696	0.094476	1.067753
C208	C	1.775696	0.344476	1.317753
C209	C	1.067305	-0.424931	0.769595
C210	C	1.317305	-0.174931	1.019595
C211	C	1.567305	0.075069	1.269595
C212	C	1.817305	0.325069	1.519595
C213	C	1.067303	-0.424927	0.835027
C214	C	1.317303	-0.174927	1.085027
C215	C	1.567303	0.075073	1.335027
C216	C	1.817303	0.325073	1.585027
C217	C	1.073190	-0.358014	0.867745
C218	C	1.323190	-0.108014	1.117745
C219	C	1.573190	0.141986	1.367745
C220	C	1.823190	0.391986	1.617745
C221	C	1.079094	-0.291103	0.835021
C222	C	1.329094	-0.041103	1.085021
C223	C	1.579094	0.208897	1.335021
C224	C	1.829094	0.458897	1.585021
C225	C	1.079101	-0.291108	0.769587
C226	C	1.329101	-0.041108	1.019587
C227	C	1.579101	0.208892	1.269587
C228	C	1.829101	0.458892	1.519587
C229	C	1.073203	-0.358030	0.736876
C230	C	1.323203	-0.108030	0.986876
C231	C	1.573203	0.141970	1.236876
C232	C	1.823203	0.391970	1.486876
C233	C	1.120699	-0.310512	0.971426
C234	C	1.370699	-0.060512	1.221426
C235	C	1.620699	0.189488	1.471426
C236	C	1.870699	0.439488	1.721426
C237	C	1.120683	-0.310499	1.036863
C238	C	1.370683	-0.060499	1.286863
C239	C	1.620683	0.189501	1.536863
C240	C	1.870683	0.439501	1.786863
C241	C	1.025636	-0.405478	1.036829
C242	C	1.275636	-0.155478	1.286829
C243	C	1.525636	0.094522	1.536829
C244	C	1.775636	0.344522	1.786829
C245	C	1.025649	-0.405485	0.971394
C246	C	1.275649	-0.155485	1.221394
C247	C	1.525649	0.094515	1.471394
C248	C	1.775649	0.344515	1.721394
C249	C	1.073184	-0.358003	0.938696
C250	C	1.323184	-0.108003	1.188696
C251	C	1.573184	0.141997	1.438696
C252	C	1.823184	0.391997	1.688696
C253	C	1.073147	-0.357981	1.139204
C254	C	1.323147	-0.107981	1.389204
C255	C	1.573147	0.142019	1.639204
C256	C	1.823147	0.392019	1.889204
C257	C	1.073159	-0.357984	1.069562
C258	C	1.323159	-0.107984	1.319562
C259	C	1.573159	0.142016	1.569562
C260	C	1.823159	0.392016	1.819562
H261	H	0.527068	-0.391283	0.196443
H262	H	0.777068	-0.141283	0.446443
H263	H	1.027068	0.108717	0.696443
H264	H	1.277068	0.358717	0.946443
H265	H	0.948206	-0.904150	0.273662
H266	H	1.198206	-0.654150	0.523662
H267	H	1.448206	-0.404150	0.773662
H268	H	1.698206	-0.154150	1.023662
H269	H	1.159456	-0.271893	0.541166
H270	H	1.409456	-0.021893	0.791166
H271	H	1.659456	0.228107	1.041166
H272	H	1.909456	0.478107	1.291166
H273	H	0.620062	-0.324698	0.407507
H274	H	0.870062	-0.074698	0.657507
H275	H	1.120062	0.175302	0.907507
H276	H	1.370062	0.425302	1.157507
F277	F	1.177761	-0.910340	0.213893
F278	F	1.427761	-0.660340	0.463893
F279	F	1.677761	-0.410340	0.713893
F280	F	1.927761	-0.160340	0.963893
F281	F	0.975053	-0.456011	1.071631
F282	F	1.225053	-0.206011	1.321631
F283	F	1.475053	0.043989	1.571631
F284	F	1.725053	0.293989	1.821631
H285	H	1.039678	-0.811356	0.196435
H286	H	1.289678	-0.561356	0.446435
H287	H	1.539678	-0.311356	0.696435
H288	H	1.789678	-0.061356	0.946435
H289	H	1.062313	-0.479406	0.742962
H290	H	1.312313	-0.229406	0.992962
H291	H	1.562313	0.020594	1.242962
H292	H	1.812313	0.270594	1.492962
H293	H	1.159401	-0.271846	0.944802
H294	H	1.409401	-0.021846	1.194802
H295	H	1.659401	0.228154	1.444802
H296	H	1.909401	0.478154	1.694802
H297	H	0.986958	-0.444156	0.944746
H298	H	1.236958	-0.194156	1.194746
H299	H	1.486958	0.055844	1.444746
H300	H	1.736958	0.305844	1.694746
F301	F	0.520563	-0.215440	0.334422
F302	F	0.770563	0.034560	0.584422
F303	F	1.020563	0.284560	0.834422
F304	F	1.270563	0.534560	1.084422
F305	F	1.061026	-0.496139	0.869848
F306	F	1.311026	-0.246139	1.119848
F307	F	1.561026	0.003861	1.369848
F308	F	1.811026	0.253861	1.619848
H309	H	0.986997	-0.444190	0.541106
H310	H	1.236997	-0.194190	0.791106
H311	H	1.486997	0.055810	1.041106
H312	H	1.736997	0.305810	1.291106
H313	H	0.981547	-0.811335	0.379140
H314	H	1.231547	-0.561335	0.629140
H315	H	1.481547	-0.311335	0.879140
H316	H	1.731547	-0.061335	1.129140
F317	F	1.171270	-0.259965	1.071695
F318	F	1.421270	-0.009965	1.321695
F319	F	1.671270	0.240035	1.571695
F320	F	1.921270	0.490035	1.821695
H321	H	1.159433	-0.271874	0.659873
H322	H	1.409433	-0.021874	0.909873
H323	H	1.659433	0.228126	1.159873
H324	H	1.909433	0.478126	1.409873
H325	H	1.106642	-0.903971	0.407539
H326	H	1.356642	-0.653971	0.657539
H327	H	1.606642	-0.403971	0.907539
H328	H	1.856642	-0.153971	1.157539
F329	F	0.520776	-0.462749	0.389972
F330	F	0.770776	-0.212749	0.639972
F331	F	1.020776	0.037251	0.889972
F332	F	1.270776	0.287251	1.139972
F333	F	1.085362	-0.219883	0.869836
F334	F	1.335362	0.030117	1.119836
F335	F	1.585362	0.280117	1.369836
F336	F	1.835362	0.530117	1.619836
H337	H	1.083907	-0.236627	0.742946
H338	H	1.333907	0.013373	0.992946
H339	H	1.583907	0.263373	1.242946
H340	H	1.833907	0.513373	1.492946
H341	H	1.198198	-0.811085	0.330391
H342	H	1.448198	-0.561085	0.580391
H343	H	1.698198	-0.311085	0.830391
H344	H	1.948198	-0.061085	1.080391
F345	F	0.975110	-0.456053	0.667994
F346	F	1.225110	-0.206053	0.917994
F347	F	1.475110	0.043947	1.167994
F348	F	1.725110	0.293947	1.417994
H349	H	0.619885	-0.266318	0.224840
H350	H	0.869885	-0.016318	0.474840
H351	H	1.119885	0.233682	0.724840
H352	H	1.369885	0.483682	0.974840
H353	H	0.619796	-0.483041	0.273461
H354	H	0.869796	-0.233041	0.523461
H355	H	1.119796	0.016959	0.773461
H356	H	1.369796	0.266959	1.023461
