data_functionalizedCrystal
_audit_creation_method	'MofGen! by Chris Wilmer'
_symmetry_space_group_name_H-M	'P1'
_symmetry_Int_Tables_number	1
_symmetry_cell_setting	triclinic
loop_
_symmetry_equiv_pos_as_xyz
  x,y,z
_cell_length_a	25.639239
_cell_length_b	13.032951
_cell_length_c	13.034356
_cell_angle_alpha	105.186779
_cell_angle_beta	82.788040
_cell_angle_gamma	97.159836
loop_
_atom_site_label
_atom_site_type_symbol
_atom_site_fract_x
_atom_site_fract_y
_atom_site_fract_z
Zn1	Zn	-0.265088	-1.699996	-0.806435
Zn2	Zn	-0.362374	-1.677236	-0.628784
Zn3	Zn	-0.265088	-1.499800	-0.606311
Zn4	Zn	-0.342618	-1.522281	-0.783836
O5	O	-0.308792	-1.599828	-0.706341
O6	O	-0.286261	-1.845609	-0.801731
O7	O	-0.357737	-1.634766	-0.477160
O8	O	-0.191927	-1.526473	-0.632911
O9	O	-0.357736	-1.828888	-0.671212
O10	O	-0.191927	-1.673556	-0.779941
O11	O	-0.286261	-1.504404	-0.460650
O12	O	-0.267104	-1.354150	-0.610998
O13	O	-0.324065	-1.564788	-0.935476
O14	O	-0.324065	-1.370666	-0.741425
O15	O	-0.267104	-1.695355	-0.952079
O16	O	-0.432914	-1.656565	-0.649299
O17	O	-0.418400	-1.542719	-0.763215
C18	C	-0.293441	-1.323870	-0.671322
C19	C	-0.286886	-1.205816	-0.656365
C20	C	-0.444627	-1.599643	-0.706270
C21	C	-0.502741	-1.599666	-0.706288
C22	C	-0.312202	-1.161372	-0.714133
C23	C	-0.305427	-1.039358	-0.698676
C24	C	-0.870660	-1.659299	-0.647163
C25	C	-0.925266	-1.659342	-0.647183
O26	O	-0.959919	-1.709853	-0.596836
N27	N	-0.945037	-1.600024	-0.706436
C28	C	-0.910200	-1.540667	-0.765681
O29	O	-0.932031	-1.490217	-0.816083
C30	C	-0.855595	-1.540631	-0.765667
C31	C	-0.835827	-1.599945	-0.706402
C32	C	-0.850891	-1.718609	-0.587904
C33	C	-0.796289	-1.718565	-0.587883
C34	C	-0.761456	-1.659210	-0.647122
C35	C	-0.781225	-1.599900	-0.706381
C36	C	-0.820758	-1.481281	-0.824918
C37	C	-0.766150	-1.481250	-0.824900
C38	C	-0.746382	-1.540564	-0.765635
C39	C	-0.691789	-1.540500	-0.765599
N40	N	-0.672018	-1.599819	-0.706346
C41	C	-0.706851	-1.659174	-0.647108
C42	C	-1.024874	-1.540749	-0.765708
C43	C	-1.079477	-1.540779	-0.765717
C44	C	-1.094540	-1.659456	-0.647219
C45	C	-1.039935	-1.659420	-0.647205
C46	C	-1.005102	-1.600068	-0.706455
C47	C	-0.592182	-1.659074	-0.647068
C48	C	-0.537575	-1.659021	-0.647049
C49	C	-0.522517	-1.540349	-0.765550
C50	C	-0.577120	-1.540397	-0.765565
C51	C	-0.611952	-1.599768	-0.706322
O52	O	-0.657105	-1.490019	-0.815923
O53	O	-0.685012	-1.709626	-0.596726
C54	C	-0.172426	-1.600046	-0.706440
C55	C	-0.114315	-1.600138	-0.706482
C56	C	-0.293381	-1.635118	-0.983397
C57	C	-0.286814	-1.650157	-1.101461
C58	C	-0.324197	-0.876864	-0.741492
C59	C	-0.330748	-0.994917	-0.756452
C60	C	-0.305285	-1.607799	-1.267909
C61	C	-0.312072	-1.592254	-1.145883
C62	C	-0.324108	-1.564737	-0.430372
C63	C	-0.330540	-1.549904	-0.312334
H64	H	-0.338891	-1.213652	-0.775037
O65	O	-0.270079	-0.970124	-0.617979
H66	H	-0.270312	-0.885152	-0.618487
O67	O	-0.366104	-1.064148	-0.837136
H68	H	-0.365879	-1.149118	-0.836615
H69	H	-0.879248	-1.766949	-0.539665
H70	H	-0.278640	-1.668878	-1.320215
O71	O	-0.251514	-1.731070	-1.170725
H72	H	-0.210643	-1.710234	-1.147203
H73	H	-1.122911	-1.707790	-0.598988
O74	O	-0.987304	-1.476701	-0.829587
H75	H	-1.010230	-1.435451	-0.870773
O76	O	-0.347370	-1.511340	-1.076617
H77	H	-0.347159	-1.511819	-0.991642
H78	H	-0.260193	-1.153537	-0.595469
H79	H	-0.357188	-1.488833	-1.260029
H80	H	-0.521482	-1.707321	-0.598784
H81	H	-0.620537	-1.707422	-0.598829
H82	H	-0.836843	-1.432975	-0.873173
H83	H	-0.780198	-1.766866	-0.539628
H84	H	-1.023844	-1.707719	-0.598947
H85	H	-0.737791	-1.432921	-0.873152
O86	O	-1.100797	-1.476797	-0.829629
H87	H	-1.067397	-1.435526	-0.870820
H88	H	-0.593216	-1.492103	-0.813827
H89	H	-0.494147	-1.492019	-0.813778
