data_functionalizedCrystal
_audit_creation_method	'MofGen! by Chris Wilmer'
_symmetry_space_group_name_H-M	'P1'
_symmetry_Int_Tables_number	1
_symmetry_cell_setting	triclinic
loop_
_symmetry_equiv_pos_as_xyz
  x,y,z
_cell_length_a	19.851628
_cell_length_b	21.606444
_cell_length_c	21.606444
_cell_angle_alpha	90.002006
_cell_angle_beta	60.004716
_cell_angle_gamma	59.998575
loop_
_atom_site_label
_atom_site_type_symbol
_atom_site_fract_x
_atom_site_fract_y
_atom_site_fract_z
Zr1	Zr	0.737327	-0.081242	0.596282
O2	O	0.877854	-0.180072	0.497466
O3	O	0.596796	-0.050941	0.626568
O4	O	0.737322	-0.180064	0.626577
O5	O	0.737333	0.050900	0.497457
O6	O	0.737322	-0.180063	0.728429
O7	O	0.737328	-0.050949	0.497457
O8	O	0.485947	0.050915	0.728413
O9	O	0.988708	-0.180077	0.497473
O10	O	0.654600	-0.038022	0.715503
O11	O	0.654603	0.037986	0.639492
O12	O	0.820054	-0.114040	0.639503
O13	O	0.820058	-0.038032	0.563492
Zr14	Zr	0.737334	0.081199	0.758724
Zr15	Zr	0.737327	-0.081240	0.758724
Zr16	Zr	0.737334	0.081196	0.596282
Zr17	Zr	0.914126	-0.081250	0.596293
Zr18	Zr	0.560535	0.081207	0.758712
O19	O	0.877865	0.050898	0.728438
O20	O	0.877854	-0.180069	0.728438
O21	O	0.877865	0.050894	0.497466
O22	O	0.596807	0.180029	0.857539
O23	O	0.596796	-0.050938	0.857540
O24	O	0.596807	0.180026	0.626567
O25	O	0.737328	-0.050944	0.857549
O26	O	0.737339	0.180021	0.728428
O27	O	0.737339	0.180019	0.626577
O28	O	0.737333	0.050906	0.857549
O29	O	0.988708	-0.180075	0.626593
O30	O	0.485953	0.180032	0.728412
O31	O	0.485953	0.180034	0.857532
O32	O	0.485947	0.050917	0.857532
O33	O	0.988714	-0.050960	0.497473
O34	O	0.988714	-0.050958	0.626593
O35	O	0.654607	0.113996	0.715503
O36	O	0.654603	0.037988	0.791514
O37	O	0.820058	-0.038029	0.715514
O38	O	0.820062	0.037979	0.639503
C39	C	0.516182	-0.000012	0.677489
C40	C	0.441126	-0.000009	0.677484
C41	C	0.737331	-0.000025	0.474312
C42	C	0.737331	-0.000026	0.405351
C43	C	0.737340	0.203164	0.677502
C44	C	0.737343	0.272124	0.677502
C45	C	0.259769	0.041428	0.636052
C46	C	0.270103	-0.030047	0.606017
C47	C	0.303705	-0.000019	0.677496
C48	C	0.159655	0.071437	0.707508
C49	C	0.170961	-0.000023	0.677507
C50	C	0.315075	-0.071535	0.647419
C51	C	0.204581	0.030000	0.748950
C52	C	0.214949	-0.041517	0.718932
C53	C	0.380177	-0.000016	0.677488
C54	C	0.094496	-0.000034	0.677515
C55	C	0.958480	-0.000031	0.677517
C56	C	1.033536	-0.000035	0.677522
C57	C	0.737321	-0.203208	0.677503
C58	C	0.737318	-0.272167	0.677503
C59	C	0.823708	0.264842	0.637832
C60	C	0.823706	0.329640	0.637829
C61	C	0.737337	0.401718	0.677500
C62	C	0.650965	0.408997	0.717172
C63	C	0.650969	0.344201	0.717170
C64	C	0.650949	0.670315	0.717178
C65	C	0.650952	0.735113	0.717178
C66	C	0.823685	0.655755	0.637837
C67	C	0.823689	0.590958	0.637835
C68	C	0.737318	0.598243	0.677503
C69	C	0.737322	0.527982	0.677505
C70	C	0.737332	0.471978	0.677503
C71	C	0.737331	-0.056138	0.372953
C72	C	0.737326	-0.056135	0.308159
C73	C	0.737328	-0.000023	0.275762
C74	C	0.737325	0.056095	0.308166
C75	C	0.737323	0.056094	0.372962
C76	C	0.737332	0.056097	0.046852
C77	C	0.737337	0.056092	-0.017950
C78	C	0.737335	-0.056132	-0.017950
C79	C	0.737333	-0.056132	0.046846
C80	C	0.737325	-0.000013	0.079246
C81	C	0.737329	-0.000016	0.149504
C82	C	0.737332	-0.000023	0.205502
C83	C	0.737330	-0.000019	0.880693
C84	C	0.737330	-0.000017	0.949654
C85	C	0.516181	-0.000009	0.880679
C86	C	0.441125	-0.000005	0.949635
C87	C	0.516191	0.203174	0.677488
C88	C	0.441138	0.272137	0.677483
C89	C	0.516191	0.203177	0.880679
C90	C	0.441138	0.272141	0.949635
C91	C	0.958470	-0.203220	0.474327
C92	C	1.033523	-0.272184	0.405371
C93	C	0.958480	-0.000034	0.474327
C94	C	1.033536	-0.000039	0.405371
C95	C	0.958470	-0.203217	0.677517
C96	C	1.033523	-0.272180	0.677522
C97	C	0.405876	-0.039686	0.942341
C98	C	0.335363	-0.039697	1.007126
C99	C	0.300095	-0.000022	1.079205
C100	C	0.335351	0.039661	1.086498
C101	C	0.405868	0.039667	1.021713
C102	C	0.405895	0.344206	0.717158
C103	C	0.335384	0.409010	0.717150
C104	C	0.300114	0.401743	0.677472
C105	C	0.335365	0.329666	0.637793
C106	C	0.405879	0.264864	0.637796
C107	C	0.405890	0.264851	1.021701
C108	C	0.335380	0.329644	1.086499
C109	C	0.300114	0.401725	1.079228
C110	C	0.335368	0.409013	1.007155
C111	C	0.405882	0.344221	0.942358
C112	C	1.068779	-0.264895	0.333305
C113	C	1.139311	-0.329687	0.268507
C114	C	1.174581	-0.401769	0.275777
C115	C	1.139322	-0.409056	0.347851
C116	C	1.068796	-0.344265	0.412647
C117	C	1.068792	0.039636	0.412665
C118	C	1.139325	0.039629	0.347880
C119	C	1.174596	-0.000048	0.275800
C120	C	1.139336	-0.039728	0.268508
C121	C	1.068810	-0.039725	0.333292
C122	C	1.068770	-0.264889	0.717208
C123	C	1.139281	-0.329680	0.717227
C124	C	1.174548	-0.401762	0.677556
C125	C	1.139293	-0.409052	0.637869
C126	C	1.068779	-0.344261	0.637855
H127	H	0.279513	0.076423	0.600959
C128	C	0.737330	0.117827	-0.053582
N129	N	0.737324	0.164323	-0.080419
H130	H	0.177630	0.055413	0.809360
C131	C	0.069916	0.153078	0.741796
N132	N	0.002330	0.214571	0.767616
H133	H	0.434572	0.350167	0.883681
H134	H	0.306683	0.323697	1.145178
C135	C	0.296539	0.083307	1.165792
N136	N	0.267298	0.116186	1.225519
H137	H	0.580642	0.467689	0.749469
C138	C	1.178063	-0.488349	0.594265
N139	N	1.207258	-0.548078	0.561431
C140	C	0.306517	-0.064350	0.524390
N141	N	0.333941	-0.090181	0.462909
C142	C	1.029985	-0.185604	0.760858
N143	N	1.000772	-0.125889	0.793741
H144	H	0.737337	-0.101826	-0.044336
H145	H	1.168007	-0.323739	0.209828
C146	C	1.252173	-0.000040	0.204542
N147	N	1.310602	-0.000028	0.150873
H148	H	0.894040	0.206157	0.605530
H149	H	0.434604	0.350137	0.749469
C150	C	0.918714	0.321624	0.594194
N151	N	0.990279	0.315585	0.561327
C152	C	1.030027	-0.352294	0.594183
N153	N	1.000845	-0.358350	0.561284
C154	C	0.444663	-0.083340	0.863059
N155	N	0.473878	-0.116227	0.803346
H156	H	0.737325	-0.101825	0.281781
C157	C	0.296613	0.488287	0.760811
N158	N	0.267409	0.547996	0.793699
C159	C	1.030002	-0.185611	0.325289
N160	N	1.000804	-0.125896	0.319245
C161	C	1.252155	-0.473035	0.204492
N162	N	1.310580	-0.526710	0.150796
C163	C	0.737328	-0.117858	0.082481
N164	N	0.737319	-0.164349	0.109323
H165	H	1.168048	-0.467753	0.353762
H166	H	1.167978	-0.323730	0.749544
C167	C	0.737283	0.117849	0.082503
N168	N	0.737231	0.164370	0.109364
C169	C	0.737287	0.117837	0.272545
N170	N	0.737247	0.164348	0.245720
C171	C	0.404775	-0.153214	0.613033
N172	N	0.472339	-0.214733	0.587131
H173	H	1.040091	-0.350209	0.471325
C174	C	0.444625	0.083331	1.029750
N175	N	0.473812	0.116222	1.035809
H176	H	0.737335	-0.101833	0.399324
C177	C	0.296586	-0.083345	0.999087
N178	N	0.267379	-0.116218	0.993029
H179	H	0.737321	0.101787	0.399341
C180	C	1.030013	0.083283	0.491946
N181	N	1.000813	0.116157	0.551659
C182	C	1.178131	-0.083358	0.189213
N183	N	1.207346	-0.116213	0.129487
H184	H	0.580616	0.793804	0.749484
C185	C	0.222517	-0.000030	1.150463
N186	N	0.164083	-0.000036	1.204132
H187	H	0.580642	0.350134	0.749472
H188	H	0.242698	0.454515	0.677476
C189	C	0.296553	0.321685	0.594154
N190	N	0.267312	0.315676	0.561289
H191	H	0.195409	-0.076618	0.753977
H192	H	0.580620	0.676257	0.749480
H193	H	0.434565	0.206184	0.605491
H194	H	0.306644	0.467710	1.001246
C195	C	0.222539	0.472991	1.150514
N196	N	0.164106	0.526666	1.204209
H197	H	1.168021	0.071944	0.353832
H198	H	0.434594	0.206165	1.027635
C199	C	1.252117	-0.473027	0.677578
N200	N	1.310545	-0.526702	0.677596
H201	H	0.894019	0.532271	0.605533
H202	H	0.894013	0.649829	0.605534
H203	H	1.040106	-0.072031	0.327342
