data_functionalizedCrystal
_audit_creation_method	'MofGen! by Chris Wilmer'
_symmetry_space_group_name_H-M	'P1'
_symmetry_Int_Tables_number	1
_symmetry_cell_setting	triclinic
loop_
_symmetry_equiv_pos_as_xyz
  x,y,z
_cell_length_a	19.805407
_cell_length_b	16.959454
_cell_length_c	16.959447
_cell_angle_alpha	89.973264
_cell_angle_beta	89.983607
_cell_angle_gamma	90.020075
loop_
_atom_site_label
_atom_site_type_symbol
_atom_site_fract_x
_atom_site_fract_y
_atom_site_fract_z
Zn1	Zn	1.034744	-0.314666	-0.446972
Zn2	Zn	1.534744	0.185334	0.053028
Zn3	Zn	1.034678	-0.446858	-0.314802
Zn4	Zn	1.534678	0.053142	0.185198
Zn5	Zn	0.921565	-0.314698	-0.314805
Zn6	Zn	1.421565	0.185302	0.185195
Zn7	Zn	0.921535	-0.446806	-0.446936
Zn8	Zn	1.421535	0.053194	0.053064
O9	O	0.978131	-0.380757	-0.380879
O10	O	1.478131	0.119243	0.119121
O11	O	1.129452	-0.332210	-0.429453
O12	O	1.629452	0.167790	0.070547
O13	O	1.019658	-0.429362	-0.204191
O14	O	1.519658	0.070638	0.295809
O15	O	0.936619	-0.204083	-0.332354
O16	O	1.436619	0.295917	0.167646
O17	O	1.129403	-0.429331	-0.332348
O18	O	1.629403	0.070669	0.167652
O19	O	1.019771	-0.204059	-0.429456
O20	O	1.519771	0.295941	0.070544
O21	O	0.936555	-0.332264	-0.204193
O22	O	1.436555	0.167736	0.295807
O23	O	0.826845	-0.332214	-0.332318
O24	O	1.326845	0.167786	0.167682
O25	O	0.936567	-0.429243	-0.557551
O26	O	1.436567	0.070757	-0.057551
O27	O	0.826822	-0.429273	-0.429394
O28	O	1.326822	0.070727	0.070606
O29	O	1.019742	-0.332160	-0.557578
O30	O	1.519742	0.167840	-0.057578
O31	O	1.019629	-0.557462	-0.332313
O32	O	1.519629	-0.057462	0.167687
O33	O	0.936503	-0.557424	-0.429391
O34	O	1.436503	-0.057424	0.070609
C35	C	0.802275	-0.380742	-0.380853
C36	C	1.302275	0.119258	0.119147
C37	C	0.727043	-0.380755	-0.380861
C38	C	1.227043	0.119245	0.119139
C39	C	0.691705	-0.431370	-0.431326
C40	C	1.191705	0.068630	0.068674
C41	C	0.621016	-0.431371	-0.431338
C42	C	1.121016	0.068629	0.068662
C43	C	0.585667	-0.380761	-0.380879
C44	C	1.085667	0.119239	0.119121
C45	C	0.621010	-0.330140	-0.330411
C46	C	1.121010	0.169860	0.169589
C47	C	0.691697	-0.330135	-0.330404
C48	C	1.191697	0.169865	0.169596
C49	C	0.335937	-0.330158	-0.330437
C50	C	0.835937	0.169842	0.169563
C51	C	0.265245	-0.330168	-0.330446
C52	C	0.765245	0.169832	0.169554
C53	C	0.265256	-0.431393	-0.431370
C54	C	0.765256	0.068607	0.068630
C55	C	0.335943	-0.431388	-0.431364
C56	C	0.835943	0.068612	0.068636
C57	C	0.371280	-0.380765	-0.380899
C58	C	0.871280	0.119235	0.119101
C59	C	0.447928	-0.380763	-0.380889
C60	C	0.947928	0.119237	0.119111
C61	C	0.509020	-0.380766	-0.380884
C62	C	1.009020	0.119234	0.119116
C63	C	0.978074	-0.586123	-0.380865
C64	C	1.478074	-0.086123	0.119135
C65	C	0.978112	-0.673980	-0.380886
C66	C	1.478112	-0.173980	0.119114
C67	C	0.934910	-1.045466	-0.431422
C68	C	1.434910	-0.545466	0.068578
C69	C	1.021540	-1.045445	-0.330416
C70	C	1.521540	-0.545445	0.169584
C71	C	1.021516	-0.962900	-0.330409
C72	C	1.521516	-0.462900	0.169591
C73	C	0.978188	-0.921633	-0.380908
C74	C	1.478188	-0.421633	0.119092
C75	C	0.934883	-0.962912	-0.431414
C76	C	1.434883	-0.462912	0.068586
C77	C	1.064815	-0.921614	-0.279897
C78	C	1.564815	-0.421614	0.220103
C79	C	1.064793	-0.839063	-0.279887
C80	C	1.564793	-0.339063	0.220113
C81	C	1.021467	-0.797795	-0.330391
C82	C	1.521467	-0.297795	0.169609
C83	C	0.978162	-0.839079	-0.380900
C84	C	1.478162	-0.339079	0.119100
C85	C	0.934833	-0.797813	-0.431400
C86	C	1.434833	-0.297813	0.068600
C87	C	0.891531	-0.839095	-0.481913
C88	C	1.391531	-0.339095	0.018087
C89	C	0.891558	-0.921644	-0.481918
C90	C	1.391558	-0.421644	0.018082
C91	C	1.021440	-0.715247	-0.330387
C92	C	1.521440	-0.215247	0.169613
C93	C	0.934807	-0.715259	-0.431392
C94	C	1.434807	-0.215259	0.068608
C95	C	1.154673	-0.380773	-0.380905
C96	C	1.654673	0.119227	0.119095
C97	C	1.229905	-0.380780	-0.380916
C98	C	1.729905	0.119220	0.119084
C99	C	0.978159	-0.380692	-0.587047
C100	C	1.478159	0.119308	-0.087047
C101	C	0.978171	-0.380664	-0.674904
C102	C	1.478171	0.119336	-0.174904
C103	C	0.978206	-0.174589	-0.380909
C104	C	1.478206	0.325411	0.119091
C105	C	0.978238	-0.086732	-0.380922
C106	C	1.478238	0.413268	0.119078
C107	C	0.934946	-0.431127	-1.046368
C108	C	1.434946	0.068873	-0.546368
C109	C	1.021557	-0.330034	-1.046391
C110	C	1.521557	0.169966	-0.546391
C111	C	1.021539	-0.330051	-0.963845
C112	C	1.521539	0.169949	-0.463845
C113	C	0.978225	-0.380607	-0.922557
C114	C	1.478225	0.119393	-0.422557
C115	C	0.934929	-0.431147	-0.963814
C116	C	1.434929	0.068853	-0.463814
C117	C	1.064839	-0.279517	-0.922581
C118	C	1.564839	0.220483	-0.422581
C119	C	1.064823	-0.279533	-0.840030
C120	C	1.564823	0.220467	-0.340030
C121	C	1.021505	-0.330086	-0.798740
C122	C	1.521505	0.169914	-0.298740
C123	C	0.978207	-0.380627	-0.840003
C124	C	1.478207	0.119373	-0.340003
C125	C	0.934893	-0.431184	-0.798715
C126	C	1.434893	0.068816	-0.298715
C127	C	0.891590	-0.481722	-0.839976
C128	C	1.391590	0.018278	-0.339976
C129	C	0.891610	-0.481700	-0.922525
C130	C	1.391610	0.018300	-0.422525
C131	C	1.021485	-0.330107	-0.716192
C132	C	1.521485	0.169893	-0.216192
C133	C	0.934875	-0.431204	-0.716161
C134	C	1.434875	0.068796	-0.216161
C135	C	0.978141	-0.380765	-0.175512
C136	C	1.478141	0.119235	0.324488
C137	C	0.978261	-0.380570	-0.087656
C138	C	1.478261	0.119430	0.412344
H139	H	0.720481	-0.472585	-0.472414
H140	H	1.220481	0.027415	0.027586
O141	O	0.370249	-0.480466	-0.480494
O142	O	0.870249	0.019534	0.019506
C143	C	0.352991	-0.463300	-0.559303
C144	C	0.852991	0.036700	-0.059303
H145	H	0.333575	-0.400161	-0.563400
H146	H	0.833575	0.099839	-0.063400
H147	H	0.399488	-0.470151	-0.598339
H148	H	0.899488	0.029849	-0.098339
H149	H	0.311957	-0.505706	-0.579897
H150	H	0.811957	-0.005706	-0.079897
H151	H	1.056693	-0.681638	-0.289255
H152	H	1.556693	-0.181638	0.210745
H153	H	1.100107	-0.238362	-0.956204
H154	H	1.600107	0.261638	-0.456204
H155	H	1.100082	-0.238381	-0.806442
H156	H	1.600082	0.261619	-0.306442
O157	O	1.106916	-0.961770	-0.230922
O158	O	1.606916	-0.461770	0.269078
C159	C	1.150615	-1.009522	-0.275918
C160	C	1.650615	-0.509522	0.224082
H161	H	1.154845	-0.984602	-0.338164
H162	H	1.654845	-0.484602	0.161836
H163	H	1.202688	-1.010502	-0.247309
H164	H	1.702688	-0.510502	0.252691
H165	H	1.129650	-1.072073	-0.278664
H166	H	1.629650	-0.572073	0.221336
H167	H	0.899656	-1.079082	-0.472551
H168	H	1.399656	-0.579082	0.027449
O169	O	0.230897	-0.480450	-0.480484
O170	O	0.730897	0.019550	0.019516
C171	C	0.190026	-0.435515	-0.531607
C172	C	0.690026	0.064485	-0.031607
H173	H	0.211346	-0.373266	-0.536594
H174	H	0.711346	0.126734	-0.036594
H175	H	0.189237	-0.464179	-0.592388
H176	H	0.689237	0.035821	-0.092388
H177	H	0.136445	-0.432763	-0.507180
H178	H	0.636445	0.067237	-0.007180
O179	O	1.106923	-0.799087	-0.230801
O180	O	1.606923	-0.299087	0.269199
C181	C	1.145157	-0.853213	-0.186218
C182	C	1.645157	-0.353213	0.313782
H183	H	1.147496	-0.912039	-0.218598
H184	H	1.647496	-0.412039	0.281402
H185	H	1.198485	-0.829326	-0.177847
H186	H	1.698485	-0.329326	0.322153
H187	H	1.120410	-0.862041	-0.126157
H188	H	1.620410	-0.362041	0.373843
H189	H	0.899596	-0.472366	-0.682550
H190	H	1.399596	0.027634	-0.182550
H191	H	1.056825	-0.288877	-1.080013
H192	H	1.556825	0.211123	-0.580013
O193	O	0.849614	-0.530871	-0.799774
O194	O	1.349614	-0.030871	-0.299774
C195	C	0.888132	-0.581946	-0.752035
C196	C	1.388132	-0.081946	-0.252035
H197	H	0.939436	-0.554074	-0.739694
H198	H	1.439436	-0.054074	-0.239694
H199	H	0.860558	-0.592547	-0.693974
H200	H	1.360558	-0.092547	-0.193974
H201	H	0.895548	-0.640518	-0.783834
H202	H	1.395548	-0.140518	-0.283834
H203	H	1.056743	-0.288962	-0.682601
H204	H	1.556743	0.211038	-0.182601
H205	H	0.856358	-0.522848	-0.956127
H206	H	1.356358	-0.022848	-0.456127
H207	H	0.592247	-0.472588	-0.472431
H208	H	1.092247	0.027412	0.027569
H209	H	0.236465	-0.288950	-0.289356
H210	H	0.736465	0.211050	0.210644
O211	O	1.063579	-1.085651	-0.281408
O212	O	1.563579	-0.585651	0.218592
C213	C	1.054288	-1.167363	-0.292212
C214	C	1.554288	-0.667363	0.207788
H215	H	1.032122	-1.178631	-0.353203
H216	H	1.532122	-0.678631	0.146797
H217	H	1.104987	-1.198715	-0.286860
H218	H	1.604987	-0.698715	0.213140
H219	H	1.018243	-1.190816	-0.245311
H220	H	1.518243	-0.690816	0.254689
H221	H	0.899689	-0.472271	-1.079966
H222	H	1.399689	0.027729	-0.579966
H223	H	0.364699	-0.288943	-0.289339
H224	H	0.864699	0.211057	0.210661
H225	H	0.592223	-0.288929	-0.289329
H226	H	1.092223	0.211071	0.210671
H227	H	0.899526	-0.681665	-0.472518
H228	H	1.399526	-0.181665	0.027482
O229	O	0.725998	-0.281057	-0.281265
O230	O	1.225998	0.218943	0.218735
C231	C	0.708685	-0.298223	-0.202458
C232	C	1.208685	0.201777	0.297542
H233	H	0.689234	-0.361365	-0.198363
H234	H	1.189234	0.138635	0.301637
H235	H	0.755162	-0.291366	-0.163416
H236	H	1.255162	0.208634	0.336584
H237	H	0.667660	-0.255822	-0.181871
H238	H	1.167660	0.244178	0.318129
O239	O	0.849540	-0.798968	-0.531051
O240	O	1.349540	-0.298968	-0.031051
C241	C	0.888035	-0.751137	-0.582118
C242	C	1.388035	-0.251137	-0.082118
H243	H	0.941348	-0.775969	-0.587063
H244	H	1.441348	-0.275969	-0.087063
H245	H	0.863523	-0.750174	-0.642922
H246	H	1.363523	-0.250174	-0.142922
H247	H	0.890363	-0.688590	-0.557664
H248	H	1.390363	-0.188590	-0.057664
H249	H	0.856303	-0.955264	-0.523043
H250	H	1.356303	-0.455264	-0.023043
