data_functionalizedCrystal
_audit_creation_method	'MofGen! by Chris Wilmer'
_symmetry_space_group_name_H-M	'P1'
_symmetry_Int_Tables_number	1
_symmetry_cell_setting	triclinic
loop_
_symmetry_equiv_pos_as_xyz
  x,y,z
_cell_length_a	16.109301
_cell_length_b	16.109301
_cell_length_c	13.448316
_cell_angle_alpha	89.991973
_cell_angle_beta	89.995602
_cell_angle_gamma	83.461532
loop_
_atom_site_label
_atom_site_type_symbol
_atom_site_fract_x
_atom_site_fract_y
_atom_site_fract_z
O1	O	1.103134	0.106870	-0.082640
O2	O	1.603134	0.606870	0.417360
O3	O	0.861072	0.120169	-0.082655
O4	O	1.361072	0.620169	0.417345
O5	O	0.988753	-0.007511	-0.082637
O6	O	1.488753	0.492489	0.417363
O7	O	0.975454	0.234551	-0.082658
O8	O	1.475454	0.734551	0.417342
O9	O	0.988737	-0.007519	0.082747
O10	O	1.488737	0.492481	0.582747
O11	O	0.861056	0.120161	0.082729
O12	O	1.361056	0.620161	0.582729
O13	O	1.103118	0.106862	0.082743
O14	O	1.603118	0.606862	0.582743
Cu15	Cu	0.982086	0.113511	0.097837
Cu16	Cu	1.482086	0.613511	0.597837
Cu17	Cu	0.982105	0.113520	-0.097748
Cu18	Cu	1.482105	0.613520	0.402252
O19	O	0.975438	0.234543	0.082726
O20	O	1.475438	0.734543	0.582726
C21	C	0.830089	0.119627	0.000035
C22	C	1.330089	0.619627	0.500035
C23	C	0.737794	0.118011	0.000030
C24	C	1.237794	0.618011	0.500030
C25	C	0.428796	0.188494	0.000041
C26	C	0.928796	0.688494	0.500041
C27	C	0.515516	0.190020	0.000036
C28	C	1.015516	0.690020	0.500036
C29	C	0.535389	0.038531	0.000035
C30	C	1.035389	0.538531	0.500035
C31	C	0.448671	0.037007	0.000034
C32	C	0.948671	0.537007	0.500034
C33	C	0.395376	0.111991	0.000042
C34	C	0.895376	0.611991	0.500042
C35	C	0.568815	0.115041	0.000038
C36	C	1.068815	0.615041	0.500038
C37	C	0.662841	0.116694	0.000031
C38	C	1.162841	0.616694	0.500031
C39	C	0.301344	0.110338	0.000047
C40	C	0.801344	0.610338	0.500047
C41	C	0.988206	-0.038490	0.000055
C42	C	1.488206	0.461510	0.500055
C43	C	0.986591	-0.130785	0.000057
C44	C	1.486591	0.369215	0.500057
C45	C	1.058599	-0.353058	0.000045
C46	C	1.558599	0.146942	0.500045
C47	C	1.057075	-0.439778	0.000037
C48	C	1.557075	0.060222	0.500037
C49	C	0.905586	-0.419904	0.000032
C50	C	1.405586	0.080096	0.500032
C51	C	0.907111	-0.333185	0.000033
C52	C	1.407111	0.166815	0.500033
C53	C	0.983620	-0.299765	0.000045
C54	C	1.483620	0.200235	0.500045
C55	C	0.980571	-0.473204	0.000035
C56	C	1.480571	0.026796	0.500035
C57	C	0.978918	-0.567230	0.000026
C58	C	1.478918	-0.067230	0.500026
C59	C	0.985273	-0.205733	0.000052
C60	C	1.485273	0.294267	0.500052
C61	C	1.134101	0.107405	0.000051
C62	C	1.634101	0.607405	0.500051
C63	C	1.226396	0.109020	0.000050
C64	C	1.726396	0.609020	0.500050
C65	C	0.975984	0.265522	0.000031
C66	C	1.475984	0.765522	0.500031
C67	C	0.977599	0.357817	0.000023
C68	C	1.477599	0.857817	0.500023
N69	N	0.982079	0.113504	0.235401
N70	N	1.482079	0.613504	0.735401
N71	N	0.982119	0.113521	-0.235313
N72	N	1.482119	0.613521	0.264687
C73	C	1.038633	0.056990	0.287450
C74	C	1.538633	0.556990	0.787450
C75	C	1.038638	0.056990	0.391553
C76	C	1.538638	0.556990	0.891553
C77	C	0.982092	0.113507	0.443606
C78	C	1.482092	0.613507	0.943606
C79	C	0.925532	0.170024	0.391550
C80	C	1.425532	0.670024	0.891550
C81	C	0.925523	0.170020	0.287449
C82	C	1.425523	0.670020	0.787449
C83	C	0.925555	0.170029	0.608531
C84	C	1.425555	0.670029	1.108531
C85	C	0.925564	0.170035	0.712639
C86	C	1.425564	0.670035	1.212639
C87	C	1.038670	0.056999	0.712634
C88	C	1.538670	0.556999	1.212634
C89	C	1.038661	0.056995	0.608533
C90	C	1.538661	0.556995	1.108533
C91	C	0.982102	0.113513	0.556485
C92	C	1.482102	0.613513	1.056485
H93	H	0.578792	-0.022518	0.000031
H94	H	1.078792	0.477482	0.500031
H95	H	0.421461	-0.025296	0.000032
H96	H	0.921461	0.474704	0.500032
H97	H	1.084689	0.010971	0.433930
H98	H	1.584689	0.510971	0.933930
C99	C	0.824630	-0.274559	0.000035
C100	C	1.324630	0.225441	0.500035
H101	H	0.778846	-0.306882	0.000043
H102	H	1.278846	0.193118	0.500043
H103	H	0.822081	-0.240310	-0.057637
H104	H	1.322081	0.259690	0.442363
H105	H	0.822076	-0.240325	0.057717
H106	H	1.322076	0.259675	0.557717
H107	H	1.118130	-0.483167	0.000035
H108	H	1.618130	0.016833	0.500035
C109	C	1.142754	-0.316297	0.000047
C110	C	1.642754	0.183703	0.500047
H111	H	1.187190	-0.360460	0.000037
H112	H	1.687190	0.139540	0.500037
H113	H	1.146498	-0.282888	0.057719
H114	H	1.646498	0.217112	0.557719
H115	H	1.146499	-0.282876	-0.057634
H116	H	1.646499	0.217124	0.442366
H117	H	0.879495	0.216049	0.566156
H118	H	1.379495	0.716049	1.066156
H119	H	0.843295	-0.447126	0.000024
H120	H	1.343295	0.052874	0.500024
C121	C	1.100833	-0.005181	0.230200
C122	C	1.600833	0.494819	0.730200
H123	H	1.134510	-0.038844	0.276112
H124	H	1.634510	0.461156	0.776112
H125	H	1.135429	0.024733	0.189574
H126	H	1.635429	0.524733	0.689574
H127	H	1.070929	-0.039805	0.189608
H128	H	1.570929	0.460195	0.689608
C129	C	1.100860	-0.005173	0.551276
C130	C	1.600860	0.494827	1.051276
H131	H	1.134540	-0.038838	0.597182
H132	H	1.634540	0.461162	1.097182
H133	H	1.135451	0.024745	0.510649
H134	H	1.635451	0.524745	1.010649
H135	H	1.070952	-0.039795	0.510684
H136	H	1.570952	0.460205	1.010684
H137	H	0.542722	0.252317	0.000034
H138	H	1.042722	0.752317	0.500034
C139	C	0.863306	0.232169	0.448801
C140	C	1.363306	0.732169	0.948801
H141	H	0.829610	0.265814	0.402891
H142	H	1.329610	0.765814	0.902891
H143	H	0.893178	0.266801	0.489413
H144	H	1.393178	0.766801	0.989413
H145	H	0.828720	0.202221	0.489409
H146	H	1.328720	0.702221	0.989409
H147	H	1.084722	0.010981	0.755018
H148	H	1.584722	0.510981	1.255018
C149	C	0.863313	0.232149	0.769896
C150	C	1.363313	0.732149	1.269896
H151	H	0.829604	0.265786	0.723990
H152	H	1.329604	0.765786	1.223990
H153	H	0.893158	0.266793	0.810523
H154	H	1.393158	0.766793	1.310523
H155	H	0.828743	0.202170	0.810488
H156	H	1.328743	0.702170	1.310488
C157	C	0.863317	0.232188	0.230196
C158	C	1.363317	0.732188	0.730196
H159	H	0.829646	0.265854	0.276105
H160	H	1.329646	0.765854	0.776105
H161	H	0.828716	0.202268	0.189600
H162	H	1.328716	0.702268	0.689600
H163	H	0.893214	0.266809	0.189573
H164	H	1.393214	0.766809	0.689573
H165	H	0.385405	0.249551	0.000047
H166	H	0.885405	0.749551	0.500047
