data_functionalizedCrystal
_audit_creation_method	'MofGen! by Chris Wilmer'
_symmetry_space_group_name_H-M	'P1'
_symmetry_Int_Tables_number	1
_symmetry_cell_setting	triclinic
loop_
_symmetry_equiv_pos_as_xyz
  x,y,z
_cell_length_a	13.032831
_cell_length_b	16.625546
_cell_length_c	13.032268
_cell_angle_alpha	97.144614
_cell_angle_beta	90.886977
_cell_angle_gamma	82.826778
loop_
_atom_site_label
_atom_site_type_symbol
_atom_site_fract_x
_atom_site_fract_y
_atom_site_fract_z
Zn1	Zn	1.498429	-0.544521	-0.780776
Zn2	Zn	1.520160	-0.664651	-0.608784
Zn3	Zn	1.348291	-0.510838	-0.587021
Zn4	Zn	1.326409	-0.660292	-0.758909
O5	O	1.423322	-0.595075	-0.683873
O6	O	1.645231	-0.576377	-0.776220
O7	O	1.515614	-0.631976	-0.461981
O8	O	1.368270	-0.402484	-0.612767
O9	O	1.661197	-0.664636	-0.649858
O10	O	1.478576	-0.427231	-0.755118
O11	O	1.389342	-0.518970	-0.445992
O12	O	1.201469	-0.514743	-0.591563
O13	O	1.330976	-0.657206	-0.905725
O14	O	1.185392	-0.624546	-0.717849
O15	O	1.457358	-0.572150	-0.921791
O16	O	1.494396	-0.776895	-0.628654
O17	O	1.352048	-0.773692	-0.738951
C18	C	1.156114	-0.565517	-0.649972
C19	C	1.041798	-0.552893	-0.635494
C20	C	0.982917	-0.601664	-0.691429
C21	C	0.864766	-0.588618	-0.676466
C22	C	1.423230	-0.804552	-0.683817
C23	C	1.423281	-0.894180	-0.683840
C24	C	1.423447	-1.222385	-0.683970
C25	C	1.423397	-1.131068	-0.683936
C26	C	1.423363	-1.058285	-0.683904
C27	C	1.423315	-0.966963	-0.683872
C28	C	1.691574	-0.624750	-0.717906
C29	C	1.805887	-0.637396	-0.732409
C30	C	1.389302	-0.617949	-0.952117
C31	C	1.374805	-0.627696	-1.066427
C32	C	1.423440	-0.384786	-0.683954
C33	C	1.423490	-0.295173	-0.683989
C34	C	1.430873	-0.589958	-1.125339
C35	C	1.415890	-0.600031	-1.243485
C36	C	1.457270	-0.572239	-0.416679
C37	C	1.471966	-0.562287	-0.302395
H38	H	1.004736	-0.501477	-0.576533
C39	C	1.032971	-0.671123	-0.771091
C40	C	1.003497	-0.673052	-0.886178
C41	C	1.053546	-0.742514	-0.965842
C42	C	1.133069	-0.810047	-0.930419
C43	C	1.162547	-0.808121	-0.815327
C44	C	1.112498	-0.738659	-0.735663
H45	H	0.944626	-0.623058	-0.912405
H46	H	1.031724	-0.743939	-1.051041
H47	H	1.170118	-0.861467	-0.989392
H48	H	1.221418	-0.858115	-0.789100
H49	H	1.134320	-0.737234	-0.650463
H50	H	1.489963	-0.550187	-1.088309
H51	H	0.842942	-0.688808	-0.791385
C52	C	1.551806	-0.508559	-1.252387
C53	C	1.666872	-0.529313	-1.281887
C54	C	1.746710	-0.475587	-1.231878
C55	C	1.711482	-0.401107	-1.152368
C56	C	1.596411	-0.380349	-1.122864
C57	C	1.516573	-0.434075	-1.172873
H58	H	1.692955	-0.584452	-1.340748
H59	H	1.831894	-0.490954	-1.253719
H60	H	1.770583	-0.361335	-1.115349
H61	H	1.570328	-0.325211	-1.064003
H62	H	1.431389	-0.418708	-1.151032
C63	C	1.294969	-0.681421	-1.116440
C64	C	1.179903	-0.660667	-1.086940
C65	C	1.100065	-0.714394	-1.136950
C66	C	1.135293	-0.788874	-1.216459
C67	C	1.250365	-0.809632	-1.245963
C68	C	1.330203	-0.755905	-1.195953
H69	H	1.153820	-0.605529	-1.028079
H70	H	1.014881	-0.699027	-1.115108
H71	H	1.076193	-0.828646	-1.253479
H72	H	1.276448	-0.864770	-1.304824
H73	H	1.415386	-0.771272	-1.217795
H74	H	1.356786	-0.639795	-1.280509
C75	C	0.814715	-0.519156	-0.596800
C76	C	0.735191	-0.451623	-0.632223
C77	C	0.685139	-0.382163	-0.552559
C78	C	0.714611	-0.380235	-0.437472
C79	C	0.794139	-0.447769	-0.402043
C80	C	0.844191	-0.517230	-0.481707
H81	H	0.713370	-0.453049	-0.717423
H82	H	0.626266	-0.332169	-0.578786
H83	H	0.677559	-0.328816	-0.378499
H84	H	0.815959	-0.446344	-0.316843
H85	H	0.903063	-0.567224	-0.455480
