data_functionalizedCrystal
_audit_creation_method	'MofGen! by Chris Wilmer'
_symmetry_space_group_name_H-M	'P1'
_symmetry_Int_Tables_number	1
_symmetry_cell_setting	triclinic
loop_
_symmetry_equiv_pos_as_xyz
  x,y,z
_cell_length_a	18.050591
_cell_length_b	18.050590
_cell_length_c	18.050582
_cell_angle_alpha	90.013008
_cell_angle_beta	89.976005
_cell_angle_gamma	89.998875
loop_
_atom_site_label
_atom_site_type_symbol
_atom_site_fract_x
_atom_site_fract_y
_atom_site_fract_z
Zn1	Zn	-1.135397	-0.295844	0.420142
Zn2	Zn	-0.635397	0.204156	0.920142
Zn3	Zn	-1.135351	-0.420027	0.295972
Zn4	Zn	-0.635351	0.079973	0.795972
Zn5	Zn	-1.011216	-0.295840	0.295946
Zn6	Zn	-0.511216	0.204160	0.795946
Zn7	Zn	-1.011208	-0.419981	0.420101
Zn8	Zn	-0.511208	0.080019	0.920101
O9	O	-1.073293	-0.357923	0.358040
O10	O	-0.573293	0.142077	0.858040
O11	O	-1.239315	-0.312337	0.403698
O12	O	-0.739315	0.187663	0.903698
O13	O	-1.118869	-0.403571	0.192044
O14	O	-0.618869	0.096429	0.692044
O15	O	-1.027711	-0.191916	0.312427
O16	O	-0.527711	0.308084	0.812427
O17	O	-1.239282	-0.403574	0.312472
O18	O	-0.739282	0.096426	0.812472
O19	O	-1.118946	-0.191919	0.403673
O20	O	-0.618946	0.308081	0.903673
O21	O	-1.027667	-0.312332	0.192025
O22	O	-0.527667	0.187668	0.692025
O23	O	-0.907290	-0.312287	0.312388
O24	O	-0.407290	0.187713	0.812388
O25	O	-1.027697	-0.403496	0.524031
O26	O	-0.527697	0.096504	1.024031
O27	O	-0.907284	-0.403493	0.403604
O28	O	-0.407284	0.096507	0.903604
O29	O	-1.118938	-0.312293	0.524061
O30	O	-0.618938	0.187707	1.024061
O31	O	-1.118861	-0.523945	0.312432
O32	O	-0.618861	-0.023945	0.812432
O33	O	-1.027653	-0.523912	0.403629
O34	O	-0.527653	-0.023912	0.903629
C35	C	-0.880341	-0.357885	0.357989
C36	C	-0.380341	0.142115	0.857989
C37	C	-0.797795	-0.357887	0.357985
C38	C	-0.297795	0.142113	0.857985
C39	C	-0.598326	-0.308222	0.308485
C40	C	-0.098326	0.191778	0.808485
C41	C	-0.548930	-0.375955	0.290217
C42	C	-0.048930	0.124045	0.790217
C43	C	-0.646665	-0.357902	0.358010
C44	C	-0.146665	0.142098	0.858010
C45	C	-0.548979	-0.290185	0.376268
C46	C	-0.048979	0.209815	0.876268
C47	C	-0.500679	-0.357911	0.358033
C48	C	-0.000679	0.142089	0.858033
C49	C	-0.598356	-0.425671	0.339707
C50	C	-0.098356	0.074329	0.839707
C51	C	-0.598409	-0.339855	0.425789
C52	C	-0.098409	0.160145	0.925789
C53	C	-0.549035	-0.407635	0.407548
C54	C	-0.049035	0.092365	0.907548
C55	C	-0.730763	-0.357896	0.357995
C56	C	-0.230763	0.142104	0.857995
C57	C	-0.416583	-0.357924	0.358049
C58	C	0.083417	0.142076	0.858049
C59	C	-1.073271	-0.550875	0.358046
C60	C	-0.573271	-0.050875	0.858046
C61	C	-1.073330	-0.633421	0.358073
C62	C	-0.573330	-0.133421	0.858073
C63	C	-1.073322	-0.357890	0.551746
C64	C	-0.573322	0.142110	1.051746
C65	C	-1.073334	-0.357876	0.634292
C66	C	-0.573334	0.142124	1.134292
C67	C	-0.266998	-0.357948	0.358079
C68	C	0.233002	0.142052	0.858079
C69	C	-0.349544	-0.357926	0.358061
C70	C	0.150456	0.142074	0.858061
C71	C	-1.073335	-0.164217	0.358051
C72	C	-0.573335	0.335783	0.858051
C73	C	-1.073353	-0.081672	0.358056
C74	C	-0.573353	0.418328	0.858056
C75	C	-1.122964	0.117778	0.407691
C76	C	-0.622964	0.617778	0.907691
C77	C	-1.141118	0.167156	0.339944
C78	C	-0.641118	0.667156	0.839944
C79	C	-1.073345	0.069459	0.358060
C80	C	-0.573345	0.569459	0.858060
C81	C	-1.055218	0.167162	0.425810
C82	C	-0.555218	0.667162	0.925810
C83	C	-1.073340	0.215444	0.358070
C84	C	-0.573340	0.715444	0.858070
C85	C	-1.091535	0.117750	0.290277
C86	C	-0.591535	0.617750	0.790277
C87	C	-1.005604	0.117752	0.376188
C88	C	-0.505604	0.617752	0.876188
C89	C	-1.023732	0.167108	0.308394
C90	C	-0.523732	0.667108	0.808394
C91	C	-1.073351	-0.014640	0.358055
C92	C	-0.573351	0.485360	0.858055
C93	C	-1.073334	0.299540	0.358067
C94	C	-0.573334	0.799540	0.858067
C95	C	-1.073307	-0.357902	0.165088
C96	C	-0.573307	0.142098	0.665088
C97	C	-1.073438	-0.357707	0.082543
C98	C	-0.573438	0.142293	0.582543
C99	C	-1.023755	-0.407405	0.833726
C100	C	-0.523755	0.092595	1.333726
C101	C	-1.091517	-0.425566	0.883132
C102	C	-0.591517	0.074434	1.383132
C103	C	-1.073371	-0.357819	0.785422
C104	C	-0.573371	0.142181	1.285422
C105	C	-1.005647	-0.339637	0.883099
C106	C	-0.505647	0.160363	1.383099
C107	C	-1.073400	-0.357766	0.931408
C108	C	-0.573400	0.142234	1.431408
C109	C	-1.141168	-0.376017	0.833740
C110	C	-0.641168	0.123983	1.333740
C111	C	-1.055252	-0.290056	0.833703
C112	C	-0.555252	0.209944	1.333703
C113	C	-1.123060	-0.308192	0.883086
C114	C	-0.623060	0.191808	1.383086
C115	C	-1.073353	-0.357852	0.701324
C116	C	-0.573353	0.142148	1.201324
C117	C	-1.073426	-0.357733	1.015504
C118	C	-0.573426	0.142267	1.515504
H119	H	-0.527529	-0.449700	0.449439
H120	H	-0.027529	0.050300	0.949439
F121	F	-1.035181	0.195534	0.500692
F122	F	-0.535181	0.695534	1.000692
H123	H	-0.981836	-0.449392	0.812054
H124	H	-0.481836	0.050608	1.312054
H125	H	-1.164959	0.096118	0.449606
H126	H	-0.664959	0.596118	0.949606
F127	F	-1.111572	-0.500439	0.911511
F128	F	-0.611572	-0.000439	1.411511
F129	F	-0.520625	-0.215329	0.396438
F130	F	-0.020625	0.284671	0.896438
F131	F	-1.111650	0.089502	0.215369
F132	F	-0.611650	0.589502	0.715369
H133	H	-0.948361	-0.324281	0.904781
H134	H	-0.448361	0.175719	1.404781
F135	F	-1.216066	-0.396180	0.805522
F136	F	-0.716066	0.103820	1.305522
F137	F	-1.177981	-0.253353	0.911239
F138	F	-0.677981	0.246647	1.411239
F139	F	-1.035172	-0.215203	0.805302
F140	F	-0.535172	0.284797	1.305302
F141	F	-0.626617	-0.253371	0.253690
F142	F	-0.126617	0.246629	0.753690
F143	F	-0.520523	-0.395919	0.215311
F144	F	-0.020523	0.104081	0.715311
H145	H	-0.981769	0.188631	0.266378
H146	H	-0.481769	0.688631	0.766378
H147	H	-0.619955	-0.482959	0.324211
H148	H	-0.119955	0.017041	0.824211
H149	H	-0.620159	-0.324561	0.483082
H150	H	-0.120159	0.175439	0.983082
F151	F	-1.215993	0.195522	0.319900
F152	F	-0.715993	0.695522	0.819900
H153	H	-0.948334	0.096036	0.391542
H154	H	-0.448334	0.596036	0.891542
