data_functionalizedCrystal
_audit_creation_method	'MofGen! by Chris Wilmer'
_symmetry_space_group_name_H-M	'P1'
_symmetry_Int_Tables_number	1
_symmetry_cell_setting	triclinic
loop_
_symmetry_equiv_pos_as_xyz
  x,y,z
_cell_length_a	19.188930
_cell_length_b	10.065875
_cell_length_c	11.026607
_cell_angle_alpha	79.302338
_cell_angle_beta	95.865399
_cell_angle_gamma	98.754308
loop_
_atom_site_label
_atom_site_type_symbol
_atom_site_fract_x
_atom_site_fract_y
_atom_site_fract_z
O1	O	0.284145	-0.113552	1.626420
O2	O	0.250876	-0.113547	1.273289
O3	O	0.167156	-0.113523	1.460041
O4	O	0.367866	-0.113576	1.439668
O5	O	0.183202	0.113461	1.424429
O6	O	0.266922	0.113437	1.237678
O7	O	0.300192	0.113432	1.590808
Zn8	Zn	0.286105	0.149473	1.408589
Zn9	Zn	0.264963	-0.149588	1.455509
O10	O	0.383912	0.113408	1.404057
C11	C	0.149084	-0.000027	1.441574
C12	C	0.071328	-0.000015	1.439591
C13	C	0.252761	-0.000054	1.210305
C14	C	0.234465	-0.000051	1.075688
N15	N	0.300534	0.353575	1.376576
C16	C	0.040370	-0.000010	1.549173
C17	C	-0.032693	-0.000032	1.547315
C18	C	-0.074793	-0.000031	1.435865
C19	C	-0.043828	-0.000044	1.326271
C20	C	0.029233	-0.000036	1.328134
N21	N	-0.188194	0.077217	1.338556
N22	N	-0.257598	0.077212	1.336793
C23	C	-0.294920	-0.000059	1.430245
N24	N	-0.260215	-0.077308	1.525543
N25	N	-0.190805	-0.077297	1.527308
C26	C	-0.154015	-0.000041	1.433832
C27	C	-0.405101	-0.000080	1.537819
C28	C	-0.478166	-0.000110	1.535958
C29	C	-0.489298	-0.000108	1.314909
C30	C	-0.416236	-0.000092	1.316775
C31	C	-0.374141	-0.000071	1.428233
C32	C	0.401983	-0.000091	1.422523
C33	C	0.479739	-0.000112	1.424508
N34	N	0.250529	-0.353689	1.487531
C35	C	0.269978	0.421362	1.444363
C36	C	0.281090	0.578527	1.419734
C37	C	0.284984	-0.000065	1.001616
C38	C	0.266075	-0.000062	0.862482
C39	C	0.298306	-0.000064	1.653793
C40	C	0.316602	-0.000076	1.788412
H41	H	0.074639	0.000002	1.639931
C42	C	0.362326	-0.000089	1.055081
H43	H	0.391570	-0.000089	0.990565
H44	H	0.365968	-0.079244	1.116243
H45	H	0.377161	0.079075	1.091399
H46	H	-0.078110	-0.000047	1.235528
H47	H	0.216137	0.588000	1.563799
C48	C	0.063289	-0.000028	1.207587
H49	H	0.027755	-0.000025	1.140942
H50	H	0.085975	-0.079174	1.216137
H51	H	0.097143	0.079145	1.191302
C52	C	0.346989	0.432344	1.273546
H53	H	0.348367	0.527643	1.270515
H54	H	0.327700	0.409016	1.196227
H55	H	0.393568	0.408979	1.290348
C56	C	0.188729	-0.000049	0.809018
H57	H	0.186166	-0.000060	0.722520
H58	H	0.171745	0.079107	0.823351
H59	H	0.160561	-0.079211	0.848190
H60	H	0.235588	0.363048	1.520626
C61	C	0.327547	0.657290	1.316699
H62	H	0.328925	0.752589	1.313668
H63	H	0.308258	0.633962	1.239380
H64	H	0.374126	0.633926	1.333501
H65	H	0.373857	-0.000082	0.827993
C66	C	0.157123	-0.000038	1.022219
H67	H	0.154559	-0.000049	0.935721
H68	H	0.140139	0.079118	1.036552
H69	H	0.128955	-0.079200	1.061390
H70	H	-0.057904	-0.000033	1.636552
C71	C	-0.382176	-0.000088	1.196237
H72	H	-0.332636	-0.000096	1.213310
H73	H	-0.390848	0.079061	1.138096
H74	H	-0.402026	-0.079257	1.162949
C75	C	-0.358792	-0.000074	1.660414
H76	H	-0.310844	-0.000051	1.645827
H77	H	-0.374064	-0.079231	1.717939
H78	H	-0.362892	0.079087	1.693099
C79	C	-0.512224	-0.000120	1.656503
H80	H	-0.561767	-0.000148	1.639437
H81	H	-0.492380	0.079036	1.689803
H82	H	-0.503547	-0.079282	1.714636
C83	C	-0.535600	-0.000112	1.192317
H84	H	-0.583546	-0.000110	1.206899
H85	H	-0.531499	-0.079264	1.159630
H86	H	-0.520326	0.079055	1.134792
