data_functionalizedCrystal
_audit_creation_method	'MofGen! by Chris Wilmer'
_symmetry_space_group_name_H-M	'P1'
_symmetry_Int_Tables_number	1
_symmetry_cell_setting	triclinic
loop_
_symmetry_equiv_pos_as_xyz
  x,y,z
_cell_length_a	14.519709
_cell_length_b	15.072220
_cell_length_c	14.519731
_cell_angle_alpha	90.002099
_cell_angle_beta	83.684499
_cell_angle_gamma	90.006889
loop_
_atom_site_label
_atom_site_type_symbol
_atom_site_fract_x
_atom_site_fract_y
_atom_site_fract_z
O1	O	1.223888	0.073669	0.120884
O2	O	1.557221	0.407002	0.454217
O3	O	1.890555	0.740336	0.787551
O4	O	0.955412	0.073696	0.135120
O5	O	1.288746	0.407030	0.468454
O6	O	1.622079	0.740363	0.801787
O7	O	1.096758	0.073674	-0.006235
O8	O	1.430092	0.407007	0.327098
O9	O	1.763425	0.740341	0.660432
O10	O	1.082542	0.073691	0.262239
O11	O	1.415876	0.407025	0.595573
O12	O	1.749209	0.740358	0.928906
O13	O	1.096723	-0.073891	-0.006227
O14	O	1.430057	0.259442	0.327106
O15	O	1.763390	0.592775	0.660439
O16	O	0.955377	-0.073869	0.135128
O17	O	1.288711	0.259465	0.468461
O18	O	1.622044	0.592798	0.801795
O19	O	1.223853	-0.073896	0.120892
O20	O	1.557186	0.259437	0.454225
O21	O	1.890520	0.592771	0.787558
Zn22	Zn	1.089610	-0.097312	0.128011
Zn23	Zn	1.422943	0.236022	0.461345
Zn24	Zn	1.756276	0.569355	0.794678
Zn25	Zn	1.089656	0.097112	0.128001
Zn26	Zn	1.422989	0.430445	0.461334
Zn27	Zn	1.756322	0.763778	0.794668
O28	O	1.082507	-0.073874	0.262247
O29	O	1.415841	0.259460	0.595580
O30	O	1.749174	0.592793	0.928914
C31	C	0.921035	-0.000083	0.134461
C32	C	1.254368	0.333251	0.467794
C33	C	1.587702	0.666584	0.801127
C34	C	0.818654	-0.000073	0.132473
C35	C	1.151987	0.333261	0.465806
C36	C	1.485320	0.666594	0.799139
N37	N	1.089585	-0.230000	0.128018
N38	N	1.422918	0.103333	0.461351
N39	N	1.756252	0.436666	0.794684
C40	C	0.443757	-0.000113	0.125153
C41	C	0.777091	0.333220	0.458486
C42	C	1.110424	0.666553	0.791820
C43	C	0.548065	-0.000102	0.127186
C44	C	0.881399	0.333232	0.460519
C45	C	1.214732	0.666565	0.793852
C46	C	0.631202	-0.000092	0.128813
C47	C	0.964535	0.333241	0.462146
C48	C	1.297869	0.666574	0.795479
C49	C	0.735517	-0.000082	0.130846
C50	C	1.068850	0.333251	0.464179
C51	C	1.402183	0.666584	0.797512
C52	C	1.089654	-0.589202	0.127997
C53	C	1.422987	-0.255869	0.461331
C54	C	1.756321	0.077465	0.794664
C55	C	1.013768	-0.551583	0.203379
C56	C	1.347101	-0.218250	0.536713
C57	C	1.680434	0.115084	0.870046
C58	C	1.013942	-0.448757	0.203655
C59	C	1.347276	-0.115424	0.536989
C60	C	1.680609	0.217909	0.870322
C61	C	1.089619	-0.410998	0.128007
C62	C	1.422952	-0.077665	0.461341
C63	C	1.756286	0.255669	0.794674
C64	C	1.185881	-0.448297	0.149183
C65	C	1.519215	-0.114964	0.482516
C66	C	1.852548	0.218369	0.815850
C67	C	1.185456	-0.551155	0.149719
C68	C	1.518790	-0.217822	0.483052
C69	C	1.852123	0.115511	0.816386
C70	C	1.070135	-0.551306	0.031217
C71	C	1.403469	-0.217973	0.364551
C72	C	1.736802	0.115361	0.697884
C73	C	1.067929	-0.448442	0.031859
C74	C	1.401262	-0.115109	0.365192
C75	C	1.734595	0.218224	0.698526
C76	C	1.089605	-0.310284	0.128011
C77	C	1.422938	0.023049	0.461345
C78	C	1.756272	0.356382	0.794678
C79	C	1.089674	-0.689915	0.127995
C80	C	1.423007	-0.356582	0.461329
C81	C	1.756341	-0.023249	0.794662
C82	C	1.258230	-0.000115	0.121551
C83	C	1.591564	0.333218	0.454885
C84	C	1.924897	0.666552	0.788218
C85	C	1.360612	-0.000119	0.123539
C86	C	1.693945	0.333214	0.456873
C87	C	2.027278	0.666547	0.790206
C88	C	1.096075	-0.000109	-0.040591
C89	C	1.429408	0.333225	0.292743
C90	C	1.762741	0.666558	0.626076
C91	C	1.094079	-0.000109	-0.142971
C92	C	1.427412	0.333224	0.190363
C93	C	1.760745	0.666558	0.523696
N94	N	1.089688	0.229801	0.127987
N95	N	1.423021	0.563134	0.461320
N96	N	1.756354	0.896467	0.794654
C97	C	1.092457	-0.000107	-0.226115
C98	C	1.425790	0.333226	0.107218
C99	C	1.759123	0.666560	0.440552
C100	C	1.090430	-0.000100	-0.330424
C101	C	1.423763	0.333233	0.002910
C102	C	1.757097	0.666567	0.336243
C103	C	1.088822	-0.000094	-0.413563
C104	C	1.422155	0.333239	-0.080229
C105	C	1.755488	0.666573	0.253104
C106	C	1.086795	-0.000089	-0.517878
C107	C	1.420129	0.333245	-0.184545
C108	C	1.753462	0.666578	0.148789
C109	C	1.083191	-0.000089	0.296603
C110	C	1.416524	0.333244	0.629936
C111	C	1.749857	0.666578	0.963269
C112	C	1.085187	-0.000083	0.398983
C113	C	1.418520	0.333250	0.732316
C114	C	1.751854	0.666584	1.065649
H115	H	0.942394	-0.423540	0.191015
H116	H	1.275727	-0.090207	0.524349
H117	H	1.609061	0.243127	0.857682
Br118	Br	1.162368	-0.591850	-0.062285
Br119	Br	1.495702	-0.258517	0.271049
Br120	Br	1.829035	0.074816	0.604382
H121	H	1.001456	-0.577291	0.010895
H122	H	1.334790	-0.243958	0.344228
H123	H	1.668123	0.089376	0.677561
H124	H	0.941988	-0.576338	0.190945
H125	H	1.275322	-0.243005	0.524278
H126	H	1.608655	0.090329	0.857612
H127	H	0.997116	-0.424064	0.015793
H128	H	1.330449	-0.090731	0.349126
H129	H	1.663783	0.242602	0.682459
Br130	Br	1.154055	-0.405622	-0.066042
Br131	Br	1.487388	-0.072289	0.267291
Br132	Br	1.820722	0.261045	0.600624
H133	H	1.026423	-0.424140	0.275471
H134	H	1.359757	-0.090807	0.608804
H135	H	1.693090	0.242526	0.942137
Br136	Br	1.034293	-0.594622	0.322409
Br137	Br	1.367626	-0.261289	0.655742
Br138	Br	1.700960	0.072044	0.989075
H139	H	1.202631	-0.575134	0.220305
H140	H	1.535964	-0.241801	0.553638
H141	H	1.869297	0.091533	0.886971
Br142	Br	1.282265	-0.407538	0.060117
Br143	Br	1.615599	-0.074205	0.393450
Br144	Br	1.948932	0.259128	0.726783
H145	H	1.243698	-0.576039	0.096988
H146	H	1.577031	-0.242706	0.430321
H147	H	1.910365	0.090628	0.763654
H148	H	1.203462	-0.422526	0.218965
H149	H	1.536795	-0.089192	0.552299
H150	H	1.870128	0.244141	0.885632
