data_functionalizedCrystal
_audit_creation_method	'MofGen! by Chris Wilmer'
_symmetry_space_group_name_H-M	'P1'
_symmetry_Int_Tables_number	1
_symmetry_cell_setting	triclinic
loop_
_symmetry_equiv_pos_as_xyz
  x,y,z
_cell_length_a	17.038272
_cell_length_b	13.339070
_cell_length_c	11.804365
_cell_angle_alpha	74.887832
_cell_angle_beta	77.284774
_cell_angle_gamma	76.629575
loop_
_atom_site_label
_atom_site_type_symbol
_atom_site_fract_x
_atom_site_fract_y
_atom_site_fract_z
O1	O	1.097547	-0.204439	-0.098970
O2	O	1.597547	0.295561	0.401030
O3	O	0.869146	-0.200882	-0.098983
O4	O	1.369146	0.299118	0.401017
O5	O	0.957133	-0.053141	-0.098975
O6	O	1.457133	0.446859	0.401025
O7	O	1.009560	-0.352179	-0.098979
O8	O	1.509560	0.147821	0.401021
O9	O	0.933960	-0.091993	0.099079
O10	O	1.433960	0.408007	0.599079
O11	O	0.845973	-0.239734	0.099070
O12	O	1.345973	0.260266	0.599070
O13	O	1.074374	-0.243291	0.099083
O14	O	1.574374	0.256709	0.599083
Cu15	Cu	0.958058	-0.245060	0.117161
Cu16	Cu	1.458058	0.254940	0.617161
Cu17	Cu	0.985463	-0.199113	-0.117061
Cu18	Cu	1.485463	0.300887	0.382939
O19	O	0.986387	-0.391032	0.099075
O20	O	1.486387	0.108968	0.599075
C21	C	0.827730	-0.217075	0.000042
C22	C	1.327730	0.282925	0.500042
C23	C	0.738843	-0.207428	0.000037
C24	C	1.238843	0.292572	0.500037
C25	C	1.115791	-0.227098	0.000055
C26	C	1.615791	0.272902	0.500055
C27	C	1.204679	-0.236743	0.000053
C28	C	1.704679	0.263257	0.500053
C29	C	0.936691	-0.034115	0.000050
C30	C	1.436691	0.465885	0.500050
C31	C	0.910295	0.080459	0.000044
C32	C	1.410295	0.580459	0.500044
C33	C	1.235565	-0.148185	0.000050
C34	C	1.735565	0.351815	0.500050
C35	C	1.319084	-0.157255	0.000054
C36	C	1.819084	0.342745	0.500054
C37	C	1.371717	-0.254882	0.000053
C38	C	1.871717	0.245118	0.500053
C39	C	1.340825	-0.343446	0.000059
C40	C	1.840825	0.156554	0.500059
C41	C	1.257307	-0.334377	0.000063
C42	C	1.757307	0.165623	0.500063
C43	C	1.624433	-0.286923	0.000047
C44	C	2.124433	0.213077	0.500047
C45	C	1.707957	-0.295985	0.000039
C46	C	2.207957	0.204015	0.500039
C47	C	1.686210	-0.109794	0.000037
C48	C	2.186210	0.390206	0.500037
C49	C	1.602691	-0.100732	0.000034
C50	C	2.102691	0.399268	0.500034
C51	C	1.571806	-0.189298	0.000047
C52	C	2.071806	0.310702	0.500047
C53	C	1.457088	-0.264154	0.000053
C54	C	1.957088	0.235846	0.500053
C55	C	1.486436	-0.180026	0.000055
C56	C	1.986436	0.319974	0.500055
C57	C	1.006830	-0.410057	0.000047
C58	C	1.506830	0.089943	0.500047
C59	C	1.033227	-0.524630	0.000046
C60	C	1.533227	-0.024630	0.500046
N61	N	0.938789	-0.277377	0.281899
N62	N	1.438789	0.222623	0.781899
C63	C	1.115544	0.427586	0.000056
C64	C	1.615544	0.927586	0.500056
C65	C	1.140346	0.319936	0.000068
C66	C	1.640346	0.819936	0.500068
C67	C	1.082836	0.260061	0.000062
C68	C	1.582836	0.760061	0.500062
C69	C	1.000518	0.307847	0.000043
C70	C	1.500518	0.807847	0.500043
C71	C	0.975712	0.415506	0.000040
C72	C	1.475712	0.915506	0.500040
C73	C	0.943004	0.247982	0.000046
C74	C	1.443004	0.747982	0.500046
C75	C	0.860686	0.295768	0.000028
C76	C	1.360686	0.795768	0.500028
C77	C	0.835884	0.403416	0.000024
C78	C	1.335884	0.903416	0.500024
C79	C	0.893395	0.463290	0.000030
C80	C	1.393395	0.963290	0.500030
C81	C	0.967810	0.140323	0.000049
C82	C	1.467810	0.640323	0.500049
C83	C	0.827978	0.128244	0.000034
C84	C	1.327978	0.628244	0.500034
C85	C	0.803175	0.235894	0.000021
C86	C	1.303175	0.735894	0.500021
N87	N	1.004736	-0.166788	-0.281800
N88	N	1.504736	0.333212	0.218200
C89	C	1.051004	-0.089164	0.655859
C90	C	1.551004	0.410836	1.155859
C91	C	1.065579	-0.064711	0.531199
C92	C	1.565579	0.435289	1.031199
C93	C	1.033883	-0.117876	0.468868
C94	C	1.533883	0.382124	0.968868
C95	C	0.987609	-0.195496	0.531209
C96	C	1.487609	0.304504	1.031209
C97	C	0.973038	-0.219957	0.655882
C98	C	1.473038	0.280043	1.155882
C99	C	0.955916	-0.248669	0.468891
C100	C	1.455916	0.251331	0.968891
C101	C	0.909643	-0.326290	0.531232
C102	C	1.409643	0.173710	1.031232
C103	C	0.895073	-0.350745	0.655892
C104	C	1.395073	0.149255	1.155892
C105	C	0.926770	-0.297581	0.718223
C106	C	1.426770	0.202419	1.218223
C107	C	0.970488	-0.224208	0.344218
C108	C	1.470488	0.275792	0.844218
C109	C	0.892521	-0.355002	0.344241
C110	C	1.392521	0.144998	0.844241
C111	C	0.877946	-0.379454	0.468901
C112	C	1.377946	0.120546	0.968901
H113	H	1.192717	-0.068686	0.000044
H114	H	1.692717	0.431314	0.500044
H115	H	1.207369	0.281036	0.000085
H116	H	1.707369	0.781036	0.500085
F117	F	1.719085	-0.015544	0.000030
F118	F	2.219085	0.484456	0.500030
H119	H	1.232161	-0.406491	0.000070
H120	H	1.732161	0.093509	0.500070
H121	H	1.599298	-0.359040	0.000052
H122	H	2.099298	0.140960	0.500052
H123	H	0.840269	-0.442655	0.519675
H124	H	1.340269	0.057345	1.019675
F125	F	1.351950	-0.063001	0.000058
F126	F	1.851950	0.436999	0.500058
H127	H	1.008164	-0.161010	0.293471
H128	H	1.508164	0.338990	0.793471
F129	F	1.430418	-0.076129	0.000063
F130	F	1.930418	0.423871	0.500063
H131	H	1.383685	-0.422938	0.000065
H132	H	1.883685	0.077062	0.500065
H133	H	1.162359	0.476342	0.000071
H134	H	1.662359	0.976342	0.500071
H135	H	0.866713	-0.398295	0.293492
H136	H	1.366713	0.101705	0.793492
H137	H	1.103035	0.172408	0.000072
H138	H	1.603035	0.672408	0.500072
H139	H	1.750808	-0.375492	0.000055
H140	H	2.250808	0.124508	0.500055
F141	F	0.748273	0.454268	0.000019
F142	F	1.248273	0.954268	0.500019
F143	F	1.513112	-0.368051	0.000040
F144	F	2.013112	0.131949	0.500040
H145	H	1.559842	-0.021234	0.000036
H146	H	2.059842	0.478766	0.500036
H147	H	0.914900	-0.317487	0.819732
H148	H	1.414900	0.182513	1.319732
F149	F	1.049395	-0.091848	0.336193
F150	F	1.549395	0.408152	0.836193
F151	F	0.766765	0.064525	0.000034
F152	F	1.266765	0.564525	0.500034
F153	F	0.845835	-0.433367	0.722241
F154	F	1.345835	0.066633	1.222241
F155	F	1.055415	0.089478	0.000070
F156	F	1.555415	0.589478	0.500070
F157	F	0.867015	0.577888	-0.000095
F158	F	1.367015	1.077888	0.499905
F159	F	0.715569	0.286764	-0.000001
F160	F	1.215569	0.786764	0.499999
F161	F	1.114825	0.017893	0.464854
F162	F	1.614825	0.517893	0.964854
H163	H	1.076813	-0.045890	0.706617
H164	H	1.576813	0.454110	1.206617
