data_functionalizedCrystal
_audit_creation_method	'MofGen! by Chris Wilmer'
_symmetry_space_group_name_H-M	'P1'
_symmetry_Int_Tables_number	1
_symmetry_cell_setting	triclinic
loop_
_symmetry_equiv_pos_as_xyz
  x,y,z
_cell_length_a	10.723023
_cell_length_b	9.198806
_cell_length_c	9.065218
_cell_angle_alpha	90.001601
_cell_angle_beta	84.741717
_cell_angle_gamma	90.003822
loop_
_atom_site_label
_atom_site_type_symbol
_atom_site_fract_x
_atom_site_fract_y
_atom_site_fract_z
O1	O	1.658029	0.120882	0.206934
O2	O	1.294957	0.120885	0.226743
O3	O	1.483997	0.120881	0.002153
O4	O	1.468988	0.120887	0.431523
O5	O	1.483982	-0.120904	0.002152
O6	O	1.294942	-0.120900	0.226741
O7	O	1.658014	-0.120903	0.206932
Cu8	Cu	1.476476	-0.142978	0.216836
Cu9	Cu	1.476494	0.142961	0.216839
O10	O	1.468973	-0.120898	0.431522
C11	C	1.248444	-0.000007	0.225301
C12	C	1.109872	-0.000005	0.220989
C13	C	1.048100	0.125247	0.219067
C14	C	0.904879	0.125251	0.214610
N15	N	1.476473	-0.344092	0.216834
C16	C	1.549585	-0.416290	0.302390
C17	C	1.549604	-0.583702	0.302388
C18	C	1.704527	-0.000008	0.208374
C19	C	1.843099	0.000000	0.212687
C20	C	1.482547	-0.000010	-0.052826
C21	C	1.478234	-0.000003	-0.216644
N22	N	1.476507	0.344075	0.216829
C23	C	1.470423	-0.000005	0.486501
C24	C	1.474736	-0.000002	0.650319
H25	H	1.056725	-0.107235	0.219342
H26	H	1.612192	-0.645790	0.375643
H27	H	1.612170	-0.354160	0.375632
Cl28	Cl	1.379856	-0.440003	0.103729
H29	H	1.413904	-0.593847	0.143585
Cl30	Cl	1.130143	0.290811	0.221623
H31	H	0.896213	-0.107238	0.214332
Cl32	Cl	0.822871	0.290820	0.212047
