data_functionalizedCrystal
_audit_creation_method	'MofGen! by Chris Wilmer'
_symmetry_space_group_name_H-M	'P1'
_symmetry_Int_Tables_number	1
_symmetry_cell_setting	triclinic
loop_
_symmetry_equiv_pos_as_xyz
  x,y,z
_cell_length_a	19.188933
_cell_length_b	11.792241
_cell_length_c	10.868271
_cell_angle_alpha	90.005281
_cell_angle_beta	90.002902
_cell_angle_gamma	83.669492
loop_
_atom_site_label
_atom_site_type_symbol
_atom_site_fract_x
_atom_site_fract_y
_atom_site_fract_z
O1	O	-0.926946	-0.141705	-0.102282
O2	O	-0.426946	0.358295	0.397718
O3	O	-0.723743	-0.160777	-0.102293
O4	O	-0.223743	0.339223	0.397707
O5	O	-0.830276	0.014004	-0.102279
O6	O	-0.330276	0.514004	0.397721
O7	O	-0.820414	-0.316485	-0.102296
O8	O	-0.320414	0.183515	0.397704
O9	O	-0.830267	0.014010	0.102366
O10	O	-0.330267	0.514010	0.602366
O11	O	-0.723734	-0.160770	0.102351
O12	O	-0.223734	0.339230	0.602351
O13	O	-0.926937	-0.141698	0.102363
O14	O	-0.426937	0.358302	0.602363
Zn15	Zn	-0.825335	-0.151233	0.134849
Zn16	Zn	-0.325335	0.348767	0.634849
Zn17	Zn	-0.825346	-0.151242	-0.134779
Zn18	Zn	-0.325346	0.348758	0.365221
O19	O	-0.820405	-0.316478	0.102348
O20	O	-0.320405	0.183522	0.602348
C21	C	-0.697724	-0.160155	0.000028
C22	C	-0.197724	0.339845	0.500028
C23	C	-0.620209	-0.158300	0.000023
C24	C	-0.120209	0.341700	0.500023
C25	C	-0.829652	0.056289	0.000043
C26	C	-0.329652	0.556289	0.500043
C27	C	-0.827798	0.182275	0.000042
C28	C	-0.327798	0.682275	0.500042
C29	C	-0.952956	-0.142319	0.000039
C30	C	-0.452956	0.357681	0.500039
C31	C	-1.030471	-0.144174	0.000035
C32	C	-0.530471	0.355826	0.500035
C33	C	-0.066884	-0.145064	-0.111514
C34	C	0.433116	0.354936	0.388486
C35	C	-0.139718	-0.146800	-0.111519
C36	C	0.360282	0.353200	0.388481
C37	C	-0.176135	-0.147670	0.000032
C38	C	0.323865	0.352330	0.500032
C39	C	-0.139714	-0.146774	0.111597
C40	C	0.360286	0.353226	0.611597
C41	C	-0.066882	-0.145026	0.111598
C42	C	0.433118	0.354974	0.611598
N43	N	-0.285533	-0.214994	0.083061
N44	N	0.214467	0.285006	0.583061
N45	N	-0.354720	-0.216657	0.083052
N46	N	0.145280	0.283343	0.583052
C47	C	-0.395573	-0.152933	0.000034
C48	C	0.104427	0.347067	0.500034
N49	N	-0.364625	-0.087498	-0.082994
N50	N	0.135375	0.412502	0.417006
N51	N	-0.295432	-0.085840	-0.082988
N52	N	0.204568	0.414160	0.417012
C53	C	-0.255109	-0.149564	0.000043
C54	C	0.244891	0.350436	0.500043
C55	C	-0.510961	-0.155703	-0.111529
C56	C	-0.010961	0.344297	0.388471
C57	C	-0.583797	-0.157433	-0.111529
C58	C	-0.083797	0.342567	0.388471
C59	C	-0.583791	-0.157418	0.111590
C60	C	-0.083791	0.342582	0.611590
C61	C	-0.510957	-0.155677	0.111587
C62	C	-0.010957	0.344323	0.611587
C63	C	-0.474546	-0.154825	0.000024
C64	C	0.025454	0.345175	0.500024
N65	N	-0.825332	-0.151226	0.318863
N66	N	-0.325332	0.348774	0.818863
C67	C	-0.821029	-0.358763	0.000024
C68	C	-0.321029	0.141237	0.500024
C69	C	-0.822883	-0.484749	0.000017
C70	C	-0.322883	0.015251	0.500017
C71	C	-0.824388	0.412936	0.000021
C72	C	-0.324388	0.912936	0.500021
C73	C	-0.826283	0.284579	0.000033
C74	C	-0.326283	0.784579	0.500033
N75	N	-0.825354	-0.151240	-0.318793
N76	N	-0.325354	0.348760	0.181207
C77	C	-0.825343	-0.151239	0.569869
C78	C	-0.325343	0.348761	1.069869
C79	C	-0.825334	-0.151235	0.430192
C80	C	-0.325334	0.348765	0.930192
H81	H	-0.037243	-0.144365	-0.202358
H82	H	0.462757	0.355635	0.297642
Br83	Br	-0.633208	-0.158574	0.262985
Br84	Br	-0.133208	0.341426	0.762985
H85	H	-0.481314	-0.155006	-0.202370
H86	H	0.018686	0.344994	0.297630
Br87	Br	-0.017462	-0.143822	0.262999
Br88	Br	0.482538	0.356178	0.762999
Br89	Br	-0.633217	-0.158622	-0.262932
Br90	Br	-0.133217	0.341378	0.237068
Br91	Br	-0.189146	-0.148007	-0.262919
Br92	Br	0.310854	0.351993	0.237081
H93	H	-0.481310	-0.154957	0.202423
H94	H	0.018690	0.345043	0.702423
H95	H	-0.169370	-0.147480	0.202423
H96	H	0.330630	0.352520	0.702423
