data_functionalizedCrystal
_audit_creation_method	'MofGen! by Chris Wilmer'
_symmetry_space_group_name_H-M	'P1'
_symmetry_Int_Tables_number	1
_symmetry_cell_setting	triclinic
loop_
_symmetry_equiv_pos_as_xyz
  x,y,z
_cell_length_a	13.339070
_cell_length_b	17.038272
_cell_length_c	12.376457
_cell_angle_alpha	102.103643
_cell_angle_beta	75.589755
_cell_angle_gamma	103.370425
loop_
_atom_site_label
_atom_site_type_symbol
_atom_site_fract_x
_atom_site_fract_y
_atom_site_fract_z
O1	O	1.395122	0.388434	-0.094053
O2	O	1.096082	0.336008	-0.094045
O3	O	1.243823	0.248021	-0.094040
O4	O	1.247381	0.476421	-0.094058
O5	O	1.206898	0.269979	0.093971
O6	O	1.059157	0.357966	0.093966
O7	O	1.358198	0.410392	0.093958
Zn8	Zn	1.202815	0.387665	0.123813
Zn9	Zn	1.251465	0.358734	-0.123900
O10	O	1.210456	0.498379	0.093953
C11	C	1.039168	0.338131	-0.000039
C12	C	0.924594	0.311734	-0.000035
C13	C	1.222128	0.229169	-0.000034
C14	C	1.212482	0.140282	-0.000034
C15	C	0.577472	0.516981	-0.000069
C16	C	0.685120	0.541784	-0.000076
C17	C	0.744994	0.484274	-0.000065
C18	C	0.697208	0.401956	-0.000049
C19	C	0.589551	0.377149	-0.000051
C20	C	0.757073	0.344442	-0.000047
C21	C	0.709288	0.262125	-0.000031
C22	C	0.601640	0.237322	-0.000033
C23	C	0.541767	0.294832	-0.000043
C24	C	0.864731	0.369249	-0.000045
C25	C	0.876810	0.229417	-0.000027
C26	C	0.769161	0.204614	-0.000021
C27	C	1.301039	0.109396	-0.000036
C28	C	1.291972	0.025875	-0.000046
C29	C	1.194346	-0.026757	-0.000047
C30	C	1.105783	0.004133	-0.000050
C31	C	1.114852	0.087652	-0.000047
C32	C	1.162306	-0.279475	-0.000062
C33	C	1.153242	-0.362998	-0.000061
C34	C	1.339433	-0.341250	-0.000060
C35	C	1.348493	-0.257730	-0.000050
C36	C	1.259931	-0.226847	-0.000059
C37	C	1.185075	-0.112129	-0.000055
C38	C	1.269204	-0.141478	-0.000059
C39	C	1.415112	0.408268	-0.000051
C40	C	1.529688	0.434664	-0.000061
C41	C	1.232152	0.517230	-0.000055
C42	C	1.241799	0.606116	-0.000062
N43	N	1.169620	0.407411	0.292870
N44	N	1.284667	0.338984	-0.292957
C45	C	1.361722	0.293132	0.647862
C46	C	1.384949	0.279311	0.529523
C47	C	1.331119	0.311334	0.470354
C48	C	1.254057	0.357182	0.529535
C49	C	1.230833	0.371011	0.647886
C50	C	1.200230	0.389213	0.470378
C51	C	1.123169	0.435061	0.529560
C52	C	1.099948	0.448886	0.647899
C53	C	1.153779	0.416863	0.707068
C54	C	1.223454	0.375385	0.352027
C55	C	1.092565	0.453263	0.352052
C56	C	1.069338	0.467084	0.470391
H57	H	0.832647	0.504474	-0.000073
O58	O	1.395937	0.160465	-0.000237
C59	C	1.469482	0.135289	-0.097599
H60	H	1.425881	0.098023	-0.165653
H61	H	1.524093	0.191328	-0.130286
H62	H	1.517941	0.096157	-0.075589
O63	O	1.353771	0.297798	0.355400
C64	C	1.433346	0.250481	0.315852
H65	H	1.433870	0.214902	0.384055
H66	H	1.417344	0.205888	0.236692
H67	H	1.513168	0.292391	0.294828
O68	O	1.413877	0.262060	0.705512
C69	C	1.376876	0.284119	0.822655
H70	H	1.294303	0.297967	0.838828
H71	H	1.374333	0.231537	0.867645
H72	H	1.432069	0.340689	0.856215
H73	H	1.006593	0.504415	0.518591
H74	H	0.562739	0.170292	-0.000032
O75	O	0.731360	0.621780	-0.000036
C76	C	0.655440	0.667218	-0.000071
H77	H	0.573481	0.633198	0.035525
H78	H	0.671597	0.729659	0.054508
H79	H	0.659850	0.675542	-0.090272
O80	O	1.298365	0.330930	0.294457
C81	C	1.379069	0.379364	0.225903
H82	H	1.379317	0.446753	0.261553
H83	H	1.458454	0.364441	0.224477
H84	H	1.364699	0.366062	0.136247
H85	H	0.528716	0.563796	-0.000088
H86	H	1.026294	-0.038728	-0.000058
H87	H	0.454110	0.274642	-0.000038
O88	O	1.058490	-0.414228	-0.000218
C89	C	1.066804	-0.474547	-0.097602
H90	H	1.152652	-0.481401	-0.130060
H91	H	1.016734	-0.535324	-0.075701
H92	H	1.037748	-0.455693	-0.165790
H93	H	1.042740	0.112797	-0.000047
H94	H	1.037209	0.486226	0.696084
O95	O	1.459794	0.234727	0.472213
C96	C	1.502344	0.209442	0.549809
H97	H	1.443446	0.209210	0.634178
H98	H	1.519312	0.145240	0.515619
H99	H	1.578680	0.253429	0.562376
O100	O	1.040336	0.484287	0.294413
C101	C	1.077375	0.462268	0.177270
H102	H	1.113625	0.405410	0.161107
H103	H	1.008896	0.448912	0.132306
H104	H	1.139553	0.514676	0.143670
O105	O	0.722885	0.124611	-0.000165
C106	C	0.771971	0.076767	-0.097548
H107	H	0.854795	0.110860	-0.130012
H108	H	0.776871	0.016212	-0.075642
H109	H	0.723939	0.064540	-0.165733
H110	H	1.348696	-0.098624	-0.000083
H111	H	1.105586	-0.154992	-0.000053
H112	H	1.134865	0.428113	0.803429
O113	O	0.935103	0.173657	0.000033
C114	C	1.040370	0.213199	0.000006
H115	H	1.042885	0.280829	0.035597
H116	H	1.074422	0.184351	0.054594
H117	H	1.088924	0.206392	-0.090192
H118	H	1.364085	0.000733	-0.000044
O119	O	0.911051	0.449213	-0.000206
C120	C	0.900216	0.474301	-0.097599
H121	H	0.830152	0.432615	-0.130062
H122	H	0.886695	0.539967	-0.075708
H123	H	0.975036	0.470610	-0.165780
O124	O	1.443415	-0.206723	-0.000095
C125	C	1.519630	-0.251890	-0.000065
H126	H	1.492873	-0.318766	-0.035670
H127	H	1.598084	-0.226522	-0.054639
H128	H	1.529564	-0.246905	0.090135
H129	H	1.411535	-0.366404	-0.000055
H130	H	1.090192	-0.254341	-0.000068
