data_functionalizedCrystal
_audit_creation_method	'MofGen! by Chris Wilmer'
_symmetry_space_group_name_H-M	'P1'
_symmetry_Int_Tables_number	1
_symmetry_cell_setting	triclinic
loop_
_symmetry_equiv_pos_as_xyz
  x,y,z
_cell_length_a	15.944499
_cell_length_b	15.944551
_cell_length_c	9.016244
_cell_angle_alpha	89.996810
_cell_angle_beta	89.990071
_cell_angle_gamma	83.488174
loop_
_atom_site_label
_atom_site_type_symbol
_atom_site_fract_x
_atom_site_fract_y
_atom_site_fract_z
O1	O	1.114555	0.108122	-0.123432
O2	O	0.869999	0.121523	-0.123416
O3	O	0.998956	-0.007454	-0.123411
O4	O	0.985599	0.237099	-0.123437
O5	O	0.998937	-0.007451	0.123269
O6	O	0.869981	0.121526	0.123265
O7	O	1.114536	0.108125	0.123248
Cu8	Cu	0.992257	0.114826	0.145780
Cu9	Cu	0.992279	0.114822	-0.145948
O10	O	0.985580	0.237102	0.123244
C11	C	0.838695	0.120976	-0.000074
C12	C	0.745447	0.119331	-0.000067
C13	C	0.453911	0.194263	-0.000097
C14	C	0.514950	0.155310	-0.121722
C15	C	0.409810	0.113355	-0.000101
C16	C	0.514917	0.155291	0.121486
C17	C	0.574719	0.116296	-0.000082
C18	C	0.469621	0.074379	-0.121826
C19	C	0.469582	0.074372	0.121491
C20	C	0.530603	0.035360	-0.000164
C21	C	0.314810	0.111663	-0.000113
C22	C	0.669718	0.117981	-0.000080
C23	C	0.998392	-0.038746	-0.000071
C24	C	0.996729	-0.131992	-0.000070
C25	C	0.912823	-0.346833	-0.000085
C26	C	0.951777	-0.407856	0.121541
C27	C	0.993722	-0.302717	-0.000081
C28	C	0.951815	-0.407842	-0.121667
C29	C	0.990811	-0.467629	-0.000098
C30	C	1.032698	-0.362512	0.121645
C31	C	1.032725	-0.362492	-0.121672
C32	C	1.071737	-0.423497	-0.000016
C33	C	0.995397	-0.207715	-0.000070
C34	C	0.989143	-0.562630	-0.000099
C35	C	1.145840	0.108672	-0.000097
C36	C	1.239089	0.110317	-0.000114
C37	C	0.986144	0.268394	-0.000100
C38	C	0.987806	0.361640	-0.000111
N39	N	0.992247	0.114828	0.350966
N40	N	0.992295	0.114814	-0.351134
C41	C	0.923056	0.183594	0.585997
C42	C	0.923206	0.183848	0.414105
C43	C	1.079896	0.133960	0.413297
C44	C	1.079517	0.134446	0.585241
C45	C	0.974664	0.026697	0.585521
C46	C	0.972643	0.027288	0.413567
H47	H	0.563780	-0.031846	-0.000221
H48	H	1.095798	0.197492	0.370211
H49	H	1.066920	-0.342369	-0.224507
N50	N	0.896206	0.003641	0.639957
N51	N	0.829061	0.049629	0.613576
H52	H	0.773644	0.033355	0.652015
H53	H	0.534984	0.189527	0.224306
N54	N	0.444326	0.031494	0.250506
N55	N	0.393509	0.069129	0.340358
H56	H	0.375669	0.038853	0.431488
H57	H	0.449650	0.040189	-0.224766
N58	N	1.031809	-0.039924	0.359698
N59	N	1.076760	-0.085117	0.448877
H60	H	1.118557	-0.132583	0.410838
N61	N	0.937307	0.265895	0.362519
N62	N	1.003635	0.296137	0.396823
H63	H	1.013587	0.354091	0.360404
N64	N	0.908873	-0.433036	-0.250641
N65	N	0.833377	-0.405249	-0.272272
H66	H	0.803042	-0.423040	-0.363353
N67	N	0.891758	0.009081	0.362465
N68	N	0.848665	0.060342	0.280242
H69	H	0.791539	0.047486	0.244141
H70	H	1.025156	-0.024487	0.626175
N71	N	0.841358	0.169960	0.361258
N72	N	0.783728	0.160001	0.451367
H73	H	0.725875	0.150349	0.414053
N74	N	0.908857	-0.433095	0.250537
N75	N	0.946834	-0.482914	0.341579
H76	H	0.916518	-0.500738	0.432679
H77	H	0.845673	-0.313513	0.000041
H78	H	1.138946	-0.456668	0.000048
H79	H	1.066879	-0.342526	0.224583
H80	H	0.934161	0.248616	0.629182
H81	H	1.095053	0.198709	0.625322
N82	N	1.146091	0.073987	0.637396
N83	N	1.192688	0.031573	0.546802
H84	H	1.239709	-0.011123	0.583629
H85	H	0.420581	0.261409	-0.000222
H86	H	0.857700	0.172383	0.627396
N87	N	1.146063	0.072783	0.361985
N88	N	1.129319	0.014261	0.278704
H89	H	1.176049	-0.028948	0.242462
H90	H	0.535055	0.189533	-0.224547
