data_functionalizedCrystal
_audit_creation_method	'MofGen! by Chris Wilmer'
_symmetry_space_group_name_H-M	'P1'
_symmetry_Int_Tables_number	1
_symmetry_cell_setting	triclinic
loop_
_symmetry_equiv_pos_as_xyz
  x,y,z
_cell_length_a	10.967926
_cell_length_b	15.538191
_cell_length_c	9.482900
_cell_angle_alpha	95.622696
_cell_angle_beta	92.549900
_cell_angle_gamma	66.441135
loop_
_atom_site_label
_atom_site_type_symbol
_atom_site_fract_x
_atom_site_fract_y
_atom_site_fract_z
O1	O	1.538957	0.163649	0.264683
O2	O	1.188858	0.165682	0.176969
O3	O	1.432059	0.030058	0.237894
O4	O	1.295757	0.299272	0.203758
O5	O	1.382609	0.057722	0.467298
O6	O	1.139408	0.193346	0.406374
O7	O	1.489507	0.191313	0.494088
Cu8	Cu	1.309943	0.194855	0.471177
Cu9	Cu	1.368423	0.162139	0.199880
O10	O	1.246307	0.326937	0.433163
C11	C	1.120421	0.177276	0.280720
C12	C	0.990176	0.170595	0.248087
C13	C	0.906492	0.181948	0.352377
C14	C	0.771876	0.175044	0.318653
C15	C	1.421595	0.009322	0.356164
C16	C	1.464075	-0.093681	0.366793
C17	C	1.042068	-0.397091	0.261094
C18	C	1.082011	-0.493878	0.271105
C19	C	1.306685	-0.508003	0.327394
C20	C	1.266762	-0.411216	0.317381
C21	C	1.134452	-0.355767	0.284233
C22	C	1.359146	-0.369893	0.340520
C23	C	1.319225	-0.273114	0.330515
C24	C	1.186919	-0.217658	0.297372
C25	C	1.094531	-0.258988	0.274228
C26	C	1.491454	-0.425342	0.373678
C27	C	1.583837	-0.384018	0.396817
C28	C	1.543919	-0.287239	0.386802
C29	C	1.411613	-0.231783	0.353659
C30	C	1.636307	-0.245909	0.409946
C31	C	1.596386	-0.149129	0.399942
C32	C	1.371692	-0.135004	0.343655
C33	C	1.557945	0.179719	0.390334
C34	C	1.688192	0.186398	0.422957
N35	N	1.268819	0.217866	0.661996
C36	C	1.256771	0.347672	0.314889
C37	C	1.214293	0.450674	0.304252
N38	N	1.409559	0.139122	0.009064
C39	C	1.356287	0.168921	0.756107
C40	C	1.322078	0.188074	0.914954
H41	H	0.934510	0.196773	0.466631
H42	H	0.743869	0.160210	0.204392
H43	H	1.414411	-0.553161	0.354389
H44	H	1.168606	0.273945	0.699021
Cl45	Cl	0.875735	-0.327378	0.219407
Cl46	Cl	1.712521	-0.097172	0.429056
H47	H	0.986793	-0.213840	0.247225
H48	H	0.716201	0.201227	0.537220
Cl49	Cl	1.167345	0.274662	0.972100
Cl50	Cl	0.965854	-0.545823	0.242022
H51	H	1.456496	0.112835	0.719082
H52	H	1.509773	0.083032	0.972045
Cl53	Cl	0.946939	0.147690	0.071684
H54	H	1.523956	-0.504147	0.381810
H55	H	1.691564	-0.429177	0.423812
Cl56	Cl	1.205358	-0.065291	0.301967
Cl57	Cl	1.802627	-0.315623	0.451644
Cl58	Cl	1.136726	-0.095989	0.284807
