data_functionalizedCrystal
_audit_creation_method	'MofGen! by Chris Wilmer'
_symmetry_space_group_name_H-M	'P1'
_symmetry_Int_Tables_number	1
_symmetry_cell_setting	triclinic
loop_
_symmetry_equiv_pos_as_xyz
  x,y,z
_cell_length_a	16.959455
_cell_length_b	16.959454
_cell_length_c	16.959447
_cell_angle_alpha	90.026736
_cell_angle_beta	90.014322
_cell_angle_gamma	90.017022
loop_
_atom_site_label
_atom_site_type_symbol
_atom_site_fract_x
_atom_site_fract_y
_atom_site_fract_z
Zn1	Zn	-1.208384	0.314730	-0.446928
Zn2	Zn	-0.708384	0.814730	0.053072
Zn3	Zn	-1.208306	0.446923	-0.314758
Zn4	Zn	-0.708306	0.946923	0.185242
Zn5	Zn	-1.076212	0.314755	-0.314766
Zn6	Zn	-0.576212	0.814755	0.185234
Zn7	Zn	-1.076177	0.446864	-0.446897
Zn8	Zn	-0.576177	0.946864	0.053103
O9	O	-1.142270	0.380818	-0.380837
O10	O	-0.642270	0.880818	0.119163
O11	O	-1.318984	0.332280	-0.429406
O12	O	-0.818984	0.832280	0.070594
O13	O	-1.190766	0.429426	-0.204148
O14	O	-0.690766	0.929426	0.295852
O15	O	-1.093792	0.204141	-0.332314
O16	O	-0.593792	0.704141	0.167686
O17	O	-1.318927	0.429402	-0.332301
O18	O	-0.818927	0.929402	0.167699
O19	O	-1.190898	0.204123	-0.429413
O20	O	-0.690898	0.704123	0.070587
O21	O	-1.093717	0.332323	-0.204154
O22	O	-0.593717	0.832323	0.295846
O23	O	-0.965597	0.332265	-0.332283
O24	O	-0.465597	0.832265	0.167717
O25	O	-1.093732	0.429301	-0.557512
O26	O	-0.593732	0.929301	-0.057512
O27	O	-0.965571	0.429325	-0.429359
O28	O	-0.465571	0.929325	0.070641
O29	O	-1.190864	0.332223	-0.557535
O30	O	-0.690864	0.832223	-0.057535
O31	O	-1.190732	0.557526	-0.332270
O32	O	-0.690732	1.057526	0.167730
O33	O	-1.093657	0.557482	-0.429352
O34	O	-0.593657	1.057482	0.070648
C35	C	-0.936904	0.380792	-0.380819
C36	C	-0.436904	0.880792	0.119181
C37	C	-0.849047	0.380800	-0.380830
C38	C	-0.349047	0.880800	0.119170
C39	C	-1.142204	0.586184	-0.380824
C40	C	-0.642204	1.086184	0.119176
C41	C	-1.142248	0.674041	-0.380844
C42	C	-0.642248	1.174041	0.119156
C43	C	-1.142303	0.380753	-0.587006
C44	C	-0.642303	0.880753	-0.087006
C45	C	-1.142317	0.380725	-0.674862
C46	C	-0.642317	0.880725	-0.174862
C47	C	-1.348438	0.380845	-0.380856
C48	C	-0.848438	0.880845	0.119144
C49	C	-1.436295	0.380856	-0.380864
C50	C	-0.936295	0.880856	0.119136
C51	C	-0.477560	0.330238	-0.330395
C52	C	0.022440	0.830238	0.169605
C53	C	-0.477582	0.431463	-0.431324
C54	C	0.022418	0.931463	0.068676
C55	C	-0.560128	0.431452	-0.431320
C56	C	-0.060128	0.931452	0.068680
C57	C	-0.601394	0.380834	-0.380851
C58	C	-0.101394	0.880834	0.119149
C59	C	-0.560114	0.330226	-0.330387
C60	C	-0.060114	0.830226	0.169613
C61	C	-0.601414	0.482064	-0.481777
C62	C	-0.101414	0.982064	0.018223
C63	C	-0.683965	0.482055	-0.481773
C64	C	-0.183965	0.982055	0.018227
C65	C	-0.725233	0.431432	-0.431308
C66	C	-0.225233	0.931432	0.068692
C67	C	-0.683948	0.380822	-0.380843
C68	C	-0.183948	0.880822	0.119157
C69	C	-0.725213	0.330204	-0.330374
C70	C	-0.225213	0.830204	0.169626
C71	C	-0.683930	0.279589	-0.279913
C72	C	-0.183930	0.779589	0.220087
C73	C	-0.601381	0.279603	-0.279922
C74	C	-0.101381	0.779603	0.220078
C75	C	-0.807781	0.431418	-0.431299
C76	C	-0.307781	0.931418	0.068701
C77	C	-0.807767	0.330193	-0.330366
C78	C	-0.307767	0.830193	0.169634
C79	C	-1.142358	0.174650	-0.380868
C80	C	-0.642358	0.674650	0.119132
C81	C	-1.142395	0.086793	-0.380881
C82	C	-0.642395	0.586793	0.119119
C83	C	-1.091796	1.045524	-0.431382
C84	C	-0.591796	1.545524	0.068618
C85	C	-1.192963	1.045509	-0.330373
C86	C	-0.692963	1.545509	0.169627
C87	C	-1.192936	0.962963	-0.330365
C88	C	-0.692936	1.462963	0.169635
C89	C	-1.142337	0.921694	-0.380867
C90	C	-0.642337	1.421694	0.119133
C91	C	-1.091765	0.962970	-0.431375
C92	C	-0.591765	1.462970	0.068625
C93	C	-1.243501	0.921680	-0.279852
C94	C	-0.743501	1.421680	0.220148
C95	C	-1.243475	0.839130	-0.279842
C96	C	-0.743475	1.339130	0.220158
C97	C	-1.192879	0.797859	-0.330348
C98	C	-0.692879	1.297859	0.169652
C99	C	-1.142306	0.839140	-0.380859
C100	C	-0.642306	1.339140	0.119141
C101	C	-1.091707	0.797871	-0.431360
C102	C	-0.591707	1.297871	0.068640
C103	C	-1.041137	0.839151	-0.481876
C104	C	-0.541137	1.339151	0.018124
C105	C	-1.041170	0.921699	-0.481881
C106	C	-0.541170	1.421699	0.018119
C107	C	-1.192847	0.715310	-0.330343
C108	C	-0.692847	1.215310	0.169657
C109	C	-1.091676	0.715317	-0.431353
C110	C	-0.591676	1.215317	0.068647
C111	C	-1.091839	0.431185	-1.046328
C112	C	-0.591839	0.931185	-0.546328
C113	C	-1.192983	0.330097	-1.046348
C114	C	-0.692983	0.830097	-0.546348
C115	C	-1.192962	0.330114	-0.963802
C116	C	-0.692962	0.830114	-0.463802
C117	C	-1.142380	0.380668	-0.922515
C118	C	-0.642380	0.880668	-0.422515
C119	C	-1.091818	0.431205	-0.963775
C120	C	-0.591818	0.931205	-0.463775
C121	C	-1.243529	0.279584	-0.922536
C122	C	-0.743529	0.779584	-0.422536
C123	C	-1.243510	0.279599	-0.839985
C124	C	-0.743510	0.779599	-0.339985
C125	C	-1.192923	0.330149	-0.798697
C126	C	-0.692923	0.830149	-0.298697
C127	C	-1.142359	0.380688	-0.839962
C128	C	-0.642359	0.880688	-0.339962
C129	C	-1.091776	0.431242	-0.798675
C130	C	-0.591776	0.931242	-0.298675
C131	C	-1.041207	0.481777	-0.839938
C132	C	-0.541207	0.981777	-0.339938
C133	C	-1.041231	0.481756	-0.922487
C134	C	-0.541231	0.981756	-0.422487
C135	C	-1.192899	0.330171	-0.716149
C136	C	-0.692899	0.830171	-0.216149
C137	C	-1.091755	0.431262	-0.716122
C138	C	-0.591755	0.931262	-0.216122
C139	C	-1.142283	0.380826	-0.175471
C140	C	-0.642283	0.880826	0.324529
C141	C	-1.142422	0.380631	-0.087615
C142	C	-0.642422	0.880631	0.412385
H143	H	-0.841360	0.288968	-0.289273
H144	H	-0.341360	0.788968	0.210727
H145	H	-0.999936	0.805540	-0.522991
H146	H	-0.499936	1.305540	-0.022991
H147	H	-0.443979	0.472679	-0.472409
H148	H	0.056021	0.972679	0.027591
O149	O	-0.986614	0.966220	-0.536347
O150	O	-0.486614	1.466220	-0.036347
H151	H	-0.995127	1.030554	-0.527855
H152	H	-0.495127	1.530554	-0.027855
O153	O	-1.037248	1.090045	-0.485854
O154	O	-0.537248	1.590045	0.014146
H155	H	-1.072609	1.127614	-0.526103
H156	H	-0.572609	1.627614	-0.026103
O157	O	-0.556857	0.225043	-0.225470
O158	O	-0.056857	0.725043	0.274530
H159	H	-0.492524	0.233572	-0.233940
H160	H	0.007476	0.733572	0.266060
H161	H	-1.234170	0.288943	-1.079968
H162	H	-0.734170	0.788943	-0.579968
O163	O	-1.298026	0.794609	-0.225372
O164	O	-0.798026	1.294609	0.274628
H165	H	-1.284525	0.810495	-0.163323
H166	H	-0.784525	1.310495	0.336677
H167	H	-1.234016	0.681704	-0.289211
H168	H	-0.734016	1.181704	0.210789
O169	O	-0.986647	0.536292	-0.795397
O170	O	-0.486647	1.036292	-0.295397
H171	H	-0.924622	0.522717	-0.811242
H172	H	-0.424622	1.022717	-0.311242
O173	O	-0.728490	0.536632	-0.536208
O174	O	-0.228490	1.036632	-0.036208
H175	H	-0.712633	0.598656	-0.522557
H176	H	-0.212633	1.098656	-0.022557
H177	H	-1.284715	0.238430	-0.956158
H178	H	-0.784715	0.738430	-0.456158
H179	H	-0.567810	0.523280	-0.522860
H180	H	-0.067810	1.023280	-0.022860
O181	O	-0.852311	0.485999	-0.485720
O182	O	-0.352311	0.985999	0.014280
H183	H	-0.809748	0.521197	-0.520816
H184	H	-0.309748	1.021197	-0.020816
H185	H	-0.717539	0.238379	-0.238818
H186	H	-0.217539	0.738379	0.261182
H187	H	-1.050475	0.681721	-0.472480
H188	H	-0.550475	1.181721	0.027520
O189	O	-1.298071	0.966210	-0.225401
O190	O	-0.798071	1.466210	0.274599
H191	H	-1.284552	0.950435	-0.163344
H192	H	-0.784552	1.450435	0.336656
H193	H	-1.284686	0.238450	-0.806396
H194	H	-0.784686	0.738450	-0.306396
O195	O	-1.247433	0.275673	-0.671640
O196	O	-0.747433	0.775673	-0.171640
H197	H	-1.282609	0.240516	-0.714218
H198	H	-0.782609	0.740516	-0.214218
O199	O	-1.247558	1.090015	-0.275927
O200	O	-0.747558	1.590015	0.224073
H201	H	-1.239094	1.154351	-0.284428
H202	H	-0.739094	1.654351	0.215572
H203	H	-0.443944	0.289026	-0.289313
H204	H	0.056056	0.789026	0.210687
H205	H	-1.050557	0.472422	-0.682512
H206	H	-0.550557	0.972422	-0.182512
O207	O	-0.986691	0.536258	-0.966989
O208	O	-0.486691	1.036258	-0.466989
H209	H	-0.995211	0.527755	-1.031326
H210	H	-0.495211	1.027755	-0.531326
H211	H	-1.050665	0.472327	-1.079928
H212	H	-0.550665	0.972327	-0.579928
