data_functionalizedCrystal
_audit_creation_method	'MofGen! by Chris Wilmer'
_symmetry_space_group_name_H-M	'P1'
_symmetry_Int_Tables_number	1
_symmetry_cell_setting	triclinic
loop_
_symmetry_equiv_pos_as_xyz
  x,y,z
_cell_length_a	23.532361
_cell_length_b	23.532407
_cell_length_c	17.666332
_cell_angle_alpha	89.988854
_cell_angle_beta	89.994922
_cell_angle_gamma	82.839173
loop_
_atom_site_label
_atom_site_type_symbol
_atom_site_fract_x
_atom_site_fract_y
_atom_site_fract_z
O1	O	0.755281	0.069009	-0.062880
O2	O	1.255281	0.569009	0.437120
O3	O	0.589413	0.079040	-0.062899
O4	O	1.089413	0.579040	0.437101
O5	O	0.677349	-0.008908	-0.062875
O6	O	1.177349	0.491092	0.437125
O7	O	0.667345	0.156957	-0.062904
O8	O	1.167345	0.656957	0.437096
O9	O	0.677333	-0.008912	0.063022
O10	O	1.177333	0.491088	0.563022
O11	O	0.589398	0.079036	0.062997
O12	O	1.089398	0.579036	0.562997
O13	O	0.755265	0.069005	0.063017
O14	O	1.255265	0.569005	0.563017
Cu15	Cu	0.672330	0.074020	0.074502
Cu16	Cu	1.172330	0.574020	0.574502
Cu17	Cu	0.672348	0.074025	-0.074385
Cu18	Cu	1.172348	0.574025	0.425615
O19	O	0.667330	0.156953	0.062993
O20	O	1.167330	0.656953	0.562993
C21	C	0.568189	0.078787	0.000047
C22	C	1.068189	0.578787	0.500047
C23	C	0.504971	0.078032	0.000040
C24	C	1.004971	0.578032	0.500040
C25	C	0.677086	-0.030126	0.000075
C26	C	1.177086	0.469874	0.500075
C27	C	0.676320	-0.093343	0.000081
C28	C	1.176320	0.406657	0.500081
C29	C	0.231735	0.074731	-0.068581
C30	C	0.731735	0.574731	0.431419
C31	C	0.291135	0.075446	-0.068583
C32	C	0.791135	0.575446	0.431417
O33	O	0.321868	0.075798	-0.126946
O34	O	0.821868	0.575798	0.373054
N35	N	0.320832	0.075804	0.000043
N36	N	0.820832	0.575804	0.500043
C37	C	0.291128	0.075442	0.068676
C38	C	0.791128	0.575442	0.568676
O39	O	0.321842	0.075812	0.127048
O40	O	0.821842	0.575812	0.627048
C41	C	0.231730	0.074723	0.068678
C42	C	0.731730	0.574723	0.568678
C43	C	0.202035	0.074370	0.000047
C44	C	0.702035	0.574370	0.500047
C45	C	0.202040	0.074377	-0.137207
C46	C	0.702040	0.574377	0.362793
C47	C	0.142645	0.073663	-0.137204
C48	C	0.642645	0.573663	0.362796
C49	C	0.112944	0.073303	-0.068577
C50	C	0.612944	0.573303	0.431423
C51	C	0.142639	0.073657	0.000049
C52	C	0.642639	0.573657	0.500049
C53	C	0.202027	0.074357	0.137310
C54	C	0.702027	0.574357	0.637310
C55	C	0.142624	0.073637	0.137305
C56	C	0.642624	0.573637	0.637305
C57	C	0.112929	0.073285	0.068674
C58	C	0.612929	0.573285	0.568674
C59	C	0.053542	0.072582	0.068679
C60	C	0.553542	0.572582	0.568679
N61	N	0.023845	0.072224	0.000052
N62	N	0.523845	0.572224	0.500052
C63	C	0.053546	0.072584	-0.068575
C64	C	0.553546	0.572584	0.431425
C65	C	0.415868	0.076951	0.068669
C66	C	0.915868	0.576951	0.568669
C67	C	0.475264	0.077674	0.068668
C68	C	0.975264	0.577674	0.568668
C69	C	0.475268	0.077677	-0.068592
C70	C	0.975268	0.577677	0.431408
C71	C	0.415870	0.076958	-0.068590
C72	C	0.915870	0.576958	0.431410
C73	C	0.386171	0.076593	0.000042
C74	C	0.886171	0.576593	0.500042
C75	C	-0.071190	0.071086	-0.068565
C76	C	0.428810	0.571086	0.431435
C77	C	-0.130591	0.070374	-0.068557
C78	C	0.369409	0.570374	0.431443
C79	C	-0.130589	0.070369	0.068702
C80	C	0.369411	0.570369	0.568702
C81	C	-0.071193	0.071083	0.068694
C82	C	0.428807	0.571083	0.568694
C83	C	-0.041495	0.071440	0.000054
C84	C	0.458505	0.571440	0.500054
O85	O	0.022772	0.072227	0.127012
O86	O	0.522772	0.572227	0.627012
O87	O	0.022825	0.072206	-0.126938
O88	O	0.522825	0.572206	0.373062
C89	C	0.723555	-0.492454	0.000045
C90	C	1.223555	0.007546	0.500045
C91	C	0.722844	-0.551854	0.000039
C92	C	1.222844	-0.051854	0.500039
O93	O	0.766630	-0.588606	0.000016
O94	O	1.266630	-0.088606	0.500016
N95	N	0.670566	-0.574471	0.000033
N96	N	1.170566	-0.074471	0.500033
C97	C	0.618997	-0.537685	0.000026
C98	C	1.118997	-0.037685	0.500026
O99	O	0.574465	-0.562377	0.000020
O100	O	1.074465	-0.062377	0.500020
C101	C	0.619709	-0.478286	0.000026
C102	C	1.119709	0.021714	0.500026
C103	C	0.671990	-0.455672	0.000040
C104	C	1.171990	0.044328	0.500040
C105	C	0.775832	-0.469839	0.000057
C106	C	1.275832	0.030161	0.500057
C107	C	0.776543	-0.410443	0.000064
C108	C	1.276543	0.089557	0.500064
C109	C	0.724977	-0.373662	0.000059
C110	C	1.224977	0.126338	0.500059
C111	C	0.672701	-0.396276	0.000047
C112	C	1.172701	0.103724	0.500047
C113	C	0.568140	-0.441501	0.000014
C114	C	1.068140	0.058499	0.500014
C115	C	0.568857	-0.382099	0.000014
C116	C	1.068857	0.117901	0.500014
C117	C	0.621137	-0.359485	0.000027
C118	C	1.121137	0.140515	0.500027
C119	C	0.621847	-0.300099	0.000049
C120	C	1.121847	0.199901	0.500049
N121	N	0.674124	-0.277481	0.000055
N122	N	1.174124	0.222519	0.500055
C123	C	0.725690	-0.314263	0.000060
C124	C	1.225690	0.185737	0.500060
C125	C	0.617505	-0.662427	0.000024
C126	C	1.117505	-0.162427	0.500024
C127	C	0.616793	-0.721825	0.000029
C128	C	1.116793	-0.221825	0.500029
C129	C	0.720640	-0.735990	0.000040
C130	C	1.220640	-0.235990	0.500040
C131	C	0.721352	-0.676591	0.000041
C132	C	1.221352	-0.176591	0.500041
C133	C	0.669783	-0.639810	0.000029
C134	C	1.169783	-0.139810	0.500029
C135	C	0.727179	-0.189526	0.000076
C136	C	1.227179	0.310474	0.500076
C137	C	0.727886	-0.130124	0.000086
C138	C	1.227886	0.369876	0.500086
C139	C	0.624039	-0.115965	0.000070
C140	C	1.124039	0.384035	0.500070
C141	C	0.623332	-0.175361	0.000064
C142	C	1.123332	0.324639	0.500064
C143	C	0.674907	-0.212141	0.000064
C144	C	1.174907	0.287859	0.500064
O145	O	0.578083	-0.263312	0.000069
O146	O	1.078083	0.236688	0.500069
O147	O	0.770214	-0.289562	0.000056
O148	O	1.270214	0.210438	0.500056
C149	C	0.776489	0.069258	0.000069
C150	C	1.276489	0.569258	0.500069
C151	C	0.839708	0.070014	0.000071
C152	C	1.339708	0.570014	0.500071
C153	C	0.667592	0.178171	0.000041
C154	C	1.167592	0.678171	0.500041
C155	C	0.668358	0.241388	0.000030
C156	C	1.168358	0.741388	0.500030
N157	N	0.672322	0.074016	0.179222
N158	N	1.172322	0.574016	0.679222
N159	N	0.672362	0.074025	-0.179104
N160	N	1.172362	0.574025	0.320896
C161	C	0.711272	0.035091	0.218842
C162	C	1.211272	0.535091	0.718842
C163	C	0.711275	0.035088	0.298090
C164	C	1.211275	0.535088	0.798090
C165	C	0.672334	0.074020	0.337714
C166	C	1.172334	0.574020	0.837714
C167	C	0.633376	0.112948	0.298084
C168	C	1.133376	0.612948	0.798084
C169	C	0.633370	0.112945	0.218838
C170	C	1.133370	0.612945	0.718838
N171	N	0.664799	0.124456	0.462123
N172	N	1.164799	0.624456	0.962123
N173	N	0.664808	0.124456	0.537404
N174	N	1.164808	0.624456	1.037404
C175	C	0.672349	0.074028	0.576478
C176	C	1.172349	0.574028	1.076478
N177	N	0.679891	0.023598	0.537428
N178	N	1.179891	0.523598	1.037428
N179	N	0.679885	0.023598	0.462140
N180	N	1.179885	0.523598	0.962140
C181	C	0.672336	0.074026	0.423643
C182	C	1.172336	0.574026	0.923643
C183	C	0.711305	0.035097	0.702028
C184	C	1.211305	0.535097	1.202028
C185	C	0.711304	0.035094	0.781277
C186	C	1.211304	0.535094	1.281277
C187	C	0.633408	0.112958	0.781270
C188	C	1.133408	0.612958	1.281270
C189	C	0.633406	0.112956	0.702022
C190	C	1.133406	0.612956	1.202022
C191	C	0.672357	0.074027	0.662406
C192	C	1.172357	0.574027	1.162406
H193	H	-0.154767	0.070088	-0.124447
H194	H	0.345233	0.570088	0.375553
N195	N	-0.040864	0.071441	0.138803
N196	N	0.459136	0.571441	0.638803
N197	N	-0.002246	0.031686	0.154137
N198	N	0.497754	0.531686	0.654137
H199	H	0.019168	0.031934	0.203655
H200	H	0.519168	0.531934	0.703655
H201	H	0.601669	0.144645	0.330350
H202	H	1.101669	0.644645	0.830350
N203	N	0.505583	0.078049	0.138780
N204	N	1.005583	0.578049	0.638780
N205	N	0.479049	0.077731	0.200046
N206	N	0.979049	0.577731	0.700046
H207	H	0.500459	0.077993	0.249566
H208	H	1.000459	0.577993	0.749566
H209	H	0.525567	-0.459902	-0.000002
H210	H	1.025567	0.040098	0.499998
N211	N	0.112297	0.073273	0.207421
N212	N	0.612297	0.573273	0.707421
N213	N	0.113454	0.113501	0.253365
N214	N	0.613454	0.613501	0.753365
H215	H	0.092037	0.113245	0.302886
H216	H	0.592037	0.613245	0.802886
N217	N	0.593615	0.152721	0.661558
N218	N	1.093615	0.652721	1.161558
N219	N	0.558846	0.187477	0.696942
N220	N	1.058846	0.687477	1.196942
H221	H	0.530739	0.215562	0.668365
H222	H	1.030739	0.715562	1.168365
N223	N	0.232375	0.074754	-0.207312
N224	N	0.732375	0.574754	0.292688
N225	N	0.260035	0.115306	-0.222641
N226	N	0.760035	0.615306	0.277359
H227	H	0.281456	0.115575	-0.272157
H228	H	0.781456	0.615575	0.227843
N229	N	0.112329	0.073291	-0.207318
N230	N	0.612329	0.573291	0.292682
N231	N	0.124458	0.033219	-0.253256
N232	N	0.624458	0.533219	0.246744
H233	H	0.103053	0.032954	-0.302779
H234	H	0.603053	0.532954	0.197221
N235	N	0.781287	-0.107016	0.000105
N236	N	1.281287	0.392984	0.500105
N237	N	0.793263	-0.075463	0.053180
N238	N	1.293263	0.424537	0.553180
H239	H	0.830977	-0.059143	0.053194
H240	H	1.330977	0.440857	0.553194
H241	H	0.769176	-0.219466	0.000073
H242	H	1.269176	0.280534	0.500073
H243	H	0.601652	0.144643	0.186578
H244	H	1.101652	0.644643	0.686578
N245	N	0.828504	-0.507413	0.000077
N246	N	1.328504	-0.007413	0.500077
N247	N	0.827874	-0.560448	0.000084
N248	N	1.327874	-0.060448	0.500084
H249	H	0.865077	-0.586983	0.000106
H250	H	1.365077	-0.086983	0.500106
H251	H	0.819115	-0.392037	0.000072
H252	H	1.319115	0.107963	0.500072
H253	H	0.499461	0.077970	-0.124472
H254	H	0.999461	0.577970	0.375528
H255	H	0.580761	-0.193774	0.000074
H256	H	1.080761	0.306226	0.500074
N257	N	0.751070	-0.004686	0.178413
N258	N	1.251070	0.495314	0.678413
N259	N	0.733237	-0.039971	0.134215
N260	N	1.233237	0.460029	0.634215
H261	H	0.761352	-0.068065	0.105674
H262	H	1.261352	0.431935	0.605674
H263	H	0.742994	0.003390	0.330355
H264	H	1.242994	0.503390	0.830355
H265	H	0.743020	0.003397	0.669771
H266	H	1.243020	0.503397	1.169771
H267	H	0.391690	0.076661	0.124561
H268	H	0.891690	0.576661	0.624561
N269	N	0.751092	-0.004678	0.821739
N270	N	1.251092	0.495322	1.321739
N271	N	0.785863	-0.039431	0.786354
N272	N	1.285863	0.460569	1.286354
H273	H	0.813965	-0.067521	0.814931
H274	H	1.313965	0.432479	1.314931
H275	H	0.762627	-0.765949	0.000042
H276	H	1.262627	-0.265949	0.500042
H277	H	0.601699	0.144654	0.813531
H278	H	1.101699	0.644654	1.313531
H279	H	0.226194	0.074642	0.193197
H280	H	0.726194	0.574642	0.693197
H281	H	0.391696	0.076670	-0.124476
H282	H	0.891696	0.576670	0.375524
N283	N	-0.040868	0.071446	-0.138685
N284	N	0.459132	0.571446	0.361315
N285	N	-0.067398	0.071130	-0.199947
N286	N	0.432602	0.571130	0.300053
H287	H	-0.045984	0.071388	-0.249470
H288	H	0.454016	0.571388	0.250530
N289	N	-0.160943	0.070003	0.138794
N290	N	0.339057	0.570003	0.638794
N291	N	-0.213977	0.069362	0.138777
N292	N	0.286023	0.569362	0.638777
H293	H	-0.235416	0.069100	0.188280
H294	H	0.264584	0.569100	0.688280
N295	N	0.774760	-0.653504	0.000058
N296	N	1.274760	-0.153504	0.500058
N297	N	0.820794	-0.686358	0.000068
N298	N	1.320794	-0.186358	0.500068
H299	H	0.858516	-0.670056	0.000080
H300	H	1.358516	-0.170056	0.500080
H301	H	0.574220	-0.740232	0.000031
H302	H	1.074220	-0.240232	0.500031
N303	N	0.564820	-0.624866	0.000015
N304	N	1.064820	-0.124866	0.500015
N305	N	0.518151	-0.645074	0.000009
N306	N	1.018151	-0.145074	0.500009
H307	H	0.480941	-0.618550	0.000001
H308	H	0.980941	-0.118550	0.500001
H309	H	0.526862	-0.352154	0.000003
H310	H	1.026862	0.147846	0.500003
H311	H	0.582056	-0.086007	0.000069
H312	H	1.082056	0.413993	0.500069
