data_functionalizedCrystal
_audit_creation_method	'MofGen! by Chris Wilmer'
_symmetry_space_group_name_H-M	'P1'
_symmetry_Int_Tables_number	1
_symmetry_cell_setting	triclinic
loop_
_symmetry_equiv_pos_as_xyz
  x,y,z
_cell_length_a	18.050590
_cell_length_b	25.639240
_cell_length_c	18.050582
_cell_angle_alpha	90.031820
_cell_angle_beta	89.999233
_cell_angle_gamma	90.021926
loop_
_atom_site_label
_atom_site_type_symbol
_atom_site_fract_x
_atom_site_fract_y
_atom_site_fract_z
Zn1	Zn	1.135269	-0.208335	0.419554
Zn2	Zn	1.635269	0.291665	0.919554
Zn3	Zn	1.135170	-0.295763	0.295344
Zn4	Zn	1.635170	0.204237	0.795344
Zn5	Zn	1.011088	-0.208327	0.295412
Zn6	Zn	1.511088	0.291673	0.795412
Zn7	Zn	1.011026	-0.295725	0.419526
Zn8	Zn	1.511026	0.204275	0.919526
O9	O	1.073138	-0.252037	0.357459
O10	O	1.573138	0.247963	0.857459
O11	O	1.239180	-0.219952	0.403060
O12	O	1.739180	0.280048	0.903060
O13	O	1.118695	-0.284177	0.191428
O14	O	1.618695	0.215823	0.691428
O15	O	1.027628	-0.135163	0.311920
O16	O	1.527628	0.364837	0.811920
O17	O	1.239108	-0.284185	0.311804
O18	O	1.739108	0.215815	0.811804
O19	O	1.118864	-0.135169	0.403126
O20	O	1.618864	0.364831	0.903126
O21	O	1.027532	-0.219938	0.191478
O22	O	1.527532	0.280062	0.691478
O23	O	0.907155	-0.219901	0.311893
O24	O	1.407155	0.280099	0.811893
O25	O	1.027523	-0.284120	0.523455
O26	O	1.527523	0.215880	1.023455
O27	O	0.907110	-0.284112	0.403079
O28	O	1.407110	0.215888	0.903079
O29	O	1.118804	-0.219915	0.523475
O30	O	1.618804	0.280085	1.023475
O31	O	1.118635	-0.368923	0.311777
O32	O	1.618635	0.131077	0.811777
O33	O	1.027427	-0.368895	0.403013
O34	O	1.527427	0.131105	0.903013
C35	C	0.880186	-0.252002	0.357491
C36	C	1.380186	0.247998	0.857491
C37	C	0.797640	-0.251999	0.357522
C38	C	1.297640	0.248001	0.857522
C39	C	0.598187	-0.287017	0.406992
C40	C	1.098187	0.212983	0.906992
C41	C	0.548799	-0.239344	0.425278
C42	C	1.048799	0.260656	0.925278
C43	C	0.646510	-0.252028	0.357486
C44	C	1.146510	0.247972	0.857486
C45	C	0.548816	-0.299728	0.339199
C46	C	1.048816	0.200272	0.839199
C47	C	0.500525	-0.252061	0.357452
C48	C	1.000525	0.247939	0.857452
C49	C	0.598210	-0.204330	0.375808
C50	C	1.098210	0.295670	0.875808
C51	C	0.598231	-0.264747	0.289697
C52	C	1.098231	0.235253	0.789697
C53	C	0.548866	-0.217041	0.307958
C54	C	1.048866	0.282959	0.807958
C55	C	0.730608	-0.252010	0.357507
C56	C	1.230608	0.247990	0.857507
C57	C	0.416428	-0.252073	0.357431
C58	C	0.916428	0.247927	0.857431
C59	C	1.073033	-0.387880	0.357401
C60	C	1.573033	0.112120	0.857401
C61	C	1.073056	-0.445994	0.357401
C62	C	1.573056	0.054006	0.857401
C63	C	1.120668	-0.806322	0.405036
C64	C	1.620668	-0.306322	0.905036
C65	C	1.120690	-0.860926	0.405051
C66	C	1.620690	-0.360926	0.905051
O67	O	1.161046	-0.889133	0.445492
O68	O	1.661046	-0.389133	0.945492
N69	N	1.073241	-0.888277	0.357531
N70	N	1.573241	-0.388277	0.857531
C71	C	1.025763	-0.861020	0.309998
C72	C	1.525763	-0.361020	0.809998
O73	O	0.985405	-0.889297	0.269580
O74	O	1.485405	-0.389297	0.769580
C75	C	1.025737	-0.806416	0.309987
C76	C	1.525737	-0.306416	0.809987
C77	C	1.073194	-0.779069	0.357505
C78	C	1.573194	-0.279069	0.857505
C79	C	1.168121	-0.778974	0.452551
C80	C	1.668121	-0.278974	0.952551
C81	C	1.168099	-0.724374	0.452534
C82	C	1.668099	-0.224374	0.952534
C83	C	1.120626	-0.697121	0.405003
C84	C	1.620626	-0.197121	0.905003
C85	C	1.073173	-0.724468	0.357489
C86	C	1.573173	-0.224468	0.857489
C87	C	0.978255	-0.779161	0.262458
C88	C	1.478255	-0.279161	0.762458
C89	C	0.978234	-0.724554	0.262452
C90	C	1.478234	-0.224554	0.762452
C91	C	1.025691	-0.697206	0.309970
C92	C	1.525691	-0.197206	0.809970
C93	C	1.025679	-0.642615	0.309941
C94	C	1.525679	-0.142615	0.809941
N95	N	1.073127	-0.615265	0.357462
N96	N	1.573127	-0.115265	0.857462
C97	C	1.120601	-0.642517	0.404993
C98	C	1.620601	-0.142517	0.904993
C99	C	1.025818	-0.975690	0.310025
C100	C	1.525818	-0.475690	0.810025
C101	C	1.025846	-1.030293	0.310031
C102	C	1.525846	-0.530293	0.810031
C103	C	1.120773	-1.030195	0.405086
C104	C	1.620773	-0.530195	0.905086
C105	C	1.120748	-0.975592	0.405075
C106	C	1.620748	-0.475592	0.905075
C107	C	1.073266	-0.948340	0.357545
C108	C	1.573266	-0.448340	0.857545
C109	C	1.120553	-0.527852	0.404954
C110	C	1.620553	-0.027852	0.904954
C111	C	1.120530	-0.473247	0.404932
C112	C	1.620530	0.026753	0.904932
C113	C	1.025601	-0.473349	0.309880
C114	C	1.525601	0.026651	0.809880
C115	C	1.025627	-0.527950	0.309900
C116	C	1.525627	-0.027950	0.809900
C117	C	1.073105	-0.555200	0.357443
C118	C	1.573105	-0.055200	0.857443
O119	O	0.985341	-0.614373	0.269523
O120	O	1.485341	-0.114373	0.769523
O121	O	1.160944	-0.614233	0.445410
O122	O	1.660944	-0.114233	0.945410
C123	C	1.266844	-0.252074	0.357427
C124	C	1.766844	0.247926	0.857427
C125	C	1.349390	-0.252089	0.357414
C126	C	1.849390	0.247911	0.857414
C127	C	1.073167	-0.252014	0.551165
C128	C	1.573167	0.247986	1.051165
C129	C	1.073180	-0.252004	0.633710
C130	C	1.573180	0.247996	1.133710
C131	C	1.073264	-0.115664	0.357534
C132	C	1.573264	0.384336	0.857534
C133	C	1.073317	-0.057550	0.357565
C134	C	1.573317	0.442450	0.857565
C135	C	1.073152	-0.252023	0.164507
C136	C	1.573152	0.247977	0.664507
C137	C	1.073284	-0.251885	0.081962
C138	C	1.573284	0.248115	0.581962
C139	C	1.023579	-0.286871	0.833150
C140	C	1.523579	0.213129	1.333150
C141	C	1.091333	-0.299661	0.882520
C142	C	1.591333	0.200339	1.382520
C143	C	1.073216	-0.251965	0.784841
C144	C	1.573216	0.248035	1.284841
C145	C	1.005500	-0.239161	0.882553
C146	C	1.505500	0.260839	1.382553
C147	C	1.073246	-0.251927	0.930826
C148	C	1.573246	0.248073	1.430826
C149	C	1.141006	-0.264779	0.833124
C150	C	1.641006	0.235221	1.333124
C151	C	1.055127	-0.204257	0.833152
C152	C	1.555127	0.295743	1.333152
C153	C	1.122927	-0.217028	0.882499
C154	C	1.622927	0.282972	1.382499
C155	C	1.073199	-0.251988	0.700743
C156	C	1.573199	0.248012	1.200743
C157	C	1.073271	-0.251904	1.014923
C158	C	1.573271	0.248096	1.514923
H159	H	0.619961	-0.275508	0.232401
H160	H	1.119961	0.224492	0.732401
N161	N	1.035903	-0.153676	0.805919
N162	N	1.535903	0.346324	1.305919
N163	N	1.074690	-0.115022	0.822623
N164	N	1.574690	0.384978	1.322623
H165	H	1.061108	-0.079299	0.803388
H166	H	1.561108	0.420701	1.303388
H167	H	0.527116	-0.340054	0.323748
H168	H	1.027116	0.159946	0.823748
N169	N	1.169045	-0.555691	0.453514
N170	N	1.669045	-0.055691	0.953514
N171	N	1.142906	-0.586147	0.500835
N172	N	1.642906	-0.086147	1.000835
H173	H	1.177155	-0.605809	0.535127
H174	H	1.677155	-0.105809	1.035127
H175	H	0.981643	-0.316429	0.811482
H176	H	1.481643	0.183571	1.311482
N177	N	0.933642	-0.225600	0.909790
N178	N	1.433642	0.274400	1.409790
N179	N	0.878916	-0.253341	0.893975
N180	N	1.378916	0.246659	1.393975
H181	H	0.828165	-0.243768	0.913209
H182	H	1.328165	0.256232	1.413209
H183	H	0.987155	-0.953504	0.271314
H184	H	1.487155	-0.453504	0.771314
N185	N	1.169011	-0.445305	0.453461
N186	N	1.669011	0.054695	0.953461
N187	N	1.168998	-0.396553	0.453436
N188	N	1.668998	0.103447	0.953436
H189	H	1.203241	-0.376819	0.487704
H190	H	1.703241	0.123181	0.987704
H191	H	0.939611	-0.801418	0.223763
H192	H	1.439611	-0.301418	0.723763
H193	H	0.987210	-1.052554	0.271329
H194	H	1.487210	-0.552554	0.771329
N195	N	0.977176	-0.555904	0.261358
N196	N	1.477176	-0.055904	0.761358
N197	N	1.003362	-0.586390	0.214072
N198	N	1.503362	-0.086390	0.714072
H199	H	0.969143	-0.606134	0.179791
H200	H	1.469143	-0.106134	0.679791
N201	N	0.521538	-0.225858	0.497165
N202	N	1.021538	0.274142	0.997165
N203	N	0.481931	-0.186293	0.505357
N204	N	0.981931	0.313707	1.005357
H205	H	0.462677	-0.176771	0.556128
H206	H	0.962677	0.323229	1.056128
N207	N	1.216593	-0.696435	0.501047
N208	N	1.716593	-0.196435	1.001047
N209	N	1.216595	-0.647683	0.501019
N210	N	1.716595	-0.147683	1.001019
H211	H	1.250856	-0.627953	0.535273
H212	H	1.750856	-0.127953	1.035273
H213	H	0.619815	-0.163992	0.391325
H214	H	1.119815	0.336008	0.891325
H215	H	0.619845	-0.316554	0.448904
H216	H	1.119845	0.183446	0.948904
N217	N	1.110560	-0.350253	0.909719
N218	N	1.610560	0.149747	1.409719
N219	N	1.123729	-0.386490	0.865281
N220	N	1.623729	0.113510	1.365281
H221	H	1.137305	-0.422222	0.884487
H222	H	1.637305	0.077778	1.384487
H223	H	1.206779	-0.801158	0.491261
H224	H	1.706779	-0.301158	0.991261
N225	N	0.977123	-0.445497	0.261327
N226	N	1.477123	0.054503	0.761327
N227	N	0.977118	-0.396745	0.261325
N228	N	1.477118	0.103255	0.761325
H229	H	0.942879	-0.377072	0.227035
H230	H	1.442879	0.122928	0.727035
H231	H	0.939567	-0.702368	0.223748
H232	H	1.439567	-0.202368	0.723748
H233	H	1.164965	-0.187492	0.904031
H234	H	1.664965	0.312508	1.404031
N235	N	0.521864	-0.179892	0.255431
N236	N	1.021864	0.320108	0.755431
N237	N	0.481470	-0.143159	0.276433
N238	N	0.981470	0.356841	0.776433
H239	H	0.462399	-0.116920	0.239340
H240	H	0.962399	0.383080	0.739340
N241	N	1.169230	-0.947668	0.453616
N242	N	1.669230	-0.447668	0.953616
N243	N	1.211615	-0.972014	0.496045
N244	N	1.711615	-0.472014	0.996045
H245	H	1.245857	-0.952295	0.530330
H246	H	1.745857	-0.452295	1.030330
N247	N	1.169266	-1.058047	0.453632
N248	N	1.669266	-0.558047	0.953632
N249	N	1.169275	-1.106800	0.453630
N250	N	1.669275	-0.606800	0.953630
H251	H	1.203523	-1.126473	0.487911
H252	H	1.703523	-0.626473	0.987911
H253	H	1.198302	-0.275639	0.811503
H254	H	1.698302	0.224361	1.311503
