data_functionalizedCrystal
_audit_creation_method	'MofGen! by Chris Wilmer'
_symmetry_space_group_name_H-M	'P1'
_symmetry_Int_Tables_number	1
_symmetry_cell_setting	triclinic
loop_
_symmetry_equiv_pos_as_xyz
  x,y,z
_cell_length_a	21.395361
_cell_length_b	29.839134
_cell_length_c	21.395355
_cell_angle_alpha	90.035980
_cell_angle_beta	89.978489
_cell_angle_gamma	89.973946
loop_
_atom_site_label
_atom_site_type_symbol
_atom_site_fract_x
_atom_site_fract_y
_atom_site_fract_z
Zn1	Zn	-0.249589	-0.686808	-0.354439
Zn2	Zn	-0.354349	-0.686738	-0.249656
Zn3	Zn	-0.249580	-0.611674	-0.249655
Zn4	Zn	-0.354324	-0.611652	-0.354376
O5	O	-0.301960	-0.649218	-0.302032
O6	O	-0.263499	-0.749665	-0.340567
O7	O	-0.340458	-0.676760	-0.161978
O8	O	-0.161904	-0.621679	-0.263581
O9	O	-0.340466	-0.749614	-0.263583
O10	O	-0.161910	-0.676880	-0.340566
O11	O	-0.263485	-0.621612	-0.161977
O12	O	-0.263461	-0.548804	-0.263519
O13	O	-0.340424	-0.621642	-0.442062
O14	O	-0.340416	-0.548788	-0.340457
O15	O	-0.263475	-0.676858	-0.442109
O16	O	-0.442023	-0.676739	-0.263522
O17	O	-0.442005	-0.621574	-0.340458
C18	C	-0.301935	-0.532495	-0.301982
C19	C	-0.301940	-0.482561	-0.301975
C20	C	-0.342096	-0.172919	-0.342024
C21	C	-0.342116	0.014755	-0.342044
O22	O	-0.376225	0.039018	-0.376079
N23	N	-0.301992	0.038224	-0.302050
C24	C	-0.261857	0.014773	-0.262051
O25	O	-0.227725	0.039041	-0.228039
C26	C	-0.261834	-0.172900	-0.262035
C27	C	-0.301965	-0.196367	-0.302027
C28	C	-0.382223	-0.196386	-0.382014
C29	C	-0.382220	-0.243301	-0.382006
C30	C	-0.342090	-0.266749	-0.342009
C31	C	-0.301962	-0.243282	-0.302019
C32	C	-0.221697	-0.196350	-0.222040
C33	C	-0.221694	-0.243271	-0.222040
C34	C	-0.261825	-0.266738	-0.262032
C35	C	-0.261829	-0.313646	-0.262014
N36	N	-0.301953	-0.337115	-0.302008
C37	C	-0.342083	-0.313667	-0.342005
C38	C	-0.261873	0.113303	-0.262062
C39	C	-0.261879	0.160221	-0.262065
C40	C	-0.342137	0.160200	-0.342059
C41	C	-0.342133	0.113281	-0.342052
C42	C	-0.301996	0.089834	-0.302056
C43	C	-0.342075	-0.412193	-0.341986
C44	C	-0.342070	-0.459113	-0.341972
C45	C	-0.261810	-0.459087	-0.261981
C46	C	-0.261817	-0.412172	-0.261992
C47	C	-0.301951	-0.388726	-0.301999
O48	O	-0.227732	-0.337939	-0.228003
O49	O	-0.376200	-0.337944	-0.376022
C50	C	-0.342099	-0.126003	-0.342032
C51	C	-0.301971	-0.102536	-0.302043
C52	C	-0.261841	-0.125984	-0.262045
C53	C	-0.301978	-0.055618	-0.302046
C54	C	-0.342108	-0.032170	-0.342043
C55	C	-0.382232	-0.055639	-0.382037
C56	C	-0.382229	-0.102555	-0.382029
C57	C	-0.221717	-0.102514	-0.222051
C58	C	-0.221724	-0.055599	-0.222062
C59	C	-0.261854	-0.032151	-0.262059
C60	C	-0.464748	-0.649159	-0.301997
C61	C	-0.534389	-0.649174	-0.302003
C62	C	-0.567091	-0.677924	-0.261983
C63	C	-0.632527	-0.677945	-0.261997
C64	C	-0.665258	-0.649208	-0.302024
C65	C	-0.632548	-0.620456	-0.342052
C66	C	-0.567114	-0.620439	-0.342041
C67	C	-0.768968	-0.608757	-0.306923
C68	C	-0.834401	-0.608774	-0.306929
C69	C	-0.867078	-0.649260	-0.302061
C70	C	-0.834315	-0.689732	-0.297173
C71	C	-0.768880	-0.689716	-0.297163
C72	C	-0.736210	-0.649223	-0.302041
C73	C	-0.970733	-0.678035	-0.262054
C74	C	-1.036169	-0.678057	-0.262073
C75	C	-1.036190	-0.620564	-0.342124
C76	C	-0.970754	-0.620547	-0.342109
C77	C	-0.938030	-0.649282	-0.302071
C78	C	-0.138537	-0.649290	-0.302080
C79	C	-0.068896	-0.649320	-0.302101
C80	C	-0.301948	-0.649255	-0.465455
C81	C	-0.301942	-0.649271	-0.535096
C82	C	-0.301989	0.233604	-0.302072
C83	C	-0.302009	0.183669	-0.302062
C84	C	-0.261874	-0.678021	-0.567835
C85	C	-0.261847	-0.678020	-0.633270
C86	C	-0.301900	-0.649275	-0.665965
C87	C	-0.341971	-0.620519	-0.633218
C88	C	-0.341993	-0.620517	-0.567784
C89	C	-0.358315	-0.645707	-0.769626
C90	C	-0.358294	-0.645712	-0.835059
C91	C	-0.301834	-0.649277	-0.867786
C92	C	-0.245391	-0.652848	-0.835071
C93	C	-0.245413	-0.652846	-0.769637
C94	C	-0.301881	-0.649273	-0.736917
C95	C	-0.261732	-0.678028	-0.971477
C96	C	-0.261704	-0.678024	-1.036913
C97	C	-0.341834	-0.620525	-1.036860
C98	C	-0.341857	-0.620527	-0.971425
C99	C	-0.301807	-0.649281	-0.938737
C100	C	-0.301928	-0.649207	-0.139244
C101	C	-0.301757	-0.649278	-0.069603
H102	H	-0.229140	-0.393064	-0.229425
C103	C	-0.177551	-0.170541	-0.178051
C104	C	-0.204622	-0.138254	-0.128808
C105	C	-0.160473	-0.112444	-0.084818
C106	C	-0.089254	-0.118921	-0.090071
C107	C	-0.062180	-0.151209	-0.139316
C108	C	-0.106328	-0.177019	-0.183306
H109	H	-0.257345	-0.133459	-0.124917
H110	H	-0.180516	-0.088542	-0.048363
H111	H	-0.056573	-0.099814	-0.057507
H112	H	-0.009456	-0.156004	-0.143207
H113	H	-0.086286	-0.200921	-0.219761
H114	H	-1.062794	-0.701471	-0.229485
H115	H	-0.742369	-0.575786	-0.310890
C116	C	-0.183278	-0.656768	-0.871060
C117	C	-0.121197	-0.660694	-0.835078
C118	C	-0.059086	-0.664616	-0.871070
C119	C	-0.059057	-0.664613	-0.943045
C120	C	-0.121140	-0.660687	-0.979032
C121	C	-0.183251	-0.656765	-0.943039
H122	H	-0.121216	-0.660696	-0.781794
H123	H	-0.013128	-0.667521	-0.844430
H124	H	-0.013079	-0.667516	-0.969689
H125	H	-0.121120	-0.660685	-1.032316
H126	H	-0.229209	-0.653859	-0.969679
H127	H	-0.404280	-0.642683	-0.742986
C128	C	-0.386035	-0.588901	-0.669179
C129	C	-0.430115	-0.557277	-0.633164
C130	C	-0.474180	-0.525658	-0.669124
C131	C	-0.474164	-0.525662	-0.741099
C132	C	-0.430082	-0.557287	-0.777118
C133	C	-0.386018	-0.588907	-0.741158
H134	H	-0.430128	-0.557273	-0.579880
H135	H	-0.506812	-0.502247	-0.642459
H136	H	-0.506783	-0.502256	-0.767718
H137	H	-0.430069	-0.557292	-0.830402
H138	H	-0.353385	-0.612318	-0.767822
H139	H	-0.374440	-0.597115	-1.063479
H140	H	-0.944127	-0.597134	-0.374695
H141	H	-0.659202	-0.597059	-0.374644
H142	H	-0.189005	-0.262360	-0.189473
C143	C	-0.531098	-0.709537	-0.217946
C144	C	-0.540141	-0.705898	-0.146715
C145	C	-0.504148	-0.737511	-0.102678
C146	C	-0.459111	-0.772764	-0.129872
C147	C	-0.450066	-0.776404	-0.201107
C148	C	-0.486059	-0.744790	-0.245144
H149	H	-0.573482	-0.679801	-0.126581
H150	H	-0.510844	-0.734816	-0.049945
H151	H	-0.432467	-0.796166	-0.097274
H152	H	-0.416725	-0.802501	-0.221241
H153	H	-0.479363	-0.747485	-0.297876
H154	H	-0.199455	-0.655752	-0.743003
H155	H	-0.540488	-0.597027	-0.374631
H156	H	-0.742206	-0.722669	-0.293185
C157	C	-0.386273	0.087469	-0.386048
C158	C	-0.457493	0.093944	-0.380804
C159	C	-0.501635	0.068135	-0.424803
C160	C	-0.474556	0.035851	-0.474045
C161	C	-0.403332	0.029375	-0.479291
C162	C	-0.359191	0.055184	-0.435292
H163	H	-0.477542	0.117843	-0.344350
H164	H	-0.554359	0.072929	-0.420919
H165	H	-0.507231	0.016746	-0.506616
H166	H	-0.383283	0.005476	-0.515745
H167	H	-0.306466	0.050390	-0.439176
H168	H	-0.229139	-0.478187	-0.229414
H169	H	-0.229261	-0.701434	-0.541224
H170	H	-0.229214	-0.701431	-0.659931
H171	H	-0.229117	-0.701439	-0.944861
C172	C	-0.177577	-0.029789	-0.178064
C173	C	-0.106359	-0.036270	-0.183313
C174	C	-0.062210	-0.010463	-0.139320
C175	C	-0.089279	0.021825	-0.090077
C176	C	-0.160502	0.028307	-0.084826
C177	C	-0.204651	0.002500	-0.128819
H178	H	-0.086317	-0.060173	-0.219767
H179	H	-0.009486	-0.015262	-0.143207
H180	H	-0.056598	0.040928	-0.057511
H181	H	-0.180543	0.052209	-0.048372
H182	H	-0.257374	0.007299	-0.124932
H183	H	-0.659157	-0.701358	-0.229408
H184	H	-0.860919	-0.722701	-0.293209
H185	H	-0.374621	-0.597104	-0.541129
H186	H	-0.229072	-0.701435	-1.063568
C187	C	-0.386215	-0.484926	-0.385968
C188	C	-0.457434	-0.478448	-0.380727
C189	C	-0.501576	-0.504259	-0.424723
C190	C	-0.474499	-0.536548	-0.473960
C191	C	-0.403276	-0.543027	-0.479203
C192	C	-0.359133	-0.517216	-0.435207
H193	H	-0.477482	-0.454544	-0.344277
H194	H	-0.554301	-0.499462	-0.420841
H195	H	-0.507176	-0.555654	-0.506528
H196	H	-0.383228	-0.566930	-0.515653
H197	H	-0.306409	-0.522013	-0.439089
H198	H	-1.062839	-0.597168	-0.374718
H199	H	-0.374489	-0.597118	-0.944769
C200	C	-0.934730	-0.709646	-0.218019
C201	C	-0.970705	-0.741277	-0.174003
C202	C	-0.934705	-0.772888	-0.129968
C203	C	-0.862730	-0.772868	-0.129950
C204	C	-0.826751	-0.741236	-0.173968
C205	C	-0.862751	-0.709625	-0.218003
H206	H	-1.023989	-0.741293	-0.174015
H207	H	-0.961340	-0.796305	-0.097383
H208	H	-0.836081	-0.796269	-0.097353
H209	H	-0.773468	-0.741220	-0.173956
H210	H	-0.836117	-0.686209	-0.250588
C211	C	-0.426371	-0.128364	-0.426026
C212	C	-0.497590	-0.121885	-0.420785
C213	C	-0.541733	-0.147690	-0.464785
C214	C	-0.514657	-0.179976	-0.514027
C215	C	-0.443434	-0.186457	-0.519271
C216	C	-0.399291	-0.160651	-0.475270
H217	H	-0.517637	-0.097984	-0.384331
H218	H	-0.594457	-0.142892	-0.460903
H219	H	-0.547334	-0.199078	-0.546599
H220	H	-0.423387	-0.210357	-0.555724
H221	H	-0.346567	-0.165449	-0.479152
C222	C	-0.420378	-0.641785	-0.871042
C223	C	-0.420359	-0.641789	-0.943017
C224	C	-0.482444	-0.637862	-0.978999
C225	C	-0.544549	-0.633931	-0.943005
C226	C	-0.544571	-0.633926	-0.871026
C227	C	-0.482485	-0.637853	-0.835044
H228	H	-0.374383	-0.644700	-0.969666
H229	H	-0.482428	-0.637866	-1.032282
H230	H	-0.590508	-0.631024	-0.969640
H231	H	-0.590547	-0.631015	-0.844377
H232	H	-0.482502	-0.637850	-0.781761
C233	C	-0.870436	-0.564255	-0.312304
C234	C	-0.915460	-0.549773	-0.259871
C235	C	-0.951492	-0.505253	-0.265245
C236	C	-0.942500	-0.475215	-0.323051
C237	C	-0.897473	-0.489697	-0.375488
C238	C	-0.861441	-0.534217	-0.370114
H239	H	-0.922119	-0.572009	-0.217075
H240	H	-0.984823	-0.494533	-0.226427
H241	H	-0.969173	-0.442259	-0.327029
H242	H	-0.890815	-0.467461	-0.418284
H243	H	-0.828110	-0.544937	-0.408932
C244	C	-0.386225	-0.386407	-0.385990
C245	C	-0.457443	-0.392841	-0.380736
C246	C	-0.501597	-0.367055	-0.424736
C247	C	-0.474533	-0.334835	-0.473989
C248	C	-0.403312	-0.328400	-0.479245
C249	C	-0.359158	-0.354186	-0.435245
H250	H	-0.477480	-0.416693	-0.344274
H251	H	-0.554320	-0.371819	-0.420845
H252	H	-0.507219	-0.315747	-0.506560
H253	H	-0.383275	-0.304547	-0.515707
H254	H	-0.306435	-0.349422	-0.439136
C255	C	-0.217739	0.186031	-0.218067
C256	C	-0.168589	0.218259	-0.245306
C257	C	-0.124444	0.244066	-0.201309
C258	C	-0.129450	0.237646	-0.130073
C259	C	-0.178602	0.205417	-0.102830
C260	C	-0.222747	0.179610	-0.146827
H261	H	-0.164881	0.223012	-0.298043
H262	H	-0.088059	0.267924	-0.221476
H263	H	-0.096772	0.256750	-0.097503
H264	H	-0.182310	0.200664	-0.050093
H265	H	-0.259133	0.155752	-0.126660
C266	C	-0.386278	0.185998	-0.386060
C267	C	-0.386277	0.237606	-0.386061
C268	C	-0.430413	0.263407	-0.430062
C269	C	-0.474549	0.237600	-0.474063
C270	C	-0.474552	0.185989	-0.474063
C271	C	-0.430417	0.160188	-0.430062
H272	H	-0.353603	0.256712	-0.353488
H273	H	-0.430410	0.301613	-0.430062
H274	H	-0.507221	0.256699	-0.506635
H275	H	-0.507226	0.166883	-0.506636
H276	H	-0.430419	0.121983	-0.430062
H277	H	-0.414902	-0.177299	-0.414588
H278	H	-0.414898	-0.262404	-0.414573
H279	H	-0.229188	0.094217	-0.229489
H280	H	-0.189038	-0.121601	-0.189480
H281	H	-0.414909	-0.036540	-0.414602
