data_functionalizedCrystal
_audit_creation_method	'MofGen! by Chris Wilmer'
_symmetry_space_group_name_H-M	'P1'
_symmetry_Int_Tables_number	1
_symmetry_cell_setting	triclinic
loop_
_symmetry_equiv_pos_as_xyz
  x,y,z
_cell_length_a	12.811457
_cell_length_b	11.026607
_cell_length_c	10.065918
_cell_angle_alpha	82.323124
_cell_angle_beta	85.564143
_cell_angle_gamma	96.259375
loop_
_atom_site_label
_atom_site_type_symbol
_atom_site_fract_x
_atom_site_fract_y
_atom_site_fract_z
O1	O	1.414477	0.154934	0.061583
O2	O	1.914477	0.654934	0.561583
O3	O	1.117681	0.177892	0.024845
O4	O	1.617681	0.677892	0.524845
O5	O	1.241480	-0.009939	0.040174
O6	O	1.741480	0.490061	0.540174
O7	O	1.290678	0.342765	0.046254
O8	O	1.790678	0.842765	0.546254
O9	O	1.208557	-0.041288	0.263088
O10	O	1.708557	0.458712	0.763088
O11	O	1.084758	0.146543	0.247759
O12	O	1.584758	0.646543	0.747759
O13	O	1.381554	0.123584	0.284497
O14	O	1.881554	0.623584	0.784497
Zn15	Zn	1.227929	0.130086	0.301521
Zn16	Zn	1.727929	0.630086	0.801521
Zn17	Zn	1.271306	0.171390	0.007822
Zn18	Zn	1.771306	0.671390	0.507822
O19	O	1.257755	0.311415	0.269168
O20	O	1.757755	0.811415	0.769168
C21	C	1.062633	0.161893	0.131526
C22	C	1.562633	0.661893	0.631526
C23	C	0.947654	0.160910	0.117294
C24	C	1.447654	0.660910	0.617294
C25	C	1.215943	-0.070713	0.150506
C26	C	1.715943	0.429287	0.650506
C27	C	1.188888	-0.205094	0.147152
C28	C	1.688888	0.294906	0.647152
C29	C	1.263593	-0.279816	0.156398
C30	C	1.763593	0.220184	0.656398
C31	C	1.235633	-0.418707	0.152932
C32	C	1.735633	0.081293	0.652932
C33	C	0.695696	0.124859	0.333598
C34	C	1.195696	0.624859	0.833598
C35	C	0.587661	0.123934	0.320232
C36	C	1.087661	0.623934	0.820232
C37	C	0.623548	0.158126	0.077198
C38	C	1.123548	0.658126	0.577198
C39	C	0.731582	0.159051	0.090564
C40	C	1.231582	0.659051	0.590564
C41	C	0.767652	0.142418	0.218768
C42	C	1.267652	0.642418	0.718768
C43	C	0.875689	0.143352	0.232132
C44	C	1.375689	0.643352	0.732132
C45	C	0.911573	0.177536	-0.010901
C46	C	1.411573	0.677536	0.489099
C47	C	0.803538	0.176611	-0.024266
C48	C	1.303538	0.676611	0.475734
C49	C	1.436602	0.139585	0.177813
C50	C	1.936602	0.639585	0.677813
C51	C	1.551583	0.140569	0.192037
C52	C	2.051583	0.640569	0.692037
C53	C	1.283292	0.372190	0.158833
C54	C	1.783292	0.872190	0.658833
C55	C	1.310348	0.506572	0.162178
C56	C	1.810348	1.006572	0.662178
N57	N	1.198333	0.101896	0.501963
N58	N	1.698333	0.601896	1.001963
N59	N	1.300909	0.199571	-0.192620
N60	N	1.800909	0.699571	0.307380
C61	C	1.238240	0.139884	0.731845
C62	C	1.738240	0.639884	1.231845
C63	C	1.261011	0.161592	0.577496
C64	C	1.761011	0.661592	1.077496
H65	H	1.348250	-0.240965	0.166885
H66	H	1.848250	0.259035	0.666885
F67	F	0.511083	0.105241	0.442450
F68	F	1.011083	0.605241	0.942450
F69	F	1.421012	-0.442659	0.175870
F70	F	1.921012	0.057341	0.675870
F71	F	1.124973	-0.469475	0.139222
F72	F	1.624973	0.030525	0.639222
F73	F	1.393079	0.287363	0.742556
F74	F	1.893079	0.787363	1.242556
H75	H	1.104232	-0.243945	0.136665
H76	H	1.604232	0.256055	0.636665
H77	H	0.725065	0.111332	0.437987
H78	H	1.225065	0.611332	0.937987
F79	F	0.914076	0.125655	0.368577
F80	F	1.414076	0.625655	0.868577
H81	H	0.594159	0.171647	-0.027180
H82	H	1.094159	0.671647	0.472820
F83	F	0.765136	0.194278	-0.160703
F84	F	1.265136	0.694278	0.339297
F85	F	1.353186	0.249388	0.512678
F86	F	1.853186	0.749388	1.012678
H87	H	0.970173	0.191841	-0.104404
H88	H	1.470173	0.691841	0.395596
H89	H	1.167732	0.072708	0.781446
H90	H	1.667732	0.572708	1.281446
H91	H	1.127817	0.034720	0.551556
H92	H	1.627817	0.534720	1.051556
