data_functionalizedCrystal
_audit_creation_method	'MofGen! by Chris Wilmer'
_symmetry_space_group_name_H-M	'P1'
_symmetry_Int_Tables_number	1
_symmetry_cell_setting	triclinic
loop_
_symmetry_equiv_pos_as_xyz
  x,y,z
_cell_length_a	6.817900
_cell_length_b	10.992421
_cell_length_c	19.453114
_cell_angle_alpha	94.461908
_cell_angle_beta	101.709288
_cell_angle_gamma	108.764763
loop_
_atom_site_label
_atom_site_type_symbol
_atom_site_fract_x
_atom_site_fract_y
_atom_site_fract_z
V1	V	-4.033993	-0.179098	-0.218989
O2	O	-3.993645	0.007230	-0.214831
O3	O	-4.012124	-0.353798	-0.217482
O4	O	-3.976581	-0.176947	-0.314502
O5	O	-4.029434	-0.170845	-0.117138
V6	V	-4.515351	-0.156740	-0.206808
O7	O	-4.300001	-0.228143	-0.245709
O8	O	-4.699540	-0.107695	-0.180088
O9	O	-4.314013	0.017960	-0.208316
O10	O	-4.673096	-0.343068	-0.210967
O11	O	-4.637307	-0.164993	-0.308659
O12	O	-4.349556	-0.158891	-0.111295
C13	C	-3.863871	-0.396367	-0.214025
C14	C	-3.927217	-0.539190	-0.213429
C15	C	-3.818531	-0.170775	-0.337783
C16	C	-3.853050	-0.170172	-0.415865
C17	C	-3.796641	-0.734448	-0.208626
C18	C	-3.730435	-0.585806	-0.208967
C19	C	-4.021831	-0.577426	-0.147927
C20	C	-4.086321	-0.725965	-0.147233
C21	C	-4.168618	-0.765366	-0.281508
C22	C	-4.099043	-0.616862	-0.282929
C23	C	-4.052028	-0.176338	-0.456122
C24	C	-4.084463	-0.175772	-0.529489
C25	C	-3.917920	-0.169066	-0.562598
C26	C	-3.718910	-0.162892	-0.522332
C27	C	-3.686475	-0.163445	-0.448965
N28	N	-3.868481	-0.236916	-0.681384
N29	N	-3.899307	-0.236394	-0.751079
C30	C	-4.015633	-0.167396	-0.783647
N31	N	-4.100007	-0.098957	-0.743888
N32	N	-4.069187	-0.099485	-0.674186
C33	C	-3.953070	-0.168464	-0.642151
C34	C	-4.249792	-0.172946	-0.903456
C35	C	-4.282216	-0.172372	-0.976824
C36	C	-3.916663	-0.159505	-0.969666
C37	C	-3.884239	-0.160066	-0.896299
C38	C	-4.050814	-0.166793	-0.863199
C39	C	-4.125609	0.060522	-0.211771
C40	C	-4.041501	0.203344	-0.212371
C41	C	-4.170949	-0.165067	-0.088011
C42	C	-4.115668	-0.165664	-0.009927
H43	H	-3.753773	-0.781153	-0.255139
H44	H	-4.444247	-0.177384	-1.009599
O45	O	-4.011146	-0.586113	-0.347272
H46	H	-4.011326	-0.676927	-0.376581
H47	H	-3.699121	-0.754703	-0.158766
H48	H	-3.722217	-0.155059	-0.863522
H49	H	-4.167186	-0.547194	-0.148682
H50	H	-3.900099	-0.522874	-0.096474
O51	O	-4.429436	-0.180176	-0.867751
H52	H	-4.466148	-0.268765	-0.841995
O53	O	-4.293912	-0.576922	-0.292624
H54	H	-4.365948	-0.596324	-0.246527
O55	O	-3.632019	-0.552037	-0.270956
H56	H	-3.631385	-0.641972	-0.300958
O57	O	-3.557698	-0.515918	-0.142873
H58	H	-3.521198	-0.588280	-0.110537
O59	O	-3.964790	-0.748762	-0.078351
H60	H	-3.860595	-0.653799	-0.045850
H61	H	-4.262570	-0.766847	-0.147130
O62	O	-3.736759	-0.152493	-1.005200
H63	H	-3.699495	-0.063976	-1.031003
O64	O	-3.471839	-0.156792	-0.405548
H65	H	-3.405603	-0.068708	-0.364464
H66	H	-4.144115	-0.815186	-0.331072
O67	O	-4.231688	-0.183584	-0.420425
H68	H	-4.175717	-0.182943	-0.362645
H69	H	-4.347208	-0.806504	-0.284941
H70	H	-4.246504	-0.180800	-0.562273
H71	H	-3.583310	-0.157428	-0.549293
