data_functionalizedCrystal
_audit_creation_method	'MofGen! by Chris Wilmer'
_symmetry_space_group_name_H-M	'P1'
_symmetry_Int_Tables_number	1
_symmetry_cell_setting	triclinic
loop_
_symmetry_equiv_pos_as_xyz
  x,y,z
_cell_length_a	10.686220
_cell_length_b	25.639239
_cell_length_c	25.639217
_cell_angle_alpha	89.886875
_cell_angle_beta	94.304530
_cell_angle_gamma	94.420676
loop_
_atom_site_label
_atom_site_type_symbol
_atom_site_fract_x
_atom_site_fract_y
_atom_site_fract_z
Zn1	Zn	1.929476	-0.146402	-0.234366
Zn2	Zn	1.929073	-0.233978	-0.146943
Zn3	Zn	1.718281	-0.153258	-0.153648
Zn4	Zn	1.718368	-0.240518	-0.241035
O5	O	1.823800	-0.193539	-0.193998
O6	O	2.105989	-0.152413	-0.217171
O7	O	1.900906	-0.223402	-0.074673
O8	O	1.746430	-0.079179	-0.164370
O9	O	2.105693	-0.216754	-0.152942
O10	O	1.901594	-0.074142	-0.223673
O11	O	1.746038	-0.164097	-0.079599
O12	O	1.541726	-0.170439	-0.170837
O13	O	1.746577	-0.227901	-0.313310
O14	O	1.541790	-0.234549	-0.235041
O15	O	1.901677	-0.158755	-0.308409
O16	O	1.900989	-0.308015	-0.159409
O17	O	1.746186	-0.312820	-0.228539
C18	C	1.495976	-0.203948	-0.204391
C19	C	1.355732	-0.208414	-0.208849
C20	C	1.823587	-0.329388	-0.193981
C21	C	1.823612	-0.387502	-0.193987
C22	C	1.904617	-0.745337	-0.158052
C23	C	1.904666	-0.799940	-0.158058
O24	O	1.973318	-0.826035	-0.127486
N25	N	1.824021	-0.829771	-0.194025
C26	C	1.743332	-0.804996	-0.229994
O27	O	1.674743	-0.835383	-0.260588
C28	C	1.743291	-0.750394	-0.229990
C29	C	1.823931	-0.720566	-0.194017
C30	C	1.985251	-0.715509	-0.122082
C31	C	1.985201	-0.660910	-0.122076
C32	C	1.904515	-0.636139	-0.158041
C33	C	1.823880	-0.665967	-0.194011
C34	C	1.662609	-0.725620	-0.265960
C35	C	1.662575	-0.671014	-0.265954
C36	C	1.743215	-0.641186	-0.229980
C37	C	1.743143	-0.586597	-0.229969
N38	N	1.823788	-0.556766	-0.194001
C39	C	1.904473	-0.581537	-0.158037
C40	C	1.743427	-0.919664	-0.229999
C41	C	1.743462	-0.974265	-0.230000
C42	C	1.904797	-0.969205	-0.158065
C43	C	1.904755	-0.914603	-0.158061
C44	C	1.824071	-0.889833	-0.194031
C45	C	1.904359	-0.466876	-0.158027
C46	C	1.904298	-0.412273	-0.158023
C47	C	1.742968	-0.417337	-0.229960
C48	C	1.743024	-0.471936	-0.229962
C49	C	1.823730	-0.496704	-0.193994
O50	O	1.674529	-0.560466	-0.260527
O51	O	1.973062	-0.551143	-0.127453
C52	C	2.152903	-0.183089	-0.183565
C53	C	2.293147	-0.178636	-0.179119
C54	C	1.824182	-0.193293	-0.330359
C55	C	1.824345	-0.193188	-0.388468
C56	C	1.824047	-0.057158	-0.194025
C57	C	1.824153	0.000959	-0.194037
C58	C	1.823491	-0.193744	-0.058165
C59	C	1.823573	-0.193694	-0.000048
C60	C	1.904046	-0.157253	0.253534
C61	C	1.903975	-0.157298	0.198928
O62	O	1.972080	-0.126504	0.172713
N63	N	1.823780	-0.193546	0.169232
C64	C	1.743642	-0.229749	0.194145
O65	O	1.675423	-0.260585	0.163872
C66	C	1.743708	-0.229701	0.248750
C67	C	1.823917	-0.193454	0.278444
C68	C	1.984248	-0.121007	0.283228
C69	C	1.984320	-0.120963	0.337831
C70	C	1.904191	-0.157164	0.362740
C71	C	1.823990	-0.193409	0.333047
C72	C	1.663565	-0.265901	0.273662
C73	C	1.663637	-0.265850	0.328271
C74	C	1.743846	-0.229602	0.357965
C75	C	1.743933	-0.229566	0.412559
N76	N	1.824128	-0.193317	0.442255
C77	C	1.904257	-0.157116	0.417345
C78	C	1.743509	-0.229846	0.079470
C79	C	1.743448	-0.229897	0.024866
C80	C	1.903780	-0.157444	0.029653
C81	C	1.903845	-0.157397	0.084258
C82	C	1.823703	-0.193597	0.109166
C83	C	1.904404	-0.157027	0.532015
C84	C	1.904474	-0.156987	0.586622
C85	C	1.744138	-0.229437	0.581831
C86	C	1.744073	-0.229479	0.527228
C87	C	1.824210	-0.193269	0.502322
O88	O	1.675859	-0.260343	0.438809
O89	O	1.972453	-0.126281	0.447624
H90	H	1.969965	-0.387988	-0.128727
O91	O	1.575549	-0.644297	-0.304750
H92	H	1.511317	-0.621535	-0.283361
H93	H	1.302017	-0.237329	-0.237712
O94	O	1.991743	-0.882431	-0.119267
H95	H	2.047857	-0.908835	-0.094264
O96	O	2.070823	-0.081862	0.369852
H97	H	2.135432	-0.102993	0.396794
O98	O	1.991393	-0.493587	-0.119230
H99	H	2.047438	-0.463666	-0.094216
O100	O	2.072196	-0.628741	-0.083284
H101	H	2.128314	-0.655146	-0.058284
H102	H	1.598360	-0.295324	0.348548
H103	H	1.346856	-0.149726	-0.150254
H104	H	1.969157	-0.127880	0.108431
H105	H	1.969656	-0.127540	0.511743
H106	H	1.678903	-0.258913	0.602122
H107	H	1.596936	-0.749897	-0.295251
O108	O	1.656465	-1.006435	-0.268792
H109	H	1.712972	-1.029440	-0.293624
H110	H	1.677364	-0.496223	-0.259256
O111	O	1.657075	-0.268895	0.106338
H112	H	1.592540	-0.247712	0.129144
O113	O	1.656368	-0.892949	-0.268784
H114	H	1.600290	-0.922870	-0.293787
H115	H	2.049499	-0.091525	0.262953
O116	O	2.072281	-0.742226	-0.083291
H117	H	2.050582	-0.732528	-0.042937
H118	H	1.969022	-0.127967	0.009362
H119	H	1.678772	-0.258999	0.503051
H120	H	1.598249	-0.295418	0.249494
H121	H	1.678148	-0.259419	0.000694
O122	O	1.991845	-0.995931	-0.119283
H123	H	1.935379	-1.022690	-0.094460
O124	O	1.655949	-0.390615	-0.268751
H125	H	1.669482	-0.347636	-0.262705
H126	H	1.969794	-0.127469	0.610797
