data_functionalizedCrystal
_audit_creation_method	'MofGen! by Chris Wilmer'
_symmetry_space_group_name_H-M	'P1'
_symmetry_Int_Tables_number	1
_symmetry_cell_setting	triclinic
loop_
_symmetry_equiv_pos_as_xyz
  x,y,z
_cell_length_a	16.120530
_cell_length_b	19.805405
_cell_length_c	19.805399
_cell_angle_alpha	89.970699
_cell_angle_beta	87.084478
_cell_angle_gamma	87.121765
loop_
_atom_site_label
_atom_site_type_symbol
_atom_site_fract_x
_atom_site_fract_y
_atom_site_fract_z
Zn1	Zn	1.274516	-0.322020	-0.435096
Zn2	Zn	1.524516	-0.072020	-0.185096
Zn3	Zn	1.774516	0.177980	0.064904
Zn4	Zn	2.024516	0.427980	0.314904
Zn5	Zn	1.274411	-0.435204	-0.321900
Zn6	Zn	1.524411	-0.185204	-0.071900
Zn7	Zn	1.774411	0.064796	0.178100
Zn8	Zn	2.024411	0.314796	0.428100
Zn9	Zn	1.135102	-0.316291	-0.316191
Zn10	Zn	1.385102	-0.066291	-0.066191
Zn11	Zn	1.635102	0.183709	0.183809
Zn12	Zn	1.885102	0.433709	0.433809
Zn13	Zn	1.135057	-0.429423	-0.429319
Zn14	Zn	1.385057	-0.179423	-0.179319
Zn15	Zn	1.635057	0.070577	0.070681
Zn16	Zn	1.885057	0.320577	0.320681
O17	O	1.204772	-0.375735	-0.375627
O18	O	1.454772	-0.125735	-0.125627
O19	O	1.704772	0.124265	0.124373
O20	O	1.954772	0.374265	0.374373
O21	O	1.391168	-0.341851	-0.424888
O22	O	1.641168	-0.091851	-0.174888
O23	O	1.891168	0.158149	0.075112
O24	O	2.141168	0.408149	0.325112
O25	O	1.255907	-0.419452	-0.226425
O26	O	1.505907	-0.169452	0.023575
O27	O	1.755907	0.080548	0.273575
O28	O	2.005907	0.330548	0.523575
O29	O	1.153659	-0.222337	-0.331992
O30	O	1.403659	0.027663	-0.081992
O31	O	1.653659	0.277663	0.168008
O32	O	1.903659	0.527663	0.418008
O33	O	1.391091	-0.425007	-0.341723
O34	O	1.641091	-0.175007	-0.091723
O35	O	1.891091	0.074993	0.158277
O36	O	2.141091	0.324993	0.408277
O37	O	1.256085	-0.226546	-0.419351
O38	O	1.506085	0.023454	-0.169351
O39	O	1.756085	0.273454	0.080649
O40	O	2.006085	0.523454	0.330649
O41	O	1.153557	-0.332087	-0.222231
O42	O	1.403557	-0.082087	0.027769
O43	O	1.653557	0.167913	0.277769
O44	O	1.903557	0.417913	0.527769
O45	O	1.018431	-0.326482	-0.326390
O46	O	1.268431	-0.076482	-0.076390
O47	O	1.518431	0.173518	0.173610
O48	O	1.768431	0.423518	0.423610
O49	O	1.153582	-0.415154	-0.524803
O50	O	1.403582	-0.165154	-0.274803
O51	O	1.653582	0.084846	-0.024803
O52	O	1.903582	0.334846	0.225197
O53	O	1.018398	-0.409599	-0.409506
O54	O	1.268398	-0.159599	-0.159506
O55	O	1.518398	0.090401	0.090494
O56	O	1.768398	0.340401	0.340494
O57	O	1.256042	-0.336245	-0.529048
O58	O	1.506042	-0.086245	-0.279048
O59	O	1.756042	0.163755	-0.029048
O60	O	2.006042	0.413755	0.220952
O61	O	1.255863	-0.529151	-0.336122
O62	O	1.505863	-0.279151	-0.086122
O63	O	1.755863	-0.029151	0.163878
O64	O	2.005863	0.220849	0.413878
O65	O	1.153480	-0.524904	-0.415042
O66	O	1.403480	-0.274904	-0.165042
O67	O	1.653480	-0.024904	0.084958
O68	O	1.903480	0.225096	0.334958
C69	C	0.988164	-0.366792	-0.366702
C70	C	1.238164	-0.116792	-0.116702
C71	C	1.488164	0.133208	0.133298
C72	C	1.738164	0.383208	0.383298
C73	C	0.895499	-0.362983	-0.362900
C74	C	1.145499	-0.112983	-0.112900
C75	C	1.395499	0.137017	0.137100
C76	C	1.645499	0.387017	0.387100
C77	C	1.204678	-0.551587	-0.375590
C78	C	1.454678	-0.301587	-0.125590
C79	C	1.704678	-0.051587	0.124410
C80	C	1.954678	0.198413	0.374410
C81	C	1.204714	-0.626820	-0.375600
C82	C	1.454714	-0.376820	-0.125600
C83	C	1.704714	-0.126820	0.124400
C84	C	1.954714	0.123180	0.374400
C85	C	1.258077	-0.664356	-0.334554
C86	C	1.508077	-0.414356	-0.084554
C87	C	1.758077	-0.164356	0.165446
C88	C	2.008077	0.085644	0.415446
C89	C	1.258112	-0.735045	-0.334570
C90	C	1.508112	-0.485045	-0.084570
C91	C	1.758112	-0.235045	0.165430
C92	C	2.008112	0.014955	0.415430
C93	C	1.204780	-0.768199	-0.375630
C94	C	1.454780	-0.518199	-0.125630
C95	C	1.704780	-0.268199	0.124370
C96	C	1.954780	-0.018199	0.374370
C97	C	1.151415	-0.730658	-0.416681
C98	C	1.401415	-0.480658	-0.166681
C99	C	1.651415	-0.230658	0.083319
C100	C	1.901415	0.019342	0.333319
C101	C	1.151385	-0.659970	-0.416668
C102	C	1.401385	-0.409970	-0.166668
C103	C	1.651385	-0.159970	0.083332
C104	C	1.901385	0.090030	0.333332
C105	C	1.151538	-1.015737	-0.416736
C106	C	1.401538	-0.765737	-0.166736
C107	C	1.651538	-0.515737	0.083264
C108	C	1.901538	-0.265737	0.333264
C109	C	1.151571	-1.086430	-0.416745
C110	C	1.401571	-0.836430	-0.166745
C111	C	1.651571	-0.586430	0.083255
C112	C	1.901571	-0.336430	0.333255
C113	C	1.258266	-1.090812	-0.334639
C114	C	1.508266	-0.840812	-0.084639
C115	C	1.758266	-0.590812	0.165361
C116	C	2.008266	-0.340812	0.415361
C117	C	1.258235	-1.020124	-0.334626
C118	C	1.508235	-0.770124	-0.084626
C119	C	1.758235	-0.520124	0.165374
C120	C	2.008235	-0.270124	0.415374
C121	C	1.204874	-0.982590	-0.375679
C122	C	1.454874	-0.732590	-0.125679
C123	C	1.704874	-0.482590	0.124321
C124	C	1.954874	-0.232590	0.374321
C125	C	1.204837	-0.905940	-0.375662
C126	C	1.454837	-0.655940	-0.125662
C127	C	1.704837	-0.405940	0.124338
C128	C	1.954837	-0.155940	0.374338
C129	C	1.204812	-0.844847	-0.375644
C130	C	1.454812	-0.594847	-0.125644
C131	C	1.704812	-0.344847	0.124356
C132	C	1.954812	-0.094847	0.374356
C133	C	0.725838	-0.356012	-0.355964
C134	C	0.975838	-0.106012	-0.105964
C135	C	1.225838	0.143988	0.144036
C136	C	1.475838	0.393988	0.394036
C137	C	0.684546	-0.395507	-0.395339
C138	C	0.934546	-0.145507	-0.145339
C139	C	1.184546	0.104493	0.104661
C140	C	1.434546	0.354493	0.354661
C141	C	0.590141	-0.391628	-0.391480
C142	C	0.840141	-0.141628	-0.141480
C143	C	1.090141	0.108372	0.108520
C144	C	1.340141	0.358372	0.358520
C145	C	0.820252	-0.359890	-0.359822
C146	C	1.070252	-0.109890	-0.109822
C147	C	1.320252	0.140110	0.140178
C148	C	1.570252	0.390110	0.390178
C149	C	1.422225	-0.384712	-0.384587
C150	C	1.672225	-0.134712	-0.134587
C151	C	1.922225	0.115288	0.115413
C152	C	2.172225	0.365288	0.365413
C153	C	1.514890	-0.388538	-0.388405
C154	C	1.764890	-0.138538	-0.138405
C155	C	2.014890	0.111462	0.111595
C156	C	2.264890	0.361462	0.361595
C157	C	1.204819	-0.375694	-0.552171
C158	C	1.454819	-0.125694	-0.302171
C159	C	1.704819	0.124306	-0.052171
C160	C	1.954819	0.374306	0.197829
C161	C	1.204838	-0.375677	-0.627404
C162	C	1.454838	-0.125677	-0.377404
C163	C	1.704838	0.124323	-0.127404
C164	C	1.954838	0.374323	0.122596
C165	C	1.204889	-0.199197	-0.375679
C166	C	1.454889	0.050803	-0.125679
C167	C	1.704889	0.300803	0.124321
C168	C	1.954889	0.550803	0.374321
C169	C	1.204938	-0.123967	-0.375702
C170	C	1.454938	0.126033	-0.125702
C171	C	1.704938	0.376033	0.124298
C172	C	1.954938	0.626033	0.374298
C173	C	1.258190	-0.334587	-0.664960
C174	C	1.508190	-0.084587	-0.414960
C175	C	1.758190	0.165413	-0.164960
C176	C	2.008190	0.415413	0.085040
C177	C	1.258199	-0.334567	-0.735648
C178	C	1.508199	-0.084567	-0.485648
C179	C	1.758199	0.165433	-0.235648
C180	C	2.008199	0.415433	0.014352
C181	C	1.204859	-0.375642	-0.768781
C182	C	1.454859	-0.125642	-0.518781
C183	C	1.704859	0.124358	-0.268781
C184	C	1.954859	0.374358	-0.018781
C185	C	1.151501	-0.416734	-0.731220
C186	C	1.401501	-0.166734	-0.481220
C187	C	1.651501	0.083266	-0.231220
C188	C	1.901501	0.333266	0.018780
C189	C	1.151489	-0.416749	-0.660533
C190	C	1.401489	-0.166749	-0.410533
C191	C	1.651489	0.083251	-0.160533
C192	C	1.901489	0.333251	0.089467
C193	C	1.151548	-0.416672	-1.016296
C194	C	1.401548	-0.166672	-0.766296
C195	C	1.651548	0.083328	-0.516296
C196	C	1.901548	0.333328	-0.266296
C197	C	1.151566	-0.416656	-1.086989
C198	C	1.401566	-0.166656	-0.836989
C199	C	1.651566	0.083344	-0.586989
C200	C	1.901566	0.333344	-0.336989
C201	C	1.258258	-0.334491	-1.091412
C202	C	1.508258	-0.084491	-0.841412
C203	C	1.758258	0.165509	-0.591412
C204	C	2.008258	0.415509	-0.341412
C205	C	1.258246	-0.334506	-1.020724
C206	C	1.508246	-0.084506	-0.770724
C207	C	1.758246	0.165494	-0.520724
C208	C	2.008246	0.415494	-0.270724
C209	C	1.204885	-0.375595	-0.983169
C210	C	1.454885	-0.125595	-0.733169
C211	C	1.704885	0.124405	-0.483169
C212	C	1.954885	0.374405	-0.233169
C213	C	1.204876	-0.375614	-0.906521
C214	C	1.454876	-0.125614	-0.656521
C215	C	1.704876	0.124386	-0.406521
C216	C	1.954876	0.374386	-0.156521
C217	C	1.204873	-0.375627	-0.845429
C218	C	1.454873	-0.125627	-0.595429
C219	C	1.704873	0.124373	-0.345429
C220	C	1.954873	0.374373	-0.095429
C221	C	1.204773	-0.375728	-0.199771
C222	C	1.454773	-0.125728	0.050229
C223	C	1.704773	0.124272	0.300229
C224	C	1.954773	0.374272	0.550229
C225	C	1.204915	-0.375562	-0.124545
C226	C	1.454915	-0.125562	0.125455
C227	C	1.704915	0.124438	0.375455
C228	C	1.954915	0.374438	0.625455
H229	H	1.301502	-0.637367	-0.301115
H230	H	1.551502	-0.387367	-0.051115
H231	H	1.801502	-0.137367	0.198885
H232	H	2.051502	0.112633	0.448885
H233	H	1.108111	-0.450140	-0.985728
H234	H	1.358111	-0.200140	-0.735728
H235	H	1.608111	0.049860	-0.485728
H236	H	1.858111	0.299860	-0.235728
C237	C	1.316896	-0.983659	-0.289450
C238	C	1.566896	-0.733659	-0.039450
C239	C	1.816896	-0.483659	0.210550
C240	C	2.066896	-0.233659	0.460550
N241	N	1.361082	-0.956195	-0.255423
N242	N	1.611082	-0.706195	-0.005423
N243	N	1.861082	-0.456195	0.244577
N244	N	2.111082	-0.206195	0.494577
H245	H	1.107933	-0.629409	-0.450093
H246	H	1.357933	-0.379409	-0.200093
H247	H	1.607933	-0.129409	0.049907
H248	H	1.857933	0.120591	0.299907
H249	H	0.690290	-0.319290	-0.319359
H250	H	0.940290	-0.069290	-0.069359
H251	H	1.190290	0.180710	0.180641
H252	H	1.440290	0.430710	0.430641
C253	C	0.732571	-0.445126	-0.444790
C254	C	0.982571	-0.195126	-0.194790
C255	C	1.232571	0.054874	0.055210
C256	C	1.482571	0.304874	0.305210
N257	N	0.768746	-0.482501	-0.482032
N258	N	1.018746	-0.232501	-0.232032
N259	N	1.268746	0.017499	0.017968
N260	N	1.518746	0.267499	0.267968
C261	C	1.316810	-0.776331	-0.289411
C262	C	1.566810	-0.526331	-0.039411
C263	C	1.816810	-0.276331	0.210589
C264	C	2.066810	-0.026331	0.460589
N265	N	1.361022	-0.807427	-0.255395
N266	N	1.611022	-0.557427	-0.005395
N267	N	1.861022	-0.307427	0.244605
N268	N	2.111022	-0.057427	0.494605
C269	C	1.092882	-0.974460	-0.461933
C270	C	1.342882	-0.724460	-0.211933
C271	C	1.592882	-0.474460	0.038067
C272	C	1.842882	-0.224460	0.288067
N273	N	1.048714	-0.943369	-0.495990
N274	N	1.298714	-0.693369	-0.245990
N275	N	1.548714	-0.443369	0.004010
N276	N	1.798714	-0.193369	0.254010
H277	H	1.107995	-0.757657	-0.450116
H278	H	1.357995	-0.507657	-0.200116
H279	H	1.607995	-0.257657	0.049884
H280	H	1.857995	-0.007657	0.299884
C281	C	1.316869	-0.289400	-0.628521
C282	C	1.566869	-0.039400	-0.378521
C283	C	1.816869	0.210600	-0.128521
C284	C	2.066869	0.460600	0.121479
N285	N	1.361064	-0.255361	-0.601077
N286	N	1.611064	-0.005361	-0.351077
N287	N	1.861064	0.244639	-0.101077
N288	N	2.111064	0.494639	0.148923
H289	H	1.301718	-1.121381	-0.301214
H290	H	1.551718	-0.871381	-0.051214
H291	H	1.801718	-0.621381	0.198786
H292	H	2.051718	-0.371381	0.448786
C293	C	1.316892	-0.289366	-0.776956
C294	C	1.566892	-0.039366	-0.526956
C295	C	1.816892	0.210634	-0.276956
C296	C	2.066892	0.460634	-0.026956
N297	N	1.361102	-0.255319	-0.808069
N298	N	1.611102	-0.005319	-0.558069
N299	N	1.861102	0.244681	-0.308069
N300	N	2.111102	0.494681	-0.058069
C301	C	1.092819	-0.461909	-0.767668
C302	C	1.342819	-0.211909	-0.517668
C303	C	1.592819	0.038091	-0.267668
C304	C	1.842819	0.288091	-0.017668
N305	N	1.048617	-0.495936	-0.795120
N306	N	1.298617	-0.245936	-0.545120
N307	N	1.548617	0.004064	-0.295120
N308	N	1.798617	0.254064	-0.045120
C309	C	1.092903	-1.122897	-0.461920
C310	C	1.342903	-0.872897	-0.211920
C311	C	1.592903	-0.622897	0.038080
C312	C	1.842903	-0.372897	0.288080
N313	N	1.048717	-1.150364	-0.495944
N314	N	1.298717	-0.900364	-0.245944
N315	N	1.548717	-0.650364	0.004056
N316	N	1.798717	-0.400364	0.254056
H317	H	1.301684	-0.301061	-0.993751
H318	H	1.551684	-0.051061	-0.743751
H319	H	1.801684	0.198939	-0.493751
H320	H	2.051684	0.448939	-0.243751
H321	H	1.301704	-0.301032	-1.121997
H322	H	1.551704	-0.051032	-0.871997
H323	H	1.801704	0.198968	-0.621997
H324	H	2.051704	0.448968	-0.371997
H325	H	1.108127	-0.450105	-1.113963
H326	H	1.358127	-0.200105	-0.863963
H327	H	1.608127	0.049895	-0.613963
H328	H	1.858127	0.299895	-0.363963
C329	C	1.092799	-0.461952	-0.619222
C330	C	1.342799	-0.211952	-0.369222
C331	C	1.592799	0.038048	-0.119222
C332	C	1.842799	0.288048	0.130778
N333	N	1.048590	-0.496000	-0.588108
N334	N	1.298590	-0.246000	-0.338108
N335	N	1.548590	0.004000	-0.088108
N336	N	1.798590	0.254000	0.161892
