data_functionalizedCrystal
_audit_creation_method	'MofGen! by Chris Wilmer'
_symmetry_space_group_name_H-M	'P1'
_symmetry_Int_Tables_number	1
_symmetry_cell_setting	triclinic
loop_
_symmetry_equiv_pos_as_xyz
  x,y,z
_cell_length_a	19.805405
_cell_length_b	19.805407
_cell_length_c	19.805399
_cell_angle_alpha	90.019573
_cell_angle_beta	89.970699
_cell_angle_gamma	89.973590
loop_
_atom_site_label
_atom_site_type_symbol
_atom_site_fract_x
_atom_site_fract_y
_atom_site_fract_z
Zn1	Zn	-0.269479	-1.034736	-0.382712
Zn2	Zn	-0.019479	-0.784736	-0.132712
Zn3	Zn	0.230521	-0.534736	0.117288
Zn4	Zn	0.480521	-0.284736	0.367288
Zn5	Zn	-0.382667	-1.034651	-0.269520
Zn6	Zn	-0.132667	-0.784651	-0.019520
Zn7	Zn	0.117333	-0.534651	0.230480
Zn8	Zn	0.367333	-0.284651	0.480480
Zn9	Zn	-0.269498	-0.921550	-0.269536
Zn10	Zn	-0.019498	-0.671550	-0.019536
Zn11	Zn	0.230502	-0.421550	0.230464
Zn12	Zn	0.480502	-0.171550	0.480464
Zn13	Zn	-0.382631	-0.921514	-0.382667
Zn14	Zn	-0.132631	-0.671514	-0.132667
Zn15	Zn	0.117369	-0.421514	0.117333
Zn16	Zn	0.367369	-0.171514	0.367333
O17	O	-0.326069	-0.978113	-0.326109
O18	O	-0.076069	-0.728113	-0.076109
O19	O	0.173931	-0.478113	0.173891
O20	O	0.423931	-0.228113	0.423891
O21	O	-0.284501	-1.129441	-0.367708
O22	O	-0.034501	-0.879441	-0.117708
O23	O	0.215499	-0.629441	0.132292
O24	O	0.465499	-0.379441	0.382292
O25	O	-0.367678	-1.019627	-0.174805
O26	O	-0.117678	-0.769627	0.075195
O27	O	0.132322	-0.519627	0.325195
O28	O	0.382322	-0.269627	0.575195
O29	O	-0.174778	-0.936616	-0.284575
O30	O	0.075222	-0.686616	-0.034575
O31	O	0.325222	-0.436616	0.215425
O32	O	0.575222	-0.186616	0.465425
O33	O	-0.367660	-1.129378	-0.284547
O34	O	-0.117660	-0.879378	-0.034547
O35	O	0.132340	-0.629378	0.215453
O36	O	0.382340	-0.379378	0.465453
O37	O	-0.174765	-1.019772	-0.367724
O38	O	0.075235	-0.769772	-0.117724
O39	O	0.325235	-0.519772	0.132276
O40	O	0.575235	-0.269772	0.382276
O41	O	-0.284533	-0.936533	-0.174817
O42	O	-0.034533	-0.686533	0.075183
O43	O	0.215467	-0.436533	0.325183
O44	O	0.465467	-0.186533	0.575183
O45	O	-0.284498	-0.826829	-0.284531
O46	O	-0.034498	-0.576829	-0.034531
O47	O	0.215502	-0.326829	0.215469
O48	O	0.465502	-0.076829	0.465469
O49	O	-0.367598	-0.936553	-0.477389
O50	O	-0.117598	-0.686553	-0.227389
O51	O	0.132402	-0.436553	0.022611
O52	O	0.382402	-0.186553	0.272611
O53	O	-0.367617	-0.826802	-0.367648
O54	O	-0.117617	-0.576802	-0.117648
O55	O	0.132383	-0.326802	0.132352
O56	O	0.382383	-0.076802	0.382352
O57	O	-0.284466	-1.019737	-0.477422
O58	O	-0.034466	-0.769737	-0.227422
O59	O	0.215534	-0.519737	0.022578
O60	O	0.465534	-0.269737	0.272578
O61	O	-0.477379	-1.019592	-0.284503
O62	O	-0.227379	-0.769592	-0.034503
O63	O	0.022621	-0.519592	0.215497
O64	O	0.272621	-0.269592	0.465497
O65	O	-0.477353	-0.936471	-0.367632
O66	O	-0.227353	-0.686471	-0.117632
O67	O	0.022647	-0.436471	0.132368
O68	O	0.272647	-0.186471	0.382368
C69	C	-0.326056	-0.802257	-0.326087
C70	C	-0.076056	-0.552257	-0.076087
C71	C	0.173944	-0.302257	0.173913
C72	C	0.423944	-0.052257	0.423913
C73	C	-0.326067	-0.727025	-0.326093
C74	C	-0.076067	-0.477025	-0.076093
C75	C	0.173933	-0.227025	0.173907
C76	C	0.423933	0.022975	0.423907
C77	C	-0.501925	-0.978036	-0.326076
C78	C	-0.251925	-0.728036	-0.076076
C79	C	-0.001925	-0.478036	0.173924
C80	C	0.248075	-0.228036	0.423924
C81	C	-0.577157	-0.978066	-0.326084
C82	C	-0.327157	-0.728066	-0.076084
C83	C	-0.077157	-0.478066	0.173916
C84	C	0.172843	-0.228066	0.423916
C85	C	-0.326026	-0.978151	-0.502651
C86	C	-0.076026	-0.728151	-0.252651
C87	C	0.173974	-0.478151	-0.002651
C88	C	0.423974	-0.228151	0.247349
C89	C	-0.326008	-0.978167	-0.577883
C90	C	-0.076008	-0.728167	-0.327883
C91	C	0.173992	-0.478167	-0.077883
C92	C	0.423992	-0.228167	0.172117
C93	C	-0.612492	-1.021389	-0.282845
C94	C	-0.362492	-0.771389	-0.032845
C95	C	-0.112492	-0.521389	0.217155
C96	C	0.137508	-0.271389	0.467155
C97	C	-0.683181	-1.021418	-0.282860
C98	C	-0.433181	-0.771418	-0.032860
C99	C	-0.183181	-0.521418	0.217140
C100	C	0.066819	-0.271418	0.467140
C101	C	-0.718532	-0.978119	-0.326111
C102	C	-0.468532	-0.728119	-0.076111
C103	C	-0.218532	-0.478119	0.173889
C104	C	0.031468	-0.228119	0.423889
C105	C	-0.683192	-0.934794	-0.369356
C106	C	-0.433192	-0.684794	-0.119356
C107	C	-0.183192	-0.434794	0.130644
C108	C	0.066808	-0.184794	0.380644
C109	C	-0.612505	-0.934769	-0.369344
C110	C	-0.362505	-0.684769	-0.119344
C111	C	-0.112505	-0.434769	0.130656
C112	C	0.137495	-0.184769	0.380656
C113	C	-0.968265	-0.934894	-0.369406
C114	C	-0.718265	-0.684894	-0.119406
C115	C	-0.468265	-0.434894	0.130594
C116	C	-0.218265	-0.184894	0.380594
C117	C	-1.038957	-0.934921	-0.369413
C118	C	-0.788957	-0.684921	-0.119413
C119	C	-0.538957	-0.434921	0.130587
C120	C	-0.288957	-0.184921	0.380587
C121	C	-1.038941	-1.021542	-0.282922
C122	C	-0.788941	-0.771542	-0.032922
C123	C	-0.538941	-0.521542	0.217078
C124	C	-0.288941	-0.271542	0.467078
C125	C	-0.968254	-1.021517	-0.282910
C126	C	-0.718254	-0.771517	-0.032910
C127	C	-0.468254	-0.521517	0.217090
C128	C	-0.218254	-0.271517	0.467090
C129	C	-0.932920	-0.978195	-0.326157
C130	C	-0.682920	-0.728195	-0.076157
C131	C	-0.432920	-0.478195	0.173843
C132	C	-0.182920	-0.228195	0.423843
C133	C	-0.856271	-0.978166	-0.326141
C134	C	-0.606271	-0.728166	-0.076141
C135	C	-0.356271	-0.478166	0.173859
C136	C	-0.106271	-0.228166	0.423859
C137	C	-0.795179	-0.978145	-0.326124
C138	C	-0.545179	-0.728145	-0.076124
C139	C	-0.295179	-0.478145	0.173876
C140	C	-0.045179	-0.228145	0.423876
C141	C	-0.149526	-0.978207	-0.326156
C142	C	0.100474	-0.728207	-0.076156
C143	C	0.350474	-0.478207	0.173844
C144	C	0.600474	-0.228207	0.423844
C145	C	-0.074294	-0.978248	-0.326177
C146	C	0.175706	-0.728248	-0.076177
C147	C	0.425706	-0.478248	0.173823
C148	C	0.675706	-0.228248	0.423823
C149	C	-0.326082	-1.154655	-0.326131
C150	C	-0.076082	-0.904655	-0.076131
C151	C	0.173918	-0.654655	0.173869
C152	C	0.423918	-0.404655	0.423869
C153	C	-0.326088	-1.229887	-0.326140
C154	C	-0.076088	-0.979887	-0.076140
C155	C	0.173912	-0.729887	0.173860
C156	C	0.423912	-0.479887	0.423860
C157	C	-0.369412	-0.691684	-0.369302
C158	C	-0.119412	-0.441684	-0.119302
C159	C	0.130588	-0.191684	0.130698
C160	C	0.380588	0.058316	0.380698
C161	C	-0.369413	-0.620996	-0.369312
C162	C	-0.119413	-0.370996	-0.119312
C163	C	0.130587	-0.120996	0.130688
C164	C	0.380587	0.129004	0.380688
C165	C	-0.326072	-0.585649	-0.326109
C166	C	-0.076072	-0.335649	-0.076109
C167	C	0.173928	-0.085649	0.173891
C168	C	0.423928	0.164351	0.423891
C169	C	-0.282722	-0.620994	-0.282898
C170	C	-0.032722	-0.370994	-0.032898
C171	C	0.217278	-0.120994	0.217102
C172	C	0.467278	0.129006	0.467102
C173	C	-0.282718	-0.691681	-0.282892
C174	C	-0.032718	-0.441681	-0.032892
C175	C	0.217282	-0.191681	0.217108
C176	C	0.467282	0.058319	0.467108
C177	C	-0.282737	-0.335921	-0.282920
C178	C	-0.032737	-0.085921	-0.032920
C179	C	0.217263	0.164079	0.217080
C180	C	0.467263	0.414079	0.467080
C181	C	-0.282746	-0.265229	-0.282928
C182	C	-0.032746	-0.015229	-0.032928
C183	C	0.217254	0.234771	0.217072
C184	C	0.467254	0.484771	0.467072
C185	C	-0.369432	-0.265235	-0.369340
C186	C	-0.119432	-0.015235	-0.119340
C187	C	0.130568	0.234765	0.130660
C188	C	0.380568	0.484765	0.380660
C189	C	-0.369428	-0.335922	-0.369334
C190	C	-0.119428	-0.085922	-0.119334
C191	C	0.130572	0.164078	0.130666
C192	C	0.380572	0.414078	0.380666
C193	C	-0.326076	-0.371262	-0.326126
C194	C	-0.076076	-0.121262	-0.076126
C195	C	0.173924	0.128738	0.173874
C196	C	0.423924	0.378738	0.423874
C197	C	-0.326074	-0.447910	-0.326117
C198	C	-0.076074	-0.197910	-0.076117
C199	C	0.173926	0.052090	0.173883
C200	C	0.423926	0.302090	0.423883
C201	C	-0.326076	-0.509002	-0.326114
C202	C	-0.076076	-0.259002	-0.076114
C203	C	0.173924	-0.009002	0.173886
C204	C	0.423924	0.240998	0.423886
C205	C	-0.282719	-1.021481	-0.613246
C206	C	-0.032719	-0.771481	-0.363246
C207	C	0.217281	-0.521481	-0.113246
C208	C	0.467281	-0.271481	0.136754
C209	C	-0.282699	-1.021488	-0.683934
C210	C	-0.032699	-0.771488	-0.433934
C211	C	0.217301	-0.521488	-0.183934
C212	C	0.467301	-0.271488	0.066066
C213	C	-0.325973	-0.978184	-0.719259
C214	C	-0.075973	-0.728184	-0.469259
C215	C	0.174027	-0.478184	-0.219259
C216	C	0.424027	-0.228184	0.030741
C217	C	-0.369264	-0.934864	-0.683892
C218	C	-0.119264	-0.684864	-0.433892
C219	C	0.130736	-0.434864	-0.183892
C220	C	0.380736	-0.184864	0.066108
C221	C	-0.369279	-0.934854	-0.613204
C222	C	-0.119279	-0.684854	-0.363204
C223	C	0.130721	-0.434854	-0.113204
C224	C	0.380721	-0.184854	0.136796
C225	C	-0.369201	-0.934902	-0.968965
C226	C	-0.119201	-0.684902	-0.718965
C227	C	0.130799	-0.434902	-0.468965
C228	C	0.380799	-0.184902	-0.218965
C229	C	-0.369183	-0.934917	-1.039657
C230	C	-0.119183	-0.684917	-0.789657
C231	C	0.130817	-0.434917	-0.539657
C232	C	0.380817	-0.184917	-0.289657
C233	C	-0.282620	-1.021536	-1.039695
C234	C	-0.032620	-0.771536	-0.789695
C235	C	0.217380	-0.521536	-0.539695
C236	C	0.467380	-0.271536	-0.289695
C237	C	-0.282636	-1.021527	-0.969008
C238	C	-0.032636	-0.771527	-0.719008
C239	C	0.217364	-0.521527	-0.469008
C240	C	0.467364	-0.271527	-0.219008
C241	C	-0.325924	-0.978205	-0.933647
C242	C	-0.075924	-0.728205	-0.683647
C243	C	0.174076	-0.478205	-0.433647
C244	C	0.424076	-0.228205	-0.183647
C245	C	-0.325944	-0.978197	-0.856998
C246	C	-0.075944	-0.728197	-0.606998
C247	C	0.174056	-0.478197	-0.356998
C248	C	0.424056	-0.228197	-0.106998
C249	C	-0.325957	-0.978194	-0.795906
C250	C	-0.075957	-0.728194	-0.545906
C251	C	0.174043	-0.478194	-0.295906
C252	C	0.424043	-0.228194	-0.045906
C253	C	-0.326062	-0.978114	-0.150253
C254	C	-0.076062	-0.728114	0.099747
C255	C	0.173938	-0.478114	0.349747
C256	C	0.423938	-0.228114	0.599747
C257	C	-0.325890	-0.978229	-0.075021
C258	C	-0.075890	-0.728229	0.174979
C259	C	0.174110	-0.478229	0.424979
C260	C	0.424110	-0.228229	0.674979
H261	H	-0.583713	-1.056644	-0.247621
H262	H	-0.333713	-0.806644	0.002379
H263	H	-0.083713	-0.556644	0.252379
H264	H	0.166287	-0.306644	0.502379
H265	H	-0.404523	-0.899576	-0.584413
H266	H	-0.154523	-0.649576	-0.334413
H267	H	0.095477	-0.399576	-0.084413
H268	H	0.345477	-0.149576	0.165587
H269	H	-0.404423	-0.899650	-1.068417
H270	H	-0.154423	-0.649650	-0.818417
H271	H	0.095577	-0.399650	-0.568417
H272	H	0.345577	-0.149650	-0.318417
H273	H	-0.404729	-0.236454	-0.404524
H274	H	-0.154729	0.013546	-0.154524
H275	H	0.095271	0.263546	0.095476
H276	H	0.345271	0.513546	0.345476
H277	H	-0.404459	-0.899637	-0.940183
H278	H	-0.154459	-0.649637	-0.690183
H279	H	0.095541	-0.399637	-0.440183
H280	H	0.345541	-0.149637	-0.190183
Cl281	Cl	-0.423663	-0.880421	-0.728300
Cl282	Cl	-0.173663	-0.630421	-0.478300
Cl283	Cl	0.076337	-0.380421	-0.228300
Cl284	Cl	0.326337	-0.130421	0.021700
H285	H	-1.067719	-1.056820	-0.247711
H286	H	-0.817719	-0.806820	0.002289
H287	H	-0.567719	-0.556820	0.252289
H288	H	-0.317719	-0.306820	0.502289
Cl289	Cl	-0.228197	-1.075996	-1.084153
Cl290	Cl	0.021803	-0.825996	-0.834153
Cl291	Cl	0.271803	-0.575996	-0.584153
Cl292	Cl	0.521803	-0.325996	-0.334153
Cl293	Cl	-0.727599	-1.075886	-0.228501
Cl294	Cl	-0.477599	-0.825886	0.021499
Cl295	Cl	-0.227599	-0.575886	0.271499
Cl296	Cl	0.022401	-0.325886	0.521499
Cl297	Cl	-0.228223	-0.736110	-0.228572
Cl298	Cl	0.021777	-0.486110	0.021428
Cl299	Cl	0.271777	-0.236110	0.271428
Cl300	Cl	0.521777	0.013890	0.521428
Cl301	Cl	-0.423907	-0.576571	-0.423634
Cl302	Cl	-0.173907	-0.326571	-0.173634
Cl303	Cl	0.076093	-0.076571	0.076366
Cl304	Cl	0.326093	0.173429	0.326366
H305	H	-0.404723	-0.364698	-0.404512
H306	H	-0.154723	-0.114698	-0.154512
H307	H	0.095277	0.135302	0.095488
H308	H	0.345277	0.385302	0.345488
Cl309	Cl	-0.228318	-1.075928	-0.568845
Cl310	Cl	0.021682	-0.825928	-0.318845
Cl311	Cl	0.271682	-0.575928	-0.068845
Cl312	Cl	0.521682	-0.325928	0.181155
Cl313	Cl	-0.228306	-1.075974	-0.728387
Cl314	Cl	0.021694	-0.825974	-0.478387
Cl315	Cl	0.271694	-0.575974	-0.228387
Cl316	Cl	0.521694	-0.325974	0.021613
Cl317	Cl	-0.228235	-1.075971	-0.924603
Cl318	Cl	0.021765	-0.825971	-0.674603
Cl319	Cl	0.271765	-0.575971	-0.424603
Cl320	Cl	0.521765	-0.325971	-0.174603
H321	H	-0.247448	-0.236452	-0.247747
H322	H	0.002552	0.013548	0.002253
H323	H	0.252552	0.263548	0.252253
H324	H	0.502552	0.513548	0.502253
H325	H	-0.247442	-0.364686	-0.247733
H326	H	0.002558	-0.114686	0.002267
H327	H	0.252558	0.135314	0.252267
H328	H	0.502558	0.385314	0.502267
H329	H	-0.939473	-1.056773	-0.247688
H330	H	-0.689473	-0.806773	0.002312
H331	H	-0.439473	-0.556773	0.252312
H332	H	-0.189473	-0.306773	0.502312
H333	H	-0.939502	-0.899618	-0.404618
H334	H	-0.689502	-0.649618	-0.154618
H335	H	-0.439502	-0.399618	0.095382
H336	H	-0.189502	-0.149618	0.345382
Cl337	Cl	-0.727634	-0.880366	-0.423734
Cl338	Cl	-0.477634	-0.630366	-0.173734
Cl339	Cl	-0.227634	-0.380366	0.076266
Cl340	Cl	0.022366	-0.130366	0.326266
Cl341	Cl	-0.568083	-0.880306	-0.423707
Cl342	Cl	-0.318083	-0.630306	-0.173707
Cl343	Cl	-0.068083	-0.380306	0.076293
Cl344	Cl	0.181917	-0.130306	0.326293
Cl345	Cl	-0.423904	-0.736113	-0.423615
Cl346	Cl	-0.173904	-0.486113	-0.173615
Cl347	Cl	0.076096	-0.236113	0.076385
Cl348	Cl	0.326096	0.013887	0.326385
Cl349	Cl	-1.083399	-0.880486	-0.423793
Cl350	Cl	-0.833399	-0.630486	-0.173793
Cl351	Cl	-0.583399	-0.380486	0.076207
Cl352	Cl	-0.333399	-0.130486	0.326207
Cl353	Cl	-0.228231	-0.576558	-0.228590
Cl354	Cl	0.021769	-0.326558	0.021410
Cl355	Cl	0.271769	-0.076558	0.271410
Cl356	Cl	0.521769	0.173442	0.521410
