data_functionalizedCrystal
_audit_creation_method	'MofGen! by Chris Wilmer'
_symmetry_space_group_name_H-M	'P1'
_symmetry_Int_Tables_number	1
_symmetry_cell_setting	triclinic
loop_
_symmetry_equiv_pos_as_xyz
  x,y,z
_cell_length_a	17.699104
_cell_length_b	17.699083
_cell_length_c	16.776229
_cell_angle_alpha	89.992455
_cell_angle_beta	89.991971
_cell_angle_gamma	83.287266
loop_
_atom_site_label
_atom_site_type_symbol
_atom_site_fract_x
_atom_site_fract_y
_atom_site_fract_z
O1	O	1.004069	0.095788	-0.066306
O2	O	1.504069	0.595788	0.433694
O3	O	0.783692	0.108224	-0.066304
O4	O	1.283692	0.608224	0.433696
O5	O	0.900107	-0.008183	-0.066298
O6	O	1.400107	0.491817	0.433702
O7	O	0.887654	0.212195	-0.066312
O8	O	1.387654	0.712195	0.433688
O9	O	0.900091	-0.008190	0.066278
O10	O	1.400091	0.491810	0.566278
O11	O	0.783677	0.108217	0.066272
O12	O	1.283677	0.608217	0.566272
O13	O	1.004053	0.095781	0.066271
O14	O	1.504053	0.595781	0.566271
Zn15	Zn	0.893863	0.101998	0.087321
Zn16	Zn	1.393863	0.601998	0.587321
Zn17	Zn	0.893883	0.102007	-0.087354
Zn18	Zn	1.393883	0.602007	0.412646
O19	O	0.887639	0.212188	0.066264
O20	O	1.387639	0.712188	0.566264
C21	C	0.755488	0.107772	-0.000016
C22	C	1.255488	0.607772	0.499984
C23	C	0.671471	0.106427	-0.000015
C24	C	1.171471	0.606427	0.499985
C25	C	0.146600	0.167171	-0.000027
C26	C	0.646600	0.667171	0.499973
C27	C	0.225543	0.168430	-0.000029
C28	C	0.725543	0.668430	0.499971
C29	C	0.274161	0.100095	-0.000025
C30	C	0.774161	0.600095	0.499975
C31	C	0.243831	0.030496	-0.000026
C32	C	0.743831	0.530496	0.499974
C33	C	0.164889	0.029238	-0.000029
C34	C	0.664889	0.529238	0.499971
C35	C	0.562197	0.035569	-0.000014
C36	C	1.062197	0.535569	0.499986
C37	C	0.641144	0.036833	-0.000008
C38	C	1.141144	0.536833	0.499992
C39	C	0.622852	0.174762	-0.000014
C40	C	1.122852	0.674762	0.499986
C41	C	0.543909	0.173503	-0.000017
C42	C	1.043909	0.673503	0.499983
C43	C	0.513587	0.103905	-0.000022
C44	C	1.013587	0.603905	0.499978
C45	C	0.427987	0.102541	-0.000021
C46	C	0.927987	0.602541	0.499979
C47	C	0.359759	0.101459	-0.000020
C48	C	0.859759	0.601459	0.499980
C49	C	0.899653	-0.036383	-0.000010
C50	C	1.399653	0.463617	0.499990
C51	C	0.898314	-0.120402	-0.000009
C52	C	1.398314	0.379598	0.499991
C53	C	0.966647	-0.169017	-0.000009
C54	C	1.466647	0.330983	0.499991
C55	C	0.965385	-0.247961	-0.000016
C56	C	1.465385	0.252039	0.499984
C57	C	0.895789	-0.278287	-0.000018
C58	C	1.395789	0.221713	0.499982
C59	C	0.827451	-0.229665	-0.000021
C60	C	1.327451	0.270335	0.499979
C61	C	0.828714	-0.150723	-0.000019
C62	C	1.328714	0.349277	0.499981
C63	C	0.822356	-0.548028	-0.000027
C64	C	1.322356	-0.048028	0.499973
C65	C	0.821098	-0.626976	-0.000026
C66	C	1.321098	-0.126976	0.499974
C67	C	0.959026	-0.645266	-0.000024
C68	C	1.459026	-0.145266	0.499976
C69	C	0.960289	-0.566324	-0.000022
C70	C	1.460289	-0.066324	0.499978
C71	C	0.891952	-0.517709	-0.000029
C72	C	1.391952	-0.017709	0.499971
C73	C	0.893321	-0.432110	-0.000023
C74	C	1.393321	0.067890	0.499977
C75	C	0.894419	-0.363885	-0.000018
C76	C	1.394419	0.136115	0.499982
C77	C	1.032258	0.096233	-0.000020
C78	C	1.532258	0.596233	0.499980
C79	C	1.116275	0.097578	-0.000026
C80	C	1.616275	0.597578	0.499974
C81	C	0.888093	0.240388	-0.000026
C82	C	1.388093	0.740388	0.499974
C83	C	0.889431	0.324406	-0.000031
C84	C	1.389431	0.824406	0.499969
N85	N	0.893854	0.101991	0.206532
N86	N	1.393854	0.601991	0.706532
N87	N	0.893897	0.102008	-0.206566
N88	N	1.393897	0.602008	0.293434
C89	C	0.945418	0.050467	0.248252
C90	C	1.445418	0.550467	0.748252
C91	C	0.945422	0.050466	0.331704
C92	C	1.445422	0.550466	0.831704
C93	C	0.893866	0.101994	0.373435
C94	C	1.393866	0.601994	0.873435
C95	C	0.842296	0.153520	0.331709
C96	C	1.342296	0.653520	0.831709
C97	C	0.842289	0.153516	0.248259
C98	C	1.342289	0.653516	0.748259
C99	C	0.842324	0.153535	0.668257
C100	C	1.342324	0.653535	1.168257
C101	C	0.842336	0.153536	0.751713
C102	C	1.342336	0.653536	1.251713
C103	C	0.945457	0.050485	0.751702
C104	C	1.445457	0.550485	1.251702
C105	C	0.945450	0.050481	0.668251
C106	C	1.445450	0.550481	1.168251
C107	C	0.893878	0.102004	0.626533
C108	C	1.393878	0.602004	1.126533
C109	C	0.893873	0.102004	0.536045
C110	C	1.393873	0.602004	1.036045
C111	C	0.893874	0.101999	0.463922
C112	C	1.393874	0.601999	0.963922
H113	H	0.680728	-0.018817	-0.000006
H114	H	1.180728	0.481183	0.499994
Br115	Br	1.058126	-0.313937	-0.000015
Br116	Br	1.558126	0.186063	0.499985
Br117	Br	0.309811	-0.062246	-0.000024
Br118	Br	0.809811	0.437754	0.499976
Br119	Br	0.726640	-0.668132	-0.000028
Br120	Br	1.226640	-0.168132	0.499972
Br121	Br	0.729612	-0.482060	-0.000042
Br122	Br	1.229612	0.017940	0.499958
H123	H	1.016961	-0.541638	-0.000017
H124	H	1.516961	-0.041638	0.499983
H125	H	0.140200	-0.027432	-0.000030
H126	H	0.640200	0.472568	0.499970
Br127	Br	0.772337	0.223458	0.611643
Br128	Br	1.272337	0.723458	1.111643
Br129	Br	0.772319	0.223447	0.388341
Br130	Br	1.272319	0.723447	0.888341
H131	H	0.647550	0.231432	-0.000013
H132	H	1.147550	0.731432	0.499987
Br133	Br	0.477932	0.266247	-0.000019
Br134	Br	0.977932	0.766247	0.499981
Br135	Br	1.061104	-0.127869	0.000005
Br136	Br	1.561104	0.372131	0.500005
Br137	Br	0.772363	0.223471	0.808348
Br138	Br	1.272363	0.723471	1.308348
H139	H	1.014670	-0.684858	-0.000022
H140	H	1.514670	-0.184858	0.499978
H141	H	0.800300	0.195471	0.214291
H142	H	1.300300	0.695471	0.714291
H143	H	0.770785	-0.254362	-0.000027
H144	H	1.270785	0.245638	0.499973
H145	H	0.107020	0.222818	-0.000025
H146	H	0.607020	0.722818	0.499975
H147	H	0.773070	-0.111140	-0.000020
H148	H	1.273070	0.388860	0.499980
H149	H	0.250230	0.225100	-0.000038
H150	H	0.750230	0.725100	0.499962
Br151	Br	1.015425	-0.019446	0.611619
Br152	Br	1.515425	0.480554	1.111619
Br153	Br	1.015398	-0.019462	0.191626
Br154	Br	1.515398	0.480538	0.691626
Br155	Br	0.521054	-0.058885	-0.000045
Br156	Br	1.021054	0.441115	0.499955
Br157	Br	1.015448	-0.019443	0.808323
Br158	Br	1.515448	0.480557	1.308323
H159	H	0.987409	0.008511	0.365672
H160	H	1.487409	0.508511	0.865672
