data_functionalizedCrystal
_audit_creation_method	'MofGen! by Chris Wilmer'
_symmetry_space_group_name_H-M	'P1'
_symmetry_Int_Tables_number	1
_symmetry_cell_setting	triclinic
loop_
_symmetry_equiv_pos_as_xyz
  x,y,z
_cell_length_a	20.875641
_cell_length_b	14.560438
_cell_length_c	20.875621
_cell_angle_alpha	87.029238
_cell_angle_beta	60.669978
_cell_angle_gamma	57.591248
loop_
_atom_site_label
_atom_site_type_symbol
_atom_site_fract_x
_atom_site_fract_y
_atom_site_fract_z
Zr1	Zr	0.702110	-0.205250	0.643705
O2	O	0.835926	-0.351678	0.546194
O3	O	0.568291	-0.155234	0.670192
O4	O	0.702108	-0.354229	0.675102
O5	O	0.702112	-0.001544	0.541284
O6	O	0.702108	-0.362075	0.780662
O7	O	0.702110	-0.152682	0.541283
O8	O	0.462735	-0.006109	0.771877
O9	O	0.941485	-0.357511	0.550068
O10	O	0.623334	-0.145953	0.764380
O11	O	0.623335	-0.027305	0.685603
O12	O	0.780886	-0.261597	0.691385
O13	O	0.780887	-0.142949	0.612608
Zr14	Zr	0.702113	0.023285	0.812061
Zr15	Zr	0.702110	-0.217763	0.812060
Zr16	Zr	0.702112	0.035798	0.643706
Zr17	Zr	0.870463	-0.214553	0.649884
Zr18	Zr	0.533759	0.032588	0.805882
O19	O	0.835931	-0.026731	0.785575
O20	O	0.835927	-0.369470	0.785573
O21	O	0.835930	-0.008939	0.546195
O22	O	0.568296	0.169713	0.909572
O23	O	0.568292	-0.173026	0.909571
O24	O	0.568295	0.187505	0.670193
O25	O	0.702111	-0.180421	0.914482
O26	O	0.702115	0.172265	0.780664
O27	O	0.702114	0.180110	0.675105
O28	O	0.702113	-0.029283	0.914483
O29	O	0.941485	-0.367457	0.683888
O30	O	0.462737	0.185492	0.771878
O31	O	0.462738	0.175546	0.905698
O32	O	0.462735	-0.016055	0.905697
O33	O	0.941487	-0.165910	0.550069
O34	O	0.941487	-0.175856	0.683889
O35	O	0.623336	0.079632	0.764381
O36	O	0.623335	-0.039016	0.843159
O37	O	0.780888	-0.154659	0.770163
O38	O	0.780889	-0.036012	0.691386
C39	C	0.491526	-0.079346	0.720154
C40	C	0.420056	-0.075397	0.717531
C41	C	0.702111	-0.075330	0.517297
C42	C	0.702110	-0.070018	0.445826
C43	C	0.702115	0.210532	0.727884
C44	C	0.702116	0.312863	0.727885
C45	C	0.386478	-0.135474	0.757418
C46	C	0.319319	-0.131753	0.754955
C47	C	0.285744	-0.067959	0.712601
C48	C	0.319324	-0.007875	0.672713
C49	C	0.386477	-0.011590	0.675181
C50	C	0.084900	-0.050199	0.700815
C51	C	0.017744	-0.046491	0.698349
C52	C	0.017743	-0.170367	0.780592
C53	C	0.084901	-0.174083	0.783052
C54	C	0.118472	-0.113994	0.743168
N55	N	0.217099	-0.064157	0.710080
N56	N	0.187112	-0.117790	0.745693
C57	C	0.912696	-0.102619	0.735612
C58	C	0.984167	-0.106568	0.738235
C59	C	0.702108	-0.392497	0.727882
C60	C	0.702106	-0.494828	0.727881
C61	C	0.784355	0.300576	0.689783
C62	C	0.784351	0.396732	0.689779
C63	C	0.619861	0.517457	0.765984
C64	C	0.619866	0.421303	0.765984
C65	C	0.702112	-0.150788	0.412248
C66	C	0.702107	-0.145791	0.345095
C67	C	0.702107	-0.060028	0.311519
C68	C	0.702103	0.020750	0.345103
C69	C	0.702101	0.015757	0.412257
C70	C	0.702106	-0.036162	0.110679
C71	C	0.702111	-0.031177	0.043518
C72	C	0.702113	-0.197717	0.043516
C73	C	0.702117	-0.202707	0.110670
C74	C	0.702108	-0.121925	0.144250
N75	N	0.702105	-0.054920	0.242877
N76	N	0.702103	-0.127029	0.212893
C77	C	0.702112	-0.106635	0.938469
C78	C	0.702112	-0.111947	1.009941
C79	C	0.491527	-0.094998	0.930741
C80	C	0.420057	-0.096361	0.999589
C81	C	0.491530	0.222168	0.720155
C82	C	0.420061	0.328448	0.717533
C83	C	0.491531	0.206516	0.930742
C84	C	0.420061	0.307484	0.999590
C85	C	0.912692	-0.388481	0.525024
C86	C	0.984161	-0.489449	0.456176
C87	C	0.912695	-0.086967	0.525026
C88	C	0.984166	-0.085604	0.456178
C89	C	0.912692	-0.404133	0.735611
C90	C	0.984162	-0.510413	0.738233
C91	C	0.386493	-0.152831	0.990799
C92	C	0.319348	-0.154135	1.055483
C93	C	0.285764	-0.098960	1.128955
C94	C	0.319335	-0.042488	1.137744
C95	C	0.386483	-0.041192	1.073061
C96	C	0.386499	0.434189	0.757422
C97	C	0.319355	0.534060	0.754956
C98	C	0.285770	0.528187	0.712603
C99	C	0.319338	0.422435	0.672708
C100	C	0.386485	0.322567	0.675171
C101	C	0.386498	0.292966	1.073050
C102	C	0.319355	0.387827	1.137747
C103	C	0.285771	0.497204	1.128983
C104	C	0.319341	0.511720	1.055515
C105	C	0.386488	0.416860	0.990820
C106	C	1.017732	-0.474932	0.382716
C107	C	1.084897	-0.569793	0.318020
C108	C	1.118484	-0.679170	0.326785
C109	C	1.084910	-0.693686	0.400252
C110	C	1.017751	-0.598826	0.464947
C111	C	1.017737	-0.029144	0.464968
C112	C	1.084900	-0.027868	0.400284
C113	C	1.118486	-0.083046	0.326812
C114	C	1.084913	-0.139514	0.318023
C115	C	1.017755	-0.140795	0.382706
C116	C	1.017726	-0.504504	0.780593
C117	C	1.084870	-0.604357	0.783073
C118	C	1.118453	-0.710118	0.743187
C119	C	1.084883	-0.716025	0.700826
C120	C	1.017736	-0.616173	0.698351
H121	H	0.413815	-0.187427	0.791903
H122	H	0.112237	-0.226029	0.817540
C123	C	1.121855	-0.200187	0.237196
N124	N	1.149675	-0.245874	0.176314
H125	H	0.413836	0.438993	0.791911
H126	H	0.231096	0.574435	1.181668
H127	H	1.112237	-0.802149	0.668352
H128	H	1.112265	-0.782752	0.407380
C129	C	1.121812	0.034263	0.409969
N130	N	1.149610	0.081063	0.417265
H131	H	0.702111	0.038666	0.016183
C132	C	0.702084	-0.234627	0.308174
N133	N	0.702057	-0.301535	0.280370
H134	H	0.231095	0.609515	0.710604
C135	C	0.423427	-0.213540	0.909985
N136	N	0.451247	-0.259276	0.849117
H137	H	0.702117	-0.272542	0.138006
C138	C	0.423398	0.432849	0.910015
N139	N	0.451197	0.444901	0.849153
C140	C	1.192320	-0.819949	0.745916
N141	N	1.247957	-0.902670	0.747972
H142	H	0.292031	0.620157	0.787446
C143	C	0.980819	-0.614814	0.545751
N144	N	0.953004	-0.626864	0.606612
C145	C	0.702111	-0.245135	0.449176
N146	N	0.702106	-0.316196	0.476991
C147	C	0.282382	0.632045	1.045886
N148	N	0.254536	0.722678	1.038636
C149	C	0.980824	-0.202894	0.373024
N150	N	0.953009	-0.249668	0.365725
C151	C	0.702064	0.115119	0.308184
N152	N	0.702026	0.186207	0.280382
C153	C	0.702112	-0.286563	0.006578
N154	N	0.702106	-0.353481	-0.021242
H155	H	0.291981	0.002433	1.197574
C156	C	-0.019156	0.023646	0.651724
N157	N	-0.046937	0.076451	0.616595
H158	H	0.990396	0.015797	0.524787
H159	H	0.851319	0.386718	0.658751
H160	H	0.291980	-0.180672	0.787434
H161	H	0.552896	0.605758	0.797004
H162	H	0.990392	-0.418397	0.813073
H163	H	1.173170	-0.081994	0.274149
C164	C	0.282432	0.371834	1.218554
N165	N	0.254621	0.359786	1.279416
C166	C	1.121814	-0.553800	0.237213
N167	N	1.149619	-0.541752	0.176351
C168	C	0.702100	0.104610	0.449192
N169	N	0.702097	0.171539	0.477012
C170	C	0.423387	0.020946	1.082742
N171	N	0.451179	0.067754	1.090040
H172	H	1.112196	-0.599526	0.817567
H173	H	0.112222	-0.001266	0.668342
C174	C	-0.019198	-0.236452	0.824468
N175	N	-0.047025	-0.286224	0.857521
C176	C	0.282389	0.062299	0.626123
N177	N	0.254573	0.115150	0.591027
C178	C	0.282380	0.415994	0.626127
N179	N	0.254536	0.411147	0.591046
H180	H	0.990389	-0.385879	0.375565
C181	C	0.423412	0.054499	0.631302
N182	N	0.451229	0.104283	0.598253
H183	H	0.292023	-0.200120	1.048312
H184	H	1.173168	-0.756402	0.274100
H185	H	0.990415	-0.621000	0.663854
H186	H	0.851329	0.212284	0.658759
H187	H	0.702101	0.029612	0.138013
H188	H	0.231087	-0.100023	1.181618
H189	H	0.413803	0.236472	0.642690
H190	H	0.552893	0.431315	0.797010
H191	H	0.413832	0.203914	1.080201
