data_functionalizedCrystal
_audit_creation_method	'MofGen! by Chris Wilmer'
_symmetry_space_group_name_H-M	'P1'
_symmetry_Int_Tables_number	1
_symmetry_cell_setting	triclinic
loop_
_symmetry_equiv_pos_as_xyz
  x,y,z
_cell_length_a	6.817900
_cell_length_b	9.514072
_cell_length_c	10.943624
_cell_angle_alpha	88.513180
_cell_angle_beta	108.838799
_cell_angle_gamma	118.843421
loop_
_atom_site_label
_atom_site_type_symbol
_atom_site_fract_x
_atom_site_fract_y
_atom_site_fract_z
V1	V	-4.173025	-0.222162	-0.403562
O2	O	-4.070428	0.010719	-0.394839
O3	O	-4.207528	-0.440552	-0.401803
O4	O	-4.150098	-0.218726	-0.579113
O5	O	-4.128256	-0.212643	-0.216302
V6	V	-4.642610	-0.194309	-0.381043
O7	O	-4.464858	-0.283260	-0.452961
O8	O	-4.800974	-0.133211	-0.331645
O9	O	-4.384900	0.024081	-0.382802
O10	O	-4.862603	-0.427190	-0.389766
O11	O	-4.804775	-0.203829	-0.568303
O12	O	-4.442331	-0.197745	-0.205492
C13	C	-4.071873	-0.493791	-0.395695
C14	C	-4.181540	-0.672327	-0.395427
C15	C	-3.998612	-0.210828	-0.621870
C16	C	-4.061699	-0.209463	-0.765390
C17	C	-3.904149	-0.200275	-0.842496
C18	C	-4.128826	-0.336665	-0.949107
C19	C	-3.949461	-0.070657	-0.914509
C20	C	-4.285620	-0.345982	-0.870125
C21	C	-4.106143	-0.079853	-0.835503
C22	C	-4.330967	-0.216283	-0.942085
C23	C	-4.183900	0.077311	-0.388907
C24	C	-4.053473	0.255846	-0.389183
C25	C	-4.257159	-0.205648	-0.162729
C26	C	-4.173308	-0.207005	-0.019207
H27	H	-4.375122	-0.747436	-0.400613
O28	O	-4.141271	-0.466135	-1.008322
C29	C	-4.216941	-0.610531	-1.210959
C30	C	-4.203013	-0.463871	-1.144078
H31	H	-4.266809	-0.608730	-1.320724
H32	H	-4.358595	-0.727810	-1.191886
H33	H	-4.035539	-0.603564	-1.169752
H34	H	-4.384303	-0.470681	-1.185243
H35	H	-4.061240	-0.346653	-1.163143
H36	H	-3.807988	0.045674	-0.934742
H37	H	-4.427167	-0.462469	-0.850111
O38	O	-3.688499	-0.192634	-0.790487
C39	C	-3.472391	-0.322242	-0.672139
C40	C	-3.716736	-0.331068	-0.730953
H41	H	-3.495146	-0.434167	-0.624016
H42	H	-3.342152	-0.208265	-0.595920
H43	H	-3.399000	-0.317801	-0.753035
H44	H	-3.790341	-0.335572	-0.650148
H45	H	-3.846815	-0.445029	-0.807204
O46	O	-4.546776	-0.224095	-0.993742
C47	C	-4.763063	-0.093626	-1.110002
C48	C	-4.518502	-0.084545	-1.051528
H49	H	-4.740295	0.019169	-1.156760
H50	H	-4.837715	-0.100251	-1.029291
H51	H	-4.892277	-0.206599	-1.187330
H52	H	-4.389111	0.028418	-0.974215
H53	H	-4.444047	-0.078009	-1.132312
O54	O	-4.093427	0.049850	-0.776493
C55	C	-3.901169	0.341539	-0.731477
C56	C	-3.915315	0.194780	-0.798347
H57	H	-3.757211	0.458751	-0.749146
H58	H	-3.854410	0.338643	-0.621924
H59	H	-4.081567	0.335858	-0.773936
H60	H	-3.734981	0.200365	-0.755995
H61	H	-3.962200	0.197728	-0.907897
H62	H	-3.859895	-0.669050	-0.383978
