data_functionalizedCrystal
_audit_creation_method	'MofGen! by Chris Wilmer'
_symmetry_space_group_name_H-M	'P1'
_symmetry_Int_Tables_number	1
_symmetry_cell_setting	triclinic
loop_
_symmetry_equiv_pos_as_xyz
  x,y,z
_cell_length_a	14.519709
_cell_length_b	13.596369
_cell_length_c	10.654551
_cell_angle_alpha	89.998604
_cell_angle_beta	84.082787
_cell_angle_gamma	90.000316
loop_
_atom_site_label
_atom_site_type_symbol
_atom_site_fract_x
_atom_site_fract_y
_atom_site_fract_z
O1	O	1.224724	0.081659	0.164615
O2	O	0.956348	0.081689	0.184001
O3	O	1.096706	0.081671	-0.008491
O4	O	1.084366	0.081677	0.357106
O5	O	1.096689	-0.081912	-0.008480
O6	O	0.956330	-0.081894	0.184012
O7	O	1.224707	-0.081924	0.164625
Zn8	Zn	1.090516	-0.107881	0.174320
Zn9	Zn	1.090539	0.107646	0.174306
O10	O	1.084349	-0.081906	0.357117
C11	C	0.921975	-0.000099	0.183103
C12	C	0.819579	-0.000087	0.180396
N13	N	1.090507	-0.254973	0.174329
C14	C	1.095791	-0.000119	-0.055274
C15	C	1.093079	-0.000114	-0.194692
C16	C	0.444632	-0.000132	0.170428
C17	C	0.548954	-0.000119	0.173196
C18	C	0.632102	-0.000109	0.175412
C19	C	0.736431	-0.000098	0.178180
C20	C	1.259080	-0.000134	0.165523
C21	C	1.361475	-0.000139	0.168231
C22	C	1.090512	-0.343971	0.174332
C23	C	1.090521	-0.455622	0.174323
C24	C	1.090533	-0.544613	0.174309
C25	C	1.090543	-0.656271	0.174302
N26	N	1.090555	0.254738	0.174287
C27	C	1.091816	0.089057	-0.260189
C28	C	1.089261	0.089058	-0.391185
C29	C	1.089236	-0.089289	-0.391175
C30	C	1.091784	-0.089290	-0.260180
C31	C	1.031855	0.196195	-0.560712
C32	C	1.030608	0.285370	-0.626217
C33	C	1.085391	0.364093	-0.593208
C34	C	1.141444	0.353645	-0.494701
C35	C	1.142699	0.264468	-0.429204
C36	C	1.087895	0.185749	-0.462207
C37	C	1.149198	-0.196421	-0.090652
C38	C	1.150460	-0.285598	-0.025155
C39	C	1.095683	-0.364330	-0.058162
C40	C	1.039643	-0.353891	-0.156675
C41	C	1.038381	-0.264714	-0.222173
C42	C	1.093157	-0.185982	-0.189157
C43	C	1.085264	-0.000114	0.403901
C44	C	1.087975	-0.000112	0.543318
H45	H	1.092868	0.161669	-0.206871
H46	H	1.186060	0.417749	-0.467844
H47	H	1.188338	0.255961	-0.349003
H48	H	1.084374	0.436701	-0.646551
H49	H	0.984963	0.293871	-0.706420
H50	H	1.196097	-0.294094	0.055057
H51	H	0.992746	-0.256218	-0.302386
H52	H	0.987233	0.132103	-0.587586
H53	H	1.193797	-0.132310	-0.063757
H54	H	1.088183	-0.161893	-0.444512
H55	H	0.995019	-0.417991	-0.183527
H56	H	1.096723	-0.436945	-0.004830
