data_functionalizedCrystal
_audit_creation_method	'MofGen! by Chris Wilmer'
_symmetry_space_group_name_H-M	'P1'
_symmetry_Int_Tables_number	1
_symmetry_cell_setting	triclinic
loop_
_symmetry_equiv_pos_as_xyz
  x,y,z
_cell_length_a	6.817900
_cell_length_b	16.418049
_cell_length_c	17.982968
_cell_angle_alpha	95.670566
_cell_angle_beta	102.451960
_cell_angle_gamma	103.389670
loop_
_atom_site_label
_atom_site_type_symbol
_atom_site_fract_x
_atom_site_fract_y
_atom_site_fract_z
V1	V	-4.014612	-0.116671	-0.237819
O2	O	-4.002841	0.004799	-0.233015
O3	O	-3.965746	-0.230563	-0.236458
O4	O	-3.961125	-0.115231	-0.341418
O5	O	-4.007494	-0.111332	-0.127328
V6	V	-4.498960	-0.102100	-0.224571
O7	O	-4.274062	-0.148635	-0.266879
O8	O	-4.689707	-0.070137	-0.195511
O9	O	-4.324619	0.011792	-0.225932
O10	O	-4.628127	-0.223571	-0.229374
O11	O	-4.623474	-0.107440	-0.335061
O12	O	-4.329240	-0.103541	-0.120971
C13	C	-3.810798	-0.258317	-0.232774
C14	C	-3.852097	-0.351427	-0.232352
C15	C	-4.128990	-0.569926	-0.235206
C16	C	-4.167783	-0.657414	-0.234816
C17	C	-3.803940	-0.648845	-0.227188
C18	C	-3.765153	-0.561359	-0.227584
C19	C	-3.927682	-0.521902	-0.231589
C20	C	-4.005263	-0.696875	-0.230803
C21	C	-4.047323	-0.791734	-0.230380
C22	C	-3.885621	-0.427038	-0.232013
C23	C	-3.804903	-0.111198	-0.366661
C24	C	-3.842452	-0.110774	-0.451356
C25	C	-4.041996	-0.114772	-0.495037
C26	C	-4.077265	-0.114373	-0.574617
C27	C	-3.912991	-0.109982	-0.610515
C28	C	-3.713429	-0.105981	-0.566828
C29	C	-3.678160	-0.106374	-0.487249
C30	C	-3.855663	-0.104395	-0.887761
C31	C	-3.890951	-0.104005	-0.967347
C32	C	-4.254768	-0.112394	-0.975129
C33	C	-4.219499	-0.112787	-0.895550
C34	C	-4.019939	-0.108781	-0.851869
C35	C	-3.981698	-0.109212	-0.765580
C36	C	-3.951233	-0.109557	-0.696804
C37	C	-4.142909	0.039541	-0.229613
C38	C	-4.080848	0.132650	-0.230040
C39	C	-4.148805	-0.107577	-0.095724
C40	C	-4.090494	-0.107997	-0.011028
H41	H	-4.175774	-0.118353	-0.465816
H42	H	-4.417261	-0.115651	-1.010704
H43	H	-4.261334	-0.537802	-0.238467
C44	C	-4.389232	-0.710237	-0.238793
N45	N	-4.556037	-0.750023	-0.241788
H46	H	-4.353273	-0.116366	-0.866327
C47	C	-3.543688	-0.508529	-0.223602
N48	N	-3.376887	-0.468737	-0.220604
C49	C	-4.296771	-0.118761	-0.622661
N50	N	-4.462110	-0.122062	-0.658847
C51	C	-3.710221	-0.099166	-1.006831
N52	N	-3.574102	-0.095521	-1.036571
C53	C	-3.636157	-0.100008	-0.839725
N54	N	-3.470816	-0.096709	-0.803543
C55	C	-3.458649	-0.101979	-0.439200
N56	N	-3.293307	-0.098667	-0.403011
H57	H	-3.671619	-0.680982	-0.223925
H58	H	-3.579675	-0.102401	-0.596062
