data_functionalizedCrystal
_audit_creation_method	'MofGen! by Chris Wilmer'
_symmetry_space_group_name_H-M	'P1'
_symmetry_Int_Tables_number	1
_symmetry_cell_setting	triclinic
loop_
_symmetry_equiv_pos_as_xyz
  x,y,z
_cell_length_a	16.625547
_cell_length_b	16.625546
_cell_length_c	12.759393
_cell_angle_alpha	90.035119
_cell_angle_beta	90.026979
_cell_angle_gamma	90.022405
loop_
_atom_site_label
_atom_site_type_symbol
_atom_site_fract_x
_atom_site_fract_y
_atom_site_fract_z
Zn1	Zn	1.232698	-0.320964	0.594156
Zn2	Zn	1.232596	-0.455818	0.418462
Zn3	Zn	1.097854	-0.321003	0.418472
Zn4	Zn	1.097830	-0.455758	0.594080
O5	O	1.165244	-0.388386	0.506292
O6	O	1.345517	-0.338861	0.570877
O7	O	1.214690	-0.437976	0.271442
O8	O	1.115795	-0.208165	0.441813
O9	O	1.345442	-0.437938	0.441795
O10	O	1.214863	-0.208137	0.570887
O11	O	1.115696	-0.338928	0.271450
O12	O	0.985019	-0.338870	0.441740
O13	O	1.115753	-0.437836	0.741111
O14	O	0.985001	-0.437874	0.570758
O15	O	1.214840	-0.338803	0.741167
O16	O	1.214666	-0.568643	0.441722
O17	O	1.115654	-0.568598	0.570748
C18	C	0.955754	-0.388370	0.506243
C19	C	0.866132	-0.388383	0.506247
C20	C	1.165168	-0.597877	0.506248
C21	C	1.165209	-0.687498	0.506265
C22	C	0.793350	-0.388384	0.506260
C23	C	0.702042	-0.388389	0.506286
C24	C	0.629265	-0.388396	0.506313
C25	C	0.537951	-0.388402	0.506338
C26	C	1.165350	-1.015673	0.506374
C27	C	1.165308	-0.924365	0.506347
C28	C	1.165279	-0.851588	0.506319
C29	C	1.165239	-0.760274	0.506293
C30	C	1.375553	-0.388402	0.506343
C31	C	1.465174	-0.388409	0.506364
C32	C	1.165305	-0.388308	0.780326
C33	C	1.165331	-0.388275	0.897103
C34	C	1.165343	-0.178077	0.506360
C35	C	1.165385	-0.088456	0.506388
C36	C	1.165231	-0.388405	0.233325
C37	C	1.165361	-0.388211	0.116549
C38	C	1.216929	-0.336701	0.951995
C39	C	1.216942	-0.336666	1.061719
C40	C	1.113757	-0.439787	1.061649
C41	C	1.113740	-0.439817	0.951927
C42	C	1.245821	-0.241536	1.211711
C43	C	1.297432	-0.189968	1.266608
C44	C	1.376108	-0.177606	1.231028
C45	C	1.403189	-0.216823	1.140555
C46	C	1.351582	-0.268397	1.085664
C47	C	1.272895	-0.280743	1.121242
C48	C	1.084870	-0.534949	0.801933
C49	C	1.033267	-0.586527	0.747040
C50	C	0.954589	-0.598898	0.782617
C51	C	0.927511	-0.559694	0.873094
C52	C	0.979115	-0.508116	0.927987
C53	C	1.057791	-0.495745	0.892402
H54	H	1.373632	-0.300330	1.012005
N55	N	0.901870	-0.651590	0.726565
N56	N	0.872943	-0.711966	0.771107
H57	H	0.835709	-0.749178	0.731525
N58	N	0.951451	-0.468066	1.020403
N59	N	0.892569	-0.421486	1.015595
H60	H	0.873035	-0.393200	1.080865
N61	N	1.165241	-0.522296	0.765602
N62	N	1.188117	-0.453158	0.741277
H63	H	1.244880	-0.444222	0.715621
N64	N	1.269708	-0.149905	1.358984
N65	N	1.210818	-0.103340	1.354078
H66	H	1.191223	-0.075046	1.419311
N67	N	1.428813	-0.124920	1.287106
N68	N	1.410523	-0.052556	1.298849
H69	H	1.447741	-0.015343	1.338456
N70	N	1.165450	-0.254141	1.248059
N71	N	1.141289	-0.219125	1.328839
H72	H	1.084526	-0.228027	1.354515
H73	H	1.258935	-0.294730	0.907361
H74	H	0.863447	-0.569770	0.902065
N75	N	1.483554	-0.204202	1.104196
N76	N	1.507719	-0.239216	1.023417
H77	H	1.564478	-0.230300	0.997733
N78	N	1.061066	-0.492428	1.117669
N79	N	1.061088	-0.492395	1.215634
H80	H	1.023874	-0.529574	1.255198
N81	N	1.060939	-0.626571	0.654624
N82	N	1.131187	-0.615515	0.622858
H83	H	1.150730	-0.643794	0.557588
