data_functionalizedCrystal
_audit_creation_method	'MofGen! by Chris Wilmer'
_symmetry_space_group_name_H-M	'P1'
_symmetry_Int_Tables_number	1
_symmetry_cell_setting	triclinic
loop_
_symmetry_equiv_pos_as_xyz
  x,y,z
_cell_length_a	12.827893
_cell_length_b	18.050589
_cell_length_c	12.827885
_cell_angle_alpha	89.970449
_cell_angle_beta	89.980728
_cell_angle_gamma	90.028191
loop_
_atom_site_label
_atom_site_type_symbol
_atom_site_fract_x
_atom_site_fract_y
_atom_site_fract_z
Zn1	Zn	1.597576	-0.295624	-0.590850
Zn2	Zn	2.097576	0.204376	-0.090850
Zn3	Zn	1.597431	-0.419832	-0.416111
Zn4	Zn	2.097431	0.080168	0.083889
Zn5	Zn	1.422818	-0.295660	-0.416124
Zn6	Zn	1.922818	0.204340	0.083876
Zn7	Zn	1.422764	-0.419777	-0.590811
Zn8	Zn	1.922764	0.080223	-0.090811
O9	O	1.510147	-0.357723	-0.503474
O10	O	2.010147	0.142277	-0.003474
O11	O	1.743793	-0.312109	-0.567682
O12	O	2.243793	0.187891	-0.067682
O13	O	1.574230	-0.403399	-0.269877
O14	O	2.074230	0.096601	0.230123
O15	O	1.446083	-0.191731	-0.439323
O16	O	1.946083	0.308269	0.060677
O17	O	1.743687	-0.403364	-0.439302
O18	O	2.243687	0.096636	0.060698
O19	O	1.574478	-0.191704	-0.567694
O20	O	2.074478	0.308296	-0.067694
O21	O	1.445943	-0.312170	-0.269886
O22	O	1.945943	0.187830	0.230114
O23	O	1.276575	-0.312117	-0.439286
O24	O	1.776575	0.187883	0.060714
O25	O	1.445991	-0.403269	-0.737053
O26	O	1.945991	0.096731	-0.237053
O27	O	1.276535	-0.403304	-0.567628
O28	O	1.776535	0.096696	-0.067628
O29	O	1.574425	-0.312055	-0.737081
O30	O	2.074425	0.187945	-0.237081
O31	O	1.574178	-0.523749	-0.439264
O32	O	2.074178	-0.023749	0.060736
O33	O	1.445851	-0.523709	-0.567615
O34	O	1.945851	-0.023709	-0.067615
C35	C	1.238638	-0.357709	-0.503454
C36	C	1.738638	0.142291	-0.003454
C37	C	1.122484	-0.357721	-0.503471
C38	C	1.622484	0.142279	-0.003471
C39	C	1.510021	-0.550675	-0.503457
C40	C	2.010021	-0.050675	-0.003457
C41	C	1.510063	-0.633221	-0.503484
C42	C	2.010063	-0.133221	-0.003484
C43	C	1.070708	-0.402914	-0.566880
C44	C	1.570708	0.097086	-0.066880
C45	C	0.950657	-0.402927	-0.566899
C46	C	1.450657	0.097073	-0.066899
C47	C	1.440347	-0.832677	-0.573257
C48	C	1.940347	-0.332677	-0.073257
C49	C	1.414870	-0.882124	-0.477900
C50	C	1.914870	-0.382124	0.022100
C51	C	1.510166	-0.784351	-0.503498
C52	C	2.010166	-0.284351	-0.003498
C53	C	1.535694	-0.881986	-0.598866
C54	C	2.035694	-0.381986	-0.098866
C55	C	1.510263	-0.930337	-0.503520
C56	C	2.010263	-0.430337	-0.003520
C57	C	1.484639	-0.832712	-0.408091
C58	C	1.984639	-0.332712	0.091909
C59	C	1.605506	-0.832569	-0.529120
C60	C	2.105506	-0.332569	-0.029120
C61	C	1.580066	-0.881994	-0.433698
C62	C	2.080066	-0.381994	0.066302
C63	C	1.510107	-0.700253	-0.503487
C64	C	2.010107	-0.200253	-0.003487
C65	C	1.510322	-1.014433	-0.503520
C66	C	2.010322	-0.514433	-0.003520
C67	C	1.782718	-0.357738	-0.503495
C68	C	2.282718	0.142262	-0.003495
C69	C	1.898871	-0.357745	-0.503504
C70	C	2.398871	0.142255	-0.003504
C71	C	1.510219	-0.357652	-0.776045
C72	C	2.010219	0.142348	-0.276045
C73	C	1.510249	-0.357622	-0.892198
C74	C	2.010249	0.142378	-0.392198
C75	C	1.510303	-0.164018	-0.503515
C76	C	2.010303	0.335982	-0.003515
C77	C	1.510369	-0.081472	-0.503532
C78	C	2.010369	0.418528	-0.003532
C79	C	1.573809	-0.312477	-0.943997
C80	C	2.073809	0.187523	-0.443997
C81	C	1.573842	-0.312444	-1.064047
C82	C	2.073842	0.187556	-0.564047
C83	C	1.510137	-0.357741	-0.231964
C84	C	2.010137	0.142259	0.268036
C85	C	1.510309	-0.357562	-0.115812
C86	C	2.010309	0.142438	0.384188
H87	H	1.115256	-0.441593	-0.621158
H88	H	1.615256	0.058407	-0.121158
H89	H	1.455894	-0.396217	-1.071273
H90	H	1.955894	0.103783	-0.571273
C91	C	0.916815	-0.528705	-0.617482
C92	C	1.416815	-0.028705	-0.117482
C93	C	0.890558	-0.455162	-0.640192
C94	C	1.390558	0.044838	-0.140192
H95	H	0.879705	-0.560951	-0.662730
H96	H	1.379705	-0.060951	-0.162730
H97	H	0.989597	-0.535543	-0.627088
H98	H	1.489597	-0.035543	-0.127088
H99	H	0.898933	-0.539498	-0.547228
H100	H	1.398933	-0.039498	-0.047228
H101	H	0.908447	-0.444367	-0.710444
H102	H	1.408447	0.055633	-0.210444
H103	H	0.817759	-0.448320	-0.630594
H104	H	1.317759	0.051680	-0.130594
C105	C	1.632896	-0.886045	-0.254242
C106	C	2.132896	-0.386045	0.245758
C107	C	1.659826	-0.911053	-0.353985
C108	C	2.159826	-0.411053	0.146015
H109	H	1.682131	-0.903990	-0.205031
H110	H	2.182131	-0.403990	0.294969
H111	H	1.632892	-0.833429	-0.253409
H112	H	2.132892	-0.333429	0.246591
H113	H	1.565406	-0.903767	-0.236636
H114	H	2.065406	-0.403767	0.263364
H115	H	1.727314	-0.893326	-0.371594
H116	H	2.227314	-0.393326	0.128406
H117	H	1.659841	-0.963680	-0.354821
H118	H	2.159841	-0.463680	0.145179
C119	C	1.740789	-0.827982	-0.658350
C120	C	2.240789	-0.327982	-0.158350
C121	C	1.714260	-0.803155	-0.558410
C122	C	2.214260	-0.303155	-0.058410
H123	H	1.807926	-0.809817	-0.676441
H124	H	2.307926	-0.309817	-0.176441
H125	H	1.741463	-0.880595	-0.659195
H126	H	2.241463	-0.380595	-0.159195
H127	H	1.690976	-0.810358	-0.707196
H128	H	2.190976	-0.310358	-0.207196
H129	H	1.764069	-0.820784	-0.509563
H130	H	2.264069	-0.320784	-0.009563
H131	H	1.713594	-0.750531	-0.557558
H132	H	2.213594	-0.250531	-0.057558
C133	C	1.378037	-0.451516	-0.881450
C134	C	1.878037	0.048484	-0.381450
C135	C	1.436815	-0.409768	-0.952299
C136	C	1.936815	0.090232	-0.452299
H137	H	1.332696	-0.483706	-0.918554
H138	H	1.832696	0.016294	-0.418554
H139	H	1.423495	-0.479964	-0.838880
H140	H	1.923495	0.020036	-0.338880
H141	H	1.338043	-0.419188	-0.838877
H142	H	1.838043	0.080812	-0.338877
H143	H	1.476815	-0.442095	-0.994867
H144	H	1.976815	0.057905	-0.494867
H145	H	1.391351	-0.381318	-0.994887
H146	H	1.891351	0.118682	-0.494887
H147	H	1.077936	-0.319036	-0.449201
H148	H	1.577936	0.180964	0.050799
H149	H	1.557247	-0.903630	-0.679509
H150	H	2.057247	-0.403630	-0.179509
H151	H	0.943391	-0.319054	-0.449210
H152	H	1.443391	0.180946	0.050790
H153	H	1.381217	-0.811021	-0.632167
H154	H	1.881217	-0.311021	-0.132167
H155	H	1.334289	-0.903907	-0.456249
H156	H	1.834289	-0.403907	0.043751
H157	H	1.462993	-0.811157	-0.327426
H158	H	1.962993	-0.311157	0.172574
C159	C	1.706048	-0.218556	-1.053346
C160	C	2.206048	0.281444	-0.553346
C161	C	1.647309	-0.260266	-1.124172
C162	C	2.147309	0.239734	-0.624172
H163	H	1.751408	-0.186346	-1.090468
H164	H	2.251408	0.313654	-0.590468
H165	H	1.660566	-0.190131	-1.010781
H166	H	2.160566	0.309869	-0.510781
H167	H	1.746019	-0.250907	-1.010766
H168	H	2.246019	0.249093	-0.510766
H169	H	1.607332	-0.227915	-1.166747
H170	H	2.107332	0.272085	-0.666747
H171	H	1.692796	-0.288693	-1.166755
H172	H	2.192796	0.211307	-0.666755
H173	H	1.628197	-0.273848	-0.899467
H174	H	2.128197	0.226152	-0.399467
