data_functionalizedCrystal
_audit_creation_method	'MofGen! by Chris Wilmer'
_symmetry_space_group_name_H-M	'P1'
_symmetry_Int_Tables_number	1
_symmetry_cell_setting	triclinic
loop_
_symmetry_equiv_pos_as_xyz
  x,y,z
_cell_length_a	18.101395
_cell_length_b	10.686220
_cell_length_c	10.686551
_cell_angle_alpha	89.691918
_cell_angle_beta	85.593544
_cell_angle_gamma	85.587159
loop_
_atom_site_label
_atom_site_type_symbol
_atom_site_fract_x
_atom_site_fract_y
_atom_site_fract_z
Zn1	Zn	-0.180552	-1.972201	-0.562382
Zn2	Zn	-0.314596	-1.955907	-0.352620
Zn3	Zn	-0.199497	-1.746310	-0.368699
Zn4	Zn	-0.313095	-1.762338	-0.578398
O5	O	-0.251935	-1.859189	-0.465525
O6	O	-0.191033	-2.145585	-0.521125
O7	O	-0.307884	-1.914577	-0.179207
O8	O	-0.093345	-1.776386	-0.394418
O9	O	-0.289514	-2.133614	-0.367014
O10	O	-0.079426	-1.942347	-0.536716
O11	O	-0.223322	-1.760587	-0.191020
O12	O	-0.221866	-1.572891	-0.409948
O13	O	-0.286956	-1.803703	-0.751819
O14	O	-0.305327	-1.584666	-0.564013
O15	O	-0.189578	-1.957888	-0.740052
O16	O	-0.418036	-1.930118	-0.382544
O17	O	-0.416933	-1.787904	-0.548422
C18	C	-0.265490	-1.533261	-0.490464
C19	C	-0.271305	-1.393831	-0.501162
C20	C	-0.444354	-1.859018	-0.465501
C21	C	-0.526665	-1.859063	-0.465524
C22	C	-0.235986	-1.884401	-0.792725
C23	C	-0.229190	-1.895145	-0.932159
C24	C	-0.825742	-1.859343	-0.465570
C25	C	-0.793732	-1.770109	-0.570159
C26	C	-0.708148	-1.769626	-0.569891
C27	C	-0.677366	-1.859204	-0.465548
C28	C	-0.716429	-1.813255	-0.336079
C29	C	-0.802072	-1.812677	-0.336708
C30	C	-0.786916	-1.994649	-0.489270
C31	C	-0.701157	-1.994091	-0.492229
C32	C	-0.593511	-1.859127	-0.465527
C33	C	-0.909597	-1.859417	-0.465582
C34	C	-0.058762	-1.859396	-0.465574
C35	C	0.023558	-1.859485	-0.465595
C36	C	-0.238328	-2.186389	-0.440489
C37	C	-0.232529	-2.325822	-0.429821
C38	C	-0.267765	-1.834147	-0.139591
C39	C	-0.274343	-1.823646	-0.000140
H40	H	-0.681391	-1.799551	-0.666208
H41	H	-0.185333	-1.964588	-0.980633
H42	H	-0.700458	-1.715034	-0.314229
C43	C	-0.321577	-1.329471	-0.593558
C44	C	-0.356193	-1.420151	-0.657209
C45	C	-0.402513	-1.360910	-0.742321
H46	H	-0.292812	-1.282606	-0.652282
H47	H	-0.358293	-1.274650	-0.549383
H48	H	-0.319483	-1.474950	-0.701382
H49	H	-0.384972	-1.467021	-0.598518
H50	H	-0.439229	-1.306089	-0.698146
H51	H	-0.373743	-1.314046	-0.801036
H52	H	-0.426012	-1.422425	-0.785510
H53	H	-0.802503	-2.034561	-0.581535
C54	C	-0.687974	-1.636102	-0.549935
C55	C	-0.752886	-1.555547	-0.538075
C56	C	-0.734333	-1.432534	-0.519665
H57	H	-0.656830	-1.610983	-0.619701
H58	H	-0.662510	-1.632418	-0.475704
H59	H	-0.778339	-1.559226	-0.612298
H60	H	-0.784039	-1.580626	-0.468308
H61	H	-0.708868	-1.428850	-0.445434
H62	H	-0.703187	-1.407427	-0.589435
H63	H	-0.778372	-1.377864	-0.511605
C64	C	-0.814522	-2.083657	-0.387733
C65	C	-0.848139	-2.181058	-0.442896
C66	C	-0.873573	-2.263074	-0.349401
H67	H	-0.849710	-2.039226	-0.330472
H68	H	-0.773775	-2.117672	-0.344165
H69	H	-0.888880	-2.147045	-0.486444
H70	H	-0.812964	-2.225520	-0.500148
H71	H	-0.832827	-2.297089	-0.305833
H72	H	-0.908759	-2.218633	-0.292146
H73	H	-0.896379	-2.329176	-0.386817
H74	H	-0.808581	-1.799836	-0.666812
H75	H	-0.820464	-1.670643	-0.555499
C76	C	-0.666362	-2.039969	-0.619338
C77	C	-0.722558	-2.063919	-0.696961
C78	C	-0.690538	-2.106137	-0.814082
H79	H	-0.635656	-2.114857	-0.608787
H80	H	-0.637236	-1.977454	-0.656695
H81	H	-0.751672	-2.126429	-0.659613
H82	H	-0.753268	-1.989049	-0.707548
H83	H	-0.661412	-2.043623	-0.851439
H84	H	-0.659833	-2.181022	-0.803518
H85	H	-0.728661	-2.122382	-0.866767
H86	H	-0.823621	-1.874301	-0.256670
C87	C	-0.836189	-1.680486	-0.308337
C88	C	-0.913606	-1.678564	-0.308580
C89	C	-0.945055	-1.556812	-0.282438
H90	H	-0.817872	-1.624473	-0.370525
H91	H	-0.823334	-1.655223	-0.228232
H92	H	-0.926455	-1.703811	-0.388674
H93	H	-0.931943	-1.734551	-0.246392
H94	H	-0.932200	-1.531548	-0.202333
H95	H	-0.926733	-1.500808	-0.344630
H96	H	-0.997586	-1.555493	-0.282588
C97	C	-0.690179	-1.896691	-0.230086
C98	C	-0.638316	-1.991125	-0.279299
C99	C	-0.614109	-2.068000	-0.181697
H100	H	-0.731419	-1.933764	-0.188753
H101	H	-0.667684	-1.847703	-0.171835
H102	H	-0.660810	-2.040106	-0.337529
H103	H	-0.597063	-1.954088	-0.320623
H104	H	-0.591615	-2.019012	-0.123445
H105	H	-0.655354	-2.105064	-0.140370
H106	H	-0.578913	-2.132075	-0.215073
H107	H	-0.194883	-1.374265	-0.360556
C108	C	-0.332940	-1.731227	-0.935571
C109	C	-0.403549	-1.760911	-0.965221
C110	C	-0.457549	-1.675816	-0.905738
H111	H	-0.324682	-1.648530	-0.963378
H112	H	-0.329938	-1.736083	-0.847289
H113	H	-0.406549	-1.756043	-1.053483
H114	H	-0.411831	-1.843594	-0.937411
H115	H	-0.454548	-1.680672	-0.817457
H116	H	-0.449285	-1.593124	-0.933550
H117	H	-0.505464	-1.695952	-0.925838
H118	H	-0.679774	-2.064908	-0.420795
