data_functionalizedCrystal
_audit_creation_method	'MofGen! by Chris Wilmer'
_symmetry_space_group_name_H-M	'P1'
_symmetry_Int_Tables_number	1
_symmetry_cell_setting	triclinic
loop_
_symmetry_equiv_pos_as_xyz
  x,y,z
_cell_length_a	19.077105
_cell_length_b	16.959453
_cell_length_c	19.076919
_cell_angle_alpha	87.728832
_cell_angle_beta	89.923776
_cell_angle_gamma	87.716327
loop_
_atom_site_label
_atom_site_type_symbol
_atom_site_fract_x
_atom_site_fract_y
_atom_site_fract_z
Zn1	Zn	1.058297	-0.382398	0.440414
Zn2	Zn	1.558297	0.117602	0.940414
Zn3	Zn	1.062946	-0.509489	0.322906
Zn4	Zn	1.562946	-0.009489	0.822906
Zn5	Zn	0.945514	-0.371809	0.318208
Zn6	Zn	1.445514	0.128191	0.818208
Zn7	Zn	0.940767	-0.509012	0.435659
Zn8	Zn	1.440767	-0.009012	0.935659
O9	O	1.001881	-0.443177	0.379297
O10	O	1.501881	0.056823	0.879297
O11	O	1.157246	-0.403887	0.428783
O12	O	1.657246	0.096113	0.928783
O13	O	1.051300	-0.486993	0.223952
O14	O	1.551300	0.013007	0.723952
O15	O	0.960516	-0.262606	0.334442
O16	O	1.460516	0.237394	0.834442
O17	O	1.160661	-0.497261	0.342450
O18	O	1.660661	0.002739	0.842450
O19	O	1.043377	-0.270385	0.424227
O20	O	1.543377	0.229615	0.924227
O21	O	0.965024	-0.385841	0.220500
O22	O	1.465024	0.114159	0.720500
O23	O	0.846552	-0.385378	0.329831
O24	O	1.346552	0.114622	0.829831
O25	O	0.952426	-0.496448	0.534621
O26	O	1.452426	0.003552	1.034621
O27	O	0.843065	-0.486181	0.416122
O28	O	1.343065	0.013819	0.916122
O29	O	1.038774	-0.403425	0.538115
O30	O	1.538774	0.096575	1.038115
O31	O	1.046698	-0.620033	0.337839
O32	O	1.546698	-0.120033	0.837839
O33	O	0.956934	-0.619683	0.420678
O34	O	1.456934	-0.119683	0.920678
C35	C	0.819312	-0.434579	0.371951
C36	C	1.319312	0.065421	0.871951
C37	C	0.741208	-0.430921	0.368825
C38	C	1.241208	0.069079	0.868825
C39	C	1.001824	-0.648539	0.379269
C40	C	1.501824	-0.148539	0.879269
C41	C	1.001862	-0.736398	0.379283
C42	C	1.501862	-0.236398	0.879283
C43	C	0.702720	-0.481758	0.412213
C44	C	1.202720	0.018242	0.912213
C45	C	0.629332	-0.478311	0.409280
C46	C	1.129332	0.021689	0.909280
C47	C	0.594434	-0.424029	0.362954
C48	C	1.094434	0.075971	0.862954
C49	C	0.632928	-0.373187	0.319565
C50	C	1.132928	0.126813	0.819565
C51	C	0.706314	-0.376631	0.322502
C52	C	1.206314	0.123369	0.822502
C53	C	0.375146	-0.408089	0.349362
C54	C	0.875146	0.091911	0.849362
C55	C	0.301755	-0.404650	0.346426
C56	C	0.801755	0.095350	0.846426
C57	C	0.298164	-0.509773	0.436142
C58	C	0.798164	-0.009773	0.936142
C59	C	0.371552	-0.513216	0.439073
C60	C	0.871552	-0.013216	0.939073
C61	C	0.410039	-0.462370	0.395686
C62	C	0.910039	0.037630	0.895686
N63	N	0.519420	-0.420506	0.359953
N64	N	1.019420	0.079494	0.859953
N65	N	0.485051	-0.465891	0.398691
N66	N	0.985051	0.034109	0.898691
C67	C	1.045081	-1.111874	0.426135
C68	C	1.545081	-0.611874	0.926135
C69	C	0.958873	-1.103890	0.332571
C70	C	1.458873	-0.603890	0.832571
C71	C	0.958848	-1.021343	0.332554
C72	C	1.458848	-0.521343	0.832554
C73	C	1.001939	-0.984057	0.379328
C74	C	1.501939	-0.484057	0.879328
C75	C	1.045055	-1.029319	0.426120
C76	C	1.545055	-0.529319	0.926120
C77	C	0.915727	-0.976074	0.285768
C78	C	1.415727	-0.476074	0.785768
C79	C	0.915699	-0.893521	0.285749
C80	C	1.415699	-0.393521	0.785749
C81	C	0.958795	-0.856234	0.332521
C82	C	1.458795	-0.356234	0.832521
C83	C	1.001913	-0.901501	0.379314
C84	C	1.501913	-0.401501	0.879314
C85	C	1.045004	-0.864215	0.426089
C86	C	1.545004	-0.364215	0.926089
C87	C	1.088127	-0.909481	0.472879
C88	C	1.588127	-0.409481	0.972879
C89	C	1.088151	-0.992031	0.472892
C90	C	1.588151	-0.492031	0.972892
C91	C	0.958771	-0.773684	0.332508
C92	C	1.458771	-0.273684	0.832508
C93	C	1.044979	-0.781660	0.426075
C94	C	1.544979	-0.281660	0.926075
C95	C	1.185163	-0.451808	0.386671
C96	C	1.685163	0.048192	0.886671
C97	C	1.263267	-0.455487	0.389814
C98	C	1.763267	0.044513	0.889814
C99	C	0.994552	-0.451065	0.562577
C100	C	1.494552	0.048935	1.062577
C101	C	0.991429	-0.454426	0.640680
C102	C	1.491429	0.045574	1.140680
C103	C	1.001957	-0.237014	0.379341
C104	C	1.501957	0.262986	0.879341
C105	C	1.001990	-0.149160	0.379360
C106	C	1.501990	0.350840	0.879360
C107	C	1.009222	-0.435264	0.196731
C108	C	1.509222	0.064736	0.696731
C109	C	1.012481	-0.431687	0.118634
C110	C	1.512481	0.068313	0.618634
C111	C	1.034917	-0.407575	0.679193
C112	C	1.534917	0.092425	1.179193
C113	C	1.031973	-0.410730	0.752579
C114	C	1.531973	0.089270	1.252579
C115	C	0.985546	-0.460741	0.787450
C116	C	1.485546	0.039259	1.287450
C117	C	0.942054	-0.507593	0.748932
C118	C	1.442054	-0.007593	1.248932
C119	C	0.944994	-0.504434	0.675547
C120	C	1.444994	-0.004434	1.175547
C121	C	0.971929	-0.475380	1.006731
C122	C	1.471929	0.024620	1.506731
C123	C	0.968994	-0.478538	1.080121
C124	C	1.468994	0.021462	1.580121
C125	C	1.058913	-0.381673	1.083763
C126	C	1.558913	0.118327	1.583763
C127	C	1.061852	-0.378522	1.010377
C128	C	1.561852	0.121478	1.510377
C129	C	1.018357	-0.425371	0.971865
C130	C	1.518357	0.074629	1.471865
N131	N	0.982538	-0.463969	0.862462
N132	N	1.482538	0.036031	1.362462
N133	N	1.021362	-0.422138	0.896854
N134	N	1.521362	0.077862	1.396854
H135	H	0.731128	-0.525962	0.449934
H136	H	1.231128	-0.025962	0.949934
O137	O	0.912404	-1.144112	0.282125
O138	O	1.412404	-0.644112	0.782125
H139	H	0.856757	-1.126239	0.291908
H140	H	1.356757	-0.626239	0.791908
O141	O	1.078881	-0.360204	0.794121
O142	O	1.578881	0.139796	1.294121
H143	H	1.111666	-0.324907	0.757544
H144	H	1.611666	0.175093	1.257544
H145	H	0.904249	-0.548310	0.777330
H146	H	1.404249	-0.048310	1.277330
O147	O	0.869264	-1.016286	0.235308
O148	O	1.369264	-0.516286	0.735308
H149	H	0.876539	-1.081292	0.243169
H150	H	1.376539	-0.581292	0.743169
H151	H	1.072725	-0.366854	0.650806
H152	H	1.572725	0.133146	1.150806
O153	O	0.912264	-0.724866	0.282047
O154	O	1.412264	-0.224866	0.782047
H155	H	0.919483	-0.661199	0.289895
H156	H	1.419483	-0.161199	0.789895
H157	H	0.266821	-0.551167	0.471467
H158	H	0.766821	-0.051167	0.971467
H159	H	0.880587	-0.856671	0.247649
H160	H	1.380587	-0.356671	0.747649
O161	O	0.587893	-0.533219	0.456074
O162	O	1.087893	-0.033219	0.956074
H163	H	0.553032	-0.497964	0.490600
H164	H	1.053032	0.002036	0.990600
H165	H	0.399961	-0.557419	0.476795
H166	H	0.899961	-0.057419	0.976795
O167	O	1.111930	-0.324586	0.972765
O168	O	1.611930	0.175414	1.472765
H169	H	1.141674	-0.292534	1.011875
H170	H	1.641674	0.207466	1.511875
O171	O	0.918907	-0.532475	1.117730
O172	O	1.418907	-0.032475	1.617730
H173	H	0.881840	-0.496845	1.149734
H174	H	1.381840	0.003155	1.649734
O175	O	1.105803	-0.331120	1.125298
O176	O	1.605803	0.168880	1.625298
H177	H	1.095952	-0.341705	1.182185
H178	H	1.595952	0.158295	1.682185
H179	H	0.936523	-0.513540	0.975384
H180	H	1.436523	-0.013540	1.475384
H181	H	0.273343	-0.360438	0.308706
H182	H	0.773343	0.139562	0.808706
H183	H	0.909575	-0.542576	0.644190
H184	H	1.409575	-0.042576	1.144190
O185	O	1.091592	-1.160688	0.476600
O186	O	1.591592	-0.660688	0.976600
H187	H	1.077288	-1.146626	0.531249
H188	H	1.577288	-0.646626	1.031249
H189	H	0.406473	-0.366693	0.314028
H190	H	0.906473	0.133307	0.814028
O191	O	0.595281	-0.314659	0.269587
O192	O	1.095281	0.185341	0.769587
H193	H	0.560589	-0.274291	0.299751
H194	H	1.060589	0.225709	0.799751
O195	O	0.747832	-0.321810	0.275698
O196	O	1.247832	0.178190	0.775698
H197	H	0.711238	-0.283493	0.242984
H198	H	1.211238	0.216507	0.742984
O199	O	1.091465	-0.741444	0.476517
O200	O	1.591465	-0.241444	0.976517
H201	H	1.121452	-0.786790	0.509053
H202	H	1.621452	-0.286790	1.009053
O203	O	1.134654	-1.040857	0.523357
O204	O	1.634654	-0.540857	1.023357
H205	H	1.164620	-1.001064	0.555876
H206	H	1.664620	-0.501064	1.055876
H207	H	1.123209	-0.879114	0.510967
H208	H	1.623209	-0.379114	1.010967
