data_functionalizedCrystal
_audit_creation_method	'MofGen! by Chris Wilmer'
_symmetry_space_group_name_H-M	'P1'
_symmetry_Int_Tables_number	1
_symmetry_cell_setting	triclinic
loop_
_symmetry_equiv_pos_as_xyz
  x,y,z
_cell_length_a	17.038272
_cell_length_b	17.038272
_cell_length_c	16.098538
_cell_angle_alpha	87.079695
_cell_angle_beta	87.069734
_cell_angle_gamma	88.888444
loop_
_atom_site_label
_atom_site_type_symbol
_atom_site_fract_x
_atom_site_fract_y
_atom_site_fract_z
O1	O	1.052033	-0.167266	-0.069152
O2	O	0.824222	-0.164557	-0.069177
O3	O	0.936773	-0.052006	-0.069158
O4	O	0.939482	-0.279817	-0.069171
O5	O	0.930197	-0.058553	0.069354
O6	O	0.817646	-0.171104	0.069335
O7	O	1.045456	-0.173813	0.069359
Zn8	Zn	0.930507	-0.173498	0.091339
Zn9	Zn	0.939172	-0.164872	-0.091156
O10	O	0.932905	-0.286364	0.069341
C11	C	0.791641	-0.165367	0.000076
C12	C	0.704358	-0.158019	0.000067
C13	C	0.658749	-0.225482	0.000064
C14	C	0.576737	-0.218574	0.000075
C15	C	0.540335	-0.144201	0.000085
C16	C	0.585950	-0.076733	0.000090
C17	C	0.667961	-0.083642	0.000084
C18	C	0.292946	-0.119792	0.000108
C19	C	0.210929	-0.112887	0.000112
C20	C	0.201722	-0.254729	0.000098
C21	C	0.283734	-0.261632	0.000088
C22	C	0.329342	-0.194164	0.000098
C23	C	0.456505	-0.137138	0.000094
C24	C	0.413170	-0.201228	0.000094
C25	C	0.931022	-0.025987	0.000097
C26	C	0.923674	0.061297	0.000096
C27	C	1.078037	-0.173002	0.000105
C28	C	1.165320	-0.180351	0.000108
C29	C	0.938656	-0.312383	0.000083
C30	C	0.946005	-0.399666	0.000079
N31	N	0.924599	-0.179385	0.215887
C32	C	0.991137	0.106906	0.000104
C33	C	0.984229	0.188918	0.000096
C34	C	0.909856	0.225320	0.000085
C35	C	0.842388	0.179705	0.000074
C36	C	0.849297	0.097694	0.000077
C37	C	0.885446	0.472708	0.000071
C38	C	0.878541	0.554725	0.000071
C39	C	1.020383	0.563932	0.000091
C40	C	1.027286	0.481920	0.000098
C41	C	0.959818	0.436312	0.000083
C42	C	0.902792	0.309149	0.000079
C43	C	0.966882	0.352485	0.000084
N44	N	0.945085	-0.158979	-0.215705
C45	C	0.972390	-0.131633	0.259480
C46	C	0.968265	-0.135759	0.346668
C47	C	0.916352	-0.187642	0.390262
C48	C	0.868556	-0.235395	0.346663
C49	C	0.872678	-0.231265	0.259476
C50	C	0.901410	-0.202602	0.653510
C51	C	0.897294	-0.206731	0.740702
C52	C	0.997003	-0.107093	0.740702
C53	C	1.001123	-0.102971	0.653513
C54	C	0.953324	-0.150721	0.609922
C55	C	0.912136	-0.191862	0.479383
C56	C	0.957536	-0.146496	0.520803
H57	H	0.442811	-0.261782	0.000091
N58	N	0.320932	-0.337594	0.000077
N59	N	0.368434	-0.354508	-0.058312
H60	H	0.394709	-0.408156	-0.058322
H61	H	1.035918	-0.068216	0.776202
N62	N	0.339523	-0.050876	0.000125
N63	N	0.330679	-0.005379	0.058515
H64	H	0.363576	0.043298	0.058527
H65	H	1.087848	0.452287	0.000107
H66	H	1.014666	-0.089389	0.223992
H67	H	0.794361	0.060560	0.000070
H68	H	0.164579	-0.309658	0.000092
N69	N	0.766410	0.216872	0.000079
N70	N	0.706181	0.176137	0.000078
H71	H	0.652519	0.202384	0.000086
N72	N	0.823851	-0.280044	0.214957
N73	N	0.777503	-0.326364	0.253887
H74	H	0.743015	-0.360815	0.222447
H75	H	1.027437	0.322844	0.000074
N76	N	0.530160	-0.287495	0.000077
N77	N	0.562671	-0.353894	0.000065
H78	H	0.529777	-0.402574	0.000067
N79	N	0.548757	-0.000768	0.000108
N80	N	0.475533	0.005392	0.000113
H81	H	0.449265	0.059044	0.000124
N82	N	1.054298	-0.050113	0.608999
N83	N	1.097060	-0.007575	0.647933
H84	H	1.134671	0.029702	0.616495
H85	H	0.830508	0.435584	0.000059
H86	H	0.705095	-0.028706	0.000086
N87	N	0.844260	-0.259718	0.785247
N88	N	0.840592	-0.263397	0.863091
H89	H	0.803139	-0.300817	0.894553
N90	N	0.826816	0.346318	0.000073
N91	N	0.782865	0.336830	-0.058311
H92	H	0.729205	0.363080	-0.058315
N93	N	1.067107	0.069724	0.000134
N94	N	1.111045	0.079213	0.058529
H95	H	1.164701	0.052955	0.058550
N96	N	0.852578	-0.251379	0.609002
N97	N	0.806232	-0.297697	0.647938
H98	H	0.771740	-0.332148	0.616503
N99	N	0.802566	0.591905	0.000039
N100	N	0.785662	0.639397	-0.058351
H101	H	0.732006	0.665655	-0.058372
H102	H	0.826283	-0.277636	0.382162
N103	N	0.859103	-0.244849	0.523918
N104	N	0.806403	-0.218957	0.572578
H105	H	0.768946	-0.256376	0.604035
N106	N	0.173758	-0.036907	0.000119
N107	N	0.214486	0.023326	0.000128
H108	H	0.188234	0.076985	0.000131
N109	N	1.010527	-0.093486	0.476248
N110	N	0.984629	-0.040783	0.427611
H111	H	1.022047	-0.003344	0.396126
N112	N	0.695915	-0.301460	0.000064
N113	N	0.680904	-0.350931	0.058450
H114	H	0.707150	-0.404594	0.058454
N115	N	1.053150	0.235495	0.000096
N116	N	1.119549	0.202984	0.000107
H117	H	1.168228	0.235878	0.000104
N118	N	0.419323	-0.061168	0.000079
N119	N	0.434323	-0.011697	-0.058310
H120	H	0.408061	0.041958	-0.058321
H121	H	1.007180	-0.096876	0.382161
N122	N	1.089304	0.610508	0.000107
N123	N	1.134789	0.601673	0.058499
H124	H	1.183468	0.634566	0.058509
