data_functionalizedCrystal
_audit_creation_method	'MofGen! by Chris Wilmer'
_symmetry_space_group_name_H-M	'P1'
_symmetry_Int_Tables_number	1
_symmetry_cell_setting	triclinic
loop_
_symmetry_equiv_pos_as_xyz
  x,y,z
_cell_length_a	15.995350
_cell_length_b	13.339070
_cell_length_c	11.804365
_cell_angle_alpha	105.114498
_cell_angle_beta	101.844755
_cell_angle_gamma	80.439166
loop_
_atom_site_label
_atom_site_type_symbol
_atom_site_fract_x
_atom_site_fract_y
_atom_site_fract_z
O1	O	-1.153435	0.109994	-0.098913
O2	O	-0.913404	0.126091	-0.098936
O3	O	-1.005872	-0.029223	-0.098931
O4	O	-1.060967	0.265307	-0.098918
O5	O	-0.981519	0.011624	0.099124
O6	O	-0.889051	0.166938	0.099119
O7	O	-1.129082	0.150841	0.099141
Cu8	Cu	-1.006843	0.162619	0.117214
Cu9	Cu	-1.035643	0.114313	-0.117009
O10	O	-1.036614	0.306154	0.099136
C11	C	-0.869878	0.145848	0.000088
C12	C	-0.776465	0.143851	0.000079
C13	C	-0.984389	-0.046489	0.000092
C14	C	-0.956649	-0.158794	0.000079
C15	C	-1.172608	0.131083	0.000115
C16	C	-1.266022	0.133079	0.000116
C17	C	-0.437050	0.136688	0.000103
C18	C	-0.458733	0.026166	0.000540
C19	C	-0.555943	0.028069	0.000086
C20	C	-0.605438	0.140241	0.000092
C21	C	-0.590931	0.171475	-0.113000
C22	C	-0.493660	0.168678	-0.113087
C23	C	-0.466158	0.217414	0.112139
C24	C	-0.562915	0.217694	0.113625
C25	C	-0.700604	0.142254	0.000081
C26	C	-0.341884	0.134677	0.000106
C27	C	-1.058097	0.323420	0.000111
C28	C	-1.085838	0.435723	0.000116
N29	N	-0.986592	0.196594	0.281953
C30	C	-0.870139	0.800508	0.000079
C31	C	-0.844070	0.694999	0.000093
C32	C	-0.904510	0.630175	0.000099
C33	C	-0.991023	0.670871	0.000090
C34	C	-1.017093	0.776393	0.000085
C35	C	-1.051464	0.606059	0.000105
C36	C	-1.137977	0.646755	0.000096
C37	C	-1.164043	0.752267	0.000090
C38	C	-1.103604	0.817091	0.000085
C39	C	-1.025394	0.500537	0.000110
C40	C	-1.172348	0.476421	0.000116
C41	C	-1.198417	0.581931	0.000102
N42	N	-1.055898	0.080329	-0.281748
C43	C	-1.104523	-0.001277	0.655909
C44	C	-1.119840	-0.026984	0.531248
C45	C	-1.086529	0.028908	0.468918
C46	C	-1.037899	0.110512	0.531261
C47	C	-1.022585	0.136226	0.655934
C48	C	-1.004592	0.166412	0.468944
C49	C	-0.955961	0.248016	0.531287
C50	C	-0.940650	0.273725	0.655948
C51	C	-0.973961	0.217833	0.718278
C52	C	-1.019905	0.140697	0.344271
C53	C	-0.937968	0.278201	0.344297
C54	C	-0.922650	0.303908	0.468958
H55	H	-0.564440	0.001903	0.081155
H56	H	-1.131646	-0.046773	0.706666
C57	C	-0.901322	0.339690	0.275753
H58	H	-0.870177	0.391982	0.330736
H59	H	-0.863984	0.293245	0.227125
H60	H	-0.947207	0.371795	0.227118
H61	H	-1.159436	-0.093424	0.480492
C62	C	-0.476432	0.276943	-0.120046
H63	H	-0.528858	0.322436	-0.122816
H64	H	-0.436775	0.304972	-0.051851
H65	H	-0.453050	0.270208	-0.189794
H66	H	-0.476504	0.111456	-0.197630
C67	C	-0.448724	0.327800	0.113180
H68	H	-0.423824	0.324756	0.045711
H69	H	-0.501314	0.372981	0.110696
H70	H	-0.410260	0.353752	0.183767
H71	H	-0.961487	0.238760	0.819787
H72	H	-0.901060	0.340179	0.706708
C73	C	-0.869167	0.393674	0.537543
H74	H	-0.864826	0.400983	0.620715
H75	H	-0.813235	0.378439	0.517126
H76	H	-0.896459	0.456988	0.517116
C77	C	-0.803663	0.871809	0.000075
H78	H	-0.748405	0.832464	0.000084
H79	H	-0.819269	0.899227	-0.068990
H80	H	-0.802290	0.927719	0.069150
H81	H	-0.883279	0.544264	0.000108
H82	H	-0.773632	0.661870	0.000094
C83	C	-0.406359	-0.010971	0.110098
H84	H	-0.370793	0.040588	0.156553
H85	H	-0.444491	-0.021707	0.156663
H86	H	-0.371461	-0.074704	0.084664
C87	C	-1.132277	0.933154	0.000077
H88	H	-1.083888	0.965928	0.000078
H89	H	-1.173802	0.938324	-0.068986
H90	H	-1.156814	0.966821	0.069155
C91	C	-0.431845	-0.055767	-0.108413
H92	H	-0.407466	-0.022911	-0.154170
H93	H	-0.390577	-0.108635	-0.082408
H94	H	-0.480915	-0.086288	-0.155895
H95	H	-0.570692	0.195123	0.197290
C96	C	-0.593525	-0.052873	-0.109632
H97	H	-0.549374	-0.087039	-0.154107
H98	H	-0.616536	-0.103034	-0.084422
H99	H	-0.637845	-0.018471	-0.158077
H100	H	-0.624718	0.253018	-0.117201
C101	C	-0.412832	0.192450	0.227942
H102	H	-0.372313	0.132552	0.209042
H103	H	-0.383271	0.250371	0.272100
H104	H	-0.450014	0.178998	0.274114
C105	C	-0.631340	0.096832	-0.226708
H106	H	-0.657072	0.046591	-0.205505
H107	H	-0.673925	0.135710	-0.272465
H108	H	-0.587941	0.062122	-0.272296
H109	H	-1.234486	0.785400	0.000097
H110	H	-0.596443	0.300903	0.120461
C111	C	-0.930239	0.455776	0.000111
H112	H	-0.923364	0.383652	0.000124
H113	H	-0.912812	0.463777	-0.068956
H114	H	-0.895835	0.492276	0.069185
H115	H	-1.268859	0.615079	0.000086
C116	C	-1.238838	0.405123	0.000110
H117	H	-1.210923	0.336451	0.000099
H118	H	-1.264814	0.431703	0.069174
H119	H	-1.281787	0.403213	-0.068967
C120	C	-1.073399	0.050947	0.275702
H121	H	-1.077759	0.043642	0.192528
H122	H	-1.046123	-0.012367	0.296130
H123	H	-1.129332	0.066207	0.296132
H124	H	-1.099003	0.007974	0.367414
