data_functionalizedCrystal
_audit_creation_method	'MofGen! by Chris Wilmer'
_symmetry_space_group_name_H-M	'P1'
_symmetry_Int_Tables_number	1
_symmetry_cell_setting	triclinic
loop_
_symmetry_equiv_pos_as_xyz
  x,y,z
_cell_length_a	11.792241
_cell_length_b	9.065218
_cell_length_c	8.140239
_cell_angle_alpha	90.001686
_cell_angle_beta	89.998145
_cell_angle_gamma	95.395350
loop_
_atom_site_label
_atom_site_type_symbol
_atom_site_fract_x
_atom_site_fract_y
_atom_site_fract_z
O1	O	1.508028	-0.202221	-0.136574
O2	O	1.841361	0.131112	0.196759
O3	O	2.174694	0.464445	0.530093
O4	O	1.177802	-0.223063	-0.136584
O5	O	1.511135	0.110271	0.196750
O6	O	1.844469	0.443604	0.530083
O7	O	1.349740	0.002064	-0.136575
O8	O	1.683074	0.335398	0.196758
O9	O	2.016407	0.668731	0.530091
O10	O	1.336089	-0.427349	-0.136582
O11	O	1.669422	-0.094015	0.196751
O12	O	2.002756	0.239318	0.530084
O13	O	1.349731	0.002067	0.136652
O14	O	1.683064	0.335400	0.469985
O15	O	2.016398	0.668734	0.803319
O16	O	1.177792	-0.223060	0.136644
O17	O	1.511126	0.110273	0.469977
O18	O	1.844459	0.443606	0.803310
O19	O	1.508018	-0.202219	0.136653
O20	O	1.841351	0.131114	0.469987
O21	O	2.174685	0.464448	0.803320
Zn22	Zn	1.342904	-0.212639	0.180029
Zn23	Zn	1.676237	0.120694	0.513362
Zn24	Zn	2.009570	0.454028	0.846696
Zn25	Zn	1.342916	-0.212643	-0.179959
Zn26	Zn	1.676250	0.120691	0.153374
Zn27	Zn	2.009583	0.454024	0.486707
O28	O	1.336079	-0.427346	0.136645
O29	O	1.669413	-0.094013	0.469978
O30	O	2.002746	0.239321	0.803311
C31	C	1.135499	-0.221752	0.000029
C32	C	1.468832	0.111581	0.333362
C33	C	1.802166	0.444914	0.666695
C34	C	1.009464	-0.217834	0.000025
C35	C	1.342797	0.115499	0.333358
C36	C	1.676130	0.448833	0.666691
C37	C	1.550321	-0.203529	0.000037
C38	C	1.883654	0.129804	0.333371
C39	C	2.216988	0.463137	0.666704
C40	C	1.676356	-0.207448	0.000030
C41	C	2.009690	0.125886	0.333364
C42	C	2.343023	0.459219	0.666697
C43	C	1.907108	-0.214653	0.000031
C44	C	2.240442	0.118680	0.333364
C45	C	2.573775	0.452014	0.666698
C46	C	1.778701	-0.210650	0.000031
C47	C	2.112034	0.122684	0.333364
C48	C	2.445368	0.456017	0.666698
C49	C	1.348424	0.057040	0.000036
C50	C	1.681757	0.390373	0.333369
C51	C	2.015090	0.723707	0.666702
C52	C	1.344501	0.220846	0.000028
C53	C	1.677834	0.554179	0.333361
C54	C	2.011167	0.887513	0.666694
C55	C	1.337396	-0.482322	0.000030
C56	C	1.670730	-0.148988	0.333364
C57	C	2.004063	0.184345	0.666697
C58	C	1.341319	-0.646128	0.000028
C59	C	1.674652	-0.312794	0.333361
C60	C	2.007986	0.020539	0.666694
N61	N	1.342903	-0.212636	0.425712
N62	N	1.676237	0.120697	0.759045
N63	N	2.009570	0.454031	1.092378
N64	N	1.342926	-0.212634	-0.425642
N65	N	1.676259	0.120699	-0.092309
N66	N	2.009592	0.454033	0.241025
