data_functionalizedCrystal
_audit_creation_method	'MofGen! by Chris Wilmer'
_symmetry_space_group_name_H-M	'P1'
_symmetry_Int_Tables_number	1
_symmetry_cell_setting	triclinic
loop_
_symmetry_equiv_pos_as_xyz
  x,y,z
_cell_length_a	12.784905
_cell_length_b	12.837942
_cell_length_c	8.140239
_cell_angle_alpha	89.996939
_cell_angle_beta	89.996744
_cell_angle_gamma	83.968130
loop_
_atom_site_label
_atom_site_type_symbol
_atom_site_fract_x
_atom_site_fract_y
_atom_site_fract_z
O1	O	1.410964	0.006435	-0.136623
O2	O	1.105965	0.050427	-0.136624
O3	O	1.251701	-0.121862	-0.136613
O4	O	1.265227	0.178724	-0.136634
O5	O	1.251692	-0.121863	0.136614
O6	O	1.105956	0.050426	0.136603
O7	O	1.410955	0.006434	0.136604
Zn8	Zn	1.258454	0.028430	0.179984
Zn9	Zn	1.258466	0.028431	-0.180004
O10	O	1.265218	0.178723	0.136594
C11	C	1.066651	0.053288	-0.000010
C12	C	0.949519	0.061801	-0.000011
C13	C	0.735568	-0.111642	-0.000028
C14	C	0.625513	-0.103648	-0.000029
C15	C	0.619351	0.085781	-0.000023
C16	C	0.729407	0.077787	-0.000023
C17	C	0.787511	-0.020928	-0.000023
C18	C	0.897569	-0.028921	-0.000011
C19	C	0.891405	0.160508	-0.000017
C20	C	0.781350	0.168502	-0.000018
C21	C	1.247128	-0.160072	-0.000001
C22	C	1.233500	-0.273920	-0.000003
C23	C	1.397331	-0.529646	-0.000037
C24	C	1.384532	-0.636618	-0.000040
C25	C	1.195102	-0.594839	-0.000024
C26	C	1.207901	-0.487867	-0.000021
C27	C	1.309019	-0.455275	-0.000025
C28	C	1.321818	-0.348301	-0.000011
C29	C	1.132389	-0.306523	-0.000006
C30	C	1.119589	-0.413495	-0.000009
C31	C	1.450269	0.003573	-0.000013
C32	C	1.567401	-0.004940	-0.000024
C33	C	1.269792	0.216932	-0.000023
C34	C	1.283420	0.330781	-0.000031
N35	N	1.258453	0.028427	0.425667
N36	N	1.258474	0.028424	-0.425687
H37	H	0.944876	-0.109300	-0.000008
H38	H	1.479665	-0.503110	-0.000025
H39	H	0.572023	0.166150	-0.000045
H40	H	0.782878	-0.192020	-0.000017
Cl41	Cl	1.495558	-0.730112	-0.000060
H42	H	0.734026	0.248872	-0.000024
Cl43	Cl	0.560216	-0.217694	-0.000041
H44	H	1.037262	-0.440047	-0.000012
Cl45	Cl	0.956711	0.274556	0.000016
Cl46	Cl	1.448936	-0.307329	-0.000005
Cl47	Cl	1.067993	-0.635831	-0.000067
H48	H	1.060479	-0.245957	0.000017
