data_functionalizedCrystal
_audit_creation_method	'MofGen! by Chris Wilmer'
_symmetry_space_group_name_H-M	'P1'
_symmetry_Int_Tables_number	1
_symmetry_cell_setting	triclinic
loop_
_symmetry_equiv_pos_as_xyz
  x,y,z
_cell_length_a	13.635800
_cell_length_b	11.102193
_cell_length_c	11.102291
_cell_angle_alpha	88.050288
_cell_angle_beta	108.605752
_cell_angle_gamma	71.396037
loop_
_atom_site_label
_atom_site_type_symbol
_atom_site_fract_x
_atom_site_fract_y
_atom_site_fract_z
V1	V	2.055765	-0.175855	0.396258
O2	O	2.035286	0.008434	0.388716
O3	O	2.044149	-0.348674	0.393548
O4	O	2.044157	-0.173157	0.569081
O5	O	2.035277	-0.168299	0.211968
V6	V	2.294316	-0.153811	0.374216
O7	O	2.193435	-0.224210	0.444611
O8	O	2.381745	-0.105456	0.325864
O9	O	2.194329	0.019009	0.376926
O10	O	2.373494	-0.338100	0.381759
O11	O	2.373502	-0.161367	0.558507
O12	O	2.194321	-0.156509	0.201394
V13	V	2.555765	-0.175855	0.396258
O14	O	2.535286	0.008434	0.388716
O15	O	2.544149	-0.348674	0.393548
O16	O	2.544157	-0.173157	0.569081
O17	O	2.535277	-0.168299	0.211968
V18	V	2.794316	-0.153811	0.374216
O19	O	2.693435	-0.224210	0.444611
O20	O	2.881745	-0.105456	0.325864
O21	O	2.694329	0.019009	0.376926
O22	O	2.873494	-0.338100	0.381759
O23	O	2.873502	-0.161367	0.558507
O24	O	2.694321	-0.156509	0.201394
C25	C	1.969303	-0.390804	0.387297
C26	C	2.000533	-0.532087	0.386232
C27	C	1.923204	-0.591993	0.379399
C28	C	1.952554	-0.724744	0.378402
C29	C	2.136569	-0.737671	0.391077
C30	C	2.107216	-0.604921	0.392065
C31	C	1.816520	-0.519159	0.373567
C32	C	1.739184	-0.579065	0.366735
C33	C	1.768534	-0.711816	0.365737
C34	C	1.875221	-0.784660	0.371572
C35	C	1.969313	-0.166912	0.611205
C36	C	2.000548	-0.165850	0.752488
C37	C	2.100846	0.061132	0.383174
C38	C	2.059236	0.202413	0.384247
C39	C	2.100836	-0.162757	0.159263
C40	C	2.059220	-0.163813	0.017979
C41	C	2.469303	-0.390804	0.387297
C42	C	2.500533	-0.532087	0.386232
C43	C	2.469313	-0.166912	0.611205
C44	C	2.500548	-0.165850	0.752488
C45	C	2.107225	-0.171689	0.825336
C46	C	2.136560	-0.170666	0.958082
C47	C	1.952532	-0.157969	0.945121
C48	C	1.923196	-0.158983	0.812375
C49	C	2.213474	-0.179026	0.832821
C50	C	2.242809	-0.178003	0.965567
C51	C	2.600846	0.061132	0.383174
C52	C	2.559236	0.202413	0.384247
C53	C	2.600836	-0.162757	0.159263
C54	C	2.559220	-0.163813	0.017979
C55	C	2.607225	-0.171689	0.825336
C56	C	2.636560	-0.170666	0.958082
C57	C	2.452532	-0.157969	0.945121
C58	C	2.423196	-0.158983	0.812375
C59	C	2.713474	-0.179026	0.832821
C60	C	2.742809	-0.178003	0.965567
C61	C	2.485118	-0.580317	0.269352
C62	C	2.514469	-0.713069	0.268367
C63	C	2.574646	-0.749351	0.501153
C64	C	2.545302	-0.616601	0.502137
C65	C	2.450371	-0.559370	0.134955
C66	C	2.479722	-0.692123	0.133969
H67	H	1.652319	-0.519745	0.361975
H68	H	2.723213	-0.092764	0.785725
H69	H	2.814655	-0.269897	1.018414
O70	O	1.685133	-0.776438	0.358373
H71	H	1.606025	-0.703487	0.354496
O72	O	2.561963	-0.564589	0.628207
H73	H	2.534056	-0.458082	0.609425
O74	O	2.337940	-0.299752	1.035577
H75	H	2.361137	-0.298867	1.140806
H76	H	2.223213	-0.092764	0.785725
O77	O	2.776620	-0.304576	0.800395
H78	H	2.833832	-0.370314	0.890557
O79	O	2.622931	-0.840503	0.626161
H80	H	2.640745	-0.940916	0.605844
H81	H	2.261169	-0.273804	0.808357
H82	H	1.792612	-0.411066	0.374381
H83	H	2.499700	-0.520273	0.088482
H84	H	2.357611	-0.506567	0.088538
H85	H	2.403711	-0.715140	0.077241
O86	O	2.266936	-0.058466	1.004133
H87	H	2.256018	0.004076	0.917229
H88	H	2.336332	-0.154230	0.753067
H89	H	2.389559	-0.152376	0.993897
H90	H	1.899095	-0.892743	0.370691
H91	H	2.550922	-0.731923	0.096978
O92	O	2.766936	-0.058466	1.004133
H93	H	2.756018	0.004076	0.917229
H94	H	1.889559	-0.152376	0.993897
H95	H	2.223431	-0.796991	0.395825
H96	H	1.836332	-0.154230	0.753067
O97	O	2.190618	-0.540295	0.399451
H98	H	2.269739	-0.613245	0.403365
