data_functionalizedCrystal
_audit_creation_method	'MofGen! by Chris Wilmer'
_symmetry_space_group_name_H-M	'P1'
_symmetry_Int_Tables_number	1
_symmetry_cell_setting	triclinic
loop_
_symmetry_equiv_pos_as_xyz
  x,y,z
_cell_length_a	15.538191
_cell_length_b	14.853567
_cell_length_c	13.930277
_cell_angle_alpha	89.995623
_cell_angle_beta	90.000481
_cell_angle_gamma	114.546488
loop_
_atom_site_label
_atom_site_type_symbol
_atom_site_fract_x
_atom_site_fract_y
_atom_site_fract_z
O1	O	0.122931	-1.155994	0.079757
O2	O	0.622931	-0.655994	0.579757
O3	O	0.137576	-0.888725	0.079773
O4	O	0.637576	-0.388725	0.579773
O5	O	-0.006808	-1.074386	0.079767
O6	O	0.493192	-0.574386	0.579767
O7	O	0.267315	-0.970333	0.079764
O8	O	0.767315	-0.470333	0.579764
O9	O	-0.006805	-1.074365	-0.079895
O10	O	0.493195	-0.574365	0.420105
O11	O	0.137578	-0.888704	-0.079889
O12	O	0.637578	-0.388704	0.420111
O13	O	0.122934	-1.155973	-0.079905
O14	O	0.622934	-0.655973	0.420095
Zn15	Zn	0.130257	-1.022335	-0.105247
Zn16	Zn	0.630257	-0.522335	0.394753
Zn17	Zn	0.130253	-1.022363	0.105115
Zn18	Zn	0.630253	-0.522363	0.605115
O19	O	0.267318	-0.970312	-0.079898
O20	O	0.767318	-0.470312	0.420102
C21	C	0.136913	-0.855344	-0.000056
C22	C	0.636913	-0.355344	0.499944
C23	C	0.134925	-0.755913	-0.000050
C24	C	0.634925	-0.255913	0.499950
C25	C	-0.041888	-1.085262	-0.000062
C26	C	0.458112	-0.585262	0.499938
C27	C	-0.146419	-1.117689	-0.000054
C28	C	0.353581	-0.617689	0.499946
N29	N	0.130259	-1.022323	-0.248813
N30	N	0.630259	-0.522323	0.251187
C31	C	-0.434631	-0.795529	-0.000056
C32	C	0.065369	-0.295529	0.499944
C33	C	-0.532857	-0.826023	-0.000060
C34	C	-0.032857	-0.326023	0.499940
C35	C	-0.555076	-0.997541	-0.000069
C36	C	-0.055076	-0.497541	0.499931
C37	C	-0.456850	-0.967062	-0.000061
C38	C	0.043150	-0.467062	0.499939
C39	C	-0.396635	-0.866055	-0.000055
C40	C	0.103365	-0.366055	0.499945
C41	C	-0.418853	-1.037588	-0.000060
C42	C	0.081147	-0.537588	0.499940
C43	C	-0.320636	-1.007111	-0.000056
C44	C	0.179364	-0.507111	0.499944
C45	C	-0.260415	-0.906108	-0.000054
C46	C	0.239585	-0.406108	0.499946
C47	C	-0.298417	-0.835578	-0.000052
C48	C	0.201583	-0.335578	0.499948
C49	C	-0.479070	-1.138594	-0.000073
C50	C	0.020930	-0.638594	0.499927
C51	C	-0.441073	-1.209120	-0.000072
C52	C	0.058927	-0.709120	0.499928
C53	C	-0.342854	-1.178644	-0.000061
C54	C	0.157146	-0.678644	0.499939
C55	C	-0.282633	-1.077641	-0.000059
C56	C	0.217367	-0.577641	0.499941
C57	C	-0.304852	-1.249174	-0.000063
C58	C	0.195148	-0.749174	0.499937
C59	C	-0.206634	-1.218697	-0.000060
C60	C	0.293366	-0.718697	0.499940
C61	C	-0.184416	-1.047164	-0.000055
C62	C	0.315584	-0.547164	0.499945
C63	C	0.302397	-0.959436	-0.000068
C64	C	0.802397	-0.459436	0.499932
C65	C	0.406929	-0.927009	-0.000069
C66	C	0.906929	-0.427009	0.499931
C67	C	0.123596	-1.189354	-0.000074
C68	C	0.623596	-0.689354	0.499926
C69	C	0.125584	-1.288785	-0.000074
C70	C	0.625584	-0.788785	0.499926
C71	C	0.040753	-0.374309	-0.000070
C72	C	0.540753	0.125691	0.499930
C73	C	0.212284	-0.296691	-0.000071
C74	C	0.712284	0.203309	0.499929
C75	C	0.214153	-0.390111	-0.000068
C76	C	0.714153	0.109889	0.499932
C77	C	0.129321	-0.475634	-0.000065
C78	C	0.629321	0.024366	0.499935
C79	C	0.042620	-0.467738	-0.000064
C80	C	0.542620	0.032262	0.499936
C81	C	0.300853	-0.398015	-0.000059
C82	C	0.800853	0.101985	0.499941
C83	C	0.302726	-0.491439	-0.000055
C84	C	0.802726	0.008561	0.499945
C85	C	0.217893	-0.576964	-0.000058
C86	C	0.717893	-0.076964	0.499942
C87	C	0.131188	-0.569064	-0.000059
C88	C	0.631188	-0.069064	0.499941
C89	C	0.046356	-0.654587	-0.000055
C90	C	0.546356	-0.154587	0.499945
C91	C	-0.040350	-0.646689	-0.000063
C92	C	0.459650	-0.146689	0.499937
C93	C	-0.042213	-0.553264	-0.000068
C94	C	0.457787	-0.053264	0.499932
C95	C	0.219757	-0.670390	-0.000053
C96	C	0.719757	-0.170390	0.499947
C97	C	0.048223	-0.748017	-0.000049
C98	C	0.548223	-0.248017	0.499951
C99	C	0.073045	-0.986374	-0.299072
C100	C	0.573045	-0.486374	0.200928
C101	C	0.187468	-1.058285	-0.299059
C102	C	0.687468	-0.558285	0.200941
C103	C	0.187467	-1.058297	-0.399554
C104	C	0.687467	-0.558297	0.100446
C105	C	0.130253	-1.022347	-0.449813
C106	C	0.630253	-0.522347	0.050187
C107	C	0.073040	-0.986387	-0.399577
C108	C	0.573040	-0.486387	0.100423
C109	C	0.244672	-1.094266	-0.449799
C110	C	0.744672	-0.594266	0.050201
C111	C	0.244673	-1.094280	-0.550300
C112	C	0.744673	-0.594280	-0.050300
C113	C	0.187463	-1.058323	-0.600561
C114	C	0.687463	-0.558323	-0.100561
C115	C	0.130249	-1.022360	-0.550318
C116	C	0.630249	-0.522360	-0.050318
C117	C	0.073035	-0.986411	-0.600577
C118	C	0.573035	-0.486411	-0.100577
C119	C	0.015825	-0.950441	-0.550336
C120	C	0.515825	-0.450441	-0.050336
C121	C	0.015831	-0.950431	-0.449837
C122	C	0.515831	-0.450431	0.050163
C123	C	0.187457	-1.058334	-0.701060
C124	C	0.687457	-0.558334	-0.201060
C125	C	0.073030	-0.986424	-0.701082
C126	C	0.573030	-0.486424	-0.201082
N127	N	0.130243	-1.022385	0.248681
N128	N	0.630243	-0.522385	0.748681
H129	H	-0.135385	-0.964914	-0.000043
H130	H	0.364615	-0.464914	0.499957
Br131	Br	0.327407	-0.180626	-0.000058
Br132	Br	0.827407	0.319374	0.499942
H133	H	-0.180440	-0.881296	-0.000056
H134	H	0.319560	-0.381296	0.499944
H135	H	0.026443	-0.957144	-0.741996
H136	H	0.526443	-0.457144	-0.241996
H137	H	-0.563788	-0.768584	-0.000074
H138	H	-0.063788	-0.268584	0.499926
Br139	Br	0.420396	-0.502151	-0.000045
Br140	Br	0.920396	-0.002151	0.499955
H141	H	-0.249386	-0.753328	-0.000040
H142	H	0.250614	-0.253328	0.499960
Br143	Br	-0.061828	-0.901665	-0.618557
Br144	Br	0.438172	-0.401665	-0.118557
Br145	Br	0.322306	-1.143062	-0.381587
Br146	Br	0.822306	-0.643062	0.118413
Br147	Br	-0.061806	-0.901620	-0.381648
Br148	Br	0.438194	-0.401620	0.118352
H149	H	-0.175697	-1.276126	-0.000060
H150	H	0.324303	-0.776126	0.499940
Br151	Br	-0.066912	-0.864080	-0.000056
Br152	Br	0.433088	-0.364080	0.499944
Br153	Br	-0.004587	-0.937551	-0.230892
Br154	Br	0.495413	-0.437551	0.269108
Br155	Br	-0.076915	-0.363592	-0.000089
Br156	Br	0.423085	0.136408	0.499911
Br157	Br	0.265082	-1.107159	-0.769241
Br158	Br	0.765082	-0.607159	-0.269241
Br159	Br	0.265102	-1.107083	-0.230850
Br160	Br	0.765102	-0.607083	0.269150
H161	H	-0.109420	-0.716334	-0.000054
H162	H	0.390580	-0.216334	0.499946
H163	H	-0.112805	-0.546823	-0.000097
H164	H	0.387195	-0.046823	0.499903
Br165	Br	0.322316	-1.143091	-0.618476
Br166	Br	0.822316	-0.643091	-0.118476
H167	H	-0.385600	-0.713279	-0.000044
H168	H	0.114400	-0.213279	0.499956
H169	H	0.369919	-0.328377	-0.000052
H170	H	0.869919	0.171623	0.499948
H171	H	-0.604116	-1.079781	-0.000078
H172	H	-0.104116	-0.579781	0.499922
H173	H	-0.559044	-1.163405	-0.000067
H174	H	-0.059044	-0.663405	0.499933
Br175	Br	0.337419	-0.681110	-0.000032
Br176	Br	0.837419	-0.181110	0.499968
H177	H	-0.490113	-1.291360	-0.000080
H178	H	0.009887	-0.791360	0.499920
H179	H	-0.353893	-1.331414	-0.000078
H180	H	0.146107	-0.831414	0.499922
