data_functionalizedCrystal
_audit_creation_method	'MofGen! by Chris Wilmer'
_symmetry_space_group_name_H-M	'P1'
_symmetry_Int_Tables_number	1
_symmetry_cell_setting	triclinic
loop_
_symmetry_equiv_pos_as_xyz
  x,y,z
_cell_length_a	25.639242
_cell_length_b	25.639239
_cell_length_c	25.639233
_cell_angle_alpha	90.018747
_cell_angle_beta	90.022166
_cell_angle_gamma	90.034213
loop_
_atom_site_label
_atom_site_type_symbol
_atom_site_fract_x
_atom_site_fract_y
_atom_site_fract_z
Zn1	Zn	0.799225	-0.208277	0.295742
Zn2	Zn	1.299225	0.291723	0.795742
Zn3	Zn	0.799149	-0.295696	0.208307
Zn4	Zn	1.299149	0.204304	0.708307
Zn5	Zn	0.711801	-0.208269	0.208306
Zn6	Zn	1.211801	0.291731	0.708306
Zn7	Zn	0.711746	-0.295676	0.295696
Zn8	Zn	1.211746	0.204324	0.795696
O9	O	0.755480	-0.251979	0.252013
O10	O	1.255480	0.248021	0.752013
O11	O	0.872380	-0.219884	0.284163
O12	O	1.372380	0.280116	0.784163
O13	O	0.787553	-0.284103	0.135141
O14	O	1.287553	0.215897	0.635141
O15	O	0.723453	-0.135105	0.219924
O16	O	1.223453	0.364895	0.719924
O17	O	0.872324	-0.284111	0.219924
O18	O	1.372324	0.215889	0.719924
O19	O	0.787683	-0.135111	0.284163
O20	O	1.287683	0.364889	0.784163
O21	O	0.723379	-0.219871	0.135141
O22	O	1.223379	0.280129	0.635141
O23	O	0.638629	-0.219853	0.219880
O24	O	1.138629	0.280147	0.719880
O25	O	0.723360	-0.284078	0.368868
O26	O	1.223360	0.215922	0.868868
O27	O	0.638589	-0.284070	0.284085
O28	O	1.138589	0.215930	0.784085
O29	O	0.787630	-0.219866	0.368901
O30	O	1.287630	0.280134	0.868901
O31	O	0.787499	-0.368858	0.219880
O32	O	1.287499	0.131142	0.719880
O33	O	0.723286	-0.368844	0.284085
O34	O	1.223286	0.131156	0.784085
C35	C	0.619638	-0.251959	0.251977
C36	C	1.119638	0.248041	0.751977
C37	C	0.561524	-0.251963	0.251975
C38	C	1.061524	0.248037	0.751975
C39	C	0.755392	-0.387822	0.251989
C40	C	1.255392	0.112178	0.751989
C41	C	0.755403	-0.445936	0.251996
C42	C	1.255403	0.054064	0.751996
C43	C	0.201149	-0.285473	0.285413
C44	C	0.701149	0.214527	0.785413
C45	C	0.146544	-0.285477	0.285421
C46	C	0.646544	0.214523	0.785421
O47	O	0.118297	-0.313943	0.313821
O48	O	0.618297	0.186057	0.813821
N49	N	0.119241	-0.251994	0.252047
N50	N	0.619241	0.248006	0.752047
C51	C	0.146545	-0.218502	0.218666
C52	C	0.646545	0.281498	0.718666
O53	O	0.118308	-0.190022	0.190280
O54	O	0.618308	0.309978	0.690280
C55	C	0.201149	-0.218496	0.218661
C56	C	0.701149	0.281504	0.718661
C57	C	0.228449	-0.251985	0.252034
C58	C	0.728449	0.248015	0.752034
C59	C	0.228449	-0.318959	0.318783
C60	C	0.728449	0.181041	0.818783
C61	C	0.283049	-0.318956	0.318774
C62	C	0.783049	0.181044	0.818774
C63	C	0.310350	-0.285468	0.285395
C64	C	0.810350	0.214532	0.785395
C65	C	0.283049	-0.251983	0.252024
C66	C	0.783049	0.248017	0.752024
C67	C	0.228452	-0.185002	0.185283
C68	C	0.728452	0.314998	0.685283
C69	C	0.283059	-0.185000	0.185281
C70	C	0.783059	0.315000	0.685281
C71	C	0.310359	-0.218488	0.218654
C72	C	0.810359	0.281512	0.718654
C73	C	0.364950	-0.218492	0.218636
C74	C	0.864950	0.281508	0.718636
N75	N	0.392253	-0.251974	0.252010
N76	N	0.892253	0.248026	0.752010
C77	C	0.364953	-0.285463	0.285389
C78	C	0.864953	0.214537	0.785389
C79	C	0.031875	-0.218515	0.218680
C80	C	0.531875	0.281485	0.718680
C81	C	-0.022728	-0.218523	0.218683
C82	C	0.477272	0.281477	0.718683
C83	C	-0.022725	-0.285497	0.285438
C84	C	0.477275	0.214503	0.785438
C85	C	0.031878	-0.285492	0.285433
C86	C	0.531878	0.214508	0.785433
C87	C	0.059178	-0.251998	0.252054
C88	C	0.559178	0.248002	0.752054
C89	C	0.479618	-0.285455	0.285368
C90	C	0.979618	0.214545	0.785368
C91	C	0.534223	-0.285451	0.285354
C92	C	1.034223	0.214549	0.785354
C93	C	0.534216	-0.218475	0.218601
C94	C	1.034216	0.281525	0.718601
C95	C	0.479615	-0.218481	0.218612
C96	C	0.979615	0.281519	0.718612
C97	C	0.452318	-0.251972	0.252000
C98	C	0.952318	0.248028	0.752000
O99	O	0.393232	-0.190038	0.190252
O100	O	0.893232	0.309962	0.690252
O101	O	0.393197	-0.313933	0.313776
O102	O	0.893197	0.186067	0.813776
C103	C	0.789004	-0.806294	0.218638
C104	C	1.289004	-0.306294	0.718638
C105	C	0.789024	-0.860898	0.218645
C106	C	1.289024	-0.360898	0.718645
O107	O	0.817502	-0.889131	0.190257
O108	O	1.317502	-0.389131	0.690257
N109	N	0.755572	-0.888218	0.252048
N110	N	1.255572	-0.388218	0.752048
C111	C	0.722102	-0.860932	0.285449
C112	C	1.222102	-0.360932	0.785449
O113	O	0.693651	-0.889184	0.313861
O114	O	1.193651	-0.389184	0.813861
C115	C	0.722085	-0.806328	0.285444
C116	C	1.222085	-0.306328	0.785444
C117	C	0.755535	-0.779011	0.252036
C118	C	1.255535	-0.279011	0.752036
C119	C	0.822452	-0.778976	0.185233
C120	C	1.322452	-0.278976	0.685233
C121	C	0.822431	-0.724376	0.185226
C122	C	1.322431	-0.224376	0.685226
C123	C	0.788962	-0.697093	0.218623
C124	C	1.288962	-0.197093	0.718623
C125	C	0.755514	-0.724410	0.252028
C126	C	1.255514	-0.224410	0.752028
C127	C	0.688617	-0.779042	0.318847
C128	C	1.188617	-0.279042	0.818847
C129	C	0.688603	-0.724435	0.318840
C130	C	1.188603	-0.224435	0.818840
C131	C	0.722053	-0.697118	0.285432
C132	C	1.222053	-0.197118	0.785432
C133	C	0.722024	-0.642527	0.285418
C134	C	1.222024	-0.142527	0.785418
N135	N	0.755475	-0.615206	0.252016
N136	N	1.255475	-0.115206	0.752016
C137	C	0.788944	-0.642490	0.218618
C138	C	1.288944	-0.142490	0.718618
C139	C	0.722141	-0.975602	0.285457
C140	C	1.222141	-0.475602	0.785457
C141	C	0.722155	-1.030204	0.285459
C142	C	1.222155	-0.530204	0.785459
C143	C	0.789078	-1.030167	0.218656
C144	C	1.289078	-0.530167	0.718656
C145	C	0.789061	-0.975564	0.218652
C146	C	1.289061	-0.475564	0.718652
C147	C	0.755593	-0.948282	0.252055
C148	C	1.255593	-0.448282	0.752055
C149	C	0.788897	-0.527824	0.218605
C150	C	1.288897	-0.027824	0.718605
C151	C	0.788872	-0.473219	0.218599
C152	C	1.288872	0.026781	0.718599
C153	C	0.721951	-0.473261	0.285403
C154	C	1.221951	0.026739	0.785403
C155	C	0.721974	-0.527862	0.285408
C156	C	1.221974	-0.027862	0.785408
C157	C	0.755452	-0.555142	0.252007
C158	C	1.255452	-0.055142	0.752007
O159	O	0.693562	-0.614260	0.313793
O160	O	1.193562	-0.114260	0.813793
O161	O	0.817396	-0.614231	0.190216
O162	O	1.317396	-0.114231	0.690216
C163	C	0.891853	-0.252000	0.252049
C164	C	1.391853	0.248000	0.752049
C165	C	0.949967	-0.252009	0.252064
C166	C	1.449967	0.247991	0.752064
C167	C	0.755497	-0.251970	0.388386
C168	C	1.255497	0.248030	0.888386
C169	C	0.755504	-0.251966	0.446500
C170	C	1.255504	0.248034	0.946500
C171	C	0.755583	-0.115606	0.252048
C172	C	1.255583	0.384394	0.752048
C173	C	0.755627	-0.057492	0.252064
C174	C	1.255627	0.442508	0.752064
C175	C	0.755494	-0.251951	0.116170
C176	C	1.255494	0.248049	0.616170
C177	C	0.755588	-0.251807	0.058057
C178	C	1.255588	0.248193	0.558057
C179	C	0.789012	-0.218432	0.806886
C180	C	1.289012	0.281568	1.306886
C181	C	0.789019	-0.218417	0.861491
C182	C	1.289019	0.281583	1.361491
O183	O	0.817466	-0.189967	0.889747
O184	O	1.317466	0.310033	1.389747
N185	N	0.755562	-0.251844	0.888783
N186	N	1.255562	0.248156	1.388783
C187	C	0.722093	-0.285283	0.861468
C188	C	1.222093	0.214717	1.361468
O189	O	0.693636	-0.313713	0.889695
O190	O	1.193636	0.186287	1.389695
C191	C	0.722084	-0.285294	0.806864
C192	C	1.222084	0.214706	1.306864
C193	C	0.755547	-0.251870	0.779575
C194	C	1.255547	0.248130	1.279575
C195	C	0.822472	-0.185009	0.779597
C196	C	1.322472	0.314991	1.279597
C197	C	0.822466	-0.185025	0.724997
C198	C	1.322466	0.314975	1.224997
C199	C	0.789000	-0.218462	0.697685
C200	C	1.289000	0.281538	1.197685
C201	C	0.755541	-0.251885	0.724974
C202	C	1.255541	0.248115	1.224974
C203	C	0.688613	-0.318731	0.779550
C204	C	1.188613	0.181269	1.279550
C205	C	0.688607	-0.318739	0.724943
C206	C	1.188607	0.181261	1.224943
C207	C	0.722069	-0.285314	0.697654
C208	C	1.222069	0.214686	1.197654
C209	C	0.722070	-0.285338	0.643063
C210	C	1.222070	0.214662	1.143063
N211	N	0.755526	-0.251912	0.615771
N212	N	1.255526	0.248088	1.115771
C213	C	0.788992	-0.218474	0.643082
C214	C	1.288992	0.281526	1.143082
C215	C	0.722113	-0.285256	0.976138
C216	C	1.222113	0.214744	1.476138
C217	C	0.722124	-0.285247	1.030741
C218	C	1.222124	0.214753	1.530741
C219	C	0.789049	-0.218381	1.030760
C220	C	1.289049	0.281619	1.530760
C221	C	0.789041	-0.218392	0.976157
C222	C	1.289041	0.281608	1.476157
C223	C	0.755570	-0.251829	0.948846
C224	C	1.255570	0.248171	1.448846
C225	C	0.788977	-0.218509	0.528417
C226	C	1.288977	0.281491	1.028417
C227	C	0.788970	-0.218529	0.473811
C228	C	1.288970	0.281471	0.973811
C229	C	0.722043	-0.285393	0.473797
C230	C	1.222043	0.214607	0.973797
C231	C	0.722052	-0.285375	0.528397
C232	C	1.222052	0.214625	1.028397
C233	C	0.755521	-0.251929	0.555706
C234	C	1.255521	0.248071	1.055706
O235	O	0.693635	-0.313773	0.614771
O236	O	1.193635	0.186227	1.114771
O237	O	0.817439	-0.190044	0.614847
O238	O	1.317439	0.309956	1.114847
H239	H	0.556449	-0.312723	0.312530
H240	H	1.056449	0.187277	0.812530
C241	C	0.449599	-0.322301	0.322092
C242	C	0.949599	0.177699	0.822092
N243	N	0.426988	-0.350057	0.349750
N244	N	0.926988	0.149943	0.849750
H245	H	0.661364	-0.345949	0.801759
H246	H	1.161364	0.154051	1.301759
C247	C	0.685176	-0.557912	0.322156
C248	C	1.185176	-0.057912	0.822156
N249	N	0.657462	-0.580542	0.349840
N250	N	1.157462	-0.080542	0.849840
C251	C	0.061903	-0.322328	0.322148
C252	C	0.561903	0.177672	0.822148
N253	N	0.084516	-0.350074	0.349805
N254	N	0.584516	0.149926	0.849805
H255	H	0.556454	-0.191211	0.191422
H256	H	1.056454	0.308789	0.691422
H257	H	0.849709	-0.801185	0.158037
H258	H	1.349709	-0.301185	0.658037
C259	C	0.859270	-0.148247	0.694986
C260	C	1.359270	0.351753	1.194986
N261	N	0.886991	-0.120541	0.672385
N262	N	1.386991	0.379459	1.172385
C263	C	0.198427	-0.355808	0.355501
C264	C	0.698427	0.144192	0.855501
N265	N	0.175818	-0.383569	0.383154
N266	N	0.675818	0.116431	0.883154
H267	H	0.816300	-0.953325	0.191448
H268	H	1.316300	-0.453325	0.691448
H269	H	0.694798	-0.312619	0.451550
H270	H	1.194798	0.187381	0.951550
H271	H	0.816221	-0.191310	0.451595
H272	H	1.316221	0.308690	0.951595
H273	H	0.661345	-0.345963	0.702710
H274	H	1.161345	0.154037	1.202710
C275	C	0.685245	-0.322147	0.558416
C276	C	1.185245	0.177853	1.058416
N277	N	0.657517	-0.349841	0.581023
N278	N	1.157517	0.150159	1.081023
H279	H	0.694912	-1.052442	0.312659
H280	H	1.194912	-0.552442	0.812659
H281	H	0.816333	-1.052391	0.191464
H282	H	1.316333	-0.552391	0.691464
C283	C	0.685323	-0.945597	0.322207
C284	C	1.185323	-0.445597	0.822207
N285	N	0.657595	-0.922999	0.349890
N286	N	1.157595	-0.422999	0.849890
H287	H	-0.044963	-0.312763	0.312619
H288	H	0.455037	0.187237	0.812619
H289	H	0.206233	-0.157734	0.158106
H290	H	0.706233	0.342266	0.658106
C291	C	0.313072	-0.355794	0.355489
C292	C	0.813072	0.144206	0.855489
N293	N	0.335682	-0.383542	0.383146
N294	N	0.835682	0.116458	0.883146
C295	C	0.449584	-0.181646	0.181897
C296	C	0.949584	0.318354	0.681897
N297	N	0.426969	-0.153897	0.154245
N298	N	0.926969	0.346103	0.654245
C299	C	0.825798	-0.181719	0.558448
C300	C	1.325798	0.318281	1.058448
N301	N	0.853534	-0.154012	0.581068
N302	N	1.353534	0.345988	1.081068
H303	H	0.816111	-0.450979	0.191392
H304	H	1.316111	0.049021	0.691392
H305	H	0.849670	-0.702137	0.158024
H306	H	1.349670	-0.202137	0.658024
C307	C	-0.052752	-0.181686	0.181967
C308	C	0.447248	0.318314	0.681967
N309	N	-0.075364	-0.153936	0.154314
N310	N	0.424636	0.346064	0.654314
H311	H	0.661376	-0.801275	0.346049
H312	H	1.161376	-0.301275	0.846049
H313	H	0.694699	-0.451039	0.312594
H314	H	1.194699	0.048961	0.812594
H315	H	0.661350	-0.702225	0.346042
H316	H	1.161350	-0.202225	0.846042
H317	H	0.849723	-0.157777	0.801828
H318	H	1.349723	0.342223	1.301828
H319	H	0.816288	-0.191174	0.953941
H320	H	1.316288	0.308826	1.453941
H321	H	0.816298	-0.191153	1.053007
H322	H	1.316298	0.308847	1.553007
H323	H	0.694881	-0.312471	1.052955
H324	H	1.194881	0.187529	1.552955
H325	H	0.694857	-0.312487	0.953905
H326	H	1.194857	0.187513	1.453905
C327	C	0.061899	-0.181674	0.181953
C328	C	0.561899	0.318326	0.681953
N329	N	0.084511	-0.153925	0.154289
N330	N	0.584511	0.346075	0.654289
C331	C	0.825721	-0.557825	0.181859
C332	C	1.325721	-0.057825	0.681859
N333	N	0.853454	-0.580421	0.154179
N334	N	1.353454	-0.080421	0.654179
C335	C	0.313085	-0.148154	0.148559
C336	C	0.813085	0.351846	0.648559
N337	N	0.335699	-0.120404	0.120899
N338	N	0.835699	0.379596	0.620899
