data_functionalizedCrystal
_audit_creation_method	'MofGen! by Chris Wilmer'
_symmetry_space_group_name_H-M	'P1'
_symmetry_Int_Tables_number	1
_symmetry_cell_setting	triclinic
loop_
_symmetry_equiv_pos_as_xyz
  x,y,z
_cell_length_a	15.944499
_cell_length_b	15.944499
_cell_length_c	16.176319
_cell_angle_alpha	89.996444
_cell_angle_beta	89.989994
_cell_angle_gamma	83.477610
loop_
_atom_site_label
_atom_site_type_symbol
_atom_site_fract_x
_atom_site_fract_y
_atom_site_fract_z
O1	O	1.114534	0.108130	-0.068790
O2	O	0.869976	0.121532	-0.068780
O3	O	0.998956	-0.007448	-0.068787
O4	O	0.985554	0.237110	-0.068783
O5	O	0.998939	-0.007456	0.068706
O6	O	0.869959	0.121524	0.068713
O7	O	1.114517	0.108122	0.068703
Cu8	Cu	0.992236	0.114822	0.081262
Cu9	Cu	0.992257	0.114832	-0.081339
O10	O	0.985537	0.237102	0.068710
C11	C	0.838673	0.120979	-0.000032
C12	C	0.745425	0.119334	-0.000029
C13	C	0.453875	0.194268	-0.000040
C14	C	0.514920	0.155320	-0.067833
C15	C	0.409789	0.113358	-0.000048
C16	C	0.514889	0.155290	0.067724
C17	C	0.574698	0.116298	-0.000037
C18	C	0.469607	0.074387	-0.067897
C19	C	0.469569	0.074368	0.067721
C20	C	0.530596	0.035361	-0.000089
C21	C	0.314790	0.111666	-0.000055
C22	C	0.669696	0.117984	-0.000036
C23	C	0.998399	-0.038747	-0.000042
C24	C	0.996754	-0.131995	-0.000048
C25	C	1.071688	-0.423545	-0.000047
C26	C	1.032726	-0.362516	0.067749
C27	C	0.990778	-0.467630	-0.000039
C28	C	1.032722	-0.362514	-0.067809
C29	C	0.993718	-0.302722	-0.000045
C30	C	0.951794	-0.407830	0.067813
C31	C	0.951801	-0.407834	-0.067805
C32	C	0.912781	-0.346824	0.000007
C33	C	0.989086	-0.562630	-0.000034
C34	C	0.995404	-0.207723	-0.000043
C35	C	1.145820	0.108675	-0.000046
C36	C	1.239068	0.110320	-0.000055
C37	C	0.986094	0.268400	-0.000037
C38	C	0.987739	0.361648	-0.000036
N39	N	0.992227	0.114815	0.195628
N40	N	0.992272	0.114832	-0.195705
C41	C	1.049357	0.057726	0.238889
C42	C	1.049361	0.057725	0.325436
C43	C	0.992239	0.114817	0.368720
C44	C	0.935104	0.171909	0.325453
C45	C	0.935096	0.171905	0.238907
C46	C	0.935132	0.171925	0.674481
C47	C	0.935146	0.171926	0.761033
C48	C	1.049398	0.057744	0.761010
C49	C	1.049390	0.057741	0.674464
C50	C	0.992252	0.114829	0.631204
C51	C	0.992247	0.114828	0.537360
C52	C	0.992248	0.114823	0.462563
H53	H	0.534950	0.189522	0.125036
N54	N	1.155913	-0.465395	0.000019
N55	N	1.180676	-0.513494	-0.058209
H56	H	1.240158	-0.543054	-0.058160
H57	H	0.449451	0.040171	0.125036
N58	N	1.075655	-0.337333	0.139645
N59	N	1.151147	-0.365142	0.151721
H60	H	1.181470	-0.347360	0.202496
H61	H	0.420532	0.261416	-0.000105
N62	N	0.908910	-0.433079	-0.139693
N63	N	0.843856	-0.469400	-0.132188
H64	H	0.813570	-0.487235	-0.182965
N65	N	0.908886	-0.432899	0.139786
N66	N	0.900699	-0.509044	0.151418
H67	H	0.870397	-0.526752	0.202248
H68	H	0.563786	-0.031847	-0.000126
H69	H	0.845575	-0.313629	0.000050
H70	H	1.066966	-0.342437	-0.125119
H71	H	1.095876	0.011238	0.203652
H72	H	1.095880	0.011238	0.360659
H73	H	0.888627	0.218420	0.796273
H74	H	1.095907	0.011253	0.639225
H75	H	0.888610	0.218410	0.639266
H76	H	0.535019	0.189548	-0.125143
N77	N	0.444573	0.031482	-0.139871
N78	N	0.407729	-0.033251	-0.132472
H79	H	0.390048	-0.063552	-0.183303
H80	H	0.888590	0.218392	0.360700
H81	H	1.095920	0.011257	0.796241
H82	H	0.888574	0.218392	0.203685
