data_functionalizedCrystal
_audit_creation_method	'MofGen! by Chris Wilmer'
_symmetry_space_group_name_H-M	'P1'
_symmetry_Int_Tables_number	1
_symmetry_cell_setting	triclinic
loop_
_symmetry_equiv_pos_as_xyz
  x,y,z
_cell_length_a	13.897449
_cell_length_b	12.645330
_cell_length_c	13.897441
_cell_angle_alpha	89.972699
_cell_angle_beta	89.979267
_cell_angle_gamma	90.018972
loop_
_atom_site_label
_atom_site_type_symbol
_atom_site_fract_x
_atom_site_fract_y
_atom_site_fract_z
Zn1	Zn	1.474703	-0.421969	-0.545403
Zn2	Zn	1.808036	-0.088636	-0.212070
Zn3	Zn	2.141369	0.244697	0.121263
Zn4	Zn	1.474597	-0.599265	-0.384114
Zn5	Zn	1.807930	-0.265932	-0.050781
Zn6	Zn	2.141263	0.067402	0.282553
Zn7	Zn	1.313392	-0.422020	-0.384122
Zn8	Zn	1.646725	-0.088686	-0.050788
Zn9	Zn	1.980058	0.244647	0.282545
Zn10	Zn	1.313373	-0.599195	-0.545367
Zn11	Zn	1.646707	-0.265862	-0.212033
Zn12	Zn	1.980040	0.067471	0.121300
O13	O	1.394016	-0.510612	-0.464751
O14	O	1.727349	-0.177279	-0.131418
O15	O	2.060683	0.156054	0.201915
O16	O	1.609670	-0.445496	-0.524020
O17	O	1.943003	-0.112163	-0.190687
O18	O	2.276337	0.221171	0.142647
O19	O	1.453176	-0.575803	-0.249133
O20	O	1.786509	-0.242470	0.084200
O21	O	2.119842	0.090863	0.417533
O22	O	1.334842	-0.273666	-0.405535
O23	O	1.668175	0.059667	-0.072201
O24	O	2.001509	0.393001	0.261132
O25	O	1.609592	-0.575754	-0.405521
O26	O	1.942926	-0.242421	-0.072188
O27	O	2.276259	0.090912	0.261145
O28	O	1.453356	-0.273629	-0.524028
O29	O	1.786690	0.059705	-0.190694
O30	O	2.120023	0.393038	0.142639
O31	O	1.334739	-0.445582	-0.249139
O32	O	1.668073	-0.112249	0.084194
O33	O	2.001406	0.221085	0.417528
O34	O	1.178408	-0.445514	-0.405499
O35	O	1.511741	-0.112181	-0.072166
O36	O	1.845074	0.221152	0.261168
O37	O	1.334811	-0.575636	-0.680353
O38	O	1.668144	-0.242302	-0.347020
O39	O	2.001478	0.091031	-0.013686
O40	O	1.178394	-0.575684	-0.523965
O41	O	1.511728	-0.242351	-0.190632
O42	O	1.845061	0.090982	0.142702
O43	O	1.453339	-0.445428	-0.680380
O44	O	1.786672	-0.112095	-0.347047
O45	O	2.120005	0.221238	-0.013713
O46	O	1.453158	-0.747603	-0.405486
O47	O	1.786491	-0.414270	-0.072153
O48	O	2.119825	-0.080936	0.261181
O49	O	1.334708	-0.747552	-0.523957
O50	O	1.668041	-0.414218	-0.190624
O51	O	2.001375	-0.080885	0.142709
C52	C	1.143402	-0.510598	-0.464729
C53	C	1.476735	-0.177265	-0.131396
C54	C	1.810068	0.156069	0.201937
C55	C	1.036188	-0.510618	-0.464743
C56	C	1.369521	-0.177284	-0.131410
C57	C	1.702855	0.156049	0.201924
C58	C	0.839893	-0.510621	-0.464768
C59	C	1.173226	-0.177288	-0.131435
C60	C	1.506559	0.156045	0.201899
C61	C	0.949125	-0.510616	-0.464751
C62	C	1.282459	-0.177283	-0.131418
C63	C	1.615792	0.156051	0.201915
C64	C	1.393946	-0.786042	-0.464738
C65	C	1.727279	-0.452709	-0.131405
C66	C	2.060612	-0.119375	0.201929
C67	C	1.394004	-0.903872	-0.464764
C68	C	1.727337	-0.570539	-0.131431
C69	C	2.060671	-0.237205	0.201902
C70	C	1.319794	-1.071448	-0.539525
C71	C	1.653128	-0.738115	-0.206191
C72	C	1.986461	-0.404781	0.127142
C73	C	1.319415	-0.948889	-0.539284
C74	C	1.652748	-0.615555	-0.205951
C75	C	1.986081	-0.282222	0.127382
C76	C	1.366485	-0.948472	-0.363109
C77	C	1.699818	-0.615138	-0.029775
C78	C	2.033151	-0.281805	0.303558
C79	C	1.366032	-1.071070	-0.363563
C80	C	1.699365	-0.737737	-0.030229
C81	C	2.032698	-0.404403	0.303104
C82	C	1.496187	-1.070958	-0.490835
C83	C	1.829520	-0.737624	-0.157502
C84	C	2.162853	-0.404291	0.175831
C85	C	1.495561	-0.948351	-0.493058
C86	C	1.828894	-0.615017	-0.159725
C87	C	2.162227	-0.281684	0.173609
C88	C	1.645609	-0.510627	-0.464774
C89	C	1.978942	-0.177294	-0.131441
C90	C	2.312276	0.156039	0.201893
C91	C	1.752823	-0.510634	-0.464784
C92	C	2.086156	-0.177300	-0.131450
C93	C	2.419490	0.156033	0.201883
C94	C	1.394085	-0.510519	-0.716344
C95	C	1.727418	-0.177185	-0.383011
C96	C	2.060751	0.156148	-0.049678
C97	C	1.394114	-0.510479	-0.823558
C98	C	1.727447	-0.177145	-0.490225
C99	C	2.060780	0.156188	-0.156892
C100	C	1.394113	-0.234107	-0.464786
C101	C	1.727446	0.099226	-0.131453
C102	C	2.060780	0.432560	0.201881
C103	C	1.394154	-0.116277	-0.464801
C104	C	1.727488	0.217056	-0.131467
C105	C	2.060821	0.550390	0.201866
C106	C	1.394140	-0.510407	-1.019854
C107	C	1.727473	-0.177074	-0.686520
C108	C	2.060807	0.156260	-0.353187
C109	C	1.394122	-0.510450	-0.910621
C110	C	1.727456	-0.177116	-0.577288
C111	C	2.060789	0.156217	-0.243954
C112	C	1.394003	-0.510629	-0.214137
C113	C	1.727337	-0.177296	0.119196
C114	C	2.060670	0.156038	0.452530
C115	C	1.394161	-0.510370	-0.106924
C116	C	1.727495	-0.177037	0.226410
C117	C	2.060828	0.156296	0.559743
H118	H	1.336632	-0.918731	-0.614661
H119	H	1.669966	-0.585397	-0.281328
H120	H	2.003299	-0.252064	0.052005
O121	O	1.569627	-1.109592	-0.418907
O122	O	1.902960	-0.776259	-0.085574
O123	O	2.236294	-0.442925	0.247759
H124	H	1.533689	-1.160793	-0.364855
H125	H	1.867022	-0.827459	-0.031521
H126	H	2.200355	-0.494126	0.301812
O127	O	1.529443	-1.111790	-0.587361
O128	O	1.862777	-0.778457	-0.254027
O129	O	2.196110	-0.445124	0.079306
H130	H	1.473612	-1.164848	-0.617858
H131	H	1.806946	-0.831514	-0.284525
H132	H	2.140279	-0.498181	0.048809
O133	O	1.523072	-0.909719	-0.592147
O134	O	1.856406	-0.576386	-0.258813
O135	O	2.189739	-0.243053	0.074520
H136	H	1.464669	-0.859046	-0.621131
H137	H	1.798002	-0.525713	-0.287797
H138	H	2.131335	-0.192380	0.045536
H139	H	1.553880	-0.917701	-0.442596
H140	H	1.887213	-0.584368	-0.109263
H141	H	2.220547	-0.251035	0.224070
H142	H	1.336854	-1.100856	-0.615149
H143	H	1.670187	-0.767523	-0.281816
H144	H	2.003521	-0.434189	0.051518
H145	H	1.417842	-1.100729	-0.305989
H146	H	1.751175	-0.767395	0.027344
H147	H	2.084509	-0.434062	0.360678
H148	H	1.418928	-0.919315	-0.305912
H149	H	1.752261	-0.585981	0.027421
H150	H	2.085594	-0.252648	0.360754
O151	O	1.220219	-1.112364	-0.516964
O152	O	1.553552	-0.779031	-0.183630
O153	O	1.886886	-0.445698	0.149703
H154	H	1.220189	-1.200042	-0.520687
H155	H	1.553523	-0.866709	-0.187354
H156	H	1.886856	-0.533375	0.145980
O157	O	1.219227	-0.910151	-0.516413
O158	O	1.552561	-0.576818	-0.183080
O159	O	1.885894	-0.243485	0.150254
H160	H	1.170861	-0.978985	-0.505473
H161	H	1.504195	-0.645652	-0.172140
H162	H	1.837528	-0.312319	0.161193
H163	H	1.291445	-1.099764	-0.341508
H164	H	1.624779	-0.766431	-0.008175
H165	H	1.958112	-0.433097	0.325159
H166	H	1.292676	-0.917863	-0.340655
H167	H	1.626009	-0.584530	-0.007322
H168	H	1.959342	-0.251197	0.326011
