data_functionalizedCrystal
_audit_creation_method	'MofGen! by Chris Wilmer'
_symmetry_space_group_name_H-M	'P1'
_symmetry_Int_Tables_number	1
_symmetry_cell_setting	triclinic
loop_
_symmetry_equiv_pos_as_xyz
  x,y,z
_cell_length_a	10.654550
_cell_length_b	9.130307
_cell_length_c	10.654551
_cell_angle_alpha	90.000482
_cell_angle_beta	84.485132
_cell_angle_gamma	90.005048
loop_
_atom_site_label
_atom_site_type_symbol
_atom_site_fract_x
_atom_site_fract_y
_atom_site_fract_z
O1	O	1.667837	0.121910	0.176396
O2	O	1.302358	0.121886	0.193203
O3	O	1.493500	0.121899	0.002060
O4	O	1.476695	0.121896	0.367539
O5	O	1.493494	-0.121700	0.002058
O6	O	1.302352	-0.121713	0.193201
O7	O	1.667830	-0.121689	0.176395
Cu8	Cu	1.485091	-0.143944	0.184797
Cu9	Cu	1.485098	0.144140	0.184800
O10	O	1.476689	-0.121703	0.367537
C11	C	1.255557	0.000083	0.191968
C12	C	1.116114	0.000074	0.188276
N13	N	1.485095	-0.346567	0.184795
C14	C	1.036629	0.000095	0.300817
C15	C	0.905608	0.000120	0.297341
C16	C	0.933570	0.000110	0.068771
C17	C	1.064589	0.000074	0.072249
C18	C	1.088154	0.000094	0.416844
C19	C	1.008667	0.000116	0.529395
C20	C	0.877647	0.000142	0.525918
C21	C	0.826112	0.000145	0.409891
C22	C	1.654420	-0.346545	0.015588
C23	C	1.739091	-0.423200	-0.069011
C24	C	1.739104	-0.576534	-0.069012
C25	C	1.654434	-0.653215	0.015593
C26	C	1.569763	-0.576559	0.100193
C27	C	1.569762	-0.423222	0.100187
C28	C	1.400433	-0.576581	0.269392
C29	C	1.400424	-0.423248	0.269401
C30	C	1.315763	-0.653262	0.353997
C31	C	1.231096	-0.576607	0.438605
C32	C	1.231088	-0.423264	0.438603
C33	C	1.315753	-0.346592	0.354000
C34	C	1.714632	0.000117	0.177629
C35	C	1.854075	0.000135	0.181321
C36	C	1.492263	0.000103	-0.044739
C37	C	1.488570	0.000112	-0.184182
N38	N	1.485104	0.346763	0.184792
C39	C	1.486841	0.132895	-0.249693
C40	C	1.483361	0.132889	-0.380713
C41	C	1.483344	-0.132696	-0.380701
C42	C	1.486815	-0.132688	-0.249681
C43	C	1.488596	0.265696	-0.184193
C44	C	1.486869	0.398490	-0.249704
C45	C	1.483389	0.398483	-0.380724
C46	C	1.481636	0.265682	-0.446234
C47	C	1.477926	0.000097	0.414336
C48	C	1.481619	0.000097	0.553779
H49	H	1.050636	0.000101	0.623860
C50	C	1.139113	-0.660050	0.530249
C51	C	1.061690	-0.748111	0.462616
C52	C	0.976952	-0.825021	0.546997
H53	H	1.088564	-0.592612	0.580676
H54	H	1.184708	-0.719950	0.582930
H55	H	1.016099	-0.688216	0.409956
H56	H	1.112204	-0.815576	0.412193
H57	H	1.022547	-0.884921	0.599678
H58	H	0.926412	-0.757572	0.597420
H59	H	0.924418	-0.884789	0.501120
C60	C	1.481699	0.542544	-0.452036
C61	C	1.587545	0.550283	-0.540471
C62	C	1.586028	0.682966	-0.606195
H63	H	1.483302	0.621752	-0.394409
H64	H	1.407270	0.548076	-0.494279
H65	H	1.661955	0.544765	-0.498230
H66	H	1.585965	0.471106	-0.598124
H67	H	1.511598	0.688499	-0.648438
H68	H	1.587627	0.762164	-0.548558
H69	H	1.657836	0.688229	-0.666213
C70	C	0.877379	0.000204	-0.057068
C71	C	0.745626	0.000282	-0.036025
C72	C	0.693823	0.000394	-0.151920
H73	H	0.904429	-0.084726	-0.103557
H74	H	0.904549	0.085182	-0.103465
H75	H	0.718468	-0.084687	0.010352
H76	H	0.718542	0.085206	0.010444
H77	H	0.720993	0.085372	-0.198317
H78	H	0.720881	-0.084537	-0.198400
H79	H	0.604424	0.000461	-0.137658
H80	H	1.478784	0.265687	-0.552917
C81	C	1.139101	-0.340308	0.530599
C82	C	1.064982	-0.440287	0.604704
C83	C	0.980242	-0.363928	0.689476
H84	H	1.086316	-0.280493	0.485075
H85	H	1.184689	-0.280518	0.583379
H86	H	1.019398	-0.500051	0.551930
H87	H	1.117733	-0.500104	0.650254
H88	H	1.025829	-0.304138	0.742256
H89	H	0.927465	-0.304116	0.643942
H90	H	0.929950	-0.431751	0.739774
C91	C	1.488554	0.542566	-0.178409
C92	C	1.382701	0.550297	-0.089984
C93	C	1.384208	0.682996	-0.024280
H94	H	1.486954	0.621761	-0.236048
H95	H	1.562979	0.548127	-0.136160
H96	H	1.308295	0.544750	-0.132231
H97	H	1.384278	0.471133	-0.032319
H98	H	1.458633	0.688557	0.017970
H99	H	1.382612	0.762180	-0.081928
H100	H	1.312396	0.688253	0.035732
C101	C	1.831093	-0.659951	-0.160665
C102	C	1.908527	-0.747992	-0.093039
C103	C	1.993270	-0.824869	-0.177428
H104	H	1.881635	-0.592494	-0.211088
H105	H	1.785503	-0.719862	-0.213349
H106	H	1.954114	-0.688086	-0.040377
H107	H	1.858020	-0.815477	-0.042620
H108	H	1.947680	-0.884780	-0.230112
H109	H	2.043803	-0.757401	-0.227847
H110	H	2.045811	-0.884623	-0.131557
H111	H	1.194836	0.000080	0.419687
C112	C	0.791135	0.000091	0.647972
C113	C	0.665365	0.000082	0.620100
C114	C	0.585638	0.000026	0.732508
H115	H	0.806724	0.085017	0.695580
H116	H	0.806768	-0.084891	0.695514
H117	H	0.649739	0.085056	0.572579
H118	H	0.649737	-0.084837	0.572509
H119	H	0.601271	-0.084956	0.780050
H120	H	0.601238	0.084953	0.780108
H121	H	0.500295	0.000006	0.713613
H122	H	1.808027	-0.360753	-0.137899
H123	H	0.719425	0.000143	0.407069
C124	C	1.151049	0.000286	-0.049838
C125	C	1.227142	0.125572	-0.054498
C126	C	1.306818	0.125800	-0.166938
H127	H	1.101760	0.000378	-0.119542
H128	H	1.202790	-0.084633	-0.053234
H129	H	1.175407	0.210469	-0.051114
H130	H	1.276457	0.125507	0.015180
H131	H	1.358558	0.040880	-0.170334
H132	H	1.257519	0.125887	-0.236633
H133	H	1.358464	0.210797	-0.170109
H134	H	1.654429	-0.221692	0.015591
H135	H	1.654439	-0.778067	0.015577
H136	H	1.315771	-0.778115	0.353988
H137	H	1.481918	-0.240816	-0.434049
H138	H	1.315759	-0.221740	0.353996
H139	H	1.491434	0.265716	-0.077510
H140	H	1.488196	-0.240812	-0.196338
