data_functionalizedCrystal
_audit_creation_method	'MofGen! by Chris Wilmer'
_symmetry_space_group_name_H-M	'P1'
_symmetry_Int_Tables_number	1
_symmetry_cell_setting	triclinic
loop_
_symmetry_equiv_pos_as_xyz
  x,y,z
_cell_length_a	23.532407
_cell_length_b	16.974885
_cell_length_c	15.455313
_cell_angle_alpha	96.310633
_cell_angle_beta	87.338236
_cell_angle_gamma	83.122685
loop_
_atom_site_label
_atom_site_type_symbol
_atom_site_fract_x
_atom_site_fract_y
_atom_site_fract_z
O1	O	0.757847	0.092822	-0.065563
O2	O	1.257847	0.592822	0.434437
O3	O	0.591996	0.106757	-0.064599
O4	O	1.091996	0.606757	0.435401
O5	O	0.679825	-0.015739	-0.073181
O6	O	1.179825	0.484261	0.426819
O7	O	0.670018	0.215318	-0.056981
O8	O	1.170018	0.715318	0.443019
O9	O	0.674802	-0.008763	0.071570
O10	O	1.174802	0.491237	0.571570
O11	O	0.586973	0.113733	0.080152
O12	O	1.086973	0.613733	0.580152
O13	O	0.752824	0.099799	0.079188
O14	O	1.252824	0.599799	0.579188
Cu15	Cu	0.669440	0.107403	0.092887
Cu16	Cu	1.169440	0.607403	0.592887
Cu17	Cu	0.675380	0.099153	-0.078298
Cu18	Cu	1.175380	0.599153	0.421702
O19	O	0.664995	0.222294	0.087770
O20	O	1.164995	0.722294	0.587770
C21	C	0.568268	0.109890	0.007750
C22	C	1.068268	0.609890	0.507750
C23	C	0.505050	0.108823	0.007670
C24	C	1.005050	0.608823	0.507670
C25	C	0.677034	-0.041806	-0.002880
C26	C	1.177034	0.458194	0.497120
C27	C	0.676193	-0.129872	-0.009060
C28	C	1.176193	0.370128	0.490940
C29	C	0.673059	-0.167449	0.066936
C30	C	1.173059	0.332551	0.566936
C31	C	0.672273	-0.250197	0.061121
C32	C	1.172273	0.249803	0.561121
C33	C	0.674617	-0.295365	-0.020691
C34	C	1.174617	0.204635	0.479309
C35	C	0.677753	-0.257782	-0.096693
C36	C	1.177753	0.242218	0.403307
C37	C	0.678543	-0.175036	-0.090877
C38	C	1.178543	0.324964	0.409123
C39	C	0.672553	-0.543245	-0.046545
C40	C	1.172553	-0.043245	0.453455
C41	C	0.671761	-0.625996	-0.052355
C42	C	1.171761	-0.125996	0.447645
C43	C	0.666282	-0.618406	0.105460
C44	C	1.166282	-0.118406	0.605460
C45	C	0.667069	-0.535658	0.111268
C46	C	1.167069	-0.035658	0.611268
C47	C	0.670208	-0.498083	0.035266
C48	C	1.170208	0.001917	0.535266
N49	N	0.673812	-0.379946	-0.026636
N50	N	1.173812	0.120054	0.473364
N51	N	0.671017	-0.413504	0.041213
N52	N	1.171017	0.086496	0.541213
C53	C	0.238817	0.031933	0.002302
C54	C	0.738817	0.531933	0.502302
C55	C	0.298218	0.032924	0.002372
C56	C	0.798218	0.532924	0.502372
O57	O	0.334909	-0.028070	-0.001875
O58	O	0.834909	0.471930	0.498125
N59	N	0.320906	0.105748	0.007472
N60	N	0.820906	0.605748	0.507472
C61	C	0.284189	0.177586	0.012512
C62	C	0.784189	0.677586	0.512512
O63	O	0.308942	0.239619	0.016857
O64	O	0.808942	0.739619	0.516857
C65	C	0.224789	0.176594	0.012448
C66	C	0.724789	0.676594	0.512448
C67	C	0.202105	0.103765	0.007339
C68	C	0.702105	0.603765	0.507339
C69	C	0.216132	-0.040889	-0.002805
C70	C	0.716132	0.459111	0.497195
C71	C	0.156735	-0.041880	-0.002876
C72	C	0.656735	0.458120	0.497124
C73	C	0.120023	0.029952	0.002161
C74	C	0.620023	0.529952	0.502161
C75	C	0.142708	0.102775	0.007268
C76	C	0.642708	0.602775	0.507268
C77	C	0.188074	0.248431	0.017495
C78	C	0.688074	0.748431	0.517495
C79	C	0.128670	0.247433	0.017432
C80	C	0.628670	0.747433	0.517432
C81	C	0.105986	0.174605	0.012323
C82	C	0.605986	0.674605	0.512323
C83	C	0.046599	0.173616	0.012235
C84	C	0.546599	0.673616	0.512235
N85	N	0.023911	0.100792	0.007134
N86	N	0.523911	0.600792	0.507134
C87	C	0.060623	0.028960	0.002098
C88	C	0.560623	0.528960	0.502098
C89	C	0.408934	0.179663	0.012645
C90	C	0.908934	0.679663	0.512645
C91	C	0.468333	0.180655	0.012702
C92	C	0.968333	0.680655	0.512702
C93	C	0.482358	0.035993	0.002564
C94	C	0.982358	0.535993	0.502564
C95	C	0.422957	0.035002	0.002501
C96	C	0.922957	0.535002	0.502501
C97	C	0.386246	0.106839	0.007545
C98	C	0.886246	0.606839	0.507545
C99	C	-0.064116	0.026885	0.001948
C100	C	0.435884	0.526885	0.501948
C101	C	-0.123518	0.025900	0.001874
C102	C	0.376482	0.525900	0.501874
C103	C	-0.137538	0.170562	0.012017
C104	C	0.362462	0.670562	0.512017
C105	C	-0.078140	0.171546	0.012087
C106	C	0.421860	0.671546	0.512087
C107	C	-0.041430	0.099702	0.007055
C108	C	0.458570	0.599702	0.507055
O109	O	0.009873	0.234579	0.016482
O110	O	0.509873	0.734579	0.516482
O111	O	0.035861	-0.033062	-0.002235
O112	O	0.535861	0.466938	0.497765
C113	C	0.776552	0.096665	0.006837
C114	C	1.276552	0.596665	0.506837
C115	C	0.839770	0.097732	0.006911
C116	C	1.339770	0.597732	0.506911
C117	C	0.667786	0.248361	0.017467
C118	C	1.167786	0.748361	0.517467
C119	C	0.668627	0.336426	0.023641
C120	C	1.168627	0.836426	0.523641
N121	N	0.665267	0.113205	0.213289
N122	N	1.165267	0.613205	0.713289
N123	N	0.679558	0.093344	-0.198700
N124	N	1.179558	0.593344	0.301300
C125	C	0.702592	0.061183	0.255038
C126	C	1.202592	0.561183	0.755038
C127	C	0.699441	0.065578	0.346154
C128	C	1.199441	0.565578	0.846154
C129	C	0.658967	0.122000	0.395519
C130	C	1.158967	0.622000	0.895519
C131	C	0.621638	0.174023	0.353763
C132	C	1.121638	0.674023	0.853763
C133	C	0.624786	0.169624	0.262649
C134	C	1.124786	0.669624	0.762649
C135	C	0.645377	0.140968	0.668429
C136	C	1.145377	0.640968	1.168429
C137	C	0.642232	0.145366	0.759550
C138	C	1.142232	0.645366	1.259550
C139	C	0.720035	0.036919	0.751934
C140	C	1.220035	0.536919	1.251934
C141	C	0.723183	0.032528	0.660819
C142	C	1.223183	0.532528	1.160819
C143	C	0.685851	0.084549	0.619071
C144	C	1.185851	0.584549	1.119071
N145	N	0.655747	0.126495	0.488654
N146	N	1.155747	0.626495	0.988654
N147	N	0.689069	0.080049	0.525937
N148	N	1.189069	0.580049	1.025937
H149	H	0.671141	-0.130677	0.133556
H150	H	1.171141	0.369323	0.633556
H151	H	0.588680	0.219960	0.393961
H152	H	1.088680	0.719960	0.893961
H153	H	0.669724	-0.280789	0.123005
H154	H	1.169724	0.219211	0.623005
H155	H	-0.059670	0.230849	0.016246
H156	H	0.440330	0.730849	0.516246
H157	H	0.246017	-0.099387	-0.006905
H158	H	0.746017	0.400613	0.493095
H159	H	0.673664	-0.662769	-0.118979
H160	H	1.173664	-0.162769	0.381021
Cl161	Cl	0.766962	-0.028478	0.804421
Cl162	Cl	1.266962	0.471522	1.304421
H163	H	0.675107	-0.512662	-0.108431
H164	H	1.175107	-0.012662	0.391569
H165	H	0.679665	-0.294565	-0.163306
H166	H	1.179665	0.205435	0.336694
H167	H	0.609271	0.191314	0.799740
H168	H	1.109271	0.691314	1.299740
Cl169	Cl	0.577858	0.235023	0.210165
Cl170	Cl	1.077858	0.735023	0.710165
H171	H	0.681095	-0.144442	-0.152762
H172	H	1.181095	0.355558	0.347238
Cl173	Cl	-0.152031	-0.065663	-0.004555
Cl174	Cl	0.347969	0.434337	0.495445
Cl175	Cl	0.746365	0.000178	0.398641
Cl176	Cl	1.246365	0.500178	0.898641
H177	H	0.756140	-0.013415	0.620627
H178	H	1.256140	0.486585	1.120627
H179	H	0.098781	0.305934	0.021544
H180	H	0.598781	0.805934	0.521544
H181	H	0.614981	0.183328	0.634446
H182	H	1.114981	0.683328	1.134446
H183	H	0.665173	-0.498890	0.177888
H184	H	1.165173	0.001110	0.677888
H185	H	-0.167439	0.229045	0.016114
H186	H	0.332561	0.729045	0.516114
Cl187	Cl	0.128227	-0.133442	-0.009307
Cl188	Cl	0.628227	0.366558	0.490693
Cl189	Cl	0.662338	-0.665648	0.200999
Cl190	Cl	1.162338	-0.165648	0.700999
Cl191	Cl	-0.017975	-0.063436	-0.004380
Cl192	Cl	0.482025	0.436564	0.495620
Cl193	Cl	0.394446	-0.056557	-0.003918
Cl194	Cl	0.894446	0.443443	0.496082
H195	H	0.512260	-0.022496	-0.001537
H196	H	1.012260	0.477504	0.498463
H197	H	0.486798	0.239959	0.016850
H198	H	0.986798	0.739959	0.516850
H199	H	0.735553	0.015242	0.214851
H200	H	1.235553	0.515242	0.714851
H201	H	0.379046	0.238165	0.016747
H202	H	0.879046	0.738165	0.516747
Cl203	Cl	0.216576	0.339993	0.023919
Cl204	Cl	0.716576	0.839993	0.523919
