data_functionalizedCrystal
_audit_creation_method	'MofGen! by Chris Wilmer'
_symmetry_space_group_name_H-M	'P1'
_symmetry_Int_Tables_number	1
_symmetry_cell_setting	triclinic
loop_
_symmetry_equiv_pos_as_xyz
  x,y,z
_cell_length_a	14.519709
_cell_length_b	19.188930
_cell_length_c	12.996460
_cell_angle_alpha	89.988736
_cell_angle_beta	90.000034
_cell_angle_gamma	83.412464
loop_
_atom_site_label
_atom_site_type_symbol
_atom_site_fract_x
_atom_site_fract_y
_atom_site_fract_z
O1	O	1.223300	0.091525	-0.085445
O2	O	1.723300	0.591525	0.414555
O3	O	0.954756	0.102303	-0.085478
O4	O	1.454756	0.602303	0.414522
O5	O	1.096778	-0.004714	-0.085440
O6	O	1.596778	0.495286	0.414560
O7	O	1.081279	0.198542	-0.085482
O8	O	1.581279	0.698542	0.414518
O9	O	1.096763	-0.004720	0.085693
O10	O	1.596763	0.495280	0.585693
O11	O	0.954742	0.102297	0.085656
O12	O	1.454742	0.602297	0.585656
O13	O	1.223285	0.091519	0.085689
O14	O	1.723285	0.591519	0.585689
Cu15	Cu	1.089012	0.096907	0.101298
Cu16	Cu	1.589012	0.596907	0.601298
Cu17	Cu	1.089030	0.096914	-0.101087
Cu18	Cu	1.589030	0.596914	0.398913
O19	O	1.081264	0.198536	0.085651
O20	O	1.581264	0.698536	0.585651
C21	C	0.920392	0.101797	0.000085
C22	C	1.420392	0.601797	0.500085
C23	C	0.818020	0.100292	0.000073
C24	C	1.318020	0.600292	0.500073
C25	C	0.443159	0.094751	0.000121
C26	C	0.943159	0.594751	0.500121
C27	C	0.547457	0.096290	0.000108
C28	C	1.047457	0.596290	0.500108
C29	C	0.630586	0.097521	0.000097
C30	C	1.130586	0.597521	0.500097
C31	C	0.734891	0.099060	0.000085
C32	C	1.234891	0.599060	0.500085
C33	C	1.096269	-0.030730	0.000129
C34	C	1.596269	0.469270	0.500129
C35	C	1.094762	-0.108240	0.000138
C36	C	1.594762	0.391760	0.500138
C37	C	1.178095	-0.152867	0.000153
C38	C	1.678095	0.347133	0.500153
C39	C	1.176680	-0.225696	0.000137
C40	C	1.676680	0.274304	0.500137
C41	C	1.091926	-0.253895	0.000125
C42	C	1.591926	0.246105	0.500125
C43	C	1.008582	-0.209257	0.000105
C44	C	1.508582	0.290743	0.500105
C45	C	1.009999	-0.136430	0.000111
C46	C	1.509999	0.363570	0.500111
N47	N	1.027137	-0.362132	0.058358
N48	N	1.527137	0.137868	0.558358
N49	N	1.025796	-0.431316	0.058354
N50	N	1.525796	0.068684	0.558354
C51	C	1.087649	-0.473318	0.000104
C52	C	1.587649	0.026682	0.500104
N53	N	1.150908	-0.443526	-0.058129
N54	N	1.650908	0.056474	0.441871
N55	N	1.152252	-0.374336	-0.058120
N56	N	1.652252	0.125664	0.441880
C57	C	1.090379	-0.332863	0.000118
C58	C	1.590379	0.167137	0.500118
C59	C	1.169454	-0.596916	0.000100
C60	C	1.669454	-0.096916	0.500100
C61	C	1.168035	-0.669745	0.000077
C62	C	1.668035	-0.169745	0.500077
C63	C	0.999934	-0.653305	0.000055
C64	C	1.499934	-0.153305	0.500055
C65	C	1.001355	-0.580477	0.000068
C66	C	1.501355	-0.080477	0.500068
C67	C	1.086118	-0.552287	0.000095
C68	C	1.586118	-0.052287	0.500095
C69	C	1.257649	0.092024	0.000124
C70	C	1.757649	0.592024	0.500124
C71	C	1.360021	0.093529	0.000128
C72	C	1.860021	0.593529	0.500128
C73	C	1.081773	0.224551	0.000079
C74	C	1.581773	0.724551	0.500079
C75	C	1.083280	0.302061	0.000064
C76	C	1.583280	0.802061	0.500064
N77	N	1.089007	0.096902	0.243645
N78	N	1.589007	0.596902	0.743645
N79	N	1.089042	0.096914	-0.243434
N80	N	1.589042	0.596914	0.256566
C81	C	1.089028	0.096915	0.663460
C82	C	1.589028	0.596915	1.163460
C83	C	1.089020	0.096914	0.546655
C84	C	1.589020	0.596914	1.046655
C85	C	1.089018	0.096909	0.453556
C86	C	1.589018	0.596909	0.953556
C87	C	1.089008	0.096906	0.336744
C88	C	1.589008	0.596906	0.836744
H89	H	1.244542	-0.262039	0.000145
H90	H	1.744542	0.237961	0.500145
C91	C	0.910975	-0.531903	0.000010
C92	C	1.410975	-0.031903	0.500010
C93	C	0.930356	-0.462089	-0.000009
C94	C	1.430356	0.037911	0.499991
C95	C	0.847118	-0.417324	-0.000081
C96	C	1.347118	0.082676	0.499919
H97	H	0.876135	-0.540379	0.059665
H98	H	1.376135	-0.040379	0.559665
H99	H	0.876209	-0.540411	-0.059699
H100	H	1.376209	-0.040411	0.440301
H101	H	0.965108	-0.453585	0.059694
H102	H	1.465108	0.046415	0.559694
H103	H	0.965183	-0.453591	-0.059660
H104	H	1.465183	0.046409	0.440340
H105	H	0.812352	-0.425832	-0.059790
H106	H	1.312352	0.074168	0.440210
H107	H	0.812284	-0.425807	0.059575
H108	H	1.312284	0.074193	0.559575
H109	H	0.860256	-0.369951	-0.000103
H110	H	1.360256	0.130049	0.499897
C111	C	1.258490	-0.718234	-0.000124
C112	C	1.758490	-0.218234	0.499876
C113	C	1.262612	-0.760492	-0.088190
C114	C	1.762612	-0.260492	0.411810
C115	C	1.345933	-0.805162	-0.088418
C116	C	1.845933	-0.305162	0.411582
H117	H	1.261513	-0.747064	0.059478
H118	H	1.761513	-0.247064	0.559478
H119	H	1.309195	-0.691034	-0.000162
H120	H	1.809195	-0.191034	0.499838
H121	H	1.211921	-0.787690	-0.088143
H122	H	1.711921	-0.287690	0.411857
H123	H	1.259605	-0.731681	-0.147807
H124	H	1.759605	-0.231681	0.352193
H125	H	1.396638	-0.777962	-0.088456
H126	H	1.896638	-0.277962	0.411544
H127	H	1.348949	-0.833988	-0.028812
H128	H	1.848949	-0.333988	0.471188
H129	H	1.348745	-0.833835	-0.148174
H130	H	1.848745	-0.333835	0.351826
C131	C	0.916535	-0.239830	-0.000119
C132	C	1.416535	0.260170	0.499881
C133	C	0.866194	-0.217160	-0.088186
C134	C	1.366194	0.282840	0.411814
C135	C	0.781399	-0.245315	-0.088440
C136	C	1.281399	0.254685	0.411560
H137	H	0.882114	-0.224546	0.059483
H138	H	1.382114	0.275454	0.559483
H139	H	0.927587	-0.289599	-0.000174
H140	H	1.427587	0.210401	0.499826
H141	H	0.855140	-0.167402	-0.088122
H142	H	1.355140	0.332598	0.411878
H143	H	0.900587	-0.232443	-0.147802
H144	H	1.400587	0.267557	0.352198
H145	H	0.792451	-0.295084	-0.088495
H146	H	1.292451	0.204916	0.411505
H147	H	0.746987	-0.230029	-0.028834
H148	H	1.246987	0.269971	0.471166
H149	H	0.747237	-0.229943	-0.148196
H150	H	1.247237	0.270057	0.351804
H151	H	1.247116	-0.129920	0.000172
H152	H	1.747116	0.370080	0.500172
C153	C	0.919546	-0.087939	-0.000111
C154	C	1.419546	0.412061	0.499889
C155	C	0.915449	-0.045644	-0.088163
C156	C	1.415449	0.454356	0.411837
C157	C	0.832132	-0.000971	-0.088408
C158	C	1.332132	0.499029	0.411592
H159	H	0.916510	-0.059134	0.059501
H160	H	1.416510	0.440866	0.559501
H161	H	0.868838	-0.115137	-0.000180
H162	H	1.368838	0.384863	0.499820
H163	H	0.966143	-0.018449	-0.088085
H164	H	1.466143	0.481551	0.411915
H165	H	0.918470	-0.074431	-0.147789
H166	H	1.418470	0.425569	0.352211
H167	H	0.781424	-0.028169	-0.088476
H168	H	1.281424	0.471831	0.411524
H169	H	0.829103	0.027830	-0.028792
H170	H	1.329103	0.527830	0.471208
H171	H	0.829337	0.027727	-0.148154
H172	H	1.329337	0.527727	0.351846
C173	C	1.261503	-0.566340	-0.000102
C174	C	1.761503	-0.066340	0.499898
C175	C	1.311855	-0.588980	-0.088161
C176	C	1.811855	-0.088980	0.411839
C177	C	1.396648	-0.560822	-0.088392
C178	C	1.896648	-0.060822	0.411608
H179	H	1.295917	-0.581643	0.059505
H180	H	1.795917	-0.081643	0.559505
H181	H	1.250449	-0.516572	-0.000151
H182	H	1.750449	-0.016572	0.499849
H183	H	1.322912	-0.638738	-0.088102
H184	H	1.822912	-0.138738	0.411898
H185	H	1.277469	-0.573678	-0.147783
H186	H	1.777469	-0.073678	0.352217
H187	H	1.385594	-0.511054	-0.088442
H188	H	1.885594	-0.011054	0.411558
H189	H	1.431054	-0.576127	-0.028781
H190	H	1.931054	-0.076127	0.471219
H191	H	1.430819	-0.576174	-0.148143
H192	H	1.930819	-0.076174	0.351857
H193	H	0.930926	-0.676263	0.000041
H194	H	1.430926	-0.176263	0.500041
