data_functionalizedCrystal
_audit_creation_method	'MofGen! by Chris Wilmer'
_symmetry_space_group_name_H-M	'P1'
_symmetry_Int_Tables_number	1
_symmetry_cell_setting	triclinic
loop_
_symmetry_equiv_pos_as_xyz
  x,y,z
_cell_length_a	12.645330
_cell_length_b	13.897449
_cell_length_c	13.897441
_cell_angle_alpha	89.979267
_cell_angle_beta	90.027301
_cell_angle_gamma	89.981028
loop_
_atom_site_label
_atom_site_type_symbol
_atom_site_fract_x
_atom_site_fract_y
_atom_site_fract_z
Zn1	Zn	-0.421969	-1.474703	0.545403
Zn2	Zn	-0.599265	-1.474597	0.384114
Zn3	Zn	-0.422020	-1.313392	0.384122
Zn4	Zn	-0.599195	-1.313373	0.545367
O5	O	-0.510612	-1.394016	0.464751
O6	O	-0.445496	-1.609670	0.524020
O7	O	-0.575803	-1.453176	0.249133
O8	O	-0.273666	-1.334842	0.405535
O9	O	-0.575754	-1.609592	0.405521
O10	O	-0.273629	-1.453356	0.524028
O11	O	-0.445582	-1.334739	0.249139
O12	O	-0.445514	-1.178408	0.405499
O13	O	-0.575636	-1.334811	0.680353
O14	O	-0.575684	-1.178394	0.523965
O15	O	-0.445428	-1.453339	0.680380
O16	O	-0.747603	-1.453158	0.405486
O17	O	-0.747552	-1.334708	0.523957
C18	C	-0.786042	-1.393946	0.464738
C19	C	-0.903872	-1.394004	0.464764
C20	C	-0.510598	-1.143402	0.464729
C21	C	-0.510618	-1.036188	0.464743
C22	C	-0.510519	-1.394085	0.716344
C23	C	-0.510479	-1.394114	0.823558
C24	C	-1.071448	-1.319794	0.539525
C25	C	-0.948889	-1.319415	0.539284
C26	C	-0.948472	-1.366485	0.363109
C27	C	-1.071070	-1.366032	0.363563
C28	C	-1.070958	-1.496187	0.490835
C29	C	-0.948351	-1.495561	0.493058
C30	C	-0.234107	-1.394113	0.464786
C31	C	-0.116277	-1.394154	0.464801
C32	C	-0.510627	-1.645609	0.464774
C33	C	-0.510634	-1.752823	0.464784
C34	C	-0.510621	-0.839893	0.464768
C35	C	-0.510616	-0.949125	0.464751
C36	C	-0.510629	-1.394003	0.214137
C37	C	-0.510370	-1.394161	0.106924
C38	C	-0.510407	-1.394140	1.019854
C39	C	-0.510450	-1.394122	0.910621
H40	H	-1.100856	-1.336854	0.615149
C41	C	-1.113194	-1.218244	0.516525
C42	C	-1.088784	-1.171631	0.418481
C43	C	-1.130535	-1.070083	0.395478
C44	C	-1.196696	-1.015148	0.470519
C45	C	-1.221109	-1.061761	0.568569
C46	C	-1.179358	-1.163308	0.591572
H47	H	-1.039804	-1.212297	0.362926
H48	H	-1.112462	-1.035578	0.322894
H49	H	-1.227603	-0.939976	0.453491
H50	H	-1.270089	-1.021094	0.624125
H51	H	-1.197431	-1.197814	0.664156
H52	H	-0.918731	-1.336632	0.614661
H53	H	-1.100729	-1.417842	0.305989
C54	C	-0.908970	-1.523605	0.594125
C55	C	-0.941793	-1.620603	0.638593
C56	C	-0.902410	-1.648642	0.739663
C57	C	-0.830203	-1.579683	0.796265
C58	C	-0.797376	-1.482678	0.751798
C59	C	-0.836759	-1.454639	0.650728
H60	H	-0.995248	-1.671657	0.596692
H61	H	-0.926711	-1.720452	0.772580
H62	H	-0.801049	-1.600439	0.871083
H63	H	-0.743921	-1.431624	0.793699
H64	H	-0.812458	-1.382829	0.617811
C65	C	-0.909387	-1.217230	0.515980
C66	C	-0.989396	-1.135720	0.497524
C67	C	-0.949895	-1.033531	0.474216
C68	C	-0.830384	-1.012852	0.469364
C69	C	-0.750367	-1.094364	0.487820
C70	C	-0.789868	-1.196553	0.511128
H71	H	-1.077872	-1.151026	0.501115
H72	H	-1.009129	-0.973190	0.460553
H73	H	-0.801143	-0.937205	0.452110
H74	H	-0.661892	-1.079058	0.484229
H75	H	-0.730634	-1.256894	0.524791
H76	H	-1.099764	-1.291445	0.341508
H77	H	-0.919315	-1.418928	0.305912
H78	H	-0.917863	-1.292676	0.340655
H79	H	-1.101797	-1.521290	0.563702
C80	C	-0.907032	-1.574339	0.424834
C81	C	-0.831840	-1.547714	0.341869
C82	C	-0.790561	-1.626484	0.273609
C83	C	-0.824475	-1.731879	0.288314
C84	C	-0.899671	-1.758510	0.371282
C85	C	-0.940950	-1.679740	0.439542
H86	H	-0.806731	-1.469689	0.330980
H87	H	-0.734895	-1.606769	0.212190
H88	H	-0.793918	-1.790189	0.237783
H89	H	-0.924780	-1.836534	0.382171
H90	H	-0.996616	-1.699454	0.500961
C91	C	-1.110119	-1.571035	0.417319
C92	C	-1.083066	-1.559288	0.309930
C93	C	-1.122233	-1.634128	0.236411
C94	C	-1.188452	-1.720714	0.270282
C95	C	-1.215508	-1.732465	0.377677
C96	C	-1.176342	-1.657626	0.451195
H97	H	-1.034044	-1.495189	0.284852
H98	H	-1.102204	-1.625429	0.156911
H99	H	-1.217445	-1.776115	0.215859
H100	H	-1.264531	-1.796565	0.402754
H101	H	-1.196371	-1.666325	0.530696
