data_functionalizedCrystal
_audit_creation_method	'MofGen! by Chris Wilmer'
_symmetry_space_group_name_H-M	'P1'
_symmetry_Int_Tables_number	1
_symmetry_cell_setting	triclinic
loop_
_symmetry_equiv_pos_as_xyz
  x,y,z
_cell_length_a	16.109301
_cell_length_b	10.654550
_cell_length_c	15.186229
_cell_angle_alpha	89.997420
_cell_angle_beta	89.999362
_cell_angle_gamma	83.973192
loop_
_atom_site_label
_atom_site_type_symbol
_atom_site_fract_x
_atom_site_fract_y
_atom_site_fract_z
O1	O	1.104090	0.161419	-0.073171
O2	O	0.862148	0.181507	-0.073184
O3	O	0.988682	-0.011352	-0.073174
O4	O	0.977556	0.354278	-0.073181
O5	O	0.988673	-0.011354	0.073283
O6	O	0.862139	0.181505	0.073273
O7	O	1.104082	0.161416	0.073287
Zn8	Zn	0.983109	0.171460	0.096533
Zn9	Zn	0.983120	0.171463	-0.096431
O10	O	0.977548	0.354275	0.073276
C11	C	0.831164	0.180692	0.000043
C12	C	0.738854	0.178253	0.000037
C13	C	0.517228	0.287019	0.000045
C14	C	0.430494	0.284717	0.000051
C15	C	0.449008	0.055896	0.000052
C16	C	0.535741	0.058199	0.000052
C17	C	0.569848	0.173764	0.000045
C18	C	0.396382	0.169159	0.000050
C19	C	0.302341	0.166662	0.000056
C20	C	0.663895	0.176262	0.000040
C21	C	0.987861	-0.058140	0.000054
C22	C	0.985417	-0.197550	0.000050
C23	C	1.059918	-0.278046	0.000057
C24	C	1.057616	-0.409036	0.000051
C25	C	0.906306	-0.379020	0.000035
C26	C	0.908608	-0.248033	0.000035
C27	C	1.136726	-0.227564	0.000073
C28	C	1.211233	-0.308061	0.000081
C29	C	1.208932	-0.439051	0.000075
C30	C	1.132123	-0.489543	0.000061
C31	C	1.135066	0.162231	0.000058
C32	C	1.227376	0.164671	0.000057
C33	C	0.978369	0.401063	0.000047
C34	C	0.980813	0.540473	0.000044
N35	N	0.983108	0.171457	0.228226
N36	N	0.983129	0.171457	-0.228123
C37	C	1.039156	0.086088	0.453953
C38	C	1.039159	0.086085	0.546143
C39	C	0.927074	0.256830	0.546143
C40	C	0.927068	0.256826	0.453955
C41	C	0.983114	0.171456	0.407862
C42	C	0.983122	0.171457	0.592240
C43	C	0.983125	0.171455	0.692196
C44	C	0.983111	0.171457	0.307900
H45	H	1.138609	-0.120907	0.000081
H46	H	1.084791	0.016573	0.416427
H47	H	1.130255	-0.596205	0.000046
H48	H	0.578586	-0.034032	0.000054
C49	C	0.780357	-0.182111	-0.075263
C50	C	0.826717	-0.159540	0.000028
H51	H	0.729799	-0.127482	-0.075266
H52	H	0.811826	-0.166808	-0.126323
H53	H	0.767996	-0.267349	-0.075253
H54	H	0.839083	-0.074305	0.000014
H55	H	0.795241	-0.174834	0.051101
C56	C	0.776621	-0.393765	0.075308
C57	C	0.821880	-0.434514	0.000026
H58	H	0.724497	-0.428018	0.075299
H59	H	0.807323	-0.421406	0.126374
H60	H	0.767336	-0.304232	0.075297
H61	H	0.831171	-0.524047	0.000040
H62	H	0.791171	-0.406879	-0.051053
H63	H	1.269599	-0.504589	0.000072
C64	C	0.438090	-0.139840	-0.075238
C65	C	0.411515	-0.071130	0.000049
H66	H	0.414947	-0.218264	-0.075238
H67	H	0.420071	-0.093203	-0.126301
H68	H	0.497276	-0.154667	-0.075226
H69	H	0.352328	-0.056294	0.000033
H70	H	0.429529	-0.117776	0.051125
H71	H	1.273768	-0.266942	0.000070
C72	C	1.149955	-0.082676	0.536877
C73	C	1.100766	-0.007750	0.596806
H74	H	1.187993	-0.140602	0.568156
H75	H	1.115089	-0.127864	0.500927
H76	H	1.180155	-0.030370	0.500915
H77	H	1.070562	-0.060055	0.632764
H78	H	1.135637	0.037441	0.632771
H79	H	0.544995	0.381119	0.000046
H80	H	0.881444	0.326338	0.583680
C81	C	0.910005	0.427727	0.350267
C82	C	0.865464	0.350674	0.403284
H83	H	0.871973	0.485654	0.318982
H84	H	0.944865	0.472915	0.386226
H85	H	0.943375	0.376864	0.309627
H86	H	0.832099	0.401536	0.443928
H87	H	0.830590	0.305483	0.367322
H88	H	0.387654	0.376940	0.000053
