data_functionalizedCrystal
_audit_creation_method	'MofGen! by Chris Wilmer'
_symmetry_space_group_name_H-M	'P1'
_symmetry_Int_Tables_number	1
_symmetry_cell_setting	triclinic
loop_
_symmetry_equiv_pos_as_xyz
  x,y,z
_cell_length_a	12.759401
_cell_length_b	12.759400
_cell_length_c	12.759393
_cell_angle_alpha	89.970627
_cell_angle_beta	89.979062
_cell_angle_gamma	90.014690
loop_
_atom_site_label
_atom_site_type_symbol
_atom_site_fract_x
_atom_site_fract_y
_atom_site_fract_z
Zn1	Zn	1.606278	-0.418173	-0.594028
Zn2	Zn	2.106278	0.081827	-0.094028
Zn3	Zn	1.606173	-0.593888	-0.418352
Zn4	Zn	2.106173	-0.093888	0.081648
Zn5	Zn	1.430576	-0.418229	-0.418363
Zn6	Zn	1.930576	0.081771	0.081637
Zn7	Zn	1.430573	-0.593815	-0.593989
Zn8	Zn	1.930573	-0.093815	-0.093989
O9	O	1.518400	-0.506026	-0.506183
O10	O	2.018400	-0.006026	-0.006183
O11	O	1.753285	-0.441489	-0.570736
O12	O	2.253285	0.058511	-0.070736
O13	O	1.582838	-0.570641	-0.271332
O14	O	2.082838	-0.070641	0.228668
O15	O	1.453928	-0.271200	-0.441687
O16	O	1.953928	0.228800	0.058313
O17	O	1.753208	-0.570587	-0.441667
O18	O	2.253208	-0.070587	0.058333
O19	O	1.583015	-0.271159	-0.570747
O20	O	2.083015	0.228841	-0.070747
O21	O	1.453827	-0.441584	-0.271341
O22	O	1.953827	0.058416	0.228659
O23	O	1.283555	-0.441513	-0.441649
O24	O	1.783555	0.058487	0.058351
O25	O	1.453923	-0.570461	-0.741015
O26	O	1.953923	-0.070461	-0.241015
O27	O	1.283552	-0.570516	-0.570680
O28	O	1.783552	-0.070516	-0.070680
O29	O	1.583012	-0.441418	-0.741044
O30	O	2.083012	0.058582	-0.241044
O31	O	1.582835	-0.740900	-0.441629
O32	O	2.082835	-0.240900	0.058371
O33	O	1.453822	-0.740846	-0.570669
O34	O	1.953822	-0.240846	-0.070669
C35	C	1.245433	-0.506013	-0.506162
C36	C	1.745433	-0.006013	-0.006162
C37	C	1.128656	-0.506033	-0.506178
C38	C	1.628656	-0.006033	-0.006178
C39	C	1.073820	-0.573307	-0.573259
C40	C	1.573820	-0.073307	-0.073259
C41	C	0.964096	-0.573311	-0.573280
C42	C	1.464096	-0.073311	-0.073280
C43	C	0.964053	-0.438764	-0.439130
C44	C	1.464053	0.061236	0.060870
C45	C	1.073775	-0.438756	-0.439115
C46	C	1.573775	0.061244	0.060885
C47	C	1.518345	-0.778993	-0.506167
C48	C	2.018345	-0.278993	-0.006167
C49	C	1.518417	-0.895770	-0.506195
C50	C	2.018417	-0.395770	-0.006195
C51	C	1.585599	-0.950531	-0.573451
C52	C	2.085599	-0.450531	-0.073451
C53	C	1.585648	-1.060255	-0.573477
C54	C	2.085648	-0.560255	-0.073477
C55	C	1.451330	-1.060448	-0.438980
C56	C	1.951330	-0.560448	0.061020
C57	C	1.451277	-0.950726	-0.438961
C58	C	1.951277	-0.450726	0.061039
C59	C	1.652740	-0.895576	-0.640685
C60	C	2.152740	-0.395576	-0.140685
C61	C	1.719928	-0.950337	-0.707947
C62	C	2.219928	-0.450337	-0.207947
C63	C	1.719977	-1.060061	-0.707972
C64	C	2.219977	-0.560061	-0.207972
C65	C	1.652838	-1.115024	-0.640737
C66	C	2.152838	-0.615024	-0.140737
C67	C	1.792433	-0.506040	-0.506205
C68	C	2.292433	-0.006040	-0.006205
C69	C	1.909210	-0.506046	-0.506214
C70	C	2.409210	-0.006046	-0.006214
C71	C	1.518479	-0.505925	-0.780217
C72	C	2.018479	-0.005925	-0.280217
C73	C	1.518512	-0.505882	-0.896993
C74	C	2.018512	-0.005882	-0.396993
C75	C	1.518484	-0.231993	-0.506223
C76	C	2.018484	0.268007	-0.006223
C77	C	1.518520	-0.115216	-0.506240
C78	C	2.018520	0.384784	-0.006240
C79	C	1.585734	-0.438679	-0.951872
C80	C	2.085734	0.061321	-0.451872
C81	C	1.585752	-0.438633	-1.061596
C82	C	2.085752	0.061367	-0.561596
C83	C	1.451323	-0.573004	-1.061553
C84	C	1.951323	-0.073004	-0.561553
C85	C	1.451301	-0.573044	-0.951831
C86	C	1.951301	-0.073044	-0.451831
C87	C	1.518382	-0.506051	-0.233216
C88	C	2.018382	-0.006051	0.266784
C89	C	1.518552	-0.505798	-0.116440
C90	C	2.018552	-0.005798	0.383560
H91	H	1.118501	-0.628086	-0.627869
H92	H	1.618501	-0.128086	-0.127869
Cl93	Cl	1.670224	-0.354243	-0.882937
Cl94	Cl	2.170224	0.145757	-0.382937
Cl95	Cl	1.366780	-0.657529	-0.882836
Cl96	Cl	1.866780	-0.157529	-0.382836
Cl97	Cl	1.670273	-0.354154	-1.130582
Cl98	Cl	2.170273	0.145846	-0.630582
H99	H	0.919454	-0.628090	-0.627906
H100	H	1.419454	-0.128090	-0.127906
H101	H	1.118424	-0.383967	-0.384490
H102	H	1.618424	0.116033	0.115510
H103	H	1.652710	-0.806233	-0.640670
H104	H	2.152710	-0.306233	-0.140670
H105	H	1.652871	-1.204368	-0.640775
H106	H	2.152871	-0.704368	-0.140775
H107	H	0.919356	-0.383991	-0.384528
H108	H	1.419356	0.116009	0.115472
Cl109	Cl	1.804315	-0.881242	-0.792478
Cl110	Cl	2.304315	-0.381242	-0.292478
Cl111	Cl	1.804429	-1.128900	-0.792539
Cl112	Cl	2.304429	-0.628900	-0.292539
H113	H	1.396669	-1.105207	-0.384240
H114	H	1.896669	-0.605207	0.115760
Cl115	Cl	1.366839	-0.657437	-1.130500
Cl116	Cl	1.866839	-0.157437	-0.630500
H117	H	1.396570	-0.906139	-0.384195
H118	H	1.896570	-0.406139	0.115805
