data_functionalizedCrystal
_audit_creation_method	'MofGen! by Chris Wilmer'
_symmetry_space_group_name_H-M	'P1'
_symmetry_Int_Tables_number	1
_symmetry_cell_setting	triclinic
loop_
_symmetry_equiv_pos_as_xyz
  x,y,z
_cell_length_a	6.817900
_cell_length_b	17.982865
_cell_length_c	11.168136
_cell_angle_alpha	94.265631
_cell_angle_beta	108.508683
_cell_angle_gamma	102.450232
loop_
_atom_site_label
_atom_site_type_symbol
_atom_site_fract_x
_atom_site_fract_y
_atom_site_fract_z
V1	V	-4.079252	-0.105425	-0.394241
O2	O	-4.070935	0.005054	-0.386179
O3	O	-4.025439	-0.209029	-0.392081
O4	O	-4.056012	-0.103809	-0.565939
O5	O	-4.040150	-0.100895	-0.211118
V6	V	-4.560321	-0.092210	-0.372273
O7	O	-4.345893	-0.134414	-0.442430
O8	O	-4.743878	-0.063221	-0.324084
O9	O	-4.390928	0.011394	-0.374433
O10	O	-4.686036	-0.202690	-0.380335
O11	O	-4.716820	-0.096741	-0.555396
O12	O	-4.360355	-0.093826	-0.200575
C13	C	-3.868309	-0.234285	-0.386000
C14	C	-3.905765	-0.318983	-0.385378
C15	C	-3.907307	-0.100065	-0.607771
C16	C	-3.969554	-0.099429	-0.748138
C17	C	-4.078975	-0.827977	-0.265750
C18	C	-4.043784	-0.748396	-0.266351
C19	C	-4.082816	-0.719497	-0.382344
C20	C	-4.157024	-0.770183	-0.497743
C21	C	-4.192200	-0.849762	-0.497141
C22	C	-4.015165	-0.449250	-0.500177
C23	C	-3.979989	-0.369665	-0.500771
C24	C	-3.866749	-0.347884	-0.269387
C25	C	-3.901924	-0.427463	-0.268784
C26	C	-3.976118	-0.478142	-0.384182
C27	C	-4.014272	-0.564432	-0.383529
C28	C	-4.044678	-0.633208	-0.382999
C29	C	-4.171094	-0.102759	-0.816847
C30	C	-4.235433	-0.102102	-0.961924
C31	C	-4.211399	0.036646	-0.380511
C32	C	-4.153182	0.121343	-0.381140
C33	C	-4.172401	-0.097572	-0.158736
C34	C	-4.089393	-0.098205	-0.018368
H35	H	-4.047195	-0.851501	-0.171295
H36	H	-3.844637	-0.096086	-0.796717
H37	H	-4.296006	-0.106092	-0.768266
H38	H	-3.983366	-0.707136	-0.172388
C39	C	-4.022910	-0.337874	-0.628371
C40	C	-3.840104	-0.282455	-0.654562
C41	C	-3.883023	-0.250663	-0.782154
C42	C	-4.108747	-0.274290	-0.883555
C43	C	-4.291568	-0.329712	-0.857368
C44	C	-4.248650	-0.361503	-0.729775
H45	H	-3.672995	-0.264962	-0.579496
H46	H	-3.747685	-0.209636	-0.801539
H47	H	-4.140518	-0.250756	-0.978007
H48	H	-4.458677	-0.347204	-0.932434
H49	H	-4.383987	-0.402530	-0.710390
H50	H	-3.870146	-0.450988	-0.174331
H51	H	-3.806323	-0.306612	-0.175424
H52	H	-4.075582	-0.490504	-0.594141
H53	H	-4.252619	-0.891025	-0.591103
H54	H	-4.408089	-0.104956	-1.020990
H55	H	-4.188790	-0.746647	-0.592187
H56	H	-3.916738	-0.095359	-0.959312
