data_functionalizedCrystal
_audit_creation_method	'MofGen! by Chris Wilmer'
_symmetry_space_group_name_H-M	'P1'
_symmetry_Int_Tables_number	1
_symmetry_cell_setting	triclinic
loop_
_symmetry_equiv_pos_as_xyz
  x,y,z
_cell_length_a	15.297475
_cell_length_b	19.120786
_cell_length_c	15.298259
_cell_angle_alpha	77.468806
_cell_angle_beta	88.370891
_cell_angle_gamma	82.327649
loop_
_atom_site_label
_atom_site_type_symbol
_atom_site_fract_x
_atom_site_fract_y
_atom_site_fract_z
Zn1	Zn	1.238012	-0.351700	-0.704689
Zn2	Zn	1.257043	-0.492668	-0.549380
Zn3	Zn	1.116563	-0.358549	-0.532485
Zn4	Zn	1.087034	-0.453020	-0.672998
O5	O	1.174663	-0.413984	-0.614888
O6	O	1.362513	-0.384126	-0.704420
O7	O	1.258731	-0.494335	-0.423336
O8	O	1.137067	-0.259108	-0.561520
O9	O	1.376495	-0.487695	-0.590315
O10	O	1.226295	-0.254076	-0.688038
O11	O	1.155521	-0.395799	-0.410923
O12	O	0.990670	-0.357354	-0.530791
O13	O	1.086738	-0.420121	-0.801005
O14	O	0.968974	-0.426762	-0.634025
O15	O	1.197661	-0.345682	-0.824288
O16	O	1.230097	-0.585941	-0.559586
O17	O	1.105192	-0.556812	-0.650408
C18	C	0.948195	-0.388499	-0.577136
C19	C	0.851307	-0.377610	-0.561006
C20	C	0.533155	-0.491813	-0.730176
C21	C	0.624186	-0.502050	-0.745328
C22	C	0.680971	-0.470941	-0.699249
C23	C	0.646715	-0.429594	-0.638015
C24	C	0.555675	-0.419361	-0.622856
C25	C	0.703491	-0.398488	-0.591929
C26	C	0.669235	-0.357141	-0.530695
C27	C	0.578204	-0.346910	-0.515539
C28	C	0.521420	-0.378019	-0.561618
C29	C	0.794531	-0.408721	-0.607088
C30	C	0.817051	-0.336269	-0.499768
C31	C	0.726020	-0.326032	-0.484616
C32	C	1.166526	-0.596924	-0.603415
C33	C	1.163120	-0.675191	-0.598549
C34	C	1.207927	-0.709269	-0.662173
C35	C	1.204723	-0.782808	-0.657603
C36	C	1.156716	-0.822270	-0.589403
C37	C	1.111904	-0.788186	-0.525776
C38	C	1.115103	-0.714647	-0.530351
C39	C	1.144729	-1.044444	-0.572295
C40	C	1.141535	-1.117989	-0.567724
C41	C	1.234353	-1.112605	-0.699552
C42	C	1.237553	-1.039066	-0.704118
C43	C	1.192737	-1.004988	-0.640493
C44	C	1.153442	-0.897439	-0.584728
C45	C	1.196006	-0.929819	-0.645173
C46	C	1.402015	-0.439569	-0.652787
C47	C	1.498899	-0.450472	-0.668938
C48	C	1.136783	-0.377715	-0.845645
C49	C	1.120641	-0.362259	-0.943980
C50	C	1.182852	-0.230329	-0.626429
C51	C	1.186342	-0.152067	-0.631348
C52	C	1.290086	-0.523910	-1.247012
C53	C	1.305248	-0.538436	-1.154621
C54	C	1.259098	-0.494393	-1.101956
C55	C	1.197783	-0.435822	-1.141692
C56	C	1.182614	-0.421298	-1.234091
C57	C	1.151626	-0.391781	-1.089035
C58	C	1.090311	-0.333210	-1.128770
C59	C	1.075146	-0.318689	-1.221161
C60	C	1.121296	-0.362732	-1.273826
C61	C	1.166794	-0.406304	-0.996635
C62	C	1.059323	-0.303692	-0.983714
C63	C	1.044161	-0.289167	-1.076106
C64	C	1.212448	-0.450067	-0.385041
C65	C	1.228768	-0.465344	-0.286747
H66	H	0.698115	-0.292368	-0.434758
F67	F	1.232048	-0.468638	-0.954356
H68	H	1.247023	-0.677145	-0.717705
F69	F	1.067413	-0.678379	-0.462634
H70	H	0.652071	-0.535716	-0.795184
F71	F	1.097024	-1.008184	-0.504585
F72	F	1.247091	-0.887819	-0.717757
H73	H	1.072812	-0.820321	-0.470250
F74	F	1.275238	-0.509852	-1.003625
F75	F	1.010193	-0.256822	-0.927667
H76	H	0.550318	-0.313252	-0.465668
H77	H	0.863286	-0.310938	-0.462245
F78	F	1.282043	-1.148878	-0.767263
H79	H	1.241217	-0.810553	-0.709407
H80	H	1.327648	-0.559768	-1.289898
H81	H	1.102439	-1.150116	-0.512186
F82	F	1.102347	-0.939442	-0.512150
H83	H	1.025211	-0.271002	-1.253509
F84	F	0.978906	-0.226833	-1.118406
F85	F	1.370502	-0.600768	-1.112338
H86	H	1.108957	-0.350907	-1.349059
H87	H	1.276643	-1.006938	-0.759651
H88	H	0.447293	-0.369686	-0.549286
F89	F	0.830978	-0.452724	-0.672257
H90	H	0.755092	-0.479277	-0.711591
H91	H	0.486914	-0.517143	-0.767681
