data_functionalizedCrystal
_audit_creation_method	'MofGen! by Chris Wilmer'
_symmetry_space_group_name_H-M	'P1'
_symmetry_Int_Tables_number	1
_symmetry_cell_setting	triclinic
loop_
_symmetry_equiv_pos_as_xyz
  x,y,z
_cell_length_a	12.759400
_cell_length_b	12.759401
_cell_length_c	12.759393
_cell_angle_alpha	89.981433
_cell_angle_beta	89.968436
_cell_angle_gamma	90.013728
loop_
_atom_site_label
_atom_site_type_symbol
_atom_site_fract_x
_atom_site_fract_y
_atom_site_fract_z
Zn1	Zn	-0.418231	1.606255	-0.593983
Zn2	Zn	-0.593950	1.606150	-0.418303
Zn3	Zn	-0.418283	1.430557	-0.418323
Zn4	Zn	-0.593866	1.430546	-0.593945
O5	O	-0.506082	1.518377	-0.506138
O6	O	-0.441554	1.753262	-0.570687
O7	O	-0.570704	1.582818	-0.271285
O8	O	-0.271255	1.453913	-0.441648
O9	O	-0.570654	1.753185	-0.441616
O10	O	-0.271217	1.582998	-0.570706
O11	O	-0.441642	1.453811	-0.271299
O12	O	-0.441560	1.283535	-0.441611
O13	O	-0.570511	1.453894	-0.740971
O14	O	-0.570561	1.283527	-0.570640
O15	O	-0.441473	1.582987	-0.740999
O16	O	-0.740960	1.582807	-0.441579
O17	O	-0.740898	1.453791	-0.570621
C18	C	-0.506058	1.245410	-0.506124
C19	C	-0.506072	1.128633	-0.506143
C20	C	-0.438977	1.073805	-0.573454
C21	C	-0.438997	0.964081	-0.573461
C22	C	-0.573217	0.964023	-0.438841
C23	C	-0.573191	1.073745	-0.438830
C24	C	-0.361489	1.073837	-0.651179
C25	C	-0.361509	0.964113	-0.651185
C26	C	-0.779050	1.518315	-0.506117
C27	C	-0.895826	1.518384	-0.506142
C28	C	-0.950686	1.585637	-0.439024
C29	C	-1.060410	1.585702	-0.439056
C30	C	-1.060405	1.451252	-0.573328
C31	C	-0.950683	1.451193	-0.573301
C32	C	-0.950689	1.663258	-0.361500
C33	C	-1.060413	1.663322	-0.361532
C34	C	-0.232049	1.518468	-0.506183
C35	C	-0.115272	1.518507	-0.506203
C36	C	-0.505976	1.518451	-0.780172
C37	C	-0.505931	1.518482	-0.896949
C38	C	-0.506108	1.792410	-0.506154
C39	C	-0.506119	1.909187	-0.506160
C40	C	-0.438735	1.585710	-0.951827
C41	C	-0.438697	1.585735	-1.061551
C42	C	-0.573061	1.451301	-1.061509
C43	C	-0.573093	1.451272	-0.951787
C44	C	-0.361164	1.663328	-0.951853
C45	C	-0.361126	1.663353	-1.061577
C46	C	-0.506112	1.518364	-0.233171
C47	C	-0.505861	1.518537	-0.116395
H48	H	-0.280086	1.103604	-0.629525
F49	F	-0.399699	1.118368	-0.752132
F50	F	-0.260441	0.919612	-0.613278
H51	H	-1.090275	1.641585	-0.280152
F52	F	-0.260124	1.625181	-1.106085
H53	H	-0.390334	1.740599	-0.917817
H54	H	-0.627807	1.396525	-0.907109
H55	H	-0.627739	1.396579	-1.106171
H56	H	-0.906018	1.396440	-0.627963
F57	F	-0.644577	1.132094	-0.367163
F58	F	-0.644645	0.905599	-0.367206
F59	F	-0.911660	1.769577	-0.390061
H60	H	-1.105083	1.396548	-0.628007
F61	F	-0.906312	1.625170	-0.260438
H62	H	-0.383404	0.934368	-0.732521
H63	H	-1.094359	1.740626	-0.390744
F64	F	-0.254817	1.634874	-0.912954
F65	F	-0.389600	1.769710	-1.100505
