data_functionalizedCrystal
_audit_creation_method	'MofGen! by Chris Wilmer'
_symmetry_space_group_name_H-M	'P1'
_symmetry_Int_Tables_number	1
_symmetry_cell_setting	triclinic
loop_
_symmetry_equiv_pos_as_xyz
  x,y,z
_cell_length_a	10.968094
_cell_length_b	15.944551
_cell_length_c	14.421503
_cell_angle_alpha	90.009113
_cell_angle_beta	77.878592
_cell_angle_gamma	84.117696
loop_
_atom_site_label
_atom_site_type_symbol
_atom_site_fract_x
_atom_site_fract_y
_atom_site_fract_z
O1	O	1.655626	0.117771	-0.187420
O2	O	1.292348	0.129057	-0.129374
O3	O	1.483908	0.001196	-0.159990
O4	O	1.464067	0.245632	-0.156803
O5	O	1.483887	0.001184	-0.314210
O6	O	1.292327	0.129045	-0.283594
O7	O	1.655605	0.117759	-0.341640
Cu8	Cu	1.473964	0.123401	-0.326699
Cu9	Cu	1.473989	0.123415	-0.144315
O10	O	1.464046	0.245620	-0.311024
C11	C	1.245851	0.128231	-0.199056
C12	C	1.107334	0.125780	-0.176923
C13	C	0.902397	0.122138	-0.224066
C14	C	1.045560	0.124678	-0.246950
C15	C	1.483073	-0.030109	-0.236969
C16	C	1.480604	-0.123369	-0.236575
C17	C	1.355964	-0.338936	-0.216647
C18	C	1.413833	-0.399630	-0.301935
C19	C	1.476137	-0.294121	-0.235854
C20	C	1.413882	-0.399601	-0.149890
C21	C	1.471813	-0.459058	-0.235152
C22	C	1.534038	-0.353586	-0.321210
C23	C	1.534070	-0.353551	-0.169095
C24	C	1.592026	-0.414226	-0.254415
C25	C	1.478624	-0.199104	-0.236259
C26	C	1.469335	-0.554073	-0.234756
C27	C	1.702103	0.118584	-0.271956
C28	C	1.840620	0.121036	-0.294082
C29	C	1.464880	0.276925	-0.234043
C30	C	1.467349	0.370185	-0.234431
N31	N	1.473956	0.123390	-0.454978
N32	N	1.474007	0.123419	-0.016037
C33	C	1.562758	0.064382	0.281207
C34	C	1.450094	0.047281	0.237371
C35	C	1.473971	0.123400	0.355858
C36	C	1.586649	0.140471	0.215598
C37	C	1.473995	0.123407	0.173132
C38	C	1.361250	0.106260	0.313392
C39	C	1.497879	0.199484	0.291612
C40	C	1.385134	0.182414	0.247817
C41	C	1.473959	0.123393	0.461121
C42	C	1.473994	0.123414	0.067874
H43	H	1.256216	-0.306197	-0.200784
O44	O	1.594836	-0.329290	-0.102136
C45	C	1.787285	-0.341514	-0.045331
C46	C	1.718623	-0.369078	-0.121220
H47	H	1.887387	-0.373656	-0.060745
H48	H	1.736021	-0.360244	0.027673
H49	H	1.789298	-0.270177	-0.046775
H50	H	1.716592	-0.440412	-0.119864
H51	H	1.769911	-0.350286	-0.194190
H52	H	1.691862	-0.446816	-0.270410
H53	H	1.363046	-0.419963	-0.077476
H54	H	0.893719	0.121969	-0.370968
H55	H	1.584815	-0.333311	-0.393681
H56	H	1.429874	-0.017058	0.213422
H57	H	1.265947	0.091751	0.355643
O58	O	1.352990	-0.423921	-0.368838
C59	C	1.159834	-0.412760	-0.424646
C60	C	1.228588	-0.385204	-0.348809
H61	H	1.059251	-0.381456	-0.408491
H62	H	1.159246	-0.484217	-0.424165
H63	H	1.210149	-0.392963	-0.497472
H64	H	1.178327	-0.404943	-0.275946
H65	H	1.229187	-0.313749	-0.349374
H66	H	0.849299	0.121196	-0.147180
H67	H	1.637746	0.014436	0.296348
O68	O	1.043807	0.124698	-0.085242
C69	C	0.843211	0.121094	0.021155
C70	C	0.914995	0.122336	-0.082711
H71	H	0.739058	0.119167	0.023235
H72	H	0.857226	0.180244	0.060411
H73	H	0.880233	0.062886	0.056717
H74	H	0.878020	0.180505	-0.118355
H75	H	0.900982	0.063147	-0.121897
O76	O	1.295317	0.241870	0.230048
C77	C	1.075131	0.291054	0.260480
C78	C	1.176719	0.223660	0.280672
H79	H	0.979223	0.276365	0.301414
H80	H	1.076234	0.290996	0.181257
H81	H	1.094749	0.355738	0.283871
H82	H	1.157170	0.158943	0.257338
H83	H	1.175591	0.223793	0.359898
O84	O	1.522261	0.276183	0.320131
C85	C	1.668598	0.380916	0.302057
C86	C	1.641139	0.294035	0.269690
H87	H	1.764698	0.395384	0.261276
H88	H	1.667519	0.380365	0.381274
H89	H	1.593849	0.431349	0.287538
H90	H	1.715858	0.243553	0.284144
H91	H	1.642173	0.294657	0.190482
H92	H	1.681930	0.154908	0.173235
H93	H	1.098654	0.125611	-0.323841
