data_functionalizedCrystal
_audit_creation_method	'MofGen! by Chris Wilmer'
_symmetry_space_group_name_H-M	'P1'
_symmetry_Int_Tables_number	1
_symmetry_cell_setting	triclinic
loop_
_symmetry_equiv_pos_as_xyz
  x,y,z
_cell_length_a	19.377372
_cell_length_b	19.376997
_cell_length_c	18.760492
_cell_angle_alpha	68.963578
_cell_angle_beta	89.997282
_cell_angle_gamma	82.421080
loop_
_atom_site_label
_atom_site_type_symbol
_atom_site_fract_x
_atom_site_fract_y
_atom_site_fract_z
Zr1	Zr	0.764621	0.842049	-0.015618
O2	O	0.689452	0.938377	-0.090793
O3	O	0.768540	0.725026	-0.011695
O4	O	0.796124	0.851199	-0.132827
O5	O	0.661864	0.812202	0.147641
O6	O	0.902023	0.881958	-0.144231
O7	O	0.661868	0.812203	0.030338
O8	O	0.852680	0.656257	0.072451
O9	O	0.711206	1.037903	-0.069041
O10	O	0.872348	0.803779	0.004570
O11	O	0.793313	0.780823	0.100623
O12	O	0.825790	0.929375	-0.041994
O13	O	0.746755	0.906419	0.054059
Zr14	Zr	0.933510	0.891104	0.153278
Zr15	Zr	0.933517	0.891106	-0.033807
Zr16	Zr	0.764614	0.842047	0.171467
Zr17	Zr	0.799316	1.000782	0.019075
Zr18	Zr	0.898815	0.732371	0.118586
O19	O	0.929590	1.008127	0.149356
O20	O	0.929601	1.008129	-0.116655
O21	O	0.689442	0.938374	0.175218
O22	O	1.008678	0.794776	0.228454
O23	O	1.008689	0.794778	-0.037557
O24	O	0.768530	0.725023	0.254315
O25	O	1.036267	0.920950	-0.009981
O26	O	0.902007	0.881953	0.270487
O27	O	0.796108	0.851195	0.281892
O28	O	1.036262	0.920949	0.107322
O29	O	0.845456	1.076897	-0.083498
O30	O	0.852674	0.656256	0.221159
O31	O	0.986924	0.695249	0.206701
O32	O	0.986930	0.695251	0.057993
O33	O	0.711201	1.037901	0.079667
O34	O	0.845450	1.076895	0.065210
O35	O	0.872341	0.803777	0.179654
O36	O	0.951375	0.826733	0.083601
O37	O	0.904817	0.952329	0.037037
O38	O	0.825783	0.929374	0.133090
C39	C	0.805667	0.668025	0.025435
C40	C	0.790938	0.600639	0.010707
C41	C	0.723828	0.543543	-0.056407
C42	C	0.737673	0.606858	-0.042562
C43	C	0.830381	0.531096	0.050149
C44	C	0.816546	0.467774	0.036309
C45	C	0.763268	0.474004	-0.016969
C46	C	0.855986	0.398234	0.075746
C47	C	0.842149	0.334917	0.061910
C48	C	0.788872	0.341139	0.008637
C49	C	0.749431	0.410686	-0.030805
C50	C	0.909260	0.392005	0.129028
C51	C	0.948700	0.322466	0.168466
C52	C	0.934867	0.259148	0.154626
C53	C	0.881590	0.265370	0.101352
C54	C	0.974308	0.189601	0.194068
C55	C	0.960471	0.126283	0.180232
C56	C	0.867753	0.202053	0.087516
C57	C	0.637802	0.805213	0.091581
C58	C	0.566101	0.784387	0.099303
C59	C	0.208776	1.043686	0.003166
C60	C	0.141408	1.024100	0.010429
C61	C	0.190021	0.892986	0.059038
C62	C	0.257394	0.912562	0.051783
C63	C	0.266765	0.987913	0.023846
C64	C	0.315383	0.856789	0.072462
C65	C	0.382750	0.876363	0.065204
C66	C	0.392127	0.951710	0.037266
C67	C	0.334132	1.007487	0.016587
C68	C	0.306010	0.781438	0.100394
C69	C	0.363999	0.725665	0.121073
C70	C	0.431367	0.745239	0.113820
C71	C	0.440745	0.820586	0.085882
C72	C	0.489363	0.689462	0.134499
C73	C	0.556730	0.709036	0.127240
C74	C	0.508112	0.840160	0.078624
C75	C	1.060329	0.927939	0.046079
C76	C	1.132029	0.948765	0.038358
C77	C	0.849074	0.866578	-0.165185
C78	C	0.849077	0.866579	-0.244607
C79	C	0.892464	1.065127	0.112226
C80	C	0.907193	1.132513	0.126954
C81	C	0.873359	0.801010	-0.556114
C82	C	0.824752	0.932136	-0.604723
C83	C	0.824757	0.932138	-0.530102
C84	C	0.849063	0.866576	-0.468484
C85	C	0.873364	0.801011	-0.481486
C86	C	0.800451	0.997701	-0.517094
C87	C	0.800455	0.997706	-0.442470
C88	C	0.824766	0.932144	-0.380850
C89	C	0.849068	0.866576	-0.393856
C90	C	0.873373	0.801014	-0.332237
C91	C	0.897680	0.735447	-0.345241
C92	C	0.897674	0.735449	-0.419866
C93	C	0.824772	0.932142	-0.306226
C94	C	0.873378	0.801014	-0.257609
C95	C	0.849056	0.866574	0.302845
C96	C	0.849053	0.866573	0.382268
C97	C	1.016930	0.729388	0.002684
C98	C	1.073902	0.682828	-0.019766
C99	C	0.805658	0.668023	0.259450
C100	C	0.790926	0.600636	0.324144
C101	C	1.016921	0.729386	0.236698
C102	C	1.073890	0.682825	0.293671
C103	C	0.681210	1.003766	-0.099038
C104	C	0.624241	1.050328	-0.156011
C105	C	0.681201	1.003764	0.134977
C106	C	0.624229	1.050324	0.157426
C107	C	0.892473	1.065129	-0.121789
C108	C	0.907205	1.132516	-0.186484
C109	C	1.059405	0.648981	-0.071570
C110	C	1.112931	0.605239	-0.092678
C111	C	1.180953	0.595341	-0.061978
C112	C	1.195450	0.629194	-0.010171
C113	C	1.141925	0.672939	0.010932
C114	C	0.825259	0.580972	0.395787
C115	C	0.811416	0.517663	0.456583
C116	C	0.763242	0.474015	0.445735
C117	C	0.728905	0.493684	0.374085
C118	C	0.742745	0.556995	0.313292
C119	C	1.141905	0.672944	0.270287
C120	C	1.195442	0.629205	0.323813
C121	C	1.180960	0.595344	0.400723
C122	C	1.112939	0.605229	0.424107
C123	C	1.059404	0.648971	0.370583
C124	C	0.556227	1.060216	-0.132625
C125	C	0.502695	1.103974	-0.186147
C126	C	0.517177	1.137839	-0.263055
C127	C	0.585198	1.127950	-0.286441
C128	C	0.638730	1.084197	-0.232919
C129	C	0.638727	1.084178	0.209224
C130	C	0.585205	1.127937	0.230316
C131	C	0.517183	1.137837	0.199613
C132	C	0.502686	1.103981	0.147810
C133	C	0.556209	1.060228	0.126714
C134	C	0.955382	1.176146	-0.175612
C135	C	0.969238	1.239460	-0.236396
C136	C	0.934912	1.259145	-0.308049
C137	C	0.886733	1.215509	-0.318920
C138	C	0.872881	1.152194	-0.258138
H139	H	0.824374	0.207129	0.044125
H140	H	0.182380	0.831636	0.081782
H141	H	1.004023	0.657040	-0.096583
H142	H	0.777605	0.289580	-0.002625
H143	H	1.224530	0.559719	-0.079168
F144	F	0.430307	1.114487	-0.161244
H145	H	0.893152	0.747628	-0.566706
F146	F	0.991922	1.155208	-0.099359
H147	H	1.224558	0.559728	0.444298
F148	F	1.097488	0.569214	-0.147813
F149	F	0.774578	1.067485	-0.428636
F150	F	1.005397	0.315844	0.225169
F151	F	0.798907	1.001918	-0.292387
H152	H	0.596982	1.155528	-0.349066
H153	H	1.250841	0.621129	0.014820
H154	H	0.694108	1.076147	-0.251970
H155	H	0.714787	0.572996	0.254958
F156	F	0.460225	1.184406	0.222073
H157	H	0.705540	0.663478	-0.074665
H158	H	0.694109	1.076122	0.234234
F159	F	0.234310	0.760607	0.108112
H160	H	1.101157	0.577653	0.486734
H161	H	0.706052	0.415762	-0.074196
H162	H	0.917466	0.682065	-0.295061
F163	F	1.157364	0.708954	0.066073
H164	H	0.858789	1.231547	-0.377268
H165	H	0.917464	0.682068	-0.430462
F166	F	0.987017	0.659477	0.395481
F167	F	0.479379	0.609271	0.164221
H168	H	0.864485	0.616504	0.404635
H169	H	0.356359	0.664314	0.143818
F170	F	0.847968	0.496741	0.532831
F171	F	0.923984	0.459395	0.143754
F172	F	0.540799	1.024179	-0.050776
F173	F	0.460196	1.184403	-0.320011
F174	F	0.600647	1.163960	0.285452
F175	F	0.748520	0.406634	0.510444
F176	F	1.267830	0.618692	0.298910
H177	H	0.689682	0.458137	0.365263
F178	F	1.031001	0.182980	0.250776
H179	H	1.153709	0.700509	0.207666
F180	F	0.887078	0.524475	0.106852
H181	H	0.447296	1.112049	0.122816
F182	F	0.540766	1.024196	0.071589
H183	H	0.603948	0.663620	0.144094
F184	F	0.344108	1.087685	-0.013138
F185	F	1.020513	1.285893	-0.224809
H186	H	0.946197	1.310702	-0.357535
H187	H	0.833649	1.116675	-0.267000
H188	H	0.680449	0.548619	-0.099798
F189	F	1.002447	0.052271	0.222206
H190	H	0.515742	0.901519	0.055900
H191	H	0.446983	0.967646	0.031355
H192	H	0.216405	1.105045	-0.019557
H193	H	0.893174	0.747625	-0.207441
F194	F	0.079691	1.083467	-0.011590
H195	H	0.780660	1.051077	-0.567268
F196	F	0.798876	1.001905	-0.670301
