data_functionalizedCrystal
_audit_creation_method	'MofGen! by Chris Wilmer'
_symmetry_space_group_name_H-M	'P1'
_symmetry_Int_Tables_number	1
_symmetry_cell_setting	triclinic
loop_
_symmetry_equiv_pos_as_xyz
  x,y,z
_cell_length_a	10.654556
_cell_length_b	10.654549
_cell_length_c	9.130313
_cell_angle_alpha	89.996706
_cell_angle_beta	90.002362
_cell_angle_gamma	95.513843
loop_
_atom_site_label
_atom_site_type_symbol
_atom_site_fract_x
_atom_site_fract_y
_atom_site_fract_z
O1	O	-1.667836	0.176436	-0.121741
O2	O	-1.302358	0.193234	-0.121755
O3	O	-1.493500	0.002096	-0.121742
O4	O	-1.476694	0.367574	-0.121754
O5	O	-1.493485	0.002092	0.121857
O6	O	-1.302343	0.193230	0.121844
O7	O	-1.667820	0.176432	0.121858
Cu8	Cu	-1.485080	0.184830	0.144093
Cu9	Cu	-1.485098	0.184836	-0.143990
O10	O	-1.476678	0.367570	0.121844
C11	C	-1.492259	-0.044704	0.000056
C12	C	-1.488567	-0.184147	0.000052
C13	C	-1.255553	0.191997	0.000042
C14	C	-1.116110	0.188302	0.000037
C15	C	-1.597630	-0.394660	0.000046
C16	C	-1.601108	-0.263639	0.000058
C17	C	-1.372539	-0.235682	0.000049
C18	C	-1.369062	-0.366701	0.000047
C19	C	-1.714626	0.177669	0.000057
C20	C	-1.854069	0.181364	0.000053
C21	C	-0.919573	0.183101	-0.132738
C22	C	-1.050595	0.186566	-0.132747
C23	C	-1.050597	0.186560	0.132838
C24	C	-0.919578	0.183087	0.132846
C25	C	-1.477920	0.414370	0.000043
C26	C	-1.481612	0.553813	0.000039
N27	N	-1.485077	0.184826	0.346716
C28	C	-1.569743	0.100226	0.423374
C29	C	-1.569754	0.100227	0.576711
C30	C	-1.400429	0.269438	0.576718
C31	C	-1.400413	0.269430	0.423384
N32	N	-1.485104	0.184835	0.653387
H33	H	-1.695582	-0.221693	0.000066
O34	O	-0.856052	0.181591	-0.261818
C35	C	-0.874767	0.291032	-0.342595
H36	H	-0.965470	0.329751	-0.304844
H37	H	-0.882235	0.266730	-0.464073
H38	H	-0.791732	0.365109	-0.324187
O39	O	-1.114341	0.188431	-0.261648
C40	C	-1.176829	0.299031	-0.269616
H41	H	-1.192037	0.335743	-0.154324
H42	H	-1.271945	0.277053	-0.325827
H43	H	-1.117037	0.373729	-0.335140
H44	H	-1.103951	0.187966	0.240953
O45	O	-1.652054	0.018222	0.651337
C46	C	-1.730138	0.086211	0.739985
H47	H	-1.680967	0.184021	0.762956
H48	H	-1.749565	0.033976	0.847811
H49	H	-1.823022	0.095614	0.680874
O50	O	-0.856101	0.181235	0.261943
C51	C	-0.901375	0.073487	0.342710
H52	H	-1.000931	0.039814	0.304949
H53	H	-0.902870	0.098021	0.464189
H54	H	-0.836936	-0.004500	0.324305
O55	O	-1.651847	0.017838	0.348996
C56	C	-1.630346	-0.106657	0.386564
H57	H	-1.529786	-0.108170	0.428712
H58	H	-1.644243	-0.169595	0.285763
H59	H	-1.699620	-0.142877	0.475592
H60	H	-1.274581	-0.408653	0.000048
H61	H	-1.331499	0.338323	0.639157
O62	O	-1.263333	-0.158288	-0.000020
C63	C	-1.291277	-0.031597	0.000015
H64	H	-1.389971	-0.025714	-0.046097
H65	H	-1.219617	0.027125	-0.070713
H66	H	-1.286837	0.006243	0.116881
H67	H	-1.689275	-0.459374	0.000039
H68	H	-1.331461	0.338322	0.360965
