data_functionalizedCrystal
_audit_creation_method	'MofGen! by Chris Wilmer'
_symmetry_space_group_name_H-M	'P1'
_symmetry_Int_Tables_number	1
_symmetry_cell_setting	triclinic
loop_
_symmetry_equiv_pos_as_xyz
  x,y,z
_cell_length_a	15.995363
_cell_length_b	12.837942
_cell_length_c	11.892095
_cell_angle_alpha	85.697431
_cell_angle_beta	93.896133
_cell_angle_gamma	89.163168
loop_
_atom_site_label
_atom_site_type_symbol
_atom_site_fract_x
_atom_site_fract_y
_atom_site_fract_z
O1	O	-1.126465	-0.127059	-0.093919
O2	O	-0.884008	-0.143544	-0.093939
O3	O	-0.999860	0.015601	-0.093923
O4	O	-1.010613	-0.286204	-0.093936
O5	O	-0.990199	0.002352	0.094083
O6	O	-0.874347	-0.156793	0.094067
O7	O	-1.116804	-0.140307	0.094087
Zn8	Zn	-0.994042	-0.150654	0.123927
Zn9	Zn	-1.006771	-0.133198	-0.123779
O10	O	-1.000952	-0.299453	0.094070
C11	C	-0.847928	-0.149484	0.000061
C12	C	-0.754815	-0.147434	0.000054
N13	N	-0.985361	-0.162566	0.292980
C14	C	-0.991397	0.047598	0.000080
C15	C	-0.980564	0.162676	0.000077
C16	C	-0.416481	-0.140073	0.000081
C17	C	-0.454850	-0.026759	0.000505
C18	C	-0.551725	-0.028779	0.000072
C19	C	-0.584333	-0.143724	0.000068
C20	C	-0.553223	-0.192063	-0.107290
C21	C	-0.456364	-0.189204	-0.107371
C22	C	-0.445226	-0.206612	0.106427
C23	C	-0.542096	-0.206690	0.107837
C24	C	-0.679195	-0.145793	0.000057
C25	C	-0.321619	-0.138007	0.000085
C26	C	-0.152884	-0.134353	0.000087
C27	C	-0.245998	-0.136363	0.000096
C28	C	-1.009415	-0.331449	0.000066
C29	C	-1.020249	-0.446526	0.000061
C30	C	-1.110802	0.403628	0.000064
C31	C	-1.100627	0.511754	0.000061
C32	C	-0.950040	0.487058	0.000060
C33	C	-0.960215	0.378931	0.000063
C34	C	-1.040599	0.337220	0.000067
C35	C	-1.050772	0.229091	0.000077
C36	C	-0.900187	0.204398	0.000069
C37	C	-0.890012	0.312524	0.000066
N38	N	-1.015458	-0.121277	-0.292832
C39	C	-1.075860	-0.038325	0.529641
C40	C	-1.069799	-0.046659	0.647982
C41	C	-0.967172	-0.187564	0.648005
C42	C	-0.973234	-0.179229	0.529664
C43	C	-1.027580	-0.104608	0.470486
C44	C	-1.033646	-0.096280	0.352143
C45	C	-0.931015	-0.237179	0.352168
C46	C	-0.924954	-0.245513	0.470509
H47	H	-0.572693	0.009741	0.077032
Br48	Br	-1.195908	0.601878	0.000050
H49	H	-1.077900	-0.035523	0.303961
H50	H	-0.884596	0.521040	0.000045
Br51	Br	-0.804903	0.114266	0.000092
H52	H	-0.880704	-0.306265	0.518706
Br53	Br	-0.780926	0.369143	0.000047
H54	H	-0.420095	-0.290231	0.107151
H55	H	-1.120118	0.022428	0.481457
H56	H	-0.417552	-0.175290	0.187803
Br57	Br	-1.135320	0.043306	0.728261
Br58	Br	-0.893408	-0.288815	0.728329
Br59	Br	-1.219888	0.347012	0.000104
H60	H	-0.428756	0.013124	0.077497
Br61	Br	-0.422746	0.057413	-0.127094
Br62	Br	-0.865498	-0.327148	0.271877
H63	H	-0.580015	0.020894	-0.077017
H64	H	-0.438927	-0.142779	-0.187621
H65	H	-0.431006	-0.272076	-0.112245
H66	H	-0.574291	-0.276228	-0.111285
H67	H	-1.116224	0.195132	0.000085
H68	H	-0.582605	-0.147604	-0.187186
H69	H	-0.562075	-0.171477	0.187261
H70	H	-0.563816	-0.290968	0.114319
