data_functionalizedCrystal
_audit_creation_method	'MofGen! by Chris Wilmer'
_symmetry_space_group_name_H-M	'P1'
_symmetry_Int_Tables_number	1
_symmetry_cell_setting	triclinic
loop_
_symmetry_equiv_pos_as_xyz
  x,y,z
_cell_length_a	14.853563
_cell_length_b	7.088899
_cell_length_c	8.559649
_cell_angle_alpha	97.658681
_cell_angle_beta	76.705934
_cell_angle_gamma	96.958159
loop_
_atom_site_label
_atom_site_type_symbol
_atom_site_fract_x
_atom_site_fract_y
_atom_site_fract_z
O1	O	-1.174526	0.158969	-0.193892
O2	O	-0.910328	0.158974	-0.218746
O3	O	-1.065703	0.158969	0.026232
O4	O	-1.019151	0.158974	-0.438870
O5	O	-1.080202	-0.159007	-0.003080
O6	O	-0.924826	-0.159002	-0.248058
O7	O	-1.189025	-0.159007	-0.223204
Cu8	Cu	-1.058250	-0.188038	-0.238307
Cu9	Cu	-1.041103	0.188005	-0.203642
O10	O	-1.033649	-0.159002	-0.468182
C11	C	-0.884067	-0.000013	-0.232277
C12	C	-0.784219	-0.000011	-0.228906
C13	C	-0.729406	0.173324	-0.211346
C14	C	-0.745212	-0.173345	-0.243284
C15	C	-0.651401	-0.173350	-0.240109
C16	C	-0.596588	-0.000014	-0.222549
C17	C	-0.635586	0.173325	-0.208165
C18	C	-0.612398	-0.346686	-0.254476
C19	C	-0.518582	-0.346697	-0.251299
C20	C	-0.463766	-0.173360	-0.233751
C21	C	-0.502769	-0.000013	-0.219368
C22	C	-0.447956	0.173322	-0.201808
C23	C	-0.486955	0.346670	-0.187437
C24	C	-0.580770	0.346662	-0.190617
C25	C	-0.369951	-0.173352	-0.230571
C26	C	-0.354136	0.173323	-0.198627
N27	N	-1.070316	-0.452526	-0.262688
C28	C	-0.215287	-0.000018	-0.209665
C29	C	-0.315138	-0.000017	-0.213012
C30	C	-1.076480	-0.000015	0.071098
C31	C	-1.086981	-0.000005	0.248456
N32	N	-1.029044	0.452493	-0.179249
C33	C	-1.022872	-0.000013	-0.513048
C34	C	-1.012371	-0.000011	-0.690405
H35	H	-0.442316	0.487800	-0.173131
C36	C	-0.916486	0.000396	0.198443
C37	C	-0.898549	0.164021	0.116798
C38	C	-0.810223	0.164475	0.014397
H39	H	-0.914166	-0.110353	0.122287
H40	H	-0.871052	0.000495	0.260531
H41	H	-0.943970	0.163904	0.054713
H42	H	-0.900849	0.274796	0.192912
H43	H	-0.764789	0.164574	0.076485
H44	H	-0.807911	0.053719	-0.061748
H45	H	-0.798038	0.275500	-0.041001
C46	C	-1.127507	-0.561137	-0.377837
C47	C	-1.219171	-0.512516	-0.329540
C48	C	-1.271880	-0.612522	-0.435590
H49	H	-1.126801	-0.694673	-0.376247
H50	H	-1.101793	-0.528389	-0.484133
H51	H	-1.244878	-0.545276	-0.223272
H52	H	-1.219905	-0.378997	-0.331139
H53	H	-1.246166	-0.579775	-0.541886
H54	H	-1.271167	-0.746053	-0.433992
H55	H	-1.334077	-0.579534	-0.402845
H56	H	-0.986258	-0.465847	-0.092799
H57	H	-0.309512	0.314475	-0.184338
C58	C	-1.182917	-0.000407	0.359463
C59	C	-1.238343	-0.164016	0.315358
C60	C	-1.326718	-0.164462	0.417594
H61	H	-1.210669	0.110353	0.350293
H62	H	-1.177515	-0.000521	0.467911
H63	H	-1.243748	-0.163884	0.206937
H64	H	-1.210620	-0.274802	0.324537
H65	H	-1.321316	-0.164577	0.526042
H66	H	-1.354461	-0.053696	0.408416
H67	H	-1.364333	-0.275477	0.387693
C68	C	-0.771653	0.361669	-0.195481
C69	C	-0.763700	0.466280	-0.047754
C70	C	-0.802596	0.639805	-0.033096
H71	H	-0.835388	0.337130	-0.199789
H72	H	-0.739682	0.432976	-0.281433
H73	H	-0.795674	0.394988	0.038175
H74	H	-0.699975	0.490869	-0.043413
H75	H	-0.770625	0.711112	-0.119048
H76	H	-0.866329	0.615247	-0.037410
H77	H	-0.797198	0.710812	0.067129
C78	C	-0.804575	-0.361673	-0.262599
C79	C	-0.766859	-0.466279	-0.408781
C80	C	-0.821514	-0.639796	-0.426619
H81	H	-0.866049	-0.337125	-0.262535
H82	H	-0.805746	-0.432989	-0.175606
H83	H	-0.765698	-0.394979	-0.495751
H84	H	-0.705391	-0.490879	-0.408878
H85	H	-0.822685	-0.711112	-0.339626
H86	H	-0.882985	-0.615229	-0.426550
H87	H	-0.795927	-0.710800	-0.525796
H88	H	-0.612532	0.487793	-0.178913
H89	H	-0.657036	-0.487806	-0.268758
H90	H	-0.486837	-0.487848	-0.263000
H91	H	-0.338200	-0.314489	-0.242287
