data_functionalizedCrystal
_audit_creation_method	'MofGen! by Chris Wilmer'
_symmetry_space_group_name_H-M	'P1'
_symmetry_Int_Tables_number	1
_symmetry_cell_setting	triclinic
loop_
_symmetry_equiv_pos_as_xyz
  x,y,z
_cell_length_a	12.784905
_cell_length_b	12.837942
_cell_length_c	17.766277
_cell_angle_alpha	90.004102
_cell_angle_beta	90.009992
_cell_angle_gamma	83.968130
loop_
_atom_site_label
_atom_site_type_symbol
_atom_site_fract_x
_atom_site_fract_y
_atom_site_fract_z
O1	O	1.410974	0.006435	0.062599
O2	O	1.910974	0.506435	0.562599
O3	O	1.105975	0.050427	0.062599
O4	O	1.605975	0.550427	0.562599
O5	O	1.251712	-0.121862	0.062594
O6	O	1.751712	0.378138	0.562594
O7	O	1.265238	0.178724	0.062603
O8	O	1.765238	0.678724	0.562603
O9	O	1.251682	-0.121864	-0.062594
O10	O	1.751682	0.378136	0.437406
O11	O	1.105946	0.050425	-0.062589
O12	O	1.605946	0.550425	0.437411
O13	O	1.410945	0.006433	-0.062590
O14	O	1.910945	0.506433	0.437410
Cu15	Cu	1.258442	0.028429	-0.074020
Cu16	Cu	1.758442	0.528429	0.425980
Cu17	Cu	1.258477	0.028431	0.074030
Cu18	Cu	1.758477	0.528431	0.574030
O19	O	1.265208	0.178722	-0.062585
O20	O	1.765208	0.678722	0.437415
C21	C	1.066651	0.053288	0.000005
C22	C	1.566651	0.553288	0.500005
C23	C	0.949519	0.061801	0.000005
C24	C	1.449519	0.561801	0.500005
C25	C	0.735568	-0.111642	0.000013
C26	C	1.235568	0.388358	0.500013
C27	C	0.625513	-0.103648	0.000013
C28	C	1.125513	0.396352	0.500013
C29	C	0.619351	0.085781	0.000011
C30	C	1.119351	0.585781	0.500011
C31	C	0.729407	0.077787	0.000011
C32	C	1.229407	0.577787	0.500011
C33	C	0.787511	-0.020928	0.000011
C34	C	1.287511	0.479072	0.500011
C35	C	0.897569	-0.028921	0.000005
C36	C	1.397569	0.471079	0.500005
C37	C	0.891405	0.160508	0.000008
C38	C	1.391405	0.660508	0.500008
C39	C	0.781350	0.168502	0.000008
C40	C	1.281350	0.668502	0.500008
C41	C	1.247128	-0.160072	0.000000
C42	C	1.747128	0.339928	0.500000
C43	C	1.233500	-0.273920	0.000002
C44	C	1.733500	0.226080	0.500002
C45	C	1.397331	-0.529646	0.000017
C46	C	1.897331	-0.029646	0.500017
C47	C	1.384532	-0.636618	0.000018
C48	C	1.884532	-0.136618	0.500018
C49	C	1.195102	-0.594839	0.000011
C50	C	1.695102	-0.094839	0.500011
C51	C	1.207901	-0.487867	0.000010
C52	C	1.707901	0.012133	0.500010
C53	C	1.309019	-0.455275	0.000012
C54	C	1.809019	0.044725	0.500012
C55	C	1.321818	-0.348301	0.000005
C56	C	1.821818	0.151699	0.500005
C57	C	1.132389	-0.306523	0.000003
C58	C	1.632389	0.193477	0.500003
C59	C	1.119589	-0.413495	0.000004
C60	C	1.619589	0.086505	0.500004
C61	C	1.450269	0.003573	0.000006
C62	C	1.950269	0.503573	0.500006
C63	C	1.567401	-0.004940	0.000011
C64	C	2.067401	0.495060	0.500011
C65	C	1.269792	0.216932	0.000010
C66	C	1.769792	0.716932	0.500010
C67	C	1.283420	0.330781	0.000014
C68	C	1.783420	0.830781	0.500014
N69	N	1.258426	0.028426	-0.178151
N70	N	1.758426	0.528426	0.321849
C71	C	1.328610	0.085014	-0.217529
C72	C	1.828610	0.585014	0.282471
C73	C	1.328626	0.085009	-0.296331
C74	C	1.828626	0.585009	0.203669
C75	C	1.258440	0.028431	-0.335751
C76	C	1.758440	0.528431	0.164249
C77	C	1.188250	-0.028169	-0.296363
C78	C	1.688250	0.471831	0.203637
C79	C	1.188243	-0.028171	-0.217563
C80	C	1.688243	0.471829	0.282437
C81	C	1.163193	0.034102	-0.460611
C82	C	1.663193	0.534102	0.039389
C83	C	1.163198	0.034112	-0.539410
C84	C	1.663198	0.534112	-0.039410
C85	C	1.258462	0.028432	-0.578798
C86	C	1.758462	0.528432	-0.078798
C87	C	1.353724	0.022764	-0.539377
C88	C	1.853724	0.522764	-0.039377
C89	C	1.353717	0.022762	-0.460577
C90	C	1.853717	0.522762	0.039423
C91	C	1.258440	0.028427	-0.421197
C92	C	1.758440	0.528427	0.078803
C93	C	1.328670	0.085018	-0.703622
C94	C	1.828670	0.585018	-0.203622
C95	C	1.328687	0.085006	-0.782426
C96	C	1.828687	0.585006	-0.282426
C97	C	1.188303	-0.028165	-0.782456
C98	C	1.688303	0.471835	-0.282456
C99	C	1.188294	-0.028160	-0.703654
C100	C	1.688294	0.471840	-0.203654
C101	C	1.258476	0.028437	-0.664242
C102	C	1.758476	0.528437	-0.164242
N103	N	1.258502	0.028426	0.178160
N104	N	1.758502	0.528426	0.678160
H105	H	1.404153	-0.321767	0.000004
H106	H	1.904153	0.178233	0.500004
Cl107	Cl	1.473493	0.015623	-0.588885
Cl108	Cl	1.973493	0.515623	-0.088885
Cl109	Cl	1.043425	0.041157	-0.411102
Cl110	Cl	1.543425	0.541157	0.088898
Cl111	Cl	1.524447	-0.488669	0.000001
Cl112	Cl	2.024447	0.011331	0.500001
Cl113	Cl	0.708294	0.292593	0.000012
Cl114	Cl	1.208294	0.792593	0.500012
H115	H	1.112776	-0.621395	0.000017
H116	H	1.612776	-0.121395	0.500017
Cl117	Cl	0.560216	-0.217694	0.000019
Cl118	Cl	1.060216	0.282306	0.500019
H119	H	1.131105	-0.074236	-0.328464
H120	H	1.631105	0.425764	0.171536
H121	H	0.933708	0.234375	0.000002
H122	H	1.433708	0.734375	0.500002
Cl123	Cl	0.808618	-0.235737	0.000003
Cl124	Cl	1.308618	0.264263	0.500003
H125	H	0.572023	0.166150	0.000020
H126	H	1.072023	0.666150	0.500020
Cl127	Cl	1.416865	0.156153	-0.345846
Cl128	Cl	1.916865	0.656153	0.154154
H129	H	1.131089	-0.074253	-0.185501
H130	H	1.631089	0.425747	0.314499
H131	H	1.385817	0.131102	-0.671531
H132	H	1.885817	0.631102	-0.171531
Cl133	Cl	0.992477	-0.454479	0.000008
Cl134	Cl	1.492477	0.045521	0.500008
H135	H	1.456445	-0.697169	0.000025
H136	H	1.956445	-0.197169	0.500025
H137	H	1.131138	-0.074235	-0.671592
H138	H	1.631138	0.425765	-0.171592
H139	H	1.060479	-0.245957	-0.000008
H140	H	1.560479	0.254043	0.499992
H141	H	1.385762	0.131095	-0.185445
H142	H	1.885762	0.631095	0.314555
H143	H	1.431282	0.018144	-0.428484
H144	H	1.931282	0.518144	0.071516
Cl145	Cl	1.416932	0.156146	-0.831931
Cl146	Cl	1.916932	0.656146	-0.331931
H147	H	1.131157	-0.074234	-0.814551
H148	H	1.631157	0.425766	-0.314551
H149	H	1.085631	0.038733	-0.571500
H150	H	1.585631	0.538733	-0.071500
H151	H	0.944876	-0.109300	0.000004
H152	H	1.444876	0.390700	0.500004
