data_functionalizedCrystal
_audit_creation_method	'MofGen! by Chris Wilmer'
_symmetry_space_group_name_H-M	'P1'
_symmetry_Int_Tables_number	1
_symmetry_cell_setting	triclinic
loop_
_symmetry_equiv_pos_as_xyz
  x,y,z
_cell_length_a	15.625110
_cell_length_b	15.538191
_cell_length_c	9.130313
_cell_angle_alpha	89.997194
_cell_angle_beta	71.916659
_cell_angle_gamma	66.740235
loop_
_atom_site_label
_atom_site_type_symbol
_atom_site_fract_x
_atom_site_fract_y
_atom_site_fract_z
O1	O	1.155988	0.122968	-0.492286
O2	O	0.888718	0.137604	-0.350308
O3	O	1.074379	-0.006774	-0.448927
O4	O	0.970327	0.267345	-0.393667
O5	O	1.074376	-0.006770	-0.692524
O6	O	0.888715	0.137607	-0.593906
O7	O	1.155985	0.122971	-0.735883
Cu8	Cu	1.022350	0.130290	-0.687137
Cu9	Cu	1.022353	0.130285	-0.399055
O10	O	0.970324	0.267349	-0.637264
C11	C	0.855346	0.136941	-0.454380
C12	C	0.755915	0.134949	-0.401560
C13	C	1.085265	-0.041853	-0.576504
C14	C	1.117692	-0.146383	-0.593715
C15	C	0.615771	0.132141	-0.194338
C16	C	0.709202	0.134012	-0.243985
C17	C	0.709206	0.134021	-0.509549
C18	C	0.615771	0.132154	-0.459922
C19	C	0.569062	0.131213	-0.302315
C20	C	0.569061	0.131226	-0.567900
C21	C	0.475637	0.129355	-0.518278
C22	C	0.428923	0.128412	-0.360678
C23	C	0.475638	0.129342	-0.252693
C24	C	0.615775	0.132160	-0.725508
C25	C	0.569066	0.131233	-0.833485
C26	C	0.475637	0.129368	-0.783862
C27	C	0.428922	0.128425	-0.626263
C28	C	0.428922	0.128438	-0.891847
C29	C	0.335498	0.126566	-0.842225
C30	C	0.335498	0.126553	-0.576641
C31	C	0.795531	-0.434606	-0.422611
C32	C	0.826025	-0.532831	-0.438813
C33	C	0.997544	-0.555044	-0.529925
C34	C	0.967065	-0.456819	-0.513724
C35	C	0.866057	-0.396607	-0.460068
C36	C	1.037590	-0.418820	-0.551180
C37	C	1.007113	-0.320603	-0.534988
C38	C	0.906110	-0.260386	-0.481339
C39	C	0.835580	-0.298390	-0.443875
C40	C	1.138597	-0.479033	-0.604847
C41	C	1.209123	-0.441035	-0.642303
C42	C	1.178646	-0.342816	-0.626101
C43	C	1.077644	-0.282599	-0.572451
C44	C	1.249177	-0.304812	-0.663564
C45	C	1.218700	-0.206595	-0.647372
C46	C	1.047166	-0.184382	-0.556259
C47	C	1.189357	0.123634	-0.631808
C48	C	1.288788	0.125626	-0.684618
C49	C	0.959439	0.302428	-0.509684
C50	C	0.927011	0.406958	-0.492463
N51	N	1.022354	0.130292	-0.889762
C52	C	1.104573	0.066384	-1.010086
C53	C	1.104575	0.066372	-1.163424
C54	C	0.940132	0.194187	-1.076095
C55	C	0.940129	0.194193	-0.922760
C56	C	1.186799	0.002483	-0.977088
C57	C	1.269025	-0.061430	-1.097417
C58	C	1.269027	-0.061441	-1.250755
C59	C	1.186802	0.002461	-1.283764
N60	N	1.022359	0.130275	-0.196435
H61	H	0.297459	0.125799	-0.448299
C62	C	1.107219	-0.620373	-0.588479
C63	C	1.151549	-0.603193	-0.737363
C64	C	1.252579	-0.663362	-0.791355
H65	H	1.137585	-0.608898	-0.519754
H66	H	1.115315	-0.684325	-0.592863
H67	H	1.143460	-0.539256	-0.732970
H68	H	1.121213	-0.614674	-0.806124
H69	H	1.260675	-0.727314	-0.795738
H70	H	1.282935	-0.651882	-0.722619
H71	H	1.282668	-0.651720	-0.892382
H72	H	0.352850	0.126889	-0.320278
H73	H	1.186806	0.002440	-1.408623
H74	H	0.297458	0.125829	-0.930148
C75	C	0.749295	-0.573904	-0.397972
C76	C	0.654318	-0.500148	-0.347479
C77	C	0.583613	-0.537949	-0.309825
H78	H	0.757482	-0.611741	-0.487243
H79	H	0.757564	-0.611731	-0.317379
H80	H	0.646052	-0.462337	-0.428064
H81	H	0.646100	-0.462305	-0.258197
H82	H	0.591882	-0.575776	-0.229233
H83	H	0.591809	-0.575785	-0.399103
H84	H	0.519164	-0.487911	-0.275548
H85	H	0.964916	-0.135354	-0.512556
H86	H	0.873188	0.246214	-1.102983
H87	H	0.691847	0.133685	-0.765905
C88	C	0.759780	0.135225	-0.126628
C89	C	0.700435	0.215725	-0.015013
C90	C	0.747003	0.216881	0.093101
H91	H	0.769311	0.080118	-0.076948
H92	H	0.822094	0.136527	-0.178687
H93	H	0.638139	0.214414	0.037040
H94	H	0.690900	0.270845	-0.064646
H95	H	0.809317	0.218183	0.041043
H96	H	0.756532	0.161770	0.142769
H97	H	0.706748	0.271503	0.168836
C98	C	0.759965	0.134847	-0.680725
C99	C	0.773890	0.053443	-0.768228
C100	C	0.820655	0.054168	-0.925920
H101	H	0.719895	0.189346	-0.714173
H102	H	0.822327	0.136041	-0.694892
H103	H	0.711537	0.052258	-0.754071
H104	H	0.813968	-0.001069	-0.734829
H105	H	0.883018	0.055363	-0.940087
H106	H	0.780580	0.108671	-0.959351
H107	H	0.830117	-0.001067	-0.985308
C108	C	0.850920	0.263733	-0.792214
C109	C	0.835258	0.356291	-0.821172
C110	C	0.753093	0.420374	-0.700934
H111	H	0.794058	0.253515	-0.787070
H112	H	0.862680	0.254643	-0.696147
H113	H	0.823491	0.365377	-0.917213
H114	H	0.892097	0.366539	-0.826301
H115	H	0.764854	0.411284	-0.604867
H116	H	0.696238	0.410148	-0.695799
H117	H	0.742461	0.483182	-0.720558
H118	H	0.753330	-0.249362	-0.400172
H119	H	0.437599	0.128588	-0.124351
H120	H	0.466971	0.129194	-1.020173
C121	C	1.358194	-0.130742	-1.061267
C122	C	1.340598	-0.117057	-0.901229
C123	C	1.422713	-0.180901	-0.867872
H124	H	1.369009	-0.193632	-1.091981
H125	H	1.415018	-0.120430	-1.116470
H126	H	1.283790	-0.127377	-0.846045
H127	H	1.329794	-0.054180	-0.870477
H128	H	1.479538	-0.170589	-0.923075
H129	H	1.433522	-0.243787	-0.898595
H130	H	1.410789	-0.171619	-0.759287
C131	C	0.873154	-0.153766	-0.464056
C132	C	0.909819	-0.127314	-0.608837
C133	C	0.879491	-0.029107	-0.592972
H134	H	0.802915	-0.123236	-0.426820
H135	H	0.897967	-0.135624	-0.392330
H136	H	0.885002	-0.145447	-0.680538
H137	H	0.980055	-0.157820	-0.646097
H138	H	0.904304	-0.010965	-0.521246
H139	H	0.809252	0.001414	-0.555733
H140	H	0.904371	-0.011148	-0.691198
C141	C	0.685896	-0.369115	-0.364590
C142	C	0.663388	-0.312057	-0.477939
C143	C	0.562411	-0.251708	-0.424541
H144	H	0.648143	-0.405694	-0.344608
H145	H	0.670424	-0.330287	-0.271465
H146	H	0.678850	-0.350880	-0.571037
H147	H	0.701116	-0.275458	-0.497935
H148	H	0.546938	-0.212881	-0.331416
H149	H	0.524666	-0.288295	-0.404559
H150	H	0.547128	-0.212982	-0.501433
H151	H	0.577733	0.131387	-0.065996
H152	H	0.607111	0.131995	-0.961811
C153	C	1.318771	-0.506458	-0.700243
C154	C	1.341279	-0.563483	-0.586857
C155	C	1.442280	-0.623751	-0.640163
H156	H	1.334344	-0.545318	-0.793366
H157	H	1.356446	-0.469792	-0.720169
H158	H	1.303617	-0.600145	-0.566952
H159	H	1.325730	-0.524648	-0.493727
H160	H	1.479955	-0.587086	-0.660089
H161	H	1.457844	-0.662606	-0.733286
H162	H	1.457567	-0.662444	-0.563234
H163	H	1.163408	-0.559007	-0.618016
H164	H	1.331417	-0.353850	-0.707265
H165	H	1.335974	-0.113488	-1.348724
H166	H	1.276129	-0.175656	-0.677874
H167	H	1.186806	0.002488	-0.852238
