data_functionalizedCrystal
_audit_creation_method	'MofGen! by Chris Wilmer'
_symmetry_space_group_name_H-M	'P1'
_symmetry_Int_Tables_number	1
_symmetry_cell_setting	triclinic
loop_
_symmetry_equiv_pos_as_xyz
  x,y,z
_cell_length_a	10.489741
_cell_length_b	14.044220
_cell_length_c	9.565339
_cell_angle_alpha	90.001002
_cell_angle_beta	89.999484
_cell_angle_gamma	91.135974
loop_
_atom_site_label
_atom_site_type_symbol
_atom_site_fract_x
_atom_site_fract_y
_atom_site_fract_z
O1	O	0.307735	-1.259807	0.116110
O2	O	0.296630	-0.983762	0.116145
O3	O	0.117221	-1.128066	0.116118
O4	O	0.487143	-1.115503	0.116137
O5	O	0.117232	-1.128054	-0.116402
O6	O	0.296640	-0.983750	-0.116375
O7	O	0.307745	-1.259795	-0.116410
Zn8	Zn	0.302195	-1.121771	-0.153310
Zn9	Zn	0.302180	-1.121786	0.153045
O10	O	0.487154	-1.115492	-0.116383
C11	C	0.069599	-1.127111	-0.000141
C12	C	-0.072319	-1.124272	-0.000138
C13	C	0.291774	-0.948408	-0.000110
C14	C	0.277274	-0.843084	-0.000097
N15	N	0.302204	-1.121768	-0.362389
C16	C	-0.149771	-1.032456	-0.000116
C17	C	-0.237489	-1.075824	-0.114766
C18	C	-0.237472	-1.075857	0.114481
C19	C	-0.158167	-1.167678	-0.114882
C20	C	-0.158142	-1.167698	0.114467
C21	C	-0.245826	-1.211132	-0.000211
C22	C	0.534776	-1.116446	-0.000121
C23	C	0.676694	-1.119285	-0.000115
C24	C	0.312601	-1.295149	-0.000152
C25	C	0.327101	-1.400473	-0.000156
C26	C	0.250766	-0.650241	-0.000126
C27	C	0.353604	-0.593310	-0.000127
C28	C	0.338854	-0.486006	-0.000143
C29	C	0.265514	-0.757555	-0.000110
C30	C	0.385143	-1.055011	-0.453580
C31	C	0.419664	-1.140902	-0.546769
C32	C	0.267697	-1.035914	-0.546756
C33	C	0.336789	-1.207702	-0.453526
C34	C	0.184764	-1.102657	-0.453506
C35	C	0.219244	-1.188609	-0.546652
N36	N	0.302161	-1.121797	0.362125
H37	H	-0.107777	-0.956965	-0.000222
H38	H	-0.272436	-1.036969	-0.211684
H39	H	0.455357	-0.998610	-0.412715
N40	N	-0.114536	-1.216368	-0.236606
N41	N	0.002237	-1.226378	-0.256284
H42	H	0.033057	-1.260762	-0.342252
H43	H	0.151654	-0.618396	-0.000138
N44	N	0.477953	-0.633252	-0.000132
N45	N	0.511119	-0.686173	-0.098134
H46	H	0.598938	-0.714385	-0.098137
N47	N	-0.298203	-1.305922	-0.000308
N48	N	-0.274126	-1.361198	-0.098838
H49	H	-0.311117	-1.428144	-0.098914
H50	H	-0.272382	-1.037000	0.211418
N51	N	-0.114273	-1.216395	0.236066
N52	N	-0.139514	-1.185115	0.355024
H53	H	-0.108531	-1.219501	0.440915
H54	H	0.518963	-1.157086	-0.587734
H55	H	0.366075	-1.280336	-0.412746
N56	N	0.131240	-1.259528	-0.597586
N57	N	0.146189	-1.345180	-0.567406
H58	H	0.084040	-1.395270	-0.603379
H59	H	0.085494	-1.086446	-0.412508
H60	H	0.238530	-0.963297	-0.587712
