data_functionalizedCrystal
_audit_creation_method	'MofGen! by Chris Wilmer'
_symmetry_space_group_name_H-M	'P1'
_symmetry_Int_Tables_number	1
_symmetry_cell_setting	triclinic
loop_
_symmetry_equiv_pos_as_xyz
  x,y,z
_cell_length_a	15.995292
_cell_length_b	16.992695
_cell_length_c	16.053802
_cell_angle_alpha	87.258926
_cell_angle_beta	87.423633
_cell_angle_gamma	92.931580
loop_
_atom_site_label
_atom_site_type_symbol
_atom_site_fract_x
_atom_site_fract_y
_atom_site_fract_z
O1	O	1.121072	-0.097552	-0.069346
O2	O	0.878129	-0.110079	-0.069366
O3	O	0.998626	0.010326	-0.069349
O4	O	1.000575	-0.217958	-0.069362
O5	O	0.991992	0.003726	0.069509
O6	O	0.871495	-0.116680	0.069492
O7	O	1.114438	-0.104152	0.069512
Zn8	Zn	0.991913	-0.111464	0.091549
Zn9	Zn	1.000654	-0.102768	-0.091403
O10	O	0.993940	-0.224558	0.069496
C11	C	0.843582	-0.112870	0.000061
C12	C	0.750528	-0.111341	0.000053
C13	C	0.992803	0.036238	0.000079
C14	C	0.985327	0.123281	0.000078
C15	C	1.148984	-0.101362	0.000084
C16	C	1.242039	-0.102891	0.000086
C17	C	1.580155	-0.108510	0.000064
C18	C	1.551042	-0.021589	-0.000239
C19	C	1.454240	-0.019953	0.000081
C20	C	1.412412	-0.105722	0.000074
C21	C	1.440641	-0.152940	0.079362
C22	C	1.537499	-0.153989	0.079422
C23	C	1.545002	-0.148257	-0.078486
C24	C	1.448343	-0.144987	-0.079527
C25	C	1.317610	-0.104151	0.000083
C26	C	1.674956	-0.110084	0.000061
C27	C	0.999763	-0.250470	0.000065
C28	C	1.007240	-0.337513	0.000060
N29	N	0.985953	-0.117398	0.216408
C30	C	1.057463	0.173535	0.000085
C31	C	1.050434	0.255321	0.000077
C32	C	0.971267	0.286850	0.000067
C33	C	0.899126	0.236590	0.000058
C34	C	0.906156	0.154806	0.000061
C35	C	0.942129	0.530443	0.000054
C36	C	0.935104	0.612233	0.000054
C37	C	1.086412	0.630959	0.000071
C38	C	1.093436	0.549172	0.000078
C39	C	1.021295	0.498919	0.000064
N40	N	0.964080	0.370448	0.000061
N41	N	1.028483	0.415323	0.000065
N42	N	1.006619	-0.096827	-0.216262
C43	C	1.037246	-0.066184	0.260109
C44	C	1.033086	-0.070342	0.347515
C45	C	0.977636	-0.125720	0.391219
C46	C	0.926338	-0.176937	0.347512
C47	C	0.930495	-0.172774	0.260107
C48	C	0.959478	-0.143881	0.652626
C49	C	0.955327	-0.148042	0.740037
C50	C	1.062074	-0.041446	0.740034
C51	C	1.066229	-0.037291	0.652628
C52	C	1.014928	-0.088505	0.608929
N53	N	0.973384	-0.129973	0.480562
N54	N	1.019176	-0.084247	0.519587
H55	H	1.435648	0.016777	-0.056755
O56	O	1.411114	-0.120307	0.149841
C57	C	1.445416	-0.058725	0.276955
C58	C	1.478950	-0.095680	0.197177
H59	H	1.500244	-0.038789	0.315240
H60	H	1.403274	-0.104262	0.315518
H61	H	1.407894	-0.005712	0.259133
H62	H	1.516508	-0.148685	0.214923
H63	H	1.521046	-0.050093	0.158635
H64	H	1.121929	0.147871	0.000098
H65	H	0.834667	0.262268	0.000045
H66	H	1.559476	-0.126714	0.138696
H67	H	1.109175	0.296235	0.000084
O68	O	0.909776	-0.193669	0.610097
C69	C	0.903813	-0.296099	0.511455
C70	C	0.960197	-0.239735	0.559554
H71	H	0.944556	-0.333369	0.470594
H72	H	0.861674	-0.260335	0.470488
H73	H	0.863459	-0.336359	0.557729
H74	H	1.000603	-0.199463	0.513340
H75	H	1.002280	-0.275547	0.600534
O76	O	1.091017	-0.012268	0.217715
C77	C	1.132240	0.125339	0.191093
C78	C	1.071280	0.064352	0.239125
H79	H	1.116316	0.187299	0.208398
H80	H	1.126417	0.119611	0.121100
H81	H	1.199164	0.114246	0.208267
H82	H	1.004330	0.075406	0.222021
H83	H	1.077176	0.070095	0.309106
O84	O	1.170404	0.518679	0.000053
C85	C	1.319736	0.545883	0.000133
C86	C	1.232623	0.580522	0.000134
H87	H	1.370063	0.595865	0.000216
H88	H	1.329650	0.510846	-0.057987
H89	H	1.323982	0.505280	0.058237
H90	H	1.228316	0.621158	-0.057930
H91	H	1.222747	0.615512	0.058293
H92	H	1.575133	0.009034	0.056308
O93	O	1.156468	0.679815	-0.000072
C94	C	1.239755	0.786464	-0.071985
C95	C	1.160394	0.731173	-0.071933
H96	H	1.242946	0.828012	-0.130069
H97	H	1.297577	0.749922	-0.072034
H98	H	1.237463	0.822427	-0.013848
H99	H	1.162604	0.695198	-0.130060
H100	H	1.102606	0.767759	-0.071841
O101	O	1.426418	0.017754	0.067984
C102	C	1.430284	0.138219	0.141374
C103	C	1.461871	0.095605	0.064439
H104	H	1.458921	0.201174	0.138524
H105	H	1.449415	0.105483	0.200587
H106	H	1.359077	0.139559	0.141937
H107	H	1.533078	0.094254	0.063795
H108	H	1.442677	0.128356	0.005261
O109	O	0.835997	0.106097	0.000091
C110	C	0.685181	0.096152	0.000017
C111	C	0.764569	0.151403	0.000009
H112	H	0.627412	0.132761	-0.000067
H113	H	0.681849	0.054647	0.058141
H114	H	0.687518	0.060140	-0.058082
H115	H	0.762286	0.187466	0.058069
H116	H	0.767871	0.192856	-0.058153
O117	O	0.858135	0.642734	-0.000002
C118	C	0.708797	0.615534	0.000012
C119	C	0.795906	0.580887	0.000056
H120	H	0.658461	0.565547	0.000076
H121	H	0.704458	0.656087	-0.058115
H122	H	0.698985	0.650623	0.058109
H123	H	0.805776	0.545760	-0.058002
H124	H	0.800205	0.540377	0.058221
O125	O	1.119848	0.016567	0.609953
C126	C	1.237172	0.038519	0.510616
C127	C	1.176735	-0.022666	0.559030
H128	H	1.283169	0.006824	0.469420
H129	H	1.273204	0.074648	0.556610
H130	H	1.199841	0.079393	0.469933
H131	H	1.214002	-0.063592	0.599715
H132	H	1.140702	-0.058738	0.512991
O133	O	1.559600	-0.230250	0.083760
C134	C	1.512054	-0.367384	0.091453
C135	C	1.486913	-0.281057	0.086553
H136	H	1.453303	-0.408485	0.093695
H137	H	1.548096	-0.378658	0.150145
H138	H	1.553391	-0.378916	0.034082
H139	H	1.445548	-0.269464	0.143881
H140	H	1.450915	-0.269826	0.027825
O141	O	0.872083	0.481612	-0.000102
C142	C	0.795654	0.381799	-0.072025
C143	C	0.875016	0.437076	-0.071962
H144	H	0.798007	0.345765	-0.130109
H145	H	0.737842	0.418352	-0.072082
H146	H	0.792387	0.340316	-0.013888
H147	H	0.878364	0.478570	-0.130090
H148	H	0.932790	0.400473	-0.071861
H149	H	1.074852	-0.028639	0.383096
O150	O	1.111857	0.008418	0.782395
C151	C	1.150479	0.143470	0.809193
C152	C	1.094067	0.087081	0.761153
H153	H	1.136103	0.207080	0.792050
H154	H	1.219060	0.134121	0.791984
H155	H	1.137996	0.130945	0.879166
H156	H	1.106476	0.099572	0.691169
H157	H	1.025504	0.096441	0.778431
H158	H	0.910171	-0.193140	0.775616
O159	O	0.872427	-0.230626	0.390057
C160	C	0.754471	-0.251973	0.488720
C161	C	0.815480	-0.191084	0.440606
H162	H	0.708402	-0.220026	0.529586
H163	H	0.791247	-0.293097	0.529683
H164	H	0.718561	-0.287878	0.442455
H165	H	0.851405	-0.155125	0.486810
H166	H	0.778657	-0.150014	0.399630
O167	O	0.880759	-0.222635	0.217691
C168	C	0.842045	-0.357684	0.190965
C169	C	0.898438	-0.301306	0.239037
H170	H	0.856305	-0.421301	0.208219
H171	H	0.854542	-0.345263	0.120978
H172	H	0.773486	-0.348219	0.208153
H173	H	0.967016	-0.310738	0.221919
H174	H	0.885869	-0.313740	0.309012
H175	H	1.574305	-0.118178	-0.138585
H176	H	1.412855	-0.216194	0.082306
H177	H	1.579511	0.014612	-0.057100
H178	H	1.430457	-0.110561	-0.138183
H179	H	1.419779	-0.207357	-0.084329
O180	O	1.566730	-0.224566	-0.079247
C181	C	1.559664	-0.346069	-0.150720
C182	C	1.534978	-0.259673	-0.149958
H183	H	1.534019	-0.374474	-0.207892
H184	H	1.532437	-0.379749	-0.091728
H185	H	1.630872	-0.347926	-0.153129
H186	H	1.463779	-0.257743	-0.147578
H187	H	1.562265	-0.226031	-0.208947
