data_functionalizedCrystal
_audit_creation_method	'MofGen! by Chris Wilmer'
_symmetry_space_group_name_H-M	'P1'
_symmetry_Int_Tables_number	1
_symmetry_cell_setting	triclinic
loop_
_symmetry_equiv_pos_as_xyz
  x,y,z
_cell_length_a	17.077404
_cell_length_b	16.625546
_cell_length_c	17.077396
_cell_angle_alpha	90.030215
_cell_angle_beta	90.019501
_cell_angle_gamma	90.022693
loop_
_atom_site_label
_atom_site_type_symbol
_atom_site_fract_x
_atom_site_fract_y
_atom_site_fract_z
Zn1	Zn	1.200057	-0.320997	0.443833
Zn2	Zn	1.700057	0.179003	0.943833
Zn3	Zn	1.199965	-0.455839	0.312563
Zn4	Zn	1.699965	0.044161	0.812563
Zn5	Zn	1.068789	-0.321025	0.312581
Zn6	Zn	1.568789	0.178975	0.812581
Zn7	Zn	1.068758	-0.455792	0.443787
Zn8	Zn	1.568758	0.044208	0.943787
O9	O	1.134392	-0.388413	0.378191
O10	O	1.634392	0.111587	0.878191
O11	O	1.309892	-0.338892	0.426432
O12	O	1.809892	0.161108	0.926432
O13	O	1.182539	-0.437988	0.202719
O14	O	1.682539	0.062012	0.702719
O15	O	1.086253	-0.208189	0.330019
O16	O	1.586253	0.291811	0.830019
O17	O	1.309824	-0.437960	0.329988
O18	O	1.809824	0.062040	0.829988
O19	O	1.182695	-0.208168	0.426449
O20	O	1.682695	0.291832	0.926449
O21	O	1.086164	-0.338940	0.202732
O22	O	1.586164	0.161060	0.702732
O23	O	0.958938	-0.338894	0.329974
O24	O	1.458938	0.161106	0.829974
O25	O	1.086200	-0.437879	0.553640
O26	O	1.586200	0.062121	1.053640
O27	O	0.958915	-0.437906	0.426370
O28	O	1.458915	0.062094	0.926370
O29	O	1.182665	-0.338846	0.553674
O30	O	1.682665	0.161154	1.053674
O31	O	1.182509	-0.568666	0.329943
O32	O	1.682509	-0.068666	0.829943
O33	O	1.086111	-0.568630	0.426353
O34	O	1.586111	-0.068630	0.926353
C35	C	0.930444	-0.388399	0.378169
C36	C	1.430444	0.111601	0.878169
C37	C	0.843194	-0.388412	0.378179
C38	C	1.343194	0.111588	0.878179
C39	C	1.134318	-0.597904	0.378158
C40	C	1.634318	-0.097904	0.878158
C41	C	1.134358	-0.687525	0.378170
C42	C	1.634358	-0.187525	0.878170
C43	C	0.802213	-0.440045	0.428292
C44	C	1.302213	0.059955	0.928292
C45	C	0.720232	-0.440047	0.428304
C46	C	1.220232	0.059953	0.928304
C47	C	0.679235	-0.388419	0.378199
C48	C	1.179235	0.111581	0.878199
C49	C	0.720222	-0.336780	0.328084
C50	C	1.220222	0.163220	0.828084
C51	C	0.802201	-0.336774	0.328076
C52	C	1.302201	0.163226	0.828076
C53	C	0.549352	-0.336795	0.328103
C54	C	1.049352	0.163205	0.828103
C55	C	0.467368	-0.336801	0.328110
C56	C	0.967368	0.163199	0.828110
C57	C	0.467383	-0.440068	0.428331
C58	C	0.967383	0.059932	0.928331
C59	C	0.549362	-0.440063	0.428323
C60	C	1.049362	0.059937	0.928323
C61	C	0.590344	-0.388425	0.378207
C62	C	1.090344	0.111575	0.878207
C63	C	1.134495	-1.015701	0.378252
C64	C	1.634495	-0.515701	0.878252
C65	C	1.134454	-0.924392	0.378232
C66	C	1.634454	-0.424392	0.878232
C67	C	1.134426	-0.851616	0.378211
C68	C	1.634426	-0.351616	0.878211
C69	C	1.134386	-0.760302	0.378191
C70	C	1.634386	-0.260302	0.878191
C71	C	1.339136	-0.388428	0.378213
C72	C	1.839136	0.111572	0.878213
C73	C	1.426386	-0.388435	0.378223
C74	C	1.926386	0.111565	0.878223
C75	C	1.134440	-0.388354	0.582936
C76	C	1.634440	0.111646	1.082936
C77	C	1.134460	-0.388329	0.670185
C78	C	1.634460	0.111671	1.170185
C79	C	1.134488	-0.178104	0.378241
C80	C	1.634488	0.321896	0.878241
C81	C	1.134529	-0.088483	0.378263
C82	C	1.634529	0.411517	0.878263
C83	C	1.134390	-0.388414	0.174243
C84	C	1.634390	0.111586	0.674243
C85	C	1.134522	-0.388212	0.086994
C86	C	1.634522	0.111788	0.586994
C87	C	1.184691	-0.336758	0.711195
C88	C	1.684691	0.163242	1.211195
C89	C	1.184700	-0.336731	0.793175
C90	C	1.684700	0.163269	1.293175
C91	C	1.134482	-0.388280	0.834145
C92	C	1.634482	0.111720	1.334145
C93	C	1.084245	-0.439853	0.793130
C94	C	1.584245	0.060147	1.293130
C95	C	1.084233	-0.439875	0.711151
C96	C	1.584233	0.060125	1.211151
C97	C	1.084277	-0.439804	0.964000
C98	C	1.584277	0.060196	1.464000
C99	C	1.084291	-0.439783	1.045985
C100	C	1.584291	0.060217	1.545985
C101	C	1.184745	-0.336660	1.046024
C102	C	1.684745	0.163340	1.546024
C103	C	1.184732	-0.336682	0.964045
C104	C	1.684732	0.163318	1.464045
C105	C	1.134496	-0.388257	0.923036
C106	C	1.634496	0.111743	1.423036
H107	H	0.686869	-0.482093	0.469111
H108	H	1.186869	0.017907	0.969111
H109	H	1.225605	-0.294739	0.826561
H110	H	1.725605	0.205261	1.326561
O111	O	1.233461	-0.286575	1.085977
O112	O	1.733461	0.213425	1.585977
C113	C	1.222713	-0.297613	1.167119
C114	C	1.722713	0.202387	1.667119
H115	H	1.162126	-0.324019	1.178296
H116	H	1.662126	0.175981	1.678296
H117	H	1.269261	-0.340540	1.190390
H118	H	1.769261	0.159460	1.690390
C119	C	1.304352	-0.183582	1.195494
C120	C	1.804352	0.316418	1.695494
C121	C	1.229935	-0.216007	1.209222
C122	C	1.729935	0.283993	1.709222
H123	H	1.308810	-0.133245	1.221466
H124	H	1.808810	0.366755	1.721466
H125	H	1.311596	-0.176147	1.140827
H126	H	1.811596	0.323853	1.640827
H127	H	1.343133	-0.219362	1.214886
H128	H	1.843133	0.280638	1.714886
H129	H	1.191156	-0.180232	1.189821
H130	H	1.691156	0.319768	1.689821
H131	H	1.222685	-0.223435	1.263886
H132	H	1.722685	0.276565	1.763886
H133	H	1.225587	-0.294783	0.677843
H134	H	1.725587	0.205217	1.177843
H135	H	1.225629	-0.294711	0.930690
H136	H	1.725629	0.205289	1.430690
O137	O	0.589273	-0.490101	0.477035
O138	O	1.089273	0.009899	0.977035
C139	C	0.636714	-0.444253	0.527821
C140	C	1.136714	0.055747	1.027821
H141	H	0.649000	-0.383112	0.500239
H142	H	1.149000	0.116888	1.000239
H143	H	0.605148	-0.435472	0.586011
H144	H	1.105148	0.064528	1.086011
C145	C	0.699491	-0.563720	0.575825
C146	C	1.199491	-0.063720	1.075825
C147	C	0.714586	-0.488628	0.541946
C148	C	1.214586	0.011372	1.041946
H149	H	0.747524	-0.591093	0.584542
H150	H	1.247524	-0.091093	1.084542
H151	H	0.667527	-0.594610	0.541612
H152	H	1.167527	-0.094610	1.041612
H153	H	0.673184	-0.556391	0.624314
H154	H	1.173184	-0.056391	1.124314
H155	H	0.740883	-0.495958	0.493455
H156	H	1.240883	0.004042	0.993455
H157	H	0.746555	-0.457740	0.576152
H158	H	1.246555	0.042260	1.076152
H159	H	0.835567	-0.294725	0.287273
H160	H	1.335567	0.205275	0.787273
H161	H	1.043397	-0.481757	1.079340
H162	H	1.543397	0.018243	1.579340
H163	H	1.043321	-0.481861	0.677762
H164	H	1.543321	0.018139	1.177762
H165	H	1.043357	-0.481789	0.930613
H166	H	1.543357	0.018211	1.430613
H167	H	1.043354	-0.481822	0.826494
H168	H	1.543354	0.018178	1.326494
H169	H	0.835587	-0.482090	0.469091
H170	H	1.335587	0.017910	0.969091
H171	H	0.434012	-0.482112	0.469140
H172	H	0.934012	0.017888	0.969140
H173	H	0.582717	-0.294739	0.287300
H174	H	1.082717	0.205261	0.787300
H175	H	0.686836	-0.294739	0.287291
H176	H	1.186836	0.205261	0.787291
H177	H	0.433990	-0.294752	0.287319
H178	H	0.933990	0.205248	0.787319
