data_functionalizedCrystal
_audit_creation_method	'MofGen! by Chris Wilmer'
_symmetry_space_group_name_H-M	'P1'
_symmetry_Int_Tables_number	1
_symmetry_cell_setting	triclinic
loop_
_symmetry_equiv_pos_as_xyz
  x,y,z
_cell_length_a	21.295418
_cell_length_b	14.908780
_cell_length_c	14.908694
_cell_angle_alpha	96.797826
_cell_angle_beta	93.265237
_cell_angle_gamma	86.683646
loop_
_atom_site_label
_atom_site_type_symbol
_atom_site_fract_x
_atom_site_fract_y
_atom_site_fract_z
Zn1	Zn	-0.217623	-1.413354	-0.591787
Zn2	Zn	0.282377	-0.913354	-0.091787
Zn3	Zn	-0.317160	-1.404503	-0.440409
Zn4	Zn	0.182840	-0.904503	0.059591
Zn5	Zn	-0.217636	-1.253250	-0.431688
Zn6	Zn	0.282364	-0.753250	0.068312
Zn7	Zn	-0.328589	-1.261928	-0.582976
Zn8	Zn	0.171411	-0.761928	-0.082976
O9	O	-0.270252	-1.333259	-0.511715
O10	O	0.229748	-0.833259	-0.011715
O11	O	-0.226038	-1.538852	-0.579044
O12	O	0.273962	-1.038852	-0.079044
O13	O	-0.299181	-1.377103	-0.312586
O14	O	0.200819	-0.877103	0.187414
O15	O	-0.129544	-1.274560	-0.452964
O16	O	0.370456	-0.774560	0.047036
O17	O	-0.299167	-1.532350	-0.467827
O18	O	0.200833	-1.032350	0.032173
O19	O	-0.129534	-1.392188	-0.570588
O20	O	0.370466	-0.892188	-0.070588
O21	O	-0.226061	-1.265978	-0.306178
O22	O	0.273939	-0.765978	0.193822
O23	O	-0.237143	-1.127728	-0.444419
O24	O	0.262857	-0.627728	0.055581
O25	O	-0.318646	-1.289350	-0.710811
O26	O	0.181354	-0.789350	-0.210811
O27	O	-0.318660	-1.134104	-0.555569
O28	O	0.181340	-0.634104	-0.055569
O29	O	-0.237120	-1.400602	-0.717285
O30	O	0.262880	-0.900602	-0.217285
O31	O	-0.406767	-1.385518	-0.459283
O32	O	0.093233	-0.885518	0.040717
O33	O	-0.415164	-1.280768	-0.564026
O34	O	0.084836	-0.780768	-0.064026
C35	C	-0.279144	-1.098071	-0.498092
C36	C	0.220856	-0.598071	0.001908
C37	C	-0.282963	-0.997459	-0.492286
C38	C	0.217037	-0.497459	0.007714
C39	C	-0.214108	-0.815176	-0.597362
C40	C	0.285892	-0.315176	-0.097362
C41	C	-0.217695	-0.720641	-0.591909
C42	C	0.282305	-0.220641	-0.091909
C43	C	-0.293720	-0.713853	-0.475924
C44	C	0.206280	-0.213853	0.024076
C45	C	-0.290133	-0.808388	-0.481376
C46	C	0.209867	-0.308388	0.018624
C47	C	-0.250327	-0.859046	-0.542098
C48	C	0.249673	-0.359046	-0.042098
C49	C	-0.246743	-0.953582	-0.547555
C50	C	0.253257	-0.453582	-0.047555
C51	C	-0.322765	-0.946792	-0.431566
C52	C	0.177235	-0.446792	0.068434
C53	C	-0.326352	-0.852258	-0.426113
C54	C	0.173648	-0.352258	0.073887
C55	C	-0.433806	-1.333150	-0.511666
C56	C	0.066194	-0.833150	-0.011666
C57	C	-0.503773	-1.333188	-0.511680
C58	C	-0.003773	-0.833188	-0.011680
C59	C	-0.998834	-1.388027	-0.457334
C60	C	-0.498834	-0.888027	0.042666
C61	C	-0.933092	-1.387992	-0.457311
C62	C	-0.433092	-0.887992	0.042689
C63	C	-0.904609	-1.333390	-0.511786
C64	C	-0.404609	-0.833390	-0.011786
C65	C	-0.941873	-1.278802	-0.566271
C66	C	-0.441873	-0.778802	-0.066271
C67	C	-1.007614	-1.278832	-0.566286
C68	C	-0.507614	-0.778832	-0.066286
N69	N	-0.804625	-1.330921	-0.590583
N70	N	-0.304625	-0.830921	-0.090583
N71	N	-0.742174	-1.330897	-0.590567
N72	N	-0.242174	-0.830897	-0.090567
C73	C	-0.706536	-1.333293	-0.511742
C74	C	-0.206536	-0.833293	-0.011742
N75	N	-0.735708	-1.335731	-0.432934
N76	N	-0.235708	-0.835731	0.067066
N77	N	-0.798165	-1.335760	-0.432952
N78	N	-0.298165	-0.835760	0.067048
C79	C	-0.833324	-1.333350	-0.511775
C80	C	-0.333324	-0.833350	-0.011775
C81	C	-0.597995	-1.387834	-0.457230
C82	C	-0.097995	-0.887834	0.042770
C83	C	-0.532252	-1.387792	-0.457205
C84	C	-0.032252	-0.887792	0.042795
C85	C	-0.541035	-1.278607	-0.566174
C86	C	-0.041035	-0.778607	-0.066174
C87	C	-0.606776	-1.278644	-0.566191
C88	C	-0.106776	-0.778644	-0.066191
C89	C	-0.635252	-1.333263	-0.511721
C90	C	-0.135252	-0.833263	-0.011721
C91	C	-0.106059	-1.333393	-0.511786
C92	C	0.393941	-0.833393	-0.011786
C93	C	-0.036090	-1.333451	-0.511816
C94	C	0.463910	-0.833451	-0.011816
C95	C	-0.279157	-1.346932	-0.747810
C96	C	0.220843	-0.846932	-0.247810
C97	C	-0.282951	-1.352758	-0.848419
C98	C	0.217049	-0.852758	-0.348419
C99	C	-0.261321	-0.569364	-0.525385
C100	C	0.238679	-0.069364	-0.025385
C101	C	-0.257501	-0.669977	-0.531193
C102	C	0.242499	-0.169977	-0.031193
C103	C	-0.213945	-1.247971	-1.030803
C104	C	0.286055	-0.747971	-0.530803
C105	C	-0.217508	-1.253443	-1.125334
C106	C	0.282492	-0.753443	-0.625334
C107	C	-0.293645	-1.369167	-1.132014
C108	C	0.206355	-0.869167	-0.632014
C109	C	-0.290081	-1.363696	-1.037483
C110	C	0.209919	-0.863696	-0.537483
C111	C	-0.250229	-1.303097	-0.986881
C112	C	0.249771	-0.803097	-0.486881
C113	C	-0.246663	-1.297630	-0.892348
C114	C	0.253337	-0.797630	-0.392348
C115	C	-0.322802	-1.413350	-0.899029
C116	C	0.177198	-0.913350	-0.399029
C117	C	-0.326366	-1.418822	-0.993561
C118	C	0.173634	-0.918822	-0.493561
C119	C	-0.261335	-1.319691	-0.276542
C120	C	0.238665	-0.819691	0.223458
C121	C	-0.257356	-1.314040	-0.175943
C122	C	0.242644	-0.814040	0.324057
H123	H	-0.326122	-0.672590	-0.426477
H124	H	0.173878	-0.172590	0.073523
H125	H	-0.621181	-1.432306	-0.412876
H126	H	-0.121181	-0.932306	0.087124
H127	H	-0.358814	-1.468157	-1.034774
H128	H	0.141186	-0.968157	-0.534774
H129	H	-0.358759	-0.810999	-0.376672
H130	H	0.141241	-0.310999	0.123328
H131	H	-0.501917	-1.432232	-0.412834
H132	H	-0.001917	-0.932232	0.087166
N133	N	-0.895023	-1.443733	-0.401649
N134	N	-0.395023	-0.943733	0.098351
N135	N	-0.899458	-1.432977	-0.317777
N136	N	-0.399458	-0.932977	0.182223
H137	H	-0.872572	-1.472344	-0.278466
H138	H	-0.372572	-0.972344	0.221534
N139	N	-1.045665	-1.223072	-0.621943
N140	N	-0.545665	-0.723072	-0.121943
N141	N	-1.020230	-1.174316	-0.670573
N142	N	-0.520230	-0.674316	-0.170573
H143	H	-1.047103	-1.134934	-0.709882
H144	H	-0.547103	-0.634934	-0.209882
N145	N	-0.511938	-1.222836	-0.621813
N146	N	-0.011938	-0.722836	-0.121813
N147	N	-0.453241	-1.222815	-0.621794
N148	N	0.046759	-0.722815	-0.121794
H149	H	-0.432688	-1.183425	-0.661091
H150	H	0.067312	-0.683425	-0.161091
H151	H	-0.352262	-0.982521	-0.386573
H152	H	0.147738	-0.482521	0.113427
N153	N	-1.027910	-1.443829	-0.401697
N154	N	-0.527910	-0.943829	0.098303
N155	N	-0.994632	-1.492559	-0.353059
N156	N	-0.494632	-0.992559	0.146941
H157	H	-1.015168	-1.531972	-0.313766
H158	H	-0.515168	-1.031972	0.186234
N159	N	-0.359851	-1.469676	-0.854150
N160	N	0.140149	-0.969676	-0.354150
N161	N	-0.356656	-1.464798	-0.769748
N162	N	0.143344	-0.964798	-0.269748
H163	H	-0.382815	-1.504584	-0.738051
H164	H	0.117185	-1.004584	-0.238051
H165	H	-0.637111	-1.234205	-0.610559
H166	H	-0.137111	-0.734205	-0.110559
N167	N	-0.912772	-1.223027	-0.621906
N168	N	-0.412772	-0.723027	-0.121906
N169	N	-0.854075	-1.223008	-0.621887
N170	N	-0.354075	-0.723008	-0.121887
H171	H	-0.833521	-1.183613	-0.661178
H172	H	-0.333521	-0.683613	-0.161178
N173	N	-0.180705	-0.675841	-0.648378
N174	N	0.319295	-0.175841	-0.148378
N175	N	-0.187720	-0.691259	-0.732500
N176	N	0.312280	-0.191259	-0.232500
H177	H	-0.161596	-0.659619	-0.772386
H178	H	0.338404	-0.159619	-0.272386
N179	N	-0.173245	-1.186065	-0.979112
N180	N	0.326755	-0.686065	-0.479112
N181	N	-0.195584	-1.125307	-0.923013
N182	N	0.304416	-0.625307	-0.423013
H183	H	-0.166839	-1.081584	-0.886508
H184	H	0.333161	-0.581584	-0.386508
N185	N	-0.205947	-1.235737	-0.840671
N186	N	0.294053	-0.735737	-0.340671
N187	N	-0.173552	-1.186526	-0.879904
N188	N	0.326448	-0.686526	-0.379904
H189	H	-0.144795	-1.142811	-0.843410
H190	H	0.355205	-0.642811	-0.343410
H191	H	-0.187962	-1.208554	-1.161092
H192	H	0.312038	-0.708554	-0.661092
N193	N	-0.334354	-1.431046	-1.183725
N194	N	0.165646	-0.931046	-0.683725
N195	N	-0.337533	-1.435912	-1.268126
N196	N	0.162467	-0.935912	-0.768126
H197	H	-0.366286	-1.479612	-1.304648
H198	H	0.133714	-0.979612	-0.804648
N199	N	-0.206072	-1.005330	-0.609562
N200	N	0.293928	-0.505330	-0.109562
N201	N	-0.162727	-1.056252	-0.580852
N202	N	0.337273	-0.556252	-0.080852
H203	H	-0.133999	-1.092798	-0.624643
H204	H	0.366001	-0.592798	-0.124643
N205	N	-0.173451	-0.866914	-0.659396
N206	N	0.326549	-0.366914	-0.159396
N207	N	-0.141119	-0.827732	-0.708739
N208	N	0.358881	-0.327732	-0.208739
H209	H	-0.112404	-0.864270	-0.752552
H210	H	0.387596	-0.364270	-0.252552
