data_functionalizedCrystal
_audit_creation_method	'MofGen! by Chris Wilmer'
_symmetry_space_group_name_H-M	'P1'
_symmetry_Int_Tables_number	1
_symmetry_cell_setting	triclinic
loop_
_symmetry_equiv_pos_as_xyz
  x,y,z
_cell_length_a	18.215407
_cell_length_b	21.295417
_cell_length_c	21.295411
_cell_angle_alpha	89.972329
_cell_angle_beta	89.983429
_cell_angle_gamma	90.030150
loop_
_atom_site_label
_atom_site_type_symbol
_atom_site_fract_x
_atom_site_fract_y
_atom_site_fract_z
Zn1	Zn	1.125024	-0.250629	-0.355918
Zn2	Zn	1.625024	0.249371	0.144082
Zn3	Zn	1.124929	-0.355894	-0.250645
Zn4	Zn	1.624929	0.144106	0.249355
Zn5	Zn	1.001963	-0.250644	-0.250663
Zn6	Zn	1.501963	0.249356	0.249337
Zn7	Zn	1.001912	-0.355866	-0.355877
Zn8	Zn	1.501912	0.144134	0.144123
O9	O	1.063457	-0.303258	-0.303276
O10	O	1.563457	0.196742	0.196724
O11	O	1.227995	-0.264599	-0.341963
O12	O	1.727995	0.235401	0.158037
O13	O	1.108599	-0.341951	-0.162558
O14	O	1.608599	0.158049	0.337442
O15	O	1.018349	-0.162552	-0.264650
O16	O	1.518349	0.337448	0.235350
O17	O	1.227926	-0.341937	-0.264620
O18	O	1.727926	0.158063	0.235380
O19	O	1.108761	-0.162542	-0.341980
O20	O	1.608761	0.337458	0.158020
O21	O	1.018257	-0.264623	-0.162571
O22	O	1.518257	0.235377	0.337429
O23	O	0.898972	-0.264596	-0.264610
O24	O	1.398972	0.235404	0.235390
O25	O	1.018261	-0.341888	-0.443972
O26	O	1.518261	0.158112	0.056028
O27	O	0.898934	-0.341902	-0.341910
O28	O	1.398934	0.158098	0.158090
O29	O	1.108711	-0.264571	-0.444002
O30	O	1.608711	0.235429	0.055998
O31	O	1.108549	-0.443980	-0.264580
O32	O	1.608549	0.056020	0.235420
O33	O	1.018169	-0.443959	-0.341893
O34	O	1.518169	0.056041	0.158107
C35	C	0.872251	-0.303248	-0.303258
C36	C	1.372251	0.196752	0.196742
C37	C	0.790452	-0.303258	-0.303265
C38	C	1.290452	0.196742	0.196735
C39	C	0.602257	-0.343575	-0.343465
C40	C	1.102257	0.156425	0.156535
C41	C	0.525399	-0.343577	-0.343473
C42	C	1.025399	0.156423	0.156527
C43	C	0.525408	-0.262953	-0.263101
C44	C	1.025408	0.237047	0.236899
C45	C	0.602266	-0.262949	-0.263096
C46	C	1.102266	0.237051	0.236904
C47	C	0.640688	-0.303263	-0.303278
C48	C	1.140688	0.196737	0.196722
C49	C	0.486972	-0.303270	-0.303290
C50	C	0.986972	0.196730	0.196710
C51	C	0.403638	-0.303271	-0.303298
C52	C	0.903638	0.196729	0.196702
C53	C	0.724027	-0.303260	-0.303270
C54	C	1.224027	0.196740	0.196730
C55	C	1.063363	-0.466810	-0.303244
C56	C	1.563363	0.033190	0.196756
C57	C	1.063390	-0.536778	-0.303251
C58	C	1.563390	-0.036778	0.196749
C59	C	1.110441	-0.569582	-0.343546
C60	C	1.610441	-0.069582	0.156454
C61	C	1.110467	-0.635325	-0.343562
C62	C	1.610467	-0.135325	0.156438
C63	C	1.063450	-0.668261	-0.303271
C64	C	1.563450	-0.168261	0.196729
C65	C	1.016390	-0.635449	-0.262974
C66	C	1.516390	-0.135449	0.237026
C67	C	1.016360	-0.569707	-0.262964
C68	C	1.516360	-0.069707	0.237036
N69	N	1.057895	-0.771520	-0.248180
N70	N	1.557895	-0.271520	0.251820
N71	N	1.057927	-0.833971	-0.248191
N72	N	1.557927	-0.333971	0.251809
C73	C	1.063536	-0.866335	-0.303300
C74	C	1.563536	-0.366335	0.196700
N75	N	1.069125	-0.833889	-0.358397
N76	N	1.569125	-0.333889	0.141603
N77	N	1.069096	-0.771431	-0.358386
N78	N	1.569096	-0.271431	0.141614
C79	C	1.063477	-0.739546	-0.303278
C80	C	1.563477	-0.239546	0.196722
C81	C	1.110617	-0.970425	-0.343615
C82	C	1.610617	-0.470425	0.156385
C83	C	1.110638	-1.036168	-0.343631
C84	C	1.610638	-0.536168	0.156369
C85	C	1.016565	-1.036291	-0.263038
C86	C	1.516565	-0.536291	0.236962
C87	C	1.016540	-0.970549	-0.263027
C88	C	1.516540	-0.470549	0.236973
C89	C	1.063570	-0.937619	-0.303314
C90	C	1.563570	-0.437619	0.196686
C91	C	1.255410	-0.303270	-0.303294
C92	C	1.755410	0.196730	0.196706
C93	C	1.337209	-0.303274	-0.303302
C94	C	1.837209	0.196726	0.196698
C95	C	1.063491	-0.303225	-0.467466
C96	C	1.563491	0.196775	0.032534
C97	C	1.063505	-0.303210	-0.537434
C98	C	1.563505	0.196790	-0.037434
C99	C	1.063571	-0.139068	-0.303322
C100	C	1.563571	0.360932	0.196678
C101	C	1.063620	-0.069100	-0.303341
C102	C	1.563620	0.430900	0.196659
C103	C	1.110628	-0.343344	-1.036886
C104	C	1.610628	0.156656	-0.536886
C105	C	1.110615	-0.343364	-0.971144
C106	C	1.610615	0.156636	-0.471144
C107	C	1.063575	-0.303112	-0.938274
C108	C	1.563575	0.196888	-0.438274
C109	C	1.016531	-0.262849	-0.971152
C110	C	1.516531	0.237151	-0.471152
C111	C	1.016540	-0.262834	-1.036893
C112	C	1.516540	0.237166	-0.536893
N113	N	1.057953	-0.248033	-0.835068
N114	N	1.557953	0.251967	-0.335068
N115	N	1.057948	-0.248048	-0.772616
N116	N	1.557948	0.251952	-0.272616
C117	C	1.063542	-0.303155	-0.740199
C118	C	1.563542	0.196845	-0.240199
N119	N	1.069156	-0.358246	-0.772593
N120	N	1.569156	0.141754	-0.272593
N121	N	1.069165	-0.358230	-0.835050
N122	N	1.569165	0.141770	-0.335050
C123	C	1.063559	-0.303124	-0.866989
C124	C	1.563559	0.196876	-0.366989
C125	C	1.110565	-0.343441	-0.636043
C126	C	1.610565	0.156559	-0.136043
C127	C	1.110547	-0.343462	-0.570300
C128	C	1.610547	0.156538	-0.070300
C129	C	1.016466	-0.262941	-0.570309
C130	C	1.516466	0.237059	-0.070309
C131	C	1.016481	-0.262925	-0.636052
C132	C	1.516481	0.237075	-0.136052
C133	C	1.063534	-0.303174	-0.668915
C134	C	1.563534	0.196826	-0.168915
C135	C	1.063465	-0.303246	-0.139724
C136	C	1.563465	0.196754	0.360276
C137	C	1.063594	-0.303083	-0.069757
C138	C	1.563594	0.196917	0.430243
H139	H	0.494115	-0.230132	-0.230386
H140	H	0.994115	0.269868	0.269614
H141	H	0.633539	-0.376399	-0.376184
H142	H	1.133539	0.123601	0.123816
O143	O	1.156232	-0.382467	-1.068883
O144	O	1.656232	0.117533	-0.568883
C145	C	1.114321	-0.423128	-1.106887
C146	C	1.614321	0.076872	-0.606887
H147	H	1.058560	-0.400933	-1.116729
H148	H	1.558560	0.099067	-0.616729
H149	H	1.144300	-0.431543	-1.153120
H150	H	1.644300	0.068457	-0.653120
H151	H	1.106214	-0.469789	-1.081543
H152	H	1.606214	0.030211	-0.581543
O153	O	0.488181	-0.382796	-0.382529
O154	O	0.988181	0.117204	0.117471
C155	C	0.538578	-0.418362	-0.418002
C156	C	1.038578	0.081638	0.081998
H157	H	0.593351	-0.420505	-0.392209
H158	H	1.093351	0.079495	0.107791
H159	H	0.516347	-0.467970	-0.424629
H160	H	1.016347	0.032030	0.075371
H161	H	0.546787	-0.395374	-0.465852
H162	H	1.046787	0.104626	0.034148
H163	H	0.633557	-0.230118	-0.230371
H164	H	1.133557	0.269882	0.269629
O165	O	0.970692	-0.223840	-0.667913
O166	O	1.470692	0.276160	-0.167913
C167	C	0.897333	-0.237612	-0.651844
C168	C	1.397333	0.262388	-0.151844
H169	H	0.895789	-0.261823	-0.604106
H170	H	1.395789	0.238177	-0.104106
H171	H	0.864363	-0.192181	-0.649598
H172	H	1.364363	0.307819	-0.149598
H173	H	0.872529	-0.269965	-0.688832
H174	H	1.372529	0.230035	-0.188832
H175	H	0.978238	-0.230047	-1.063656
H176	H	1.478238	0.269953	-0.563656
H177	H	0.978231	-0.943838	-0.230212
H178	H	1.478231	-0.443838	0.269788
H179	H	1.148733	-0.542773	-0.376352
H180	H	1.648733	-0.042773	0.123648
O181	O	1.156375	-0.382497	-0.939302
O182	O	1.656375	0.117503	-0.439302
C183	C	1.197890	-0.418032	-0.982405
C184	C	1.697890	0.081968	-0.482405
H185	H	1.200464	-0.392240	-1.029276
H186	H	1.700464	0.107760	-0.529276
H187	H	1.255865	-0.424751	-0.963414
H188	H	1.755865	0.075249	-0.463414
H189	H	1.170912	-0.465839	-0.989380
H190	H	1.670912	0.034161	-0.489380
H191	H	1.148775	-0.662039	-0.376382
H192	H	1.648775	-0.162039	0.123618
O193	O	0.970682	-0.667509	-0.223922
O194	O	1.470682	-0.167509	0.276078
C195	C	0.923131	-0.705540	-0.259730
C196	C	1.423131	-0.205540	0.240270
H197	H	0.949057	-0.715339	-0.307456
H198	H	1.449057	-0.215339	0.192544
H199	H	0.913308	-0.751793	-0.234088
H200	H	1.413308	-0.251793	0.265912
H201	H	0.868576	-0.680243	-0.266602
H202	H	1.368576	-0.180243	0.233398
H203	H	0.978229	-0.230076	-0.944385
H204	H	1.478229	0.269924	-0.444385
O205	O	1.156288	-0.382601	-0.667874
O206	O	1.656288	0.117399	-0.167874
C207	C	1.197809	-0.418135	-0.624760
C208	C	1.697809	0.081865	-0.124760
H209	H	1.167655	-0.420326	-0.577894
H210	H	1.667655	0.079674	-0.077894
H211	H	1.205630	-0.467728	-0.643745
H212	H	1.705630	0.032272	-0.143745
H213	H	1.253716	-0.395087	-0.617780
H214	H	1.753716	0.104913	-0.117780
H215	H	1.148909	-0.943613	-0.376421
H216	H	1.648909	-0.443613	0.123579
H217	H	1.148845	-0.376253	-0.543538
H218	H	1.648845	0.123747	-0.043538
O219	O	0.970632	-0.537936	-0.223758
O220	O	1.470632	-0.037936	0.276242
C221	C	0.929121	-0.581099	-0.188212
C222	C	1.429121	-0.081099	0.311788
H223	H	0.959284	-0.627941	-0.186063
H224	H	1.459284	-0.127941	0.313937
H225	H	0.921298	-0.562143	-0.138606
H226	H	1.421298	-0.062143	0.361394
H227	H	0.873215	-0.588117	-0.211222
H228	H	1.373215	-0.088117	0.288778
O229	O	1.156417	-1.067939	-0.382794
O230	O	1.656417	-0.567939	0.117206
C231	C	1.197906	-1.024774	-0.418357
C232	C	1.697906	-0.524774	0.081643
H233	H	1.200448	-0.977926	-0.392568
H234	H	1.700448	-0.477926	0.107432
H235	H	1.255894	-1.043720	-0.425113
H236	H	1.755894	-0.543720	0.074887
H237	H	1.170927	-1.017772	-0.466148
H238	H	1.670927	-0.517772	0.033852
O239	O	0.970851	-1.068344	-0.223989
O240	O	1.470851	-0.568344	0.276011
C241	C	0.923296	-1.106370	-0.259800
C242	C	1.423296	-0.606370	0.240200
H243	H	0.949225	-1.116170	-0.307526
H244	H	1.449225	-0.616170	0.192474
H245	H	0.913466	-1.152623	-0.234160
H246	H	1.413466	-0.652623	0.265840
H247	H	0.868746	-1.081067	-0.266674
H248	H	1.368746	-0.581067	0.233326
H249	H	0.978163	-0.230168	-0.543547
H250	H	1.478163	0.269832	-0.043547
