data_functionalizedCrystal
_audit_creation_method	'MofGen! by Chris Wilmer'
_symmetry_space_group_name_H-M	'P1'
_symmetry_Int_Tables_number	1
_symmetry_cell_setting	triclinic
loop_
_symmetry_equiv_pos_as_xyz
  x,y,z
_cell_length_a	12.827893
_cell_length_b	19.120786
_cell_length_c	12.827885
_cell_angle_alpha	92.476068
_cell_angle_beta	90.019272
_cell_angle_gamma	92.465175
loop_
_atom_site_label
_atom_site_type_symbol
_atom_site_fract_x
_atom_site_fract_y
_atom_site_fract_z
Zn1	Zn	1.579849	-0.279598	0.573054
Zn2	Zn	1.572256	-0.397073	0.390838
Zn3	Zn	1.405089	-0.279632	0.398326
Zn4	Zn	1.397592	-0.397020	0.565541
O5	O	1.488697	-0.338331	0.481940
O6	O	1.725078	-0.295189	0.548893
O7	O	1.550041	-0.381530	0.245593
O8	O	1.434586	-0.181337	0.427781
O9	O	1.719499	-0.381497	0.415020
O10	O	1.562982	-0.181312	0.556154
O11	O	1.427223	-0.295247	0.251094
O12	O	1.257859	-0.295196	0.420496
O13	O	1.421810	-0.381408	0.712776
O14	O	1.252351	-0.381441	0.543349
O15	O	1.555713	-0.295138	0.718296
O16	O	1.542772	-0.495356	0.407735
O17	O	1.414447	-0.495318	0.536089
C18	C	1.217188	-0.338317	0.481921
C19	C	1.101034	-0.338328	0.481936
C20	C	1.046547	-0.381071	0.542625
C21	C	0.926496	-0.381084	0.542643
C22	C	1.477000	-0.520823	0.470307
C23	C	1.472092	-0.598894	0.465365
C24	C	1.536585	-0.635498	0.529934
C25	C	1.531969	-0.708854	0.525293
C26	C	1.462865	-0.745604	0.456076
C27	C	1.398364	-0.708995	0.391504
C28	C	1.402976	-0.635640	0.396152
C29	C	1.445594	-0.967091	0.438703
C30	C	1.440990	-1.040451	0.434058
C31	C	1.574594	-1.040305	0.567848
C32	C	1.579204	-0.966949	0.572485
C33	C	1.514700	-0.930346	0.507917
C34	C	1.458147	-0.820586	0.451328
C35	C	1.519413	-0.855366	0.512671
C36	C	1.761266	-0.338345	0.481959
C37	C	1.877419	-0.338351	0.481968
C38	C	1.488772	-0.338263	0.754514
C39	C	1.488804	-0.338235	0.870669
C40	C	1.500467	-0.155126	0.493641
C41	C	1.505483	-0.077055	0.498627
C42	C	1.488685	-0.338347	0.210429
C43	C	1.488868	-0.338178	0.094287
C44	C	1.555071	-0.295537	0.925186
C45	C	1.555106	-0.295507	1.045238
H46	H	0.879649	-0.417680	0.594598
H47	H	1.393075	-0.937295	0.386127
C48	C	1.332029	-0.595376	0.325120
N49	N	1.278587	-0.565049	0.271618
H50	H	1.432090	-0.374762	0.912874
C51	C	1.412216	-0.387565	1.030974
N52	N	1.354480	-0.424763	0.983279
C53	C	1.322412	-0.749422	0.315302
N54	N	1.265229	-0.779872	0.257878
C55	C	1.602931	-0.749115	0.596311
N56	N	1.656387	-0.779440	0.649801
H57	H	1.611843	-0.258954	1.092111
C58	C	1.103592	-0.430499	0.612802
N59	N	1.146556	-0.467731	0.665658
H60	H	1.627108	-1.070115	0.620417
C61	C	0.940697	-0.288908	0.411772
N62	N	0.988366	-0.251666	0.358903
H63	H	1.058805	-0.301741	0.429995
C64	C	1.612608	-0.595080	0.606077
N65	N	1.669868	-0.564638	0.663433
H66	H	1.635474	-0.937029	0.628847
H67	H	1.611776	-0.259003	0.882981
C68	C	1.364962	-1.080875	0.357915
N69	N	1.307701	-1.111322	0.300567
H70	H	1.575674	-0.825442	0.569032
H71	H	1.401885	-0.850516	0.394969
