data_functionalizedCrystal
_audit_creation_method	'MofGen! by Chris Wilmer'
_symmetry_space_group_name_H-M	'P1'
_symmetry_Int_Tables_number	1
_symmetry_cell_setting	triclinic
loop_
_symmetry_equiv_pos_as_xyz
  x,y,z
_cell_length_a	9.065218
_cell_length_b	7.540329
_cell_length_c	23.532407
_cell_angle_alpha	89.991770
_cell_angle_beta	83.932281
_cell_angle_gamma	89.996962
loop_
_atom_site_label
_atom_site_type_symbol
_atom_site_fract_x
_atom_site_fract_y
_atom_site_fract_z
O1	O	1.956284	-0.147508	0.083497
O2	O	2.456284	0.352492	0.583497
O3	O	1.526662	-0.147513	0.090346
O4	O	2.026662	0.352487	0.590346
O5	O	1.754428	-0.147478	0.004085
O6	O	2.254428	0.352522	0.504085
O7	O	1.728517	-0.147543	0.169758
O8	O	2.228517	0.352457	0.669758
O9	O	1.754415	0.147487	0.004084
O10	O	2.254415	0.647487	0.504084
O11	O	1.526648	0.147453	0.090345
O12	O	2.026648	0.647453	0.590345
O13	O	1.956270	0.147457	0.083496
O14	O	2.456270	0.647457	0.583496
Cu15	Cu	1.741458	0.174387	0.086921
Cu16	Cu	2.241458	0.674387	0.586921
Cu17	Cu	1.741474	-0.174443	0.086922
Cu18	Cu	2.241474	0.325557	0.586922
O19	O	1.728504	0.147422	0.169757
O20	O	2.228504	0.647422	0.669757
C21	C	1.471701	-0.000030	0.089687
C22	C	1.971701	0.499970	0.589687
C23	C	1.307955	-0.000030	0.087719
C24	C	1.807955	0.499970	0.587719
C25	C	1.753761	0.000009	-0.017136
C26	C	2.253761	0.500009	0.482864
C27	C	1.751778	0.000023	-0.080368
C28	C	2.251778	0.500023	0.419632
C29	C	2.011231	-0.000030	0.084155
C30	C	2.511231	0.499970	0.584155
C31	C	2.174977	-0.000041	0.086123
C32	C	2.674977	0.499959	0.586123
N33	N	1.741458	0.419736	0.086919
N34	N	2.241458	0.919736	0.586919
N35	N	1.741486	-0.419792	0.086919
N36	N	2.241486	0.080208	0.586919
C37	C	1.874123	-0.000073	-0.478573
C38	C	2.374123	0.499927	0.021427
C39	C	1.872280	-0.000087	-0.537986
C40	C	2.372280	0.499913	-0.037986
O41	O	1.985695	-0.000151	-0.573898
O42	O	2.485695	0.499849	-0.073898
N43	N	1.736873	-0.000087	-0.561607
N44	N	2.236873	0.499913	-0.061607
C45	C	1.603300	-0.000091	-0.525810
C46	C	2.103300	0.499909	-0.025810
O47	O	1.487956	-0.000094	-0.551356
O48	O	1.987956	0.499906	-0.051356
C49	C	1.605144	-0.000090	-0.466397
C50	C	2.105144	0.499910	0.033603
C51	C	1.740560	-0.000072	-0.442780
C52	C	2.240560	0.499928	0.057220
C53	C	2.009527	-0.000057	-0.454955
C54	C	2.509527	0.499943	0.045045
C55	C	2.011370	-0.000040	-0.395546
C56	C	2.511370	0.499960	0.104454
C57	C	1.877807	-0.000040	-0.359753
C58	C	2.377807	0.499960	0.140247
C59	C	1.742402	-0.000056	-0.383371
C60	C	2.242402	0.499944	0.116629
C61	C	1.471573	-0.000108	-0.430601
C62	C	1.971573	0.499892	0.069399
C63	C	1.473429	-0.000108	-0.371185
C64	C	1.973429	0.499892	0.128815
C65	C	1.608845	-0.000090	-0.347568
C66	C	2.108845	0.499910	0.152432
C67	C	1.610682	-0.000038	-0.288169
C68	C	2.110682	0.499962	0.211831
N69	N	1.746089	-0.000038	-0.264548
N70	N	2.246089	0.499962	0.235452
C71	C	1.879651	-0.000039	-0.300341
C72	C	2.379651	0.499961	0.199659
C73	C	1.599437	-0.000096	-0.650581
C74	C	2.099437	0.499904	-0.150581
C75	C	1.597591	-0.000084	-0.709992
C76	C	2.097591	0.499916	-0.209992
C77	C	1.866571	-0.000083	-0.722165
C78	C	2.366571	0.499917	-0.222165
C79	C	1.868416	-0.000082	-0.662752
C80	C	2.368416	0.499918	-0.162752
C81	C	1.734844	-0.000096	-0.626960
C82	C	2.234844	0.499904	-0.126960
C83	C	1.883510	-0.000002	-0.175576
C84	C	2.383510	0.499998	0.324424
C85	C	1.885340	0.000022	-0.116160
C86	C	2.385340	0.500022	0.383840
C87	C	1.616360	0.000011	-0.103993
C88	C	2.116360	0.500011	0.396007
C89	C	1.614529	-0.000003	-0.163403
C90	C	2.114529	0.499997	0.336597
C91	C	1.748116	-0.000016	-0.199194
C92	C	2.248116	0.499984	0.300806
O93	O	1.497326	0.000019	-0.252222
O94	O	1.997326	0.500019	0.247778
O95	O	1.994976	-0.000059	-0.274786
O96	O	2.494976	0.499941	0.225214
C97	C	1.729170	-0.000069	0.190979
C98	C	2.229170	0.499931	0.690979
C99	C	1.731154	-0.000094	0.254210
C100	C	2.231154	0.499906	0.754210
H101	H	1.992289	-0.000019	-0.204710
H102	H	2.492289	0.499981	0.295290
H103	H	2.121639	-0.000033	-0.376323
H104	H	2.621639	0.499967	0.123677
O105	O	1.486488	0.000077	-0.069300
O106	O	1.986488	0.500077	0.430700
C107	C	1.366564	0.000006	-0.102880
C108	C	1.866564	0.500006	0.397120
H109	H	1.404650	0.055862	-0.147020
H110	H	1.904650	0.555862	0.352980
H111	H	1.325043	-0.141513	-0.107320
H112	H	1.825043	0.358487	0.392680
C113	C	1.193430	0.047047	-0.019726
C114	C	1.693430	0.547047	0.480274
C115	C	1.240205	0.115663	-0.073937
C116	C	1.740205	0.615663	0.426063
H117	H	1.115482	0.118382	-0.001872
H118	H	1.615482	0.618382	0.498128
H119	H	1.274224	0.047088	0.002898
H120	H	1.774224	0.547088	0.502898
H121	H	1.158839	-0.070885	-0.023433
H122	H	1.658839	0.429115	0.476567
H123	H	1.274812	0.233583	-0.070228
H124	H	1.774812	0.733583	0.429772
H125	H	1.159414	0.115645	-0.096560
H126	H	1.659414	0.615645	0.403440
O127	O	1.996455	-0.000021	-0.756858
O128	O	2.496455	0.499979	-0.256858
C129	C	2.116378	-0.000064	-0.723278
C130	C	2.616378	0.499936	-0.223278
H131	H	2.078283	0.055792	-0.679144
H132	H	2.578283	0.555792	-0.179144
H133	H	2.157926	-0.141576	-0.718823
H134	H	2.657926	0.358424	-0.218823
C135	C	2.289504	0.046992	-0.806437
C136	C	2.789504	0.546992	-0.306437
C137	C	2.242717	0.115610	-0.752233
C138	C	2.742717	0.615610	-0.252233
H139	H	2.367439	0.118338	-0.824299
H140	H	2.867439	0.618338	-0.324299
H141	H	2.208710	0.047015	-0.829061
H142	H	2.708710	0.547015	-0.329061
H143	H	2.324117	-0.070933	-0.802717
H144	H	2.824117	0.429067	-0.302717
H145	H	2.208088	0.233523	-0.755954
H146	H	2.708088	0.733523	-0.255954
H147	H	2.323508	0.115610	-0.729610
H148	H	2.823508	0.615610	-0.229610
H149	H	2.118297	-0.000064	-0.484092
H150	H	2.618297	0.499936	0.015908
H151	H	1.504263	0.000031	-0.182633
H152	H	2.004263	0.500031	0.317367
H153	H	1.487322	-0.000068	-0.729215
H154	H	1.987322	0.499932	-0.229215
H155	H	1.995617	0.000041	-0.096935
H156	H	2.495617	0.500041	0.403065
H157	H	1.978683	-0.000069	-0.643528
H158	H	2.478683	0.499931	-0.143528
H159	H	1.490659	-0.000092	-0.621442
H160	H	1.990659	0.499908	-0.121442
H161	H	1.361303	-0.000133	-0.449820
H162	H	1.861303	0.499867	0.050180
H163	H	1.364656	-0.000122	-0.342046
H164	H	1.864656	0.499878	0.157954
