data_functionalizedCrystal
_audit_creation_method	'MofGen! by Chris Wilmer'
_symmetry_space_group_name_H-M	'P1'
_symmetry_Int_Tables_number	1
_symmetry_cell_setting	triclinic
loop_
_symmetry_equiv_pos_as_xyz
  x,y,z
_cell_length_a	12.594517
_cell_length_b	12.594516
_cell_length_c	11.169409
_cell_angle_alpha	89.967028
_cell_angle_beta	89.975776
_cell_angle_gamma	90.011616
loop_
_atom_site_label
_atom_site_type_symbol
_atom_site_fract_x
_atom_site_fract_y
_atom_site_fract_z
Zn1	Zn	1.627329	-0.423662	-0.678654
Zn2	Zn	2.127329	0.076338	-0.178654
Zn3	Zn	1.627224	-0.601688	-0.477969
Zn4	Zn	2.127224	-0.101688	0.022031
Zn5	Zn	1.449324	-0.423723	-0.477976
Zn6	Zn	1.949324	0.076277	0.022024
Zn7	Zn	1.449328	-0.601598	-0.678601
Zn8	Zn	1.949328	-0.101598	-0.178601
O9	O	1.538301	-0.512668	-0.578300
O10	O	2.038301	-0.012668	-0.078300
O11	O	1.776261	-0.447290	-0.652052
O12	O	2.276261	0.052710	-0.152052
O13	O	1.603579	-0.578144	-0.310020
O14	O	2.103579	-0.078144	0.189980
O15	O	1.472978	-0.274770	-0.504621
O16	O	1.972978	0.225230	-0.004621
O17	O	1.776183	-0.578085	-0.504609
O18	O	2.276183	-0.078085	-0.004609
O19	O	1.603758	-0.274724	-0.652059
O20	O	2.103758	0.225276	-0.152059
O21	O	1.472877	-0.447394	-0.310025
O22	O	1.972877	0.052606	0.189975
O23	O	1.300378	-0.447307	-0.504570
O24	O	1.800378	0.052693	-0.004570
O25	O	1.472986	-0.577932	-0.846558
O26	O	1.972986	-0.077932	-0.346558
O27	O	1.300382	-0.577991	-0.651968
O28	O	1.800382	-0.077991	-0.151968
O29	O	1.603762	-0.447203	-0.846597
O30	O	2.103762	0.052797	-0.346597
O31	O	1.603583	-0.750622	-0.504558
O32	O	2.103583	-0.250622	-0.004558
O33	O	1.472884	-0.750556	-0.651961
O34	O	1.972884	-0.250556	-0.151961
C35	C	1.261760	-0.512647	-0.578264
C36	C	1.761760	-0.012647	-0.078264
C37	C	1.143455	-0.512663	-0.578278
C38	C	1.643455	-0.012663	-0.078278
C39	C	1.074169	-0.441487	-0.498261
C40	C	1.574169	0.058513	0.001739
C41	C	1.003364	-0.538578	-0.468741
C42	C	1.503364	-0.038578	0.031259
C43	C	1.003461	-0.415620	-0.607818
C44	C	1.503461	0.084380	-0.107818
C45	C	1.074208	-0.609805	-0.548701
C46	C	1.574208	-0.109805	-0.048701
C47	C	1.074311	-0.486781	-0.687829
C48	C	1.574311	0.013219	-0.187829
C49	C	1.003538	-0.583939	-0.658351
C50	C	1.503538	-0.083939	-0.158351
C51	C	1.538252	-0.789209	-0.578279
C52	C	2.038252	-0.289209	-0.078279
C53	C	1.538328	-0.907514	-0.578310
C54	C	2.038328	-0.407514	-0.078310
C55	C	1.609498	-0.976765	-0.498223
C56	C	2.109498	-0.476765	0.001777
C57	C	1.635513	-1.047453	-0.607768
C58	C	2.135513	-0.547453	-0.107768
C59	C	1.512446	-1.047625	-0.468835
C60	C	2.012446	-0.547625	0.031165
C61	C	1.564393	-0.976644	-0.687912
C62	C	2.064393	-0.476644	-0.187912
C63	C	1.441280	-0.976811	-0.548906
C64	C	1.941280	-0.476811	-0.048906
C65	C	1.467259	-1.047467	-0.658526
C66	C	1.967259	-0.547467	-0.158526
C67	C	1.815922	-0.512690	-0.578336
C68	C	2.315922	-0.012690	-0.078336
C69	C	1.934227	-0.512700	-0.578351
C70	C	2.434227	-0.012700	-0.078351
C71	C	1.538386	-0.512550	-0.891342
C72	C	2.038386	-0.012550	-0.391342
C73	C	1.538423	-0.512500	-1.024742
C74	C	2.038423	-0.012500	-0.524742
C75	C	1.538380	-0.235047	-0.578347
C76	C	2.038380	0.264953	-0.078347
C77	C	1.538413	-0.116742	-0.578367
C78	C	2.038413	0.383258	-0.078367
C79	C	1.538277	-0.512709	-0.266475
C80	C	2.038277	-0.012709	0.233525
C81	C	1.538447	-0.512459	-0.133076
C82	C	2.038447	-0.012459	0.366924
H83	H	1.105182	-0.381355	-0.430510
H84	H	1.605182	0.118645	0.069490
H85	H	1.490519	-1.078803	-0.376230
H86	H	1.990519	-0.578803	0.123770
H87	H	1.669694	-0.945719	-0.430557
H88	H	2.169694	-0.445719	0.069443
H89	H	0.972202	-0.560492	-0.376128
H90	H	1.472202	-0.060492	0.123872
H91	H	1.105498	-0.464838	-0.780414
H92	H	1.605498	0.035162	-0.280414
F93	F	1.114653	-0.717126	-0.515943
F94	F	1.614653	-0.217126	-0.015943
F95	F	0.963253	-0.662722	-0.746840
F96	F	1.463253	-0.162722	-0.246840
H97	H	0.972329	-0.333547	-0.632731
H98	H	1.472329	0.166453	-0.132731
H99	H	1.717621	-1.078486	-0.632670
H100	H	2.217621	-0.578486	-0.132670
F101	F	1.388639	-1.087792	-0.747181
F102	F	1.888639	-0.587792	-0.247181
F103	F	1.593189	-0.936070	-0.808987
F104	F	2.093189	-0.436070	-0.308987
H105	H	1.359196	-0.945755	-0.523971
H106	H	1.859196	-0.445755	-0.023971
