data_functionalizedCrystal
_audit_creation_method	'MofGen! by Chris Wilmer'
_symmetry_space_group_name_H-M	'P1'
_symmetry_Int_Tables_number	1
_symmetry_cell_setting	triclinic
loop_
_symmetry_equiv_pos_as_xyz
  x,y,z
_cell_length_a	18.050589
_cell_length_b	18.050591
_cell_length_c	18.050582
_cell_angle_alpha	90.020922
_cell_angle_beta	90.018205
_cell_angle_gamma	90.024227
loop_
_atom_site_label
_atom_site_type_symbol
_atom_site_fract_x
_atom_site_fract_y
_atom_site_fract_z
Zn1	Zn	-0.295786	1.135293	0.420054
Zn2	Zn	0.204214	1.635293	0.920054
Zn3	Zn	-0.419969	1.135203	0.295873
Zn4	Zn	0.080031	1.635203	0.795873
Zn5	Zn	-0.295789	1.011112	0.295865
Zn6	Zn	0.204211	1.511112	0.795865
Zn7	Zn	-0.419930	1.011060	0.420009
Zn8	Zn	0.080070	1.511060	0.920009
O9	O	-0.357868	1.073167	0.357950
O10	O	0.142132	1.573167	0.857950
O11	O	-0.312274	1.239205	0.403603
O12	O	0.187726	1.739205	0.903603
O13	O	-0.403514	1.118727	0.191948
O14	O	0.096486	1.618727	0.691948
O15	O	-0.191864	1.027644	0.312354
O16	O	0.308136	1.527644	0.812354
O17	O	-0.403511	1.239140	0.312369
O18	O	0.096489	1.739140	0.812369
O19	O	-0.191862	1.118879	0.403595
O20	O	0.308138	1.618879	0.903595
O21	O	-0.312279	1.027557	0.191942
O22	O	0.187721	1.527557	0.691942
O23	O	-0.312241	0.907180	0.312311
O24	O	0.187759	1.407180	0.812311
O25	O	-0.403444	1.027555	0.523940
O26	O	0.096556	1.527555	1.023940
O27	O	-0.403447	0.907142	0.403519
O28	O	0.096553	1.407142	0.903519
O29	O	-0.312236	1.118828	0.523973
O30	O	0.187764	1.618828	1.023973
O31	O	-0.523888	1.118676	0.312325
O32	O	-0.023888	1.618676	0.812325
O33	O	-0.523860	1.027468	0.403527
O34	O	-0.023860	1.527468	0.903527
C35	C	-0.357841	0.880215	0.357909
C36	C	0.142159	1.380215	0.857909
C37	C	-0.357847	0.797669	0.357909
C38	C	0.142153	1.297669	0.857909
C39	C	-0.550820	1.073077	0.357938
C40	C	-0.050820	1.573077	0.857938
C41	C	-0.633366	1.073107	0.357958
C42	C	-0.133366	1.573107	0.857958
C43	C	-0.308191	0.598217	0.308425
C44	C	0.191809	1.098217	0.808425
C45	C	-0.375927	0.548798	0.290154
C46	C	0.124073	1.048798	0.790154
C47	C	-0.357869	0.646539	0.357943
C48	C	0.142131	1.146539	0.857943
C49	C	-0.290157	0.548877	0.376212
C50	C	0.209843	1.048877	0.876212
C51	C	-0.357885	0.500553	0.357974
C52	C	0.142115	1.000553	0.857974
C53	C	-0.425641	0.598206	0.339637
C54	C	0.074359	1.098206	0.839637
C55	C	-0.339825	0.598289	0.425726
C56	C	0.160175	1.098289	0.925726
C57	C	-0.407607	0.548892	0.407481
C58	C	0.092393	1.048892	0.907481
C59	C	-0.357859	0.730637	0.357923
C60	C	0.142141	1.230637	0.857923
C61	C	-0.357903	0.416457	0.357994
C62	C	0.142097	0.916457	0.857994
C63	C	-0.832828	1.023557	0.407536
C64	C	-0.332828	1.523557	0.907536
C65	C	-0.882261	1.005459	0.339767
C66	C	-0.382261	1.505459	0.839767
C67	C	-0.784497	1.073180	0.357967
C68	C	-0.284497	1.573180	0.857967
C69	C	-0.882146	1.091314	0.425744
C70	C	-0.382146	1.591314	0.925744
C71	C	-0.930482	1.073249	0.357983
C72	C	-0.430482	1.573249	0.857983
C73	C	-0.832842	1.055046	0.290162
C74	C	-0.332842	1.555046	0.790162
C75	C	-0.832722	1.140933	0.376186
C76	C	-0.332722	1.640933	0.876186
C77	C	-0.882133	1.122861	0.308370
C78	C	-0.382133	1.622861	0.808370
C79	C	-0.700398	1.073138	0.357959
C80	C	-0.200398	1.573138	0.857959
C81	C	-1.014578	1.073291	0.357983
C82	C	-0.514578	1.573291	0.857983
C83	C	-0.164163	1.073277	0.357979
C84	C	0.335837	1.573277	0.857979
C85	C	-0.081617	1.073324	0.357991
C86	C	0.418383	1.573324	0.857991
C87	C	-0.357835	1.073196	0.551656
C88	C	0.142165	1.573196	1.051656
C89	C	-0.357821	1.073208	0.634202
C90	C	0.142179	1.573208	1.134202
C91	C	-0.357897	1.266872	0.357992
C92	C	0.142103	1.766872	0.857992
C93	C	-0.357909	1.349418	0.358010
C94	C	0.142091	1.849418	0.858010
C95	C	-0.357848	1.073181	0.164998
C96	C	0.142152	1.573181	0.664998
C97	C	-0.357652	1.073312	0.082453
C98	C	0.142348	1.573312	0.582453
C99	C	-0.407353	1.023612	0.833635
C100	C	0.092647	1.523612	1.333635
C101	C	-0.425511	1.091367	0.883034
C102	C	0.074489	1.591367	1.383034
C103	C	-0.357765	1.073245	0.785332
C104	C	0.142235	1.573245	1.285332
C105	C	-0.339586	1.005527	0.883014
C106	C	0.160414	1.505527	1.383014
C107	C	-0.357711	1.073274	0.931317
C108	C	0.142289	1.573274	1.431317
C109	C	-0.375958	1.141036	0.833645
C110	C	0.124042	1.641036	1.333645
C111	C	-0.290002	1.055150	0.833620
C112	C	0.209998	1.555150	1.333620
C113	C	-0.308134	1.122952	0.882998
C114	C	0.191866	1.622952	1.382998
C115	C	-0.357797	1.073227	0.701234
C116	C	0.142203	1.573227	1.201234
C117	C	-0.357679	1.073300	1.015414
C118	C	0.142321	1.573300	1.515414
H119	H	-0.266226	0.619875	0.266503
H120	H	0.233774	1.119875	0.766503
F121	F	-0.253293	1.177892	0.911153
F122	F	0.246707	1.677892	1.411153
F123	F	-0.396118	1.215926	0.805421
F124	F	0.103882	1.715926	1.305421
F125	F	-0.215150	1.035097	0.805227
F126	F	0.284850	1.535097	1.305227
H127	H	-0.811275	1.039669	0.232834
H128	H	-0.311275	1.539669	0.732834
H129	H	-0.903802	1.106625	0.483056
H130	H	-0.403802	1.606625	0.983056
F131	F	-0.462234	0.968801	0.805303
F132	F	0.037766	1.468801	1.305303
H133	H	-0.810948	1.198184	0.391613
H134	H	-0.310948	1.698184	0.891613
H135	H	-0.482794	1.106690	0.904739
H136	H	0.017206	1.606690	1.404739
F137	F	-0.500519	0.626408	0.319370
F138	F	-0.000519	1.126408	0.819370
F139	F	-0.395892	0.520383	0.215247
F140	F	0.104108	1.020383	0.715247
F141	F	-0.462588	0.520759	0.462234
F142	F	0.037412	1.020759	0.962234
H143	H	-0.324530	0.620045	0.483019
H144	H	0.175470	1.120045	0.983019
H145	H	-0.903645	1.164855	0.266409
H146	H	-0.403645	1.664855	0.766409
F147	F	-0.215302	0.520549	0.396391
F148	F	0.284698	1.020549	0.896391
H149	H	-0.811178	0.981531	0.449395
H150	H	-0.311178	1.481531	0.949395
F151	F	-0.910701	0.930607	0.319626
F152	F	-0.410701	1.430607	0.819626
H153	H	-0.324232	0.948246	0.904701
H154	H	0.175768	1.448246	1.404701
