data_functionalizedCrystal
_audit_creation_method	'MofGen! by Chris Wilmer'
_symmetry_space_group_name_H-M	'P1'
_symmetry_Int_Tables_number	1
_symmetry_cell_setting	triclinic
loop_
_symmetry_equiv_pos_as_xyz
  x,y,z
_cell_length_a	10.654550
_cell_length_b	7.540329
_cell_length_c	10.654550
_cell_angle_alpha	89.996554
_cell_angle_beta	95.515069
_cell_angle_gamma	89.999719
loop_
_atom_site_label
_atom_site_type_symbol
_atom_site_fract_x
_atom_site_fract_y
_atom_site_fract_z
O1	O	1.667839	0.147350	-0.176397
O2	O	1.302360	0.147382	-0.193203
O3	O	1.493502	0.147354	-0.002061
O4	O	1.476696	0.147378	-0.367539
O5	O	1.493491	-0.147611	-0.002059
O6	O	1.302349	-0.147583	-0.193201
O7	O	1.667827	-0.147616	-0.176395
Cu8	Cu	1.485087	-0.174532	-0.184798
Cu9	Cu	1.485100	0.174298	-0.184800
O10	O	1.476685	-0.147587	-0.367537
C11	C	1.255556	-0.000096	-0.191968
C12	C	1.116113	-0.000084	-0.188276
C13	C	1.036628	-0.000082	-0.300818
C14	C	0.905607	-0.000113	-0.297341
C15	C	0.933570	-0.000141	-0.068772
C16	C	1.064588	-0.000123	-0.072250
N17	N	1.485086	-0.419880	-0.184795
C18	C	1.714631	-0.000133	-0.177630
C19	C	1.854074	-0.000134	-0.181322
C20	C	1.492263	-0.000128	0.044738
C21	C	1.488571	-0.000125	0.184181
N22	N	1.485111	0.419647	-0.184793
C23	C	1.477925	-0.000102	-0.414336
C24	C	1.481617	-0.000093	-0.553779
C25	C	1.601112	-0.000134	0.263667
C26	C	1.597636	-0.000112	0.394688
C27	C	1.369066	-0.000079	0.366725
C28	C	1.372544	-0.000088	0.235706
H29	H	1.129309	-0.000130	0.019401
H30	H	0.891602	-0.000183	0.025693
H31	H	1.274601	-0.000052	0.408693
C32	C	0.818172	-0.000102	-0.421133
H33	H	0.732762	-0.000136	-0.402450
H34	H	0.833891	0.102770	-0.468656
H35	H	0.833911	-0.102965	-0.468662
C36	C	1.093302	-0.000058	-0.428441
H37	H	1.027193	-0.000077	-0.494967
H38	H	1.143824	0.102809	-0.434552
H39	H	1.143836	-0.102926	-0.434547
C40	C	1.728735	-0.000154	0.206993
H41	H	1.795262	-0.000140	0.273101
H42	H	1.734843	-0.103017	0.156470
H43	H	1.734845	0.102717	0.156459
C44	C	1.721432	-0.000133	0.482117
H45	H	1.791026	-0.000170	0.432661
H46	H	1.724840	0.102730	0.533801
H47	H	1.724815	-0.103004	0.533814
H48	H	1.280893	-0.000075	0.170985
