data_functionalizedCrystal
_audit_creation_method	'MofGen! by Chris Wilmer'
_symmetry_space_group_name_H-M	'P1'
_symmetry_Int_Tables_number	1
_symmetry_cell_setting	triclinic
loop_
_symmetry_equiv_pos_as_xyz
  x,y,z
_cell_length_a	12.759401
_cell_length_b	12.759393
_cell_length_c	12.759393
_cell_angle_alpha	89.972500
_cell_angle_beta	90.020938
_cell_angle_gamma	89.983648
loop_
_atom_site_label
_atom_site_type_symbol
_atom_site_fract_x
_atom_site_fract_y
_atom_site_fract_z
Zn1	Zn	1.606265	0.418173	0.594042
Zn2	Zn	2.106265	0.918173	1.094042
Zn3	Zn	1.606156	0.593889	0.418371
Zn4	Zn	2.106156	1.093889	0.918371
Zn5	Zn	1.430564	0.418229	0.418377
Zn6	Zn	1.930564	0.918229	0.918377
Zn7	Zn	1.430556	0.593815	0.594009
Zn8	Zn	1.930556	1.093815	1.094009
O9	O	1.518385	0.506026	0.506200
O10	O	2.018385	1.006026	1.006200
O11	O	1.753272	0.441489	0.570750
O12	O	2.253272	0.941489	1.070750
O13	O	1.582821	0.570641	0.271351
O14	O	2.082821	1.070641	0.771351
O15	O	1.453921	0.271200	0.441696
O16	O	1.953921	0.771200	0.941696
O17	O	1.753192	0.570587	0.441686
O18	O	2.253192	1.070587	0.941686
O19	O	1.583008	0.271159	0.570756
O20	O	2.083008	0.771159	1.070756
O21	O	1.453815	0.441585	0.271355
O22	O	1.953815	0.941585	0.771355
O23	O	1.283542	0.441513	0.441663
O24	O	1.783542	0.941513	0.941663
O25	O	1.453906	0.570462	0.741034
O26	O	1.953906	1.070462	1.241034
O27	O	1.283536	0.570516	0.570699
O28	O	1.783536	1.070516	1.070699
O29	O	1.582999	0.441418	0.741059
O30	O	2.082999	0.941418	1.241059
O31	O	1.582813	0.740900	0.441653
O32	O	2.082813	1.240900	0.941653
O33	O	1.453800	0.740846	0.570693
O34	O	1.953800	1.240846	1.070693
C35	C	1.245418	0.506014	0.506179
C36	C	1.745418	1.006014	1.006179
C37	C	1.128641	0.506033	0.506195
C38	C	1.628641	1.006033	1.006195
C39	C	1.073804	0.573307	0.573278
C40	C	1.573804	1.073307	1.073278
C41	C	0.964080	0.573311	0.573299
C42	C	1.464080	1.073311	1.073299
C43	C	0.964041	0.438765	0.439144
C44	C	1.464041	0.938765	0.939144
C45	C	1.073763	0.438756	0.439130
C46	C	1.573763	0.938756	0.939130
C47	C	1.518322	0.778994	0.506192
C48	C	2.018322	1.278994	1.006192
C49	C	1.518392	0.895771	0.506224
C50	C	2.018392	1.395771	1.006224
C51	C	1.652834	0.895773	0.371955
C52	C	2.152834	1.395773	0.871955
C53	C	1.720082	0.950636	0.304837
C54	C	2.220082	1.450636	0.804837
C55	C	1.720143	1.060357	0.304873
C56	C	2.220143	1.560357	0.804873
C57	C	1.652952	1.115219	0.372036
C58	C	2.152952	1.615219	0.872036
C59	C	1.585703	1.060357	0.439154
C60	C	2.085703	1.560357	0.939154
C61	C	1.585647	0.950633	0.439109
C62	C	2.085647	1.450633	0.939109
C63	C	1.451268	1.060354	0.573427
C64	C	1.951268	1.560354	1.073427
C65	C	1.451200	0.950632	0.573387
C66	C	1.951200	1.450632	1.073387
C67	C	1.384076	1.115216	0.640590
C68	C	1.884076	1.615216	1.140590
C69	C	1.316821	1.060354	0.707705
C70	C	1.816821	1.560354	1.207705
C71	C	1.316762	0.950626	0.707666
C72	C	1.816762	1.450626	1.207666
C73	C	1.383951	0.895770	0.640506
C74	C	1.883951	1.395770	1.140506
C75	C	1.792419	0.506040	0.506221
C76	C	2.292419	1.006040	1.006221
C77	C	1.909195	0.506046	0.506230
C78	C	2.409195	1.006046	1.006230
C79	C	1.518464	0.505925	0.780233
C80	C	2.018464	1.005925	1.280233
C81	C	1.518497	0.505883	0.897010
C82	C	2.018497	1.005883	1.397010
C83	C	1.518477	1.231993	0.506247
C84	C	2.018477	1.731993	1.006247
C85	C	1.518517	1.115216	0.506308
C86	C	2.018517	1.615216	1.006308
C87	C	1.518368	0.506051	0.233232
C88	C	2.018368	1.006051	0.733232
C89	C	1.518538	0.505798	0.116456
C90	C	2.018538	1.005798	0.616456
C91	C	1.585721	0.438679	0.951886
C92	C	2.085721	0.938679	1.451886
C93	C	1.585739	0.438633	1.061611
C94	C	2.085739	0.938633	1.561611
C95	C	1.451306	0.573005	1.061572
C96	C	1.951306	1.073005	1.561572
C97	C	1.451284	0.573044	0.951850
C98	C	1.951284	1.073044	1.451850
H99	H	1.652777	0.806432	0.371906
H100	H	2.152777	1.306432	0.871906
H101	H	1.118413	0.383967	0.384502
H102	H	1.618413	0.883967	0.884502
O103	O	1.792573	0.891467	0.232417
O104	O	2.292573	1.391467	0.732417
H105	H	1.781237	0.805953	0.243665
H106	H	2.281237	1.305953	0.743665
O107	O	1.132986	0.645852	0.645634
O108	O	1.632986	1.145852	1.145634
H109	H	1.183008	0.598876	0.699151
H110	H	1.683008	1.098876	1.199151
O111	O	1.792669	1.119541	0.232481
O112	O	2.292669	1.619541	0.732481
H113	H	1.839377	1.062964	0.185767
H114	H	2.339377	1.562964	0.685767
H115	H	1.396535	0.627768	0.907168
H116	H	1.896535	1.127768	1.407168
H117	H	1.653017	1.204560	0.372068
H118	H	2.153017	1.704560	0.872068
H119	H	0.919436	0.628091	0.627926
H120	H	1.419436	1.128091	1.127926
O121	O	1.378814	0.645440	1.120722
O122	O	1.878814	1.145440	1.620722
H123	H	1.425823	0.698886	1.170708
H124	H	1.925823	1.198886	1.670708
O125	O	0.904852	0.366237	0.366776
O126	O	1.404852	0.866237	0.866776
H127	H	0.819342	0.377561	0.378038
H128	H	1.319342	0.877561	0.878038
O129	O	1.384128	1.233559	0.640627
O130	O	1.884128	1.733559	1.140627
H131	H	1.442166	1.262494	0.582663
H132	H	1.942166	1.762494	1.082663
H133	H	1.262004	0.905962	0.762326
H134	H	1.762004	1.405962	1.262326
O135	O	1.244350	1.119530	0.780126
O136	O	1.744350	1.619530	1.280126
H137	H	1.291375	1.169440	0.833631
H138	H	1.791375	1.669440	1.333631
O139	O	1.383868	0.777428	0.640470
O140	O	1.883868	1.277428	1.140470
H141	H	1.463081	0.748404	0.661763
H142	H	1.963081	1.248404	1.161763
O143	O	1.658204	0.366237	0.892732
O144	O	2.158204	0.866237	1.392732
H145	H	1.704944	0.319492	0.949330
H146	H	2.204944	0.819492	1.449330
H147	H	1.640478	0.383908	1.106286
H148	H	2.140478	0.883908	1.606286
