data_functionalizedCrystal
_audit_creation_method	'MofGen! by Chris Wilmer'
_symmetry_space_group_name_H-M	'P1'
_symmetry_Int_Tables_number	1
_symmetry_cell_setting	triclinic
loop_
_symmetry_equiv_pos_as_xyz
  x,y,z
_cell_length_a	19.288864
_cell_length_b	19.288865
_cell_length_c	18.366186
_cell_angle_alpha	89.988521
_cell_angle_beta	89.977106
_cell_angle_gamma	83.136245
loop_
_atom_site_label
_atom_site_type_symbol
_atom_site_fract_x
_atom_site_fract_y
_atom_site_fract_z
O1	O	0.921353	0.086649	-0.060791
O2	O	0.719092	0.098337	-0.060743
O3	O	0.826067	-0.008637	-0.060754
O4	O	0.814378	0.193623	-0.060780
O5	O	0.826049	-0.008643	0.060345
O6	O	0.719074	0.098332	0.060357
O7	O	0.921335	0.086643	0.060308
Zn8	Zn	0.820201	0.092487	0.079559
Zn9	Zn	0.820225	0.092494	-0.079994
O10	O	0.814360	0.193618	0.060319
C11	C	0.693207	0.097959	-0.000187
C12	C	0.616103	0.096830	-0.000167
C13	C	0.571407	0.159598	-0.000187
C14	C	0.498960	0.158537	-0.000195
C15	C	0.471212	0.094705	-0.000198
C16	C	0.515918	0.031929	-0.000174
C17	C	0.588364	0.032991	-0.000159
C18	C	0.362956	0.044527	-0.042642
C19	C	0.290512	0.043468	-0.042662
C20	C	0.247767	0.091425	-0.000241
C21	C	0.277473	0.140454	0.042189
C22	C	0.349918	0.141517	0.042205
C23	C	0.392658	0.093546	-0.000214
C24	C	0.124514	0.153047	-0.000269
C25	C	0.052066	0.151984	-0.000272
C26	C	0.069026	0.025374	-0.000259
C27	C	0.141473	0.026439	-0.000248
C28	C	0.169212	0.090278	-0.000256
C29	C	0.825682	-0.034516	-0.000202
C30	C	0.824553	-0.111620	-0.000195
C31	C	0.887321	-0.156316	-0.000207
C32	C	0.886260	-0.228763	-0.000218
C33	C	0.822428	-0.256511	-0.000203
C34	C	0.759652	-0.211805	-0.000196
C35	C	0.760714	-0.139359	-0.000192
C36	C	0.772242	-0.364800	0.042227
C37	C	0.771182	-0.437245	0.042228
C38	C	0.819148	-0.479956	-0.000219
C39	C	0.868186	-0.450216	-0.042657
C40	C	0.869248	-0.377771	-0.042653
C41	C	0.821269	-0.335065	-0.000208
C42	C	0.880770	-0.603209	-0.000244
C43	C	0.879707	-0.675657	-0.000259
C44	C	0.753097	-0.658697	-0.000230
C45	C	0.754162	-0.586250	-0.000221
C46	C	0.818001	-0.558511	-0.000225
C47	C	0.947220	0.087022	-0.000250
C48	C	1.024324	0.088151	-0.000274
C49	C	0.814745	0.219497	-0.000234
C50	C	0.815874	0.296601	-0.000246
N51	N	0.820190	0.092482	0.188451
N52	N	0.820242	0.092493	-0.188885
C53	C	0.867574	0.045137	0.226546
C54	C	0.867578	0.045134	0.302774
C55	C	0.820206	0.092488	0.340903
C56	C	0.772813	0.139836	0.302799
C57	C	0.772805	0.139834	0.226572
C58	C	0.810907	0.155775	0.461657
C59	C	0.810920	0.155779	0.537882
C60	C	0.820225	0.092496	0.576011
C61	C	0.829533	0.029207	0.537905
C62	C	0.829525	0.029204	0.461679
C63	C	0.820208	0.092496	0.423558
C64	C	0.867617	0.045144	0.696761
C65	C	0.867616	0.045140	0.772990
C66	C	0.772854	0.139849	0.773014
C67	C	0.772851	0.139847	0.696786
C68	C	0.820236	0.092495	0.658664
H69	H	0.462561	0.209652	-0.000209
H70	H	0.909175	-0.353560	-0.077208
O71	O	0.690805	-0.241732	-0.000179
H72	H	0.647335	-0.198477	-0.000175
H73	H	0.397755	0.005473	-0.077191
H74	H	0.709599	-0.102967	-0.000182
H75	H	0.907244	-0.484991	-0.077221
O76	O	0.839586	-0.039059	0.579011
H77	H	0.797235	-0.070728	0.564404
O78	O	0.918732	-0.005920	0.814085
H79	H	0.951685	-0.038838	0.774767
H80	H	0.837102	-0.022328	0.430657
H81	H	0.374102	0.181436	0.076756
O82	O	0.686462	-0.538034	-0.000191
H83	H	0.641896	-0.569498	-0.000174
H84	H	0.906198	0.006585	0.665721
H85	H	0.242671	0.179506	0.076733
O86	O	0.800885	0.224040	0.578974
H87	H	0.802464	0.213412	0.638384
O88	O	0.718295	-0.469315	0.088002
H89	H	0.725620	-0.526867	0.080878
H90	H	0.734269	0.178402	0.665767
H91	H	0.803318	0.207311	0.430619
O92	O	0.721758	0.190928	0.814127
H93	H	0.729725	0.182979	0.873533
O94	O	0.189685	-0.041263	-0.000230
H95	H	0.223130	-0.043805	-0.049576
H96	H	0.734219	0.178388	0.195554
H97	H	0.932751	-0.580622	-0.000250
H98	H	0.930822	-0.712049	-0.000273
H99	H	0.701123	-0.681288	-0.000221
O100	O	0.720507	-0.318733	0.088015
H101	H	0.686240	-0.351583	0.117533
O102	O	0.721720	0.190917	0.343917
H103	H	0.729691	0.182971	0.403323
H104	H	0.266331	0.003548	-0.077215
O105	O	0.636579	-0.034711	-0.000138
H106	H	0.626773	-0.065268	-0.049496
O107	O	0.601328	0.228449	-0.000175
H108	H	0.558071	0.271917	-0.000179
H109	H	0.147101	0.205028	-0.000265
H110	H	0.939303	-0.133736	-0.000212
O111	O	0.003852	0.219686	-0.000290
H112	H	0.035315	0.264252	-0.000300
H113	H	0.906156	0.006579	0.195509
H114	H	0.906165	0.006578	0.333797
O115	O	0.039111	-0.043477	-0.000262
H116	H	-0.018774	-0.033672	-0.000280
H117	H	0.493322	-0.020044	-0.000187
H118	H	0.937375	-0.265162	-0.000231
