data_functionalizedCrystal
_audit_creation_method	'MofGen! by Chris Wilmer'
_symmetry_space_group_name_H-M	'P1'
_symmetry_Int_Tables_number	1
_symmetry_cell_setting	triclinic
loop_
_symmetry_equiv_pos_as_xyz
  x,y,z
_cell_length_a	14.519709
_cell_length_b	9.065218
_cell_length_c	13.596369
_cell_angle_alpha	90.003393
_cell_angle_beta	89.987919
_cell_angle_gamma	84.348015
loop_
_atom_site_label
_atom_site_type_symbol
_atom_site_fract_x
_atom_site_fract_y
_atom_site_fract_z
O1	O	1.225269	0.193397	0.081660
O2	O	1.475269	0.443397	0.331660
O3	O	1.725269	0.693397	0.581660
O4	O	1.975269	0.943397	0.831660
O5	O	0.956959	0.216172	0.081690
O6	O	1.206959	0.466172	0.331690
O7	O	1.456959	0.716172	0.581690
O8	O	1.706959	0.966172	0.831690
O9	O	1.096660	-0.009962	0.081671
O10	O	1.346660	0.240038	0.331671
O11	O	1.596660	0.490038	0.581671
O12	O	1.846660	0.740038	0.831671
O13	O	1.085568	0.419531	0.081678
O14	O	1.335568	0.669531	0.331678
O15	O	1.585568	0.919531	0.581678
O16	O	1.835568	1.169531	0.831678
O17	O	1.096677	-0.009974	-0.081912
O18	O	1.346677	0.240026	0.168088
O19	O	1.596677	0.490026	0.418088
O20	O	1.846677	0.740026	0.668088
O21	O	0.956976	0.216159	-0.081893
O22	O	1.206976	0.466159	0.168107
O23	O	1.456976	0.716159	0.418107
O24	O	1.706976	0.966159	0.668107
O25	O	1.225286	0.193385	-0.081923
O26	O	1.475286	0.443385	0.168077
O27	O	1.725286	0.693385	0.418077
O28	O	1.975286	0.943385	0.668077
Zn29	Zn	1.091134	0.204770	-0.107880
Zn30	Zn	1.341134	0.454770	0.142120
Zn31	Zn	1.591134	0.704770	0.392120
Zn32	Zn	1.841134	0.954770	0.642120
Zn33	Zn	1.091111	0.204786	0.107647
Zn34	Zn	1.341111	0.454786	0.357647
Zn35	Zn	1.591111	0.704786	0.607647
Zn36	Zn	1.841111	0.954786	0.857647
O37	O	1.085585	0.419518	-0.081905
O38	O	1.335585	0.669518	0.168095
O39	O	1.585585	0.919518	0.418095
O40	O	1.835585	1.169518	0.668095
C41	C	0.922600	0.215104	-0.000098
C42	C	1.172600	0.465104	0.249902
C43	C	1.422600	0.715104	0.499902
C44	C	1.672600	0.965104	0.749902
C45	C	0.820195	0.211923	-0.000087
C46	C	1.070195	0.461923	0.249913
C47	C	1.320195	0.711923	0.499913
C48	C	1.570195	0.961923	0.749913
N49	N	1.091156	0.204758	-0.254972
N50	N	1.341156	0.454758	-0.004972
N51	N	1.591156	0.704758	0.245028
N52	N	1.841156	0.954758	0.495028
C53	C	1.095602	-0.064935	-0.000119
C54	C	1.345602	0.185065	0.249881
C55	C	1.595602	0.435065	0.499881
C56	C	1.845602	0.685065	0.749881
C57	C	1.092415	-0.228718	-0.000114
C58	C	1.342415	0.021282	0.249886
C59	C	1.592415	0.271282	0.499886
C60	C	1.842415	0.521282	0.749886
C61	C	0.445214	0.200214	-0.000132
C62	C	0.695214	0.450214	0.249868
C63	C	0.945214	0.700214	0.499868
C64	C	1.195214	0.950214	0.749868
C65	C	0.549545	0.203466	-0.000119
C66	C	0.799545	0.453466	0.249881
C67	C	1.049545	0.703466	0.499881
C68	C	1.299545	0.953466	0.749881
C69	C	0.632701	0.206068	-0.000108
C70	C	0.882701	0.456068	0.249892
C71	C	1.132701	0.706068	0.499892
C72	C	1.382701	0.956068	0.749892
C73	C	0.737039	0.209321	-0.000097
C74	C	0.987039	0.459321	0.249903
C75	C	1.237039	0.709321	0.499903
C76	C	1.487039	0.959321	0.749903
C77	C	1.259645	0.194452	-0.000133
C78	C	1.509645	0.444452	0.249867
C79	C	1.759645	0.694452	0.499867
C80	C	2.009645	0.944452	0.749867
C81	C	1.362049	0.197633	-0.000138
C82	C	1.612049	0.447633	0.249862
C83	C	1.862049	0.697633	0.499862
C84	C	2.112049	0.947633	0.749862
C85	C	1.086642	0.474491	-0.000113
C86	C	1.336642	0.724491	0.249887
C87	C	1.586642	0.974491	0.499887
C88	C	1.836642	1.224491	0.749887
C89	C	1.089830	0.638274	-0.000111
C90	C	1.339830	0.888274	0.249889
C91	C	1.589830	1.138274	0.499889
C92	C	1.839830	1.388274	0.749889
N93	N	1.091096	0.204787	0.254739
N94	N	1.341096	0.454787	0.504739
N95	N	1.591096	0.704787	0.754739
N96	N	1.841096	0.954787	1.004739
C97	C	1.091099	0.204788	0.343737
C98	C	1.341099	0.454788	0.593737
C99	C	1.591099	0.704788	0.843737
C100	C	1.841099	0.954788	1.093737
C101	C	1.091112	0.204785	0.455388
C102	C	1.341112	0.454785	0.705388
C103	C	1.591112	0.704785	0.955388
C104	C	1.841112	0.954785	1.205388
C105	C	1.091128	0.204774	0.544379
C106	C	1.341128	0.454774	0.794379
C107	C	1.591128	0.704774	1.044379
C108	C	1.841128	0.954774	1.294379
C109	C	1.091140	0.204768	0.656037
C110	C	1.341140	0.454768	0.906037
C111	C	1.591140	0.704768	1.156037
C112	C	1.841140	0.954768	1.406037
