data_functionalizedCrystal
_audit_creation_method	'MofGen! by Chris Wilmer'
_symmetry_space_group_name_H-M	'P1'
_symmetry_Int_Tables_number	1
_symmetry_cell_setting	triclinic
loop_
_symmetry_equiv_pos_as_xyz
  x,y,z
_cell_length_a	16.109301
_cell_length_b	9.065218
_cell_length_c	14.586319
_cell_angle_alpha	89.998049
_cell_angle_beta	89.999213
_cell_angle_gamma	84.238683
loop_
_atom_site_label
_atom_site_type_symbol
_atom_site_fract_x
_atom_site_fract_y
_atom_site_fract_z
O1	O	-1.104588	-0.189628	0.076179
O2	O	-0.862707	-0.213227	0.076193
O3	O	-0.988647	0.013335	0.076183
O4	O	-0.978648	-0.416191	0.076188
O5	O	-0.988638	0.013339	-0.076297
O6	O	-0.862698	-0.213224	-0.076288
O7	O	-1.104579	-0.189625	-0.076302
Cu8	Cu	-0.983638	-0.201424	-0.090218
Cu9	Cu	-0.983648	-0.201428	0.090108
O10	O	-0.978639	-0.416188	-0.076293
C11	C	-0.831720	-0.212270	-0.000046
C12	C	-0.739403	-0.209404	-0.000040
C13	C	-0.987682	0.068300	-0.000055
C14	C	-0.984808	0.232074	-0.000051
C15	C	-1.135565	-0.190583	-0.000062
C16	C	-1.227883	-0.193449	-0.000061
C17	C	-0.518112	-0.337178	-0.000050
C18	C	-0.431371	-0.334474	-0.000056
C19	C	-0.449180	-0.065664	-0.000055
C20	C	-0.535920	-0.068370	-0.000055
C21	C	-0.570383	-0.204131	-0.000048
C22	C	-0.396903	-0.198721	-0.000053
C23	C	-0.302854	-0.195788	-0.000060
C24	C	-0.664438	-0.207065	-0.000043
C25	C	-0.979604	-0.471153	-0.000052
C26	C	-0.982478	-0.634926	-0.000051
N27	N	-0.983636	-0.201421	-0.217050
C28	C	-1.039422	-0.101132	-0.452060
C29	C	-1.039424	-0.101129	-0.548041
C30	C	-0.927865	-0.301714	-0.548043
C31	C	-0.927859	-0.301709	-0.452063
C32	C	-0.983642	-0.201420	-0.404074
C33	C	-0.983650	-0.201421	-0.596035
C34	C	-0.983652	-0.201418	-0.700102
C35	C	-0.983639	-0.201421	-0.300001
N36	N	-0.983656	-0.201420	0.216940
H37	H	-0.546169	-0.447723	-0.000051
O38	O	-1.093574	-0.003510	-0.594553
C39	C	-1.078950	0.142541	-0.571120
H40	H	-1.046902	0.142374	-0.501435
H41	H	-1.140896	0.215160	-0.567832
H42	H	-1.037228	0.188189	-0.625142
H43	H	-0.882433	-0.383376	-0.412991
H44	H	-0.578481	0.039979	-0.000056
O45	O	-0.380511	-0.463619	0.000071
C46	C	-0.329819	-0.470115	0.079052
H47	H	-0.324552	-0.353017	0.105377
H48	H	-0.265056	-0.525102	0.061292
H49	H	-0.358856	-0.537479	0.134354
H50	H	-0.882449	-0.383369	-0.587125
H51	H	-0.421109	0.044868	-0.000066
H52	H	-1.084842	-0.019469	-0.412990
