data_functionalizedCrystal
_audit_creation_method	'MofGen! by Chris Wilmer'
_symmetry_space_group_name_H-M	'P1'
_symmetry_Int_Tables_number	1
_symmetry_cell_setting	triclinic
loop_
_symmetry_equiv_pos_as_xyz
  x,y,z
_cell_length_a	23.532361
_cell_length_b	10.540539
_cell_length_c	9.616153
_cell_angle_alpha	90.000094
_cell_angle_beta	89.997432
_cell_angle_gamma	96.322420
loop_
_atom_site_label
_atom_site_type_symbol
_atom_site_fract_x
_atom_site_fract_y
_atom_site_fract_z
O1	O	0.756295	-0.153794	-0.115500
O2	O	0.590575	-0.176150	-0.115533
O3	O	0.677216	0.019860	-0.115514
O4	O	0.669654	-0.349804	-0.115519
O5	O	0.677204	0.019855	0.115778
O6	O	0.590563	-0.176155	0.115759
O7	O	0.756283	-0.153799	0.115791
Zn8	Zn	0.673421	-0.164977	0.152498
Zn9	Zn	0.673437	-0.164972	-0.152239
O10	O	0.669642	-0.349809	0.115773
C11	C	0.569349	-0.175593	0.000109
C12	C	0.506120	-0.173909	0.000096
C13	C	0.232834	-0.166545	-0.125972
C14	C	0.292244	-0.168138	-0.125976
O15	O	0.322981	-0.168916	-0.233197
N16	N	0.321948	-0.168945	0.000102
C17	C	0.292240	-0.168146	0.126191
O18	O	0.322962	-0.168978	0.233429
C19	C	0.232832	-0.166544	0.126193
C20	C	0.203129	-0.165749	0.000107
C21	C	0.203132	-0.165749	-0.252048
C22	C	0.143725	-0.164158	-0.252044
C23	C	0.114021	-0.163363	-0.125964
C24	C	0.143723	-0.164159	0.000111
C25	C	0.203125	-0.165736	0.252281
C26	C	0.143712	-0.164132	0.252272
C27	C	0.114010	-0.163338	0.126186
C28	C	0.054613	-0.161773	0.126195
N29	N	0.024908	-0.160965	0.000117
C30	C	0.054612	-0.161760	-0.125962
C31	C	0.417003	-0.171509	0.126177
C32	C	0.476410	-0.173121	0.126177
C33	C	0.476410	-0.173110	-0.125990
C34	C	0.417001	-0.171508	-0.125989
C35	C	0.387298	-0.170702	0.000100
C36	C	-0.070145	-0.158421	-0.125944
C37	C	-0.129557	-0.156835	-0.125929
C38	C	-0.129551	-0.156839	0.126237
C39	C	-0.070145	-0.158431	0.126223
C40	C	-0.040443	-0.159218	0.000121
O41	O	0.023839	-0.160988	0.233361
O42	O	0.023885	-0.160912	-0.233183
C43	C	0.676643	0.067142	0.000129
C44	C	0.674946	0.208033	0.000121
C45	C	0.777509	-0.154356	0.000147
C46	C	0.840739	-0.156040	0.000150
C47	C	0.670215	-0.397091	0.000126
C48	C	0.671912	-0.537982	0.000125
N49	N	0.673415	-0.164981	0.360472
C50	C	0.609936	0.389303	-0.000410
C51	C	0.611656	0.242741	0.000110
C52	C	0.705398	0.270699	0.132206
C53	C	0.703238	0.417172	0.132317
C54	C	0.704538	0.417738	-0.130704
C55	C	0.705121	0.270776	-0.132451
N56	N	0.673448	-0.164958	-0.360213
C57	C	0.626926	-0.269491	0.580832
C58	C	0.627029	-0.269873	0.419664
C59	C	0.732955	-0.193138	0.418933
C60	C	0.732701	-0.193875	0.580151
C61	C	0.660956	-0.031955	0.580382
C62	C	0.659589	-0.032866	0.419155
H63	H	0.227298	-0.166378	0.354953
Cl64	Cl	0.574385	0.177024	0.146522
H65	H	0.634852	-0.367651	0.621331
H66	H	0.392821	-0.170861	-0.228659
H67	H	0.750253	0.466481	-0.131584
H68	H	0.768419	-0.118997	0.380588
H69	H	0.768429	-0.120700	0.619147
Cl70	Cl	0.750201	-0.341149	0.356581
Cl71	Cl	-0.032805	-0.159446	0.284732
Cl72	Cl	0.713324	0.088132	0.639242
Cl73	Cl	0.571376	0.435201	0.144567
H74	H	0.680723	0.444623	0.231044
H75	H	0.743627	-0.290850	0.617740
Cl76	Cl	0.106376	-0.163111	0.410793
H77	H	-0.153747	-0.156197	0.228888
H78	H	0.500587	-0.173788	0.228848
Cl79	Cl	0.379667	-0.170515	0.284705
Cl80	Cl	0.574661	0.175734	-0.146073
H81	H	0.582548	-0.253111	0.619635
H82	H	0.635058	-0.368591	0.381085
H83	H	0.618457	-0.004686	0.621111
Cl84	Cl	0.513763	-0.174112	-0.284492
Cl85	Cl	0.558716	-0.244231	0.358637
H86	H	0.748755	0.466651	0.138318
Cl87	Cl	0.591964	0.000160	0.360166
H88	H	-0.153738	-0.156192	-0.228608
Cl89	Cl	-0.032815	-0.159412	-0.284475
H90	H	0.584940	0.417075	-0.095131
Cl91	Cl	0.672915	0.465386	-0.285270
H92	H	0.751876	0.249888	0.137126
H93	H	0.684235	0.227396	0.230491
H94	H	0.682840	0.229179	-0.230163
Cl95	Cl	0.776364	0.235740	-0.144761
H96	H	0.691228	0.048505	0.378867
H97	H	0.119547	-0.163506	-0.354716
H98	H	0.227311	-0.166392	-0.354722
