data_functionalizedCrystal
_audit_creation_method	'MofGen! by Chris Wilmer'
_symmetry_space_group_name_H-M	'P1'
_symmetry_Int_Tables_number	1
_symmetry_cell_setting	triclinic
loop_
_symmetry_equiv_pos_as_xyz
  x,y,z
_cell_length_a	10.654550
_cell_length_b	12.837942
_cell_length_c	9.730223
_cell_angle_alpha	89.996108
_cell_angle_beta	89.999957
_cell_angle_gamma	89.656935
loop_
_atom_site_label
_atom_site_type_symbol
_atom_site_fract_x
_atom_site_fract_y
_atom_site_fract_z
O1	O	1.683741	0.145723	-0.114186
O2	O	1.319778	0.159606	-0.114211
O3	O	1.493689	0.001704	-0.114190
O4	O	1.509830	0.303625	-0.114206
O5	O	1.493676	0.001699	0.114390
O6	O	1.319765	0.159602	0.114369
O7	O	1.683728	0.145718	0.114394
Zn8	Zn	1.501744	0.152660	0.150674
Zn9	Zn	1.501761	0.152665	-0.150490
O10	O	1.509817	0.303621	0.114374
C11	C	1.272862	0.158585	0.000076
C12	C	1.133086	0.155535	0.000067
C13	C	1.063746	0.248505	0.000066
C14	C	0.932411	0.245633	0.000090
C15	C	0.939770	0.056812	0.000110
C16	C	1.071101	0.059685	0.000096
C17	C	1.488230	-0.036958	0.000099
C18	C	1.471967	-0.152152	0.000095
C19	C	1.667472	-0.391705	0.000080
C20	C	1.652197	-0.499941	0.000077
C21	C	1.426146	-0.476861	0.000075
C22	C	1.441420	-0.368626	0.000079
C23	C	1.562087	-0.326052	0.000083
C24	C	1.577360	-0.217814	0.000096
C25	C	1.351309	-0.194737	0.000085
C26	C	1.336035	-0.302972	0.000082
C27	C	1.730644	0.146740	0.000104
C28	C	1.870420	0.149790	0.000105
C29	C	1.515276	0.342283	0.000082
C30	C	1.531538	0.457477	0.000076
N31	N	1.501742	0.152655	0.356210
N32	N	1.501773	0.152662	-0.356027
C33	C	1.578782	0.082766	0.428145
C34	C	1.578795	0.082766	0.572028
C35	C	1.424724	0.222554	0.572028
C36	C	1.424705	0.222548	0.428148
H37	H	1.675613	-0.183153	0.000105
O38	O	1.341660	0.297949	0.649628
H39	H	1.288081	0.346544	0.575430
O40	O	1.296004	-0.522786	0.000053
H41	H	1.244729	-0.496484	0.093212
O42	O	1.661851	0.007374	0.350548
H43	H	1.715413	-0.041232	0.424748
O44	O	1.130604	0.351881	0.000046
H45	H	1.190279	0.357699	0.093200
H46	H	0.875960	0.321340	0.000092
O47	O	0.872917	-0.046566	0.000131
H48	H	0.769944	-0.032947	0.000128
H49	H	1.237791	-0.337651	0.000073
H50	H	1.265497	-0.141269	0.000099
H51	H	1.127560	-0.016027	0.000100
O52	O	1.661904	0.007399	0.649621
H53	H	1.715476	-0.041191	0.575420
H54	H	1.361964	0.279461	0.369575
H55	H	1.765723	-0.357041	0.000097
H56	H	1.738013	-0.553393	0.000070
