data_functionalizedCrystal
_audit_creation_method	'MofGen! by Chris Wilmer'
_symmetry_space_group_name_H-M	'P1'
_symmetry_Int_Tables_number	1
_symmetry_cell_setting	triclinic
loop_
_symmetry_equiv_pos_as_xyz
  x,y,z
_cell_length_a	9.065218
_cell_length_b	10.268362
_cell_length_c	9.065215
_cell_angle_alpha	90.004315
_cell_angle_beta	85.015291
_cell_angle_gamma	90.004643
loop_
_atom_site_label
_atom_site_type_symbol
_atom_site_fract_x
_atom_site_fract_y
_atom_site_fract_z
O1	O	1.960399	0.108301	0.216358
O2	O	2.293733	0.441634	0.549692
O3	O	2.627066	0.774967	0.883025
O4	O	1.531114	0.108302	0.234105
O5	O	1.864448	0.441636	0.567438
O6	O	2.197781	0.774969	0.900771
O7	O	1.754632	0.108296	0.010589
O8	O	2.087966	0.441629	0.343922
O9	O	2.421299	0.774963	0.677255
O10	O	1.736881	0.108307	0.439874
O11	O	2.070215	0.441640	0.773207
O12	O	2.403548	0.774974	1.106541
O13	O	1.754613	-0.108305	0.010579
O14	O	2.087946	0.225029	0.343913
O15	O	2.421279	0.558362	0.677246
O16	O	1.531095	-0.108298	0.234095
O17	O	1.864428	0.225035	0.567429
O18	O	2.197761	0.558368	0.900762
O19	O	1.960380	-0.108300	0.216349
O20	O	2.293713	0.225033	0.549682
O21	O	2.627046	0.558367	0.883015
Cu22	Cu	1.745735	-0.128076	0.225221
Cu23	Cu	2.079069	0.205257	0.558554
Cu24	Cu	2.412402	0.538590	0.891888
Cu25	Cu	1.745759	0.128079	0.225232
Cu26	Cu	2.079092	0.461412	0.558566
Cu27	Cu	2.412425	0.794746	0.891899
O28	O	1.736862	-0.108294	0.439865
O29	O	2.070195	0.225040	0.773198
O30	O	2.403528	0.558373	1.106531
C31	C	1.476118	0.000002	0.232394
C32	C	1.809451	0.333336	0.565728
C33	C	2.142785	0.666669	0.899061
C34	C	1.312275	0.000003	0.227295
C35	C	1.645608	0.333336	0.560628
C36	C	1.978942	0.666669	0.893961
N37	N	1.745730	-0.308242	0.225212
N38	N	2.079063	0.025091	0.558546
N39	N	2.412396	0.358424	0.891879
C40	C	1.745751	-0.573913	0.225229
C41	C	2.079085	-0.240580	0.558563
C42	C	2.412418	0.092754	0.891896
C43	C	1.745734	-0.426075	0.225224
C44	C	2.079068	-0.092742	0.558558
C45	C	2.412401	0.240592	0.891891
C46	C	2.015376	0.000003	0.218059
C47	C	2.348709	0.333336	0.551392
C48	C	2.682043	0.666670	0.884726
C49	C	2.179219	0.000011	0.223159
C50	C	2.512552	0.333344	0.556492
C51	C	2.845886	0.666678	0.889825
C52	C	1.752917	-0.000003	-0.044403
C53	C	2.086251	0.333330	0.288931
C54	C	2.419584	0.666664	0.622264
C55	C	1.747819	0.000001	-0.208246
C56	C	2.081153	0.333334	0.125088
C57	C	2.414486	0.666668	0.458421
N58	N	1.745776	0.308245	0.225230
N59	N	2.079109	0.641578	0.558563
N60	N	2.412443	0.974911	0.891896
C61	C	1.738576	0.000008	0.494856
C62	C	2.071910	0.333342	0.828189
C63	C	2.405243	0.666675	1.161523
C64	C	1.743674	0.000013	0.658699
C65	C	2.077008	0.333346	0.992033
C66	C	2.410341	0.666680	1.325366
