data_functionalizedCrystal
_audit_creation_method	'MofGen! by Chris Wilmer'
_symmetry_space_group_name_H-M	'P1'
_symmetry_Int_Tables_number	1
_symmetry_cell_setting	triclinic
loop_
_symmetry_equiv_pos_as_xyz
  x,y,z
_cell_length_a	14.519709
_cell_length_b	10.654550
_cell_length_c	9.130313
_cell_angle_alpha	89.998405
_cell_angle_beta	90.002092
_cell_angle_gamma	84.082537
loop_
_atom_site_label
_atom_site_type_symbol
_atom_site_fract_x
_atom_site_fract_y
_atom_site_fract_z
O1	O	1.224720	0.164623	-0.121599
O2	O	1.724720	0.664623	0.378401
O3	O	0.956343	0.184009	-0.121642
O4	O	1.456343	0.684009	0.378358
O5	O	1.096702	-0.008483	-0.121621
O6	O	1.596702	0.491517	0.378379
O7	O	1.084361	0.357115	-0.121620
O8	O	1.584361	0.857115	0.378380
O9	O	1.096692	-0.008488	0.121978
O10	O	1.596692	0.491512	0.621978
O11	O	0.956334	0.184004	0.121956
O12	O	1.456334	0.684004	0.621956
O13	O	1.224710	0.164617	0.122000
O14	O	1.724710	0.664617	0.622000
Cu15	Cu	1.090521	0.174310	0.144221
Cu16	Cu	1.590521	0.674310	0.644221
Cu17	Cu	1.090532	0.174317	-0.143863
Cu18	Cu	1.590532	0.674317	0.356137
O19	O	1.084351	0.357109	0.121978
O20	O	1.584351	0.857109	0.621978
C21	C	0.921974	0.183103	0.000151
C22	C	1.421974	0.683103	0.500151
C23	C	0.819579	0.180396	0.000134
C24	C	1.319579	0.680396	0.500134
C25	C	1.095791	-0.055275	0.000175
C26	C	1.595791	0.444725	0.500175
C27	C	1.093080	-0.194692	0.000165
C28	C	1.593080	0.305308	0.500165
C29	C	1.089255	-0.391192	-0.132611
C30	C	1.589255	0.108808	0.367389
C31	C	1.091811	-0.260197	-0.132619
C32	C	1.591811	0.239803	0.367381
C33	C	1.091801	-0.260191	0.132966
C34	C	1.591801	0.239809	0.632966
C35	C	1.089251	-0.391185	0.132973
C36	C	1.589251	0.108815	0.632973
C37	C	0.444631	0.170428	0.000201
C38	C	0.944631	0.670428	0.500201
C39	C	0.548954	0.173196	0.000182
C40	C	1.048954	0.673196	0.500182
C41	C	0.632102	0.175412	0.000166
C42	C	1.132102	0.675412	0.500166
C43	C	0.736431	0.178180	0.000150
C44	C	1.236431	0.678180	0.500150
C45	C	1.259079	0.165524	0.000203
C46	C	1.759079	0.665524	0.500203
C47	C	1.361475	0.168231	0.000211
C48	C	1.861475	0.668231	0.500211
C49	C	1.085262	0.403901	0.000179
C50	C	1.585262	0.903901	0.500179
C51	C	1.087973	0.543318	0.000180
C52	C	1.587973	1.043318	0.500180
N53	N	1.090520	0.174305	0.346843
N54	N	1.590520	0.674305	0.846843
N55	N	1.090541	0.174312	-0.346486
N56	N	1.590541	0.674312	0.153514
C57	C	1.152692	0.089105	0.423505
C58	C	1.652692	0.589105	0.923505
C59	C	1.152701	0.089105	0.576842
C60	C	1.652701	0.589105	1.076842
C61	C	1.028362	0.259516	0.576842
C62	C	1.528362	0.759516	1.076842
C63	C	1.028350	0.259509	0.423508
C64	C	1.528350	0.759509	0.923508
H65	H	1.092856	-0.206881	-0.240751
H66	H	1.592856	0.293119	0.259249
H67	H	0.977746	0.328889	0.639278
H68	H	1.477746	0.828889	1.139278
O69	O	1.213185	0.006298	0.651083
O70	O	1.713185	0.506298	1.151083
C71	C	1.268034	-0.068924	0.550530
C72	C	1.768034	0.431076	1.050530
H73	H	1.269392	-0.017432	0.441225
H74	H	1.769392	0.482568	0.941225
H75	H	1.341563	-0.087854	0.594825
H76	H	1.841563	0.412146	1.094825
H77	H	1.237500	-0.162312	0.534231
H78	H	1.737500	0.337688	1.034231
H79	H	1.088213	-0.444516	-0.240739
H80	H	1.588213	0.055484	0.259261
H81	H	0.977717	0.328889	0.361086
H82	H	1.477717	0.828889	0.861086
H83	H	1.088211	-0.444509	0.241114
H84	H	1.588211	0.055491	0.741114
O85	O	1.092867	-0.196469	0.261909
O86	O	1.592867	0.303531	0.761909
C87	C	1.014619	-0.106634	0.269801
C88	C	1.514619	0.393366	0.769801
H89	H	0.958132	-0.136310	0.194437
H90	H	1.458132	0.363690	0.694437
H91	H	0.987874	-0.100419	0.387238
H92	H	1.487874	0.399581	0.887238
H93	H	1.034576	-0.010534	0.234111
H94	H	1.534576	0.489466	0.734111
H95	H	1.203313	0.019725	0.361088
H96	H	1.703313	0.519725	0.861088
