data_functionalizedCrystal
_audit_creation_method	'MofGen! by Chris Wilmer'
_symmetry_space_group_name_H-M	'P1'
_symmetry_Int_Tables_number	1
_symmetry_cell_setting	triclinic
loop_
_symmetry_equiv_pos_as_xyz
  x,y,z
_cell_length_a	11.792241
_cell_length_b	10.268362
_cell_length_c	11.792254
_cell_angle_alpha	89.999366
_cell_angle_beta	84.196006
_cell_angle_gamma	89.998946
loop_
_atom_site_label
_atom_site_type_symbol
_atom_site_fract_x
_atom_site_fract_y
_atom_site_fract_z
O1	O	1.506917	-0.108160	0.155567
O2	O	1.756917	0.141840	0.405567
O3	O	2.006917	0.391840	0.655567
O4	O	2.256917	0.641840	0.905567
O5	O	1.176577	-0.108189	0.171600
O6	O	1.426577	0.141811	0.421600
O7	O	1.676577	0.391811	0.671600
O8	O	1.926577	0.641811	0.921600
O9	O	1.349756	-0.108180	-0.001586
O10	O	1.599756	0.141820	0.248414
O11	O	1.849756	0.391820	0.498414
O12	O	2.099756	0.641820	0.748414
O13	O	1.333738	-0.108169	0.328753
O14	O	1.583738	0.141831	0.578753
O15	O	1.833738	0.391831	0.828753
O16	O	2.083738	0.641831	1.078753
O17	O	1.349738	0.108421	-0.001592
O18	O	1.599738	0.358421	0.248408
O19	O	1.849738	0.608421	0.498408
O20	O	2.099738	0.858421	0.748408
O21	O	1.176559	0.108412	0.171594
O22	O	1.426559	0.358412	0.421594
O23	O	1.676559	0.608412	0.671594
O24	O	1.926559	0.858412	0.921594
O25	O	1.506900	0.108441	0.155561
O26	O	1.756900	0.358441	0.405561
O27	O	2.006900	0.608441	0.655561
O28	O	2.256900	0.858441	0.905561
Cu29	Cu	1.341728	0.128204	0.163577
Cu30	Cu	1.591728	0.378204	0.413577
Cu31	Cu	1.841728	0.628204	0.663577
Cu32	Cu	2.091728	0.878204	0.913577
Cu33	Cu	1.341748	-0.127952	0.163584
Cu34	Cu	1.591748	0.122048	0.413584
Cu35	Cu	1.841748	0.372048	0.663584
Cu36	Cu	2.091748	0.622048	0.913584
O37	O	1.333720	0.108431	0.328747
O38	O	1.583720	0.358431	0.578747
O39	O	1.833720	0.608431	0.828747
O40	O	2.083720	0.858431	1.078747
C41	C	1.134277	0.000107	0.170590
C42	C	1.384277	0.250107	0.420590
C43	C	1.634277	0.500107	0.670590
C44	C	1.884277	0.750107	0.920590
C45	C	1.008263	0.000096	0.167576
C46	C	1.258263	0.250096	0.417576
C47	C	1.508263	0.500096	0.667576
C48	C	1.758263	0.750096	0.917576
N49	N	1.341721	0.308369	0.163571
N50	N	1.591721	0.558369	0.413571
N51	N	1.841721	0.808369	0.663571
N52	N	2.091721	1.058369	0.913571
C53	C	1.348738	0.000116	-0.043880
C54	C	1.598738	0.250116	0.206120
C55	C	1.848738	0.500116	0.456120
C56	C	2.098738	0.750116	0.706120
C57	C	1.345718	0.000103	-0.169893
C58	C	1.595718	0.250103	0.080107
C59	C	1.845718	0.500103	0.330107
C60	C	2.095718	0.750103	0.580107
C61	C	0.777551	0.000133	0.162033
C62	C	1.027551	0.250133	0.412033
C63	C	1.277551	0.500133	0.662033
C64	C	1.527551	0.750133	0.912033
C65	C	0.905936	0.000113	0.165112
C66	C	1.155936	0.250113	0.415112
C67	C	1.405936	0.500113	0.665112
C68	C	1.655936	0.750113	0.915112
C69	C	1.549199	0.000141	0.156571
C70	C	1.799199	0.250141	0.406571
C71	C	2.049199	0.500141	0.656571
C72	C	2.299199	0.750141	0.906571
C73	C	1.675213	0.000144	0.159586
C74	C	1.925213	0.250144	0.409586
C75	C	2.175213	0.500144	0.659586
C76	C	2.425213	0.750144	0.909586
C77	C	1.341735	0.574040	0.163585
C78	C	1.591735	0.824040	0.413585
C79	C	1.841735	1.074040	0.663585
C80	C	2.091735	1.324040	0.913585
C81	C	1.341724	0.426202	0.163581
C82	C	1.591724	0.676202	0.413581
C83	C	1.841724	0.926202	0.663581
C84	C	2.091724	1.176202	0.913581
N85	N	1.341753	0.691882	0.163586
N86	N	1.591753	0.941882	0.413586
N87	N	1.841753	1.191882	0.663586
N88	N	2.091753	1.441882	0.913586
C89	C	1.334738	0.000133	0.371041
C90	C	1.584738	0.250133	0.621041
C91	C	1.834738	0.500133	0.871041
C92	C	2.084738	0.750133	1.121041
C93	C	1.337758	0.000137	0.497054
C94	C	1.587758	0.250137	0.747054
C95	C	1.837758	0.500137	0.997054
C96	C	2.087758	0.750137	1.247054
C97	C	1.340212	0.000130	0.599390
C98	C	1.590212	0.250130	0.849390
C99	C	1.840212	0.500130	1.099390
C100	C	2.090212	0.750130	1.349390
C101	C	1.343281	0.000115	0.727777
C102	C	1.593281	0.250115	0.977777
C103	C	1.843281	0.500115	1.227777
C104	C	2.093281	0.750115	1.477777
