data_functionalizedCrystal
_audit_creation_method	'MofGen! by Chris Wilmer'
_symmetry_space_group_name_H-M	'P1'
_symmetry_Int_Tables_number	1
_symmetry_cell_setting	triclinic
loop_
_symmetry_equiv_pos_as_xyz
  x,y,z
_cell_length_a	16.625548
_cell_length_b	16.625546
_cell_length_c	16.625525
_cell_angle_alpha	89.905447
_cell_angle_beta	89.938871
_cell_angle_gamma	90.023536
loop_
_atom_site_label
_atom_site_type_symbol
_atom_site_fract_x
_atom_site_fract_y
_atom_site_fract_z
Zn1	Zn	1.233003	-0.320467	-0.455899
Zn2	Zn	1.733003	0.179533	0.044101
Zn3	Zn	1.232811	-0.455461	-0.321061
Zn4	Zn	1.732811	0.044539	0.178939
Zn5	Zn	1.098070	-0.320648	-0.321079
Zn6	Zn	1.598070	0.179352	0.178921
Zn7	Zn	1.098136	-0.455263	-0.455851
Zn8	Zn	1.598136	0.044737	0.044149
O9	O	1.165505	-0.387960	-0.388472
O10	O	1.665505	0.112040	0.111528
O11	O	1.345810	-0.338380	-0.438025
O12	O	1.845810	0.161620	0.061975
O13	O	1.214829	-0.437736	-0.208230
O14	O	1.714829	0.062264	0.291770
O15	O	1.116022	-0.207792	-0.338991
O16	O	1.616022	0.292208	0.161009
O17	O	1.345669	-0.437560	-0.338960
O18	O	1.845669	0.062440	0.161040
O19	O	1.215157	-0.207658	-0.438042
O20	O	1.715157	0.292342	0.061958
O21	O	1.115835	-0.338690	-0.208244
O22	O	1.615835	0.161310	0.291756
O23	O	0.985246	-0.338499	-0.338944
O24	O	1.485246	0.161501	0.161056
O25	O	1.116134	-0.437224	-0.568690
O26	O	1.616134	0.062776	-0.068690
O27	O	0.985294	-0.437400	-0.437961
O28	O	1.485294	0.062600	0.062039
O29	O	1.215221	-0.338189	-0.568725
O30	O	1.715221	0.161811	-0.068725
O31	O	1.214893	-0.568267	-0.338913
O32	O	1.714893	-0.068267	0.161087
O33	O	1.115948	-0.568122	-0.437943
O34	O	1.615948	-0.068122	0.062057
C35	C	0.956014	-0.387948	-0.388450
C36	C	1.456014	0.112052	0.111550
C37	C	0.866393	-0.387963	-0.388459
C38	C	1.366393	0.112037	0.111541
C39	C	0.538217	-0.387968	-0.388494
C40	C	1.038217	0.112032	0.111506
C41	C	0.629526	-0.387964	-0.388482
C42	C	1.129526	0.112036	0.111518
C43	C	0.702302	-0.387966	-0.388476
C44	C	1.202302	0.112034	0.111524
C45	C	0.793617	-0.387961	-0.388465
C46	C	1.293617	0.112039	0.111535
C47	C	1.165429	-0.597451	-0.388439
C48	C	1.665429	-0.097451	0.111561
C49	C	1.165470	-0.687072	-0.388451
C50	C	1.665470	-0.187072	0.111549
C51	C	1.165610	-1.015247	-0.388535
C52	C	1.665610	-0.515247	0.111465
C53	C	1.165569	-0.923939	-0.388514
C54	C	1.665569	-0.423939	0.111486
C55	C	1.165539	-0.851162	-0.388493
C56	C	1.665539	-0.351162	0.111507
C57	C	1.165499	-0.759848	-0.388472
C58	C	1.665499	-0.259848	0.111528
C59	C	1.375814	-0.387972	-0.388495
C60	C	1.875814	0.112028	0.111505
C61	C	1.465435	-0.387977	-0.388505
C62	C	1.965435	0.112023	0.111495
C63	C	1.165706	-0.387664	-0.598782
C64	C	1.665706	0.112336	-0.098782
C65	C	1.165792	-0.387538	-0.688403
C66	C	1.665792	0.112462	-0.188403
C67	C	1.165604	-0.177651	-0.388524
C68	C	1.665604	0.322349	0.111476
C69	C	1.165646	-0.088030	-0.388546
C70	C	1.665646	0.411970	0.111454
C71	C	1.165351	-0.388196	-0.178981
C72	C	1.665351	0.111804	0.321019
C73	C	1.165421	-0.388095	-0.089360
C74	C	1.665421	0.111905	0.410640
C75	C	1.165492	-0.388000	-0.016578
C76	C	1.665492	0.112000	0.483422
C77	C	1.165578	-0.387874	0.074730
C78	C	1.665578	0.112126	0.574730
C79	C	1.165643	-0.387769	0.147506
C80	C	1.665643	0.112231	0.647506
C81	C	1.165728	-0.387643	0.238820
C82	C	1.665728	0.112357	0.738820
