data_functionalizedCrystal
_audit_creation_method	'MofGen! by Chris Wilmer'
_symmetry_space_group_name_H-M	'P1'
_symmetry_Int_Tables_number	1
_symmetry_cell_setting	triclinic
loop_
_symmetry_equiv_pos_as_xyz
  x,y,z
_cell_length_a	8.559649
_cell_length_b	17.699083
_cell_length_c	16.176319
_cell_angle_alpha	90.001389
_cell_angle_beta	89.994559
_cell_angle_gamma	103.469160
loop_
_atom_site_label
_atom_site_type_symbol
_atom_site_fract_x
_atom_site_fract_y
_atom_site_fract_z
O1	O	0.202110	-0.992507	-0.068628
O2	O	0.228405	-0.770623	-0.068655
O3	O	-0.017421	-0.901113	-0.068638
O4	O	0.447935	-0.862017	-0.068645
O5	O	-0.017436	-0.901098	0.068855
O6	O	0.228389	-0.770608	0.068838
O7	O	0.202094	-0.992492	0.068865
Cu8	Cu	0.215240	-0.881549	0.081406
Cu9	Cu	0.215259	-0.881566	-0.081196
O10	O	0.447920	-0.862002	0.068849
C11	C	0.227455	-0.742473	0.000088
C12	C	0.224628	-0.658616	0.000078
C13	C	-0.076970	-0.904069	0.000107
C14	C	-0.254384	-0.912888	0.000104
N15	N	0.215226	-0.881542	0.195771
C16	C	0.507469	-0.859047	0.000101
C17	C	0.684883	-0.850227	0.000099
C18	C	0.203044	-1.020643	0.000120
C19	C	0.205871	-1.104499	0.000125
C20	C	0.368922	-0.601734	0.000076
C21	C	0.366257	-0.522943	0.000087
C22	C	0.219296	-0.501037	0.000094
C23	C	0.074990	-0.557926	0.000098
C24	C	0.077657	-0.636715	0.000093
C25	C	0.064231	-0.240179	0.000118
C26	C	0.061575	-0.161383	0.000121
C27	C	0.352831	-0.126407	0.000112
C28	C	0.355498	-0.205196	0.000108
C29	C	0.211193	-0.262078	0.000116
C30	C	0.214085	-0.347512	0.000106
C31	C	0.216402	-0.415605	0.000098
N32	N	0.215260	-0.881580	-0.195561
C33	C	0.106419	-0.939336	0.239043
C34	C	0.106417	-0.939340	0.325590
C35	C	0.215232	-0.881552	0.368864
C36	C	0.324044	-0.823752	0.325586
C37	C	0.324037	-0.823746	0.239041
C38	C	0.324074	-0.823776	0.674614
C39	C	0.324076	-0.823789	0.761166
C40	C	0.106455	-0.939370	0.761164
C41	C	0.106447	-0.939364	0.674618
C42	C	0.215253	-0.881562	0.631348
C43	C	0.215252	-0.881558	0.537504
C44	C	0.215242	-0.881559	0.462706
H45	H	-0.231386	-0.789834	0.000095
H46	H	-0.044668	-0.540084	0.000115
C47	C	0.524993	-0.460375	0.000100
N48	N	0.644559	-0.413247	0.000116
H49	H	-0.058106	-0.143552	0.000127
H50	H	-0.338124	-0.973285	0.000118
C51	C	0.517166	-0.229288	0.000106
N52	N	0.638938	-0.247432	0.000110
C53	C	-0.013288	-1.002907	0.191449
N54	N	-0.103460	-1.050789	0.155604
C55	C	-0.094509	-0.302740	0.000122
N56	N	-0.214080	-0.349864	0.000124
H57	H	0.488595	-0.619562	0.000070
H58	H	0.412636	-0.776683	0.203810
H59	H	0.470330	-0.080083	0.000110
H60	H	-0.039842	-0.683029	0.000094
C61	C	-0.013317	-1.002902	0.373185
N62	N	-0.103522	-1.050773	0.409032
H63	H	0.017846	-0.986422	0.639387
C64	C	0.443776	-0.760211	0.808766
N65	N	0.533927	-0.712326	0.844618
H66	H	0.017854	-0.986434	0.796403
H67	H	0.412670	-0.776714	0.639391
C68	C	0.443726	-0.760179	0.373191
N69	N	0.533873	-0.712294	0.409046
