data_functionalizedCrystal
_audit_creation_method	'MofGen! by Chris Wilmer'
_symmetry_space_group_name_H-M	'P1'
_symmetry_Int_Tables_number	1
_symmetry_cell_setting	triclinic
loop_
_symmetry_equiv_pos_as_xyz
  x,y,z
_cell_length_a	13.033409
_cell_length_b	13.033855
_cell_length_c	12.759393
_cell_angle_alpha	97.208808
_cell_angle_beta	82.829454
_cell_angle_gamma	76.696889
loop_
_atom_site_label
_atom_site_type_symbol
_atom_site_fract_x
_atom_site_fract_y
_atom_site_fract_z
Zn1	Zn	1.677436	-0.628781	0.299213
Zn2	Zn	1.699904	-0.806410	0.097996
Zn3	Zn	1.499836	-0.606304	0.149135
Zn4	Zn	1.522381	-0.783807	0.299226
O5	O	1.599889	-0.706326	0.211393
O6	O	1.829037	-0.671211	0.251114
O7	O	1.673332	-0.779918	-0.042244
O8	O	1.504557	-0.460661	0.190440
O9	O	1.845544	-0.801714	0.103281
O10	O	1.635039	-0.477176	0.300702
O11	O	1.526343	-0.632901	-0.004672
O12	O	1.354207	-0.610983	0.190453
O13	O	1.542982	-0.763190	0.446248
O14	O	1.370771	-0.741394	0.300724
O15	O	1.656901	-0.649293	0.446239
O16	O	1.695193	-0.952036	0.103293
O17	O	1.564768	-0.935429	0.251136
C18	C	1.323953	-0.671298	0.251140
C19	C	1.205910	-0.656338	0.268165
C20	C	1.039429	-0.698679	0.220123
C21	C	1.161434	-0.714144	0.202521
C22	C	1.634894	-0.982273	0.171686
C23	C	1.649966	-1.100337	0.154720
C24	C	1.592106	-1.144785	0.220256
C25	C	1.607683	-1.266810	0.202723
C26	C	1.876903	-0.741491	0.171491
C27	C	1.994950	-0.756476	0.154488
C28	C	1.599950	-0.706228	0.485431
C29	C	1.599976	-0.706186	0.602210
C30	C	1.564777	-0.429304	0.251274
C31	C	1.549814	-0.311254	0.268269
C32	C	1.599880	-0.706354	-0.061577
C33	C	1.600022	-0.706123	-0.178342
C34	C	1.659302	-0.646875	0.657068
C35	C	1.659322	-0.646840	0.766794
C36	C	1.540689	-0.765436	0.766793
C37	C	1.540664	-0.765464	0.657070
C38	C	1.727797	-0.578408	0.657069
C39	C	1.727818	-0.578373	0.766795
H40	H	1.213674	-0.775086	0.133297
C41	C	1.135342	-0.574017	0.361694
N42	N	1.082190	-0.512014	0.432139
H43	H	1.812872	-0.610840	0.781552
H44	H	1.047194	-0.817414	0.085269
H45	H	0.987187	-0.637751	0.289350
H46	H	1.695339	-0.493361	0.642315
C47	C	1.509604	-1.074156	0.313595
N48	N	1.447463	-1.020959	0.383901
H49	H	1.668752	-1.319091	0.133627
C50	C	1.467307	-1.240631	0.361612
N51	N	1.405165	-1.187436	0.431919
C52	C	1.732466	-1.170966	0.061380
N53	N	1.794607	-1.224162	-0.008926
H54	H	1.492351	-0.813757	0.612410
H55	H	1.809656	-0.617806	0.607536
C56	C	1.475447	-0.830637	0.827150
N57	N	1.426305	-0.879747	0.872611
H58	H	1.688456	-0.496484	0.816325
