data_functionalizedCrystal
_audit_creation_method	'MofGen! by Chris Wilmer'
_symmetry_space_group_name_H-M	'P1'
_symmetry_Int_Tables_number	1
_symmetry_cell_setting	triclinic
loop_
_symmetry_equiv_pos_as_xyz
  x,y,z
_cell_length_a	29.839135
_cell_length_b	29.839131
_cell_length_c	29.839125
_cell_angle_alpha	90.017709
_cell_angle_beta	90.015488
_cell_angle_gamma	90.043950
loop_
_atom_site_label
_atom_site_type_symbol
_atom_site_fract_x
_atom_site_fract_y
_atom_site_fract_z
Zn1	Zn	0.686720	-0.178886	0.254047
Zn2	Zn	1.186720	0.321114	0.754047
Zn3	Zn	0.686652	-0.253998	0.178917
Zn4	Zn	1.186652	0.246002	0.678917
Zn5	Zn	0.611602	-0.178886	0.178925
Zn6	Zn	1.111602	0.321114	0.678925
Zn7	Zn	0.611550	-0.253993	0.254014
Zn8	Zn	1.111550	0.246007	0.754014
O9	O	0.649131	-0.216441	0.216476
O10	O	1.149131	0.283559	0.716476
O11	O	0.749578	-0.188852	0.244092
O12	O	1.249578	0.311148	0.744092
O13	O	0.676690	-0.244036	0.116051
O14	O	1.176690	0.255964	0.616051
O15	O	0.621617	-0.116019	0.188908
O16	O	1.121617	0.383981	0.688908
O17	O	0.749528	-0.244036	0.188894
O18	O	1.249528	0.255964	0.688894
O19	O	0.676805	-0.116019	0.244099
O20	O	1.176805	0.383981	0.744099
O21	O	0.621551	-0.188852	0.116057
O22	O	1.121551	0.311148	0.616057
O23	O	0.548728	-0.188847	0.188876
O24	O	1.048728	0.311153	0.688876
O25	O	0.621528	-0.244028	0.316886
O26	O	1.121528	0.255972	0.816886
O27	O	0.548690	-0.244028	0.244043
O28	O	1.048690	0.255972	0.744043
O29	O	0.676755	-0.188847	0.316910
O30	O	1.176755	0.311153	0.816910
O31	O	0.676639	-0.316865	0.188862
O32	O	1.176639	0.183135	0.688862
O33	O	0.621462	-0.316861	0.244035
O34	O	1.121462	0.183139	0.744035
C35	C	0.532408	-0.216437	0.216457
C36	C	1.032408	0.283563	0.716457
C37	C	0.482474	-0.216447	0.216459
C38	C	0.982474	0.283553	0.716459
C39	C	0.172854	-0.187750	0.245260
C40	C	0.672854	0.312250	0.745260
C41	C	-0.014819	-0.187753	0.245273
C42	C	0.485181	0.312247	0.745273
O43	O	-0.039065	-0.163344	0.269738
O44	O	0.460935	0.336656	0.769738
N45	N	-0.038311	-0.216441	0.216492
N46	N	0.461689	0.283559	0.716492
C47	C	-0.014882	-0.245129	0.187705
C48	C	0.485118	0.254871	0.687705
O49	O	-0.039169	-0.269527	0.163223
O50	O	0.460831	0.230473	0.663223
C51	C	0.172791	-0.245123	0.187690
C52	C	0.672791	0.254877	0.687690
C53	C	0.196280	-0.216436	0.216475
C54	C	0.696280	0.283564	0.716475
C55	C	0.196343	-0.159065	0.274042
C56	C	0.696343	0.340935	0.774042
C57	C	0.243258	-0.159066	0.274040
C58	C	0.743258	0.340934	0.774040
C59	C	0.266684	-0.187752	0.245256
C60	C	0.766684	0.312248	0.745256
C61	C	0.243195	-0.216437	0.216474
C62	C	0.743195	0.283563	0.716474
C63	C	0.196219	-0.273808	0.158901
C64	C	0.696219	0.226192	0.658901
C65	C	0.243140	-0.273803	0.158899
C66	C	0.743140	0.226197	0.658899
C67	C	0.266630	-0.245116	0.187684
C68	C	0.766630	0.254884	0.687684
C69	C	0.313537	-0.245125	0.187688
C70	C	0.813537	0.254875	0.687688
N71	N	0.337029	-0.216437	0.216468
N72	N	0.837029	0.283563	0.716468
C73	C	0.313602	-0.187750	0.245252
C74	C	0.813602	0.312250	0.745252
C75	C	-0.113412	-0.245130	0.187715
C76	C	0.386588	0.254870	0.687715
C77	C	-0.160330	-0.245133	0.187720
C78	C	0.339670	0.254867	0.687720
C79	C	-0.160265	-0.187756	0.245287
C80	C	0.339735	0.312244	0.745287
C81	C	-0.113346	-0.187756	0.245284
C82	C	0.386654	0.312244	0.745284
C83	C	-0.089921	-0.216442	0.216495
C84	C	0.410079	0.283558	0.716495
C85	C	0.412128	-0.187755	0.245246
C86	C	0.912128	0.312245	0.745246
C87	C	0.459048	-0.187760	0.245243
C88	C	0.959048	0.312240	0.745243
C89	C	0.458978	-0.245135	0.187675
C90	C	0.958978	0.254865	0.687675
C91	C	0.412063	-0.245132	0.187679
C92	C	0.912063	0.254868	0.687679
C93	C	0.388639	-0.216438	0.216467
C94	C	0.888639	0.283562	0.716467
O95	O	0.337811	-0.269518	0.163231
O96	O	0.837811	0.230482	0.663231
O97	O	0.337898	-0.163349	0.269724
O98	O	0.837898	0.336651	0.769724
C99	C	0.125938	-0.187749	0.245262
C100	C	0.625938	0.312251	0.745262
C101	C	0.102449	-0.216434	0.216479
C102	C	0.602449	0.283566	0.716479
C103	C	0.125875	-0.245120	0.187695
C104	C	0.625875	0.254880	0.687695
C105	C	0.055531	-0.216436	0.216483
C106	C	0.555531	0.283564	0.716483
C107	C	0.032105	-0.187749	0.245267
C108	C	0.532105	0.312251	0.745267
C109	C	0.055596	-0.159061	0.274048
C110	C	0.555596	0.340939	0.774048
C111	C	0.102512	-0.159062	0.274046
C112	C	0.602512	0.340938	0.774046
C113	C	0.102384	-0.273808	0.158915
C114	C	0.602384	0.226192	0.658915
C115	C	0.055468	-0.273805	0.158919
C116	C	0.555468	0.226195	0.658919
C117	C	0.032042	-0.245119	0.187703
C118	C	0.532042	0.254881	0.687703
C119	C	0.649050	-0.333163	0.216454
C120	C	1.149050	0.166837	0.716454
C121	C	0.649056	-0.383098	0.216459
C122	C	1.149056	0.116902	0.716459
C123	C	0.677914	-0.692730	0.187789
C124	C	1.177914	-0.192730	0.687789
C125	C	0.677969	-0.880403	0.187807
C126	C	1.177969	-0.380403	0.687807
O127	O	0.702441	-0.904659	0.163413
O128	O	1.202441	-0.404659	0.663413
N129	N	0.649224	-0.903883	0.216510
N130	N	1.149224	-0.403883	0.716510
C131	C	0.620465	-0.880441	0.245213
C132	C	1.120465	-0.380441	0.745213
O133	O	0.596020	-0.904718	0.269630
O134	O	1.096020	-0.404718	0.769630
C135	C	0.620412	-0.692769	0.245197
C136	C	1.120412	-0.192769	0.745197
C137	C	0.649156	-0.669292	0.216489
C138	C	1.149156	-0.169292	0.716489
C139	C	0.706656	-0.669253	0.159084
C140	C	1.206656	-0.169253	0.659084
C141	C	0.706640	-0.622338	0.159078
C142	C	1.206640	-0.122338	0.659078
C143	C	0.677882	-0.598900	0.187778
C144	C	1.177882	-0.098900	0.687778
C145	C	0.649140	-0.622377	0.216483
C146	C	1.149140	-0.122377	0.716483
C147	C	0.591656	-0.669328	0.273902
C148	C	1.091656	-0.169328	0.773902
C149	C	0.591646	-0.622407	0.273897
C150	C	1.091646	-0.122407	0.773897
C151	C	0.620390	-0.598930	0.245188
C152	C	1.120390	-0.098930	0.745188
C153	C	0.620367	-0.552023	0.245177
C154	C	1.120367	-0.052023	0.745177
N155	N	0.649112	-0.528543	0.216474
N156	N	1.149112	-0.028543	0.716474
C157	C	0.677869	-0.551982	0.187774
C158	C	1.177869	-0.051982	0.687774
C159	C	0.620494	-0.978972	0.245218
C160	C	1.120494	-0.478972	0.745218
C161	C	0.620507	-1.025889	0.245222
C162	C	1.120507	-0.525889	0.745222
C163	C	0.678012	-1.025849	0.187816
C164	C	1.178012	-0.525849	0.687816
C165	C	0.677997	-0.978930	0.187811
C166	C	1.177997	-0.478930	0.687811
C167	C	0.649239	-0.955492	0.216515
C168	C	1.149239	-0.455492	0.716515
C169	C	0.677834	-0.453456	0.187764
C170	C	1.177834	0.046544	0.687764
C171	C	0.677814	-0.406536	0.187759
C172	C	1.177814	0.093464	0.687759
C173	C	0.620311	-0.406581	0.245167
C174	C	1.120311	0.093419	0.745167
C175	C	0.620329	-0.453497	0.245170
C176	C	1.120329	0.046503	0.745170
C177	C	0.649094	-0.476933	0.216467
C178	C	1.149094	0.023067	0.716467
O179	O	0.595912	-0.527738	0.269561
O180	O	1.095912	-0.027738	0.769561
O181	O	0.702318	-0.527697	0.163367
O182	O	1.202318	-0.027697	0.663367
C183	C	0.677930	-0.739646	0.187795
C184	C	1.177930	-0.239646	0.687795
C185	C	0.649188	-0.763123	0.216501
C186	C	1.149188	-0.263123	0.716501
C187	C	0.620430	-0.739684	0.245200
C188	C	1.120430	-0.239684	0.745200
C189	C	0.649200	-0.810041	0.216504
C190	C	1.149200	-0.310041	0.716504
C191	C	0.677958	-0.833479	0.187804
C192	C	1.177958	-0.333479	0.687804
C193	C	0.706703	-0.810000	0.159101
C194	C	1.206703	-0.310000	0.659101
C195	C	0.706687	-0.763084	0.159095
C196	C	1.206687	-0.263084	0.659095
C197	C	0.591685	-0.763164	0.273904
C198	C	1.091685	-0.263164	0.773904
C199	C	0.591703	-0.810079	0.273907
C200	C	1.091703	-0.310079	0.773907
C201	C	0.620461	-0.833518	0.245207
C202	C	1.120461	-0.333518	0.745207
C203	C	0.766309	-0.216445	0.216495
C204	C	1.266309	0.283555	0.716495
C205	C	0.816244	-0.216446	0.216504
C206	C	1.316244	0.283554	0.716504
C207	C	0.649143	-0.216437	0.333654
C208	C	1.149143	0.283563	0.833654
C209	C	0.649148	-0.216435	0.383589
C210	C	1.149148	0.283565	0.883589
C211	C	0.649225	-0.099262	0.216508
C212	C	1.149225	0.400738	0.716508
C213	C	0.649265	-0.049328	0.216522
C214	C	1.149265	0.450672	0.716522
C215	C	0.649145	-0.216412	0.099753
C216	C	1.149145	0.283588	0.599753
C217	C	0.649227	-0.216288	0.049819
C218	C	1.149227	0.283712	0.549819
C219	C	0.677935	-0.187627	0.693248
C220	C	1.177935	0.312373	1.193248
C221	C	0.677957	-0.187589	0.880921
C222	C	1.177957	0.312411	1.380921
O223	O	0.702400	-0.163138	0.905199
O224	O	1.202400	0.336862	1.405199
N225	N	0.649208	-0.216315	0.904374
N226	N	1.149208	0.283685	1.404374
C227	C	0.620449	-0.245050	0.880906
C228	C	1.120449	0.254950	1.380906
O229	O	0.595993	-0.269479	0.905160
O230	O	1.095993	0.230521	1.405160
C231	C	0.620425	-0.245086	0.693234
C232	C	1.120425	0.254914	1.193234
C233	C	0.649179	-0.216361	0.669783
C234	C	1.149179	0.283639	1.169783
C235	C	0.706687	-0.158905	0.669797
C236	C	1.206687	0.341095	1.169797
C237	C	0.706683	-0.158916	0.622882
C238	C	1.206683	0.341084	1.122882
C239	C	0.677927	-0.187650	0.599417
C240	C	1.177927	0.312350	1.099417
C241	C	0.649175	-0.216373	0.622868
C242	C	1.149175	0.283627	1.122868
C243	C	0.591663	-0.273819	0.669766
C244	C	1.091663	0.226181	1.169766
C245	C	0.591659	-0.273824	0.622845
C246	C	1.091659	0.226176	1.122845
C247	C	0.620414	-0.245100	0.599395
C248	C	1.120414	0.254900	1.099395
C249	C	0.620415	-0.245119	0.552487
C250	C	1.120415	0.254881	1.052487
N251	N	0.649164	-0.216393	0.529034
N252	N	1.149164	0.283607	1.029034
C253	C	0.677920	-0.187659	0.552499
C254	C	1.177920	0.312341	1.052499
C255	C	0.620464	-0.245030	0.979437
C256	C	1.120464	0.254970	1.479437
C257	C	0.620471	-0.245022	1.026354
C258	C	1.120471	0.254978	1.526354
C259	C	0.677979	-0.187560	1.026366
C260	C	1.177979	0.312440	1.526366
C261	C	0.677974	-0.187571	0.979448
C262	C	1.177974	0.312429	1.479448
C263	C	0.649214	-0.216304	0.955984
C264	C	1.149214	0.283696	1.455984
C265	C	0.677910	-0.187685	0.453973
C266	C	1.177910	0.312315	0.953973
C267	C	0.677904	-0.187701	0.407054
C268	C	1.177904	0.312299	0.907054
C269	C	0.620395	-0.245161	0.407046
C270	C	1.120395	0.254839	0.907046
C271	C	0.620402	-0.245147	0.453961
C272	C	1.120402	0.254853	0.953961
C273	C	0.649161	-0.216406	0.477424
C274	C	1.149161	0.283594	0.977424
O275	O	0.595982	-0.269553	0.528180
O276	O	1.095982	0.230447	1.028180
O277	O	0.702366	-0.163226	0.528237
O278	O	1.202366	0.336774	1.028237
C279	C	0.677939	-0.187616	0.740163
C280	C	1.177939	0.312384	1.240163
C281	C	0.649187	-0.216338	0.763614
C282	C	1.149187	0.283662	1.263614
C283	C	0.620431	-0.245072	0.740149
C284	C	1.120431	0.254928	1.240149
C285	C	0.649194	-0.216330	0.810532
C286	C	1.149194	0.283670	1.310532
C287	C	0.677950	-0.187596	0.833997
C288	C	1.177950	0.312404	1.333997
C289	C	0.706699	-0.158870	0.810544
C290	C	1.206699	0.341130	1.310544
C291	C	0.706695	-0.158881	0.763628
C292	C	1.206695	0.341119	1.263628
C293	C	0.591682	-0.273798	0.763602
C294	C	1.091682	0.226202	1.263602
C295	C	0.591689	-0.273785	0.810518
C296	C	1.091689	0.226215	1.310518
C297	C	0.620445	-0.245050	0.833983
C298	C	1.120445	0.254950	1.333983
H299	H	0.121633	-0.135702	0.297485
H300	H	0.621633	0.364298	0.797485
H301	H	0.036515	-0.135705	0.297486
H302	H	0.536515	0.364295	0.797486
O303	O	0.592527	-0.273093	0.384194
O304	O	1.092527	0.226907	0.884194
C305	C	0.618084	-0.302119	0.357064
C306	C	1.118084	0.197881	0.857064
H307	H	0.652144	-0.286277	0.350053
H308	H	1.152144	0.213723	0.850053
H309	H	0.599784	-0.308138	0.324062
H310	H	1.099784	0.191862	0.824062
H311	H	0.622990	-0.335412	0.375137
H312	H	1.122990	0.164588	0.875137
O313	O	0.705974	-0.159693	1.049146
O314	O	1.205974	0.340307	1.549146
C315	C	0.750744	-0.169497	1.037684
C316	C	1.250744	0.330503	1.537684
H317	H	0.752991	-0.205388	1.024779
H318	H	1.252991	0.294612	1.524779
H319	H	0.772940	-0.165621	1.068547
H320	H	1.272940	0.334379	1.568547
H321	H	0.762503	-0.145412	1.010460
H322	H	1.262503	0.354588	1.510460
H323	H	0.597061	-0.268417	1.045444
H324	H	1.097061	0.231583	1.545444
H325	H	-0.179346	-0.164399	0.268724
H326	H	0.320654	0.335601	0.768724
O327	O	0.705716	-0.383781	0.159809
O328	O	1.205716	0.116219	0.659809
C329	C	0.695926	-0.395269	0.115025
C330	C	1.195926	0.104731	0.615025
H331	H	0.678666	-0.429353	0.114083
H332	H	1.178666	0.070647	0.614083
H333	H	0.728364	-0.396850	0.094913
H334	H	1.228364	0.103150	0.594913
H335	H	0.672832	-0.368895	0.099866
H336	H	1.172832	0.131105	0.599866
H337	H	0.568229	-0.603326	0.297273
H338	H	1.068229	-0.103326	0.797273
O339	O	0.563764	-0.832812	0.301838
O340	O	1.063764	-0.332812	0.801838
C341	C	0.538374	-0.802058	0.327159
C342	C	1.038374	-0.302058	0.827159
H343	H	0.556764	-0.768593	0.328722
H344	H	1.056764	-0.268593	0.828722
H345	H	0.533564	-0.815599	0.362554
H346	H	1.033564	-0.315599	0.862554
H347	H	0.504262	-0.797114	0.310676
H348	H	1.004262	-0.297114	0.810676
O349	O	0.705840	-0.159641	0.956621
O350	O	1.205840	0.340359	1.456621
C351	C	0.680281	-0.130618	0.929495
C352	C	1.180281	0.369382	1.429495
H353	H	0.646223	-0.146464	0.922455
H354	H	1.146223	0.353536	1.422455
H355	H	0.698582	-0.124597	0.896507
H356	H	1.198582	0.375403	1.396507
H357	H	0.675371	-0.097326	0.947586
H358	H	1.175371	0.402674	1.447586
O359	O	-0.090600	-0.159846	0.273259
O360	O	0.409400	0.340154	0.773259
C361	C	-0.121343	-0.134540	0.298673
C362	C	0.378657	0.365460	0.798673
H363	H	-0.154792	-0.132960	0.280276
H364	H	0.345208	0.367040	0.780276
H365	H	-0.107764	-0.099149	0.303531
H366	H	0.392236	0.400851	0.803531
H367	H	-0.126334	-0.151045	0.332762
H368	H	0.373666	0.348955	0.832762
O369	O	0.173660	-0.131183	0.302049
O370	O	0.673660	0.368817	0.802049
C371	C	0.204463	-0.105860	0.327440
C372	C	0.704463	0.394140	0.827440
H373	H	0.237893	-0.124267	0.328950
H374	H	0.737893	0.375733	0.828950
H375	H	0.190930	-0.101124	0.362849
H376	H	0.690930	0.398876	0.862849
H377	H	0.209472	-0.071714	0.311052
H378	H	0.709472	0.428286	0.811052
H379	H	0.478171	-0.164399	0.268685
H380	H	0.978171	0.335601	0.768685
O381	O	0.592392	-0.476235	0.273097
O382	O	1.092392	0.023765	0.773097
C383	C	0.566998	-0.445485	0.298417
C384	C	1.066998	0.054515	0.798417
H385	H	0.585384	-0.412018	0.299981
H386	H	1.085384	0.087982	0.799981
H387	H	0.562188	-0.459027	0.333812
H388	H	1.062188	0.040973	0.833812
H389	H	0.532886	-0.440543	0.281933
H390	H	1.032886	0.059457	0.781933
O391	O	0.592444	-0.383786	0.273093
O392	O	1.092444	0.116214	0.773093
C393	C	0.618001	-0.356601	0.302117
C394	C	1.118001	0.143399	0.802117
H395	H	0.653384	-0.370707	0.304925
H396	H	1.153384	0.129293	0.804925
H397	H	0.601733	-0.356065	0.336677
H398	H	1.101733	0.143935	0.836677
H399	H	0.619552	-0.321049	0.288221
H400	H	1.119552	0.178951	0.788221
H401	H	0.262379	-0.135705	0.297480
H402	H	0.762379	0.364295	0.797480
H403	H	0.597044	-0.268431	0.960336
H404	H	1.097044	0.231569	1.460336
H405	H	0.730110	-0.135491	0.744539
H406	H	1.230110	0.364509	1.244539
H407	H	0.701321	-0.164310	0.387962
H408	H	1.201321	0.335690	0.887962
O409	O	0.563690	-0.692147	0.301729
O410	O	1.063690	-0.192147	0.801729
C411	C	0.534701	-0.719339	0.276137
C412	C	1.034701	-0.219339	0.776137
H413	H	0.531940	-0.705224	0.240748
H414	H	1.031940	-0.205224	0.740748
H415	H	0.500119	-0.719897	0.292360
H416	H	1.000119	-0.219897	0.792360
H417	H	0.548601	-0.754884	0.274610
H418	H	1.048601	-0.254884	0.774610
H419	H	-0.179451	-0.268497	0.164285
H420	H	0.320549	0.231503	0.664285
H421	H	0.036347	-0.297170	0.135480
H422	H	0.536347	0.202830	0.635480
O423	O	0.563786	-0.301760	0.600001
O424	O	1.063786	0.198240	1.100001
C425	C	0.589339	-0.330791	0.572874
C426	C	1.089339	0.169209	1.072874
H427	H	0.623397	-0.314949	0.565854
H428	H	1.123397	0.185051	1.065854
H429	H	0.571033	-0.336819	0.539877
H430	H	1.071033	0.163181	1.039877
H431	H	0.594249	-0.364080	0.590955
H432	H	1.094249	0.135920	1.090955
H433	H	0.596991	-0.268541	0.473056
H434	H	1.096991	0.231459	0.973056
O435	O	0.481790	-0.273021	0.159777
O436	O	0.981790	0.226979	0.659777
C437	C	0.508908	-0.302082	0.185300
C438	C	1.008908	0.197918	0.685300
H439	H	0.515954	-0.286292	0.219377
H440	H	1.015954	0.213708	0.719377
H441	H	0.541893	-0.308068	0.166991
H442	H	1.041893	0.191932	0.666991
H443	H	0.490807	-0.335386	0.190170
H444	H	0.990807	0.164614	0.690170
H445	H	0.730093	-0.743973	0.135718
H446	H	1.230093	-0.243973	0.635718
H447	H	0.568248	-0.297209	0.688852
H448	H	1.068248	0.202791	1.188852
H449	H	-0.094343	-0.268491	0.164271
H450	H	0.405657	0.231509	0.664271
H451	H	0.730115	-0.135475	0.829657
H452	H	1.230115	0.364525	1.329657
H453	H	0.597076	-0.959892	0.268594
H454	H	1.097076	-0.459892	0.768594
H455	H	0.568274	-0.297180	0.829607
H456	H	1.068274	0.202820	1.329607
O457	O	0.705890	-0.159754	0.476691
O458	O	1.205890	0.340246	0.976691
C459	C	0.731255	-0.134401	0.445924
C460	C	1.231255	0.365599	0.945924
H461	H	0.732786	-0.152813	0.412480
H462	H	1.232786	0.347187	0.912480
H463	H	0.766658	-0.129607	0.459481
H464	H	1.266658	0.370393	0.959481
H465	H	0.714832	-0.100281	0.440933
H466	H	1.214832	0.399719	0.940933
H467	H	0.568265	-0.297198	0.744502
H468	H	1.068265	0.202802	1.244502
O469	O	0.173479	-0.301687	0.130893
O470	O	0.673479	0.198313	0.630893
C471	C	0.204225	-0.327006	0.105496
C472	C	0.704225	0.172994	0.605496
H473	H	0.237682	-0.308599	0.103982
H474	H	0.737682	0.191401	0.603982
H475	H	0.190662	-0.331740	0.070088
H476	H	0.690662	0.168260	0.570088
H477	H	0.209195	-0.361153	0.121880
H478	H	0.709195	0.138847	0.621880
H479	H	0.262211	-0.297163	0.135454
H480	H	0.762211	0.202837	0.635454
H481	H	0.730118	-0.829092	0.135731
H482	H	1.230118	-0.329092	0.635731
H483	H	0.701402	-0.959818	0.164434
H484	H	1.201402	-0.459818	0.664434
H485	H	0.597097	-1.045000	0.268595
H486	H	1.097097	-0.545000	0.768595
H487	H	0.393062	-0.164389	0.268686
H488	H	0.893062	0.335611	0.768686
O489	O	0.125115	-0.301742	0.131001
O490	O	0.625115	0.198258	0.631001
C491	C	0.113604	-0.346529	0.140736
C492	C	0.613604	0.153471	0.640736
H493	H	0.100719	-0.348846	0.176623
H494	H	0.600719	0.151154	0.676623
H495	H	0.144436	-0.368724	0.136823
H496	H	0.644436	0.131276	0.636823
H497	H	0.086349	-0.358233	0.116633
H498	H	0.586349	0.141767	0.616633
O499	O	0.389312	-0.273016	0.159680
O500	O	0.889312	0.226984	0.659680
C501	C	0.420052	-0.298346	0.134285
C502	C	0.920052	0.201654	0.634285
H503	H	0.453511	-0.279944	0.132764
H504	H	0.953511	0.220056	0.632764
H505	H	0.406484	-0.303086	0.098880
H506	H	0.906484	0.196914	0.598880
H507	H	0.425019	-0.332491	0.150676
H508	H	0.925019	0.167509	0.650676
H509	H	0.730097	-0.135525	0.603793
H510	H	1.230097	0.364475	1.103793
H511	H	0.701258	-0.472532	0.164392
H512	H	1.201258	0.027468	0.664392
H513	H	0.730047	-0.603226	0.135702
H514	H	1.230047	-0.103226	0.635702
H515	H	0.730076	-0.688332	0.135713
H516	H	1.230076	-0.188332	0.635713
O517	O	0.705960	-1.048690	0.160006
O518	O	1.205960	-0.548690	0.660006
C519	C	0.699810	-1.095134	0.166175
C520	C	1.199810	-0.595134	0.666175
H521	H	0.685033	-1.101530	0.200816
H522	H	1.185033	-0.601530	0.700816
H523	H	0.733478	-1.112921	0.163214
H524	H	1.233478	-0.612921	0.663214
H525	H	0.675946	-1.108508	0.139483
H526	H	1.175946	-0.608508	0.639483
O527	O	0.563811	-0.740380	0.301831
O528	O	1.063811	-0.240380	0.801831
C529	C	0.589350	-0.713190	0.330866
C530	C	1.089350	-0.213190	0.830866
H531	H	0.624738	-0.727284	0.333680
H532	H	1.124738	-0.227284	0.833680
H533	H	0.573074	-0.712667	0.365422
H534	H	1.073074	-0.212667	0.865422
H535	H	0.590891	-0.677635	0.316977
H536	H	1.090891	-0.177635	0.816977
H537	H	0.730104	-0.135503	0.688898
H538	H	1.230104	0.364497	1.188898
