data_functionalizedCrystal
_audit_creation_method	'MofGen! by Chris Wilmer'
_symmetry_space_group_name_H-M	'P1'
_symmetry_Int_Tables_number	1
_symmetry_cell_setting	triclinic
loop_
_symmetry_equiv_pos_as_xyz
  x,y,z
_cell_length_a	14.044220
_cell_length_b	17.699103
_cell_length_c	16.176319
_cell_angle_alpha	89.988235
_cell_angle_beta	89.997715
_cell_angle_gamma	88.239969
loop_
_atom_site_label
_atom_site_type_symbol
_atom_site_fract_x
_atom_site_fract_y
_atom_site_fract_z
O1	O	1.257306	0.182443	-0.068676
O2	O	0.981352	0.175860	-0.068696
O3	O	1.127116	0.069500	-0.068670
O4	O	1.111542	0.288802	-0.068703
O5	O	1.127096	0.069492	0.068823
O6	O	0.981332	0.175851	0.068797
O7	O	1.257286	0.182434	0.068817
Cu8	Cu	1.119307	0.179142	0.081361
Cu9	Cu	1.119331	0.179152	-0.081240
O10	O	1.111522	0.288794	0.068791
C11	C	0.946034	0.172974	0.000048
C12	C	0.840827	0.164378	0.000041
C13	C	1.126545	0.041261	0.000079
C14	C	1.124861	-0.042873	0.000086
C15	C	1.114574	-0.559290	-0.074917
C16	C	1.116154	-0.480238	-0.074909
C17	C	1.116932	-0.440730	0.000043
C18	C	1.116138	-0.480278	0.074993
C19	C	1.114564	-0.559330	0.074985
C20	C	1.122487	-0.161474	0.075028
C21	C	1.124058	-0.082417	0.075031
C22	C	1.124077	-0.082382	-0.074866
C23	C	1.122503	-0.161433	-0.074874
C24	C	1.121714	-0.200975	0.000075
C25	C	1.120002	-0.286693	0.000066
C26	C	1.118637	-0.355013	0.000053
C27	C	0.648200	0.148662	0.000060
C28	C	0.590432	0.209628	0.000054
C29	C	0.483248	0.200884	0.000064
C30	C	0.755394	0.157405	0.000049
C31	C	1.292604	0.185321	0.000071
C32	C	1.397811	0.193916	0.000073
C33	C	1.112094	0.317033	0.000040
C34	C	1.113777	0.401167	0.000028
N35	N	1.119297	0.179135	0.195726
N36	N	1.119348	0.179154	-0.195606
C37	C	1.183861	0.132061	0.239002
C38	C	1.183866	0.132061	0.325549
C39	C	1.119311	0.179138	0.368819
C40	C	1.054740	0.226214	0.325537
C41	C	1.054732	0.226210	0.238991
C42	C	1.054773	0.226230	0.674565
C43	C	1.054788	0.226232	0.761117
C44	C	1.183907	0.132081	0.761123
C45	C	1.183898	0.132077	0.674578
C46	C	1.119325	0.179149	0.631303
C47	C	1.119319	0.179148	0.537459
C48	C	1.119320	0.179144	0.462662
H49	H	1.116804	-0.448045	-0.135936
H50	H	0.621473	0.268390	0.000041
N51	N	1.124925	-0.039759	-0.155724
H52	H	1.065920	-0.051359	-0.188476
H53	H	1.126075	0.016305	-0.144312
N54	N	1.253556	0.081307	0.807797
H55	H	1.243768	0.088448	0.869190
H56	H	1.242734	0.026877	0.792683
N57	N	0.607083	0.070833	0.000077
H58	H	0.566562	0.064503	-0.050888
H59	H	0.660616	0.031404	0.000110
N60	N	1.116975	-0.437662	0.155832
H61	H	1.057971	-0.449263	0.188594
H62	H	1.175463	-0.453609	0.188537
H63	H	1.113932	-0.591451	-0.135952
N64	N	1.253495	0.081289	0.192336
H65	H	1.294395	0.051467	0.232887
H66	H	1.217288	0.045365	0.156441
N67	N	1.121686	-0.204060	-0.155707
H68	H	1.179767	-0.239019	-0.159018
H69	H	1.062275	-0.234654	-0.159007
N70	N	1.253535	0.081317	0.372227
H71	H	1.294443	0.051506	0.331683
H72	H	1.295349	0.113168	0.408105
N73	N	0.985100	0.276987	0.192314
H74	H	0.994887	0.269840	0.130922
H75	H	0.917893	0.263674	0.207454
H76	H	1.236468	0.093745	0.639350
H77	H	1.124686	-0.050252	0.136070
H78	H	1.002216	0.264569	0.796345
H79	H	1.002197	0.264559	0.639338
H80	H	1.121846	-0.193660	0.136057
H81	H	1.113915	-0.591525	0.136013
H82	H	1.002174	0.264542	0.360772
