data_functionalizedCrystal
_audit_creation_method	'MofGen! by Chris Wilmer'
_symmetry_space_group_name_H-M	'P1'
_symmetry_Int_Tables_number	1
_symmetry_cell_setting	triclinic
loop_
_symmetry_equiv_pos_as_xyz
  x,y,z
_cell_length_a	18.050590
_cell_length_b	25.639240
_cell_length_c	25.639217
_cell_angle_alpha	89.879687
_cell_angle_beta	89.942874
_cell_angle_gamma	90.021926
loop_
_atom_site_label
_atom_site_type_symbol
_atom_site_fract_x
_atom_site_fract_y
_atom_site_fract_z
Zn1	Zn	1.135693	-0.207879	-0.295376
Zn2	Zn	1.635693	0.292121	0.204624
Zn3	Zn	1.135468	-0.295442	-0.207929
Zn4	Zn	1.635468	0.204558	0.292071
Zn5	Zn	1.011387	-0.208006	-0.207977
Zn6	Zn	1.511387	0.291994	0.292023
Zn7	Zn	1.011451	-0.295269	-0.295357
Zn8	Zn	1.511451	0.204731	0.204643
O9	O	1.073500	-0.251649	-0.251660
O10	O	1.573500	0.248351	0.248340
O11	O	1.239588	-0.219514	-0.283764
O12	O	1.739588	0.280486	0.216236
O13	O	1.118888	-0.283969	-0.134770
O14	O	1.618888	0.216031	0.365230
O15	O	1.027944	-0.134824	-0.219599
O16	O	1.527944	0.365176	0.280401
O17	O	1.239423	-0.283846	-0.219517
O18	O	1.739423	0.216154	0.280483
O19	O	1.119271	-0.134730	-0.283811
O20	O	1.619271	0.365270	0.216189
O21	O	1.027726	-0.219730	-0.134805
O22	O	1.527726	0.280270	0.365195
O23	O	0.907471	-0.219562	-0.219580
O24	O	1.407471	0.280438	0.280420
O25	O	1.028052	-0.283551	-0.368525
O26	O	1.528052	0.216449	0.131475
O27	O	0.907518	-0.283674	-0.283778
O28	O	1.407518	0.216326	0.216222
O29	O	1.119333	-0.219346	-0.368539
O30	O	1.619333	0.280654	0.131461
O31	O	1.118950	-0.368584	-0.219498
O32	O	1.618950	0.131416	0.280502
O33	O	1.027834	-0.368457	-0.283731
O34	O	1.527834	0.131543	0.216269
C35	C	0.880548	-0.251613	-0.251682
C36	C	1.380548	0.248387	0.248318
C37	C	0.798002	-0.251610	-0.251704
C38	C	1.298002	0.248390	0.248296
C39	C	0.598598	-0.286574	-0.286532
C40	C	1.098598	0.213426	0.213468
C41	C	0.549229	-0.238882	-0.299406
C42	C	1.049229	0.261118	0.200594
C43	C	0.646872	-0.251640	-0.251679
C44	C	1.146872	0.248360	0.248321
C45	C	0.549159	-0.299360	-0.238804
C46	C	1.049159	0.200640	0.261196
C47	C	0.500886	-0.251672	-0.251655
C48	C	1.000886	0.248328	0.248345
C49	C	0.598590	-0.203921	-0.264578
C50	C	1.098590	0.296079	0.235422
C51	C	0.598524	-0.264431	-0.203954
C52	C	1.098524	0.235569	0.296046
C53	C	0.549177	-0.216706	-0.216810
C54	C	1.049177	0.283294	0.283190
C55	C	0.730970	-0.251622	-0.251694
C56	C	1.230970	0.248378	0.248306
C57	C	0.416790	-0.251685	-0.251640
C58	C	0.916790	0.248315	0.248360
C59	C	1.073395	-0.387491	-0.251619
C60	C	1.573395	0.112509	0.248381
C61	C	1.073418	-0.445605	-0.251619
C62	C	1.573418	0.054395	0.248381
C63	C	1.121078	-0.805881	-0.285155
C64	C	1.621078	-0.305881	0.214845
C65	C	1.121099	-0.860486	-0.285166
C66	C	1.621099	-0.360486	0.214834
O67	O	1.161497	-0.888648	-0.313637
O68	O	1.661497	-0.388648	0.186363
N69	N	1.073603	-0.887888	-0.251710
N70	N	1.573603	-0.387888	0.248290
C71	C	1.026076	-0.860683	-0.218246
C72	C	1.526076	-0.360683	0.281754
O73	O	0.985678	-0.889004	-0.189791
O74	O	1.485678	-0.389004	0.310209
C75	C	1.026051	-0.806079	-0.218238
C76	C	1.526051	-0.306079	0.281762
C77	C	1.073556	-0.778680	-0.251692
C78	C	1.573556	-0.278680	0.248308
C79	C	1.168578	-0.778482	-0.318607
C80	C	1.668578	-0.278482	0.181393
C81	C	1.168557	-0.723882	-0.318595
C82	C	1.668557	-0.223882	0.181405
C83	C	1.121035	-0.696680	-0.285132
C84	C	1.621035	-0.196680	0.214868
C85	C	1.073535	-0.724080	-0.251681
C86	C	1.573535	-0.224080	0.248319
C87	C	0.978521	-0.778875	-0.184777
C88	C	1.478521	-0.278875	0.315223
C89	C	0.978499	-0.724268	-0.184772
C90	C	1.478499	-0.224268	0.315228
C91	C	1.026004	-0.696869	-0.218226
C92	C	1.526004	-0.196869	0.281774
C93	C	1.025992	-0.642278	-0.218206
C94	C	1.525992	-0.142278	0.281794
N95	N	1.073488	-0.614876	-0.251662
N96	N	1.573488	-0.114876	0.248338
C97	C	1.121010	-0.642077	-0.285125
C98	C	1.621010	-0.142077	0.214875
C99	C	1.026131	-0.975353	-0.218265
C100	C	1.526131	-0.475353	0.281735
C101	C	1.026160	-1.029956	-0.218269
C102	C	1.526160	-0.529956	0.281731
C103	C	1.121182	-1.029755	-0.285190
C104	C	1.621182	-0.529755	0.214810
C105	C	1.121157	-0.975151	-0.285183
C106	C	1.621157	-0.475151	0.214817
C107	C	1.073628	-0.947951	-0.251720
C108	C	1.573628	-0.447951	0.248280
C109	C	1.120963	-0.527412	-0.285098
C110	C	1.620963	-0.027412	0.214902
C111	C	1.120939	-0.472807	-0.285082
C112	C	1.620939	0.027193	0.214918
C113	C	1.025914	-0.473012	-0.218163
C114	C	1.525914	0.026988	0.281837
C115	C	1.025940	-0.527613	-0.218177
C116	C	1.525940	-0.027613	0.281823
C117	C	1.073467	-0.554811	-0.251648
C118	C	1.573467	-0.054811	0.248352
O119	O	0.985613	-0.614080	-0.189751
O120	O	1.485613	-0.114080	0.310249
O121	O	1.161395	-0.613749	-0.313580
O122	O	1.661395	-0.113749	0.186420
C123	C	1.267205	-0.251685	-0.251637
C124	C	1.767205	0.248315	0.248363
C125	C	1.349751	-0.251700	-0.251628
C126	C	1.849751	0.248300	0.248372
C127	C	1.073725	-0.251415	-0.388033
C128	C	1.573725	0.248585	0.111967
C129	C	1.073821	-0.251315	-0.446147
C130	C	1.573821	0.248685	0.053853
C131	C	1.073625	-0.115276	-0.251712
C132	C	1.573625	0.384724	0.248288
C133	C	1.073679	-0.057162	-0.251735
C134	C	1.573679	0.442838	0.248265
C135	C	1.073318	-0.251844	-0.115817
C136	C	1.573318	0.248156	0.384183
C137	C	1.073367	-0.251796	-0.057703
C138	C	1.573367	0.248204	0.442297
C139	C	1.120727	-0.217919	0.193330
C140	C	1.620727	0.282081	0.693330
C141	C	1.120685	-0.217962	0.138726
C142	C	1.620685	0.282038	0.638726
O143	O	1.160767	-0.189338	0.110353
O144	O	1.660767	0.310662	0.610353
N145	N	1.073488	-0.251656	0.111571
N146	N	1.573488	0.248344	0.611571
C147	C	1.026325	-0.285305	0.139023
C148	C	1.526325	0.214695	0.639023
O149	O	0.986176	-0.313968	0.110912
O150	O	1.486176	0.186032	0.610912
C151	C	1.026364	-0.285259	0.193626
C152	C	1.526364	0.214741	0.693626
C153	C	1.073569	-0.251567	0.220778
C154	C	1.573569	0.248433	0.720778
C155	C	1.167927	-0.184229	0.220482
C156	C	1.667927	0.315771	0.720482
C157	C	1.167970	-0.184188	0.275082
C158	C	1.667970	0.315812	0.775082
C159	C	1.120812	-0.217835	0.302531
C160	C	1.620812	0.282165	0.802531
C161	C	1.073612	-0.251525	0.275379
C162	C	1.573612	0.248475	0.775379
C163	C	0.979198	-0.318906	0.221077
C164	C	1.479198	0.181094	0.721077
C165	C	0.979240	-0.318857	0.275684
C166	C	1.479240	0.181143	0.775684
C167	C	1.026445	-0.285165	0.302836
C168	C	1.526445	0.214835	0.802836
C169	C	1.026497	-0.285131	0.357427
C170	C	1.526497	0.214869	0.857427
N171	N	1.073693	-0.251438	0.384582
N172	N	1.573693	0.248562	0.884582
C173	C	1.120851	-0.217790	0.357134
C174	C	1.620851	0.282210	0.857134
C175	C	1.026247	-0.285398	0.024352
C176	C	1.526247	0.214602	0.524352
C177	C	1.026211	-0.285446	-0.030250
C178	C	1.526211	0.214554	0.469750
C179	C	1.120570	-0.218103	-0.030543
C180	C	1.620570	0.281897	0.469457
C181	C	1.120609	-0.218057	0.024060
C182	C	1.620609	0.281943	0.524060
C183	C	1.073443	-0.251704	0.051507
C184	C	1.573443	0.248296	0.551507
C185	C	1.120938	-0.217705	0.471799
C186	C	1.620938	0.282295	0.971799
C187	C	1.120978	-0.217667	0.526404
C188	C	1.620978	0.282333	1.026404
C189	C	1.026617	-0.285009	0.526693
C190	C	1.526617	0.214991	1.026693
C191	C	1.026579	-0.285048	0.472092
C192	C	1.526579	0.214952	0.972092
C193	C	1.073742	-0.251392	0.444647
C194	C	1.573742	0.248608	0.944647
O195	O	0.986433	-0.313739	0.385835
O196	O	1.486433	0.186261	0.885835
O197	O	1.160986	-0.189127	0.385252
O198	O	1.660986	0.310873	0.885252
H199	H	0.527443	-0.339702	-0.227927
H200	H	1.027443	0.160298	0.272073
H201	H	0.988225	-0.312406	0.549051
H202	H	1.488225	0.187594	1.049051
H203	H	1.207237	-0.701576	-0.345838
H204	H	1.707237	-0.201576	0.154162
H205	H	1.159839	-0.952846	-0.312424
H206	H	1.659839	-0.452846	0.187576
H207	H	0.939793	-0.702124	-0.157524
H208	H	1.439793	-0.202124	0.342476
H209	H	1.159340	-0.190297	0.449459
H210	H	1.659340	0.309703	0.949459
H211	H	1.159421	-0.190231	0.548509
H212	H	1.659421	0.309769	1.048509
H213	H	1.206408	-0.156751	0.297185
H214	H	1.706408	0.343249	0.797185
C215	C	0.520040	-0.176771	-0.176979
C216	C	1.020040	0.323229	0.323021
C217	C	0.471206	-0.194984	-0.131144
C218	C	0.971206	0.305016	0.368856
C219	C	0.442067	-0.155048	-0.091315
C220	C	0.942067	0.344952	0.408685
C221	C	0.461761	-0.096899	-0.097322
C222	C	0.961761	0.403101	0.402678
C223	C	0.510597	-0.078683	-0.143158
C224	C	1.010597	0.421317	0.356842
C225	C	0.539736	-0.118619	-0.182987
C226	C	1.039736	0.381381	0.317013
H227	H	0.456625	-0.238032	-0.126696
H228	H	0.956625	0.261968	0.373304
H229	H	0.405915	-0.168533	-0.057384
H230	H	0.905915	0.331467	0.442616
H231	H	0.440190	-0.067336	-0.067838
H232	H	0.940190	0.432664	0.432162
H233	H	0.525178	-0.035635	-0.147607
H234	H	1.025178	0.464365	0.352393
H235	H	0.575888	-0.105134	-0.216918
H236	H	1.075888	0.394866	0.283082
C237	C	0.973908	-1.060090	-0.181466
C238	C	1.473908	-0.560090	0.318534
C239	C	0.979934	-1.052711	-0.122030
C240	C	1.479934	-0.552711	0.377970
C241	C	0.927677	-1.082843	-0.085228
C242	C	1.427677	-0.582843	0.414772
C243	C	0.869392	-1.120355	-0.107861
C244	C	1.369392	-0.620355	0.392139
C245	C	0.863364	-1.127736	-0.167300
C246	C	1.363364	-0.627736	0.332700
C247	C	0.915621	-1.097604	-0.204103
C248	C	1.415621	-0.597604	0.295897
H249	H	1.023082	-1.024941	-0.105273
H250	H	1.523082	-0.524941	0.394727
H251	H	0.932140	-1.077379	-0.041227
H252	H	1.432140	-0.577379	0.458773
H253	H	0.830708	-1.142661	-0.080618
H254	H	1.330708	-0.642661	0.419382
H255	H	0.820216	-1.155506	-0.184058
H256	H	1.320216	-0.655506	0.315942
H257	H	0.911158	-1.103068	-0.248103
H258	H	1.411158	-0.603068	0.251897
C259	C	1.173245	-0.557325	-0.321913
C260	C	1.673245	-0.057325	0.178087
C261	C	1.231558	-0.594886	-0.299293
C262	C	1.731558	-0.094886	0.200707
C263	C	1.283843	-0.624800	-0.336105
C264	C	1.783843	-0.124800	0.163895
C265	C	1.277815	-0.617152	-0.395538
C266	C	1.777815	-0.117152	0.104462
C267	C	1.219500	-0.579590	-0.418162
C268	C	1.719500	-0.079590	0.081838
C269	C	1.167214	-0.549676	-0.381349
C270	C	1.667214	-0.049676	0.118651
H271	H	1.236022	-0.600549	-0.255294
H272	H	1.736022	-0.100549	0.244706
H273	H	1.327012	-0.652606	-0.319358
H274	H	1.827012	-0.152606	0.180642
H275	H	1.316520	-0.639296	-0.422789
H276	H	1.816520	-0.139296	0.077211
H277	H	1.215035	-0.573927	-0.462161
H278	H	1.715035	-0.073927	0.037839
H279	H	1.124045	-0.521870	-0.398097
H280	H	1.624045	-0.021870	0.101903
H281	H	1.206329	-0.156826	0.198139
H282	H	1.706329	0.343174	0.698139
H283	H	1.158967	-0.190703	-0.052902
H284	H	1.658967	0.309297	0.447098
C285	C	1.172529	-0.180992	0.053925
C286	C	1.672529	0.319008	0.553925
C287	C	1.165903	-0.121593	0.046244
C288	C	1.665903	0.378407	0.546244
C289	C	1.217825	-0.084525	0.076106
C290	C	1.717825	0.415475	0.576106
C291	C	1.276373	-0.106857	0.113648
C292	C	1.776373	0.393143	0.613648
C293	C	1.283001	-0.166259	0.121330
C294	C	1.783001	0.333741	0.621330
C295	C	1.231080	-0.203327	0.091469
C296	C	1.731080	0.296673	0.591469
H297	H	1.122561	-0.105059	0.018452
H298	H	1.622561	0.394941	0.518452
H299	H	1.212918	-0.040552	0.070419
H300	H	1.712918	0.459448	0.570419
H301	H	1.314808	-0.079417	0.135754
H302	H	1.814808	0.420583	0.635754
H303	H	1.326344	-0.182793	0.149123
H304	H	1.826344	0.317207	0.649123
H305	H	1.235987	-0.247300	0.097156
H306	H	1.735987	0.252700	0.597156
C307	C	0.627791	-0.149405	-0.279342
C308	C	1.127791	0.350595	0.220658
C309	C	0.572974	-0.104976	-0.291345
C310	C	1.072974	0.395024	0.208655
C311	C	0.602177	-0.050461	-0.306111
C312	C	1.102177	0.449539	0.193889
C313	C	0.686196	-0.040376	-0.308875
C314	C	1.186196	0.459624	0.191125
C315	C	0.741019	-0.084807	-0.296871
C316	C	1.241019	0.415193	0.203129
C317	C	0.711816	-0.139321	-0.282105
C318	C	1.211816	0.360679	0.217895
H319	H	0.510773	-0.112440	-0.289300
H320	H	1.010773	0.387560	0.210700
H321	H	0.561593	-0.017571	-0.314997
H322	H	1.061593	0.482429	0.185003
H323	H	0.707814	-0.000021	-0.319805
H324	H	1.207814	0.499979	0.180195
H325	H	0.803220	-0.077342	-0.298917
H326	H	1.303220	0.422658	0.201083
H327	H	0.752399	-0.172211	-0.273220
H328	H	1.252399	0.327789	0.226780
C329	C	0.519966	-0.224278	-0.353913
C330	C	1.019966	0.275722	0.146087
C331	C	0.471186	-0.175524	-0.361028
C332	C	0.971186	0.324476	0.138972
C333	C	0.441926	-0.160924	-0.415536
C334	C	0.941926	0.339076	0.084464
C335	C	0.461446	-0.195080	-0.462929
C336	C	0.961446	0.304920	0.037071
C337	C	0.510230	-0.243838	-0.455815
C338	C	1.010230	0.256162	0.044185
C339	C	0.539489	-0.258437	-0.401307
C340	C	1.039489	0.241563	0.098693
H341	H	0.456733	-0.150237	-0.325944
H342	H	0.956733	0.349763	0.174056
H343	H	0.405813	-0.124830	-0.420802
H344	H	0.905813	0.375170	0.079198
H345	H	0.439786	-0.184273	-0.503279
H346	H	0.939786	0.315727	-0.003279
H347	H	0.524682	-0.269125	-0.490899
H348	H	1.024682	0.230875	0.009101
H349	H	0.575602	-0.294531	-0.396041
H350	H	1.075602	0.205469	0.103959
C351	C	0.627920	-0.326416	-0.326390
C352	C	1.127920	0.173584	0.173610
C353	C	0.607316	-0.384469	-0.321002
C354	C	1.107316	0.115531	0.178998
C355	C	0.636639	-0.424308	-0.360861
C356	C	1.136639	0.075692	0.139139
C357	C	0.686565	-0.406094	-0.406109
C358	C	1.186565	0.093906	0.093891
C359	C	0.707171	-0.348039	-0.411499
C360	C	1.207171	0.151961	0.088501
C361	C	0.677849	-0.308200	-0.371640
C362	C	1.177849	0.191800	0.128360
H363	H	0.570355	-0.397954	-0.287506
H364	H	1.070355	0.102046	0.212494
H365	H	0.621384	-0.467284	-0.356871
H366	H	1.121384	0.032716	0.143129
H367	H	0.708271	-0.435585	-0.435615
H368	H	1.208271	0.064415	0.064385
H369	H	0.744132	-0.334554	-0.444995
H370	H	1.244132	0.165446	0.055005
H371	H	0.693103	-0.265224	-0.375630
H372	H	1.193103	0.234776	0.124370
C373	C	0.973638	-0.443082	-0.181359
C374	C	1.473638	0.056918	0.318641
C375	C	1.005776	-0.405616	-0.140322
C376	C	1.505776	0.094384	0.359678
C377	C	0.953494	-0.375684	-0.103523
C378	C	1.453494	0.124316	0.396477
C379	C	0.869074	-0.383218	-0.107760
C380	C	1.369074	0.116782	0.392240
C381	C	0.836931	-0.420687	-0.148799
C382	C	1.336931	0.079313	0.351201
C383	C	0.889214	-0.450619	-0.185599
C384	C	1.389214	0.049381	0.314401
H385	H	1.068273	-0.400036	-0.137184
H386	H	1.568273	0.099964	0.362816
H387	H	0.977288	-0.347947	-0.073143
H388	H	1.477288	0.152053	0.426857
H389	H	0.830371	-0.361061	-0.080519
H390	H	1.330371	0.138939	0.419481
H391	H	0.774435	-0.426266	-0.151938
H392	H	1.274435	0.073734	0.348062
H393	H	0.865419	-0.478356	-0.215978
H394	H	1.365419	0.021644	0.284022
H395	H	0.620196	-0.275255	-0.163616
H396	H	1.120196	0.224745	0.336384
C397	C	0.974368	-0.322419	0.054541
C398	C	1.474368	0.177581	0.554541
C399	C	0.889900	-0.318578	0.047104
C400	C	1.389900	0.181422	0.547104
C401	C	0.838020	-0.355599	0.077289
C402	C	1.338020	0.144401	0.577289
C403	C	0.870609	-0.396460	0.114910
C404	C	1.370609	0.103540	0.614910
C405	C	0.955082	-0.400302	0.122349
C406	C	1.455082	0.099698	0.622349
C407	C	1.006961	-0.363282	0.092164
C408	C	1.506961	0.136718	0.592164
H409	H	0.865771	-0.288329	0.019253
H410	H	1.365771	0.211671	0.519253
H411	H	0.775488	-0.352754	0.071782
H412	H	1.275488	0.147246	0.571782
H413	H	0.832205	-0.423865	0.137254
H414	H	1.332205	0.076135	0.637254
H415	H	0.979210	-0.430552	0.150200
H416	H	1.479210	0.069448	0.650200
H417	H	1.069494	-0.366127	0.097671
H418	H	1.569494	0.133873	0.597671
C419	C	1.173194	-0.442668	-0.321886
C420	C	1.673194	0.057332	0.178114
C421	C	1.225462	-0.472594	-0.358697
C422	C	1.725462	0.027406	0.141303
C423	C	1.277713	-0.442457	-0.395500
C424	C	1.777713	0.057543	0.104500
C425	C	1.277697	-0.382396	-0.395493
C426	C	1.777697	0.117604	0.104507
C427	C	1.225428	-0.352467	-0.358681
C428	C	1.725428	0.147533	0.141319
C429	C	1.173177	-0.382603	-0.321877
C430	C	1.673177	0.117397	0.178123
H431	H	1.225475	-0.517058	-0.358703
H432	H	1.725475	-0.017058	0.141297
H433	H	1.316406	-0.464613	-0.422751
H434	H	1.816406	0.035387	0.077249
H435	H	1.316377	-0.360087	-0.422737
H436	H	1.816377	0.139913	0.077263
H437	H	1.225414	-0.308003	-0.358674
H438	H	1.725414	0.191997	0.141326
H439	H	1.134483	-0.360448	-0.294626
H440	H	1.634483	0.139552	0.205374
H441	H	0.987263	-0.549922	-0.190932
H442	H	1.487263	-0.049922	0.309068
H443	H	1.207276	-0.800624	-0.345859
H444	H	1.707276	-0.300624	0.154141
H445	H	1.159876	-1.051912	-0.312439
H446	H	1.659876	-0.551912	0.187561
H447	H	0.940823	-0.346251	0.298029
H448	H	1.440823	0.153749	0.798029
H449	H	0.987429	-0.953209	-0.191012
H450	H	1.487429	-0.453209	0.308988
C451	C	0.926253	-0.809002	-0.147981
C452	C	1.426253	-0.309002	0.352019
C453	C	0.932261	-0.801620	-0.088545
C454	C	1.432261	-0.301620	0.411455
C455	C	0.879985	-0.831745	-0.051749
C456	C	1.379985	-0.331745	0.448251
C457	C	0.821701	-0.869252	-0.074390
C458	C	1.321701	-0.369252	0.425610
C459	C	0.815690	-0.876636	-0.133830
C460	C	1.315690	-0.376636	0.366170
C461	C	0.867966	-0.846511	-0.170625
C462	C	1.367966	-0.346511	0.329375
H463	H	0.975409	-0.773853	-0.071782
H464	H	1.475409	-0.273853	0.428218
H465	H	0.884435	-0.826278	-0.007748
H466	H	1.384435	-0.326278	0.492252
H467	H	0.783003	-0.891552	-0.047152
H468	H	1.283003	-0.391552	0.452848
H469	H	0.772543	-0.904403	-0.150592
H470	H	1.272543	-0.404403	0.349408
H471	H	0.863516	-0.851978	-0.214626
H472	H	1.363516	-0.351978	0.285374
H473	H	0.987780	-0.312888	-0.052352
H474	H	1.487780	0.187112	0.447648
C475	C	0.974679	-0.322120	0.442214
C476	C	1.474679	0.177880	0.942214
C477	C	0.981328	-0.381520	0.449882
C478	C	1.481328	0.118480	0.949882
C479	C	0.929432	-0.418592	0.420004
C480	C	1.429432	0.081408	0.920004
C481	C	0.870887	-0.396264	0.382457
C482	C	1.370887	0.103736	0.882457
C483	C	0.864236	-0.336862	0.374787
C484	C	1.364236	0.163138	0.874787
C485	C	0.916132	-0.299790	0.404665
C486	C	1.416132	0.200210	0.904665
H487	H	1.024669	-0.398050	0.477679
H488	H	1.524669	0.101950	0.977679
H489	H	0.934356	-0.462565	0.425683
H490	H	1.434356	0.037435	0.925683
H491	H	0.832471	-0.423707	0.360340
H492	H	1.332471	0.076293	0.860340
H493	H	0.820896	-0.320331	0.346991
H494	H	1.320896	0.179669	0.846991
H495	H	0.911208	-0.255816	0.398986
H496	H	1.411208	0.244184	0.898986
H497	H	0.940758	-0.346341	0.198979
H498	H	1.440758	0.153659	0.698979
