data_functionalizedCrystal
_audit_creation_method	'MofGen! by Chris Wilmer'
_symmetry_space_group_name_H-M	'P1'
_symmetry_Int_Tables_number	1
_symmetry_cell_setting	triclinic
loop_
_symmetry_equiv_pos_as_xyz
  x,y,z
_cell_length_a	19.288840
_cell_length_b	27.731996
_cell_length_c	17.766277
_cell_angle_alpha	90.007494
_cell_angle_beta	90.013814
_cell_angle_gamma	82.873701
loop_
_atom_site_label
_atom_site_type_symbol
_atom_site_fract_x
_atom_site_fract_y
_atom_site_fract_z
O1	O	0.920970	0.060241	0.062730
O2	O	1.420970	0.560241	0.562730
O3	O	0.718654	0.068388	0.062705
O4	O	1.218654	0.568388	0.562705
O5	O	0.826114	-0.006066	0.062702
O6	O	1.326114	0.493934	0.562702
O7	O	0.813510	0.134694	0.062733
O8	O	1.313510	0.634694	0.562733
O9	O	0.826100	-0.006063	-0.062487
O10	O	1.326100	0.493937	0.437513
O11	O	0.718640	0.068390	-0.062484
O12	O	1.218640	0.568390	0.437516
O13	O	0.920956	0.060243	-0.062459
O14	O	1.420956	0.560243	0.437541
Cu15	Cu	0.819796	0.064317	-0.073902
Cu16	Cu	1.319796	0.564317	0.426098
Cu17	Cu	0.819813	0.064314	0.074148
Cu18	Cu	1.319813	0.564314	0.574148
O19	O	0.813495	0.134697	-0.062456
O20	O	1.313495	0.634697	0.437544
C21	C	0.692772	0.068129	0.000107
C22	C	1.192772	0.568129	0.500107
C23	C	0.615672	0.067348	0.000097
C24	C	1.115672	0.567348	0.500097
C25	C	0.579479	0.066971	0.068339
C26	C	1.079479	0.566971	0.568339
C27	C	0.507037	0.066232	0.068348
C28	C	1.007037	0.566232	0.568348
C29	C	0.470793	0.065860	0.000111
C30	C	0.970793	0.565860	0.500111
C31	C	0.506994	0.066240	-0.068140
C32	C	1.006994	0.566240	0.431860
C33	C	0.579434	0.066983	-0.068147
C34	C	1.079434	0.566983	0.431853
C35	C	0.361651	0.036369	-0.052164
C36	C	0.861651	0.536369	0.447836
C37	C	0.289213	0.035622	-0.052154
C38	C	0.789213	0.535622	0.447846
C39	C	0.247364	0.063568	0.000130
C40	C	0.747364	0.563568	0.500130
C41	C	0.277963	0.092254	0.052417
C42	C	0.777963	0.592254	0.552417
C43	C	0.350403	0.092998	0.052410
C44	C	0.850403	0.592998	0.552410
C45	C	0.392244	0.065054	0.000111
C46	C	0.892244	0.565054	0.500111
C47	C	0.132621	0.062390	0.068387
C48	C	0.632621	0.562390	0.568387
C49	C	0.060177	0.061654	0.068393
C50	C	0.560177	0.561654	0.568393
C51	C	0.060136	0.061657	-0.068097
C52	C	0.560136	0.561657	0.431903
C53	C	0.132578	0.062397	-0.068101
C54	C	0.632578	0.562397	0.431899
C55	C	0.168816	0.062762	0.000143
C56	C	0.668816	0.562762	0.500143
C57	C	0.825848	-0.024073	0.000105
C58	C	1.325848	0.475927	0.500105
C59	C	0.825068	-0.077731	0.000097
C60	C	1.325068	0.422269	0.500097
C61	C	0.820169	-0.410463	0.068374
C62	C	1.320169	0.089537	0.568374
C63	C	0.817208	-0.612130	0.068386
C64	C	1.317208	-0.112130	0.568386
O65	O	0.816801	-0.638204	0.126423
O66	O	1.316801	-0.138204	0.626423
N67	N	0.816832	-0.637347	0.000147
N68	N	1.316832	-0.137347	0.500147
C69	C	0.817192	-0.612144	-0.068101
C70	C	1.317192	-0.112144	0.431899
O71	O	0.816798	-0.638219	-0.126143
O72	O	1.316798	-0.138219	0.373857
C73	C	0.820149	-0.410477	-0.068113
C74	C	1.320149	0.089523	0.431887
C75	C	0.820532	-0.385264	0.000131
C76	C	1.320532	0.114736	0.500131
C77	C	0.820551	-0.385250	0.136612
C78	C	1.320551	0.114750	0.636612
C79	C	0.821295	-0.334836	0.136608
C80	C	1.321295	0.165164	0.636608
C81	C	0.821658	-0.309637	0.068366
C82	C	1.321658	0.190363	0.568366
C83	C	0.821276	-0.334850	0.000127
C84	C	1.321276	0.165150	0.500127
C85	C	0.820504	-0.385274	-0.136360
C86	C	1.320504	0.114726	0.363640
C87	C	0.821242	-0.334854	-0.136357
C88	C	1.321242	0.165146	0.363643
C89	C	0.821624	-0.309641	-0.068113
C90	C	1.321624	0.190359	0.431887
C91	C	0.822382	-0.259237	-0.068119
C92	C	1.322382	0.240763	0.431881
N93	N	0.822758	-0.234020	0.000120
N94	N	1.322758	0.265980	0.500120
C95	C	0.822395	-0.259220	0.068363
C96	C	1.322395	0.240780	0.568363
C97	C	0.815641	-0.718022	-0.068090
C98	C	1.315641	-0.218022	0.431910
C99	C	0.814904	-0.768438	-0.068087
C100	C	1.314904	-0.268438	0.431913
C101	C	0.814918	-0.768421	0.068401
C102	C	1.314918	-0.268421	0.568401
C103	C	0.815661	-0.718004	0.068397
C104	C	1.315661	-0.218004	0.568397
C105	C	0.816017	-0.692805	0.000150
C106	C	1.316017	-0.192805	0.500150
C107	C	0.823959	-0.153348	0.068350
C108	C	1.323959	0.346652	0.568350
C109	C	0.824706	-0.102931	0.068340
C110	C	1.324706	0.397069	0.568340
C111	C	0.824688	-0.102952	-0.068148
C112	C	1.324688	0.397048	0.431852
C113	C	0.823945	-0.153365	-0.068138
C114	C	1.323945	0.346635	0.431862
C115	C	0.823578	-0.178562	0.000117
C116	C	1.323578	0.321438	0.500117
O117	O	0.822781	-0.233132	-0.126125
O118	O	1.322781	0.266868	0.373875
O119	O	0.822775	-0.233135	0.126396
O120	O	1.322775	0.266865	0.626396
C121	C	0.819425	-0.460877	0.068377
C122	C	1.319425	0.039123	0.568377
C123	C	0.819043	-0.486090	0.000139
C124	C	1.319043	0.013910	0.500139
C125	C	0.819405	-0.460891	-0.068104
C126	C	1.319405	0.039109	0.431896
C127	C	0.818305	-0.536507	0.000142
C128	C	1.318305	-0.036507	0.500142
C129	C	0.817943	-0.561707	0.068384
C130	C	1.317943	-0.061707	0.568384
C131	C	0.818319	-0.536490	0.136624
C132	C	1.318319	-0.036490	0.636624
C133	C	0.819063	-0.486077	0.136620
C134	C	1.319063	0.013923	0.636620
C135	C	0.819030	-0.486107	-0.136343
C136	C	1.319030	0.013893	0.363657
C137	C	0.818287	-0.536521	-0.136334
C138	C	1.318287	-0.036521	0.363666
C139	C	0.817924	-0.561721	-0.068091
C140	C	1.317924	-0.061721	0.431909
C141	C	0.946838	0.060502	0.000140
C142	C	1.446838	0.560502	0.500140
C143	C	1.023937	0.061283	0.000156
C144	C	1.523937	0.561283	0.500156
C145	C	0.813761	0.152703	0.000143
C146	C	1.313761	0.652703	0.500143
C147	C	0.814541	0.206362	0.000155
C148	C	1.314541	0.706362	0.500155
N149	N	0.819790	0.064319	-0.178032
N150	N	1.319790	0.564319	0.321968
C151	C	0.861629	0.093544	-0.782308
C152	C	1.361629	0.593544	-0.282308
C153	C	0.861622	0.093549	-0.703506
C154	C	1.361622	0.593549	-0.203506
C155	C	0.819820	0.064309	-0.664121
C156	C	1.319820	0.564309	-0.164121
C157	C	0.778008	0.035071	-0.703544
C158	C	1.278008	0.535071	-0.203544
C159	C	0.778011	0.035070	-0.782345
C160	C	1.278011	0.535070	-0.282345
C161	C	0.818377	0.020726	-0.539287
C162	C	1.318377	0.520726	-0.039287
C163	C	0.818379	0.020726	-0.460489
C164	C	1.318379	0.520726	0.039511
C165	C	0.819807	0.064310	-0.421075
C166	C	1.319807	0.564310	0.078925
C167	C	0.821247	0.107895	-0.460470
C168	C	1.321247	0.607895	0.039530
C169	C	0.821250	0.107895	-0.539270
C170	C	1.321250	0.607895	-0.039270
C171	C	0.819812	0.064306	-0.578675
C172	C	1.319812	0.564306	-0.078675
C173	C	0.861605	0.093553	-0.296215
C174	C	1.361605	0.593553	0.203785
C175	C	0.861593	0.093559	-0.217412
C176	C	1.361593	0.593559	0.282588
C177	C	0.777983	0.035076	-0.217452
C178	C	1.277983	0.535076	0.282548
C179	C	0.777991	0.035075	-0.296253
C180	C	1.277991	0.535075	0.203747
C181	C	0.819806	0.064313	-0.335630
C182	C	1.319806	0.564313	0.164370
N183	N	0.819826	0.064308	0.178278
N184	N	1.319826	0.564308	0.678278
H185	H	0.030627	0.061356	-0.123657
H186	H	0.530627	0.561356	0.376343
H187	H	0.895662	0.117359	-0.671409
H188	H	1.395662	0.617359	-0.171409
F189	F	0.821621	-0.308038	-0.208997
F190	F	1.321621	0.191962	0.291003
H191	H	0.817211	-0.014765	-0.428419
H192	H	1.317211	0.485235	0.071581
H193	H	0.895676	0.117353	-0.814364
H194	H	1.395676	0.617353	-0.314364
H195	H	0.815971	-0.697479	0.123968
H196	H	1.315971	-0.197479	0.623968
H197	H	0.822421	0.143384	-0.571342
H198	H	1.322421	0.643384	-0.071342
H199	H	0.819374	-0.465552	0.192191
H200	H	1.319374	0.034448	0.692191
H201	H	0.743969	0.011262	-0.814435
H202	H	1.243969	0.511262	-0.314435
F203	F	0.233429	0.121999	0.108064
F204	F	0.733429	0.621999	0.608064
H205	H	0.743954	0.011265	-0.328344
H206	H	1.243954	0.511265	0.171656
F207	F	0.820165	-0.412062	0.209252
F208	F	1.320165	0.087938	0.709252
F209	F	0.822770	0.154284	-0.418529
F210	F	1.322770	0.654284	0.081471
H211	H	0.817980	-0.557046	-0.191911
H212	H	1.317980	-0.057046	0.308089
F213	F	0.906104	0.124672	-0.338126
F214	F	1.406104	0.624672	0.161874
H215	H	0.819326	-0.465595	-0.191916
H216	H	1.319326	0.034405	0.308084
F217	F	0.171100	0.062796	-0.140735
F218	F	0.671100	0.562796	0.359265
F219	F	0.256653	0.005101	-0.107813
F220	F	0.756653	0.505101	0.392187
H221	H	0.814623	-0.788948	0.123966
H222	H	1.314623	-0.288948	0.623966
F223	F	0.814509	-0.795268	-0.140722
F224	F	1.314509	-0.295268	0.359278
H225	H	0.030709	0.061351	0.123966
H226	H	0.530709	0.561351	0.623966
H227	H	0.743971	0.011264	-0.671472
H228	H	1.243971	0.511264	-0.171472
F229	F	0.406184	0.006625	-0.107817
F230	F	0.906184	0.506625	0.392183
H231	H	0.477479	0.065938	-0.123699
H232	H	0.977479	0.565938	0.376301
H233	H	0.818027	-0.557017	0.192189
H234	H	1.318027	-0.057017	0.692189
H235	H	0.608902	0.067291	-0.123720
H236	H	1.108902	0.567291	0.376280
H237	H	0.477562	0.065926	0.123921
H238	H	0.977562	0.565926	0.623921
H239	H	0.817208	-0.014767	-0.571371
H240	H	1.317208	0.485233	-0.071371
F241	F	0.823550	-0.180202	-0.140771
F242	F	1.323550	0.319798	0.359229
F243	F	0.820094	-0.412097	-0.208996
F244	F	1.320094	0.087903	0.291004
F245	F	0.821698	-0.308008	0.209244
F246	F	1.321698	0.191992	0.709244
H247	H	0.815935	-0.697509	-0.123668
H248	H	1.315935	-0.197509	0.376332
F249	F	0.825075	-0.076124	-0.140772
F250	F	1.325075	0.423876	0.359228
F251	F	0.906075	0.124687	-0.175465
F252	F	1.406075	0.624687	0.324535
F253	F	0.825115	-0.076100	0.140977
F254	F	1.325115	0.423900	0.640977
H255	H	0.743943	0.011271	-0.185385
H256	H	1.243943	0.511271	0.314615
H257	H	0.608980	0.067268	0.123909
H258	H	1.108980	0.567268	0.623909
F259	F	0.823568	-0.180158	0.140994
F260	F	1.323568	0.319842	0.640994
H261	H	0.162126	0.062692	0.123955
H262	H	0.662126	0.562692	0.623955
F263	F	0.382965	0.123528	0.108054
F264	F	0.882965	0.623528	0.608054
