data_functionalizedCrystal
_audit_creation_method	'MofGen! by Chris Wilmer'
_symmetry_space_group_name_H-M	'P1'
_symmetry_Int_Tables_number	1
_symmetry_cell_setting	triclinic
loop_
_symmetry_equiv_pos_as_xyz
  x,y,z
_cell_length_a	10.489763
_cell_length_b	11.792241
_cell_length_c	10.868271
_cell_angle_alpha	90.000150
_cell_angle_beta	89.997594
_cell_angle_gamma	95.629112
loop_
_atom_site_label
_atom_site_type_symbol
_atom_site_fract_x
_atom_site_fract_y
_atom_site_fract_z
O1	O	-1.693491	0.160259	0.102254
O2	O	-1.322247	0.175263	0.102267
O3	O	-1.516878	0.002616	0.102267
O4	O	-1.498860	0.332907	0.102253
O5	O	-1.516862	0.002609	-0.102377
O6	O	-1.322231	0.175257	-0.102378
O7	O	-1.693475	0.160252	-0.102391
Zn8	Zn	-1.507850	0.167753	-0.134876
Zn9	Zn	-1.507872	0.167762	0.134752
O10	O	-1.498844	0.332900	-0.102392
C11	C	-1.274712	0.174121	-0.000054
C12	C	-1.133096	0.170715	-0.000048
C13	C	-1.065331	0.060850	-0.000056
C14	C	-0.973036	0.112743	0.100838
C15	C	-0.973054	0.112763	-0.100925
C16	C	-1.042666	0.222653	0.100930
C17	C	-1.042694	0.222658	-0.100925
C18	C	-0.950426	0.274631	-0.000006
C19	C	-0.741012	0.161376	-0.000071
C20	C	-0.882636	0.164729	-0.000079
C21	C	-1.515738	-0.039682	-0.000051
C22	C	-1.512351	-0.165705	-0.000037
C23	C	-1.499984	0.375197	-0.000071
C24	C	-1.503371	0.501220	-0.000077
N25	N	-1.507845	0.167746	-0.318890
C26	C	-1.509601	0.731950	-0.000046
C27	C	-1.506140	0.603555	-0.000063
C28	C	-1.507865	0.167760	-0.569896
C29	C	-1.507850	0.167756	-0.430219
N30	N	-1.507887	0.167760	0.318766
H31	H	-0.942228	0.066254	-0.186225
C32	C	-1.132826	-0.061169	0.000086
N33	N	-1.183666	-0.153072	0.000199
H34	H	-0.942187	0.066260	0.186143
H35	H	-1.073342	0.269106	0.186326
H36	H	-1.073574	0.269103	-0.186234
H37	H	-0.900695	0.365034	0.000045
