data_functionalizedCrystal
_audit_creation_method	'MofGen! by Chris Wilmer'
_symmetry_space_group_name_H-M	'P1'
_symmetry_Int_Tables_number	1
_symmetry_cell_setting	triclinic
loop_
_symmetry_equiv_pos_as_xyz
  x,y,z
_cell_length_a	14.519709
_cell_length_b	14.519709
_cell_length_c	7.681481
_cell_angle_alpha	84.246308
_cell_angle_beta	95.739713
_cell_angle_gamma	83.680145
loop_
_atom_site_label
_atom_site_type_symbol
_atom_site_fract_x
_atom_site_fract_y
_atom_site_fract_z
O1	O	1.215175	0.129595	-0.146206
O2	O	0.946695	0.143835	-0.146260
O3	O	1.088055	0.002475	-0.146216
O4	O	1.073816	0.270954	-0.146250
O5	O	1.105453	-0.014963	0.146647
O6	O	0.964094	0.126396	0.146603
O7	O	1.232574	0.112156	0.146657
Zn8	Zn	1.101097	0.116508	0.193128
Zn9	Zn	1.078173	0.139483	-0.192732
O10	O	1.091215	0.253516	0.146613
C11	C	0.921034	0.134452	0.000164
C12	C	0.818652	0.132465	0.000144
C13	C	0.443761	0.125141	0.000225
C14	C	0.548068	0.127175	0.000202
C15	C	0.631203	0.128803	0.000183
C16	C	0.735516	0.130837	0.000163
C17	C	1.096091	-0.040604	0.000216
C18	C	1.094102	-0.142985	0.000216
C19	C	1.086780	-0.517878	0.000169
C20	C	1.088813	-0.413571	0.000183
C21	C	1.090441	-0.330435	0.000194
C22	C	1.092475	-0.226121	0.000205
C23	C	1.258235	0.121539	0.000228
C24	C	1.360616	0.123527	0.000237
C25	C	1.083179	0.296595	0.000177
C26	C	1.085166	0.398977	0.000165
N27	N	1.116748	0.100827	0.456468
N28	N	1.062528	0.155157	-0.456071
H29	H	1.007181	0.210612	0.468715
H30	H	1.172106	0.045374	0.531691
