data_functionalizedCrystal
_audit_creation_method	'MofGen! by Chris Wilmer'
_symmetry_space_group_name_H-M	'P1'
_symmetry_Int_Tables_number	1
_symmetry_cell_setting	triclinic
loop_
_symmetry_equiv_pos_as_xyz
  x,y,z
_cell_length_a	16.992694
_cell_length_b	8.559649
_cell_length_c	15.455313
_cell_angle_alpha	92.289439
_cell_angle_beta	87.142206
_cell_angle_gamma	80.223444
loop_
_atom_site_label
_atom_site_type_symbol
_atom_site_fract_x
_atom_site_fract_y
_atom_site_fract_z
O1	O	1.023967	0.329735	-0.072017
O2	O	0.795905	0.326044	-0.072043
O3	O	0.930028	0.097853	-0.072027
O4	O	0.889844	0.557925	-0.072033
O5	O	0.922362	0.110845	0.072234
O6	O	0.788239	0.339035	0.072218
O7	O	1.016301	0.342726	0.072244
Cu8	Cu	0.901570	0.342067	0.085403
Cu9	Cu	0.910636	0.326703	-0.085202
O10	O	0.882177	0.570917	0.072228
C11	C	0.763145	0.327794	0.000084
C12	C	0.676954	0.313635	0.000075
C13	C	0.618488	0.450242	0.000073
C14	C	0.537502	0.436931	0.000086
C15	C	0.514985	0.287010	0.000093
C16	C	0.573459	0.150392	0.000096
C17	C	0.654442	0.163706	0.000090
C18	C	0.274709	0.231831	0.000117
C19	C	0.193718	0.218527	0.000120
C20	C	0.157767	0.505067	0.000111
C21	C	0.238755	0.518367	0.000099
C22	C	0.297221	0.381750	0.000108
N23	N	0.432205	0.273400	0.000102
N24	N	0.379998	0.395362	0.000104
C25	C	0.929241	0.045208	0.000102
C26	C	0.938306	-0.131015	0.000099
C27	C	1.049061	0.340976	0.000115
C28	C	1.135252	0.355134	0.000119
C29	C	0.882965	0.623562	0.000097
C30	C	0.873900	0.799784	0.000095
N31	N	0.895199	0.352873	0.205398
N32	N	0.917014	0.315885	-0.205197
C33	C	0.952194	0.255970	0.250799
C34	C	0.947382	0.264158	0.341606
C35	C	0.885578	0.369258	0.387011
C36	C	0.828576	0.466164	0.341604
C37	C	0.833386	0.457968	0.250798
C38	C	0.864822	0.404595	0.658590
C39	C	0.860018	0.412788	0.749402
C40	C	0.978824	0.210778	0.749398
C41	C	0.983631	0.202598	0.658591
C42	C	0.926627	0.299499	0.613191
N43	N	0.880659	0.377633	0.479831
N44	N	0.931543	0.291114	0.520373
H45	H	0.702046	0.052465	0.000091
C46	C	0.643249	0.615157	0.000065
H47	H	0.596826	0.694608	0.000074
H48	H	0.676759	0.621779	-0.050244
H49	H	0.671426	0.630837	0.050377
H50	H	0.555118	0.028324	0.000115
C51	C	0.760571	0.581724	0.391542
H52	H	0.727305	0.638237	0.351495
H53	H	0.782679	0.654555	0.426970
H54	H	0.729756	0.523649	0.426960
C55	C	0.473192	0.587199	0.000081
H56	H	0.498202	0.678391	0.000065
H57	H	0.438187	0.592503	0.050391
H58	H	0.443520	0.583424	-0.050229
H59	H	0.322303	0.120586	0.000124
C60	C	1.022171	-0.233093	0.000113
H61	H	1.061360	-0.166049	0.000120
H62	H	1.031123	-0.302638	-0.050189
H63	H	1.025773	-0.293552	0.050432
H64	H	0.809687	0.498379	0.786366
C65	C	0.790041	-0.098138	0.000077
H66	H	0.794745	0.010884	0.000066
H67	H	0.759145	-0.116611	0.050380
H68	H	0.764502	-0.125690	-0.050241
C69	C	0.263517	0.683281	0.000104
H70	H	0.217096	0.762736	0.000115
H71	H	0.297030	0.689908	-0.050202
H72	H	0.291692	0.698950	0.050418
H73	H	1.002525	0.170394	0.213836
H74	H	0.993792	0.185251	0.378571
C75	C	1.051612	0.086978	0.608652
H76	H	1.084864	0.030427	0.648697
H77	H	1.082439	0.144992	0.573217
H78	H	1.029470	0.014162	0.573240
H79	H	1.025233	0.131884	0.786371
C80	C	0.802126	0.511197	0.608662
H81	H	0.764636	0.574975	0.648711
H82	H	0.775048	0.446792	0.573248
H83	H	0.828017	0.577621	0.573231
C84	C	0.770694	0.564561	0.200853
H85	H	0.782405	0.544617	0.140270
H86	H	0.771977	0.672822	0.215723
H87	H	0.719017	0.541977	0.215745
C88	C	0.093455	0.655332	0.000113
H89	H	0.041998	0.625938	0.000125
H90	H	0.102005	0.711855	-0.050194
H91	H	0.096677	0.720902	0.050426
H92	H	0.175390	0.096437	0.000125
