data_functionalizedCrystal
_audit_creation_method	'MofGen! by Chris Wilmer'
_symmetry_space_group_name_H-M	'P1'
_symmetry_Int_Tables_number	1
_symmetry_cell_setting	triclinic
loop_
_symmetry_equiv_pos_as_xyz
  x,y,z
_cell_length_a	16.120530
_cell_length_b	25.639240
_cell_length_c	25.639234
_cell_angle_alpha	89.973027
_cell_angle_beta	92.917284
_cell_angle_gamma	92.861579
loop_
_atom_site_label
_atom_site_type_symbol
_atom_site_fract_x
_atom_site_fract_y
_atom_site_fract_z
Zn1	Zn	1.274419	0.248768	0.336087
Zn2	Zn	1.274268	0.336192	0.248643
Zn3	Zn	1.135002	0.244337	0.244237
Zn4	Zn	1.134921	0.331732	0.331621
O5	O	1.204652	0.290257	0.290147
O6	O	1.391062	0.264086	0.328201
O7	O	1.255765	0.324019	0.174893
O8	O	1.153592	0.171763	0.256445
O9	O	1.390952	0.328316	0.263956
O10	O	1.256021	0.175018	0.323928
O11	O	1.153447	0.256534	0.171655
O12	O	1.018327	0.252209	0.252115
O13	O	1.153454	0.320715	0.405380
O14	O	1.018268	0.316418	0.316316
O15	O	1.255943	0.259762	0.408661
O16	O	1.255687	0.408762	0.259626
O17	O	1.153309	0.405486	0.320589
C18	C	0.988048	0.283349	0.283253
C19	C	0.895383	0.280406	0.280316
C20	C	0.725725	0.275022	0.274959
C21	C	0.684420	0.305531	0.305373
C22	C	0.590016	0.302535	0.302392
C23	C	0.820137	0.278017	0.277939
C24	C	1.204495	0.426095	0.290113
C25	C	1.204504	0.484209	0.290119
C26	C	1.258030	0.846273	0.258443
C27	C	1.258056	0.900878	0.258448
O28	O	1.303455	0.930557	0.231496
N29	N	1.204719	0.926498	0.290161
C30	C	1.151360	0.897511	0.321873
O31	O	1.105996	0.924318	0.348848
C32	C	1.151339	0.842907	0.321870
C33	C	1.204673	0.817289	0.290151
C34	C	1.311361	0.820655	0.226727
C35	C	1.311334	0.766053	0.226721
C36	C	1.257977	0.737070	0.258430
C37	C	1.204647	0.762688	0.290145
C38	C	1.097985	0.813921	0.353585
C39	C	1.097969	0.759314	0.353579
C40	C	1.151303	0.733696	0.321861
C41	C	1.151263	0.679103	0.321848
N42	N	1.204599	0.653483	0.290135
C43	C	1.257956	0.682466	0.258426
C44	C	1.151409	1.012183	0.321879
C45	C	1.151424	1.066786	0.321880
C46	C	1.258122	1.070149	0.258455
C47	C	1.258101	1.015545	0.258452
C48	C	1.204745	0.986563	0.290166
C49	C	1.257895	0.567799	0.258415
C50	C	1.257861	0.513192	0.258410
C51	C	1.151167	0.509835	0.321836
C52	C	1.151198	0.564436	0.321839
C53	C	1.204569	0.593417	0.290127
O54	O	1.105889	0.649390	0.348787
O55	O	1.303320	0.655653	0.231461
C56	C	1.422103	0.297193	0.297068
C57	C	1.514767	0.300148	0.300017
C58	C	1.204706	0.290235	0.426522
C59	C	1.204730	0.290226	0.484637
C60	C	1.204801	1.153889	0.290183
C61	C	1.204785	1.095774	0.290173
C62	C	1.204646	0.290243	0.154304
C63	C	1.204785	0.290110	0.096195
C64	C	1.151476	0.255025	0.843320
C65	C	1.151480	0.255015	0.897925
O66	O	1.106160	0.225142	0.924732
N67	N	1.204757	0.290145	0.926920
C68	C	1.258027	0.325289	0.901308
O69	O	1.303343	0.355169	0.930985
C70	C	1.258018	0.325301	0.846704
C71	C	1.204743	0.290165	0.817712
C72	C	1.098205	0.219893	0.814328
C73	C	1.098202	0.219902	0.759727
C74	C	1.151469	0.255042	0.734119
C75	C	1.204740	0.290174	0.763111
C76	C	1.311283	0.360447	0.821093
C77	C	1.311269	0.360456	0.766486
C78	C	1.257994	0.325321	0.737493
C79	C	1.258005	0.325324	0.682902
N80	N	1.204728	0.290194	0.653907
C81	C	1.151460	0.255054	0.679515
C82	C	1.258042	0.325263	1.015979
C83	C	1.258056	0.325250	1.070582
C84	C	1.151508	0.254976	1.067195
C85	C	1.151498	0.254988	1.012591
C86	C	1.204765	0.290134	0.986984
C87	C	1.151458	0.255075	0.564850
C88	C	1.151462	0.255085	0.510245
C89	C	1.258007	0.325360	0.513637
C90	C	1.258006	0.325348	0.568237
C91	C	1.204725	0.290203	0.593842
O92	O	1.303300	0.355183	0.656060
O93	O	1.106144	0.225184	0.649832
H94	H	0.690189	0.246654	0.246684
H95	H	1.301378	0.353969	0.492777
H96	H	1.108134	0.226363	1.088055
H97	H	0.719959	0.333901	0.333651
H98	H	1.301292	0.492336	0.232579
C99	C	1.092851	0.216410	0.593008
N100	N	1.048713	0.187286	0.614216
H101	H	1.054817	0.191293	0.736126
H102	H	1.301357	0.591389	0.232593
C103	C	1.316669	0.363897	1.102468
N104	N	1.360814	0.393010	1.126483
C105	C	1.092481	0.477943	0.356716
N106	N	1.048283	0.453920	0.382992
C107	C	1.092887	0.216340	0.980704
N108	N	1.048737	0.187230	0.956689
H109	H	1.054824	0.191276	0.835172
H110	H	1.054521	0.735719	0.379406
C111	C	1.369999	0.737881	0.191823
N112	N	1.414187	0.716664	0.165535
H113	H	1.354815	0.844247	0.200906
H114	H	1.301428	0.353880	0.995134
C115	C	1.316775	0.987371	0.223561
N116	N	1.360971	0.966152	0.197281
H117	H	1.301571	1.093757	0.232638
H118	H	1.107987	1.087639	0.347703
H119	H	1.108079	0.226471	0.486641
H120	H	1.354664	0.389058	0.844690
C121	C	1.092712	0.980308	0.356772
N122	N	1.048507	0.956302	0.383056
C123	C	1.039314	0.842089	0.388480
N124	N	0.995122	0.863304	0.414766
H125	H	1.107772	0.585295	0.347669
C126	C	1.316615	0.363995	0.600130
N127	N	1.360755	0.393109	0.624148
C128	C	1.369873	0.399117	0.738322
N129	N	1.414017	0.428235	0.717109
