data_functionalizedCrystal
_audit_creation_method	'MofGen! by Chris Wilmer'
_symmetry_space_group_name_H-M	'P1'
_symmetry_Int_Tables_number	1
_symmetry_cell_setting	triclinic
loop_
_symmetry_equiv_pos_as_xyz
  x,y,z
_cell_length_a	13.897449
_cell_length_b	21.295417
_cell_length_c	21.295420
_cell_angle_alpha	90.015173
_cell_angle_beta	90.006517
_cell_angle_gamma	90.031786
loop_
_atom_site_label
_atom_site_type_symbol
_atom_site_fract_x
_atom_site_fract_y
_atom_site_fract_z
Zn1	Zn	1.474481	-0.250700	0.355891
Zn2	Zn	1.974481	0.249300	0.855891
Zn3	Zn	1.474379	-0.355940	0.250617
Zn4	Zn	1.974379	0.144060	0.750617
Zn5	Zn	1.313210	-0.250691	0.250639
Zn6	Zn	1.813210	0.249309	0.750639
Zn7	Zn	1.313116	-0.355937	0.355851
Zn8	Zn	1.813116	0.144063	0.855851
O9	O	1.393797	-0.303317	0.303249
O10	O	1.893797	0.196683	0.803249
O11	O	1.609449	-0.264665	0.341935
O12	O	2.109449	0.235335	0.841935
O13	O	1.452997	-0.341975	0.162530
O14	O	1.952997	0.158025	0.662530
O15	O	1.334686	-0.162602	0.264627
O16	O	1.834686	0.337398	0.764627
O17	O	1.609374	-0.341984	0.264590
O18	O	2.109374	0.158016	0.764590
O19	O	1.453171	-0.162609	0.341956
O20	O	1.953171	0.337391	0.841956
O21	O	1.334587	-0.264649	0.162546
O22	O	1.834587	0.235351	0.662546
O23	O	1.178216	-0.264647	0.264587
O24	O	1.678216	0.235353	0.764587
O25	O	1.334525	-0.341980	0.443946
O26	O	1.834525	0.158020	0.943946
O27	O	1.178147	-0.341971	0.341886
O28	O	1.678147	0.158029	0.841886
O29	O	1.453079	-0.264663	0.443975
O30	O	1.953079	0.235337	0.943975
O31	O	1.452905	-0.444029	0.264550
O32	O	1.952905	0.055971	0.764550
O33	O	1.334426	-0.444027	0.341865
O34	O	1.834426	0.055973	0.841865
C35	C	1.143182	-0.303308	0.303235
C36	C	1.643182	0.196692	0.803235
C37	C	1.035969	-0.303320	0.303244
C38	C	1.535969	0.196680	0.803244
C39	C	0.839673	-0.303322	0.303260
C40	C	1.339673	0.196678	0.803260
C41	C	0.948906	-0.303319	0.303249
C42	C	1.448906	0.196681	0.803249
C43	C	1.393670	-0.466868	0.303215
C44	C	1.893670	0.033132	0.803215
C45	C	1.393704	-0.536837	0.303221
C46	C	1.893704	-0.036837	0.803221
C47	C	1.455451	-0.569683	0.263004
C48	C	1.955451	-0.069683	0.763004
C49	C	1.455497	-0.635426	0.263018
C50	C	1.955497	-0.135426	0.763018
C51	C	1.393778	-0.668319	0.303242
C52	C	1.893778	-0.168319	0.803242
C53	C	1.332026	-0.635464	0.343467
C54	C	1.832026	-0.135464	0.843467
C55	C	1.331990	-0.569723	0.343456
C56	C	1.831990	-0.069723	0.843456
N57	N	1.309395	-0.771587	0.308037
N58	N	1.809395	-0.271587	0.808037
N59	N	1.309432	-0.834039	0.308043
N60	N	1.809432	-0.334039	0.808043
C61	C	1.393886	-0.866394	0.303279
C62	C	1.893886	-0.366394	0.803279
N63	N	1.478302	-0.833938	0.298495
N64	N	1.978302	-0.333938	0.798495
N65	N	1.478263	-0.771481	0.298485
N66	N	1.978263	-0.271481	0.798485
C67	C	1.393811	-0.739604	0.303259
C68	C	1.893811	-0.239604	0.803259
C69	C	1.455687	-0.970526	0.263075
C70	C	1.955687	-0.470526	0.763075
C71	C	1.455734	-1.036270	0.263094
C72	C	1.955734	-0.536270	0.763094
C73	C	1.332255	-1.036307	0.343539
C74	C	1.832255	-0.536307	0.843539
C75	C	1.332217	-0.970565	0.343524
C76	C	1.832217	-0.470565	0.843524
C77	C	1.393931	-0.937678	0.303288
C78	C	1.893931	-0.437678	0.803288
C79	C	1.645390	-0.303326	0.303264
C80	C	2.145390	0.196674	0.803264
C81	C	1.752604	-0.303329	0.303271
C82	C	2.252604	0.196671	0.803271
C83	C	1.393803	-0.303322	0.467440
C84	C	1.893803	0.196678	0.967440
C85	C	1.393805	-0.303324	0.537408
C86	C	1.893805	0.196676	1.037408
C87	C	1.393950	-0.139127	0.303298
C88	C	1.893950	0.360873	0.803298
C89	C	1.394015	-0.069158	0.303319
C90	C	1.894015	0.430842	0.803319
C91	C	1.455452	-0.343576	1.036858
C92	C	1.955452	0.156424	1.536858
C93	C	1.455450	-0.343580	0.971115
C94	C	1.955450	0.156420	1.471115
C95	C	1.393803	-0.303321	0.938247
C96	C	1.893803	0.196679	1.438247
C97	C	1.332135	-0.263066	0.971127
C98	C	1.832135	0.236934	1.471127
C99	C	1.332132	-0.263067	1.036868
C100	C	1.832132	0.236933	1.536868
N101	N	1.386459	-0.248217	0.835042
N102	N	1.886459	0.251783	1.335042
N103	N	1.386467	-0.248218	0.772591
N104	N	1.886467	0.251782	1.272591
C105	C	1.393807	-0.303317	0.740173
C106	C	1.893807	0.196683	1.240173
N107	N	1.401156	-0.358415	0.772565
N108	N	1.901156	0.141585	1.272565
N109	N	1.401152	-0.358414	0.835022
N110	N	1.901152	0.141586	1.335022
C111	C	1.393799	-0.303316	0.866962
C112	C	1.893799	0.196684	1.366962
C113	C	1.455463	-0.343577	0.636015
C114	C	1.955463	0.156423	1.136015
C115	C	1.455454	-0.343583	0.570271
C116	C	1.955454	0.156417	1.070271
C117	C	1.332145	-0.263063	0.570284
C118	C	1.832145	0.236937	1.070284
C119	C	1.332148	-0.263063	0.636027
C120	C	1.832148	0.236937	1.136027
C121	C	1.393813	-0.303319	0.668888
C122	C	1.893813	0.196681	1.168888
C123	C	1.393787	-0.303326	1.139698
C124	C	1.893787	0.196674	1.639698
C125	C	1.393796	-0.303323	1.069730
C126	C	1.893796	0.196677	1.569730
H127	H	1.505706	-0.542909	0.230244
H128	H	2.005706	-0.042909	0.730244
C129	C	1.264072	-0.533591	0.387707
C130	C	1.764072	-0.033591	0.887707
N131	N	1.212919	-0.506375	0.421041
N132	N	1.712919	-0.006375	0.921041
H133	H	1.505782	-0.662175	0.230269
H134	H	2.005782	-0.162175	0.730269
H135	H	1.281924	-0.230287	1.063632
H136	H	1.781924	0.269713	1.563632
H137	H	1.506022	-1.063012	0.230346
H138	H	2.006022	-0.563012	0.730346
C139	C	1.523588	-0.934348	0.218825
C140	C	2.023588	-0.434348	0.718825
N141	N	1.574735	-0.907101	0.185498
N142	N	2.074735	-0.407101	0.685498
C143	C	1.523285	-0.387866	0.672165
C144	C	2.023285	0.112134	1.172165
N145	N	1.574368	-0.421226	0.699391
N146	N	2.074368	0.078774	1.199391
H147	H	1.505661	-0.376357	1.063610
H148	H	2.005661	0.123643	1.563610
C149	C	1.264132	-0.671648	0.387711
C150	C	1.764132	-0.171648	0.887711
N151	N	1.212992	-0.698902	0.421038
N152	N	1.712992	-0.198902	0.921038
C153	C	1.523277	-0.387864	0.934949
C154	C	2.023277	0.112136	1.434949
N155	N	1.574365	-0.421219	0.907711
N156	N	2.074365	0.078781	1.407711
C157	C	1.264329	-0.218776	0.934971
C158	C	1.764329	0.281224	1.434971
N159	N	1.213256	-0.185416	0.907738
N160	N	1.713256	0.314584	1.407738
C161	C	1.264328	-0.218779	0.534133
C162	C	1.764328	0.281221	1.034133
N163	N	1.213246	-0.185425	0.506901
N164	N	1.713246	0.314575	1.006901
H165	H	1.282006	-1.063088	0.376293
H166	H	1.782006	-0.563088	0.876293
C167	C	1.264309	-0.934432	0.387779
C168	C	1.764309	-0.434432	0.887779
N169	N	1.213168	-0.907217	0.421121
N170	N	1.713168	-0.407217	0.921121
H171	H	1.505657	-0.376367	0.543508
H172	H	2.005657	0.123633	1.043508
C173	C	1.264334	-0.218773	0.672187
C174	C	1.764334	0.281227	1.172187
N175	N	1.213254	-0.185411	0.699423
N176	N	1.713254	0.314589	1.199423
