data_functionalizedCrystal
_audit_creation_method	'MofGen! by Chris Wilmer'
_symmetry_space_group_name_H-M	'P1'
_symmetry_Int_Tables_number	1
_symmetry_cell_setting	triclinic
loop_
_symmetry_equiv_pos_as_xyz
  x,y,z
_cell_length_a	10.654554
_cell_length_b	26.809956
_cell_length_c	10.654550
_cell_angle_alpha	89.994437
_cell_angle_beta	84.485824
_cell_angle_gamma	90.009036
loop_
_atom_site_label
_atom_site_type_symbol
_atom_site_fract_x
_atom_site_fract_y
_atom_site_fract_z
O1	O	1.667848	0.041480	0.176408
O2	O	1.302370	0.041480	0.193208
O3	O	1.493512	0.041478	0.002069
O4	O	1.476706	0.041482	0.367547
O5	O	1.493476	-0.041481	0.002098
O6	O	1.302334	-0.041479	0.193237
O7	O	1.667811	-0.041479	0.176437
Zn8	Zn	1.485067	-0.054651	0.184842
Zn9	Zn	1.485114	0.054652	0.184803
O10	O	1.476670	-0.041477	0.367576
C11	C	1.255554	0.000001	0.191988
C12	C	1.116111	0.000001	0.188294
C13	C	0.905602	0.000003	0.297367
C14	C	1.036624	0.000003	0.300839
C15	C	1.064571	0.000004	0.072269
C16	C	0.933552	0.000007	0.068799
C17	C	0.889469	0.000001	0.429330
C18	C	1.020490	0.000001	0.432802
N19	N	1.485043	-0.129247	0.184867
C20	C	1.569741	-0.473874	0.100188
C21	C	1.569771	-0.682751	0.100169
O22	O	1.641733	-0.709756	0.028179
N23	N	1.485121	-0.708874	0.184776
C24	C	1.400452	-0.682773	0.269388
O25	O	1.328444	-0.709785	0.341342
C26	C	1.400417	-0.473897	0.269400
C27	C	1.485082	-0.447777	0.184796
C28	C	1.654398	-0.447754	0.015590
C29	C	1.654394	-0.395537	0.015601
C30	C	1.569734	-0.369441	0.100208
C31	C	1.485078	-0.395561	0.184806
C32	C	1.315744	-0.447797	0.354004
C33	C	1.315740	-0.395575	0.353998
C34	C	1.400404	-0.369455	0.269394
C35	C	1.400414	-0.317248	0.269424
N36	N	1.485064	-0.291125	0.184817
C37	C	1.569724	-0.317222	0.100210
C38	C	1.400478	-0.792437	0.269377
C39	C	1.400488	-0.844656	0.269376
C40	C	1.569805	-0.844630	0.100156
C41	C	1.569801	-0.792410	0.100164
C42	C	1.485128	-0.766314	0.184771
C43	C	1.569711	-0.207564	0.100238
C44	C	1.569703	-0.155343	0.100259
C45	C	1.400382	-0.155373	0.269475
C46	C	1.400393	-0.207590	0.269459
C47	C	1.485063	-0.233684	0.184830
O48	O	1.328480	-0.290211	0.341367
O49	O	1.641703	-0.290201	0.028248
C50	C	1.569745	-0.526090	0.100178
C51	C	1.485089	-0.552210	0.184776
C52	C	1.400429	-0.526113	0.269383
C53	C	1.485099	-0.604429	0.184774
C54	C	1.569759	-0.630525	0.100166
C55	C	1.654408	-0.604403	0.015560
C56	C	1.654405	-0.552186	0.015570
C57	C	1.315779	-0.552235	0.353990
C58	C	1.315791	-0.604452	0.353974
C59	C	1.400450	-0.630548	0.269366
C60	C	1.714627	0.000001	0.177657
C61	C	1.854070	0.000004	0.181351
C62	C	1.492260	-0.000001	-0.044714
C63	C	1.488568	0.000001	-0.184158
N64	N	1.485148	0.129248	0.184768
C65	C	1.601109	-0.000001	-0.263642
C66	C	1.597633	0.000003	-0.394663
C67	C	1.369064	0.000008	-0.366703
C68	C	1.372541	0.000008	-0.235684
C69	C	1.733072	-0.000005	-0.279785
C70	C	1.729595	-0.000002	-0.410806
C71	C	1.477922	0.000003	0.414360
C72	C	1.481613	0.000004	0.553803
H73	H	1.049836	-0.034721	0.484404
H74	H	1.280899	0.000016	-0.170972
H75	H	1.129300	0.000007	-0.019366
Cl76	Cl	1.812782	0.053592	-0.234465
H77	H	1.331456	-0.134118	0.338365
H78	H	0.847738	0.034718	0.479047
Cl79	Cl	1.223210	0.000017	-0.431489
Cl80	Cl	1.676148	-0.122510	-0.006105
Cl81	Cl	1.797904	-0.055312	-0.224746
H82	H	0.843802	-0.035817	0.469212
H83	H	0.891601	0.000015	-0.025672
Cl84	Cl	1.760843	-0.519357	-0.090796
H85	H	1.723338	-0.468997	-0.053313
H86	H	1.769492	0.035818	-0.456461
Cl87	Cl	1.075541	0.055303	0.497666
H88	H	1.638655	-0.228804	0.031324
H89	H	1.246802	-0.469057	0.422895
H90	H	1.723331	-0.374274	-0.053294
H91	H	1.638741	-0.771146	0.031272
H92	H	1.638741	-0.865886	0.031266
H93	H	1.331560	-0.865919	0.338281
H94	H	1.331525	-0.771193	0.338277
H95	H	1.246785	-0.374330	0.422893
H96	H	1.331465	-0.228857	0.338363
H97	H	1.723347	-0.625659	-0.053327
H98	H	1.246849	-0.625715	0.422879
Cl99	Cl	1.209341	-0.519435	0.460366
H100	H	1.779302	-0.034720	-0.452553
