data_functionalizedCrystal
_audit_creation_method	'MofGen! by Chris Wilmer'
_symmetry_space_group_name_H-M	'P1'
_symmetry_Int_Tables_number	1
_symmetry_cell_setting	triclinic
loop_
_symmetry_equiv_pos_as_xyz
  x,y,z
_cell_length_a	19.077105
_cell_length_b	12.759399
_cell_length_c	19.076919
_cell_angle_alpha	92.274423
_cell_angle_beta	90.076224
_cell_angle_gamma	87.711582
loop_
_atom_site_label
_atom_site_type_symbol
_atom_site_fract_x
_atom_site_fract_y
_atom_site_fract_z
Zn1	Zn	1.058325	-0.508276	-0.440434
Zn2	Zn	1.558325	-0.008276	0.059566
Zn3	Zn	1.062983	-0.677203	-0.322932
Zn4	Zn	1.562983	-0.177203	0.177068
Zn5	Zn	0.945542	-0.494201	-0.318226
Zn6	Zn	1.445542	0.005799	0.181774
Zn7	Zn	0.940805	-0.676569	-0.435685
Zn8	Zn	1.440805	-0.176569	0.064315
O9	O	1.001914	-0.589062	-0.379319
O10	O	1.501914	-0.089062	0.120681
O11	O	1.157276	-0.536839	-0.428803
O12	O	1.657276	-0.036839	0.071197
O13	O	1.051336	-0.647302	-0.223976
O14	O	1.551336	-0.147302	0.276024
O15	O	0.960535	-0.349050	-0.334456
O16	O	1.460535	0.150950	0.165544
O17	O	1.160698	-0.660949	-0.342476
O18	O	1.660698	-0.160949	0.157524
O19	O	1.043397	-0.359391	-0.424241
O20	O	1.543397	0.140609	0.075759
O21	O	0.965052	-0.512852	-0.220519
O22	O	1.465052	-0.012852	0.279481
O23	O	0.846581	-0.512237	-0.329851
O24	O	1.346581	-0.012237	0.170149
O25	O	0.952463	-0.659869	-0.534646
O26	O	1.452463	-0.159869	-0.034646
O27	O	0.843101	-0.646222	-0.416147
O28	O	1.343101	-0.146222	0.083853
O29	O	1.038804	-0.536225	-0.538135
O30	O	1.538804	-0.036225	-0.038135
O31	O	1.046743	-0.824136	-0.337871
O32	O	1.546743	-0.324136	0.162129
O33	O	0.956979	-0.823671	-0.420709
O34	O	1.456979	-0.323671	0.079291
C35	C	0.819344	-0.577635	-0.371973
C36	C	1.319344	-0.077635	0.128027
C37	C	0.741240	-0.572772	-0.368847
C38	C	1.241240	-0.072772	0.131153
C39	C	1.001871	-0.862026	-0.379301
C40	C	1.501871	-0.362026	0.120699
C41	C	1.001917	-0.978806	-0.379320
C42	C	1.501917	-0.478806	0.120680
C43	C	0.702755	-0.640344	-0.412238
C44	C	1.202755	-0.140344	0.087762
C45	C	0.629367	-0.635761	-0.409304
C46	C	1.129367	-0.135761	0.090696
C47	C	0.594465	-0.563611	-0.362976
C48	C	1.094465	-0.063611	0.137024
C49	C	0.632955	-0.496033	-0.319583
C50	C	1.132955	0.003967	0.180417
C51	C	0.706341	-0.500611	-0.322521
C52	C	1.206341	-0.000611	0.177479
C53	C	0.375176	-0.542424	-0.349382
C54	C	0.875176	-0.042424	0.150618
C55	C	0.301784	-0.537853	-0.346446
C56	C	0.801784	-0.037853	0.153554
C57	C	0.298202	-0.677580	-0.436168
C58	C	0.798202	-0.177580	0.063832
C59	C	0.371590	-0.682156	-0.439099
C60	C	0.871590	-0.182156	0.060901
C61	C	0.410073	-0.614574	-0.395709
C62	C	0.910073	-0.114574	0.104291
N63	N	0.519451	-0.558928	-0.359974
N64	N	1.019451	-0.058928	0.140026
N65	N	0.485085	-0.619253	-0.398715
N66	N	0.985085	-0.119253	0.101285
C67	C	1.048706	-1.033882	-0.336239
C68	C	1.548706	-0.533882	0.163761
C69	C	1.048750	-1.143610	-0.336264
C70	C	1.548750	-0.643610	0.163736
C71	C	0.955209	-1.143177	-0.422453
C72	C	1.455209	-0.643177	0.077547
C73	C	0.955169	-1.033451	-0.422431
C74	C	1.455169	-0.533451	0.077569
C75	C	1.132698	-1.297227	-0.314590
C76	C	1.632698	-0.797227	0.185410
C77	C	1.179482	-1.352305	-0.271497
C78	C	1.679482	-0.852305	0.228503
C79	C	1.193053	-1.313482	-0.203371
C80	C	1.693053	-0.813482	0.296629
C81	C	1.159831	-1.219581	-0.178322
C82	C	1.659831	-0.719581	0.321678
C83	C	1.113042	-1.164508	-0.221411
C84	C	1.613042	-0.664508	0.278589
C85	C	1.099484	-1.203331	-0.289547
C86	C	1.599484	-0.703331	0.210453
C87	C	0.871220	-0.879832	-0.444098
C88	C	1.371220	-0.379832	0.055902
C89	C	0.824428	-0.824756	-0.487184
C90	C	1.324428	-0.324756	0.012816
C91	C	0.810849	-0.863577	-0.555311
C92	C	1.310849	-0.363577	-0.055311
C93	C	0.844059	-0.957481	-0.580357
C94	C	1.344059	-0.457481	-0.080357
C95	C	0.890852	-1.012557	-0.537271
C96	C	1.390852	-0.512557	-0.037271
C97	C	0.904431	-0.973728	-0.469145
C98	C	1.404431	-0.473728	0.030855
C99	C	1.185196	-0.600535	-0.386694
C100	C	1.685196	-0.100535	0.113306
C101	C	1.263300	-0.605424	-0.389837
C102	C	1.763300	-0.105424	0.110163
C103	C	0.994585	-0.599547	-0.562600
C104	C	1.494585	-0.099547	-0.062600
C105	C	0.991463	-0.604014	-0.640703
C106	C	1.491463	-0.104014	-0.140703
C107	C	1.001975	-0.315035	-0.379353
C108	C	1.501975	0.184965	0.120647
C109	C	1.002001	-0.198260	-0.379367
C110	C	1.502001	0.301740	0.120633
C111	C	1.034947	-0.541741	-0.679214
C112	C	1.534947	-0.041741	-0.179214
C113	C	1.032004	-0.545935	-0.752599
C114	C	1.532004	-0.045935	-0.252599
C115	C	0.985580	-0.612408	-0.787473
C116	C	1.485580	-0.112408	-0.287473
C117	C	0.942091	-0.674683	-0.748957
C118	C	1.442091	-0.174683	-0.248957
C119	C	0.945031	-0.670483	-0.675573
C120	C	1.445031	-0.170483	-0.175573
C121	C	0.971964	-0.631866	-1.006755
C122	C	1.471964	-0.131866	-0.506755
C123	C	0.969029	-0.636063	-1.080145
C124	C	1.469029	-0.136063	-0.580145
C125	C	1.058941	-0.507313	-1.083782
C126	C	1.558941	-0.007313	-0.583782
C127	C	1.061880	-0.503124	-1.010396
C128	C	1.561880	-0.003124	-0.510396
C129	C	1.018388	-0.565395	-0.971886
C130	C	1.518388	-0.065395	-0.471886
N131	N	0.982572	-0.616698	-0.862486
N132	N	1.482572	-0.116698	-0.362486
N133	N	1.021393	-0.561098	-0.896875
N134	N	1.521393	-0.061098	-0.396875
C135	C	1.009254	-0.578545	-0.196753
C136	C	1.509254	-0.078545	0.303247
C137	C	1.012513	-0.573790	-0.118656
C138	C	1.512513	-0.073790	0.381344
H139	H	0.731167	-0.699099	-0.449961
H140	H	1.231167	-0.199099	0.050039
Cl141	Cl	0.917289	-0.710151	-0.958353
Cl142	Cl	1.417289	-0.210151	-0.458353
Cl143	Cl	0.580990	-0.720713	-0.463855
Cl144	Cl	1.080990	-0.220713	0.036145
H145	H	0.772745	-0.818725	-0.590389
H146	H	1.272745	-0.318725	-0.090389
Cl147	Cl	1.107475	-0.965189	-0.282044
Cl148	Cl	1.607475	-0.465189	0.217956
H149	H	0.273369	-0.479088	-0.308725
H150	H	0.773369	0.020912	0.191275
Cl151	Cl	0.415461	-0.772865	-0.497341
Cl152	Cl	0.915461	-0.272865	0.002659
H153	H	0.604532	-0.437283	-0.281865
H154	H	1.104532	0.062717	0.218135
Cl155	Cl	0.890361	-0.748770	-0.627159
Cl156	Cl	1.390361	-0.248770	-0.127159
H157	H	0.266861	-0.732600	-0.471495
H158	H	0.766861	-0.232600	0.028505
Cl159	Cl	0.896443	-1.211881	-0.476645
Cl160	Cl	1.396443	-0.711881	0.023355
Cl161	Cl	1.113609	-0.429030	-1.132198
Cl162	Cl	1.613609	0.070970	-0.632198
H163	H	0.737674	-0.445582	-0.287192
H164	H	1.237674	0.054418	0.212808
Cl165	Cl	0.883727	-0.758246	-0.792799
Cl166	Cl	1.383727	-0.258246	-0.292799
H167	H	1.206531	-1.428760	-0.291899
H168	H	1.706531	-0.928760	0.208101
Cl169	Cl	0.910659	-0.719629	-1.123986
Cl170	Cl	1.410659	-0.219629	-0.623986
H171	H	1.067415	-0.495228	-0.783952
H172	H	1.567415	0.004772	-0.283952
Cl173	Cl	1.093315	-0.458176	-0.635379
Cl174	Cl	1.593315	0.041824	-0.135379
H175	H	1.121659	-1.328840	-0.370066
H176	H	1.621659	-0.828840	0.129934
Cl177	Cl	0.423545	-0.457459	-0.294837
Cl178	Cl	0.923545	0.042541	0.205163
H179	H	1.085995	-1.088054	-0.201017
H180	H	1.585995	-0.588054	0.298983
H181	H	1.231146	-1.358334	-0.168285
H182	H	1.731146	-0.858334	0.331715
Cl183	Cl	1.176887	-1.170787	-0.092669
Cl184	Cl	1.676887	-0.670787	0.407331
Cl185	Cl	0.932603	-1.130608	-0.568759
Cl186	Cl	1.432603	-0.630608	-0.068759
Cl187	Cl	0.888292	-0.831018	-0.358450
Cl188	Cl	1.388292	-0.331018	0.141550
H189	H	0.833003	-0.989090	-0.635832
H190	H	1.333003	-0.489090	-0.135832
Cl191	Cl	1.120244	-0.419555	-0.966560
Cl192	Cl	1.620244	0.080445	-0.466560
H193	H	0.797391	-0.748290	-0.466787
H194	H	1.297391	-0.248290	0.033213
