data_functionalizedCrystal
_audit_creation_method	'MofGen! by Chris Wilmer'
_symmetry_space_group_name_H-M	'P1'
_symmetry_Int_Tables_number	1
_symmetry_cell_setting	triclinic
loop_
_symmetry_equiv_pos_as_xyz
  x,y,z
_cell_length_a	27.440280
_cell_length_b	19.377625
_cell_length_c	19.377169
_cell_angle_alpha	61.015893
_cell_angle_beta	52.466778
_cell_angle_gamma	52.472370
loop_
_atom_site_label
_atom_site_type_symbol
_atom_site_fract_x
_atom_site_fract_y
_atom_site_fract_z
Zr1	Zr	0.533360	0.761846	-0.290407
O2	O	0.635025	0.671432	-0.380857
O3	O	0.431698	0.789549	-0.262677
O4	O	0.533357	0.830762	-0.422032
O5	O	0.533367	0.597725	-0.095802
O6	O	0.533352	0.956460	-0.454515
O7	O	0.533365	0.630219	-0.221502
O8	O	0.351502	0.882737	-0.169458
O9	O	0.715217	0.671447	-0.380860
O10	O	0.473508	0.895188	-0.275095
O11	O	0.473513	0.777131	-0.157046
O12	O	0.593204	0.825654	-0.344666
O13	O	0.593209	0.707597	-0.226616
Zr14	Zr	0.533355	0.910496	-0.141737
Zr15	Zr	0.533352	0.962320	-0.342213
Zr16	Zr	0.533363	0.710022	-0.089931
Zr17	Zr	0.661258	0.761871	-0.290412
Zr18	Zr	0.405458	0.910471	-0.141733
O19	O	0.635018	0.882793	-0.169467
O20	O	0.635014	0.956480	-0.454519
O21	O	0.635029	0.597745	-0.095806
O22	O	0.431691	1.000910	-0.051288
O23	O	0.431687	1.074597	-0.336339
O24	O	0.431702	0.715862	0.022374
O25	O	0.533348	1.074617	-0.336342
O26	O	0.533358	0.841580	-0.010112
O27	O	0.533363	0.715882	0.022370
O28	O	0.533350	1.042123	-0.210643
O29	O	0.715211	0.830798	-0.422039
O30	O	0.351504	0.841544	-0.010106
O31	O	0.351498	1.000895	-0.051285
O32	O	0.351496	1.042088	-0.210637
O33	O	0.715219	0.630254	-0.221508
O34	O	0.715213	0.789605	-0.262687
O35	O	0.473511	0.846688	-0.087479
O36	O	0.473506	0.964745	-0.205528
O37	O	0.593202	0.895211	-0.275099
O38	O	0.593207	0.777154	-0.157050
C39	C	0.373377	0.836139	-0.216067
C40	C	0.319081	0.836129	-0.216065
C41	C	0.533367	0.585408	-0.151271
C42	C	0.533371	0.500302	-0.129278
C43	C	0.533354	0.900995	-0.466837
C44	C	0.533353	0.922995	-0.551945
C45	C	-0.017663	0.897819	-0.277691
C46	C	-0.068687	0.897827	-0.277691
O47	O	-0.095096	0.950258	-0.330076
N48	N	-0.094201	0.836202	-0.216072
C49	C	-0.068693	0.774571	-0.154444
O50	O	-0.095080	0.722156	-0.102032
C51	C	-0.017673	0.774568	-0.154441
C52	C	0.007843	0.836192	-0.216070
C53	C	0.007852	0.959438	-0.339315
C54	C	0.058873	0.959429	-0.339316
C55	C	0.084379	0.897801	-0.277694
C56	C	0.058864	0.836182	-0.216071
C57	C	0.007830	0.712942	-0.092809
C58	C	0.058853	0.712945	-0.092811
C59	C	0.084369	0.774568	-0.154440
C60	C	0.135391	0.774545	-0.154450
N61	N	0.160905	0.836170	-0.216069
C62	C	0.135399	0.897798	-0.277691
C63	C	-0.175838	0.774584	-0.154454
C64	C	-0.226853	0.774582	-0.154460
C65	C	-0.226845	0.897839	-0.277707
C66	C	-0.175825	0.897836	-0.277704
C67	C	-0.150324	0.836208	-0.216073
C68	C	0.242548	0.897774	-0.277689
C69	C	0.293575	0.897757	-0.277687
C70	C	0.293560	0.774503	-0.154438
C71	C	0.242539	0.774517	-0.154442
C72	C	0.217033	0.836159	-0.216072
O73	O	0.161830	0.722144	-0.102090
O74	O	0.161785	0.950212	-0.330087
C75	C	0.693338	0.836203	-0.216078
C76	C	0.747634	0.836213	-0.216080
C77	C	0.533349	0.309881	-0.403137
C78	C	0.533347	0.229907	-0.382443
C79	C	0.533349	0.194128	-0.243955
C80	C	0.533354	0.274099	-0.264639
C81	C	0.533354	0.331970	-0.344231
C82	C	0.533359	0.296187	-0.205733
C83	C	0.533361	0.376153	-0.226414
C84	C	0.533358	0.434030	-0.306001
C85	C	0.533356	0.411936	-0.364912
C86	C	0.533355	0.238317	-0.126138
C87	C	0.533360	0.260406	-0.067232
C88	C	0.533366	0.340370	-0.087916
C89	C	0.533364	0.398247	-0.167503
C90	C	0.533369	0.362465	-0.029005
C91	C	0.533371	0.442430	-0.049686
C92	C	0.533366	0.478213	-0.188184
C93	C	0.533348	1.086934	-0.280874
C94	C	0.533345	1.172040	-0.302867
C95	C	0.533367	0.649088	-0.742352
C96	C	0.533364	0.669774	-0.822326
C97	C	0.533359	0.808267	-0.858115
C98	C	0.533358	0.787594	-0.778140
C99	C	0.533363	0.708003	-0.720265
C100	C	0.533354	0.846509	-0.756053
C101	C	0.533356	0.825836	-0.676088
C102	C	0.533363	0.746247	-0.618209
C103	C	0.533365	0.687329	-0.640299
C104	C	0.533354	0.926097	-0.813932
C105	C	0.533350	0.985013	-0.791845
C106	C	0.533348	0.964342	-0.711876
C107	C	0.533354	0.884754	-0.653997
C108	C	0.533346	1.023260	-0.689785
C109	C	0.533348	1.002587	-0.609820
C110	C	0.533357	0.864080	-0.574032
C111	C	0.533361	0.771347	0.034693
C112	C	0.533362	0.749347	0.119800
C113	C	0.373368	1.086902	-0.280868
C114	C	0.319068	1.171998	-0.302860
C115	C	0.373381	0.771316	0.034698
C116	C	0.319086	0.749304	0.119807
C117	C	0.373371	1.022078	-0.030103
C118	C	0.319073	1.085174	0.033013
C119	C	0.693344	0.650264	-0.402041
C120	C	0.747642	0.587168	-0.465157
C121	C	0.693348	0.585440	-0.151276
C122	C	0.747647	0.500344	-0.129285
C123	C	0.693335	0.901026	-0.466843
C124	C	0.747629	0.923038	-0.551952
C125	C	0.293570	1.175654	-0.349508
C126	C	0.242557	1.255607	-0.370188
C127	C	0.217040	1.331903	-0.344213
C128	C	0.242544	1.328245	-0.297562
C129	C	0.293559	1.248294	-0.276889
C130	C	0.293588	0.775274	0.196097
C131	C	0.242579	0.754586	0.276075
C132	C	0.217067	0.707935	0.279759
C133	C	0.242570	0.681962	0.203462
C134	C	0.293581	0.702644	0.123488
C135	C	0.293572	1.176437	0.001030
C136	C	0.242560	1.235731	0.060325
C137	C	0.217047	1.203761	0.151602
C138	C	0.242554	1.112488	0.183585
C139	C	0.293568	1.053196	0.124291
C140	C	0.773150	0.495905	-0.433175
C141	C	0.824177	0.436611	-0.492469
C142	C	0.849693	0.468582	-0.583746
C143	C	0.824183	0.559854	-0.615730
C144	C	0.773160	0.619146	-0.556435
C145	C	0.773151	0.496690	-0.082645
C146	C	0.824177	0.416742	-0.061987
C147	C	0.849696	0.340448	-0.087965
C148	C	0.824191	0.344105	-0.134612
C149	C	0.773168	0.424053	-0.155274
C150	C	0.773126	0.969691	-0.555609
C151	C	0.824134	0.990389	-0.635575
C152	C	0.849649	0.964428	-0.711882
C153	C	0.824148	0.917773	-0.708222
C154	C	0.773137	0.897081	-0.628259
H155	H	0.314350	0.947938	-0.327876
Cl156	Cl	0.210526	0.787250	0.371977
H157	H	0.891187	0.981282	-0.776988
Cl158	Cl	0.533374	0.470201	0.024372
H159	H	-0.247616	0.724393	-0.104285
H160	H	0.844892	1.028375	-0.638537
H161	H	0.221771	0.724329	-0.104269
Cl162	Cl	0.533347	0.121373	-0.143898
Cl163	Cl	0.856264	0.600031	-0.730481
Cl164	Cl	0.533359	0.382631	-0.503205
Cl165	Cl	0.856233	0.321875	-0.452243
H166	H	0.844930	0.896639	-0.770362
Cl167	Cl	0.741108	0.428630	-0.213903
Cl168	Cl	0.533356	0.952081	-0.914463
Cl169	Cl	0.913835	0.394030	-0.658277
H170	H	0.175500	1.396999	-0.361052
H171	H	0.314335	0.681497	0.061372
H172	H	0.221790	0.643976	0.206475
H173	H	0.752383	0.859089	-0.625292
H174	H	0.844976	0.281974	-0.155759
H175	H	0.314337	1.202484	-0.073290
Cl176	Cl	0.325617	0.938464	0.164514
Cl177	Cl	0.741094	0.733878	-0.596658
Cl178	Cl	0.210502	1.350467	0.020098
Cl179	Cl	0.152913	1.278312	0.226133
Cl180	Cl	0.533346	1.076652	-0.582054
Cl181	Cl	0.210472	1.072311	0.298337
H182	H	0.533363	0.584281	-0.695222
Cl183	Cl	0.210489	0.975269	-0.355166
H184	H	0.314345	1.113541	-0.370675
Cl185	Cl	0.152936	0.681943	0.380307
Cl186	Cl	0.741084	0.592594	-0.049981
H187	H	0.221799	1.258569	-0.408172
Cl188	Cl	0.741084	0.455691	-0.318429
Cl189	Cl	0.210455	1.424167	-0.264909
H190	H	0.314313	1.245327	-0.238899
Cl191	Cl	0.856228	0.412164	-0.003341
Cl192	Cl	0.325648	0.833925	0.191487
Cl193	Cl	0.913838	0.239946	-0.061979
H194	H	0.079643	1.009610	-0.389497
Cl195	Cl	-0.024199	1.036919	-0.416798
H196	H	-0.155054	0.948015	-0.327887
Cl197	Cl	-0.258921	0.975317	-0.355173
H198	H	-0.155073	0.724390	-0.104269
Cl199	Cl	-0.024237	0.635471	-0.015325
H200	H	0.752359	0.990835	-0.493485
H201	H	0.079614	0.662758	-0.042624
H202	H	0.314338	0.724325	-0.104269
H203	H	0.533357	0.213280	-0.002427
H204	H	0.533373	0.525331	-0.253000
H205	H	0.533362	0.459054	-0.429729
Cl206	Cl	0.533357	0.534562	-0.331998
H207	H	0.533350	0.173207	-0.109302
Cl208	Cl	0.533338	0.202149	-0.456508
H209	H	0.533363	0.315340	0.035803
H210	H	0.533353	0.799273	-0.526902
Cl211	Cl	0.533371	0.720255	-0.517682
H212	H	0.533362	0.622522	-0.593170
H213	H	0.533369	0.621791	-0.840303
H214	H	0.533358	0.873069	-0.905247
H215	H	0.533349	1.049815	-0.838977
H216	H	0.533349	1.088059	-0.736921
