data_functionalizedCrystal
_audit_creation_method	'MofGen! by Chris Wilmer'
_symmetry_space_group_name_H-M	'P1'
_symmetry_Int_Tables_number	1
_symmetry_cell_setting	triclinic
loop_
_symmetry_equiv_pos_as_xyz
  x,y,z
_cell_length_a	15.538191
_cell_length_b	16.109301
_cell_length_c	15.186229
_cell_angle_alpha	89.992751
_cell_angle_beta	90.002717
_cell_angle_gamma	114.633213
loop_
_atom_site_label
_atom_site_type_symbol
_atom_site_fract_x
_atom_site_fract_y
_atom_site_fract_z
O1	O	1.249989	0.270051	0.073231
O2	O	0.975701	0.174043	0.073233
O3	O	1.120380	0.345350	0.073223
O4	O	1.105310	0.098744	0.073241
O5	O	1.120379	0.345358	-0.073234
O6	O	0.975700	0.174051	-0.073224
O7	O	1.249988	0.270058	-0.073226
Zn8	Zn	1.112844	0.222056	-0.096479
Zn9	Zn	1.112845	0.222046	0.096485
O10	O	1.105309	0.098751	-0.073216
C11	C	0.940602	0.164002	0.000005
C12	C	0.836019	0.134081	0.000005
C13	C	1.119769	0.376145	-0.000006
C14	C	1.117939	0.467888	-0.000007
N15	N	1.112850	0.222065	-0.228171
C16	C	0.548320	0.431335	-0.000003
C17	C	0.450045	0.403199	-0.000000
C18	C	0.427554	0.244941	0.000011
C19	C	0.525828	0.273063	0.000004
C20	C	0.586204	0.366262	-0.000002
C21	C	0.563712	0.207990	0.000005
C22	C	0.661978	0.236111	0.000003
C23	C	0.722360	0.329305	-0.000000
C24	C	0.684470	0.394382	-0.000004
C25	C	0.503335	0.114793	0.000018
C26	C	0.541219	0.049719	0.000019
C27	C	0.639487	0.077840	0.000010
C28	C	0.699869	0.171034	0.000007
C29	C	0.677377	0.012763	0.000014
C30	C	0.775643	0.040883	0.000011
C31	C	0.798135	0.199155	0.000004
C32	C	1.285087	0.280100	0.000004
C33	C	1.389670	0.310020	0.000009
C34	C	1.105920	0.067957	0.000015
C35	C	1.107750	-0.023786	0.000022
C36	C	1.199533	0.714764	0.000006
C37	C	1.197806	0.800964	0.000013
C38	C	1.026149	0.729329	0.000011
C39	C	1.027877	0.643131	0.000010
C40	C	1.114572	0.635852	0.000003
C41	C	1.111117	0.808250	0.000011
C42	C	1.109244	0.901711	0.000019
C43	C	1.116446	0.542385	-0.000003
N44	N	1.112847	0.222046	0.228178
C45	C	1.177034	0.297829	0.453896
C46	C	1.177037	0.297832	0.546086
C47	C	1.048659	0.146275	0.546104
C48	C	1.048662	0.146270	0.453916
C49	C	1.112848	0.222051	0.407815
C50	C	1.112848	0.222059	0.592192
C51	C	1.112851	0.222062	0.692148
C52	C	1.112847	0.222048	0.307852
H53	H	0.847297	0.275046	-0.000006
C54	C	1.346364	0.749265	0.075307
C55	C	1.294824	0.706758	0.000013
H56	H	1.405192	0.744318	0.075315
H57	H	1.357493	0.811887	0.075301
H58	H	1.311366	0.720405	0.126370
H59	H	1.329820	0.735623	-0.051051
H60	H	1.283698	0.644124	0.000011
H61	H	1.266990	0.865214	0.000017
H62	H	0.955565	0.735267	0.000015
C63	C	0.930240	0.504636	-0.075276
C64	C	0.934483	0.556378	0.000009
H65	H	0.872588	0.451077	-0.075269
H66	H	0.933125	0.539753	-0.126340
H67	H	0.982125	0.487973	-0.075266
H68	H	0.882601	0.573047	-0.000005
H69	H	0.931589	0.521254	0.051086
C70	C	0.528858	-0.103899	0.000028
C71	C	0.474850	-0.052722	0.000028
H72	H	0.487884	-0.167143	0.000038
H73	H	0.567647	-0.089637	-0.051044
H74	H	0.567660	-0.089636	0.051102
H75	H	0.436053	-0.066981	-0.051050
H76	H	0.436046	-0.066990	0.051105
C77	C	1.027934	0.026876	0.350266
C78	C	0.978102	0.062969	0.403256
H79	H	0.984375	-0.024552	0.318996
H80	H	1.066155	0.072002	0.309622
H81	H	1.067056	0.008686	0.386248
H82	H	0.938985	0.081166	0.367273
H83	H	0.939865	0.017834	0.443905
H84	H	0.419205	0.456196	0.000000
C85	C	1.305259	0.354285	0.350222
C86	C	1.247592	0.381122	0.403221
H87	H	1.348816	0.405709	0.318937
H88	H	1.339045	0.329798	0.386194
H89	H	1.267023	0.309157	0.309583
H90	H	1.285828	0.426246	0.443865
H91	H	1.213804	0.405623	0.367246
C92	C	0.885488	0.048560	0.574483
C93	C	0.978100	0.062981	0.596778
H94	H	0.841927	-0.002867	0.605762
H95	H	0.875407	0.101035	0.589584
H96	H	0.876319	0.037716	0.512982
H97	H	0.987271	0.073831	0.658279
H98	H	0.988185	0.010494	0.581683
H99	H	0.802374	0.352199	0.000009
H100	H	0.733632	0.470273	-0.000014
C101	C	1.303922	0.447641	0.536802
C102	C	1.247588	0.381131	0.596739
H103	H	1.347475	0.499070	0.568075
H104	H	1.337712	0.423147	0.500855
H105	H	1.264780	0.465823	0.500838
H106	H	1.286729	0.362944	0.632699
H107	H	1.213796	0.405629	0.632701
H108	H	0.597482	0.507226	-0.000013
C109	C	0.350325	-0.011665	0.000035
C110	C	0.395318	0.083878	0.000020
H111	H	0.283640	-0.030748	0.000041
H112	H	0.368399	-0.034522	-0.051031
H113	H	0.368410	-0.034518	0.051115
H114	H	0.377238	0.106731	-0.051064
H115	H	0.377235	0.106744	0.051091
C116	C	0.743548	-0.118384	0.000007
C117	C	0.817293	-0.030644	0.000008
H118	H	0.769264	-0.162541	0.000003
H119	H	0.705692	-0.126067	0.051078
H120	H	0.705687	-0.126052	-0.051068
H121	H	0.855151	-0.022973	0.051087
H122	H	0.855165	-0.022958	-0.051068
H123	H	0.378383	0.169059	0.000020
H124	H	0.628205	-0.063119	0.000027
