data_functionalizedCrystal
_audit_creation_method	'MofGen! by Chris Wilmer'
_symmetry_space_group_name_H-M	'P1'
_symmetry_Int_Tables_number	1
_symmetry_cell_setting	triclinic
loop_
_symmetry_equiv_pos_as_xyz
  x,y,z
_cell_length_a	18.215407
_cell_length_b	25.639240
_cell_length_c	18.215399
_cell_angle_alpha	90.037217
_cell_angle_beta	90.019833
_cell_angle_gamma	90.033205
loop_
_atom_site_label
_atom_site_type_symbol
_atom_site_fract_x
_atom_site_fract_y
_atom_site_fract_z
Zn1	Zn	1.125032	-0.208150	0.416068
Zn2	Zn	1.124923	-0.295586	0.292982
Zn3	Zn	1.001964	-0.208167	0.293016
Zn4	Zn	1.001913	-0.295557	0.416007
O5	O	1.063458	-0.251865	0.354518
O6	O	1.228002	-0.219754	0.399752
O7	O	1.108588	-0.284009	0.190002
O8	O	1.018356	-0.135000	0.309379
O9	O	1.227922	-0.283992	0.309322
O10	O	1.108773	-0.134987	0.399785
O11	O	1.018251	-0.219783	0.190027
O12	O	0.898973	-0.219754	0.309319
O13	O	1.018269	-0.283943	0.519000
O14	O	0.898936	-0.283959	0.399681
O15	O	1.108724	-0.219725	0.519045
O16	O	1.108539	-0.368747	0.309262
O17	O	1.018164	-0.368726	0.399648
C18	C	0.872252	-0.251856	0.354497
C19	C	0.790453	-0.251865	0.354506
C20	C	0.602259	-0.285349	0.401498
C21	C	0.525400	-0.285350	0.401507
C22	C	0.525409	-0.218391	0.307555
C23	C	0.602267	-0.218387	0.307550
C24	C	0.640689	-0.251869	0.354520
C25	C	0.486973	-0.251874	0.354535
C26	C	0.403640	-0.251876	0.354544
C27	C	0.724028	-0.251867	0.354512
C28	C	1.063354	-0.387708	0.354461
C29	C	1.063377	-0.445822	0.354461
C30	C	1.110562	-0.806140	0.401678
C31	C	1.110583	-0.860744	0.401693
O32	O	1.150578	-0.888942	0.441779
N33	N	1.063560	-0.888104	0.354590
C34	C	1.016507	-0.860857	0.307474
O35	O	0.976512	-0.889143	0.267410
C36	C	1.016482	-0.806254	0.307463
C37	C	1.063514	-0.778896	0.354564
C38	C	1.157589	-0.778782	0.448776
C39	C	1.157568	-0.724182	0.448760
C40	C	1.110520	-0.696938	0.401646
C41	C	1.063493	-0.724296	0.354548
C42	C	0.969426	-0.779008	0.260351
C43	C	0.969405	-0.724401	0.260345
C44	C	1.016436	-0.697043	0.307446
C45	C	1.016424	-0.642452	0.307418
N46	N	1.063447	-0.615092	0.354521
C47	C	1.110495	-0.642335	0.401635
C48	C	1.016562	-0.975528	0.307500
C49	C	1.016590	-1.030130	0.307507
C50	C	1.110666	-1.030013	0.401727
C51	C	1.110641	-0.975410	0.401717
C52	C	1.063585	-0.948167	0.354604
C53	C	1.110448	-0.527670	0.401597
C54	C	1.110425	-0.473065	0.401575
C55	C	1.016347	-0.473186	0.307357
C56	C	1.016372	-0.527787	0.307377
C57	C	1.063425	-0.555027	0.354503
O58	O	0.976448	-0.614219	0.267354
O59	O	1.150477	-0.614043	0.441698
C60	C	1.255411	-0.251874	0.354540
C61	C	1.337210	-0.251878	0.354549
C62	C	1.063503	-0.251829	0.546471
C63	C	1.063522	-0.251814	0.628270
C64	C	1.063583	-0.115492	0.354592
C65	C	1.063636	-0.057378	0.354624
C66	C	1.063456	-0.251863	0.163312
C67	C	1.063579	-0.251731	0.081514
C68	C	1.110639	-0.218344	0.816489
C69	C	1.110647	-0.218329	0.893348
C70	C	1.016457	-0.285202	0.893290
C71	C	1.016446	-0.285214	0.816432
C72	C	1.063540	-0.251786	0.778034
C73	C	1.063561	-0.251759	0.931750
C74	C	1.063570	-0.251742	1.015084
C75	C	1.063530	-0.251801	0.694695
H76	H	0.494116	-0.191131	0.269313
F77	F	0.966326	-0.556904	0.257238
H78	H	0.978300	-1.052400	0.269145
F79	F	0.643170	-0.182748	0.257552
H80	H	1.148937	-0.953139	0.440071
F81	F	0.966311	-0.320807	0.775503
H82	H	0.633540	-0.312611	0.439746
F83	F	0.484503	-0.320984	0.451508
H84	H	0.978116	-0.312419	0.924563
F85	F	0.966480	-0.946539	0.257349
F86	F	1.160486	-0.443952	0.451707
H87	H	0.931128	-0.801273	0.221996
H88	H	1.148758	-0.549843	0.439977
F89	F	1.160781	-0.182739	0.934271
F90	F	1.207665	-0.807768	0.498928
F91	F	1.207621	-0.695073	0.498896
H92	H	1.148973	-1.052204	0.440092
H93	H	0.931084	-0.702223	0.221981
H94	H	0.978043	-0.450996	0.268995
F95	F	1.160759	-0.182766	0.775625
