data_functionalizedCrystal
_audit_creation_method	'MofGen! by Chris Wilmer'
_symmetry_space_group_name_H-M	'P1'
_symmetry_Int_Tables_number	1
_symmetry_cell_setting	triclinic
loop_
_symmetry_equiv_pos_as_xyz
  x,y,z
_cell_length_a	10.489741
_cell_length_b	17.038272
_cell_length_c	8.965430
_cell_angle_alpha	90.000179
_cell_angle_beta	89.998843
_cell_angle_gamma	87.825365
loop_
_atom_site_label
_atom_site_type_symbol
_atom_site_fract_x
_atom_site_fract_y
_atom_site_fract_z
O1	O	1.704377	0.110369	-0.123948
O2	O	1.334150	0.120730	-0.123972
O3	O	1.517063	0.001722	-0.123948
O4	O	1.521464	0.229378	-0.123972
O5	O	1.517047	0.001729	0.124130
O6	O	1.334134	0.120738	0.124107
O7	O	1.704361	0.110377	0.124130
Cu8	Cu	1.519246	0.115558	0.146770
Cu9	Cu	1.519265	0.115549	-0.146612
O10	O	1.521448	0.229386	0.124107
C11	C	1.286537	0.119951	0.000065
C12	C	1.144689	0.117610	0.000056
C13	C	1.069466	0.041889	0.000078
C14	C	0.980693	0.077655	-0.122238
C15	C	0.980713	0.077681	0.122348
C16	C	1.057784	0.153408	-0.122361
C17	C	1.057813	0.153423	0.122335
C18	C	0.969072	0.189244	-0.000011
C19	C	1.513053	-0.027426	0.000091
C20	C	1.501111	-0.114288	0.000089
C21	C	1.610749	-0.163767	0.000098
C22	C	1.599521	-0.245383	0.000083
C23	C	1.478654	-0.277518	0.000070
C24	C	1.369007	-0.228032	0.000057
C25	C	1.380237	-0.146418	0.000062
C26	C	1.438983	-0.523505	0.000047
C27	C	1.427762	-0.605126	0.000048
C28	C	1.658277	-0.622471	0.000071
C29	C	1.669495	-0.540855	0.000084
C30	C	1.559849	-0.491376	0.000063
C31	C	1.467174	-0.360942	0.000060
C32	C	1.571330	-0.407954	0.000063
C33	C	1.751974	0.111156	0.000091
C34	C	1.893822	0.113497	0.000089
C35	C	1.525458	0.258533	0.000065
C36	C	1.537400	0.345395	0.000056
N37	N	1.519243	0.115564	0.353119
N38	N	1.519278	0.115537	-0.352961
C39	C	1.434622	0.170583	0.450415
C40	C	1.551599	0.186413	0.549834
C41	C	1.402315	0.099741	0.549828
C42	C	1.636282	0.131430	0.450350
C43	C	1.486918	0.044727	0.450335
C44	C	1.603976	0.060527	0.549709
H45	H	1.113334	-0.020359	-0.000069
H46	H	1.329333	-0.631286	0.000062
C47	C	1.210005	-0.514570	0.000059
C48	C	1.318460	-0.469126	0.000053
H49	H	1.135598	-0.480994	0.000077
H50	H	1.210422	-0.546759	-0.086449
H51	H	1.210436	-0.546768	0.086573
H52	H	1.318035	-0.436931	-0.086466
H53	H	1.318043	-0.436923	0.086571
C54	C	1.762081	0.217944	0.304812
C55	C	1.769828	0.149631	0.391676
H56	H	1.844525	0.229198	0.268612
H57	H	1.706332	0.210379	0.223012
H58	H	1.730149	0.260588	0.363914
H59	H	1.801752	0.106986	0.332571
H60	H	1.825597	0.157192	0.473488
C61	C	1.896222	-0.566201	0.000104
C62	C	1.802357	-0.505535	0.000100
H63	H	1.978245	-0.544394	0.000113
H64	H	1.887038	-0.597673	0.086604
H65	H	1.887053	-0.597671	-0.086418
H66	H	1.811521	-0.474068	0.086628
H67	H	1.811546	-0.474049	-0.086408
C68	C	1.757109	-0.082059	0.127645
C69	C	1.743613	-0.128451	0.000113
H70	H	1.839140	-0.060263	0.127651
H71	H	1.693432	-0.040910	0.127633
H72	H	1.747929	-0.113545	0.214143
H73	H	1.752785	-0.096963	-0.086386
H74	H	1.807309	-0.169605	0.000111
C75	C	1.823034	0.014445	0.557725
C76	C	1.700706	-0.002301	0.608217
H77	H	1.882752	-0.024338	0.593858
H78	H	1.824031	0.014403	0.451789
H79	H	1.845287	0.064625	0.593310
H80	H	1.678450	-0.052479	0.572622
H81	H	1.699706	-0.002266	0.714175
H82	H	1.270594	-0.254202	0.000038
C83	C	1.372310	0.307569	0.441765
C84	C	1.338123	0.233448	0.391534
H85	H	1.312744	0.346378	0.405402
H86	H	1.372196	0.308304	0.547698
H87	H	1.455170	0.318296	0.406235
H88	H	1.255266	0.222718	0.427073
H89	H	1.338224	0.232711	0.285579
H90	H	0.925476	0.251558	-0.000084
H91	H	1.459520	-0.015148	0.406596
C92	C	0.975540	0.073339	0.389965
C93	C	0.934837	0.034422	0.261953
H94	H	0.947213	0.046630	0.476143
H95	H	1.066032	0.074097	0.390474
H96	H	0.940960	0.125682	0.390103
H97	H	0.969425	-0.017920	0.261810
H98	H	0.844327	0.033655	0.261444
H99	H	1.303416	0.086371	0.593528
H100	H	1.091846	0.185439	0.225745
H101	H	1.688801	-0.285666	0.000093
C102	C	1.743422	-0.755281	0.000059
C103	C	1.778795	-0.676859	0.000072
H104	H	1.817831	-0.788856	0.000046
H105	H	1.694235	-0.765091	0.086563
H106	H	1.694228	-0.765082	-0.086459
H107	H	1.827981	-0.667056	0.086596
H108	H	1.828003	-0.667045	-0.086441
H109	H	1.290957	-0.106132	0.000054
C110	C	0.985730	-0.042757	-0.261601
C111	C	0.934772	0.034401	-0.261826
H112	H	0.957375	-0.069463	-0.347769
H113	H	1.076220	-0.041994	-0.262159
H114	H	0.958131	-0.069144	-0.174731
H115	H	0.962378	0.060791	-0.348691
H116	H	0.844262	0.033642	-0.261282
H117	H	1.669740	-0.381786	0.000040
H118	H	1.091613	0.185419	-0.225887
C119	C	1.699686	0.258745	0.694755
C120	C	1.588538	0.267263	0.608858
H121	H	1.722484	0.308661	0.731184
H122	H	1.684985	0.224732	0.776396
H123	H	1.766974	0.237079	0.634927
H124	H	1.521247	0.288924	0.668690
H125	H	1.603232	0.301289	0.527206
H126	H	1.368763	-0.387115	0.000053
