data_functionalizedCrystal
_audit_creation_method	'MofGen! by Chris Wilmer'
_symmetry_space_group_name_H-M	'P1'
_symmetry_Int_Tables_number	1
_symmetry_cell_setting	triclinic
loop_
_symmetry_equiv_pos_as_xyz
  x,y,z
_cell_length_a	15.944551
_cell_length_b	13.448316
_cell_length_c	14.971486
_cell_angle_alpha	89.993189
_cell_angle_beta	83.556433
_cell_angle_gamma	89.997731
loop_
_atom_site_label
_atom_site_type_symbol
_atom_site_fract_x
_atom_site_fract_y
_atom_site_fract_z
O1	O	1.114636	-0.082589	0.115362
O2	O	1.614636	0.417411	0.615362
O3	O	0.870100	-0.082613	0.129585
O4	O	1.370100	0.417387	0.629585
O5	O	0.998923	-0.082593	-0.007734
O6	O	1.498923	0.417407	0.492266
O7	O	0.985814	-0.082609	0.252680
O8	O	1.485814	0.417391	0.752680
O9	O	0.998906	0.082791	-0.007742
O10	O	1.498906	0.582791	0.492258
O11	O	0.870084	0.082770	0.129576
O12	O	1.370084	0.582770	0.629576
O13	O	1.114620	0.082795	0.115354
O14	O	1.614620	0.582795	0.615354
Cu15	Cu	0.992351	0.097884	0.122464
Cu16	Cu	1.492351	0.597884	0.622464
Cu17	Cu	0.992370	-0.097702	0.122474
Cu18	Cu	1.492370	0.402298	0.622474
O19	O	0.985798	0.082775	0.252672
O20	O	1.485798	0.582775	0.752672
C21	C	0.838798	0.000075	0.128990
C22	C	1.338798	0.500075	0.628990
C23	C	0.745550	0.000066	0.127220
C24	C	1.245550	0.500066	0.627220
N25	N	0.992343	0.235448	0.122456
N26	N	1.492343	0.735448	0.622456
N27	N	0.992384	-0.235266	0.122475
N28	N	1.492384	0.264734	0.622475
C29	C	0.530608	0.000091	0.037872
C30	C	1.030608	0.500091	0.537872
C31	C	0.469636	-0.081455	0.079366
C32	C	0.969636	0.418545	0.579366
C33	C	0.574821	0.000078	0.124017
C34	C	1.074821	0.500078	0.624017
C35	C	0.469642	0.081601	0.079379
C36	C	0.969642	0.581601	0.579379
C37	C	0.409905	0.000094	0.120918
C38	C	0.909905	0.500094	0.620918
C39	C	0.515077	-0.081535	0.165535
C40	C	1.015077	0.418465	0.665535
C41	C	0.515089	0.081594	0.165535
C42	C	1.015089	0.581594	0.665535
C43	C	0.454134	0.000029	0.207092
C44	C	0.954134	0.500029	0.707092
C45	C	0.669825	0.000068	0.125801
C46	C	1.169825	0.500068	0.625801
C47	C	0.314903	0.000097	0.119141
C48	C	0.814903	0.500097	0.619141
C49	C	1.145923	0.000104	0.115948
C50	C	1.645923	0.500104	0.615948
C51	C	1.239171	0.000107	0.117718
C52	C	1.739171	0.500107	0.617718
C53	C	0.998328	0.000098	-0.041062
C54	C	1.498328	0.500098	0.458938
C55	C	0.996572	0.000097	-0.140357
C56	C	1.496572	0.500097	0.359643
C57	C	1.049404	0.287497	0.061677
C58	C	1.549404	0.787497	0.561677
C59	C	1.049409	0.391600	0.061676
C60	C	1.549409	0.891600	0.561676
C61	C	0.992357	0.443653	0.122460
C62	C	1.492357	0.943653	0.622460
C63	C	0.935291	0.391596	0.183243
C64	C	1.435291	0.891596	0.683243
C65	C	0.935282	0.287495	0.183238
C66	C	1.435282	0.787495	0.683238
C67	C	0.935314	0.608576	0.183249
C68	C	1.435314	1.108576	0.683249
C69	C	0.935324	0.712685	0.183254
C70	C	1.435324	1.212685	0.683254
C71	C	1.049441	0.712682	0.061686
C72	C	1.549441	1.212682	0.561686
C73	C	1.049432	0.608581	0.061682
C74	C	1.549432	1.108581	0.561682
C75	C	0.992367	0.556531	0.122466
C76	C	1.492367	1.056531	0.622466
C77	C	1.072251	0.000106	-0.197664
C78	C	1.572251	0.500106	0.302336
C79	C	1.070595	0.000095	-0.290962
C80	C	1.570595	0.500095	0.209038
C81	C	0.993259	0.000084	-0.326951
C82	C	1.493259	0.500084	0.173049
C83	C	0.917574	0.000073	-0.269637
C84	C	1.417574	0.500073	0.230363
C85	C	0.919230	0.000076	-0.176341
C86	C	1.419230	0.500076	0.323659
C87	C	0.914127	0.000069	-0.464095
C88	C	1.414127	0.500069	0.035905
C89	C	0.912470	0.000067	-0.557398
C90	C	1.412470	0.500067	-0.057398
C91	C	1.065491	0.000088	-0.578717
C92	C	1.565491	0.500088	-0.078717
C93	C	1.067148	0.000091	-0.485421
C94	C	1.567148	0.500091	0.014579
C95	C	0.991462	0.000082	-0.428113
C96	C	1.491462	0.500082	0.071887
C97	C	0.986392	0.000081	0.286000
C98	C	1.486392	0.500081	0.786000
C99	C	0.988149	0.000076	0.385295
C100	C	1.488149	0.500076	0.885295
H101	H	0.449498	-0.150391	0.042934
H102	H	0.949498	0.349609	0.542934
H103	H	1.132222	0.000104	-0.337618
H104	H	1.632222	0.500104	0.162382
O105	O	0.842396	0.000191	-0.304486
O106	O	1.342396	0.500191	0.195514
C107	C	0.796254	0.085850	-0.275227
C108	C	1.296254	0.585850	0.224773
H109	H	0.819210	0.114411	-0.210524
H110	H	1.319210	0.614411	0.289476
H111	H	0.726321	0.066575	-0.262276
H112	H	1.226321	0.566575	0.237724
H113	H	0.805918	0.145829	-0.329220
H114	H	1.305918	0.645829	0.170780
H115	H	0.849496	0.000074	-0.586696
H116	H	1.349496	0.500074	-0.086696
O117	O	0.845660	-0.000064	-0.120760
O118	O	1.345660	0.499936	0.379240
C119	C	0.798732	-0.085737	-0.137047
C120	C	1.298732	0.414263	0.362953
H121	H	0.819286	-0.114289	-0.207816
H122	H	1.319286	0.385711	0.292184
H123	H	0.728680	-0.066485	-0.130485
H124	H	1.228680	0.433515	0.369515
H125	H	0.810280	-0.145714	-0.086013
H126	H	1.310280	0.354286	0.413987
H127	H	1.130122	0.000108	-0.456122
H128	H	1.630122	0.500108	0.043878
H129	H	0.888834	0.433983	0.232731
H130	H	1.388834	0.933983	0.732731
H131	H	1.095892	0.566200	0.012192
H132	H	1.595892	1.066200	0.512192
O133	O	1.138936	0.000042	-0.634508
O134	O	1.638936	0.500042	-0.134508
C135	C	1.120895	0.000053	-0.724571
C136	C	1.620895	0.500053	-0.224571
H137	H	1.054918	-0.031265	-0.728146
H138	H	1.554918	0.468735	-0.228146
H139	H	1.169133	-0.047963	-0.766827
H140	H	1.669133	0.452037	-0.266827
H141	H	1.124045	0.079393	-0.751568
H142	H	1.624045	0.579393	-0.251568
O143	O	0.840551	-0.000074	-0.408515
O144	O	1.340551	0.499926	0.091485
C145	C	0.793617	-0.085744	-0.424798
C146	C	1.293617	0.414256	0.075202
H147	H	0.814170	-0.114301	-0.495565
H148	H	1.314170	0.385699	0.004435
H149	H	0.723567	-0.066486	-0.418235
H150	H	1.223567	0.433514	0.081765
H151	H	0.805163	-0.145720	-0.373761
H152	H	1.305163	0.354280	0.126239
O153	O	0.570237	-0.000176	-0.047442
O154	O	1.070237	0.499824	0.452558
C155	C	0.547205	-0.086302	-0.092529
C156	C	1.047205	0.413698	0.407471
H157	H	0.525259	-0.146094	-0.041179
H158	H	1.025259	0.353906	0.458821
H159	H	0.603952	-0.114762	-0.138528
H160	H	1.103952	0.385238	0.361472
H161	H	0.493781	-0.067694	-0.134341
H162	H	0.993781	0.432306	0.365659
H163	H	0.535106	-0.150550	0.201947
H164	H	1.035106	0.349450	0.701947
O165	O	1.104957	0.763083	0.002606
O166	O	1.604957	1.263083	0.502606
C167	C	1.155301	0.694818	-0.051052
C168	C	1.655301	1.194818	0.448948
H169	H	1.156272	0.620604	-0.014380
H170	H	1.656272	1.120604	0.485620
H171	H	1.222368	0.724885	-0.064641
H172	H	1.722368	1.224885	0.435359
H173	H	1.127974	0.683763	-0.117524
H174	H	1.627974	1.183763	0.382476
O175	O	0.414688	-0.000202	0.292483
O176	O	0.914688	0.499798	0.792483
C177	C	0.437868	-0.086279	0.337565
C178	C	0.937868	0.413721	0.837565
H179	H	0.459727	-0.146096	0.286217
H180	H	0.959727	0.353904	0.786217
H181	H	0.381223	-0.114740	0.383720
H182	H	0.881223	0.385260	0.883720
H183	H	0.491394	-0.067606	0.379210
H184	H	0.991394	0.432394	0.879210
H185	H	0.535248	0.150534	0.201937
H186	H	1.035248	0.650534	0.701937
O187	O	0.879852	0.558168	0.242382
O188	O	1.379852	1.058168	0.742382
C189	C	0.829486	0.626430	0.296021
C190	C	1.329486	1.126430	0.796021
H191	H	0.863928	0.700633	0.297055
H192	H	1.363928	1.200633	0.797055
H193	H	0.816742	0.596341	0.367445
H194	H	1.316742	1.096341	0.867445
H195	H	0.767062	0.637516	0.266939
H196	H	1.267062	1.137516	0.766939
O197	O	0.879825	0.237085	0.242368
O198	O	1.379825	0.737085	0.742368
C199	C	0.829457	0.305347	0.296006
C200	C	1.329457	0.805347	0.796006
H201	H	0.863901	0.379548	0.297045
H202	H	1.363901	0.879548	0.797045
H203	H	0.816707	0.275256	0.367428
H204	H	1.316707	0.775256	0.867428
H205	H	0.767037	0.316436	0.266918
H206	H	1.267037	0.816436	0.766918
O207	O	0.445742	0.163816	0.035773
O208	O	0.945742	0.663816	0.535773
C209	C	0.485049	0.163493	-0.053414
C210	C	0.985049	0.663493	0.446586
H211	H	0.544450	0.115759	-0.057699
H212	H	1.044450	0.615759	0.442301
H213	H	0.502728	0.242796	-0.074863
H214	H	1.002728	0.742796	0.425137
H215	H	0.439756	0.131664	-0.099800
H216	H	0.939756	0.631664	0.400200
H217	H	1.095865	0.245123	0.012183
H218	H	1.595865	0.745123	0.512183
H219	H	1.095871	0.433979	0.012184
H220	H	1.595871	0.933979	0.512184
H221	H	0.888865	0.755060	0.232750
H222	H	1.388865	1.255060	0.732750
H223	H	1.135227	0.000121	-0.168370
H224	H	1.635227	0.500121	0.331630
