data_functionalizedCrystal
_audit_creation_method	'MofGen! by Chris Wilmer'
_symmetry_space_group_name_H-M	'P1'
_symmetry_Int_Tables_number	1
_symmetry_cell_setting	triclinic
loop_
_symmetry_equiv_pos_as_xyz
  x,y,z
_cell_length_a	16.992694
_cell_length_b	16.992695
_cell_length_c	15.455313
_cell_angle_alpha	92.847427
_cell_angle_beta	87.142206
_cell_angle_gamma	90.668223
loop_
_atom_site_label
_atom_site_type_symbol
_atom_site_fract_x
_atom_site_fract_y
_atom_site_fract_z
O1	O	1.054080	0.163694	-0.072023
O2	O	1.554080	0.663694	0.427977
O3	O	0.825681	0.161862	-0.072048
O4	O	1.325681	0.661862	0.427952
O5	O	0.938965	0.048579	-0.072029
O6	O	1.438965	0.548579	0.427971
O7	O	0.940797	0.276978	-0.072042
O8	O	1.440797	0.776978	0.427958
O9	O	0.932485	0.055028	0.072232
O10	O	1.432485	0.555028	0.572232
O11	O	0.819202	0.168312	0.072213
O12	O	1.319202	0.668312	0.572213
O13	O	1.047601	0.170144	0.072238
O14	O	1.547601	0.670144	0.572238
Cu15	Cu	0.932809	0.169817	0.085398
Cu16	Cu	1.432809	0.669817	0.585398
Cu17	Cu	0.940473	0.162189	-0.085207
Cu18	Cu	1.440473	0.662189	0.414793
O19	O	0.934317	0.283428	0.072219
O20	O	1.434317	0.783428	0.572219
C21	C	0.793081	0.162731	0.000079
C22	C	1.293081	0.662731	0.500079
C23	C	0.705597	0.155702	0.000070
C24	C	1.205597	0.655702	0.500070
C25	C	0.659607	0.223520	0.000066
C26	C	1.159607	0.723520	0.500066
C27	C	0.577405	0.216911	0.000079
C28	C	1.077405	0.716911	0.500079
C29	C	0.541197	0.142484	0.000088
C30	C	1.041197	0.642484	0.500088
C31	C	0.587193	0.074661	0.000094
C32	C	1.087193	0.574661	0.500094
C33	C	0.669393	0.081271	0.000088
C34	C	1.169393	0.581271	0.500088
C35	C	0.295881	0.115091	0.000113
C36	C	0.795881	0.615091	0.500113
C37	C	0.213676	0.108486	0.000116
C38	C	0.713676	0.608486	0.500116
C39	C	0.203893	0.250737	0.000103
C40	C	0.703893	0.750737	0.500103
C41	C	0.286095	0.257340	0.000091
C42	C	0.786095	0.757340	0.500091
C43	C	0.332084	0.189517	0.000102
C44	C	0.832084	0.689517	0.500102
N45	N	0.457174	0.135727	0.000098
N46	N	0.957174	0.635727	0.500098
N47	N	0.416105	0.196275	0.000098
N48	N	0.916105	0.696275	0.500098
C49	C	0.933369	0.022443	0.000102
C50	C	1.433369	0.522443	0.500102
C51	C	0.926341	-0.065041	0.000101
C52	C	1.426341	0.434959	0.500101
C53	C	0.994158	-0.111032	0.000109
C54	C	1.494158	0.388968	0.500109
C55	C	0.987550	-0.193233	0.000100
C56	C	1.487550	0.306767	0.500100
C57	C	0.913123	-0.229442	0.000089
C58	C	1.413123	0.270558	0.500089
C59	C	0.845300	-0.183445	0.000078
C60	C	1.345300	0.316555	0.500078
C61	C	0.851910	-0.101246	0.000081
C62	C	1.351910	0.398754	0.500081
C63	C	0.885729	-0.474757	0.000074
C64	C	1.385729	0.025243	0.500074
C65	C	0.879124	-0.556962	0.000074
C66	C	1.379124	-0.056962	0.500074
C67	C	1.021375	-0.566744	0.000094
C68	C	1.521375	-0.066744	0.500094
C69	C	1.027977	-0.484543	0.000102
C70	C	1.527977	0.015457	0.500102
C71	C	0.960155	-0.438554	0.000087
C72	C	1.460155	0.061446	0.500087
N73	N	0.906366	-0.313464	0.000082
N74	N	1.406366	0.186536	0.500082
N75	N	0.966913	-0.354533	0.000087
N76	N	1.466913	0.145467	0.500087
C77	C	1.080201	0.169275	0.000109
C78	C	1.580201	0.669275	0.500109
C79	C	1.167685	0.176304	0.000113
C80	C	1.667685	0.676304	0.500113
C81	C	0.939913	0.309563	0.000087
C82	C	1.439913	0.809563	0.500087
C83	C	0.946942	0.397047	0.000082
C84	C	1.446942	0.897047	0.500082
N85	N	0.927425	0.175181	0.205392
N86	N	1.427425	0.675181	0.705392
N87	N	0.945863	0.156819	-0.205202
N88	N	1.445863	0.656819	0.294798
C89	C	0.975571	0.127074	0.250795
C90	C	1.475571	0.627074	0.750795
C91	C	0.971507	0.131139	0.341602
C92	C	1.471507	0.631139	0.841602
C93	C	0.919301	0.183315	0.387005
C94	C	1.419301	0.683315	0.887005
C95	C	0.871149	0.231424	0.341596
C96	C	1.371149	0.731424	0.841596
C97	C	0.875210	0.227355	0.250791
C98	C	1.375210	0.727355	0.750791
C99	C	0.901772	0.200858	0.658584
C100	C	1.401772	0.700858	1.158584
C101	C	0.897717	0.204926	0.749395
C102	C	1.397717	0.704926	1.249395
C103	C	0.998074	0.104639	0.749395
C104	C	1.498074	0.604639	1.249395
C105	C	1.002133	0.100578	0.658588
C106	C	1.502133	0.600578	1.158588
C107	C	0.953979	0.148684	0.613187
C108	C	1.453979	0.648684	1.113187
N109	N	0.915147	0.187473	0.479825
N110	N	1.415147	0.687473	0.979825
N111	N	0.958129	0.144522	0.520369
N112	N	1.458129	0.644522	1.020369
H113	H	0.557705	0.014061	0.000114
H114	H	1.057705	0.514061	0.500114
H115	H	1.042774	-0.230675	0.000109
H116	H	1.542774	0.269325	0.500109
O117	O	0.785980	-0.056656	-0.000042
O118	O	1.285980	0.443344	0.499958
C119	C	0.744466	-0.077088	-0.074774
C120	C	1.244466	0.422912	0.425226
H121	H	0.761009	-0.139275	-0.099679
H122	H	1.261009	0.360725	0.400321
H123	H	0.678419	-0.074672	-0.057982
H124	H	1.178419	0.425328	0.442018
H125	H	0.760399	-0.033841	-0.127091
H126	H	1.260399	0.466159	0.372909
O127	O	1.018251	0.084300	0.385605
O128	O	1.518251	0.584300	0.885605
C129	C	1.001568	0.004568	0.363447
C130	C	1.501568	0.504568	0.863447
H131	H	0.974173	-0.000211	0.297524
H132	H	1.474173	0.499789	0.797524
H133	H	1.058457	-0.030585	0.360330
H134	H	1.558457	0.469415	0.860330
H135	H	0.958585	-0.019974	0.414567
H136	H	1.458585	0.480026	0.914567
O137	O	1.044803	0.057791	0.793405
O138	O	1.544803	0.557791	1.293405
C139	C	1.028097	-0.021936	0.771245
C140	C	1.528097	0.478064	1.271245
H141	H	1.000712	-0.026707	0.705317
H142	H	1.500712	0.473293	1.205317
H143	H	1.084975	-0.057107	0.768140
H144	H	1.584975	0.442893	1.268140
H145	H	0.985099	-0.046464	0.822359
H146	H	1.485099	0.453536	1.322359
H147	H	1.044644	0.058092	0.621622
H148	H	1.544644	0.558092	1.121622
H149	H	0.333316	0.059864	0.000122
H150	H	0.833316	0.559864	0.500122
O151	O	1.066520	-0.075991	0.000079
O152	O	1.566520	0.424009	0.500079
C153	C	1.124958	-0.134213	0.000104
C154	C	1.624958	0.365787	0.500104
H155	H	1.100620	-0.192592	-0.027210
H156	H	1.600620	0.307408	0.472790
H157	H	1.178492	-0.115758	-0.041776
H158	H	1.678492	0.384242	0.458224
H159	H	1.143019	-0.141370	0.069314
H160	H	1.643019	0.358630	0.569314
H161	H	1.088584	-0.455068	0.000112
H162	H	1.588584	0.044932	0.500112
O163	O	0.846923	0.255623	0.793367
O164	O	1.346923	0.755623	1.293367
C165	C	0.805301	0.297220	0.733825
C166	C	1.305301	0.797220	1.233825
H167	H	0.805291	0.261993	0.669099
H168	H	1.305291	0.761993	1.169099
H169	H	0.742014	0.306414	0.760072
H170	H	1.242014	0.806414	1.260072
H171	H	0.834941	0.356889	0.724156
H172	H	1.334941	0.856889	1.224156
H173	H	1.076591	-0.604197	0.000106
H174	H	1.576591	-0.104197	0.500106
H175	H	0.818513	-0.586440	0.000079
H176	H	1.318513	-0.086440	0.500079
H177	H	1.018087	0.084591	0.213834
H178	H	1.518087	0.584591	0.713834
H179	H	0.862564	0.240030	0.621625
H180	H	1.362564	0.740030	1.121625
O181	O	0.819766	-0.430205	0.000109
O182	O	1.319766	0.069795	0.500109
C183	C	0.752662	-0.479794	0.000083
C184	C	1.252662	0.020206	0.500083
H185	H	0.767581	-0.538604	0.027393
H186	H	1.267581	-0.038604	0.527393
H187	H	0.702947	-0.450756	0.041966
H188	H	1.202947	0.049244	0.541966
H189	H	0.733194	-0.490122	-0.069127
H190	H	1.233194	0.009878	0.430873
H191	H	0.706838	0.026046	0.000090
H192	H	1.206838	0.526046	0.500090
O193	O	0.820504	0.282089	0.385833
O194	O	1.320504	0.782089	0.885833
C195	C	0.827230	0.275355	0.475716
C196	C	1.327230	0.775355	0.975716
H197	H	0.887417	0.250447	0.488115
H198	H	1.387417	0.750447	0.988115
H199	H	0.820662	0.335962	0.510215
H200	H	1.320662	0.835962	1.010215
H201	H	0.779050	0.234210	0.501501
H202	H	1.279050	0.734210	1.001501
O203	O	0.532687	0.282771	0.000220
O204	O	1.032687	0.782771	0.500220
C205	C	0.481487	0.286544	0.074925
C206	C	0.981487	0.786544	0.574925
H207	H	0.506698	0.250519	0.127155
H208	H	1.006698	0.750519	0.627155
H209	H	0.475100	0.350498	0.099989
H210	H	0.975100	0.850498	0.599989
H211	H	0.421262	0.261666	0.058042
H212	H	0.921262	0.761666	0.558042
O213	O	0.828413	0.274168	0.206818
O214	O	1.328413	0.774168	0.706818
C215	C	0.781449	0.321080	0.266362
C216	C	1.281449	0.821080	0.766362
H217	H	0.810885	0.326913	0.331086
H218	H	1.310885	0.826913	0.831086
H219	H	0.774548	0.382010	0.240114
H220	H	1.274548	0.882010	0.740114
H221	H	0.720941	0.292253	0.276033
H222	H	1.220941	0.792253	0.776033
H223	H	0.689081	0.284126	0.000058
H224	H	1.189081	0.784126	0.500058
O225	O	0.773050	-0.218713	-0.000049
O226	O	1.273050	0.281287	0.499951
C227	C	0.768321	-0.269290	-0.074774
C228	C	1.268321	0.230710	0.425226
H229	H	0.830202	-0.286964	-0.099676
H230	H	1.330202	0.213036	0.400324
H231	H	0.732817	-0.324271	-0.057974
H232	H	1.232817	0.175729	0.442026
H233	H	0.738119	-0.237533	-0.127096
H234	H	1.238119	0.262467	0.372904
O235	O	0.321137	0.329701	0.000126
O236	O	0.821137	0.829701	0.500126
C237	C	0.262918	0.388143	0.000104
C238	C	0.762918	0.888143	0.500104
H239	H	0.204534	0.363804	0.027421
H240	H	0.704534	0.863804	0.527421
H241	H	0.281371	0.441669	0.041982
H242	H	0.781371	0.941669	0.541982
H243	H	0.255770	0.406214	-0.069106
H244	H	0.755770	0.906214	0.430894
H245	H	0.166440	0.305954	0.000096
H246	H	0.666440	0.805954	0.500096
O247	O	0.178376	0.036242	0.000095
O248	O	0.678376	0.536242	0.500095
C249	C	0.095963	0.044957	0.000118
C250	C	0.595963	0.544957	0.500118
H251	H	0.081759	0.103956	-0.027207
H252	H	0.581759	0.603956	0.472793
H253	H	0.069720	-0.004853	-0.041754
H254	H	0.569720	0.495147	0.458246
H255	H	0.069767	0.042816	0.069329
H256	H	0.569767	0.542816	0.569329
