data_functionalizedCrystal
_audit_creation_method	'MofGen! by Chris Wilmer'
_symmetry_space_group_name_H-M	'P1'
_symmetry_Int_Tables_number	1
_symmetry_cell_setting	triclinic
loop_
_symmetry_equiv_pos_as_xyz
  x,y,z
_cell_length_a	9.065218
_cell_length_b	10.654550
_cell_length_c	9.130313
_cell_angle_alpha	90.001310
_cell_angle_beta	89.996848
_cell_angle_gamma	84.750394
loop_
_atom_site_label
_atom_site_type_symbol
_atom_site_fract_x
_atom_site_fract_y
_atom_site_fract_z
O1	O	-1.959393	-0.184151	0.121799
O2	O	-1.530025	-0.199256	0.121801
O3	O	-1.754581	-0.009003	0.121794
O4	O	-1.734837	-0.374404	0.121805
O5	O	-1.754566	-0.009015	-0.121804
O6	O	-1.530010	-0.199267	-0.121798
O7	O	-1.959377	-0.184162	-0.121800
Cu8	Cu	-1.744692	-0.191716	-0.144041
Cu9	Cu	-1.744710	-0.191702	0.144042
O10	O	-1.734822	-0.374415	-0.121793
C11	C	-1.475039	-0.197810	0.000002
C12	C	-1.311220	-0.193469	0.000002
C13	C	-2.014364	-0.185608	0.000003
C14	C	-2.178183	-0.189949	0.000012
C15	C	-1.753124	0.037795	-0.000003
C16	C	-1.748786	0.177255	0.000002
C17	C	-1.736279	-0.421213	0.000007
C18	C	-1.740616	-0.560673	0.000012
C19	C	-1.881001	0.256217	-0.000003
C20	C	-1.876917	0.387254	0.000007
C21	C	-1.608391	0.360354	0.000021
C22	C	-1.612477	0.229320	0.000021
C23	C	-2.036032	0.271749	-0.000017
C24	C	-2.031948	0.402786	-0.000007
N25	N	-1.744690	-0.191725	-0.346664
C26	C	-1.834950	-0.268957	-0.423328
C27	C	-1.834971	-0.268934	-0.576665
C28	C	-1.654461	-0.114443	-0.576660
C29	C	-1.654448	-0.114460	-0.423326
C30	C	-1.939162	-0.358155	-0.423332
C31	C	-1.939183	-0.358132	-0.576669
N32	N	-1.744724	-0.191684	0.346665
H33	H	-1.504815	0.165033	0.000046
H34	H	-2.096677	0.242155	0.101921
H35	H	-2.078807	0.448248	0.105172
N36	N	-1.877661	-0.483177	-0.360350
H37	H	-1.879898	-0.478626	-0.249870
H38	H	-1.772165	-0.503011	-0.394602
H39	H	-1.580989	-0.051537	-0.639097
H40	H	-2.090355	0.444310	-0.101951
H41	H	-2.055528	-0.327759	-0.381701
H42	H	-2.050310	-0.319095	-0.624203
N43	N	-1.891055	-0.489115	-0.631841
H44	H	-1.869552	-0.547581	-0.545863
H45	H	-1.798746	-0.486792	-0.693353
H46	H	-1.497413	0.402762	0.000038
N47	N	-1.557121	-0.031141	-0.340635
H48	H	-1.499958	0.017805	-0.412471
H49	H	-1.485537	-0.085041	-0.277030
H50	H	-2.085393	0.235922	-0.105199
