data_functionalizedCrystal
_audit_creation_method	'MofGen! by Chris Wilmer'
_symmetry_space_group_name_H-M	'P1'
_symmetry_Int_Tables_number	1
_symmetry_cell_setting	triclinic
loop_
_symmetry_equiv_pos_as_xyz
  x,y,z
_cell_length_a	16.120530
_cell_length_b	29.839131
_cell_length_c	16.120297
_cell_angle_alpha	87.139604
_cell_angle_beta	89.871860
_cell_angle_gamma	87.130172
loop_
_atom_site_label
_atom_site_type_symbol
_atom_site_fract_x
_atom_site_fract_y
_atom_site_fract_z
Zn1	Zn	1.247358	-0.227599	0.534475
Zn2	Zn	1.254283	-0.299116	0.395389
Zn3	Zn	1.115351	-0.220008	0.388396
Zn4	Zn	1.108240	-0.298702	0.527358
O5	O	1.181308	-0.261356	0.461404
O6	O	1.364642	-0.240436	0.521930
O7	O	1.241728	-0.285618	0.278097
O8	O	1.132941	-0.158151	0.407825
O9	O	1.369730	-0.292979	0.419744
O10	O	1.229925	-0.163729	0.515149
O11	O	1.139655	-0.227498	0.272959
O12	O	0.998043	-0.227097	0.400925
O13	O	1.120820	-0.292274	0.644667
O14	O	0.992818	-0.284913	0.503020
O15	O	1.223030	-0.240035	0.649895
O16	O	1.234832	-0.361924	0.412843
O17	O	1.127535	-0.361621	0.509801
C18	C	0.965258	-0.255137	0.450442
C19	C	0.872830	-0.252487	0.445771
C20	C	1.181185	-0.378073	0.461328
C21	C	1.181207	-0.428008	0.461327
C22	C	0.703603	-0.247639	0.437252
C23	C	0.659851	-0.275108	0.485618
C24	C	0.565687	-0.272411	0.480877
C25	C	0.797775	-0.250336	0.441991
C26	C	1.231793	-0.740528	0.517363
C27	C	1.231881	-0.928204	0.517418
O28	O	1.274769	-0.954909	0.565003
N29	N	1.181445	-0.948805	0.461504
C30	C	1.130979	-0.922483	0.405576
O31	O	1.088076	-0.944311	0.358025
C32	C	1.130888	-0.734807	0.405526
C33	C	1.181333	-0.714209	0.461438
C34	C	1.282233	-0.719930	0.573271
C35	C	1.282214	-0.673013	0.573254
C36	C	1.231755	-0.646695	0.517329
C37	C	1.181314	-0.667293	0.461421
C38	C	1.080419	-0.708486	0.349603
C39	C	1.080399	-0.661564	0.349597
C40	C	1.130844	-0.640966	0.405509
C41	C	1.130836	-0.594058	0.405479
N42	N	1.181271	-0.573457	0.461392
C43	C	1.231731	-0.599776	0.517317
C44	C	1.131032	-1.021016	0.405605
C45	C	1.131056	-1.067934	0.405617
C46	C	1.231956	-1.073653	0.517459
C47	C	1.231936	-1.026733	0.517443
C48	C	1.181468	-1.000415	0.461519
C49	C	1.231688	-0.501248	0.517276
C50	C	1.231667	-0.454327	0.517252
C51	C	1.130763	-0.448613	0.405413
C52	C	1.130787	-0.495529	0.405434
C53	C	1.181252	-0.521846	0.461373
O54	O	1.087963	-0.567325	0.357924
O55	O	1.274614	-0.577939	0.564874
C56	C	1.231812	-0.787444	0.517380
C57	C	1.181371	-0.808042	0.461472
C58	C	1.130912	-0.781723	0.405547
C59	C	1.181395	-0.854961	0.461484
C60	C	1.231855	-0.881279	0.517409
C61	C	1.282291	-0.860679	0.573323
C62	C	1.282272	-0.813762	0.573305
C63	C	1.080476	-0.802324	0.349634
C64	C	1.080500	-0.849241	0.349655
C65	C	1.130960	-0.875559	0.405580
C66	C	1.398202	-0.267601	0.472411
C67	C	1.490629	-0.270262	0.477101
C68	C	1.170359	-0.266955	0.678296
C69	C	1.165693	-0.269341	0.770723
C70	C	1.181454	-0.144185	0.461501
C71	C	1.181516	-0.094253	0.461542
C72	C	1.192263	-0.255748	0.245359
C73	C	1.197090	-0.253240	0.152941
C74	C	1.157144	-0.273686	0.939946
C75	C	1.205637	-0.248896	0.983723
C76	C	1.200880	-0.251314	1.077885
C77	C	1.161900	-0.271269	0.845776
H78	H	0.670342	-0.222100	0.392288
H79	H	1.112060	-0.296724	0.973182
H80	H	1.273044	-1.095089	0.562995
H81	H	1.323323	-0.741354	0.618817
C82	C	1.347809	-0.230389	0.963953
C83	C	1.266505	-0.217795	0.938853
H84	H	1.385382	-0.211188	0.936250
H85	H	1.360633	-0.260563	0.950371
H86	H	1.352553	-0.227950	1.022263
H87	H	1.261760	-0.220238	0.880543
H88	H	1.253677	-0.187614	0.952429
H89	H	1.323380	-0.882116	0.618856
C90	C	0.684687	-0.353011	0.527167
C91	C	0.704748	-0.309593	0.546319
H92	H	0.712405	-0.374299	0.564642
H93	H	0.701673	-0.358487	0.471977
H94	H	0.626378	-0.355693	0.531908
H95	H	0.763057	-0.306910	0.541572
H96	H	0.687768	-0.304115	0.601523
C97	C	1.331401	-0.464700	0.627813
C98	C	1.287115	-0.431687	0.578719
H99	H	1.365626	-0.450723	0.665762
H100	H	1.365073	-0.482975	0.593230
H101	H	1.293537	-0.482785	0.657751
H102	H	1.324979	-0.413603	0.548776
H103	H	1.253440	-0.413403	0.613306
C104	C	1.237536	-0.557181	0.629757
C105	C	1.287159	-0.530172	0.578762
H106	H	1.271785	-0.575036	0.667715
H107	H	1.207510	-0.576165	0.596465
H108	H	1.199670	-0.538657	0.659685
H109	H	1.325021	-0.548696	0.548829
H110	H	1.317199	-0.511186	0.612057
H111	H	1.323289	-0.656245	0.618784
H112	H	1.273013	-1.009966	0.562972
H113	H	1.089988	-1.084701	0.360079
C114	C	1.031310	-1.020086	0.295046
C115	C	1.075562	-0.992091	0.344118
H116	H	0.997072	-1.002230	0.257081
H117	H	0.997654	-1.038408	0.329640
H118	H	1.069195	-1.038603	0.265125
H119	H	1.037676	-0.973576	0.374044
H120	H	1.109221	-0.973761	0.309520
H121	H	1.039299	-0.640138	0.304058
C122	C	0.980665	-0.698100	0.239073
C123	C	1.024960	-0.731118	0.288148
H124	H	0.946420	-0.712073	0.201136
H125	H	1.018518	-0.680018	0.209129
H126	H	0.947005	-0.679822	0.273675
H127	H	1.058624	-0.749394	0.253547
H128	H	0.987102	-0.749208	0.318095
H129	H	1.089682	-0.427177	0.359877
C130	C	1.031048	-0.485162	0.294883
C131	C	1.075340	-0.518173	0.343974
H132	H	0.996808	-0.499140	0.256948
H133	H	1.068902	-0.467081	0.264935
H134	H	0.997382	-0.466880	0.329474
H135	H	1.109010	-0.536452	0.309383
H136	H	1.037481	-0.536261	0.373924
C137	C	1.382001	-0.824142	0.683859
C138	C	1.337716	-0.791126	0.634773
H139	H	1.416226	-0.810168	0.721812
H140	H	1.415671	-0.842416	0.649273
H141	H	1.344135	-0.842229	0.713793
H142	H	1.375582	-0.773041	0.604834
H143	H	1.304043	-0.772844	0.669363
C144	C	0.941774	-0.858657	0.301906
C145	C	1.025042	-0.871878	0.288193
H146	H	0.907535	-0.872634	0.263970
H147	H	0.934556	-0.826951	0.293894
H148	H	0.926758	-0.867429	0.357154
H149	H	1.040060	-0.863103	0.232947
H150	H	1.032264	-0.903591	0.296198
H151	H	1.039385	-0.780899	0.304094
