data_functionalizedCrystal
_audit_creation_method	'MofGen! by Chris Wilmer'
_symmetry_space_group_name_H-M	'P1'
_symmetry_Int_Tables_number	1
_symmetry_cell_setting	triclinic
loop_
_symmetry_equiv_pos_as_xyz
  x,y,z
_cell_length_a	21.295418
_cell_length_b	21.295417
_cell_length_c	21.295412
_cell_angle_alpha	89.969332
_cell_angle_beta	89.957310
_cell_angle_gamma	90.046319
loop_
_atom_site_label
_atom_site_type_symbol
_atom_site_fract_x
_atom_site_fract_y
_atom_site_fract_z
Zn1	Zn	0.962349	-0.250359	-0.356234
Zn2	Zn	1.462349	0.249641	0.143766
Zn3	Zn	0.962254	-0.355628	-0.250959
Zn4	Zn	1.462254	0.144372	0.249041
Zn5	Zn	0.857074	-0.250405	-0.250943
Zn6	Zn	1.357074	0.249595	0.249057
Zn7	Zn	0.857042	-0.355623	-0.356155
Zn8	Zn	1.357042	0.144377	0.143845
O9	O	0.909680	-0.303004	-0.303573
O10	O	1.409680	0.196996	0.196427
O11	O	1.050426	-0.264306	-0.342308
O12	O	1.550426	0.235694	0.157692
O13	O	0.948275	-0.341691	-0.162868
O14	O	1.448275	0.158309	0.337132
O15	O	0.871093	-0.162310	-0.264937
O16	O	1.371093	0.337690	0.235063
O17	O	1.050356	-0.341646	-0.264963
O18	O	1.550356	0.158354	0.235037
O19	O	0.948438	-0.162276	-0.342293
O20	O	1.448438	0.337724	0.157707
O21	O	0.871000	-0.264384	-0.162856
O22	O	1.371000	0.235616	0.337144
O23	O	0.768981	-0.264380	-0.264861
O24	O	1.268981	0.235620	0.235139
O25	O	0.871038	-0.341639	-0.444255
O26	O	1.371038	0.158361	0.055745
O27	O	0.768957	-0.341684	-0.342160
O28	O	1.268957	0.158316	0.157840
O29	O	0.948406	-0.264302	-0.444313
O30	O	1.448406	0.235698	0.055687
O31	O	0.948243	-0.443716	-0.264887
O32	O	1.448243	0.056284	0.235113
O33	O	0.870945	-0.443713	-0.342175
O34	O	1.370945	0.056287	0.157825
C35	C	0.746128	-0.303037	-0.303500
C36	C	1.246128	0.196963	0.196500
C37	C	0.676160	-0.303066	-0.303484
C38	C	1.176160	0.196934	0.196516
C39	C	0.643297	-0.343371	-0.343674
C40	C	1.143297	0.156629	0.156326
C41	C	0.577555	-0.343356	-0.343702
C42	C	1.077555	0.156644	0.156298
C43	C	0.544678	-0.303042	-0.303530
C44	C	1.044678	0.196958	0.196470
C45	C	0.577548	-0.262729	-0.263337
C46	C	1.077548	0.237271	0.236663
C47	C	0.643289	-0.262741	-0.263315
C48	C	1.143289	0.237259	0.236685
N49	N	0.441403	-0.298123	-0.248472
N50	N	0.941403	0.201877	0.251528
N51	N	0.378951	-0.298116	-0.248495
N52	N	0.878951	0.201884	0.251505
C53	C	0.346603	-0.303002	-0.303596
C54	C	0.846603	0.196998	0.196404
N55	N	0.379065	-0.307908	-0.358675
N56	N	0.879065	0.192092	0.141325
N57	N	0.441522	-0.307920	-0.358650
N58	N	0.941522	0.192080	0.141350
C59	C	0.473392	-0.303024	-0.303550
C60	C	0.973392	0.196976	0.196450
C61	C	0.242455	-0.343292	-0.343820
C62	C	0.742455	0.156708	0.156180
C63	C	0.176711	-0.343272	-0.343849
C64	C	0.676711	0.156728	0.156151
C65	C	0.176706	-0.262649	-0.263479
C66	C	0.676706	0.237351	0.236521
C67	C	0.242448	-0.262665	-0.263455
C68	C	0.742448	0.237335	0.236545
C69	C	0.275319	-0.302990	-0.303625
C70	C	0.775319	0.197010	0.196375
C71	C	0.909597	-0.466556	-0.303538
C72	C	1.409597	0.033444	0.196462
C73	C	0.909620	-0.536524	-0.303544
C74	C	1.409620	-0.036524	0.196456
C75	C	0.949905	-0.569371	-0.263342
C76	C	1.449905	-0.069371	0.236658
C77	C	0.949934	-0.635113	-0.263356
C78	C	1.449934	-0.135113	0.236644
C79	C	0.909667	-0.668006	-0.303566
C80	C	1.409667	-0.168006	0.196434
C81	C	0.869379	-0.635151	-0.343776
C82	C	1.369379	-0.135151	0.156224
C83	C	0.869355	-0.569410	-0.343765
C84	C	1.369355	-0.069410	0.156235
N85	N	0.854600	-0.771287	-0.308340
N86	N	1.354600	-0.271287	0.191660
N87	N	0.854625	-0.833739	-0.308347
N88	N	1.354625	-0.333739	0.191653
C89	C	0.909738	-0.866081	-0.303602
C90	C	1.409738	-0.366081	0.196398
N91	N	0.964827	-0.833612	-0.298838
N92	N	1.464827	-0.333612	0.201162
N93	N	0.964802	-0.771155	-0.298828
N94	N	1.464802	-0.271155	0.201172
C95	C	0.909689	-0.739291	-0.303582
C96	C	1.409689	-0.239291	0.196418
C97	C	0.950058	-0.970214	-0.263413
C98	C	1.450058	-0.470214	0.236587
C99	C	0.950089	-1.035957	-0.263431
C100	C	1.450089	-0.535957	0.236569
C101	C	0.869528	-1.035993	-0.343848
C102	C	1.369528	-0.535993	0.156152
C103	C	0.869504	-0.970251	-0.343833
C104	C	1.369504	-0.470251	0.156167
C105	C	0.909768	-0.937365	-0.303612
C106	C	1.409768	-0.437365	0.196388
C107	C	1.073870	-0.302971	-0.303646
C108	C	1.573870	0.197029	0.196354
C109	C	1.143838	-0.302957	-0.303677
C110	C	1.643838	0.197043	0.196323
C111	C	0.909729	-0.302965	-0.467763
C112	C	1.409729	0.197035	0.032237
C113	C	0.909750	-0.302948	-0.537731
C114	C	1.409750	0.197052	-0.037731
C115	C	0.909780	-0.138814	-0.303622
C116	C	1.409780	0.361186	0.196378
C117	C	0.909822	-0.068845	-0.303642
C118	C	1.409822	0.431155	0.196358
C119	C	0.869524	-0.262690	-0.570582
C120	C	1.369524	0.237310	-0.070582
C121	C	0.869522	-0.262678	-0.636325
C122	C	1.369522	0.237322	-0.136325
C123	C	0.909757	-0.302918	-0.669214
C124	C	1.409757	0.197082	-0.169214
C125	C	0.949986	-0.343184	-0.636355
C126	C	1.449986	0.156816	-0.136355
C127	C	0.949983	-0.343199	-0.570614
C128	C	1.449983	0.156801	-0.070614
N129	N	0.964861	-0.307710	-0.772471
N130	N	1.464861	0.192290	-0.272471
N131	N	0.964863	-0.307692	-0.834922
N132	N	1.464863	0.192308	-0.334922
C133	C	0.909768	-0.302876	-0.867289
C134	C	1.409768	0.197124	-0.367289
N135	N	0.854671	-0.298066	-0.834845
N136	N	1.354671	0.201934	-0.334845
N137	N	0.854671	-0.298081	-0.772387
N138	N	1.354671	0.201919	-0.272387
C139	C	0.909765	-0.302906	-0.740499
C140	C	1.409765	0.197094	-0.240499
C141	C	0.869536	-0.262603	-0.971425
C142	C	1.369536	0.237397	-0.471425
C143	C	0.869533	-0.262596	-1.037169
C144	C	1.369533	0.237404	-0.537169
C145	C	0.950003	-0.343098	-1.037198
C146	C	1.450003	0.156902	-0.537198
C147	C	0.950001	-0.343109	-0.971456
C148	C	1.450001	0.156891	-0.471456
C149	C	0.909768	-0.302858	-0.938573
C150	C	1.409768	0.197142	-0.438573
C151	C	0.909667	-0.302997	-0.140021
C152	C	1.409667	0.197003	0.359979
C153	C	0.909768	-0.302837	-0.070054
C154	C	1.409768	0.197163	0.429946
H155	H	0.149955	-0.376092	-0.376580
H156	H	0.649955	0.123908	0.123420
O157	O	0.542093	-0.219259	-0.219993
O158	O	1.042093	0.280741	0.280007
H159	H	0.490858	-0.226031	-0.226751
H160	H	0.990858	0.273969	0.273249
H161	H	0.982759	-0.375890	-0.944708
H162	H	1.482759	0.124110	-0.444708
O163	O	0.826146	-0.219247	-0.671775
O164	O	1.326146	0.280753	-0.171775
H165	H	0.776728	-0.230038	-0.659127
H166	H	1.276728	0.269962	-0.159127
O167	O	0.678747	-0.386862	-0.387003
O168	O	1.178747	0.113138	0.112997
H169	H	0.729983	-0.380104	-0.380233
H170	H	1.229983	0.119896	0.119767
H171	H	0.836550	-0.542665	-0.376503
H172	H	1.336550	-0.042665	0.123497
O173	O	0.826147	-0.219171	-1.072606
O174	O	1.326147	0.280829	-0.572606
H175	H	0.798177	-0.191181	-1.038693
H176	H	1.298177	0.308819	-0.538693
O177	O	0.993383	-0.386614	-0.535181
O178	O	1.493383	0.113386	-0.035181
H179	H	0.982564	-0.436020	-0.547776
H180	H	1.482564	0.063980	-0.047776
H181	H	0.982846	-0.943437	-0.230664
H182	H	1.482846	-0.443437	0.269336
H183	H	0.836595	-0.661936	-0.376516
H184	H	1.336595	-0.161936	0.123484
H185	H	0.836697	-0.943505	-0.376567
H186	H	1.336697	-0.443505	0.123433
H187	H	0.269205	-0.229847	-0.230726
H188	H	0.769205	0.270153	0.269274
H189	H	0.836776	-0.229829	-0.944651
H190	H	1.336776	0.270171	-0.444651
H191	H	0.982741	-0.661863	-0.230619
H192	H	1.482741	-0.161863	0.269381
O193	O	0.678741	-0.219280	-0.219954
O194	O	1.178741	0.280720	0.280046
H195	H	0.644837	-0.191247	-0.192019
H196	H	1.144837	0.308753	0.307981
H197	H	0.982765	-0.375861	-1.063976
H198	H	1.482765	0.124139	-0.563976
O199	O	0.542103	-0.386832	-0.387051
O200	O	1.042103	0.113168	0.112949
H201	H	0.490866	-0.380046	-0.380320
H202	H	0.990866	0.119954	0.119680
O203	O	0.826099	-1.071465	-0.387219
O204	O	1.326099	-0.571465	0.112781
H205	H	0.798082	-1.037576	-0.415175
H206	H	1.298082	-0.537576	0.084825
H207	H	0.149937	-0.229821	-0.230773
H208	H	0.649937	0.270179	0.269227
O209	O	0.993339	-0.533899	-0.219972
O210	O	1.493339	-0.033899	0.280028
H211	H	1.021362	-0.567789	-0.192024
H212	H	1.521362	-0.067789	0.307976
H213	H	0.982898	-1.062700	-0.230695
H214	H	1.482898	-0.562700	0.269305
H215	H	0.836761	-0.229917	-0.543813
H216	H	1.336761	0.270083	-0.043813
O217	O	0.277916	-0.386774	-0.387150
O218	O	0.777916	0.113226	0.112850
H219	H	0.244016	-0.414791	-0.415111
H220	H	0.744016	0.085209	0.084889
H221	H	0.982746	-0.375947	-0.663138
H222	H	1.482746	0.124053	-0.163138
