data_functionalizedCrystal
_audit_creation_method	'MofGen! by Chris Wilmer'
_symmetry_space_group_name_H-M	'P1'
_symmetry_Int_Tables_number	1
_symmetry_cell_setting	triclinic
loop_
_symmetry_equiv_pos_as_xyz
  x,y,z
_cell_length_a	16.120490
_cell_length_b	16.120444
_cell_length_c	11.169417
_cell_angle_alpha	87.114796
_cell_angle_beta	92.899011
_cell_angle_gamma	90.165174
loop_
_atom_site_label
_atom_site_type_symbol
_atom_site_fract_x
_atom_site_fract_y
_atom_site_fract_z
Zn1	Zn	1.254309	-0.395826	0.798891
Zn2	Zn	1.504309	-0.145826	1.048891
Zn3	Zn	1.754309	0.104174	1.298891
Zn4	Zn	2.004309	0.354174	1.548891
Zn5	Zn	1.247188	-0.534851	0.607815
Zn6	Zn	1.497188	-0.284851	0.857815
Zn7	Zn	1.747188	-0.034851	1.107815
Zn8	Zn	1.997188	0.215149	1.357815
Zn9	Zn	1.115291	-0.388746	0.587567
Zn10	Zn	1.365291	-0.138746	0.837567
Zn11	Zn	1.615291	0.111254	1.087567
Zn12	Zn	1.865291	0.361254	1.337567
Zn13	Zn	1.108159	-0.527772	0.797800
Zn14	Zn	1.358159	-0.277772	1.047800
Zn15	Zn	1.608159	-0.027772	1.297800
Zn16	Zn	1.858159	0.222228	1.547800
O17	O	1.181237	-0.461799	0.698018
O18	O	1.431237	-0.211799	0.948018
O19	O	1.681237	0.038201	1.198018
O20	O	1.931237	0.288201	1.448018
O21	O	1.369728	-0.420194	0.782475
O22	O	1.619728	-0.170194	1.032475
O23	O	1.869728	0.079806	1.282475
O24	O	2.119728	0.329806	1.532475
O25	O	1.229696	-0.515469	0.437179
O26	O	1.479696	-0.265469	0.687179
O27	O	1.729696	-0.015469	0.937179
O28	O	1.979696	0.234531	1.187179
O29	O	1.139697	-0.273321	0.607582
O30	O	1.389697	-0.023321	0.857582
O31	O	1.639697	0.226679	1.107582
O32	O	1.889697	0.476679	1.357582
O33	O	1.364496	-0.522334	0.642092
O34	O	1.614496	-0.272334	0.892092
O35	O	1.864496	-0.022334	1.142092
O36	O	2.114496	0.227666	1.392092
O37	O	1.241833	-0.278522	0.762841
O38	O	1.491833	-0.028522	1.012841
O39	O	1.741833	0.221478	1.262841
O40	O	1.991833	0.471478	1.512841
O41	O	1.132792	-0.408127	0.422303
O42	O	1.382792	-0.158127	0.672303
O43	O	1.632792	0.091873	0.922303
O44	O	1.882792	0.341873	1.172303
O45	O	0.997981	-0.401263	0.606524
O46	O	1.247981	-0.151263	0.856524
O47	O	1.497981	0.098737	1.106524
O48	O	1.747981	0.348737	1.356524
O49	O	1.127542	-0.510269	0.965894
O50	O	1.377542	-0.260269	1.215894
O51	O	1.627542	-0.010269	1.465894
O52	O	1.877542	0.239731	1.715894
O53	O	0.992741	-0.503404	0.760981
O54	O	1.242741	-0.253404	1.010981
O55	O	1.492741	-0.003404	1.260981
O56	O	1.742741	0.246596	1.510981
O57	O	1.234918	-0.413330	0.966696
O58	O	1.484918	-0.163330	1.216696
O59	O	1.734918	0.086670	1.466696
O60	O	1.984918	0.336670	1.716696
O61	O	1.222781	-0.650276	0.641034
O62	O	1.472781	-0.400276	0.891034
O63	O	1.722781	-0.150276	1.141034
O64	O	1.972781	0.099724	1.391034
O65	O	1.120637	-0.645075	0.780615
O66	O	1.370637	-0.395075	1.030615
O67	O	1.620637	-0.145075	1.280615
O68	O	1.870637	0.104925	1.530615
C69	C	0.965189	-0.450798	0.681438
C70	C	1.215189	-0.200798	0.931438
C71	C	1.465189	0.049202	1.181438
C72	C	1.715189	0.299202	1.431438
C73	C	0.872762	-0.446111	0.674375
C74	C	1.122762	-0.196111	0.924375
C75	C	1.372762	0.053889	1.174375
C76	C	1.622762	0.303889	1.424375
C77	C	0.659780	-0.486101	0.734658
C78	C	0.909780	-0.236101	0.984658
C79	C	1.159780	0.013899	1.234658
C80	C	1.409780	0.263899	1.484658
C81	C	0.703542	-0.437563	0.661478
C82	C	0.953542	-0.187563	0.911478
C83	C	1.203542	0.062437	1.161478
C84	C	1.453542	0.312437	1.411478
C85	C	0.797705	-0.442321	0.668656
C86	C	1.047705	-0.192321	0.918656
C87	C	1.297705	0.057679	1.168656
C88	C	1.547705	0.307679	1.418656
C89	C	0.565608	-0.481344	0.727481
C90	C	0.815608	-0.231344	0.977481
C91	C	1.065608	0.018656	1.227481
C92	C	1.315608	0.268656	1.477481
C93	C	1.170185	-0.677849	0.712931
C94	C	1.420185	-0.427849	0.962931
C95	C	1.670185	-0.177849	1.212931
C96	C	1.920185	0.072151	1.462931
C97	C	1.165532	-0.770280	0.719357
C98	C	1.415532	-0.520280	0.969357
C99	C	1.665532	-0.270280	1.219357
C100	C	1.915532	-0.020280	1.469357
C101	C	1.205574	-0.983246	0.664958
C102	C	1.455574	-0.733246	0.914958
C103	C	1.705574	-0.483246	1.164958
C104	C	1.955574	-0.233246	1.414958
C105	C	1.157054	-0.939508	0.731103
C106	C	1.407054	-0.689508	0.981103
C107	C	1.657054	-0.439508	1.231103
C108	C	1.907054	-0.189508	1.481103
C109	C	1.161773	-0.845341	0.724565
C110	C	1.411773	-0.595341	0.974565
C111	C	1.661773	-0.345341	1.224565
C112	C	1.911773	-0.095341	1.474565
C113	C	1.200856	-1.077422	0.671494
C114	C	1.450856	-0.827422	0.921494
C115	C	1.700856	-0.577422	1.171494
C116	C	1.950856	-0.327422	1.421494
C117	C	1.398128	-0.472843	0.714664
C118	C	1.648128	-0.222843	0.964664
C119	C	1.898128	0.027157	1.214664
C120	C	2.148128	0.277157	1.464664
C121	C	1.490554	-0.477550	0.721757
C122	C	1.740554	-0.227550	0.971757
C123	C	1.990554	0.022450	1.221757
C124	C	2.240554	0.272450	1.471757
C125	C	1.181229	-0.461800	1.011060
C126	C	1.431229	-0.211800	1.261060
C127	C	1.681229	0.038200	1.511060
C128	C	1.931229	0.288200	1.761060
C129	C	1.181225	-0.461800	1.144460
C130	C	1.431225	-0.211800	1.394460
C131	C	1.681225	0.038200	1.644460
C132	C	1.931225	0.288200	1.894460
C133	C	1.192355	-0.244906	0.683075
C134	C	1.442355	0.005094	0.933075
C135	C	1.692355	0.255094	1.183075
C136	C	1.942355	0.505094	1.433075
C137	C	1.197093	-0.152479	0.676707
C138	C	1.447093	0.097521	0.926707
C139	C	1.697093	0.347521	1.176707
C140	C	1.947093	0.597521	1.426707
C141	C	1.181234	-0.461812	1.386194
C142	C	1.431234	-0.211812	1.636194
C143	C	1.681234	0.038188	1.886194
C144	C	1.931234	0.288188	2.136194
C145	C	1.181228	-0.461801	1.252793
C146	C	1.431228	-0.211801	1.502793
C147	C	1.681228	0.038199	1.752793
C148	C	1.931228	0.288199	2.002793
H149	H	0.693031	-0.531226	0.802693
H150	H	0.943031	-0.281226	1.052693
H151	H	1.193031	-0.031226	1.302693
H152	H	1.443031	0.218774	1.552693
H153	H	0.670288	-0.392435	0.593436
H154	H	0.920288	-0.142435	0.843436
H155	H	1.170288	0.107565	1.093436
H156	H	1.420288	0.357565	1.343436
H157	H	1.250653	-0.949972	0.603423
H158	H	1.500653	-0.699972	0.853423
H159	H	1.750653	-0.449972	1.103423
H160	H	2.000653	-0.199972	1.353423
H161	H	1.111971	-0.972786	0.792640
H162	H	1.361971	-0.722786	1.042640
H163	H	1.611971	-0.472786	1.292640
H164	H	1.861971	-0.222786	1.542640
