data_functionalizedCrystal
_audit_creation_method	'MofGen! by Chris Wilmer'
_symmetry_space_group_name_H-M	'P1'
_symmetry_Int_Tables_number	1
_symmetry_cell_setting	triclinic
loop_
_symmetry_equiv_pos_as_xyz
  x,y,z
_cell_length_a	12.759401
_cell_length_b	13.032721
_cell_length_c	12.759393
_cell_angle_alpha	82.850774
_cell_angle_beta	90.020938
_cell_angle_gamma	97.205831
loop_
_atom_site_label
_atom_site_type_symbol
_atom_site_fract_x
_atom_site_fract_y
_atom_site_fract_z
Zn1	Zn	1.553113	-0.415945	0.647098
Zn2	Zn	1.886446	-0.082612	0.980432
Zn3	Zn	2.219779	0.250721	1.313765
Zn4	Zn	1.530669	-0.590725	0.493722
Zn5	Zn	1.864002	-0.257392	0.827055
Zn6	Zn	2.197336	0.075942	1.160388
Zn7	Zn	1.377404	-0.416001	0.471441
Zn8	Zn	1.710738	-0.082668	0.804774
Zn9	Zn	2.044071	0.250666	1.138107
Zn10	Zn	1.355078	-0.590652	0.669350
Zn11	Zn	1.688411	-0.257319	1.002683
Zn12	Zn	2.021744	0.076015	1.336016
O13	O	1.454066	-0.503331	0.570403
O14	O	1.787399	-0.169997	0.903736
O15	O	2.120733	0.163336	1.237069
O16	O	1.697156	-0.439137	0.626765
O17	O	2.030489	-0.105804	0.960098
O18	O	2.363822	0.227529	1.293432
O19	O	1.510289	-0.567601	0.343752
O20	O	1.843622	-0.234268	0.677085
O21	O	2.176956	0.099066	1.010418
O22	O	1.419449	-0.269756	0.476105
O23	O	1.752783	0.063578	0.809438
O24	O	2.086116	0.396911	1.142772
O25	O	1.680666	-0.567547	0.514080
O26	O	2.013999	-0.234214	0.847413
O27	O	2.347333	0.099119	1.180747
O28	O	1.548541	-0.269715	0.605160
O29	O	1.881875	0.063619	0.938493
O30	O	2.215208	0.396952	1.271827
O31	O	1.397686	-0.439232	0.327382
O32	O	1.731020	-0.105899	0.660715
O33	O	2.064353	0.227434	0.994049
O34	O	1.227423	-0.439161	0.497681
O35	O	1.560756	-0.105828	0.831014
O36	O	1.894089	0.227505	1.164348
O37	O	1.381397	-0.567423	0.813412
O38	O	1.714730	-0.234089	1.146746
O39	O	2.048063	0.099244	1.480079
O40	O	1.211019	-0.567477	0.643084
O41	O	1.544353	-0.234143	0.976417
O42	O	1.877686	0.099190	1.309751
O43	O	1.526892	-0.439067	0.797064
O44	O	1.860225	-0.105733	1.130398
O45	O	2.193559	0.227600	1.463731
O46	O	1.488640	-0.736953	0.535656
O47	O	1.821973	-0.403620	0.868990
O48	O	2.155306	-0.070286	1.202323
O49	O	1.359634	-0.736899	0.664689
O50	O	1.692967	-0.403566	0.998023
O51	O	2.026300	-0.070233	1.331356
C52	C	1.181100	-0.503318	0.570380
C53	C	1.514434	-0.169985	0.903713
C54	C	1.847767	0.163349	1.237047
C55	C	1.064321	-0.503338	0.570399
C56	C	1.397654	-0.170004	0.903732
C57	C	1.730988	0.163329	1.237065
C58	C	1.000932	-0.570253	0.646017
C59	C	1.334266	-0.236920	0.979350
C60	C	1.667599	0.096414	1.312684
C61	C	0.891208	-0.570257	0.646038
C62	C	1.224541	-0.236924	0.979372
C63	C	1.557874	0.096410	1.312705
C64	C	0.908271	-0.436427	0.494813
C65	C	1.241604	-0.103094	0.828147
C66	C	1.574937	0.230239	1.161480
C67	C	1.017994	-0.436419	0.494797
C68	C	1.351327	-0.103085	0.828131
C69	C	1.684660	0.230248	1.161464
C70	C	1.419307	-0.774844	0.605028
C71	C	1.752640	-0.441511	0.938361
C72	C	2.085974	-0.108177	1.271695
C73	C	1.404533	-0.890999	0.619876
C74	C	1.737866	-0.557665	0.953209
C75	C	2.071200	-0.224332	1.286543
C76	C	1.461832	-0.942776	0.562700
C77	C	1.795166	-0.609443	0.896034
C78	C	2.128499	-0.276109	1.229367
C79	C	1.446564	-1.062828	0.578045
C80	C	1.779898	-0.729494	0.911379
C81	C	2.113231	-0.396161	1.244712
C82	C	1.728097	-0.503344	0.570426
C83	C	2.061431	-0.170011	0.903759
C84	C	2.394764	0.163322	1.237092
C85	C	1.844873	-0.503350	0.570436
C86	C	2.178207	-0.170017	0.903769
C87	C	2.511540	0.163317	1.237102
C88	C	1.454157	-0.503230	0.844423
C89	C	1.787491	-0.169897	1.177757
C90	C	2.120824	0.163436	1.511090
C91	C	1.454196	-0.503188	0.961194
C92	C	1.787530	-0.169854	1.294528
C93	C	2.120863	0.163479	1.627861
C94	C	1.488989	-0.230757	0.535665
C95	C	1.822323	0.102576	0.868998
C96	C	2.155656	0.435910	1.202332
C97	C	1.503872	-0.114602	0.520862
C98	C	1.837205	0.218731	0.854195
C99	C	2.170538	0.552064	1.187528
C100	C	1.454045	-0.503355	0.297438
C101	C	1.787378	-0.170022	0.630772
C102	C	2.120712	0.163311	0.964105
C103	C	1.454247	-0.503104	0.180630
C104	C	1.787580	-0.169770	0.513963
C105	C	2.120914	0.163563	0.847297
C106	C	1.529962	-0.436342	1.007544
C107	C	1.863296	-0.103009	1.340878
C108	C	2.196629	0.230325	1.674211
C109	C	1.529986	-0.436297	1.117263
C110	C	1.863319	-0.102964	1.450596
C111	C	2.196652	0.230370	1.783929
C112	C	1.378473	-0.569952	1.134273
C113	C	1.711807	-0.236619	1.467606
C114	C	2.045140	0.096714	1.800940
C115	C	1.378446	-0.569991	1.024556
C116	C	1.711780	-0.236658	1.357889
C117	C	2.045113	0.096675	1.691222
H118	H	1.038649	-0.624740	0.707579
H119	H	1.371982	-0.291407	1.040912
H120	H	1.705315	0.041927	1.374245
H121	H	0.839601	-0.624745	0.707616
H122	H	1.172934	-0.291412	1.040949
H123	H	1.506268	0.041922	1.374283
Cl124	Cl	1.283255	-0.653935	1.213934
Cl125	Cl	1.616588	-0.320602	1.547268
Cl126	Cl	1.949922	0.012732	1.880601
H127	H	1.386205	-1.107373	0.638364
H128	H	1.719538	-0.774040	0.971697
H129	H	2.052871	-0.440706	1.305030
Cl130	Cl	0.850022	-0.352308	0.399775
Cl131	Cl	1.183356	-0.018975	0.733108
Cl132	Cl	1.516689	0.314359	1.066442
Cl133	Cl	1.097690	-0.352283	0.399732
Cl134	Cl	1.431023	-0.018949	0.733065
Cl135	Cl	1.764356	0.314384	1.066399
H136	H	1.344178	-0.935548	0.680190
H137	H	1.677511	-0.602215	1.013524
H138	H	2.010844	-0.268881	1.346857
Cl139	Cl	1.555033	-0.874004	0.469589
Cl140	Cl	1.888367	-0.540671	0.802923
Cl141	Cl	2.221700	-0.207337	1.136256
Cl142	Cl	1.597076	-1.045837	0.427744
Cl143	Cl	1.930409	-0.712504	0.761077
Cl144	Cl	2.263742	-0.379171	1.094410
H145	H	1.591640	-0.381943	0.955958
H146	H	1.924974	-0.048610	1.289291
H147	H	2.258307	0.284724	1.622625
H148	H	1.591680	-0.381863	1.154995
H149	H	1.925014	-0.048529	1.488328
H150	H	2.258347	0.284804	1.821662
H151	H	1.316741	-0.624424	0.986817
H152	H	1.650074	-0.291091	1.320151
H153	H	1.983408	0.042242	1.653484
