data_functionalizedCrystal
_audit_creation_method	'MofGen! by Chris Wilmer'
_symmetry_space_group_name_H-M	'P1'
_symmetry_Int_Tables_number	1
_symmetry_cell_setting	triclinic
loop_
_symmetry_equiv_pos_as_xyz
  x,y,z
_cell_length_a	11.169417
_cell_length_b	16.625545
_cell_length_c	11.169409
_cell_angle_alpha	89.963924
_cell_angle_beta	89.979747
_cell_angle_gamma	90.026807
loop_
_atom_site_label
_atom_site_type_symbol
_atom_site_fract_x
_atom_site_fract_y
_atom_site_fract_z
Zn1	Zn	1.834844	-0.320910	-0.678501
Zn2	Zn	2.168178	0.012423	-0.345168
Zn3	Zn	2.501511	0.345757	-0.011834
Zn4	Zn	1.834678	-0.455772	-0.477805
Zn5	Zn	2.168011	-0.122438	-0.144471
Zn6	Zn	2.501344	0.210895	0.188862
Zn7	Zn	1.634127	-0.320960	-0.477837
Zn8	Zn	1.967461	0.012374	-0.144503
Zn9	Zn	2.300794	0.345707	0.188830
Zn10	Zn	1.634084	-0.455707	-0.678451
Zn11	Zn	1.967418	-0.122374	-0.345117
Zn12	Zn	2.300751	0.210959	-0.011784
O13	O	1.734433	-0.388337	-0.578148
O14	O	2.067767	-0.055004	-0.244815
O15	O	2.401100	0.278329	0.088518
O16	O	2.002772	-0.338806	-0.651886
O17	O	2.336105	-0.005472	-0.318553
O18	O	2.669438	0.327861	0.014781
O19	O	1.808023	-0.437937	-0.309859
O20	O	2.141356	-0.104603	0.023474
O21	O	2.474689	0.228730	0.356808
O22	O	1.660841	-0.208121	-0.504490
O23	O	1.994174	0.125213	-0.171156
O24	O	2.327507	0.458546	0.162177
O25	O	2.002649	-0.437888	-0.504435
O26	O	2.335983	-0.104555	-0.171102
O27	O	2.669316	0.228778	0.162231
O28	O	1.808306	-0.208084	-0.651917
O29	O	2.141640	0.125249	-0.318584
O30	O	2.474973	0.458583	0.014750
O31	O	1.660679	-0.338891	-0.309882
O32	O	1.994013	-0.005558	0.023451
O33	O	2.327346	0.327776	0.356784
O34	O	1.466172	-0.338828	-0.504441
O35	O	1.799505	-0.005495	-0.171107
O36	O	2.132839	0.327838	0.162226
O37	O	1.660767	-0.437778	-0.846407
O38	O	1.994100	-0.104445	-0.513074
O39	O	2.327434	0.228889	-0.179741
O40	O	1.466140	-0.437827	-0.651831
O41	O	1.799474	-0.104493	-0.318498
O42	O	2.132807	0.228840	0.014836
O43	O	1.808265	-0.338743	-0.846444
O44	O	2.141598	-0.005410	-0.513111
O45	O	2.474931	0.327924	-0.179778
O46	O	1.807981	-0.568596	-0.504386
O47	O	2.141314	-0.235262	-0.171053
O48	O	2.474647	0.098071	0.162280
O49	O	1.660606	-0.568548	-0.651800
O50	O	1.993939	-0.235215	-0.318467
O51	O	2.327272	0.098118	0.014867
C52	C	1.422609	-0.388326	-0.578135
C53	C	1.755942	-0.054993	-0.244801
C54	C	2.089275	0.278340	0.088532
C55	C	1.289209	-0.388341	-0.578157
C56	C	1.622542	-0.055008	-0.244824
C57	C	1.955875	0.278326	0.088510
C58	C	1.734303	-0.597828	-0.578110
C59	C	2.067636	-0.264495	-0.244777
C60	C	2.400970	0.068839	0.088556
C61	C	1.734357	-0.687449	-0.578134
C62	C	2.067690	-0.354116	-0.244801
C63	C	2.401024	-0.020783	0.088532
C64	C	1.734404	-0.760232	-0.578158
C65	C	2.067737	-0.426898	-0.244825
C66	C	2.401070	-0.093565	0.088508
C67	C	1.734473	-0.851540	-0.578185
C68	C	2.067807	-0.518207	-0.244851
C69	C	2.401140	-0.184873	0.088482
C70	C	1.734536	-0.924316	-0.578200
C71	C	2.067869	-0.590983	-0.244867
C72	C	2.401202	-0.257650	0.088467
C73	C	1.734604	-1.015631	-0.578225
C74	C	2.067938	-0.682297	-0.244891
C75	C	2.401271	-0.348964	0.088442
C76	C	2.047476	-0.388349	-0.578163
C77	C	2.380809	-0.055015	-0.244829
C78	C	2.714142	0.278318	0.088504
C79	C	2.180876	-0.388354	-0.578169
C80	C	2.514209	-0.055020	-0.244836
C81	C	2.847542	0.278313	0.088498
C82	C	1.734530	-0.388248	-0.891191
C83	C	2.067863	-0.054915	-0.557858
C84	C	2.401196	0.278419	-0.224524
C85	C	1.734571	-0.388210	-1.024591
C86	C	2.067904	-0.054876	-0.691258
C87	C	2.401237	0.278457	-0.357924
C88	C	1.734597	-0.178028	-0.578212
C89	C	2.067930	0.155305	-0.244879
C90	C	2.401264	0.488638	0.088454
C91	C	1.734667	-0.088407	-0.578240
C92	C	2.068000	0.244926	-0.244906
C93	C	2.401333	0.578260	0.088427
C94	C	1.734407	-0.388368	-0.266323
C95	C	2.067740	-0.055035	0.067010
C96	C	2.401073	0.278299	0.400343
C97	C	1.734598	-0.388179	-0.132924
C98	C	2.067932	-0.054846	0.200409
C99	C	2.401265	0.278488	0.533743
