data_functionalizedCrystal
_audit_creation_method	'MofGen! by Chris Wilmer'
_symmetry_space_group_name_H-M	'P1'
_symmetry_Int_Tables_number	1
_symmetry_cell_setting	triclinic
loop_
_symmetry_equiv_pos_as_xyz
  x,y,z
_cell_length_a	23.204082
_cell_length_b	23.204045
_cell_length_c	23.204116
_cell_angle_alpha	120.004995
_cell_angle_beta	90.000061
_cell_angle_gamma	60.000252
loop_
_atom_site_label
_atom_site_type_symbol
_atom_site_fract_x
_atom_site_fract_y
_atom_site_fract_z
O1	O	-0.395331	-0.508358	-0.017162
O2	O	-0.311529	-0.390342	0.017050
O3	O	-0.311525	-0.508356	-0.100969
O4	O	-0.395335	-0.390344	0.100857
O5	O	-0.407380	-0.412498	-0.100957
O6	O	-0.407384	-0.294484	0.017061
O7	O	-0.491186	-0.412501	-0.017150
Zn8	Zn	-0.464504	-0.338273	-0.000043
Zn9	Zn	-0.338211	-0.464570	-0.000058
O10	O	-0.491190	-0.294487	0.100868
C11	C	-0.248536	-0.108439	0.035748
C12	C	-0.284096	-0.037318	0.030850
C13	C	-0.283381	-0.142951	0.036239
C14	C	-0.144179	-0.212795	0.035752
C15	C	-0.068160	-0.253253	0.030858
C16	C	-0.179182	-0.247149	0.036244
C17	C	-0.248539	-0.212793	0.035756
C18	C	-0.284103	-0.253248	0.030865
C19	C	-0.179179	-0.142953	0.036236
C20	C	-0.312834	-0.285932	0.026912
C21	C	-0.312825	0.020139	0.026890
C22	C	-0.006744	-0.285939	0.026903
C23	C	-0.348879	-0.326936	0.021955
C24	C	-0.348866	0.092223	0.021925
C25	C	0.070305	-0.326945	0.021942
C26	C	-0.492058	-0.621396	-0.024959
C27	C	-0.456492	-0.692527	-0.020073
C28	C	-0.561417	-0.586880	-0.025442
C29	C	-0.492064	-0.517028	-0.024946
C30	C	-0.456504	-0.476567	-0.020047
C31	C	-0.561423	-0.482670	-0.025430
C32	C	-0.596422	-0.517030	-0.024946
C33	C	-0.672442	-0.476571	-0.020048
C34	C	-0.457217	-0.586878	-0.025442
C35	C	-0.248532	-0.590061	-0.445874
C36	C	-0.284096	-0.549602	-0.481433
C37	C	-0.179172	-0.659911	-0.480725
C38	C	-0.248533	-0.590061	-0.341515
C39	C	-0.284097	-0.549602	-0.265492
C40	C	-0.179173	-0.659910	-0.376524
C41	C	-0.144170	-0.694427	-0.445885
C42	C	-0.068148	-0.765556	-0.481455
C43	C	-0.283377	-0.555703	-0.376513
C44	C	-0.006730	-0.823020	-0.510191
C45	C	-0.312827	-0.516914	-0.510159
C46	C	-0.312828	-0.516913	-0.204073
C47	C	0.070321	-0.895113	-0.546242
C48	C	-0.348873	-0.475907	-0.546199
C49	C	-0.348874	-0.475906	-0.127019
O50	O	0.298177	-0.412512	-0.017160
O51	O	0.096362	-0.294500	0.017038
O52	O	0.214375	-0.412528	-0.100975
O53	O	0.180163	-0.294484	0.100853
O54	O	0.214372	-0.508374	-0.100968
O55	O	0.096358	-0.390346	0.017045
O56	O	0.298173	-0.508358	-0.017154
Zn57	Zn	0.197265	-0.464570	-0.000053
Zn58	Zn	0.197270	-0.338288	-0.000062
O59	O	0.180160	-0.390329	0.100860
O60	O	-0.491170	0.280979	-0.017186
O61	O	-0.407369	0.113377	0.017024
O62	O	-0.407358	0.113351	-0.100994
O63	O	-0.491180	0.281005	0.100832
O64	O	-0.311507	0.113349	-0.100997
O65	O	-0.311517	0.113375	0.017021
O66	O	-0.395318	0.280977	-0.017189
Zn67	Zn	-0.338199	0.197176	-0.000084
Zn68	Zn	-0.464488	0.197178	-0.000080
O69	O	-0.395329	0.281003	0.100829
O70	O	0.298194	-1.083893	-0.592716
O71	O	0.096375	-0.916267	-0.508895
O72	O	0.214379	-0.916265	-0.508892
O73	O	0.180190	-1.083895	-0.592719
O74	O	0.214382	-0.916268	-0.604744
O75	O	0.096378	-0.916270	-0.604747
O76	O	0.298197	-1.083896	-0.688568
Zn77	Zn	0.197288	-1.000083	-0.661877
Zn78	Zn	0.197284	-1.000080	-0.535587
O79	O	0.180193	-1.083898	-0.688571
O80	O	-0.395339	-0.390340	-0.688497
O81	O	-0.311524	-0.508356	-0.604706
O82	O	-0.311531	-0.390340	-0.604691
O83	O	-0.395333	-0.508356	-0.688513
O84	O	-0.407384	-0.294484	-0.508829
O85	O	-0.407377	-0.412501	-0.508844
O86	O	-0.491193	-0.294484	-0.592635
Zn87	Zn	-0.464504	-0.338273	-0.535519
Zn88	Zn	-0.338213	-0.464567	-0.661822
O89	O	-0.491186	-0.412500	-0.592651
C90	C	-0.596439	-0.181452	0.310639
C91	C	-0.672460	-0.110323	0.346208
C92	C	-0.561436	-0.215968	0.345479
C93	C	-0.492075	-0.285819	0.206270
C94	C	-0.456510	-0.326279	0.130247
C95	C	-0.457231	-0.320176	0.241268
C96	C	-0.492076	-0.285817	0.310629
C97	C	-0.456513	-0.326276	0.346188
C98	C	-0.561435	-0.215969	0.241278
C99	C	0.172384	-0.285786	0.310629
C100	C	0.177278	-0.326235	0.346196
C101	C	0.171900	-0.215939	0.345470
C102	C	0.172382	-0.285801	0.206262
C103	C	0.177273	-0.326267	0.130240
C104	C	0.171898	-0.215955	0.241261
C105	C	0.172388	-0.181432	0.310621
C106	C	0.177286	-0.110306	0.346180
C107	C	0.171894	-0.320150	0.241269
C108	C	-0.492082	0.483021	0.310602
C109	C	-0.456523	0.523484	0.346166
C110	C	-0.561442	0.517383	0.345448
C111	C	-0.492073	0.378642	0.206238
C112	C	-0.456504	0.307503	0.130215
C113	C	-0.561433	0.413162	0.241242
C114	C	-0.596441	0.483020	0.310603
C115	C	-0.672462	0.523482	0.346167
C116	C	-0.457233	0.413163	0.241241
C117	C	0.233070	-0.694476	-0.445880
C118	C	0.228173	-0.765602	-0.481439
C119	C	0.233558	-0.659969	-0.480728
C120	C	0.233076	-0.590107	-0.341521
C121	C	0.228184	-0.549641	-0.265499
C122	C	0.233564	-0.555758	-0.376528
C123	C	0.233073	-0.590122	-0.445887
C124	C	0.228180	-0.549672	-0.481455
C125	C	0.233560	-0.659953	-0.376520
C126	C	0.224224	-0.516992	-0.510189
C127	C	0.224215	-0.823063	-0.510167
C128	C	0.224231	-0.516947	-0.204080
C129	C	0.219263	-0.475994	-0.546237
C130	C	0.219250	-0.895152	-0.546208
C131	C	0.219273	-0.475932	-0.127028
O132	O	0.214365	-0.412424	0.491191
O133	O	0.180169	-0.294438	0.407370
O134	O	0.298176	-0.412447	0.407363
O135	O	0.096358	-0.294414	0.491198
O136	O	0.298170	-0.508308	0.311513
O137	O	0.180164	-0.390299	0.311520
O138	O	0.214360	-0.508285	0.395341
Zn139	Zn	0.197261	-0.464512	0.338212
Zn140	Zn	0.197268	-0.338211	0.464498
O141	O	0.096353	-0.390276	0.395348
C142	C	-0.144132	-0.212902	-0.445913
C143	C	-0.068110	-0.253364	-0.481478
C144	C	-0.179131	-0.247264	-0.480758
C145	C	-0.248499	-0.108523	-0.341548
C146	C	-0.284068	-0.037384	-0.265524
C147	C	-0.283340	-0.143044	-0.376551
C148	C	-0.248491	-0.212901	-0.445912
C149	C	-0.284051	-0.253364	-0.481475
C150	C	-0.179139	-0.143044	-0.376552
C151	C	-0.312779	-0.286055	-0.510206
C152	C	-0.006692	-0.286055	-0.510210
C153	C	-0.312803	0.020088	-0.204105
C154	C	-0.348820	-0.327066	-0.546250
C155	C	0.070360	-0.327067	-0.546257
C156	C	-0.348853	0.092190	-0.127052
H157	H	-0.151080	-0.303347	0.037034
H158	H	0.171116	-0.187079	0.213153
H159	H	-0.151070	-0.688788	-0.348419
C160	C	-0.376340	0.373729	0.142860
C161	C	-0.380300	0.374164	0.203305
H162	H	-0.328848	0.349658	0.119445
H163	H	-0.392162	0.343147	0.112076
H164	H	-0.405318	0.428092	0.156070
H165	H	-0.351327	0.319800	0.190095
H166	H	-0.364470	0.404745	0.234095
C167	C	-0.602975	0.657258	0.426281
C168	C	-0.599425	0.593297	0.422367
H169	H	-0.626438	0.704132	0.473761
H170	H	-0.556576	0.641659	0.410480
H171	H	-0.628329	0.669369	0.397263
H172	H	-0.574065	0.581182	0.451381
H173	H	-0.645831	0.608899	0.438177
C174	C	-0.561912	-0.706011	-0.087201
C175	C	-0.599354	-0.625880	-0.026525
H176	H	-0.585333	-0.730087	-0.087871
H177	H	-0.559498	-0.705715	-0.127905
H178	H	-0.515515	-0.736579	-0.086969
H179	H	-0.645750	-0.595311	-0.026760
H180	H	-0.601777	-0.626172	0.014190
C181	C	0.230863	-0.460004	0.199777
C182	C	0.170836	-0.396025	0.203329
H183	H	0.230208	-0.506843	0.176356
H184	H	0.272004	-0.472178	0.174385
H185	H	0.231080	-0.444385	0.246183
H186	H	0.170622	-0.411642	0.156923
H187	H	0.129684	-0.383851	0.228720
C188	C	-0.072783	-0.346180	-0.581013
C189	C	-0.141188	-0.323157	-0.557687
H190	H	-0.049360	-0.393037	-0.628501
H191	H	-0.075183	-0.302788	-0.578338
H192	H	-0.047412	-0.358341	-0.552025
H193	H	-0.166561	-0.310990	-0.586672
H194	H	-0.138792	-0.366559	-0.560367
C195	C	-0.364211	-0.160536	-0.335070
C196	C	-0.360268	-0.104047	-0.338605
H197	H	-0.411700	-0.136460	-0.311639
H198	H	-0.348386	-0.207149	-0.381475
H199	H	-0.335228	-0.176298	-0.309689
H200	H	-0.389247	-0.088289	-0.363991
H201	H	-0.376102	-0.057419	-0.292192
C202	C	0.234956	-0.456873	-0.270199
C203	C	0.234636	-0.479892	-0.338602
H204	H	0.235625	-0.410044	-0.246791
H205	H	0.193800	-0.444675	-0.244808
H206	H	0.275669	-0.500288	-0.272611
H207	H	0.193919	-0.436479	-0.336190
H208	H	0.275797	-0.492087	-0.363999
C209	C	0.234932	-0.767688	-0.580987
C210	C	0.234620	-0.698973	-0.557663
H211	H	0.235585	-0.791763	-0.628480
H212	H	0.275643	-0.805994	-0.578297
H213	H	0.193773	-0.751904	-0.552006
H214	H	0.275783	-0.714758	-0.586640
H215	H	0.193905	-0.660659	-0.560358
C216	C	0.234935	-0.767658	-0.383964
C217	C	0.234623	-0.698940	-0.338578
H218	H	0.235596	-0.791726	-0.360541
H219	H	0.193780	-0.751885	-0.397156
H220	H	0.275650	-0.805974	-0.424973
H221	H	0.193906	-0.660621	-0.297571
H222	H	0.275783	-0.714712	-0.325377
H223	H	-0.151073	-0.688797	-0.537715
C224	C	-0.186626	-0.035250	0.037606
C225	C	-0.141240	-0.103962	0.037294
H226	H	-0.163205	-0.011179	0.038263
H227	H	-0.199819	-0.051030	-0.003551
H228	H	-0.227632	0.003066	0.078324
H229	H	-0.100237	-0.142281	-0.003427
H230	H	-0.128037	-0.088184	0.078455
C231	C	-0.080784	-0.160514	-0.335058
C232	C	-0.141211	-0.104039	-0.338609
H233	H	-0.057370	-0.136434	-0.311636
H234	H	-0.094005	-0.176261	-0.309668
H235	H	-0.049990	-0.207142	-0.381464
H236	H	-0.172008	-0.057414	-0.292203
H237	H	-0.127991	-0.088280	-0.363999
C238	C	-0.383631	-0.035256	0.037596
C239	C	-0.360308	-0.103964	0.037291
H240	H	-0.431118	-0.011195	0.038239
H241	H	-0.380951	0.003063	0.078311
H242	H	-0.354646	-0.051043	-0.003564
H243	H	-0.389289	-0.088176	0.078453
H244	H	-0.362993	-0.142291	-0.003428
H245	H	-0.589525	-0.426461	-0.026204
H246	H	-0.400231	-0.615765	-0.026225
H247	H	0.171112	-0.187045	0.402461
H248	H	-0.340359	-0.499482	-0.348402
H249	H	-0.589537	-0.187068	0.402474
C250	C	-0.337590	-0.378106	0.183869
C251	C	-0.380300	-0.396054	0.203340
H252	H	-0.290099	-0.424949	0.160462
H253	H	-0.353408	-0.362516	0.153069
H254	H	-0.340290	-0.334689	0.224875
H255	H	-0.377605	-0.439468	0.162333
H256	H	-0.364478	-0.411656	0.234141
C257	C	-0.561938	-0.153770	0.183852
C258	C	-0.599362	-0.177004	0.203323
H259	H	-0.585349	-0.129729	0.160411
H260	H	-0.559560	-0.115434	0.224854
H261	H	-0.515528	-0.200394	0.153075
H262	H	-0.645771	-0.130378	0.234104
H263	H	-0.601748	-0.215341	0.162315
C264	C	-0.561933	0.294035	0.183871
C265	C	-0.599372	0.374161	0.203325
H266	H	-0.585360	0.269962	0.160474
H267	H	-0.515542	0.263463	0.153067
H268	H	-0.559519	0.294343	0.224883
H269	H	-0.601781	0.373852	0.162313
H270	H	-0.645775	0.404741	0.234131
