data_functionalizedCrystal
_audit_creation_method	'MofGen! by Chris Wilmer'
_symmetry_space_group_name_H-M	'P1'
_symmetry_Int_Tables_number	1
_symmetry_cell_setting	triclinic
loop_
_symmetry_equiv_pos_as_xyz
  x,y,z
_cell_length_a	14.853566
_cell_length_b	14.853567
_cell_length_c	9.730223
_cell_angle_alpha	90.002458
_cell_angle_beta	90.002641
_cell_angle_gamma	83.634672
loop_
_atom_site_label
_atom_site_type_symbol
_atom_site_fract_x
_atom_site_fract_y
_atom_site_fract_z
O1	O	1.196360	0.117695	-0.114187
O2	O	0.933901	0.131717	-0.114208
O3	O	1.072141	-0.006524	-0.114201
O4	O	1.058120	0.255936	-0.114194
O5	O	1.072140	-0.006520	0.114379
O6	O	0.933899	0.131721	0.114371
O7	O	1.196359	0.117698	0.114393
Zn8	Zn	1.065129	0.124710	0.150674
Zn9	Zn	1.065131	0.124706	-0.150490
O10	O	1.058118	0.255939	0.114386
C11	C	0.900311	0.131084	0.000079
C12	C	0.800227	0.129181	0.000070
C13	C	0.377043	0.121128	-0.124505
C14	C	0.377063	0.121132	0.124702
C15	C	0.471097	0.122920	0.124697
C16	C	0.518108	0.123813	0.000090
C17	C	0.471086	0.122918	-0.124513
C18	C	0.518126	0.123824	0.249298
C19	C	0.612165	0.125612	0.249299
C20	C	0.659179	0.126499	0.124690
C21	C	0.612151	0.125603	0.000082
C22	C	0.659162	0.126496	-0.124525
C23	C	0.612136	0.125594	-0.249135
C24	C	0.518100	0.123805	-0.249122
C25	C	0.753216	0.128288	0.124677
C26	C	0.753205	0.128286	-0.124533
C27	C	1.071505	-0.040111	0.000084
C28	C	1.069601	-0.140194	0.000072
C29	C	0.979435	-0.552728	0.000091
C30	C	1.143668	-0.574009	0.000104
C31	C	1.145458	-0.479976	0.000097
C32	C	1.064236	-0.422313	0.000088
C33	C	0.981223	-0.458685	0.000087
C34	C	1.228470	-0.443597	0.000111
C35	C	1.230263	-0.349558	0.000105
C36	C	1.149040	-0.291894	0.000086
C37	C	1.066023	-0.328271	0.000084
C38	C	0.984801	-0.270608	0.000076
C39	C	0.901784	-0.306984	0.000064
C40	C	0.899999	-0.401021	0.000069
C41	C	1.150824	-0.197856	0.000081
C42	C	0.986588	-0.176566	0.000072
C43	C	1.229948	0.118332	0.000103
C44	C	1.330032	0.120235	0.000102
C45	C	1.058754	0.289526	0.000097
C46	C	1.060658	0.389610	0.000100
N47	N	1.065134	0.124713	0.356210
N48	N	1.065133	0.124696	-0.356026
C49	C	1.126362	0.063520	0.428140
C50	C	1.126360	0.063509	0.572023
C51	C	1.003898	0.185891	0.572035
C52	C	1.003896	0.185897	0.428154
C53	C	1.187600	0.002336	0.356196
C54	C	1.248834	-0.058861	0.428125
C55	C	1.248831	-0.058872	0.572008
C56	C	1.187595	0.002314	0.643962
H57	H	0.920446	-0.129622	0.000059
O58	O	0.798928	0.128995	-0.245545
C59	C	0.915246	0.053007	-0.390154
C60	C	0.863522	0.052081	-0.253075
H61	H	0.967494	-0.009161	-0.396273
H62	H	0.865528	0.051998	-0.479258
H63	H	0.951051	0.116919	-0.396370
H64	H	0.827714	-0.011820	-0.246724
H65	H	0.913282	0.053139	-0.164035
O66	O	1.222589	-0.629979	0.000356
C67	C	1.362441	-0.676898	0.118735
C68	C	1.273084	-0.613472	0.118643
H69	H	1.403301	-0.663562	0.214345
H70	H	1.346960	-0.750376	0.118830
H71	H	1.403246	-0.663668	0.023029
H72	H	1.232236	-0.626621	0.214333
H73	H	1.288629	-0.540016	0.118477
O74	O	0.944297	0.245237	0.641867
C75	C	0.787609	0.297807	0.685839
C76	C	0.855006	0.230532	0.606695
H77	H	0.715403	0.285954	0.657409
H78	H	0.798052	0.287291	0.801045
H79	H	0.799487	0.370033	0.657580
H80	H	0.843169	0.158279	0.634838
H81	H	0.844547	0.241126	0.491507
O82	O	0.472355	0.123097	-0.370119
C83	C	0.356014	0.199101	-0.514677
C84	C	0.407770	0.200020	-0.377618
H85	H	0.303773	0.261277	-0.520772
H86	H	0.405713	0.200103	-0.603801
H87	H	0.320197	0.135196	-0.520884
H88	H	0.443589	0.263914	-0.371277
H89	H	0.358029	0.198970	-0.288560
O90	O	0.822970	-0.250838	-0.000003
C91	C	0.752955	-0.096527	0.000085
C92	C	0.842274	-0.160012	0.000127
H93	H	0.768532	-0.023081	0.000219
H94	H	0.712098	-0.109693	-0.095605
H95	H	0.712104	-0.109818	0.095716
H96	H	0.883198	-0.146759	-0.095440
H97	H	0.883063	-0.146832	0.095880
O98	O	1.308248	-0.118240	0.358023
C99	C	1.362417	-0.172575	0.136364
C100	C	1.295116	-0.105243	0.215577
H101	H	1.351810	-0.162103	0.021182
H102	H	1.434673	-0.160741	0.164524
H103	H	1.350547	-0.244781	0.164756
H104	H	1.306902	-0.033011	0.187227
H105	H	1.222883	-0.117156	0.187410
O106	O	1.310980	-0.314377	0.000046
C107	C	1.473690	-0.345418	0.000138
C108	C	1.382343	-0.385382	0.000178
H109	H	1.531411	-0.402806	0.000275
H110	H	1.478695	-0.301966	-0.095550
H111	H	1.478584	-0.301885	0.095770
H112	H	1.377386	-0.428957	-0.095389
H113	H	1.377377	-0.428783	0.095930
H114	H	0.650425	0.126327	-0.350590
O115	O	0.819442	-0.436505	0.000132
C116	C	0.743908	-0.571947	0.000073
C117	C	0.835200	-0.531877	0.000027
H118	H	0.756617	-0.649060	-0.000041
H119	H	0.703754	-0.548268	0.095753
H120	H	0.703763	-0.548167	-0.095567
H121	H	0.875419	-0.555639	0.095603
H122	H	0.875286	-0.555552	-0.095717
H123	H	0.338751	0.120390	-0.225959
H124	H	0.338780	0.120412	0.226151
H125	H	0.911845	-0.582349	0.000076
H126	H	0.479841	0.123103	0.350747
O127	O	0.944513	0.245465	0.358332
C128	C	0.891836	0.402129	0.314373
C129	C	0.959156	0.334772	0.393509
H130	H	0.903638	0.474348	0.342806
H131	H	0.902354	0.391697	0.199165
H132	H	0.819625	0.390199	0.342636
H133	H	1.031393	0.346661	0.365362
H134	H	0.948558	0.345220	0.508697
O135	O	1.231399	-0.162412	-0.000090
C136	C	1.328758	-0.068645	-0.118548
C137	C	1.237462	-0.108707	-0.118506
H138	H	1.333698	-0.025232	-0.214291
H139	H	1.333709	-0.025084	-0.022957
H140	H	1.386488	-0.126024	-0.118466
H141	H	1.179679	-0.051387	-0.118636
H142	H	1.232590	-0.152293	-0.214088
H143	H	1.294597	-0.490552	0.000131
H144	H	1.187592	0.002294	0.761121
H145	H	0.650446	0.126345	0.350764
O146	O	1.308394	-0.118351	0.641669
C147	C	1.429826	-0.239771	0.626464
C148	C	1.362428	-0.172446	0.547406
H149	H	1.473517	-0.283537	0.550287
H150	H	1.474967	-0.200812	0.693801
H151	H	1.390836	-0.284848	0.693848
H152	H	1.401344	-0.127352	0.479947
H153	H	1.317288	-0.211461	0.480156
H154	H	1.187609	0.002341	0.239039
H155	H	0.791499	0.129031	0.226132
