data_functionalizedCrystal
_audit_creation_method	'MofGen! by Chris Wilmer'
_symmetry_space_group_name_H-M	'P1'
_symmetry_Int_Tables_number	1
_symmetry_cell_setting	triclinic
loop_
_symmetry_equiv_pos_as_xyz
  x,y,z
_cell_length_a	11.792241
_cell_length_b	16.992695
_cell_length_c	15.455313
_cell_angle_alpha	92.847427
_cell_angle_beta	87.304628
_cell_angle_gamma	87.430819
loop_
_atom_site_label
_atom_site_type_symbol
_atom_site_fract_x
_atom_site_fract_y
_atom_site_fract_z
O1	O	1.520363	0.104106	-0.072047
O2	O	2.020363	0.604106	0.427953
O3	O	1.190930	0.115185	-0.072067
O4	O	1.690930	0.615185	0.427933
O5	O	1.354325	-0.004502	-0.072050
O6	O	1.854325	0.495498	0.427950
O7	O	1.356967	0.223794	-0.072064
O8	O	1.856967	0.723794	0.427936
O9	O	1.344979	0.002314	0.072211
O10	O	1.844979	0.502314	0.572211
O11	O	1.181583	0.122001	0.072194
O12	O	1.681583	0.622001	0.572194
O13	O	1.511017	0.110922	0.072214
O14	O	2.011017	0.610922	0.572214
Cu15	Cu	1.345447	0.117084	0.085376
Cu16	Cu	1.845447	0.617084	0.585376
Cu17	Cu	1.356500	0.109023	-0.085229
Cu18	Cu	1.856500	0.609023	0.414771
O19	O	1.347621	0.230610	0.072197
O20	O	1.847621	0.730610	0.572197
C21	C	1.346254	-0.030321	0.000080
C22	C	1.846254	0.469679	0.500080
C23	C	1.336116	-0.117409	0.000079
C24	C	1.836116	0.382591	0.500079
C25	C	1.143909	0.117897	0.000061
C26	C	1.643909	0.617897	0.500061
C27	C	1.017725	0.115814	0.000053
C28	C	1.517725	0.615814	0.500053
C29	C	1.433934	-0.167233	0.000086
C30	C	1.933934	0.332767	0.500086
C31	C	1.424402	-0.249060	0.000077
C32	C	1.924402	0.250940	0.500077
C33	C	1.317051	-0.281062	0.000068
C34	C	1.817051	0.218938	0.500068
C35	C	1.219227	-0.231231	0.000058
C36	C	1.719227	0.268769	0.500058
C37	C	1.228760	-0.149406	0.000061
C38	C	1.728760	0.350594	0.500061
C39	C	1.277539	-0.524828	0.000053
C40	C	1.777539	-0.024828	0.500053
C41	C	1.268013	-0.606660	0.000053
C42	C	1.768013	-0.106660	0.500053
C43	C	1.473190	-0.624484	0.000071
C44	C	1.973190	-0.124484	0.500071
C45	C	1.482713	-0.542656	0.000079
C46	C	1.982713	-0.042656	0.500079
C47	C	1.384889	-0.492832	0.000065
C48	C	1.884889	0.007168	0.500065
N49	N	1.307305	-0.364702	0.000062
N50	N	1.807305	0.135298	0.500062
N51	N	1.394636	-0.409194	0.000065
N52	N	1.894636	0.090806	0.500065
C53	C	0.786698	0.111984	0.000078
C54	C	1.286698	0.611984	0.500078
C55	C	0.915258	0.114112	0.000065
C56	C	1.415258	0.614112	0.500065
C57	C	1.558038	0.108210	0.000084
C58	C	2.058038	0.608210	0.500084
C59	C	1.684222	0.110293	0.000086
C60	C	2.184222	0.610293	0.500086
C61	C	1.355692	0.256428	0.000065
C62	C	1.855692	0.756428	0.500065
C63	C	1.365831	0.343516	0.000060
C64	C	1.865831	0.843516	0.500060
N65	N	1.337681	0.122753	0.205371
N66	N	1.837681	0.622753	0.705371
N67	N	1.364274	0.103348	-0.205224
N68	N	1.864274	0.603348	0.294776
C69	C	1.407124	0.071924	0.250772
C70	C	1.907124	0.571924	0.750772
C71	C	1.401263	0.076219	0.341580
C72	C	1.901263	0.576219	0.841580
C73	C	1.325962	0.131346	0.386984
C74	C	1.825962	0.631346	0.886984
C75	C	1.256511	0.182177	0.341576
C76	C	1.756511	0.682177	0.841576
C77	C	1.262368	0.177878	0.250771
C78	C	1.762368	0.677878	0.750771
C79	C	1.300680	0.149880	0.658563
C80	C	1.800680	0.649880	1.158563
C81	C	1.294830	0.154177	0.749375
C82	C	1.794830	0.654177	1.249375
C83	C	1.439581	0.048217	0.749372
C84	C	1.939581	0.548217	1.249372
C85	C	1.445436	0.043926	0.658565
C86	C	1.945436	0.543926	1.158565
C87	C	1.375981	0.094754	0.613165
C88	C	1.875981	0.594754	1.113165
N89	N	1.319971	0.135739	0.479804
N90	N	1.819971	0.635739	0.979804
N91	N	1.381967	0.090357	0.520347
N92	N	1.881967	0.590357	1.020347
H93	H	1.521350	-0.141184	0.000099
H94	H	2.021350	0.358816	0.500099
H95	H	1.131820	-0.257293	0.000045
H96	H	1.631820	0.242707	0.500045
H97	H	1.570129	-0.516607	0.000087
H98	H	2.070129	-0.016607	0.500087
Br99	Br	1.122313	-0.650089	0.000049
Br100	Br	1.622313	-0.150089	0.500049
H101	H	1.504055	-0.289625	0.000085
H102	H	2.004055	0.210375	0.500085
H103	H	1.205818	0.219267	0.213806
H104	H	1.705818	0.719267	0.713806
H105	H	1.506752	-0.000963	0.621598
H106	H	2.006752	0.499037	1.121598
H107	H	1.552832	-0.665058	0.000081
H108	H	2.052832	-0.165058	0.500081
Br109	Br	1.144777	-0.457221	0.000029
Br110	Br	1.644777	0.042779	0.500029
H111	H	1.457808	0.034830	0.378545
H112	H	1.957808	0.534830	0.878545
H113	H	1.149106	-0.108839	0.000055
H114	H	1.649106	0.391161	0.500055
Br115	Br	1.154306	0.256989	0.403193
Br116	Br	1.654306	0.756989	0.903193
Br117	Br	1.509332	-0.002890	0.189162
Br118	Br	2.009332	0.497110	0.689162
H119	H	1.496127	0.006834	0.786345
H120	H	1.996127	0.506834	1.286345
H121	H	1.233509	0.199071	0.786339
H122	H	1.733509	0.699071	1.286339
H123	H	1.244128	0.191268	0.621605
H124	H	1.744128	0.691268	1.121605
