data_functionalizedCrystal
_audit_creation_method	'MofGen! by Chris Wilmer'
_symmetry_space_group_name_H-M	'P1'
_symmetry_Int_Tables_number	1
_symmetry_cell_setting	triclinic
loop_
_symmetry_equiv_pos_as_xyz
  x,y,z
_cell_length_a	11.026607
_cell_length_b	14.044220
_cell_length_c	10.065875
_cell_angle_alpha	99.592716
_cell_angle_beta	79.302338
_cell_angle_gamma	100.887447
loop_
_atom_site_label
_atom_site_type_symbol
_atom_site_fract_x
_atom_site_fract_y
_atom_site_fract_z
O1	O	1.670494	0.393284	-0.113515
O2	O	2.170494	0.893284	0.386485
O3	O	1.312203	0.347236	-0.113514
O4	O	1.812203	0.847236	0.386486
O5	O	1.485969	0.231359	-0.113501
O6	O	1.985969	0.731359	0.386499
O7	O	1.496729	0.509161	-0.113528
O8	O	1.996729	1.009161	0.386472
O9	O	1.452846	0.253569	0.113485
O10	O	1.952846	0.753569	0.613485
O11	O	1.279081	0.369446	0.113472
O12	O	1.779081	0.869446	0.613472
O13	O	1.637372	0.415494	0.113471
O14	O	2.137372	0.915494	0.613471
Zn15	Zn	1.452967	0.395996	0.149510
Zn16	Zn	1.952967	0.895996	0.649510
Zn17	Zn	1.496608	0.366734	-0.149554
Zn18	Zn	1.996608	0.866734	0.350446
O19	O	1.463606	0.531371	0.113458
O20	O	1.963606	1.031371	0.613458
C21	C	1.249512	0.349846	-0.000021
C22	C	1.749512	0.849846	0.499979
C23	C	1.112056	0.324521	-0.000020
C24	C	1.612056	0.824521	0.499980
C25	C	1.045821	0.394445	-0.000028
C26	C	1.545821	0.894445	0.499972
C27	C	0.903753	0.368273	-0.000027
C28	C	1.403753	0.868273	0.499973
C29	C	1.464699	0.206346	-0.000008
C30	C	1.964699	0.706346	0.499992
C31	C	1.450655	0.098724	-0.000006
C32	C	1.950655	0.598724	0.499994
C33	C	1.424983	-0.098320	-0.000025
C34	C	1.924983	0.401680	0.499975
C35	C	1.524588	-0.138958	-0.000030
C36	C	2.024588	0.361042	0.499970
C37	C	1.510304	-0.248600	-0.000041
C38	C	2.010304	0.251400	0.499959
C39	C	1.439265	0.011332	-0.000015
C40	C	1.939265	0.511332	0.499985
C41	C	1.700064	0.412884	-0.000025
C42	C	2.200064	0.912884	0.499975
C43	C	1.837520	0.438207	-0.000035
C44	C	2.337520	0.938207	0.499965
C45	C	1.484876	0.556383	-0.000039
C46	C	1.984876	1.056383	0.499961
C47	C	1.498921	0.664004	-0.000049
C48	C	1.998921	1.164004	0.499951
N49	N	1.423193	0.415967	0.353614
N50	N	1.923193	0.915967	0.853614
N51	N	1.526391	0.346756	-0.353657
N52	N	2.026391	0.846756	0.146343
C53	C	1.486240	0.373675	0.421397
C54	C	1.986240	0.873675	0.921397
C55	C	1.463335	0.389055	0.578563
C56	C	1.963335	0.889055	1.078563
H57	H	1.094290	0.473686	-0.000028
H58	H	1.594290	0.973686	0.499972
H59	H	1.620605	-0.091415	-0.000122
H60	H	2.120605	0.408585	0.499878
H61	H	0.885983	0.517454	-0.000034
H62	H	1.385983	1.017454	0.499966
H63	H	1.063591	0.245278	-0.000048
H64	H	1.563591	0.745278	0.499952
H65	H	1.392391	0.436648	0.636878
H66	H	1.892391	0.936648	1.136878
H67	H	0.855293	0.289025	-0.000054
H68	H	1.355293	0.789025	0.499946
H69	H	1.328988	-0.145870	-0.000029
H70	H	1.828988	0.354130	0.499971
H71	H	1.557169	0.326076	0.363079
H72	H	2.057169	0.826076	0.863079
H73	H	1.597325	0.299155	0.588028
H74	H	2.097325	0.799155	1.088028
H75	H	1.352254	0.463557	0.411935
H76	H	1.852254	0.963557	0.911935
