data_functionalizedCrystal
_audit_creation_method	'MofGen! by Chris Wilmer'
_symmetry_space_group_name_H-M	'P1'
_symmetry_Int_Tables_number	1
_symmetry_cell_setting	triclinic
loop_
_symmetry_equiv_pos_as_xyz
  x,y,z
_cell_length_a	15.995350
_cell_length_b	16.956995
_cell_length_c	16.053789
_cell_angle_alpha	86.947539
_cell_angle_beta	92.885883
_cell_angle_gamma	100.226577
loop_
_atom_site_label
_atom_site_type_symbol
_atom_site_fract_x
_atom_site_fract_y
_atom_site_fract_z
O1	O	0.037645	-1.061038	0.069486
O2	O	0.537645	-0.561038	0.569486
O3	O	0.067039	-0.828881	0.069474
O4	O	0.567039	-0.328881	0.569474
O5	O	-0.069984	-0.951306	0.069479
O6	O	0.430016	-0.451306	0.569479
O7	O	0.174669	-0.938613	0.069480
O8	O	0.674669	-0.438613	0.569480
O9	O	-0.075869	-0.945297	-0.069380
O10	O	0.424131	-0.445297	0.430620
O11	O	0.061155	-0.822872	-0.069386
O12	O	0.561155	-0.322872	0.430614
O13	O	0.031760	-1.055030	-0.069374
O14	O	0.531760	-0.555030	0.430626
Zn15	Zn	0.045523	-0.937997	-0.091427
Zn16	Zn	0.545523	-0.437997	0.408573
Zn17	Zn	0.053277	-0.945913	0.091527
Zn18	Zn	0.553277	-0.445913	0.591527
O19	O	0.168784	-0.932605	-0.069379
O20	O	0.668784	-0.432605	0.430621
C21	C	-0.104085	-0.947777	0.000051
C22	C	0.395915	-0.447777	0.500051
C23	C	-0.196927	-0.946204	0.000056
C24	C	0.303073	-0.446204	0.500056
C25	C	0.065602	-0.796168	0.000042
C26	C	0.565602	-0.296168	0.500042
C27	C	0.070076	-0.707648	0.000038
C28	C	0.570076	-0.207648	0.500038
C29	C	0.033198	-1.087742	0.000059
C30	C	0.533198	-0.587742	0.500059
C31	C	0.028724	-1.176263	0.000069
C32	C	0.528724	-0.676263	0.500069
C33	C	-0.534283	-0.940554	0.000053
C34	C	-0.034283	-0.440554	0.500053
C35	C	-0.480802	-0.853379	0.000360
C36	C	0.019198	-0.353379	0.500360
C37	C	-0.384234	-0.854939	0.000047
C38	C	0.115766	-0.354939	0.500047
C39	C	-0.366917	-0.943357	0.000055
C40	C	0.133083	-0.443357	0.500055
C41	C	-0.414331	-0.982930	-0.079237
C42	C	0.085669	-0.482930	0.420763
C43	C	-0.510818	-0.980737	-0.079304
C44	C	-0.010818	-0.480737	0.420696
C45	C	-0.504608	-0.989371	0.078606
C46	C	-0.004608	-0.489371	0.578606
C47	C	-0.407617	-0.989395	0.079654
C48	C	0.092383	-0.489395	0.579654
C49	C	-0.272329	-0.944945	0.000053
C50	C	0.227671	-0.444945	0.500053
C51	C	-0.628871	-0.938968	0.000049
C52	C	-0.128871	-0.438968	0.500049
C53	C	0.202885	-0.936134	0.000051
C54	C	0.702885	-0.436134	0.500051
C55	C	0.295727	-0.937707	0.000052
C56	C	0.795727	-0.437707	0.500052
C57	C	0.103552	-0.208349	0.000069
C58	C	0.603552	0.291651	0.500069
C59	C	0.099341	-0.291524	0.000069
C60	C	0.599341	0.208476	0.500069
C61	C	0.020301	-0.342612	0.000062
C62	C	0.520301	0.157388	0.500062
C63	C	-0.054532	-0.310521	0.000064
C64	C	0.445468	0.189479	0.500064
C65	C	-0.050320	-0.227348	0.000071
C66	C	0.449680	0.272652	0.500071
C67	C	-0.000545	-0.592384	0.000047
C68	C	0.499455	-0.092384	0.500047
C69	C	-0.004752	-0.675562	0.000038
C70	C	0.495248	-0.175562	0.500038
C71	C	0.149122	-0.656559	0.000044
C72	C	0.649122	-0.156559	0.500044
C73	C	0.153327	-0.573385	0.000045
C74	C	0.653327	-0.073385	0.500045
C75	C	0.078494	-0.541301	0.000052
C76	C	0.578494	-0.041301	0.500052
N77	N	0.015995	-0.427630	0.000059
N78	N	0.515995	0.072370	0.500059
N79	N	0.082801	-0.456285	0.000061
N80	N	0.582801	0.043715	0.500061
N81	N	0.040230	-0.932600	-0.216288
N82	N	0.540230	-0.432600	0.283712
C83	C	0.085847	-0.979072	-0.259976
C84	C	0.585847	-0.479072	0.240024
C85	C	0.082138	-0.975307	-0.347383
C86	C	0.582138	-0.475307	0.152617
C87	C	0.032818	-0.925067	-0.391101
C88	C	0.532818	-0.425067	0.108899
C89	C	-0.012804	-0.878593	-0.347407
C90	C	0.487196	-0.378593	0.152593
C91	C	-0.009100	-0.882363	-0.260001
C92	C	0.490900	-0.382363	0.239999
C93	C	0.016645	-0.908612	-0.652513
C94	C	0.516645	-0.408612	-0.152513
C95	C	0.012946	-0.904845	-0.739924
C96	C	0.512946	-0.404845	-0.239924
C97	C	0.107887	-1.001561	-0.739894
C98	C	0.607887	-0.501561	-0.239894
C99	C	0.111591	-1.005322	-0.652487
C100	C	0.611591	-0.505322	-0.152487
C101	C	0.065966	-0.958852	-0.608801
C102	C	0.565966	-0.458852	-0.108801
N103	N	0.029028	-0.921216	-0.480445
N104	N	0.529028	-0.421216	0.019555
N105	N	0.069752	-0.962707	-0.519458
N106	N	0.569752	-0.462707	-0.019458
N107	N	0.058562	-0.951317	0.216388
N108	N	0.558562	-0.451317	0.716388
H109	H	-0.351064	-0.823594	0.056886
H110	H	0.148936	-0.323594	0.556886
H111	H	-0.020507	-0.870773	-0.616954
H112	H	0.479493	-0.370773	-0.116954
N113	N	0.188801	-0.153248	0.000050
N114	N	0.688801	0.346752	0.500050
H115	H	0.235565	-0.186198	0.000045
H116	H	0.735565	0.313802	0.500045
H117	H	0.196094	-0.120549	0.051523
H118	H	0.696094	0.379451	0.551523
H119	H	-0.375706	-0.960492	0.138312
H120	H	0.124294	-0.460492	0.638312
N121	N	-0.498960	-0.810467	0.075674
N122	N	0.001040	-0.310467	0.575674
H123	H	-0.542031	-0.847116	0.110327
H124	H	-0.042031	-0.347116	0.610327
H125	H	-0.522310	-0.760624	0.056678
H126	H	-0.022310	-0.260624	0.556678
N127	N	-0.139784	-0.365619	0.000061
N128	N	0.360216	0.134381	0.500061
H129	H	-0.131100	-0.423178	0.000053
H130	H	0.368900	0.076822	0.500053
H131	H	-0.174821	-0.352992	-0.051417
H132	H	0.325179	0.147008	0.448583
H133	H	-0.111253	-0.201226	0.000073
H134	H	0.388747	0.298774	0.500073
N135	N	-0.552527	-1.074556	0.079322
N136	N	-0.052527	-0.574556	0.579322
H137	H	-0.585449	-1.086421	0.131929
H138	H	-0.085449	-0.586421	0.631929
H139	H	-0.510915	-1.112729	0.077441
H140	H	-0.010915	-0.612729	0.577441
N141	N	0.164781	-1.059517	-0.605337
N142	N	0.664781	-0.559517	-0.105337
H143	H	0.127181	-1.100106	-0.569065
H144	H	0.627181	-0.600106	-0.069065
H145	H	0.209675	-1.026305	-0.569126
H146	H	0.709675	-0.526305	-0.069126
N147	N	-0.081254	-0.557783	0.000045
N148	N	0.418746	-0.057783	0.500045
H149	H	-0.113446	-0.578649	0.051515
H150	H	0.386554	-0.078649	0.551515
H151	H	-0.117730	-0.574186	-0.051470
H152	H	0.382270	-0.074186	0.448530
H153	H	-0.052966	-0.837690	-0.383009
H154	H	0.447034	-0.337690	0.116991
H155	H	0.160274	-0.317644	0.000076
H156	H	0.660274	0.182356	0.500076
N157	N	-0.090005	-0.730668	0.000030
N158	N	0.409995	-0.230668	0.500030
H159	H	-0.136773	-0.697723	0.000037
H160	H	0.363227	-0.197723	0.500037
H161	H	-0.092919	-0.767827	0.051502
H162	H	0.407081	-0.267827	0.551502
H163	H	-0.500392	-0.816238	-0.056189
H164	H	-0.000392	-0.316238	0.443811
N165	N	0.139047	-1.033257	-0.212826
N166	N	0.639047	-0.533257	0.287174
H167	H	0.167380	-1.062126	-0.253768
H168	H	0.667380	-0.562126	0.246232
H169	H	0.101402	-1.073802	-0.176553
H170	H	0.601402	-0.573802	0.323447
N171	N	-0.347392	-0.806603	-0.075377
N172	N	0.152608	-0.306603	0.424623
H173	H	-0.393893	-0.784203	-0.108554
H174	H	0.106107	-0.284203	0.391446
H175	H	-0.321647	-0.842258	-0.111441
H176	H	0.178353	-0.342258	0.388559
H177	H	0.217690	-0.531793	0.000053
H178	H	0.717690	-0.031793	0.500053
N179	N	-0.535522	-0.935803	-0.157821
N180	N	-0.035522	-0.435803	0.342179
H181	H	-0.483755	-0.917602	-0.192063
H182	H	0.016245	-0.417602	0.307937
H183	H	-0.559434	-0.887529	-0.142392
H184	H	-0.059434	-0.387529	0.357608
H185	H	0.210047	-0.682691	0.000039
H186	H	0.710047	-0.182691	0.500039
H187	H	-0.396514	-1.054081	0.084447
H188	H	0.103486	-0.554081	0.584447
H189	H	0.119282	-1.013151	-0.382950
H190	H	0.619282	-0.513151	0.117050
N191	N	-0.559612	-1.065317	-0.084068
N192	N	-0.059612	-0.565317	0.415932
H193	H	-0.518406	-1.103860	-0.086119
H194	H	-0.018406	-0.603860	0.413881
H195	H	-0.598141	-1.069450	-0.136041
H196	H	-0.098141	-0.569450	0.363959
H197	H	-0.046245	-0.844520	-0.224432
H198	H	0.453755	-0.344520	0.275568
H199	H	0.145032	-1.039394	-0.775473
H200	H	0.645032	-0.539394	-0.275473
H201	H	-0.520628	-0.963465	0.138705
H202	H	-0.020628	-0.463465	0.638705
H203	H	-0.027216	-0.863929	-0.775517
H204	H	0.472784	-0.363929	-0.275517
H205	H	-0.404825	-1.047761	-0.082180
H206	H	0.095175	-0.547761	0.417820
H207	H	-0.386383	-0.950508	-0.138249
H208	H	0.113617	-0.450508	0.361751
