data_functionalizedCrystal
_audit_creation_method	'MofGen! by Chris Wilmer'
_symmetry_space_group_name_H-M	'P1'
_symmetry_Int_Tables_number	1
_symmetry_cell_setting	triclinic
loop_
_symmetry_equiv_pos_as_xyz
  x,y,z
_cell_length_a	14.560438
_cell_length_b	23.196402
_cell_length_c	23.196401
_cell_angle_alpha	90.011299
_cell_angle_beta	60.007904
_cell_angle_gamma	59.997646
loop_
_atom_site_label
_atom_site_type_symbol
_atom_site_fract_x
_atom_site_fract_y
_atom_site_fract_z
Zr1	Zr	1.005259	0.555353	-0.075657
O2	O	1.196866	0.463279	-0.167705
O3	O	0.813655	0.583579	-0.047441
O4	O	1.005260	0.583550	-0.167710
O5	O	1.005259	0.463331	0.047435
O6	O	1.005256	0.678422	-0.167712
O7	O	1.005262	0.463308	-0.047437
O8	O	0.662510	0.678474	0.047427
O9	O	1.348005	0.463279	-0.167704
O10	O	0.892460	0.666419	-0.035407
O11	O	0.892461	0.595634	0.035396
O12	O	1.118051	0.595600	-0.106205
O13	O	1.118052	0.524815	-0.035402
Zr14	Zr	1.005249	0.706699	0.075648
Zr15	Zr	1.005252	0.706663	-0.075661
Zr16	Zr	1.005255	0.555390	0.075652
Zr17	Zr	1.246307	0.555353	-0.075655
Zr18	Zr	0.764200	0.706700	0.075646
O19	O	1.196852	0.678473	0.047432
O20	O	1.196857	0.678422	-0.167710
O21	O	1.196861	0.463330	0.047437
O22	O	0.813641	0.798774	0.167696
O23	O	0.813646	0.798722	-0.047445
O24	O	0.813650	0.583631	0.167701
O25	O	1.005248	0.798722	-0.047444
O26	O	1.005247	0.678502	0.167701
O27	O	1.005251	0.583631	0.167703
O28	O	1.005246	0.798745	0.047428
O29	O	1.348000	0.583550	-0.167706
O30	O	0.662507	0.678503	0.167698
O31	O	0.662502	0.798774	0.167695
O32	O	0.662505	0.798745	0.047425
O33	O	1.348002	0.463307	-0.047433
O34	O	1.347997	0.583579	-0.047436
O35	O	0.892456	0.666453	0.106196
O36	O	0.892455	0.737238	0.035393
O37	O	1.118046	0.666419	-0.035405
O38	O	1.118047	0.595634	0.035398
C39	C	0.703738	0.631027	-0.000007
C40	C	0.601407	0.631027	-0.000008
C41	C	1.005261	0.441761	-0.000000
C42	C	1.005264	0.377526	0.000001
C43	C	1.005258	0.630981	-0.189269
C44	C	1.005260	0.630966	-0.253503
C45	C	0.553332	0.667973	-0.036968
C46	C	0.457174	0.667975	-0.036962
C47	C	0.457179	0.594078	0.036963
C48	C	0.553328	0.594081	0.036962
C49	C	0.601410	0.704919	-0.073937
C50	C	0.553336	0.741868	-0.110901
C51	C	0.457179	0.741870	-0.110895
C52	C	0.409095	0.704923	-0.073926
C53	C	1.306769	0.631026	-0.000002
C54	C	1.409100	0.631026	-0.000001
C55	C	1.005275	0.347341	-0.052268
C56	C	1.005263	0.286990	-0.052268
C57	C	1.005267	0.256818	-0.000004
C58	C	1.005249	0.287012	0.052274
C59	C	1.005247	0.347366	0.052276
C60	C	1.080950	0.137447	0.016283
C61	C	1.080960	0.077091	0.016275
C62	C	1.005265	0.070668	-0.000008
C63	C	0.929578	0.124602	-0.016299
C64	C	0.929576	0.184956	-0.016296
C65	C	1.005267	0.191374	-0.000001
C66	C	1.005261	-0.024956	-0.052280
C67	C	1.005242	-0.085306	-0.052275
C68	C	1.005240	-0.085287	0.052264
C69	C	1.005247	-0.024934	0.052262
C70	C	1.005264	0.005226	-0.000013
C71	C	1.005246	0.820292	-0.000009
C72	C	1.005243	0.884527	-0.000010
C73	C	1.123012	0.594002	-0.320632
C74	C	1.123014	0.594020	-0.380988
C75	C	1.005257	0.630992	-0.374210
C76	C	0.887489	0.667963	-0.307069
C77	C	0.887490	0.667950	-0.246716
C78	C	0.915039	0.625742	-0.441528
C79	C	0.915043	0.625750	-0.501881
C80	C	1.005247	0.631037	-0.560357
C81	C	1.095469	0.636301	-0.558480
C82	C	1.095471	0.636288	-0.498126
C83	C	1.005242	0.631011	-0.439648
C84	C	1.123009	0.594091	-0.692933
C85	C	1.123006	0.594114	-0.753288
C86	C	0.887477	0.668052	-0.679367
C87	C	0.887484	0.668034	-0.619014
C88	C	1.005253	0.631050	-0.625802
C89	C	1.005249	0.631072	0.189260
C90	C	1.005247	0.631087	0.253495
C91	C	0.703731	0.820292	-0.000011
C92	C	0.601397	0.884527	-0.000014
C93	C	0.703734	0.631072	0.189257
C94	C	0.601401	0.631088	0.253491
C95	C	0.703726	0.820338	0.189253
C96	C	0.601390	0.884588	0.253485
C97	C	1.306781	0.441715	-0.189262
C98	C	1.409117	0.377465	-0.253494
C99	C	1.306776	0.441761	0.000002
C100	C	1.409111	0.377525	0.000005
C101	C	1.306773	0.630981	-0.189266
C102	C	1.409106	0.630965	-0.253500
C103	C	0.553342	0.877726	-0.036978
C104	C	0.457201	0.938076	-0.036994
C105	C	0.409111	1.005226	-0.000042
C106	C	0.457175	1.012026	0.036924
C107	C	0.553320	0.951677	0.036936
C108	C	0.553342	0.668062	0.320619
C109	C	0.457202	0.668074	0.380979
C110	C	0.409117	0.631115	0.374210
C111	C	0.457186	0.594137	0.307075
C112	C	0.553330	0.594121	0.246716
C113	C	0.553332	0.951716	0.246691
C114	C	0.457190	1.012092	0.307038
C115	C	0.409102	1.005338	0.374179
C116	C	0.457170	0.938203	0.380972
C117	C	0.553316	0.877829	0.320626
C118	C	1.457187	0.310337	-0.246700
C119	C	1.553359	0.249961	-0.307047
C120	C	1.601452	0.256714	-0.374188
C121	C	1.553378	0.323850	-0.380981
C122	C	1.457214	0.384224	-0.320635
C123	C	1.457175	0.384327	0.036963
C124	C	1.553342	0.323977	0.036962
C125	C	1.601436	0.256826	0.000008
C126	C	1.553367	0.250026	-0.036955
C127	C	1.457209	0.310376	-0.036958
C128	C	1.457161	0.667931	-0.246708
C129	C	1.553301	0.667930	-0.307056
C130	C	1.601391	0.630959	-0.374196
C131	C	1.553327	0.593992	-0.380987
C132	C	1.457182	0.593998	-0.320639
H133	H	0.679709	0.704921	-0.073948
H134	H	0.330831	0.631134	0.423363
H135	H	1.418067	0.563893	-0.326179
C136	C	1.606270	0.176159	-0.077596
H137	H	1.670410	0.141197	-0.072289
H138	H	1.643788	0.170839	-0.126220
H139	H	1.537242	0.170866	-0.059335
C140	C	0.606227	0.708715	0.328075
H141	H	0.670365	0.703420	0.282518
H142	H	0.643742	0.690465	0.353150
H143	H	0.537192	0.757347	0.353155
C144	C	0.606210	0.782514	-0.151558
H145	H	0.563792	0.804525	-0.173562
H146	H	0.696987	0.750607	-0.186532
H147	H	0.590440	0.817499	-0.119654
C148	C	1.606205	0.331465	0.077621
H149	H	1.670376	0.285910	0.072326
H150	H	1.537175	0.356552	0.126242
H151	H	1.643702	0.356546	0.059365
H152	H	0.418029	0.771960	-0.140986
C153	C	0.606156	0.803992	0.328108
H154	H	0.563730	0.808623	0.376739
H155	H	0.696934	0.778892	0.306105
H156	H	0.590373	0.778912	0.306108
H157	H	1.592548	0.329340	-0.435654
C158	C	0.404334	0.708754	0.454820
H159	H	0.340198	0.703467	0.489803
H160	H	0.366819	0.757378	0.460108
H161	H	0.473377	0.690503	0.460106
C162	C	1.005251	0.380566	0.109770
H163	H	1.005259	0.353953	0.140895
H164	H	0.929923	0.427762	0.135585
H165	H	1.080600	0.380452	0.088294
H166	H	1.679735	0.207692	0.000016
C167	C	1.404290	0.458186	0.077612
H168	H	1.340128	0.493160	0.072326
H169	H	1.473318	0.463474	0.059357
H170	H	1.366779	0.463491	0.126237
H171	H	0.418024	0.563996	0.067060
H172	H	0.592479	0.563992	0.067053
H173	H	1.418021	0.698037	-0.192045
H174	H	1.168931	0.640575	-0.496600
C175	C	1.404331	0.302886	-0.077604
H176	H	1.446742	0.254249	-0.099604
H177	H	1.420075	0.324882	-0.112582
H178	H	1.313552	0.324894	-0.045697
C179	C	0.303321	0.704927	-0.073919
H180	H	0.281576	0.732221	-0.101228
H181	H	0.228304	0.724724	-0.026833
H182	H	0.334848	0.657831	-0.093709
H183	H	0.418021	0.564046	0.301573
C184	C	1.707224	0.190301	-0.440565
H185	H	1.728993	0.203932	-0.481529
H186	H	1.675704	0.162998	-0.440561
H187	H	1.782241	0.163003	-0.440559
H188	H	1.005284	0.371897	-0.094832
H189	H	1.592425	0.698031	-0.301514
C190	C	1.707158	0.630952	-0.440573
H191	H	1.728893	0.658259	-0.426905
H192	H	1.675658	0.650733	-0.467883
H193	H	1.782192	0.583857	-0.467872
H194	H	0.592447	0.564015	0.192060
C195	C	0.606216	0.959159	0.172844
H196	H	0.563823	1.007789	0.177451
H197	H	0.590455	0.937150	0.147761
H198	H	0.696999	0.937142	0.147767
C199	C	1.164184	0.017779	0.034213
H200	H	1.209237	0.030256	0.043929
H201	H	1.225054	-0.024882	-0.004704
H202	H	1.109584	0.011386	0.074498
C203	C	1.606246	0.553321	-0.454843
H204	H	1.670399	0.558609	-0.489805
H205	H	1.537240	0.571560	-0.460153
H206	H	1.643780	0.504692	-0.460138
H207	H	0.418063	1.066751	0.301495
H208	H	1.005272	0.262409	-0.094833
H209	H	1.218910	0.563890	-0.326165
C210	C	0.303333	1.071754	0.440554
H211	H	0.281595	1.112698	0.426886
H212	H	0.334832	1.071774	0.467864
H213	H	0.228300	1.071770	0.467855
H214	H	1.592484	0.195303	-0.301503
H215	H	1.418076	0.438881	-0.326175
H216	H	0.867946	0.228868	-0.029559
H217	H	1.005269	-0.000397	-0.094844
C218	C	0.846291	0.117551	-0.034198
H219	H	0.857111	0.073889	-0.031856
H220	H	0.872887	0.119082	-0.080492
H221	H	0.757479	0.155331	-0.001276
H222	H	1.005242	-0.109880	-0.094837
H223	H	1.005236	-0.109850	0.094821
H224	H	1.168926	0.640602	-0.606094
H225	H	1.142510	0.142694	0.029601
C226	C	1.005253	0.008268	0.109751
H227	H	1.005244	0.048536	0.102270
H228	H	1.080586	-0.025269	0.107585
H229	H	0.929910	0.022034	0.154871
H230	H	0.330822	1.054361	-0.000056
C231	C	1.252547	0.553424	-0.700394
H232	H	1.322679	0.531423	-0.749021
H233	H	1.257458	0.518443	-0.678404
H234	H	1.257429	0.585329	-0.678370
H235	H	1.005248	0.262444	0.094829
H236	H	1.218905	0.563918	-0.435654
C237	C	0.404256	1.085893	0.077575
H238	H	0.340103	1.120856	0.072276
H239	H	0.473263	1.091198	0.059335
H240	H	0.366723	1.091202	0.126202
H241	H	0.418002	0.932715	0.435646
H242	H	1.218898	0.564017	-0.807949
C243	C	0.757954	0.708685	-0.545170
H244	H	0.687820	0.730702	-0.549776
H245	H	0.753054	0.743653	-0.520073
H246	H	0.753066	0.676772	-0.520108
H247	H	0.841583	0.621460	-0.503405
C248	C	0.815814	0.619923	-0.377209
H249	H	0.762097	0.616778	-0.386975
H250	H	0.763637	0.660512	-0.337278
H251	H	0.860502	0.578876	-0.367703
C252	C	1.404302	0.302898	-0.172852
H253	H	1.340137	0.348465	-0.137877
H254	H	1.473330	0.277826	-0.167557
H255	H	1.366797	0.277817	-0.167559
H256	H	0.791610	0.698067	-0.301554
C257	C	0.404333	0.930588	-0.077650
H258	H	0.340194	0.976143	-0.072375
H259	H	0.366822	0.905517	-0.059390
H260	H	0.473374	0.905490	-0.126272
H261	H	0.791599	0.698051	-0.192054
H262	H	0.791597	0.698156	-0.673847
C263	C	0.606174	0.959163	0.077598
H264	H	0.670331	0.913608	0.072313
H265	H	0.537137	0.984259	0.126217
H266	H	0.643686	0.984236	0.059338
H267	H	0.592496	0.823054	-0.067078
