data_functionalizedCrystal
_audit_creation_method	'MofGen! by Chris Wilmer'
_symmetry_space_group_name_H-M	'P1'
_symmetry_Int_Tables_number	1
_symmetry_cell_setting	triclinic
loop_
_symmetry_equiv_pos_as_xyz
  x,y,z
_cell_length_a	15.944551
_cell_length_b	23.532407
_cell_length_c	15.021413
_cell_angle_alpha	89.999348
_cell_angle_beta	89.997174
_cell_angle_gamma	83.173708
loop_
_atom_site_label
_atom_site_type_symbol
_atom_site_fract_x
_atom_site_fract_y
_atom_site_fract_z
O1	O	1.113910	0.073442	-0.073949
O2	O	0.869284	0.082498	-0.073972
O3	O	0.998974	-0.004933	-0.073943
O4	O	0.984220	0.160873	-0.073977
O5	O	0.998953	-0.004921	0.074121
O6	O	0.869263	0.082510	0.074092
O7	O	1.113889	0.073455	0.074116
Zn8	Zn	0.991573	0.077985	0.097612
Zn9	Zn	0.991600	0.077968	-0.097469
O10	O	0.984200	0.160886	0.074087
C11	C	0.837983	0.082128	0.000057
C12	C	0.744746	0.081001	0.000049
C13	C	0.530369	0.024113	0.000078
C14	C	0.469137	0.050524	-0.072931
C15	C	0.574038	0.078962	0.000060
C16	C	0.469138	0.050549	0.073049
C17	C	0.409142	0.076989	0.000075
C18	C	0.514033	0.105388	-0.073009
C19	C	0.514041	0.105405	0.073036
C20	C	0.452826	0.131856	0.000010
C21	C	0.669030	0.080097	0.000051
C22	C	0.314150	0.075858	0.000077
C23	C	0.998588	-0.026144	0.000091
C24	C	0.997458	-0.089366	0.000098
C25	C	1.067121	-0.488199	0.000056
C26	C	1.066072	-0.547603	0.000049
O27	O	1.130650	-0.584098	0.000022
N28	N	0.988971	-0.570528	0.000042
C29	C	0.912915	-0.534045	0.000033
O30	O	0.847239	-0.558999	0.000026
C31	C	0.913965	-0.474642	0.000034
C32	C	0.991071	-0.451721	0.000049
C33	C	1.144220	-0.465277	0.000070
C34	C	1.145269	-0.405877	0.000079
C35	C	1.069219	-0.369399	0.000073
C36	C	0.992120	-0.392320	0.000058
C37	C	0.837910	-0.438160	0.000018
C38	C	0.838967	-0.378754	0.000018
C39	C	0.916072	-0.355832	0.000034
C40	C	0.917118	-0.296442	0.000060
N41	N	0.994219	-0.273517	0.000067
C42	C	1.070269	-0.309995	0.000073
C43	C	0.910716	-0.658796	0.000031
C44	C	0.909664	-0.718198	0.000037
C45	C	1.062821	-0.731752	0.000050
C46	C	1.063872	-0.672349	0.000051
C47	C	0.987816	-0.635871	0.000037
C48	C	1.072466	-0.185250	0.000092
C49	C	1.073508	-0.125844	0.000104
C50	C	0.920352	-0.112295	0.000085
C51	C	0.919309	-0.171696	0.000078
C52	C	0.995373	-0.208173	0.000078
O53	O	0.852574	-0.259913	0.000083
O54	O	1.135935	-0.285033	0.000069
C55	C	1.145190	0.073824	0.000084
C56	C	1.238427	0.074951	0.000087
C57	C	0.984586	0.182097	0.000051
C58	C	0.985715	0.245318	0.000038
N59	N	0.991561	0.077995	0.230750
N60	N	0.991619	0.077953	-0.230606
C61	C	0.931583	0.118404	0.470420
C62	C	1.007390	0.129461	0.529759
C63	C	0.991582	0.077981	0.412357
C64	C	0.915796	0.066938	0.529760
C65	C	0.991596	0.077969	0.587781
C66	C	1.067428	0.089063	0.470389
C67	C	0.975783	0.026518	0.470385
C68	C	1.051645	0.037552	0.529697
C69	C	0.991573	0.077990	0.311300
C70	C	0.991614	0.077960	0.688836
H71	H	0.449239	0.027346	0.134770
H72	H	0.962383	-0.016985	0.444284
H73	H	1.102446	0.003360	0.555561
H74	H	1.136300	-0.107185	0.000119
O75	O	0.570606	-0.030187	0.000165
C76	C	0.666605	-0.100369	0.077135
C77	C	0.621073	-0.038867	0.077164
H78	H	0.707432	-0.107403	0.139373
H79	H	0.617882	-0.132116	0.076516
H80	H	0.708255	-0.107109	0.015451
H81	H	0.579425	-0.032073	0.138839
H82	H	0.669841	-0.007152	0.077738
H83	H	1.134405	-0.214943	0.000089
H84	H	0.419284	0.177423	-0.000040
H85	H	0.851698	0.057603	0.555841
H86	H	0.775123	-0.456812	0.000000
O87	O	0.445438	0.022753	-0.146488
C88	C	0.458455	-0.065409	-0.229678
C89	C	0.485342	-0.034027	-0.146332
H90	H	0.490718	-0.111317	-0.229588
H91	H	0.387003	-0.065678	-0.229303
H92	H	0.477782	-0.042447	-0.291883
H93	H	0.466072	-0.056965	-0.084082
H94	H	0.556791	-0.033754	-0.146785
H95	H	0.533834	0.128564	-0.134800
H96	H	0.880895	0.152617	0.444393
O97	O	0.537803	0.132981	0.146753
C98	C	0.542110	0.135269	0.307051
C99	C	0.515169	0.103984	0.223633
H100	H	0.523806	0.111845	0.369230
H101	H	0.613427	0.136204	0.306045
H102	H	0.508988	0.180951	0.307629
H103	H	0.548232	0.058289	0.223002
H104	H	0.443844	0.103095	0.224672
H105	H	0.856524	-0.190359	0.000090
H106	H	0.846878	-0.736855	0.000039
O107	O	1.023206	0.181413	0.560838
C108	C	0.977887	0.282764	0.565853
C109	C	0.959872	0.223962	0.530619
H110	H	0.926702	0.317182	0.541420
H111	H	0.978310	0.282165	0.641741
H112	H	1.042030	0.292481	0.540432
H113	H	0.895728	0.214208	0.555975
H114	H	0.959504	0.224591	0.454732
O115	O	1.143834	0.100319	0.439267
C116	C	1.229540	0.112963	0.310280
C117	C	1.142981	0.100196	0.345407
H118	H	1.228885	0.112856	0.234391
H119	H	1.243093	0.156708	0.335223
H120	H	1.280747	0.078733	0.335232
H121	H	1.091719	0.134390	0.320470
H122	H	1.129501	0.056434	0.320471
H123	H	1.208056	-0.387220	0.000088
O124	O	1.218179	-0.500626	0.000119
C125	C	1.370199	-0.507780	0.000097
C126	C	1.286496	-0.467688	0.000053
H127	H	1.425455	-0.481166	0.000025
H128	H	1.373589	-0.535917	0.062079
H129	H	1.373513	-0.535944	-0.061851
H130	H	1.283126	-0.439488	0.061958
H131	H	1.283141	-0.439590	-0.061970
H132	H	1.126658	-0.653691	0.000063
H133	H	1.124746	-0.761464	0.000052
H134	H	0.848778	-0.629098	0.000027
H135	H	0.777032	-0.349056	0.000006
H136	H	0.858434	-0.082584	0.000084
