data_functionalizedCrystal
_audit_creation_method	'MofGen! by Chris Wilmer'
_symmetry_space_group_name_H-M	'P1'
_symmetry_Int_Tables_number	1
_symmetry_cell_setting	triclinic
loop_
_symmetry_equiv_pos_as_xyz
  x,y,z
_cell_length_a	16.625548
_cell_length_b	18.050590
_cell_length_c	18.050582
_cell_angle_alpha	89.976663
_cell_angle_beta	89.985107
_cell_angle_gamma	90.019620
loop_
_atom_site_label
_atom_site_type_symbol
_atom_site_fract_x
_atom_site_fract_y
_atom_site_fract_z
Zn1	Zn	1.232657	-0.295685	-0.419908
Zn2	Zn	1.732657	0.204315	0.080092
Zn3	Zn	1.232583	-0.419869	-0.295716
Zn4	Zn	1.732583	0.080131	0.204284
Zn5	Zn	1.097832	-0.295699	-0.295732
Zn6	Zn	1.597832	0.204301	0.204268
Zn7	Zn	1.097799	-0.419840	-0.419865
Zn8	Zn	1.597799	0.080160	0.080135
O9	O	1.165218	-0.357774	-0.357805
O10	O	1.665218	0.142226	0.142195
O11	O	1.345480	-0.312165	-0.403445
O12	O	1.845480	0.187835	0.096555
O13	O	1.214691	-0.403415	-0.191794
O14	O	1.714691	0.096585	0.308206
O15	O	1.115762	-0.191773	-0.312229
O16	O	1.615762	0.308227	0.187771
O17	O	1.345425	-0.403402	-0.312202
O18	O	1.845425	0.096598	0.187798
O19	O	1.214818	-0.191763	-0.403461
O20	O	1.714818	0.308237	0.096539
O21	O	1.115690	-0.312188	-0.191805
O22	O	1.615690	0.187812	0.308195
O23	O	0.984996	-0.312161	-0.312187
O24	O	1.484996	0.187839	0.187813
O25	O	1.115705	-0.403353	-0.523795
O26	O	1.615705	0.096647	-0.023795
O27	O	0.984971	-0.403367	-0.403387
O28	O	1.484971	0.096633	0.096613
O29	O	1.214785	-0.312137	-0.523827
O30	O	1.714785	0.187863	-0.023827
O31	O	1.214658	-0.523790	-0.312160
O32	O	1.714658	-0.023790	0.187840
O33	O	1.115633	-0.523769	-0.403372
O34	O	1.615633	-0.023769	0.096628
C35	C	0.955727	-0.357763	-0.357785
C36	C	1.455727	0.142237	0.142215
C37	C	0.866106	-0.357776	-0.357793
C38	C	1.366106	0.142224	0.142207
C39	C	0.537930	-0.357781	-0.357825
C40	C	1.037930	0.142219	0.142175
C41	C	0.629239	-0.357778	-0.357814
C42	C	1.129239	0.142222	0.142186
C43	C	0.702015	-0.357779	-0.357809
C44	C	1.202015	0.142221	0.142191
C45	C	0.793329	-0.357775	-0.357799
C46	C	1.293329	0.142225	0.142201
C47	C	1.165156	-0.550726	-0.357776
C48	C	1.665156	-0.050726	0.142224
C49	C	1.165203	-0.633271	-0.357788
C50	C	1.665203	-0.133271	0.142212
C51	C	1.219165	-0.832706	-0.308256
C52	C	1.719165	-0.332706	0.191744
C53	C	1.238855	-0.882045	-0.376037
C54	C	1.738855	-0.382045	0.123963
C55	C	1.165249	-0.784402	-0.357818
C56	C	1.665249	-0.284402	0.142182
C57	C	1.145641	-0.882145	-0.290068
C58	C	1.645641	-0.382145	0.209932
C59	C	1.165295	-0.930387	-0.357840
C60	C	1.665295	-0.430387	0.142160
C61	C	1.184977	-0.832653	-0.425633
C62	C	1.684977	-0.332653	0.074367
C63	C	1.091728	-0.832749	-0.339619
C64	C	1.591728	-0.332749	0.160381
C65	C	1.111390	-0.882065	-0.407446
C66	C	1.611390	-0.382065	0.092554
C67	C	1.165225	-0.700303	-0.357804
C68	C	1.665225	-0.200303	0.142196
C69	C	1.165319	-1.014483	-0.357862
C70	C	1.665319	-0.514483	0.142138
C71	C	1.375527	-0.357785	-0.357827
C72	C	1.875527	0.142215	0.142173
C73	C	1.465148	-0.357789	-0.357836
C74	C	1.965148	0.142211	0.142164
C75	C	1.165249	-0.357741	-0.551511
C76	C	1.665249	0.142259	-0.051511
C77	C	1.165263	-0.357727	-0.634057
C78	C	1.665263	0.142273	-0.134057
C79	C	1.165302	-0.164068	-0.357851
C80	C	1.665302	0.335932	0.142149
C81	C	1.165338	-0.081522	-0.357871
C82	C	1.665338	0.418478	0.142129
C83	C	1.111424	-0.407262	-0.833490
C84	C	1.611424	0.092738	-0.333490
C85	C	1.184991	-0.425414	-0.882882
C86	C	1.684991	0.074586	-0.382882
C87	C	1.165303	-0.357670	-0.785187
C88	C	1.665303	0.142330	-0.285187
C89	C	1.091777	-0.339497	-0.882878
C90	C	1.591777	0.160503	-0.382878
C91	C	1.165335	-0.357617	-0.931173
C92	C	1.665335	0.142383	-0.431173
C93	C	1.238907	-0.375858	-0.833491
C94	C	1.738907	0.124142	-0.333491
C95	C	1.145644	-0.289909	-0.833483
C96	C	1.645644	0.210091	-0.333483
C97	C	1.219261	-0.308035	-0.882852
C98	C	1.719261	0.191965	-0.382852
C99	C	1.165283	-0.357702	-0.701089
C100	C	1.665283	0.142298	-0.201089
C101	C	1.165362	-0.357584	-1.015269
C102	C	1.665362	0.142416	-0.515269
C103	C	1.165233	-0.357753	-0.164853
C104	C	1.665233	0.142247	0.335147
C105	C	1.165376	-0.357558	-0.082308
C106	C	1.665376	0.142442	0.417692
H107	H	1.264776	-0.811033	-0.266387
H108	H	1.764776	-0.311033	0.233613
H109	H	1.029584	-0.324149	-0.904572
H110	H	1.529584	0.175851	-0.404572
H111	H	1.301050	-0.903700	-0.391444
H112	H	1.801050	-0.403700	0.108556
H113	H	1.065904	-0.449256	-0.811817
H114	H	1.565904	0.050744	-0.311817
N115	N	1.123568	-0.214059	-0.804707
N116	N	1.623568	0.285941	-0.304707
H117	H	1.067974	-0.200396	-0.822637
H118	H	1.567974	0.299604	-0.322637
H119	H	1.124288	-0.214591	-0.748762
H120	H	1.624288	0.285409	-0.248762
H121	H	1.201518	-0.811005	-0.482987
H122	H	1.701518	-0.311005	0.017013
H123	H	1.301119	-0.391271	-0.811888
H124	H	1.801119	0.108729	-0.311888
N125	N	1.279696	-0.252456	-0.911395
N126	N	1.779696	0.247544	-0.411395
H127	H	1.279041	-0.252438	-0.967346
H128	H	1.779041	0.247562	-0.467346
H129	H	1.265298	-0.201470	-0.892580
H130	H	1.765298	0.298530	-0.392580
N131	N	1.009373	-0.804034	-0.319178
N132	N	1.509373	-0.304034	0.180822
H133	H	1.009848	-0.748085	-0.319800
H134	H	1.509848	-0.248085	0.180200
H135	H	0.968545	-0.822822	-0.356093
H136	H	1.468545	-0.322822	0.143907
N137	N	1.051007	-0.910583	-0.463031
N138	N	1.551007	-0.410583	0.036969
H139	H	1.065935	-0.892476	-0.514170
H140	H	1.565935	-0.392476	-0.014170
H141	H	1.051034	-0.966531	-0.462377
H142	H	1.551034	-0.466531	0.037623
N143	N	1.123643	-0.910945	-0.214166
N144	N	1.623643	-0.410945	0.285834
H145	H	1.164393	-0.892990	-0.176765
H146	H	1.664393	-0.392990	0.323235
H147	H	1.068474	-0.892237	-0.200091
H148	H	1.568474	-0.392237	0.299909
N149	N	1.207049	-0.501286	-0.911625
N150	N	1.707049	-0.001286	-0.411625
H151	H	1.166308	-0.538734	-0.893674
H152	H	1.666308	-0.038734	-0.393674
H153	H	1.207424	-0.500514	-0.967571
H154	H	1.707424	-0.000514	-0.467571
