data_functionalizedCrystal
_audit_creation_method	'MofGen! by Chris Wilmer'
_symmetry_space_group_name_H-M	'P1'
_symmetry_Int_Tables_number	1
_symmetry_cell_setting	triclinic
loop_
_symmetry_equiv_pos_as_xyz
  x,y,z
_cell_length_a	11.295483
_cell_length_b	19.288864
_cell_length_c	19.288865
_cell_angle_alpha	83.136245
_cell_angle_beta	94.075585
_cell_angle_gamma	85.895140
loop_
_atom_site_label
_atom_site_type_symbol
_atom_site_fract_x
_atom_site_fract_y
_atom_site_fract_z
O1	O	0.099422	-0.926060	-0.081937
O2	O	0.432755	-0.592727	0.251397
O3	O	0.766088	-0.259394	0.584730
O4	O	0.099342	-0.723796	-0.093629
O5	O	0.432675	-0.390463	0.239704
O6	O	0.766009	-0.057129	0.573038
O7	O	0.099360	-0.830772	0.013346
O8	O	0.432694	-0.497438	0.346680
O9	O	0.766027	-0.164105	0.680013
O10	O	0.099403	-0.819085	-0.188912
O11	O	0.432736	-0.485751	0.144421
O12	O	0.766070	-0.152418	0.477755
O13	O	-0.098692	-0.821376	0.003965
O14	O	0.234641	-0.488042	0.337298
O15	O	0.567975	-0.154709	0.670632
O16	O	-0.098710	-0.714400	-0.103011
O17	O	0.234623	-0.381067	0.230323
O18	O	0.567956	-0.047733	0.563656
O19	O	-0.098631	-0.916665	-0.091318
O20	O	0.234702	-0.583331	0.242015
O21	O	0.568036	-0.249998	0.575349
Cu22	Cu	-0.116754	-0.814674	-0.098021
Cu23	Cu	0.216579	-0.481341	0.235312
Cu24	Cu	0.549912	-0.148008	0.568646
Cu25	Cu	0.117466	-0.825786	-0.086926
Cu26	Cu	0.450799	-0.492453	0.246407
Cu27	Cu	0.784132	-0.159119	0.579740
O28	O	-0.098649	-0.809689	-0.198294
O29	O	0.234684	-0.476356	0.135040
O30	O	0.568017	-0.143022	0.468373
C31	C	0.000305	-0.693221	-0.097944
C32	C	0.333639	-0.359888	0.235389
C33	C	0.666972	-0.026554	0.568722
C34	C	0.000274	-0.616116	-0.096817
C35	C	0.333607	-0.282783	0.236517
C36	C	0.666940	0.050551	0.569850
N37	N	-0.281492	-0.806864	-0.105824
N38	N	0.051841	-0.473531	0.227509
N39	N	0.385175	-0.140197	0.560843
C40	C	0.000331	-0.825697	0.034532
C41	C	0.333664	-0.492364	0.367865
C42	C	0.666997	-0.159031	0.701199
C43	C	0.000320	-0.824568	0.111635
C44	C	0.333653	-0.491234	0.444968
C45	C	0.666986	-0.157901	0.778302
C46	C	-0.530767	-0.889825	-0.022909
C47	C	-0.197434	-0.556492	0.310424
C48	C	0.135899	-0.223158	0.643758
C49	C	-0.655432	-0.883927	-0.028811
C50	C	-0.322099	-0.550594	0.304523
C51	C	0.011235	-0.217261	0.637856
C52	C	-0.655488	-0.789169	-0.123525
C53	C	-0.322155	-0.455836	0.209808
C54	C	0.011178	-0.122502	0.543142
C55	C	-0.530824	-0.795066	-0.117623
C56	C	-0.197490	-0.461733	0.215710
C57	C	0.135843	-0.128400	0.549043
C58	C	-0.468467	-0.845397	-0.067314
C59	C	-0.135134	-0.512063	0.266019
C60	C	0.198199	-0.178730	0.599352
C61	C	-0.343801	-0.851297	-0.061417
C62	C	-0.010467	-0.517964	0.271917
C63	C	0.322866	-0.184630	0.605250
C64	C	-0.343859	-0.756536	-0.156127
C65	C	-0.010526	-0.423202	0.177206
C66	C	0.322807	-0.089869	0.510539
C67	C	-0.468524	-0.750638	-0.162029
C68	C	-0.135191	-0.417305	0.171304
C69	C	0.198143	-0.083972	0.504638
N70	N	0.282203	-0.833602	-0.079118
N71	N	0.615536	-0.500269	0.254216
N72	N	0.948870	-0.166935	0.587549
C73	C	0.000409	-0.947240	-0.087003
C74	C	0.333742	-0.613906	0.246331
C75	C	0.667075	-0.280573	0.579664
C76	C	0.000448	-1.024345	-0.088130
C77	C	0.333781	-0.691012	0.245203
C78	C	0.667114	-0.357678	0.578537
C79	C	0.000306	-0.571421	-0.159583
C80	C	0.333639	-0.238088	0.173750
C81	C	0.666972	0.095245	0.507084
C82	C	0.000319	-0.498975	-0.158522
C83	C	0.333652	-0.165641	0.174812
C84	C	0.666985	0.167692	0.508145
C85	C	0.000324	-0.471227	-0.094689
C86	C	0.333657	-0.137894	0.238644
C87	C	0.666990	0.195439	0.571977
C88	C	0.000285	-0.515932	-0.031915
C89	C	0.333618	-0.182598	0.301418
C90	C	0.666952	0.150735	0.634752
C91	C	0.000260	-0.588376	-0.032979
C92	C	0.333593	-0.255043	0.300355
C93	C	0.666927	0.078291	0.633688
C94	C	0.069740	-0.366259	-0.041222
C95	C	0.403073	-0.032925	0.292111
C96	C	0.736406	0.300408	0.625445
C97	C	0.069772	-0.293816	-0.040161
C98	C	0.403105	0.039518	0.293173
C99	C	0.736438	0.372851	0.626506
C100	C	0.000395	-0.247785	-0.091406
C101	C	0.333728	0.085548	0.241927
C102	C	0.667062	0.418881	0.575260
C103	C	-0.068999	-0.274206	-0.143724
C104	C	0.264335	0.059127	0.189609
C105	C	0.597668	0.392461	0.522942
C106	C	-0.069024	-0.346650	-0.144788
C107	C	0.264310	-0.013317	0.188545
C108	C	0.597643	0.320017	0.521879
C109	C	0.000350	-0.392675	-0.093529
C110	C	0.333683	-0.059341	0.239804
C111	C	0.667016	0.273992	0.573138
C112	C	0.000439	-0.124535	-0.153026
C113	C	0.333773	0.208798	0.180307
C114	C	0.667106	0.542132	0.513640
C115	C	0.000445	-0.052087	-0.151963
C116	C	0.333778	0.281246	0.181371
C117	C	0.667111	0.614579	0.514704
C118	C	0.000423	-0.069046	-0.025354
C119	C	0.333756	0.264287	0.307980
C120	C	0.667090	0.597620	0.641313
C121	C	0.000405	-0.141492	-0.026420
C122	C	0.333739	0.191841	0.306914
C123	C	0.667072	0.525175	0.640247
C124	C	0.000419	-0.169232	-0.090258
C125	C	0.333753	0.164101	0.243076
C126	C	0.667086	0.497435	0.576409
C127	C	0.000383	-0.814763	-0.219479
C128	C	0.333716	-0.481430	0.113854
C129	C	0.667050	-0.148097	0.447188
C130	C	0.000402	-0.815893	-0.296582
C131	C	0.333735	-0.482560	0.036752
C132	C	0.667069	-0.149226	0.370085
C133	C	0.000339	-0.887337	0.156332
C134	C	0.333672	-0.554003	0.489666
C135	C	0.667005	-0.220670	0.822999
C136	C	0.000357	-0.886277	0.228780
C137	C	0.333690	-0.552943	0.562114
C138	C	0.667024	-0.219610	0.895447
C139	C	0.000333	-0.822443	0.256527
C140	C	0.333666	-0.489110	0.589860
C141	C	0.666999	-0.155777	0.923193
C142	C	0.000320	-0.759667	0.211820
C143	C	0.333654	-0.426333	0.545153
C144	C	0.666987	-0.093000	0.878487
C145	C	0.000314	-0.760729	0.139374
C146	C	0.333647	-0.427396	0.472707
C147	C	0.666981	-0.094062	0.806041
C148	C	-0.069061	-0.768972	0.361527
C149	C	0.264273	-0.435638	0.694860
C150	C	0.597606	-0.102305	1.028194
C151	C	-0.069062	-0.767912	0.433971
C152	C	0.264272	-0.434579	0.767305
C153	C	0.597605	-0.101245	1.100638
C154	C	0.000358	-0.819165	0.479973
C155	C	0.333691	-0.485832	0.813307
C156	C	0.667025	-0.152498	1.146640
C157	C	0.069763	-0.871489	0.453523
C158	C	0.403096	-0.538156	0.786856
C159	C	0.736430	-0.204822	1.120190
C160	C	0.069756	-0.872551	0.381077
C161	C	0.403090	-0.539218	0.714410
C162	C	0.736423	-0.205885	1.047744
C163	C	0.000340	-0.821285	0.335081
C164	C	0.333674	-0.487951	0.668414
C165	C	0.667007	-0.154618	1.001748
C166	C	0.000398	-0.880789	0.603228
C167	C	0.333732	-0.547456	0.936561
C168	C	0.667065	-0.214122	1.269894
C169	C	0.000424	-0.879727	0.675677
C170	C	0.333758	-0.546394	1.009010
C171	C	0.667091	-0.213060	1.342344
C172	C	0.000376	-0.753115	0.658714
C173	C	0.333709	-0.419781	0.992048
C174	C	0.667042	-0.086448	1.325381
C175	C	0.000362	-0.754179	0.586267
C176	C	0.333695	-0.420846	0.919601
C177	C	0.667029	-0.087512	1.252934
C178	C	0.000368	-0.818018	0.558528
C179	C	0.333701	-0.484685	0.891862
C180	C	0.667034	-0.151351	1.225195
H181	H	-0.293031	-0.892280	-0.020454
H182	H	0.040302	-0.558947	0.312879
H183	H	0.373636	-0.225613	0.646212
H184	H	-0.293121	-0.720361	-0.192287
H185	H	0.040213	-0.387028	0.141046
H186	H	0.373546	-0.053695	0.474380
F187	F	0.143584	-0.415242	0.013325
F188	F	0.476918	-0.081909	0.346658
F189	F	0.810251	0.251425	0.679992
H190	H	-0.706153	-0.920104	0.007350
H191	H	-0.372820	-0.586771	0.340683
H192	H	-0.039486	-0.253438	0.674016
F193	F	0.000285	-0.486400	0.036020
F194	F	0.333618	-0.153067	0.369353
F195	F	0.666951	0.180267	0.702686
H196	H	0.000341	-0.462577	-0.209635
H197	H	0.333675	-0.129244	0.123698
H198	H	0.667008	0.204090	0.457031
H199	H	0.000464	-0.015696	-0.203077
H200	H	0.333797	0.317637	0.130256
H201	H	0.667131	0.650970	0.463589
H202	H	0.000386	-0.177884	0.024692
H203	H	0.333719	0.155449	0.358025
H204	H	0.667053	0.488783	0.691359
H205	H	-0.125568	-0.725304	0.455501
H206	H	0.207765	-0.391971	0.788834
H207	H	0.541098	-0.058637	1.122168
F208	F	0.000445	-0.154060	-0.220968
F209	F	0.333778	0.179273	0.112366
F210	F	0.667112	0.512607	0.445699
F211	F	-0.721866	-0.735601	-0.177058
F212	F	-0.388532	-0.402268	0.156275
F213	F	-0.055199	-0.068934	0.489608
H214	H	-0.479996	-0.930810	0.018050
H215	H	-0.146663	-0.597477	0.351383
H216	H	0.186671	-0.264144	0.684717
F217	F	0.000452	-0.946538	0.723248
F218	F	0.333785	-0.613205	1.056582
F219	F	0.667119	-0.279872	1.389915
F220	F	-0.142840	-0.225222	-0.198269
F221	F	0.190493	0.108111	0.135065
F222	F	0.523827	0.441445	0.468398
F223	F	-0.534898	-0.697074	-0.215567
F224	F	-0.201565	-0.363741	0.117766
F225	F	0.131768	-0.030407	0.451100
F226	F	0.000370	-0.955281	0.126816
F227	F	0.333704	-0.621948	0.460149
F228	F	0.667037	-0.288614	0.793483
F229	F	0.000317	-0.600940	-0.227526
F230	F	0.333650	-0.267606	0.105808
F231	F	0.666983	0.065727	0.439141
F232	F	0.143625	-0.928234	0.352929
F233	F	0.476959	-0.594901	0.686262
F234	F	0.810292	-0.261567	1.019595
F235	F	-0.142879	-0.374767	-0.200465
F236	F	0.190455	-0.041433	0.132868
F237	F	0.523788	0.291900	0.466201
F238	F	0.000417	-0.039520	0.042582
F239	F	0.333750	0.293813	0.375915
F240	F	0.667083	0.627147	0.709248
H241	H	0.126281	-0.272310	0.002437
H242	H	0.459614	0.061023	0.335771
H243	H	0.792948	0.394357	0.669104
H244	H	0.000235	-0.624767	0.018135
H245	H	0.333568	-0.291434	0.351468
H246	H	0.666901	0.041899	0.684802
H247	H	-0.125597	-0.727233	0.324076
H248	H	0.207737	-0.393900	0.657410
H249	H	0.541070	-0.060567	0.990743
H250	H	0.000377	-0.937392	0.265180
H251	H	0.333710	-0.604059	0.598513
H252	H	0.667044	-0.270726	0.931847
F253	F	0.143651	-0.926040	0.502476
F254	F	0.476985	-0.592707	0.835810
F255	F	0.810318	-0.259374	1.169143
H256	H	0.000409	-0.932771	0.580642
H257	H	0.333742	-0.599437	0.913975
H258	H	0.667075	-0.266104	1.247308
H259	H	0.000362	-0.701140	0.681305
H260	H	0.333695	-0.367807	1.014638
H261	H	0.667028	-0.034474	1.347972
H262	H	0.000340	-0.703065	0.549873
H263	H	0.333673	-0.369732	0.883207
H264	H	0.667007	-0.036399	1.216540
H265	H	0.000303	-0.707693	0.234416
H266	H	0.333637	-0.374360	0.567749
H267	H	0.666970	-0.041027	0.901082
H268	H	0.000298	-0.709613	0.102981
H269	H	0.333632	-0.376280	0.436314
H270	H	0.666965	-0.042947	0.769647
