data_functionalizedCrystal
_audit_creation_method	'MofGen! by Chris Wilmer'
_symmetry_space_group_name_H-M	'P1'
_symmetry_Int_Tables_number	1
_symmetry_cell_setting	triclinic
loop_
_symmetry_equiv_pos_as_xyz
  x,y,z
_cell_length_a	14.519709
_cell_length_b	12.837942
_cell_length_c	12.996460
_cell_angle_alpha	90.000533
_cell_angle_beta	90.000602
_cell_angle_gamma	90.745457
loop_
_atom_site_label
_atom_site_type_symbol
_atom_site_fract_x
_atom_site_fract_y
_atom_site_fract_z
O1	O	1.235614	-0.135901	0.085431
O2	O	0.968520	-0.151906	0.085462
O3	O	1.096145	0.007010	0.085441
O4	O	1.107990	-0.294818	0.085452
O5	O	1.096127	0.007001	-0.085693
O6	O	0.968503	-0.151916	-0.085671
O7	O	1.235597	-0.135911	-0.085703
Cu8	Cu	1.102048	-0.143914	-0.101313
Cu9	Cu	1.102069	-0.143903	0.101073
O10	O	1.107972	-0.294827	-0.085681
C11	C	0.934087	-0.151165	-0.000101
C12	C	0.831513	-0.148930	-0.000089
C13	C	0.455906	-0.140701	-0.000136
C14	C	0.560411	-0.142986	-0.000122
C15	C	0.643706	-0.144815	-0.000111
C16	C	0.748218	-0.147101	-0.000100
C17	C	1.092134	0.045633	-0.000125
C18	C	1.080200	0.160732	-0.000122
C19	C	1.270030	-0.136652	-0.000138
C20	C	1.372604	-0.138887	-0.000143
C21	C	1.111982	-0.333450	-0.000113
C22	C	1.123916	-0.448550	-0.000110
C23	C	1.223671	0.401425	-0.000117
C24	C	1.212462	0.509571	-0.000114
C25	C	1.046574	0.485174	-0.000105
C26	C	1.057783	0.377028	-0.000108
C27	C	1.146334	0.335157	-0.000116
C28	C	1.157542	0.227009	-0.000126
C29	C	0.991656	0.202614	-0.000110
C30	C	0.980447	0.310760	-0.000107
N31	N	1.102040	-0.143921	-0.243660
C32	C	1.102045	-0.143924	-0.336766
C33	C	1.102053	-0.143917	-0.453571
C34	C	1.102063	-0.143905	-0.546669
C35	C	1.102072	-0.143899	-0.663482
N36	N	1.102083	-0.143888	0.243420
H37	H	1.229645	0.192920	-0.000136
C38	C	1.321070	0.355363	-0.000133
H39	H	1.365525	0.410320	-0.000132
H40	H	1.328881	0.313681	-0.059813
H41	H	1.328897	0.313683	0.059551
H42	H	0.974480	0.519285	-0.000088
H43	H	1.275438	0.563524	-0.000112
H44	H	0.928683	0.148646	-0.000117
C45	C	0.883049	0.356824	-0.000105
H46	H	0.887448	0.430724	-0.000111
H47	H	0.850803	0.334087	0.059570
H48	H	0.850811	0.334090	-0.059794
