data_functionalizedCrystal
_audit_creation_method	'MofGen! by Chris Wilmer'
_symmetry_space_group_name_H-M	'P1'
_symmetry_Int_Tables_number	1
_symmetry_cell_setting	triclinic
loop_
_symmetry_equiv_pos_as_xyz
  x,y,z
_cell_length_a	25.639239
_cell_length_b	21.295418
_cell_length_c	21.295411
_cell_angle_alpha	89.956262
_cell_angle_beta	90.019526
_cell_angle_gamma	89.945501
loop_
_atom_site_label
_atom_site_type_symbol
_atom_site_fract_x
_atom_site_fract_y
_atom_site_fract_z
Zn1	Zn	-0.207990	-0.962320	0.356243
Zn2	Zn	0.125344	-0.628987	0.689576
Zn3	Zn	0.458677	-0.295653	1.022910
Zn4	Zn	-0.295410	-0.962207	0.250972
Zn5	Zn	0.037924	-0.628874	0.584305
Zn6	Zn	0.371257	-0.295541	0.917639
Zn7	Zn	-0.208014	-0.857043	0.250953
Zn8	Zn	0.125319	-0.523710	0.584286
Zn9	Zn	0.458652	-0.190377	0.917619
Zn10	Zn	-0.295420	-0.856998	0.356169
Zn11	Zn	0.037913	-0.523664	0.689502
Zn12	Zn	0.371247	-0.190331	1.022835
O13	O	-0.251708	-0.909642	0.303584
O14	O	0.081625	-0.576309	0.636917
O15	O	0.414958	-0.242975	0.970251
O16	O	-0.219572	-1.050395	0.342318
O17	O	0.113762	-0.717061	0.675651
O18	O	0.447095	-0.383728	1.008984
O19	O	-0.283822	-0.948229	0.162880
O20	O	0.049511	-0.614896	0.496213
O21	O	0.382844	-0.281562	0.829547
O22	O	-0.134846	-0.871075	0.264943
O23	O	0.198488	-0.537741	0.598276
O24	O	0.531821	-0.204408	0.931609
O25	O	-0.283799	-1.050312	0.264976
O26	O	0.049535	-0.716978	0.598309
O27	O	0.382868	-0.383645	0.931642
O28	O	-0.134828	-0.948421	0.342299
O29	O	0.198506	-0.615088	0.675632
O30	O	0.531839	-0.281754	1.008965
O31	O	-0.219613	-0.870965	0.162866
O32	O	0.113720	-0.537632	0.496199
O33	O	0.447053	-0.204299	0.829532
O34	O	-0.219623	-0.768948	0.264871
O35	O	0.113710	-0.435614	0.598204
O36	O	0.447043	-0.102281	0.931537
O37	O	-0.283816	-0.870997	0.444268
O38	O	0.049517	-0.537664	0.777601
O39	O	0.382850	-0.204330	1.110935
O40	O	-0.283840	-0.768914	0.342172
O41	O	0.049493	-0.435581	0.675506
O42	O	0.382827	-0.102248	1.008839
O43	O	-0.219582	-0.948377	0.444322
O44	O	0.113752	-0.615043	0.777656
O45	O	0.447085	-0.281710	1.110989
O46	O	-0.368576	-0.948185	0.264904
O47	O	-0.035243	-0.614852	0.598237
O48	O	0.298090	-0.281518	0.931570
O49	O	-0.368584	-0.870888	0.342191
O50	O	-0.035251	-0.537554	0.675524
O51	O	0.298083	-0.204221	1.008858
C52	C	-0.251736	-0.746090	0.303512
C53	C	0.081597	-0.412757	0.636845
C54	C	0.414931	-0.079424	0.970178
C55	C	-0.251760	-0.676122	0.303496
C56	C	0.081573	-0.342789	0.636829
C57	C	0.414906	-0.009456	0.970162
C58	C	-0.387551	-0.909536	0.303555
C59	C	-0.054218	-0.576203	0.636889
C60	C	0.279116	-0.242870	0.970222
C61	C	-0.445665	-0.909548	0.303564
C62	C	-0.112332	-0.576215	0.636897
C63	C	0.221002	-0.242882	0.970231
C64	C	-0.251697	-0.909694	0.467774
C65	C	0.081636	-0.576361	0.801108
C66	C	0.414969	-0.243028	1.134441
C67	C	-0.251693	-0.909717	0.537743
C68	C	0.081641	-0.576383	0.871076
C69	C	0.414974	-0.243050	1.204409
C70	C	-0.806011	-0.949996	0.263409
C71	C	-0.472678	-0.616662	0.596742
C72	C	-0.139345	-0.283329	0.930076
C73	C	-0.860616	-0.950020	0.263418
C74	C	-0.527282	-0.616687	0.596751
C75	C	-0.193949	-0.283353	0.930084
O76	O	-0.888838	-0.984300	0.229245
O77	O	-0.555505	-0.650967	0.562578
O78	O	-0.222172	-0.317633	0.895912
N79	N	-0.887947	-0.909753	0.303626
N80	N	-0.554614	-0.576419	0.636959
N81	N	-0.221281	-0.243086	0.970292
C82	C	-0.860672	-0.869463	0.343833
C83	C	-0.527339	-0.536129	0.677166
C84	C	-0.194005	-0.202796	1.010499
O85	O	-0.888934	-0.835215	0.378034
O86	O	-0.555600	-0.501881	0.711368
O87	O	-0.222267	-0.168548	1.044701
C88	C	-0.806069	-0.869442	0.343827
C89	C	-0.472735	-0.536109	0.677160
C90	C	-0.139402	-0.202775	1.010494
C91	C	-0.778740	-0.909708	0.303612
C92	C	-0.445406	-0.576374	0.636945
C93	C	-0.112073	-0.243041	0.970278
C94	C	-0.778683	-0.990259	0.223198
C95	C	-0.445349	-0.656925	0.556531
C96	C	-0.112016	-0.323592	0.889864
C97	C	-0.724082	-0.990233	0.223188
C98	C	-0.390749	-0.656900	0.556522
C99	C	-0.057415	-0.323567	0.889855
C100	C	-0.696810	-0.949945	0.263391
C101	C	-0.363477	-0.616612	0.596724
C102	C	-0.030144	-0.283278	0.930058
C103	C	-0.724139	-0.909682	0.303603
C104	C	-0.390806	-0.576349	0.636936
C105	C	-0.057473	-0.243016	0.970269
C106	C	-0.778794	-0.829156	0.384037
C107	C	-0.445461	-0.495822	0.717370
C108	C	-0.112127	-0.162489	1.050703
C109	C	-0.724187	-0.829139	0.384028
C110	C	-0.390854	-0.495805	0.717361
C111	C	-0.057520	-0.162472	1.050695
C112	C	-0.696858	-0.869404	0.343812
C113	C	-0.363525	-0.536071	0.677146
C114	C	-0.030192	-0.202738	1.010479
C115	C	-0.642267	-0.869369	0.343796
C116	C	-0.308934	-0.536035	0.677129
C117	C	0.024400	-0.202702	1.010463
N118	N	-0.614935	-0.909636	0.303588
N119	N	-0.281602	-0.576303	0.636921
N120	N	0.051731	-0.242969	0.970254
C121	C	-0.642207	-0.949924	0.263385
C122	C	-0.308874	-0.616591	0.596719
C123	C	0.024460	-0.283258	0.930052
C124	C	-0.975343	-0.869510	0.343842
C125	C	-0.642009	-0.536177	0.677176
C126	C	-0.308676	-0.202844	1.010509
C127	C	-1.029945	-0.869527	0.343845
C128	C	-0.696611	-0.536194	0.677179
C129	C	-0.363278	-0.202861	1.010512
C130	C	-1.029885	-0.950086	0.263431
C131	C	-0.696552	-0.616752	0.596764
C132	C	-0.363218	-0.283419	0.930098
C133	C	-0.975282	-0.950065	0.263425
C134	C	-0.641948	-0.616732	0.596759
C135	C	-0.308615	-0.283398	0.930092
C136	C	-0.948011	-0.909778	0.303634
C137	C	-0.614678	-0.576444	0.636968
C138	C	-0.281344	-0.243111	0.970301
C139	C	-0.527542	-0.949868	0.263369
C140	C	-0.194209	-0.616534	0.596702
C141	C	0.139125	-0.283201	0.930035
C142	C	-0.472937	-0.949837	0.263361
C143	C	-0.139603	-0.616503	0.596695
C144	C	0.193730	-0.283170	0.930028
C145	C	-0.473001	-0.869281	0.343778
C146	C	-0.139668	-0.535948	0.677111
C147	C	0.193665	-0.202614	1.010445
C148	C	-0.527602	-0.869309	0.343783
C149	C	-0.194269	-0.535976	0.677117
C150	C	0.139065	-0.202642	1.010450
C151	C	-0.554871	-0.909607	0.303577
C152	C	-0.221538	-0.576274	0.636910
C153	C	0.111796	-0.242941	0.970243
O154	O	-0.614010	-0.835108	0.377953
O155	O	-0.280676	-0.501775	0.711286
O156	O	0.052657	-0.168441	1.044620
O157	O	-0.613939	-0.984172	0.229195
O158	O	-0.280605	-0.650839	0.562529
O159	O	0.052728	-0.317506	0.895862
C160	C	-0.115335	-0.909766	0.303627
C161	C	0.217998	-0.576432	0.636960
C162	C	0.551331	-0.243099	0.970293
C163	C	-0.057221	-0.909818	0.303645
C164	C	0.276112	-0.576485	0.636978
C165	C	0.609445	-0.243151	0.970312
C166	C	-0.251681	-1.073832	0.303657
C167	C	0.081652	-0.740499	0.636990
C168	C	0.414985	-0.407166	0.970324
C169	C	-0.251670	-1.143801	0.303688
C170	C	0.081664	-0.810467	0.637022
C171	C	0.414997	-0.477134	0.970355
C172	C	-0.285242	-0.643255	0.343686
C173	C	0.048091	-0.309921	0.677020
C174	C	0.381424	0.023412	1.010353
C175	C	-0.285229	-0.577512	0.343715
C176	C	0.048104	-0.244179	0.677048
C177	C	0.381437	0.089155	1.010381
C178	C	-0.251740	-0.544640	0.303541
C179	C	0.081593	-0.211306	0.636874
C180	C	0.414927	0.122027	0.970207
C181	C	-0.218252	-0.577515	0.263347
C182	C	0.115082	-0.244182	0.596680
C183	C	0.448415	0.089151	0.930014
C184	C	-0.218262	-0.643257	0.263325
C185	C	0.115072	-0.309923	0.596658
C186	C	0.448405	0.023410	0.929991
N187	N	-0.247648	-0.441365	0.248483
N188	N	0.085686	-0.108031	0.581816
N189	N	0.419019	0.225302	0.915150
N190	N	-0.247641	-0.378913	0.248506
N191	N	0.085692	-0.045580	0.581840
N192	N	0.419026	0.287754	0.915173
C193	C	-0.251707	-0.346565	0.303608
C194	C	0.081627	-0.013232	0.636941
C195	C	0.414960	0.320102	0.970274
N196	N	-0.255789	-0.379028	0.358686
N197	N	0.077544	-0.045695	0.692019
N198	N	0.410877	0.287639	1.025353
N199	N	-0.255799	-0.441485	0.358662
N200	N	0.077535	-0.108152	0.691995
N201	N	0.410868	0.225182	1.025328
C202	C	-0.251725	-0.473354	0.303561
C203	C	0.081608	-0.140021	0.636894
C204	C	0.414942	0.193312	0.970228
C205	C	-0.285176	-0.242412	0.343832
C206	C	0.048157	0.090921	0.677166
C207	C	0.381490	0.424255	1.010499
C208	C	-0.285160	-0.176668	0.343862
C209	C	0.048173	0.156665	0.677195
C210	C	0.381507	0.489998	1.010528
C211	C	-0.218185	-0.176673	0.263489
C212	C	0.115148	0.156661	0.596822
C213	C	0.448482	0.489994	0.930155
C214	C	-0.218199	-0.242415	0.263465
C215	C	0.115135	0.090918	0.596798
C216	C	0.448468	0.424251	0.930132
C217	C	-0.251697	-0.275281	0.303636
C218	C	0.081636	0.058052	0.636969
C219	C	0.414969	0.391386	0.970303
C220	C	-0.251682	-0.909626	0.140032
C221	C	0.081652	-0.576293	0.473366
C222	C	0.414985	-0.242960	0.806699
C223	C	-0.251539	-0.909726	0.070065
C224	C	0.081794	-0.576393	0.403398
C225	C	0.415128	-0.243059	0.736731
C226	C	-0.218244	-0.950007	0.570639
C227	C	0.115089	-0.616673	0.903972
C228	C	0.448423	-0.283340	1.237305
C229	C	-0.218221	-0.950006	0.636381
C230	C	0.115112	-0.616672	0.969714
C231	C	0.448445	-0.283339	1.303048
C232	C	-0.251657	-0.909721	0.669225
C233	C	0.081677	-0.576388	1.002558
C234	C	0.415010	-0.243055	1.335892
C235	C	-0.285108	-0.869424	0.636321
C236	C	0.048226	-0.536090	0.969654
C237	C	0.381559	-0.202757	1.302988
C238	C	-0.285126	-0.869421	0.570580
C239	C	0.048208	-0.536088	0.903913
C240	C	0.381541	-0.202755	1.237246
N241	N	-0.297396	-0.904857	0.772441
N242	N	0.035937	-0.571524	1.105774
N243	N	0.369271	-0.238190	1.439108
N244	N	-0.297377	-0.904863	0.834892
N245	N	0.035956	-0.571530	1.168226
N246	N	0.369289	-0.238196	1.501559
C247	C	-0.251604	-0.909725	0.867300
C248	C	0.081730	-0.576392	1.200633
C249	C	0.415063	-0.243059	1.533967
N250	N	-0.205848	-0.914594	0.834897
N251	N	0.127485	-0.581261	1.168230
N252	N	0.460818	-0.247927	1.501563
N253	N	-0.205867	-0.914591	0.772440
N254	N	0.127466	-0.581258	1.105773
N255	N	0.460799	-0.247925	1.439106
C256	C	-0.251641	-0.909719	0.740511
C257	C	0.081693	-0.576386	1.073844
C258	C	0.415026	-0.243053	1.407177
C259	C	-0.218128	-0.950017	0.971482
C260	C	0.115206	-0.616683	1.304815
C261	C	0.448539	-0.283350	1.638148
C262	C	-0.218104	-0.950011	1.037225
C263	C	0.115229	-0.616678	1.370559
C264	C	0.448562	-0.283345	1.703892
C265	C	-0.284995	-0.869433	1.037164
C266	C	0.048338	-0.536099	1.370497
C267	C	0.381672	-0.202766	1.703831
C268	C	-0.285014	-0.869435	0.971422
C269	C	0.048320	-0.536101	1.304755
C270	C	0.381653	-0.202768	1.638088
C271	C	-0.251581	-0.909730	0.938584
C272	C	0.081752	-0.576397	1.271918
C273	C	0.415086	-0.243063	1.605251
H274	H	-0.549738	-0.982684	0.230630
H275	H	-0.216405	-0.649350	0.563963
H276	H	0.116929	-0.316017	0.897297
N277	N	-0.182078	-0.993486	0.936061
N278	N	0.151255	-0.660152	1.269394
N279	N	0.484589	-0.326819	1.602727
H280	H	-0.187172	-0.987380	0.889422
H281	H	0.146161	-0.654047	1.222755
H282	H	0.479495	-0.320714	1.556088
H283	H	-0.190219	-1.038429	0.947598
H284	H	0.143114	-0.705096	1.280931
H285	H	0.476447	-0.371763	1.614264
N286	N	-1.059416	-0.826096	0.387220
N287	N	-0.726083	-0.492763	0.720553
N288	N	-0.392749	-0.159429	1.053886
H289	H	-1.098146	-0.832220	0.381130
H290	H	-0.764813	-0.498887	0.714463
H291	H	-0.431480	-0.165553	1.047797
H292	H	-1.049923	-0.781140	0.377363
H293	H	-0.716589	-0.447806	0.710697
H294	H	-0.383256	-0.114473	1.044030
H295	H	-0.312213	-0.836626	1.063905
H296	H	0.021120	-0.503293	1.397238
H297	H	0.354453	-0.169959	1.730572
H298	H	-0.801036	-0.796364	0.416781
H299	H	-0.467703	-0.463031	0.750115
H300	H	-0.134369	-0.129697	1.083448
N301	N	-0.182066	-0.141221	0.220159
N302	N	0.151268	0.192112	0.553492
N303	N	0.484601	0.525445	0.886826
H304	H	-0.190133	-0.152600	0.175160
H305	H	0.143201	0.180733	0.508494
H306	H	0.476534	0.514066	0.841827
H307	H	-0.144737	-0.152738	0.230066
H308	H	0.188597	0.180595	0.563400
H309	H	0.521930	0.513929	0.896733
N310	N	-0.321174	-0.825973	0.671735
N311	N	0.012159	-0.492640	1.005068
N312	N	0.345493	-0.159306	1.338401
H313	H	-0.313061	-0.781004	0.660260
H314	H	0.020272	-0.447671	0.993593
H315	H	0.353606	-0.114337	1.326926
H316	H	-0.316076	-0.832138	0.718364
H317	H	0.017258	-0.498805	1.051697
H318	H	0.350591	-0.165472	1.385030
H319	H	-0.190983	-0.550747	0.230639
H320	H	0.142350	-0.217413	0.563972
H321	H	0.475683	0.115920	0.897305
H322	H	-0.190995	-0.670017	0.230596
H323	H	0.142338	-0.336684	0.563929
H324	H	0.475672	-0.003350	0.897263
N325	N	-0.321277	-0.141217	0.387211
N326	N	0.012056	0.192116	0.720545
N327	N	0.345390	0.525450	1.053878
H328	H	-0.345466	-0.113878	0.361580
H329	H	-0.012132	0.219456	0.694914
H330	H	0.321201	0.552789	1.028247
H331	H	-0.300026	-0.114040	0.416435
H332	H	0.033307	0.219293	0.749768
H333	H	0.366640	0.552627	1.083101
H334	H	-0.800881	-1.023070	0.190460
H335	H	-0.467548	-0.689736	0.523793
H336	H	-0.134215	-0.356403	0.857126
H337	H	-0.312494	-0.550746	0.376445
H338	H	0.020839	-0.217413	0.709778
H339	H	0.354173	0.115921	1.043112
H340	H	-0.312450	-0.269173	0.376545
H341	H	0.020883	0.064161	0.709879
H342	H	0.354216	0.397494	1.043212
N343	N	-0.321362	-0.678700	0.387024
N344	N	0.011971	-0.345367	0.720358
N345	N	0.345305	-0.012033	1.053691
H346	H	-0.316288	-0.725335	0.380914
H347	H	0.017045	-0.392002	0.714248
H348	H	0.350379	-0.058669	1.047581
H349	H	-0.358690	-0.667149	0.377152
H350	H	-0.025357	-0.333816	0.710485
H351	H	0.307976	-0.000483	1.043818
N352	N	-0.321202	-0.825955	0.535103
N353	N	0.012131	-0.492621	0.868437
N354	N	0.345465	-0.159288	1.201770
H355	H	-0.358555	-0.835691	0.546552
H356	H	-0.025222	-0.502358	0.879885
H357	H	0.308111	-0.169025	1.213218
H358	H	-0.316099	-0.832080	0.488484
H359	H	0.017235	-0.498747	0.821817
H360	H	0.350568	-0.165414	1.155150
H361	H	-0.190937	-0.269176	0.230734
H362	H	0.142397	0.064157	0.564067
H363	H	0.475730	0.397490	0.897401
H364	H	-0.190981	-0.982813	0.663170
H365	H	0.142353	-0.649480	0.996504
H366	H	0.475686	-0.316147	1.329837
N367	N	-0.182185	-0.993465	0.535221
N368	N	0.151148	-0.660131	0.868555
N369	N	0.484482	-0.326798	1.201888
H370	H	-0.160992	-1.018988	0.566041
H371	H	0.172342	-0.685655	0.899374
H372	H	0.505675	-0.352321	1.232708
H373	H	-0.157999	-0.967863	0.507927
H374	H	0.175334	-0.634530	0.841261
H375	H	0.508667	-0.301196	1.174594
N376	N	-0.182016	-0.993458	1.072710
N377	N	0.151317	-0.660125	1.406043
N378	N	0.484650	-0.326791	1.739376
H379	H	-0.160840	-1.018981	1.041929
H380	H	0.172494	-0.685647	1.375262
H381	H	0.505827	-0.352314	1.708596
H382	H	-0.203281	-1.022570	1.100014
H383	H	0.130052	-0.689237	1.433347
H384	H	0.463385	-0.355904	1.766681
N385	N	-0.321090	-0.825968	0.935947
N386	N	0.012244	-0.492635	1.269280
N387	N	0.345577	-0.159302	1.602614
H388	H	-0.358443	-0.835704	0.947393
H389	H	-0.025110	-0.502371	1.280727
H390	H	0.308223	-0.169037	1.614060
H391	H	-0.315986	-0.832089	0.889327
H392	H	0.017347	-0.498756	1.222660
H393	H	0.350680	-0.165422	1.555993
N394	N	-0.443461	-0.993269	0.219986
N395	N	-0.110127	-0.659936	0.553320
N396	N	0.223206	-0.326602	0.886653
H397	H	-0.469026	-1.018797	0.194523
H398	H	-0.135693	-0.685463	0.527857
H399	H	0.197641	-0.352130	0.861190
H400	H	-0.420764	-1.022377	0.245645
H401	H	-0.087431	-0.689044	0.578978
H402	H	0.245902	-0.355711	0.912312
H403	H	-0.953034	-0.982853	0.230679
H404	H	-0.619700	-0.649520	0.564012
H405	H	-0.286367	-0.316186	0.897346
N406	N	-0.694610	-1.033673	0.179824
N407	N	-0.361277	-0.700340	0.513157
N408	N	-0.027943	-0.367006	0.846490
H409	H	-0.704141	-1.023930	0.134834
H410	H	-0.370808	-0.690597	0.468168
H411	H	-0.037475	-0.357264	0.801501
H412	H	-0.704080	-1.078627	0.189723
H413	H	-0.370747	-0.745294	0.523056
H414	H	-0.037414	-0.411960	0.856390
N415	N	-1.059305	-0.993541	0.220068
N416	N	-0.725971	-0.660208	0.553401
N417	N	-0.392638	-0.326874	0.886734
H418	H	-1.098042	-0.987442	0.226178
H419	H	-0.764708	-0.654109	0.559511
H420	H	-0.431375	-0.320775	0.892845
H421	H	-1.049711	-1.038490	0.229921
H422	H	-0.716377	-0.705157	0.563254
H423	H	-0.383044	-0.371824	0.896587
H424	H	-0.701986	-0.796333	0.416773
H425	H	-0.368653	-0.462999	0.750106
H426	H	-0.035319	-0.129666	1.083440
N427	N	-0.945931	-0.826050	0.387208
N428	N	-0.612597	-0.492716	0.720542
N429	N	-0.279264	-0.159383	1.053875
H430	H	-0.971535	-0.800545	0.412677
H431	H	-0.638201	-0.467212	0.746010
H432	H	-0.304868	-0.133879	1.079343
H433	H	-0.923317	-0.796921	0.361545
H434	H	-0.589984	-0.463587	0.694878
H435	H	-0.256650	-0.130254	1.028212
H436	H	-0.549854	-0.836524	0.376532
H437	H	-0.216521	-0.503190	0.709865
H438	H	0.116812	-0.169857	1.043199
H439	H	-0.450788	-0.836477	0.376509
H440	H	-0.117455	-0.503143	0.709842
H441	H	0.215878	-0.169810	1.043175
