data_functionalizedCrystal
_audit_creation_method	'MofGen! by Chris Wilmer'
_symmetry_space_group_name_H-M	'P1'
_symmetry_Int_Tables_number	1
_symmetry_cell_setting	triclinic
loop_
_symmetry_equiv_pos_as_xyz
  x,y,z
_cell_length_a	7.540329
_cell_length_b	9.065218
_cell_length_c	9.065218
_cell_angle_alpha	85.015885
_cell_angle_beta	90.001757
_cell_angle_gamma	90.003038
loop_
_atom_site_label
_atom_site_type_symbol
_atom_site_fract_x
_atom_site_fract_y
_atom_site_fract_z
O1	O	-0.147479	-1.960398	-0.216355
O2	O	0.185854	-1.627065	0.116979
O3	O	0.519188	-1.293732	0.450312
O4	O	-0.147481	-1.531114	-0.234101
O5	O	0.185852	-1.197780	0.099232
O6	O	0.519186	-0.864447	0.432566
O7	O	-0.147476	-1.754629	-0.010585
O8	O	0.185857	-1.421296	0.322748
O9	O	0.519190	-1.087963	0.656081
O10	O	-0.147484	-1.736883	-0.439870
O11	O	0.185850	-1.403549	-0.106537
O12	O	0.519183	-1.070216	0.226796
O13	O	0.147489	-1.754616	-0.010583
O14	O	0.480822	-1.421282	0.322751
O15	O	0.814155	-1.087949	0.656084
O16	O	0.147484	-1.531100	-0.234098
O17	O	0.480817	-1.197767	0.099235
O18	O	0.814151	-0.864433	0.432568
O19	O	0.147486	-1.960385	-0.216352
O20	O	0.480819	-1.627052	0.116982
O21	O	0.814153	-1.293718	0.450315
Cu22	Cu	0.174418	-1.745741	-0.225225
Cu23	Cu	0.507751	-1.412408	0.108109
Cu24	Cu	0.841084	-1.079075	0.441442
Cu25	Cu	-0.174413	-1.745757	-0.225228
Cu26	Cu	0.158921	-1.412424	0.108105
Cu27	Cu	0.492254	-1.079091	0.441438
O28	O	0.147481	-1.736869	-0.439867
O29	O	0.480815	-1.403536	-0.106534
O30	O	0.814148	-1.070203	0.226799
C31	C	0.000001	-1.476120	-0.232394
C32	C	0.333335	-1.142787	0.100939
C33	C	0.666668	-0.809454	0.434273
C34	C	0.000000	-1.312277	-0.227294
C35	C	0.333334	-0.978944	0.106039
C36	C	0.666667	-0.645611	0.439372
N37	N	0.419766	-1.745741	-0.225222
N38	N	0.753100	-1.412408	0.108112
N39	N	1.086433	-1.079074	0.441445
N40	N	-0.419761	-1.745769	-0.225220
N41	N	-0.086428	-1.412436	0.108113
N42	N	0.246906	-1.079103	0.441447
C43	C	0.000003	-1.752917	0.044403
C44	C	0.333337	-1.419584	0.377736
C45	C	0.666670	-1.086250	0.711069
C46	C	-0.000005	-1.747817	0.208245
C47	C	0.333328	-1.414484	0.541579
C48	C	0.666661	-1.081151	0.874912
C49	C	-0.000000	-2.015378	-0.218059
C50	C	0.333333	-1.682045	0.115275
C51	C	0.666667	-1.348712	0.448608
C52	C	-0.000011	-2.179221	-0.223158
C53	C	0.333322	-1.845888	0.110175
C54	C	0.666656	-1.512555	0.443508
C55	C	-0.000002	-1.738582	-0.494855
C56	C	0.333331	-1.405248	-0.161522
C57	C	0.666665	-1.071915	0.171811
C58	C	-0.000005	-1.743681	-0.658698
C59	C	0.333328	-1.410348	-0.325365
C60	C	0.666661	-1.077015	0.007968
