data_functionalizedCrystal
_audit_creation_method	'MofGen! by Chris Wilmer'
_symmetry_space_group_name_H-M	'P1'
_symmetry_Int_Tables_number	1
_symmetry_cell_setting	triclinic
loop_
_symmetry_equiv_pos_as_xyz
  x,y,z
_cell_length_a	14.971506
_cell_length_b	16.109304
_cell_length_c	13.448316
_cell_angle_alpha	89.996206
_cell_angle_beta	89.992937
_cell_angle_gamma	83.542513
loop_
_atom_site_label
_atom_site_type_symbol
_atom_site_fract_x
_atom_site_fract_y
_atom_site_fract_z
O1	O	1.186781	0.108428	-0.082692
O2	O	0.926365	0.121385	-0.082692
O3	O	1.063725	-0.006115	-0.082693
O4	O	1.049420	0.235928	-0.082692
O5	O	1.063708	-0.006123	0.082691
O6	O	0.926348	0.121377	0.082692
O7	O	1.186764	0.108420	0.082691
Cu8	Cu	1.056554	0.114898	0.097792
Cu9	Cu	1.056574	0.114907	-0.097793
O10	O	1.049403	0.235920	0.082692
C11	C	0.893033	0.120799	-0.000000
C12	C	0.793739	0.119053	-0.000000
C13	C	0.355359	0.187296	-0.000010
C14	C	0.448657	0.188929	-0.000015
C15	C	0.505984	0.114018	-0.000011
C16	C	0.470009	0.037468	-0.000012
C17	C	0.376713	0.035836	-0.000015
C18	C	0.664467	0.040877	-0.000004
C19	C	0.757770	0.042509	0.000001
C20	C	0.736411	0.193970	-0.000003
C21	C	0.643115	0.192338	-0.000006
C22	C	0.607146	0.115788	-0.000006
C23	C	1.063137	-0.037095	-0.000003
C24	C	1.061398	-0.129392	-0.000010
C25	C	1.057391	-0.341730	-0.090157
C26	C	1.055749	-0.428453	-0.090156
C27	C	1.055735	-0.428458	0.090154
C28	C	1.057370	-0.341737	0.090152
C29	C	1.058203	-0.298376	-0.000006
C30	C	1.054926	-0.471819	-0.000003
C31	C	1.053146	-0.565848	-0.000002
C32	C	1.059981	-0.204341	-0.000008
C33	C	1.220096	0.109006	-0.000003
C34	C	1.319390	0.110752	-0.000009
C35	C	1.049992	0.266900	0.000000
C36	C	1.051730	0.359197	0.000000
N37	N	1.056546	0.114891	0.235357
N38	N	1.056589	0.114908	-0.235357
C39	C	1.117388	0.058457	0.287397
C40	C	1.117394	0.058456	0.391500
C41	C	1.056561	0.114894	0.443561
C42	C	0.995712	0.171331	0.391514
C43	C	0.995703	0.171327	0.287413
C44	C	0.995737	0.171336	0.608494
C45	C	0.995747	0.171341	0.712602
C46	C	1.117428	0.058466	0.712581
C47	C	1.117419	0.058462	0.608480
C48	C	1.056571	0.114900	0.556440
H49	H	0.804444	-0.018490	-0.000004
C50	C	0.875469	0.282922	0.618966
C51	C	0.928857	0.233378	0.551289
H52	H	0.834188	0.321227	0.583648
H53	H	0.843309	0.248265	0.659578
H54	H	0.912704	0.312883	0.659560
H55	H	0.891622	0.203411	0.510700
H56	H	0.961019	0.268038	0.510661
H57	H	1.058066	-0.306428	-0.163570
C58	C	0.418174	0.338475	0.000001
C59	C	0.488193	0.273069	-0.000007
H60	H	0.442584	0.390421	0.000012
H61	H	0.382238	0.334694	-0.057669
H62	H	0.382222	0.334675	0.057677
H63	H	0.524142	0.276865	-0.057687
H64	H	0.524145	0.276853	0.057669
H65	H	0.635186	-0.021458	-0.000009
C66	C	1.053240	-0.561402	0.170220
C67	C	1.054837	-0.476126	0.189253
H68	H	1.052695	-0.590828	0.231402
H69	H	1.000847	-0.569327	0.133194
H70	H	1.105104	-0.581885	0.133169
H71	H	1.002969	-0.455641	0.226299
H72	H	1.107236	-0.468196	0.226296
C73	C	0.977071	-0.516699	-0.194760
C74	C	1.054858	-0.476108	-0.189253
H75	H	0.976519	-0.546114	-0.255945
H76	H	0.976349	-0.554934	-0.141076
H77	H	0.925589	-0.476572	-0.191011
H78	H	1.106341	-0.516236	-0.192995
H79	H	1.055588	-0.437869	-0.242952
H80	H	0.516692	-0.023525	-0.000015
C81	C	0.407190	-0.113712	-0.000002
C82	C	0.337172	-0.048304	-0.000010
H83	H	0.382778	-0.165657	0.000003
H84	H	0.443141	-0.109924	-0.057669
H85	H	0.443126	-0.109921	0.057677
H86	H	0.301239	-0.052091	-0.057694
H87	H	0.301205	-0.052094	0.057663
C88	C	1.057199	-0.350447	0.268390
C89	C	1.058265	-0.294075	0.189254
H90	H	1.057754	-0.321021	0.329566
H91	H	1.004438	-0.377986	0.264645
H92	H	1.108695	-0.390558	0.264634
H93	H	1.006766	-0.253967	0.193006
H94	H	1.111032	-0.266523	0.193001
C95	C	0.746945	0.323573	0.085003
C96	C	0.775955	0.278111	-0.000014
H97	H	0.771369	0.375512	0.084999
H98	H	0.683186	0.333329	0.084999
H99	H	0.766620	0.292714	0.142670
H100	H	0.756274	0.308968	-0.057681
H101	H	0.839728	0.268358	-0.000019
H102	H	1.166929	0.012502	0.245015
H103	H	1.166936	0.012503	0.433870
H104	H	1.166958	0.012510	0.566092
H105	H	1.166972	0.012512	0.754958
C106	C	0.875437	0.282906	0.297883
C107	C	0.928828	0.233364	0.230206
H108	H	0.834153	0.321208	0.262565
H109	H	0.843282	0.248248	0.338497
H110	H	0.912670	0.312873	0.338474
H111	H	0.891595	0.203393	0.189619
H112	H	0.960985	0.268027	0.189575
H113	H	0.946176	0.217281	0.433908
H114	H	0.946210	0.217298	0.754986
H115	H	0.596441	0.253337	-0.000003
C116	C	0.238060	0.273324	-0.085033
C117	C	0.292346	0.269640	-0.000016
H118	H	0.199158	0.324159	-0.085034
H119	H	0.274908	0.270815	-0.142694
H120	H	0.203288	0.227499	-0.085019
H121	H	0.327123	0.315462	-0.000033
H122	H	0.255494	0.272157	0.057660
