data_functionalizedCrystal
_audit_creation_method	'MofGen! by Chris Wilmer'
_symmetry_space_group_name_H-M	'P1'
_symmetry_Int_Tables_number	1
_symmetry_cell_setting	triclinic
loop_
_symmetry_equiv_pos_as_xyz
  x,y,z
_cell_length_a	12.645331
_cell_length_b	12.645324
_cell_length_c	17.077402
_cell_angle_alpha	89.964883
_cell_angle_beta	89.982253
_cell_angle_gamma	90.025687
loop_
_atom_site_label
_atom_site_type_symbol
_atom_site_fract_x
_atom_site_fract_y
_atom_site_fract_z
Zn1	Zn	-1.620681	-0.599526	-0.312570
Zn2	Zn	-1.620547	-0.422255	-0.443862
Zn3	Zn	-1.443398	-0.422258	-0.312601
Zn4	Zn	-1.443360	-0.599459	-0.443784
O5	O	-1.531997	-0.510874	-0.378204
O6	O	-1.769011	-0.576037	-0.330005
O7	O	-1.597008	-0.273908	-0.426495
O8	O	-1.466987	-0.445803	-0.202750
O9	O	-1.768912	-0.445797	-0.426465
O10	O	-1.597236	-0.576040	-0.202727
O11	O	-1.466857	-0.273911	-0.330059
O12	O	-1.295046	-0.445738	-0.329983
O13	O	-1.466922	-0.747815	-0.426333
O14	O	-1.295018	-0.575926	-0.426363
O15	O	-1.597199	-0.747864	-0.329930
O16	O	-1.596971	-0.445732	-0.553699
O17	O	-1.466792	-0.575923	-0.553641
C18	C	-1.256567	-0.510826	-0.378169
C19	C	-1.138737	-0.510830	-0.378172
C20	C	-1.531891	-0.510843	-0.582152
C21	C	-1.531943	-0.510865	-0.669402
C22	C	-1.532071	-0.787380	-0.378119
C23	C	-1.532103	-0.905210	-0.378083
C24	C	-0.971155	-0.429370	-0.317251
C25	C	-1.093715	-0.429019	-0.317416
C26	C	-1.094206	-0.480306	-0.460864
C27	C	-0.971607	-0.479742	-0.460524
C28	C	-0.971589	-0.623105	-0.357167
C29	C	-1.094195	-0.622490	-0.355327
C30	C	-0.808502	-0.510907	-0.378225
C31	C	-0.926332	-0.510880	-0.378195
C32	C	-1.614079	-0.950123	-0.317423
C33	C	-1.614431	-1.072683	-0.317581
C34	C	-1.562048	-1.073086	-0.460847
C35	C	-1.562612	-0.950488	-0.460517
C36	C	-1.420041	-0.950375	-0.356659
C37	C	-1.420673	-1.072982	-0.354813
C38	C	-1.531983	-0.235445	-0.378232
C39	C	-1.532157	-0.117615	-0.378047
C40	C	-1.599727	-0.578734	-0.710312
C41	C	-1.599772	-0.578757	-0.792293
C42	C	-1.532037	-0.510904	-0.833361
C43	C	-1.464246	-0.443032	-0.792445
C44	C	-1.464196	-0.443015	-0.710466
C45	C	-1.464354	-0.443069	-0.963315
C46	C	-1.464405	-0.443083	-1.045299
C47	C	-1.599929	-0.578810	-1.045142
C48	C	-1.599880	-0.578794	-0.963163
C49	C	-1.532090	-0.510920	-0.922252
C50	C	-1.532131	-0.510929	-0.173460
C51	C	-1.532188	-0.510953	-0.086210
H52	H	-1.123824	-0.448152	-0.256097
H53	H	-1.655126	-0.634076	-1.078455
H54	H	-1.643053	-1.103830	-0.479281
C55	C	-1.674244	-0.653377	-0.665145
N56	N	-1.730369	-0.709603	-0.631127
C57	C	-1.589234	-1.113368	-0.234648
N58	N	-1.570262	-1.144008	-0.172179
H59	H	-1.655040	-0.634039	-0.929725
C60	C	-1.389630	-0.368353	-0.665465
N61	N	-1.333462	-0.312117	-0.631571
C62	C	-0.931546	-0.556441	-0.523949
N63	N	-0.901377	-0.614205	-0.571723
C64	C	-0.931357	-0.454930	-0.234156
N65	N	-0.901373	-0.474183	-0.171566
H66	H	-1.356376	-1.103564	-0.395741
C67	C	-1.390202	-1.112313	-0.272496
N68	N	-1.367252	-1.141947	-0.210496
H69	H	-0.940306	-0.346696	-0.330996
C70	C	-1.725623	-0.908530	-0.336378
N71	N	-1.809638	-0.877200	-0.350657
H72	H	-1.409245	-0.387836	-1.078735
H73	H	-1.124859	-0.399148	-0.479006
C74	C	-1.589149	-0.910335	-0.234241
N75	N	-1.570368	-0.880361	-0.171586
C76	C	-0.932904	-0.368903	-0.484604
N77	N	-0.903757	-0.285415	-0.502739
C78	C	-1.133616	-0.557985	-0.523858
N79	N	-1.163306	-0.616491	-0.571304
H80	H	-1.409090	-0.387789	-0.825889
C81	C	-1.389787	-0.368398	-0.918315
N82	N	-1.333630	-0.312151	-0.884421
H83	H	-0.940700	-0.650860	-0.297916
C84	C	-1.133271	-0.316675	-0.336202
N85	N	-1.163064	-0.232053	-0.350356
C86	C	-1.726630	-1.112332	-0.336762
N87	N	-1.811142	-1.142195	-0.351212
C88	C	-1.674353	-0.653404	-0.837291
N89	N	-1.730536	-0.709628	-0.871183
C90	C	-1.133510	-0.653580	-0.273113
N91	N	-1.163125	-0.676993	-0.211188
C92	C	-0.932425	-0.705154	-0.417131
N93	N	-0.902920	-0.766945	-0.462297
H94	H	-1.124846	-0.686474	-0.396481
C95	C	-1.485443	-0.910341	-0.523685
N96	N	-1.427330	-0.880107	-0.571268
C97	C	-1.673266	-0.911875	-0.484985
N98	N	-1.756616	-0.882796	-0.503409
C99	C	-1.483882	-1.112400	-0.523564
N100	N	-1.425006	-1.142013	-0.570801
H101	H	-1.358970	-0.921324	-0.400837
C102	C	-1.383159	-0.908639	-0.276485
N103	N	-1.355391	-0.877204	-0.216095
