data_functionalizedCrystal
_audit_creation_method	'MofGen! by Chris Wilmer'
_symmetry_space_group_name_H-M	'P1'
_symmetry_Int_Tables_number	1
_symmetry_cell_setting	triclinic
loop_
_symmetry_equiv_pos_as_xyz
  x,y,z
_cell_length_a	21.395362
_cell_length_b	19.805405
_cell_length_c	21.395355
_cell_angle_alpha	89.980090
_cell_angle_beta	89.956060
_cell_angle_gamma	90.042288
loop_
_atom_site_label
_atom_site_type_symbol
_atom_site_fract_x
_atom_site_fract_y
_atom_site_fract_z
Zn1	Zn	0.957878	-0.269255	-0.354580
Zn2	Zn	1.207878	-0.019255	-0.104580
Zn3	Zn	1.457878	0.230745	0.145420
Zn4	Zn	1.707878	0.480745	0.395420
Zn5	Zn	0.957789	-0.382425	-0.249800
Zn6	Zn	1.207789	-0.132425	0.000200
Zn7	Zn	1.457789	0.117575	0.250200
Zn8	Zn	1.707789	0.367575	0.500200
Zn9	Zn	0.853093	-0.269286	-0.249781
Zn10	Zn	1.103093	-0.019286	0.000219
Zn11	Zn	1.353093	0.230714	0.250219
Zn12	Zn	1.603093	0.480714	0.500219
Zn13	Zn	0.853070	-0.382438	-0.354504
Zn14	Zn	1.103070	-0.132438	-0.104504
Zn15	Zn	1.353070	0.117562	0.145496
Zn16	Zn	1.603070	0.367562	0.395496
O17	O	0.905458	-0.325851	-0.302166
O18	O	1.155458	-0.075851	-0.052166
O19	O	1.405458	0.174149	0.197834
O20	O	1.655458	0.424149	0.447834
O21	O	1.045544	-0.284248	-0.340720
O22	O	1.295544	-0.034248	-0.090720
O23	O	1.545544	0.215752	0.159280
O24	O	1.795544	0.465752	0.409280
O25	O	0.943873	-0.367424	-0.162119
O26	O	1.193873	-0.117424	0.087881
O27	O	1.443873	0.132576	0.337881
O28	O	1.693873	0.382576	0.587881
O29	O	0.867040	-0.174565	-0.263706
O30	O	1.117040	0.075435	-0.013706
O31	O	1.367040	0.325435	0.236294
O32	O	1.617040	0.575435	0.486294
O33	O	1.045478	-0.367393	-0.263738
O34	O	1.295478	-0.117393	-0.013738
O35	O	1.545478	0.132607	0.236262
O36	O	1.795478	0.382607	0.486262
O37	O	0.944025	-0.174542	-0.340701
O38	O	1.194025	0.075458	-0.090701
O39	O	1.444025	0.325458	0.159299
O40	O	1.694025	0.575458	0.409299
O41	O	0.866953	-0.284302	-0.162105
O42	O	1.116953	-0.034302	0.087895
O43	O	1.366953	0.215698	0.337895
O44	O	1.616953	0.465698	0.587895
O45	O	0.765412	-0.284315	-0.263633
O46	O	1.015412	-0.034315	-0.013633
O47	O	1.265412	0.215685	0.236367
O48	O	1.515412	0.465685	0.486367
O49	O	0.867001	-0.367417	-0.442192
O50	O	1.117001	-0.117417	-0.192192
O51	O	1.367001	0.132583	0.057808
O52	O	1.617001	0.382583	0.307808
O53	O	0.765395	-0.367448	-0.340573
O54	O	1.015395	-0.117448	-0.090573
O55	O	1.265395	0.132552	0.159427
O56	O	1.515395	0.382552	0.409427
O57	O	0.944003	-0.284261	-0.442247
O58	O	1.194003	-0.034261	-0.192247
O59	O	1.444003	0.215739	0.057753
O60	O	1.694003	0.465739	0.307753
O61	O	0.943850	-0.477143	-0.263665
O62	O	1.193850	-0.227143	-0.013665
O63	O	1.443850	0.022857	0.236335
O64	O	1.693850	0.272857	0.486335
O65	O	0.866914	-0.477153	-0.340591
O66	O	1.116914	-0.227153	-0.090591
O67	O	1.366914	0.022847	0.159409
O68	O	1.616914	0.272847	0.409409
C69	C	0.742670	-0.325887	-0.302093
C70	C	0.992670	-0.075887	-0.052093
C71	C	1.242670	0.174113	0.197907
C72	C	1.492670	0.424113	0.447907
C73	C	0.673029	-0.325918	-0.302077
C74	C	0.923029	-0.075918	-0.052077
C75	C	1.173029	0.174082	0.197923
C76	C	1.423029	0.424082	0.447923
C77	C	0.905387	-0.501707	-0.302136
C78	C	1.155387	-0.251707	-0.052136
C79	C	1.405387	-0.001707	0.197864
C80	C	1.655387	0.248293	0.447864
C81	C	0.905414	-0.576939	-0.302144
C82	C	1.155414	-0.326939	-0.052144
C83	C	1.405414	-0.076939	0.197856
C84	C	1.655414	0.173061	0.447856
C85	C	0.640323	-0.369263	-0.342080
C86	C	0.890323	-0.119263	-0.092080
C87	C	1.140323	0.130737	0.157920
C88	C	1.390323	0.380737	0.407920
C89	C	0.574888	-0.369246	-0.342108
C90	C	0.824888	-0.119246	-0.092108
C91	C	1.074888	0.130754	0.157892
C92	C	1.324888	0.380754	0.407892
C93	C	0.542160	-0.325892	-0.302122
C94	C	0.792160	-0.075892	-0.052122
C95	C	1.042160	0.174108	0.197878
C96	C	1.292160	0.424108	0.447878
C97	C	0.574874	-0.282539	-0.262116
C98	C	0.824874	-0.032539	-0.012116
C99	C	1.074874	0.217461	0.237884
C100	C	1.324874	0.467461	0.487884
C101	C	0.640308	-0.282553	-0.262094
C102	C	0.890308	-0.032553	-0.012094
C103	C	1.140308	0.217447	0.237906
C104	C	1.390308	0.467447	0.487906
C105	C	0.438435	-0.320440	-0.245717
C106	C	0.688435	-0.070440	0.004283
C107	C	0.938435	0.179560	0.254283
C108	C	1.188435	0.429560	0.504283
C109	C	0.373002	-0.320431	-0.245738
C110	C	0.623002	-0.070431	0.004262
C111	C	0.873002	0.179569	0.254262
C112	C	1.123002	0.429569	0.504262
C113	C	0.340340	-0.325848	-0.302191
C114	C	0.590340	-0.075848	-0.052191
C115	C	0.840340	0.174152	0.197809
C116	C	1.090340	0.424152	0.447809
C117	C	0.373118	-0.331287	-0.358624
C118	C	0.623118	-0.081287	-0.108624
C119	C	0.873118	0.168713	0.141376
C120	C	1.123118	0.418713	0.391376
C121	C	0.438552	-0.331301	-0.358602
C122	C	0.688552	-0.081301	-0.108602
C123	C	0.938552	0.168699	0.141398
C124	C	1.188552	0.418699	0.391398
C125	C	0.471208	-0.325873	-0.302142
C126	C	0.721208	-0.075873	-0.052142
C127	C	0.971208	0.174127	0.197858
C128	C	1.221208	0.424127	0.447858
C129	C	0.236682	-0.369177	-0.342227
C130	C	0.486682	-0.119177	-0.092227
C131	C	0.736682	0.130823	0.157773
C132	C	0.986682	0.380823	0.407773
C133	C	0.171245	-0.369156	-0.342256
C134	C	0.421245	-0.119156	-0.092256
C135	C	0.671245	0.130844	0.157744
C136	C	0.921245	0.380844	0.407744
C137	C	0.171232	-0.282452	-0.262259
C138	C	0.421232	-0.032452	-0.012259
C139	C	0.671232	0.217548	0.237741
C140	C	0.921232	0.467548	0.487741
C141	C	0.236668	-0.282470	-0.262236
C142	C	0.486668	-0.032470	-0.012236
C143	C	0.736668	0.217530	0.237764
C144	C	0.986668	0.467530	0.487764
C145	C	0.269388	-0.325836	-0.302219
C146	C	0.519388	-0.075836	-0.052219
C147	C	0.769388	0.174164	0.197781
C148	C	1.019388	0.424164	0.447781
C149	C	0.945514	-0.612255	-0.262130
C150	C	1.195514	-0.362255	-0.012130
C151	C	1.445514	-0.112255	0.237870
C152	C	1.695514	0.137745	0.487870
C153	C	0.945540	-0.682944	-0.262144
C154	C	1.195540	-0.432944	-0.012144
C155	C	1.445540	-0.182944	0.237856
C156	C	1.695540	0.067056	0.487856
C157	C	0.905464	-0.718315	-0.302169
C158	C	1.155464	-0.468315	-0.052169
C159	C	1.405464	-0.218315	0.197831
C160	C	1.655464	0.031685	0.447831
C161	C	0.865362	-0.682993	-0.342187
C162	C	1.115362	-0.432993	-0.092187
C163	C	1.365362	-0.182993	0.157813
C164	C	1.615362	0.067007	0.407813
C165	C	0.865339	-0.612306	-0.342175
C166	C	1.115339	-0.362306	-0.092175
C167	C	1.365339	-0.112306	0.157825
C168	C	1.615339	0.137694	0.407825
C169	C	0.865455	-0.968067	-0.342233
C170	C	1.115455	-0.718067	-0.092233
C171	C	1.365455	-0.468067	0.157767
C172	C	1.615455	-0.218067	0.407767
C173	C	0.865480	-1.038759	-0.342240
C174	C	1.115480	-0.788759	-0.092240
C175	C	1.365480	-0.538759	0.157760
C176	C	1.615480	-0.288759	0.407760
C177	C	0.945656	-1.038704	-0.262202
C178	C	1.195656	-0.788704	-0.012202
C179	C	1.445656	-0.538704	0.237798
C180	C	1.695656	-0.288704	0.487798
C181	C	0.945633	-0.968017	-0.262191
C182	C	1.195633	-0.718017	-0.012191
C183	C	1.445633	-0.468017	0.237809
C184	C	1.695633	-0.218017	0.487809
C185	C	0.905534	-0.932702	-0.302210
C186	C	1.155534	-0.682702	-0.052210
C187	C	1.405534	-0.432702	0.197790
C188	C	1.655534	-0.182702	0.447790
C189	C	0.905507	-0.856053	-0.302196
C190	C	1.155507	-0.606053	-0.052196
C191	C	1.405507	-0.356053	0.197804
C192	C	1.655507	-0.106053	0.447804
C193	C	0.905488	-0.794962	-0.302181
C194	C	1.155488	-0.544962	-0.052181
C195	C	1.405488	-0.294962	0.197819
C196	C	1.655488	-0.044962	0.447819
C197	C	1.068881	-0.325816	-0.302239
C198	C	1.318881	-0.075816	-0.052239
C199	C	1.568881	0.174184	0.197761
C200	C	1.818881	0.424184	0.447761
C201	C	1.138522	-0.325800	-0.302271
C202	C	1.388522	-0.075800	-0.052271
C203	C	1.638522	0.174200	0.197729
C204	C	1.888522	0.424200	0.447729
C205	C	0.905510	-0.325837	-0.465589
C206	C	1.155510	-0.075837	-0.215589
C207	C	1.405510	0.174163	0.034411
C208	C	1.655510	0.424163	0.284411
C209	C	0.905532	-0.325831	-0.535231
C210	C	1.155532	-0.075831	-0.285231
C211	C	1.405532	0.174169	-0.035231
C212	C	1.655532	0.424169	0.214769
C213	C	0.905545	-0.149308	-0.302210
C214	C	1.155545	0.100692	-0.052210
C215	C	1.405545	0.350692	0.197790
C216	C	1.655545	0.600692	0.447790
C217	C	0.905583	-0.074076	-0.302229
C218	C	1.155583	0.175924	-0.052229
C219	C	1.405583	0.425924	0.197771
C220	C	1.655583	0.675924	0.447771
C221	C	0.945625	-0.282530	-0.567974
C222	C	1.195625	-0.032530	-0.317974
C223	C	1.445625	0.217470	-0.067974
C224	C	1.695625	0.467470	0.182026
C225	C	0.945624	-0.282501	-0.633409
C226	C	1.195624	-0.032501	-0.383409
C227	C	1.445624	0.217499	-0.133409
C228	C	1.695624	0.467499	0.116591
C229	C	0.905537	-0.325785	-0.666099
C230	C	1.155537	-0.075785	-0.416099
C231	C	1.405537	0.174215	-0.166099
C232	C	1.655537	0.424215	0.083901
C233	C	0.865436	-0.369089	-0.633348
C234	C	1.115436	-0.119089	-0.383348
C235	C	1.365436	0.130911	-0.133348
C236	C	1.615436	0.380911	0.116652
C237	C	0.865433	-0.369112	-0.567914
C238	C	1.115433	-0.119112	-0.317914
C239	C	1.365433	0.130888	-0.067914
C240	C	1.615433	0.380888	0.182086
C241	C	0.900565	-0.386731	-0.769762
C242	C	1.150565	-0.136731	-0.519762
C243	C	1.400565	0.113269	-0.269762
C244	C	1.650565	0.363269	-0.019762
C245	C	0.900572	-0.386709	-0.835195
C246	C	1.150572	-0.136709	-0.585195
C247	C	1.400572	0.113291	-0.335195
C248	C	1.650572	0.363291	-0.085195
C249	C	0.905540	-0.325714	-0.867920
C250	C	1.155540	-0.075714	-0.617920
C251	C	1.405540	0.174286	-0.367920
C252	C	1.655540	0.424286	-0.117920
C253	C	0.910516	-0.264738	-0.835204
C254	C	1.160516	-0.014738	-0.585204
C255	C	1.410516	0.235262	-0.335204
C256	C	1.660516	0.485262	-0.085204
C257	C	0.910513	-0.264762	-0.769770
C258	C	1.160513	-0.014762	-0.519770
C259	C	1.410513	0.235238	-0.269770
C260	C	1.660513	0.485238	-0.019770
C261	C	0.905534	-0.325765	-0.737051
C262	C	1.155534	-0.075765	-0.487051
C263	C	1.405534	0.174235	-0.237051
C264	C	1.655534	0.424235	0.012949
C265	C	0.945635	-0.282378	-0.971615
C266	C	1.195635	-0.032378	-0.721615
C267	C	1.445635	0.217622	-0.471615
C268	C	1.695635	0.467622	-0.221615
C269	C	0.945630	-0.282347	-1.037052
C270	C	1.195630	-0.032347	-0.787052
C271	C	1.445630	0.217653	-0.537052
C272	C	1.695630	0.467653	-0.287052
C273	C	0.865444	-0.368941	-1.036990
C274	C	1.115444	-0.118941	-0.786990
C275	C	1.365444	0.131059	-0.536990
C276	C	1.615444	0.381059	-0.286990
C277	C	0.865446	-0.368966	-0.971555
C278	C	1.115446	-0.118966	-0.721555
C279	C	1.365446	0.131034	-0.471555
C280	C	1.615446	0.381034	-0.221555
C281	C	0.905545	-0.325685	-0.938871
C282	C	1.155545	-0.075685	-0.688871
C283	C	1.405545	0.174315	-0.438871
C284	C	1.655545	0.424315	-0.188871
C285	C	0.905442	-0.325816	-0.139378
C286	C	1.155442	-0.075816	0.110622
C287	C	1.405442	0.174184	0.360622
C288	C	1.655442	0.424184	0.610622
C289	C	0.905541	-0.325631	-0.069738
C290	C	1.155541	-0.075631	0.180262
C291	C	1.405541	0.174369	0.430262
C292	C	1.655541	0.424369	0.680262
H293	H	0.666960	-0.404574	-0.374638
H294	H	0.916960	-0.154574	-0.124638
H295	H	1.166960	0.095426	0.125362
H296	H	1.416960	0.345426	0.375362
H297	H	0.144586	-0.247150	-0.229705
H298	H	0.394586	0.002850	0.020295
H299	H	0.644586	0.252850	0.270295
H300	H	0.894586	0.502850	0.520295
C301	C	0.989600	-0.573354	-0.218103
C302	C	1.239600	-0.323354	0.031897
C303	C	1.489600	-0.073354	0.281897
C304	C	1.739600	0.176646	0.531897
H305	H	1.013489	-0.604514	-0.194280
H306	H	1.263489	-0.354514	0.055720
H307	H	1.513489	-0.104514	0.305720
H308	H	1.763489	0.145486	0.555720
H309	H	0.965639	-0.545821	-0.190768
H310	H	1.215639	-0.295821	0.059232
H311	H	1.465639	-0.045821	0.309232
H312	H	1.715639	0.204179	0.559232
H313	H	1.016881	-0.545735	-0.242106
H314	H	1.266881	-0.295735	0.007894
H315	H	1.516881	-0.045735	0.257894
H316	H	1.766881	0.204265	0.507894
H317	H	0.978193	-0.711695	-0.229561
H318	H	1.228193	-0.461695	0.020439
H319	H	1.478193	-0.211695	0.270439
H320	H	1.728193	0.038305	0.520439
H321	H	0.666936	-0.247254	-0.229519
H322	H	0.916936	0.002746	0.020481
H323	H	1.166936	0.252746	0.270481
H324	H	1.416936	0.502746	0.520481
C325	C	0.989728	-0.234871	-0.669437
C326	C	1.239728	0.015129	-0.419437
C327	C	1.489728	0.265129	-0.169437
C328	C	1.739728	0.515129	0.080563
H329	H	0.983983	-0.241054	-0.713088
H330	H	1.233983	0.008946	-0.463088
H331	H	1.483983	0.258946	-0.213088
H332	H	1.733983	0.508946	0.036912
H333	H	1.031820	-0.244773	-0.658745
H334	H	1.281820	0.005227	-0.408745
H335	H	1.531820	0.255227	-0.158745
H336	H	1.781820	0.505227	0.091255
H337	H	0.980580	-0.189395	-0.658709
H338	H	1.230580	0.060605	-0.408709
H339	H	1.480580	0.310605	-0.158709
H340	H	1.730580	0.560605	0.091291
H341	H	0.978308	-1.067466	-0.229618
H342	H	1.228308	-0.817466	0.020382
H343	H	1.478308	-0.567466	0.270382
H344	H	1.728308	-0.317466	0.520382
H345	H	0.465024	-0.316026	-0.199743
H346	H	0.715024	-0.066026	0.050257
H347	H	0.965024	0.183974	0.300257
H348	H	1.215024	0.433974	0.550257
C349	C	0.538876	-0.234852	-0.218133
C350	C	0.788876	0.015148	0.031867
C351	C	1.038876	0.265148	0.281867
C352	C	1.288876	0.515148	0.531867
H353	H	0.495222	-0.241056	-0.223871
H354	H	0.745222	0.008944	0.026129
H355	H	0.995222	0.258944	0.276129
H356	H	1.245222	0.508944	0.526129
H357	H	0.549648	-0.189391	-0.227376
H358	H	0.799648	0.060609	0.022624
H359	H	1.049648	0.310609	0.272624
H360	H	1.299648	0.560609	0.522624
H361	H	0.549546	-0.244695	-0.176013
H362	H	0.799546	0.005305	0.073987
H363	H	1.049546	0.255305	0.323987
H364	H	1.299546	0.505305	0.573987
H365	H	0.914563	-0.215070	-0.861848
H366	H	1.164563	0.034930	-0.611848
H367	H	1.414563	0.284930	-0.361848
H368	H	1.664563	0.534930	-0.111848
H369	H	0.914562	-0.215113	-0.743136
H370	H	1.164562	0.034887	-0.493136
H371	H	1.414562	0.284887	-0.243136
H372	H	1.664562	0.534887	0.006864
H373	H	0.263297	-0.247178	-0.229658
H374	H	0.513297	0.002822	0.020342
H375	H	0.763297	0.252822	0.270342
H376	H	1.013297	0.502822	0.520342
H377	H	0.832782	-0.404372	-0.541255
H378	H	1.082782	-0.154372	-0.291255
H379	H	1.332782	0.095628	-0.041255
H380	H	1.582782	0.345628	0.208745
C381	C	0.821353	-0.416557	-1.072941
C382	C	1.071353	-0.166557	-0.822941
C383	C	1.321353	0.083443	-0.572941
C384	C	1.571353	0.333443	-0.322941
H385	H	0.827099	-0.410347	-1.116601
H386	H	1.077099	-0.160347	-0.866601
H387	H	1.327099	0.089653	-0.616601
H388	H	1.577099	0.339653	-0.366601
H389	H	0.779259	-0.406671	-1.062188
H390	H	1.029259	-0.156671	-0.812188
H391	H	1.279259	0.093329	-0.562188
H392	H	1.529259	0.343329	-0.312188
H393	H	0.830509	-0.462037	-1.062222
H394	H	1.080509	-0.212037	-0.812222
H395	H	1.330509	0.037963	-0.562222
H396	H	1.580509	0.287963	-0.312222
H397	H	0.346526	-0.335697	-0.404594
H398	H	0.596526	-0.085697	-0.154594
H399	H	0.846526	0.164303	0.095406
H400	H	1.096526	0.414303	0.345406
H401	H	0.832845	-1.067556	-0.374837
H402	H	1.082845	-0.817556	-0.124837
H403	H	1.332845	-0.567556	0.125163
H404	H	1.582845	-0.317556	0.375163
H405	H	0.978265	-0.939220	-0.229597
H406	H	1.228265	-0.689220	0.020403
H407	H	1.478265	-0.439220	0.270403
H408	H	1.728265	-0.189220	0.520403
C409	C	0.821337	-0.929229	-0.386242
C410	C	1.071337	-0.679229	-0.136242
C411	C	1.321337	-0.429229	0.113758
C412	C	1.571337	-0.179229	0.363758
H413	H	0.797467	-0.960420	-0.410072
H414	H	1.047467	-0.710420	-0.160072
H415	H	1.297467	-0.460420	0.089928
H416	H	1.547467	-0.210420	0.339928
H417	H	0.845274	-0.901607	-0.413572
H418	H	1.095274	-0.651607	-0.163572
H419	H	1.345274	-0.401607	0.086428
H420	H	1.595274	-0.151607	0.336428
H421	H	0.794040	-0.901703	-0.362227
H422	H	1.044040	-0.651703	-0.112227
H423	H	1.294040	-0.401703	0.137773
H424	H	1.544040	-0.151703	0.387773
H425	H	0.263324	-0.404485	-0.374787
H426	H	0.513324	-0.154485	-0.124787
H427	H	0.763324	0.095515	0.125213
H428	H	1.013324	0.345515	0.375213
H429	H	0.978277	-0.247083	-1.063710
H430	H	1.228277	0.002917	-0.813710
H431	H	1.478277	0.252917	-0.563710
H432	H	1.728277	0.502917	-0.313710
H433	H	0.978282	-0.247132	-0.945003
H434	H	1.228282	0.002868	-0.695003
H435	H	1.478282	0.252868	-0.445003
H436	H	1.728282	0.502868	-0.195003
H437	H	0.832734	-0.711798	-0.374778
H438	H	1.082734	-0.461798	-0.124778
H439	H	1.332734	-0.211798	0.125222
H440	H	1.582734	0.038202	0.375222
C441	C	0.821348	-0.416602	-0.935536
C442	C	1.071348	-0.166602	-0.685536
C443	C	1.321348	0.083398	-0.435536
C444	C	1.571348	0.333398	-0.185536
H445	H	0.797475	-0.442381	-0.964374
H446	H	1.047475	-0.192381	-0.714374
H447	H	1.297475	0.057619	-0.464374
H448	H	1.547475	0.307619	-0.214374
H449	H	0.794061	-0.390726	-0.909990
H450	H	1.044061	-0.140726	-0.659990
H451	H	1.294061	0.109274	-0.409990
H452	H	1.544061	0.359274	-0.159990
H453	H	0.845304	-0.446100	-0.910028
H454	H	1.095304	-0.196100	-0.660028
H455	H	1.345304	0.053900	-0.410028
H456	H	1.595304	0.303900	-0.160028
H457	H	0.548254	-0.404542	-0.374685
H458	H	0.798254	-0.154542	-0.124685
H459	H	1.048254	0.095458	0.125315
H460	H	1.298254	0.345458	0.375315
C461	C	0.336952	-0.314447	-0.183665
C462	C	0.586952	-0.064447	0.066335
C463	C	0.836952	0.185553	0.316335
C464	C	1.086952	0.435553	0.566335
H465	H	0.365775	-0.311210	-0.150042
H466	H	0.615775	-0.061210	0.099958
H467	H	0.865775	0.188790	0.349958
H468	H	1.115775	0.438790	0.599958
H469	H	0.311387	-0.353223	-0.178095
H470	H	0.561387	-0.103223	0.071905
H471	H	0.811387	0.146777	0.321905
H472	H	1.061387	0.396777	0.571905
H473	H	0.311461	-0.275205	-0.184560
H474	H	0.561461	-0.025205	0.065440
H475	H	0.811461	0.224795	0.315440
H476	H	1.061461	0.474795	0.565440
C477	C	0.474606	-0.337273	-0.420674
C478	C	0.724606	-0.087273	-0.170674
C479	C	0.974606	0.162727	0.079326
C480	C	1.224606	0.412727	0.329326
H481	H	0.445786	-0.340493	-0.454301
H482	H	0.695786	-0.090493	-0.204301
H483	H	0.945786	0.159507	0.045699
H484	H	1.195786	0.409507	0.295699
H485	H	0.500100	-0.376509	-0.419787
H486	H	0.750100	-0.126509	-0.169787
H487	H	1.000100	0.123491	0.080213
H488	H	1.250100	0.373491	0.330213
H489	H	0.500168	-0.298489	-0.426232
H490	H	0.750168	-0.048489	-0.176232
H491	H	1.000168	0.201511	0.073768
H492	H	1.250168	0.451511	0.323768
H493	H	0.144617	-0.404451	-0.374835
H494	H	0.394617	-0.154451	-0.124835
H495	H	0.644617	0.095549	0.125165
H496	H	0.894617	0.345549	0.375165
C497	C	0.821231	-0.573458	-0.386191
C498	C	1.071231	-0.323458	-0.136191
C499	C	1.321231	-0.073458	0.113809
C500	C	1.571231	0.176542	0.363809
H501	H	0.797363	-0.604646	-0.410027
H502	H	1.047363	-0.354646	-0.160027
H503	H	1.297363	-0.104646	0.089973
H504	H	1.547363	0.145354	0.339973
H505	H	0.845179	-0.545841	-0.413515
H506	H	1.095179	-0.295841	-0.163515
H507	H	1.345179	-0.045841	0.086485
H508	H	1.595179	0.204159	0.336485
H509	H	0.793931	-0.545928	-0.362184
H510	H	1.043931	-0.295928	-0.112184
H511	H	1.293931	-0.045928	0.137816
H512	H	1.543931	0.204072	0.387816
H513	H	0.978276	-0.247287	-0.541367
H514	H	1.228276	0.002713	-0.291367
H515	H	1.478276	0.252713	-0.041367
H516	H	1.728276	0.502713	0.208633
H517	H	0.896524	-0.436359	-0.861827
H518	H	1.146524	-0.186359	-0.611827
H519	H	1.396524	0.063641	-0.361827
H520	H	1.646524	0.313641	-0.111827
C521	C	0.894962	-0.453817	-0.733770
C522	C	1.144962	-0.203817	-0.483770
C523	C	1.394962	0.046183	-0.233770
C524	C	1.644962	0.296183	0.016230
H525	H	0.891968	-0.490124	-0.762624
H526	H	1.141968	-0.240124	-0.512624
H527	H	1.391968	0.009876	-0.262624
H528	H	1.641968	0.259876	-0.012624
H529	H	0.858610	-0.452858	-0.708268
H530	H	1.108610	-0.202858	-0.458268
H531	H	1.358610	0.047142	-0.208268
H532	H	1.608610	0.297142	0.041732
H533	H	0.930822	-0.459857	-0.708220
H534	H	1.180822	-0.209857	-0.458220
H535	H	1.430822	0.040143	-0.208220
H536	H	1.680822	0.290143	0.041780
C537	C	0.821344	-0.416703	-0.669304
C538	C	1.071344	-0.166703	-0.419304
C539	C	1.321344	0.083297	-0.169304
C540	C	1.571344	0.333297	0.080696
H541	H	0.827092	-0.410494	-0.712965
H542	H	1.077092	-0.160494	-0.462965
H543	H	1.327092	0.089506	-0.212965
H544	H	1.577092	0.339506	0.037035
H545	H	0.779250	-0.406813	-0.658553
H546	H	1.029250	-0.156813	-0.408553
H547	H	1.279250	0.093187	-0.158553
H548	H	1.529250	0.343187	0.091447
H549	H	0.830495	-0.462184	-0.658584
H550	H	1.080495	-0.212184	-0.408584
H551	H	1.330495	0.037816	-0.158584
H552	H	1.580495	0.287816	0.091416
