data_functionalizedCrystal
_audit_creation_method	'MofGen! by Chris Wilmer'
_symmetry_space_group_name_H-M	'P1'
_symmetry_Int_Tables_number	1
_symmetry_cell_setting	triclinic
loop_
_symmetry_equiv_pos_as_xyz
  x,y,z
_cell_length_a	25.639239
_cell_length_b	25.639243
_cell_length_c	25.639233
_cell_angle_alpha	90.016007
_cell_angle_beta	89.981253
_cell_angle_gamma	89.958634
loop_
_atom_site_label
_atom_site_type_symbol
_atom_site_fract_x
_atom_site_fract_y
_atom_site_fract_z
Zn1	Zn	-0.208177	-0.799225	-0.295656
Zn2	Zn	-0.295596	-0.799149	-0.208221
Zn3	Zn	-0.208180	-0.711801	-0.208230
Zn4	Zn	-0.295587	-0.711746	-0.295620
O5	O	-0.251885	-0.755480	-0.251932
O6	O	-0.219775	-0.872380	-0.284069
O7	O	-0.284005	-0.787553	-0.135057
O8	O	-0.135015	-0.723453	-0.219846
O9	O	-0.284002	-0.872324	-0.219831
O10	O	-0.135012	-0.787683	-0.284078
O11	O	-0.219781	-0.723379	-0.135063
O12	O	-0.219773	-0.638629	-0.219811
O13	O	-0.283987	-0.723360	-0.368790
O14	O	-0.283990	-0.638589	-0.284016
O15	O	-0.219767	-0.787630	-0.368817
O16	O	-0.368760	-0.787499	-0.219795
O17	O	-0.368754	-0.723286	-0.284007
C18	C	-0.251881	-0.619638	-0.251911
C19	C	-0.251892	-0.561524	-0.251914
C20	C	-0.218495	-0.201184	-0.285436
C21	C	-0.218494	-0.146580	-0.285439
O22	O	-0.190089	-0.118363	-0.313915
N23	N	-0.251883	-0.119241	-0.251946
C24	C	-0.285271	-0.146510	-0.218443
O25	O	-0.313670	-0.118242	-0.189954
C26	C	-0.285268	-0.201113	-0.218437
C27	C	-0.251881	-0.228449	-0.251937
C28	C	-0.185110	-0.228520	-0.318933
C29	C	-0.185111	-0.283121	-0.318930
C30	C	-0.218497	-0.310385	-0.285431
C31	C	-0.251882	-0.283049	-0.251934
C32	C	-0.318653	-0.228380	-0.184932
C33	C	-0.318648	-0.282987	-0.184929
C34	C	-0.285260	-0.310323	-0.218429
C35	C	-0.285270	-0.364915	-0.218433
N36	N	-0.251881	-0.392253	-0.251926
C37	C	-0.218495	-0.364989	-0.285425
C38	C	-0.285273	-0.031839	-0.218456
C39	C	-0.285279	0.022763	-0.218464
C40	C	-0.218501	0.022689	-0.285460
C41	C	-0.218499	-0.031914	-0.285454
C42	C	-0.251884	-0.059178	-0.251950
C43	C	-0.218500	-0.479654	-0.285418
C44	C	-0.218506	-0.534259	-0.285413
C45	C	-0.285282	-0.534180	-0.218416
C46	C	-0.285278	-0.479580	-0.218422
C47	C	-0.251883	-0.452318	-0.251924
O48	O	-0.313660	-0.393166	-0.189970
O49	O	-0.190095	-0.393263	-0.313905
C50	C	-0.387728	-0.755392	-0.251908
C51	C	-0.445842	-0.755403	-0.251915
C52	C	-0.806195	-0.789004	-0.218554
C53	C	-0.860800	-0.789024	-0.218561
O54	O	-0.889029	-0.817502	-0.190169
N55	N	-0.888124	-0.755572	-0.251966
C56	C	-0.860841	-0.722102	-0.285371
O57	O	-0.889097	-0.693651	-0.313786
C58	C	-0.806238	-0.722085	-0.285366
C59	C	-0.778917	-0.755535	-0.251955
C60	C	-0.778874	-0.822452	-0.185145
C61	C	-0.724273	-0.822431	-0.185137
C62	C	-0.696994	-0.788962	-0.218538
C63	C	-0.724316	-0.755514	-0.251947
C64	C	-0.778956	-0.688617	-0.318773
C65	C	-0.724349	-0.688603	-0.318766
C66	C	-0.697028	-0.722053	-0.285354
C67	C	-0.642437	-0.722024	-0.285341
N68	N	-0.615112	-0.755475	-0.251935
C69	C	-0.642391	-0.788944	-0.218534
C70	C	-0.975512	-0.722141	-0.285379
C71	C	-1.030114	-0.722155	-0.285382
C72	C	-1.030069	-0.789078	-0.218572
C73	C	-0.975466	-0.789061	-0.218567
C74	C	-0.948188	-0.755593	-0.251973
C75	C	-0.527726	-0.788897	-0.218520
C76	C	-0.473121	-0.788872	-0.218514
C77	C	-0.473171	-0.721951	-0.285326
C78	C	-0.527771	-0.721974	-0.285330
C79	C	-0.555048	-0.755452	-0.251926
O80	O	-0.614173	-0.693562	-0.313719
O81	O	-0.614129	-0.817396	-0.190128
C82	C	-0.115512	-0.755583	-0.251967
C83	C	-0.057398	-0.755627	-0.251982
C84	C	-0.251876	-0.755497	-0.388305
C85	C	-0.251872	-0.755504	-0.446419
C86	C	-0.251889	0.108147	-0.251953
C87	C	-0.251890	0.050033	-0.251961
C88	C	-0.218333	-0.789012	-0.806802
C89	C	-0.218319	-0.789019	-0.861406
O90	O	-0.189865	-0.817466	-0.889659
N91	N	-0.251749	-0.755562	-0.888702
C92	C	-0.285193	-0.722093	-0.861390
O93	O	-0.313627	-0.693636	-0.889621
C94	C	-0.285204	-0.722084	-0.806787
C95	C	-0.251775	-0.755547	-0.779494
C96	C	-0.184907	-0.822472	-0.779509
C97	C	-0.184922	-0.822466	-0.724908
C98	C	-0.218364	-0.789001	-0.697600
C99	C	-0.251791	-0.755541	-0.724893
C100	C	-0.318645	-0.688613	-0.779476
C101	C	-0.318653	-0.688607	-0.724869
C102	C	-0.285224	-0.722069	-0.697576
C103	C	-0.285248	-0.722070	-0.642985
N104	N	-0.251817	-0.755526	-0.615689
C105	C	-0.218375	-0.788992	-0.642997
C106	C	-0.285166	-0.722113	-0.976061
C107	C	-0.285157	-0.722124	-1.030663
C108	C	-0.218282	-0.789049	-1.030675
C109	C	-0.218294	-0.789041	-0.976072
C110	C	-0.251735	-0.755570	-0.948765
C111	C	-0.218410	-0.788977	-0.528332
C112	C	-0.218430	-0.788970	-0.473727
C113	C	-0.285303	-0.722043	-0.473719
C114	C	-0.285285	-0.722052	-0.528320
C115	C	-0.251835	-0.755521	-0.555625
O116	O	-0.313686	-0.693635	-0.614697
O117	O	-0.189942	-0.817439	-0.614759
C118	C	-0.251857	-0.755494	-0.116089
C119	C	-0.251713	-0.755588	-0.057975
H120	H	-0.312465	-0.556389	-0.191143
N121	N	-0.696495	-0.654415	-0.352898
N122	N	-0.720900	-0.624555	-0.382725
H123	H	-0.701229	-0.600409	-0.406830
N124	N	-0.352744	-0.310836	-0.150697
N125	N	-0.349199	-0.304723	-0.102460
H126	H	-0.373279	-0.324391	-0.078283
H127	H	-0.191310	-0.054168	-0.312732
H128	H	-0.312532	-0.694798	-0.451475
N129	N	-0.445221	-0.823042	-0.184377
N130	N	-0.469588	-0.852922	-0.154558
H131	H	-0.449886	-0.877055	-0.130449
N132	N	-0.184401	0.050553	-0.319677
N133	N	-0.184411	0.099306	-0.319672
H134	H	-0.160330	0.118987	-0.343837
H135	H	-0.345840	-0.206133	-0.157653
H136	H	-0.191318	-0.556514	-0.312695
N137	N	-0.319395	0.050675	-0.184250
N138	N	-0.349202	0.026318	-0.154346
H139	H	-0.373296	0.046029	-0.130179
H140	H	-0.312400	-0.694857	-0.953831
N141	N	-0.184273	-0.823151	-0.445857
N142	N	-0.136026	-0.819718	-0.451962
H143	H	-0.111902	-0.843857	-0.432282
N144	N	-0.319383	-0.059678	-0.184228
N145	N	-0.349189	-0.035257	-0.154327
H146	H	-0.373279	-0.054915	-0.130152
N147	N	-0.184402	-0.451809	-0.319650
N148	N	-0.202852	-0.421342	-0.352936
H149	H	-0.178774	-0.401676	-0.377116
H150	H	-0.312511	-0.694809	-0.550543
N151	N	-0.445291	-0.687772	-0.319442
N152	N	-0.414785	-0.706142	-0.352768
H153	H	-0.395092	-0.682006	-0.376865
H154	H	-0.702031	-0.849670	-0.157932
H155	H	-0.157923	-0.305373	-0.346208
N156	N	-0.319390	-0.451662	-0.184206
N157	N	-0.349199	-0.476014	-0.154301
H158	H	-0.373289	-0.456301	-0.130132
N159	N	-0.555584	-0.823082	-0.184388
N160	N	-0.586083	-0.804717	-0.151055
H161	H	-0.605758	-0.828856	-0.126946
H162	H	-0.550018	-0.694738	-0.312538
N163	N	-0.806725	-0.856649	-0.151023
N164	N	-0.782314	-0.886509	-0.121201
H165	H	-0.801980	-0.910661	-0.097097
N166	N	-0.947568	-0.823232	-0.184433
N167	N	-0.971937	-0.853108	-0.154613
H168	H	-0.952237	-0.877243	-0.130504
N169	N	-0.150997	-0.200684	-0.353155
N170	N	-0.121193	-0.225108	-0.383055
H171	H	-0.097100	-0.205452	-0.407229
N172	N	-0.319307	-0.687939	-1.058530
N173	N	-0.315838	-0.639697	-1.052418
H174	H	-0.339956	-0.615550	-1.072097
N175	N	-1.057948	-0.823263	-0.184454
N176	N	-1.106700	-0.823271	-0.184468
H177	H	-1.126391	-0.847411	-0.160374
H178	H	-1.052355	-0.694912	-0.312584
H179	H	-0.157671	-0.849724	-0.801737
N180	N	-0.184144	-0.823225	-0.948204
N181	N	-0.154292	-0.853103	-0.972599
H182	H	-0.130171	-0.877247	-0.952919
H183	H	-0.953305	-0.694883	-0.312581
H184	H	-0.801192	-0.661376	-0.345978
N185	N	-0.184236	-0.823165	-0.556210
N186	N	-0.154395	-0.853033	-0.531826
H187	H	-0.130260	-0.877180	-0.551514
N188	N	-0.150772	-0.856651	-0.697042
N189	N	-0.120918	-0.886526	-0.721439
H190	H	-0.096797	-0.910671	-0.701762
H191	H	-0.191051	-0.816298	-1.052919
H192	H	-0.345866	-0.661364	-0.801688
N193	N	-0.352816	-0.654425	-0.696969
N194	N	-0.352828	-0.654422	-0.648216
H195	H	-0.376956	-0.630282	-0.628511
