data_functionalizedCrystal
_audit_creation_method	'MofGen! by Chris Wilmer'
_symmetry_space_group_name_H-M	'P1'
_symmetry_Int_Tables_number	1
_symmetry_cell_setting	triclinic
loop_
_symmetry_equiv_pos_as_xyz
  x,y,z
_cell_length_a	25.639242
_cell_length_b	12.759400
_cell_length_c	25.639233
_cell_angle_alpha	89.986745
_cell_angle_beta	90.022166
_cell_angle_gamma	89.989788
loop_
_atom_site_label
_atom_site_type_symbol
_atom_site_fract_x
_atom_site_fract_y
_atom_site_fract_z
Zn1	Zn	0.799312	0.418519	0.295762
Zn2	Zn	0.799272	0.594182	0.208335
Zn3	Zn	0.711889	0.418504	0.208326
Zn4	Zn	0.711870	0.594143	0.295725
O5	O	0.755586	0.506337	0.252037
O6	O	0.872472	0.441844	0.284184
O7	O	0.787672	0.570888	0.135169
O8	O	0.723510	0.271485	0.219937
O9	O	0.872443	0.570903	0.219952
O10	O	0.787740	0.271496	0.284176
O11	O	0.723471	0.441818	0.135162
O12	O	0.638721	0.441780	0.219901
O13	O	0.723479	0.570836	0.368895
O14	O	0.638708	0.570822	0.284112
O15	O	0.787722	0.441806	0.368922
O16	O	0.787654	0.741198	0.219915
O17	O	0.723440	0.741169	0.284120
C18	C	0.755555	0.779305	0.252026
C19	C	0.755589	0.896081	0.252039
C20	C	0.619743	0.506296	0.252002
C21	C	0.561629	0.506303	0.251999
C22	C	0.755603	0.506319	0.388410
C23	C	0.755610	0.506311	0.446524
C24	C	0.201268	0.573641	0.285440
C25	C	0.146664	0.573648	0.285448
O26	O	0.118429	0.630849	0.313852
N27	N	0.119347	0.506366	0.252071
C28	C	0.146637	0.439066	0.218687
O29	O	0.118388	0.381838	0.190298
C30	C	0.201240	0.439055	0.218682
C31	C	0.228554	0.506349	0.252058
C32	C	0.228582	0.640929	0.318814
C33	C	0.283183	0.640923	0.318805
C34	C	0.310469	0.573631	0.285422
C35	C	0.283155	0.506344	0.252049
C36	C	0.228529	0.371751	0.185301
C37	C	0.283136	0.371745	0.185299
C38	C	0.310451	0.439039	0.218675
C39	C	0.365042	0.439046	0.218657
N40	N	0.392359	0.506327	0.252034
C41	C	0.365073	0.573620	0.285417
C42	C	0.031966	0.439093	0.218701
C43	C	-0.022636	0.439109	0.218704
C44	C	-0.022605	0.573689	0.285466
C45	C	0.031998	0.573678	0.285460
C46	C	0.059283	0.506375	0.252079
C47	C	0.479738	0.573604	0.285395
C48	C	0.534343	0.573596	0.285381
C49	C	0.534308	0.439012	0.218621
C50	C	0.479707	0.439024	0.218633
C51	C	0.452423	0.506323	0.252024
O52	O	0.393312	0.381870	0.190270
O53	O	0.393328	0.630829	0.313806
C54	C	0.891959	0.506380	0.252073
C55	C	0.950073	0.506398	0.252088
C56	C	0.755631	0.232304	0.252059
C57	C	0.755651	0.115527	0.252069
C58	C	0.789063	0.950923	0.218644
C59	C	0.789095	1.060647	0.218661
C60	C	0.722176	1.060678	0.285467
C61	C	0.722147	0.950956	0.285453
C62	C	0.822505	0.896049	0.185230
C63	C	0.855981	0.950891	0.151832
C64	C	0.856013	1.060615	0.151848
C65	C	0.822570	1.115497	0.185262
C66	C	0.755599	0.506280	0.116195
C67	C	0.755693	0.505992	0.058081
C68	C	0.789104	0.438925	0.806907
C69	C	0.789110	0.438896	0.861512
O70	O	0.817546	0.381727	0.889765
N71	N	0.755668	0.506065	0.888807
C72	C	0.722212	0.573259	0.861495
O73	O	0.693767	0.630387	0.889726
C74	C	0.722204	0.573282	0.806892
C75	C	0.755652	0.506117	0.779599
C76	C	0.822549	0.371765	0.779615
C77	C	0.822543	0.371796	0.725014
C78	C	0.789092	0.438987	0.697706
C79	C	0.755647	0.506147	0.724999
C80	C	0.688746	0.640470	0.779581
C81	C	0.688740	0.640487	0.724974
C82	C	0.722189	0.573321	0.697681
C83	C	0.722189	0.573369	0.643090
N84	N	0.755632	0.506201	0.615795
C85	C	0.789083	0.439010	0.643103
C86	C	0.722233	0.573204	0.976166
C87	C	0.722244	0.573187	1.030768
C88	C	0.789141	0.438823	1.030781
C89	C	0.789132	0.438846	0.976178
C90	C	0.755675	0.506036	0.948870
C91	C	0.789069	0.439080	0.528438
C92	C	0.789061	0.439120	0.473832
C93	C	0.722162	0.573480	0.473824
C94	C	0.722171	0.573444	0.528425
C95	C	0.755626	0.506236	0.555730
O96	O	0.693767	0.630507	0.614802
O97	O	0.817519	0.381881	0.614866
H98	H	0.556580	0.628398	0.312560
H99	H	0.457530	0.628403	0.312586
H100	H	0.694890	0.906303	0.312647
C101	C	-0.052627	0.647701	0.322191
H102	H	-0.089058	0.638056	0.317415
H103	H	-0.043690	0.718271	0.314483
H104	H	-0.043661	0.632416	0.357334
H105	H	0.849780	0.317101	0.702798
C106	C	0.822473	0.775357	0.185213
H107	H	0.847186	0.750528	0.160533
H108	H	0.788732	0.750594	0.176136
H109	H	0.831491	0.750490	0.218960
C110	C	-0.052676	0.365093	0.181987
H111	H	-0.028600	0.325013	0.162109
H112	H	-0.073992	0.405209	0.159173
H113	H	-0.073961	0.319370	0.202032
H114	H	0.661490	0.695191	0.702743
H115	H	0.816301	0.384425	0.451613
H116	H	0.849790	0.317044	0.801843
C117	C	0.198493	0.297704	0.148600
H118	H	0.162064	0.307334	0.153380
H119	H	0.207460	0.227147	0.156326
H120	H	0.207421	0.312956	0.113452
H121	H	0.694929	0.628188	0.451580
H122	H	0.822603	1.204842	0.185277
H123	H	0.816309	0.384349	0.550663
C124	C	0.685383	0.647330	0.558447
H125	H	0.665459	0.687348	0.534361
H126	H	0.705375	0.693099	0.579758
H127	H	0.662607	0.607113	0.579737
C128	C	0.313147	0.297709	0.148578
H129	H	0.289056	0.257642	0.128702
H130	H	0.334461	0.251991	0.168615
H131	H	0.334433	0.337828	0.125755
C132	C	0.061976	0.365067	0.181973
H133	H	0.037883	0.325010	0.162094
H134	H	0.083289	0.319340	0.202005
H135	H	0.083261	0.405191	0.159152
H136	H	0.694947	1.105371	0.312671
C137	C	0.198576	0.714959	0.355537
H138	H	0.222671	0.755028	0.375407
H139	H	0.177286	0.674853	0.378358
H140	H	0.177266	0.760690	0.335498
C141	C	0.313224	0.714962	0.355509
H142	H	0.349653	0.705342	0.350722
H143	H	0.304297	0.699713	0.390655
H144	H	0.304259	0.785525	0.347782
C145	C	0.825919	0.364954	0.946161
H146	H	0.845839	0.324933	0.970250
H147	H	0.848692	0.405149	0.924862
H148	H	0.805919	0.319172	0.924860
C149	C	0.825939	0.364916	1.060827
H150	H	0.821148	0.374522	1.097255
H151	H	0.861064	0.380308	1.051888
H152	H	0.818297	0.294320	1.051880
C153	C	0.685454	0.647076	1.060784
H154	H	0.665530	0.687088	1.036695
H155	H	0.705446	0.692851	1.082092
H156	H	0.662678	0.606863	1.082076
H157	H	0.694988	0.627924	0.953935
C158	C	0.062039	0.647692	0.322177
H159	H	0.037963	0.687762	0.342060
H160	H	0.083330	0.693407	0.302140
H161	H	0.083349	0.607559	0.344995
H162	H	0.457467	0.384230	0.191455
C163	C	0.564329	0.364991	0.181906
H164	H	0.600760	0.374623	0.186688
H165	H	0.555366	0.380250	0.146762
H166	H	0.555390	0.294422	0.189627
H167	H	0.883213	0.906201	0.124631
C168	C	0.892834	1.120939	0.115114
H169	H	0.912743	1.072540	0.095211
H170	H	0.915615	1.163689	0.135141
H171	H	0.872856	1.163792	0.092317
C172	C	0.651947	0.714343	0.809590
H173	H	0.632022	0.754346	0.785499
H174	H	0.671933	0.760128	0.830899
H175	H	0.629174	0.674124	0.830881
