data_functionalizedCrystal
_audit_creation_method	'MofGen! by Chris Wilmer'
_symmetry_space_group_name_H-M	'P1'
_symmetry_Int_Tables_number	1
_symmetry_cell_setting	triclinic
loop_
_symmetry_equiv_pos_as_xyz
  x,y,z
_cell_length_a	16.625548
_cell_length_b	21.295416
_cell_length_c	16.625539
_cell_angle_alpha	89.969100
_cell_angle_beta	90.020568
_cell_angle_gamma	89.968601
loop_
_atom_site_label
_atom_site_type_symbol
_atom_site_fract_x
_atom_site_fract_y
_atom_site_fract_z
Zn1	Zn	1.232636	0.250590	0.455895
Zn2	Zn	1.565970	0.583923	0.789228
Zn3	Zn	1.899303	0.917257	1.122561
Zn4	Zn	1.232521	0.355864	0.321056
Zn5	Zn	1.565854	0.689197	0.654389
Zn6	Zn	1.899188	1.022530	0.987723
Zn7	Zn	1.097798	0.250614	0.321075
Zn8	Zn	1.431132	0.583947	0.654409
Zn9	Zn	1.764465	0.917281	0.987742
Zn10	Zn	1.097750	0.355827	0.455846
Zn11	Zn	1.431083	0.689161	0.789179
Zn12	Zn	1.764417	1.022494	1.122512
O13	O	1.165176	0.303224	0.388468
O14	O	1.498510	0.636557	0.721801
O15	O	1.831843	0.969890	1.055135
O16	O	1.345453	0.264560	0.438021
O17	O	1.678787	0.597893	0.771354
O18	O	2.012120	0.931227	1.104687
O19	O	1.214622	0.341927	0.208226
O20	O	1.547955	0.675260	0.541559
O21	O	1.881288	1.008594	0.874893
O22	O	1.115753	0.162522	0.338988
O23	O	1.449086	0.495855	0.672321
O24	O	1.782420	0.829188	1.005655
O25	O	1.345369	0.341904	0.338955
O26	O	1.678702	0.675237	0.672288
O27	O	2.012035	1.008571	1.005622
O28	O	1.214818	0.162504	0.438039
O29	O	1.548152	0.495837	0.771373
O30	O	1.881485	0.829171	1.104706
O31	O	1.115641	0.264601	0.208240
O32	O	1.448975	0.597934	0.541574
O33	O	1.782308	0.931268	0.874907
O34	O	0.984959	0.264566	0.338941
O35	O	1.318293	0.597899	0.672274
O36	O	1.651626	0.931232	1.005607
O37	O	1.115671	0.341842	0.568685
O38	O	1.449005	0.675176	0.902018
O39	O	1.782338	1.008509	1.235351
O40	O	0.984924	0.341866	0.437956
O41	O	1.318257	0.675199	0.771289
O42	O	1.651591	1.008532	1.104622
O43	O	1.214772	0.264525	0.568721
O44	O	1.548105	0.597858	0.902054
O45	O	1.881438	0.931192	1.235387
O46	O	1.214575	0.443948	0.338907
O47	O	1.547908	0.777281	0.672241
O48	O	1.881242	1.110615	1.005574
O49	O	1.115559	0.443922	0.437937
O50	O	1.448893	0.777255	0.771270
O51	O	1.782226	1.110588	1.104604
C52	C	0.955686	0.303215	0.388445
C53	C	1.289019	0.636548	0.721779
C54	C	1.622352	0.969881	1.055112
C55	C	0.866065	0.303226	0.388455
C56	C	1.199398	0.636559	0.721788
C57	C	1.532731	0.969893	1.055122
C58	C	1.165071	0.466775	0.388432
C59	C	1.498405	0.800109	0.721766
C60	C	1.831738	1.133442	1.055099
C61	C	1.165100	0.536744	0.388444
C62	C	1.498434	0.870077	0.721777
C63	C	1.831767	1.203410	1.055111
C64	C	0.537889	0.303230	0.388489
C65	C	0.871222	0.636564	0.721823
C66	C	1.204556	0.969897	1.055156
C67	C	0.629197	0.303227	0.388477
C68	C	0.962531	0.636561	0.721811
C69	C	1.295864	0.969894	1.055144
C70	C	0.701974	0.303229	0.388471
C71	C	1.035307	0.636562	0.721805
C72	C	1.368640	0.969895	1.055138
C73	C	0.793288	0.303225	0.388461
C74	C	1.126621	0.636558	0.721794
C75	C	1.459955	0.969892	1.055127
C76	C	1.216704	0.569603	0.336934
C77	C	1.550037	0.902936	0.670267
C78	C	1.883370	1.236270	1.003601
C79	C	1.216742	0.635346	0.336956
C80	C	1.550075	0.968679	0.670289
C81	C	1.883408	1.302012	1.003622
C82	C	1.165162	0.668226	0.388479
C83	C	1.498495	1.001559	0.721812
C84	C	1.831829	1.334893	1.055146
C85	C	1.113555	0.635359	0.439999
C86	C	1.446888	0.968692	0.773333
C87	C	1.780222	1.302025	1.106666
C88	C	1.113524	0.569617	0.439982
C89	C	1.446857	0.902951	0.773315
C90	C	1.780191	1.236284	1.106648
N91	N	1.094627	0.771493	0.394624
N92	N	1.427961	1.104826	0.727957
N93	N	1.761294	1.438159	1.061291
N94	N	1.094659	0.833944	0.394636
N95	N	1.427992	1.167277	0.727969
N96	N	1.761326	1.500611	1.061303
C97	C	1.165253	0.866301	0.388536
C98	C	1.498586	1.199634	0.721870
C99	C	1.831920	1.532967	1.055203
N100	N	1.235816	0.833847	0.382408
N101	N	1.569149	1.167180	0.715742
N102	N	1.902483	1.500513	1.049075
N103	N	1.235783	0.771389	0.382392
N104	N	1.569117	1.104723	0.715726
N105	N	1.902450	1.438056	1.049059
C106	C	1.165190	0.739511	0.388504
C107	C	1.498523	1.072845	0.721838
C108	C	1.831857	1.406178	1.055171
C109	C	1.216902	0.970446	0.337047
C110	C	1.550235	1.303779	0.670380
C111	C	1.883569	1.637112	1.003714
C112	C	1.216941	1.036189	0.337075
C113	C	1.550275	1.369523	0.670408
C114	C	1.883608	1.702856	1.003741
C115	C	1.113748	1.036201	0.440114
C116	C	1.447081	1.369534	0.773447
C117	C	1.780414	1.702868	1.106780
C118	C	1.113715	0.970459	0.440091
C119	C	1.447049	1.303792	0.773424
C120	C	1.780382	1.637125	1.106757
C121	C	1.165291	0.937585	0.388553
C122	C	1.498625	1.270918	0.721886
C123	C	1.831958	1.604252	1.055220
C124	C	1.375485	0.303233	0.388491
C125	C	1.708819	0.636567	0.721824
C126	C	2.042152	0.969900	1.055158
C127	C	1.465106	0.303237	0.388501
C128	C	1.798440	0.636571	0.721834
C129	C	2.131773	0.969904	1.055168
C130	C	1.165229	0.303177	0.598777
C131	C	1.498562	0.636510	0.932110
C132	C	1.831896	0.969844	1.265444
C133	C	1.165251	0.303157	0.688398
C134	C	1.498585	0.636490	1.021731
C135	C	1.831918	0.969824	1.355065
C136	C	1.165305	1.139033	0.388535
C137	C	1.498638	1.472367	0.721869
C138	C	1.831972	1.805700	1.055202
C139	C	1.165362	1.069065	0.388599
C140	C	1.498695	1.402399	0.721933
C141	C	1.832029	1.735732	1.055266
C142	C	1.165171	0.303225	0.178977
C143	C	1.498504	0.636558	0.512310
C144	C	1.831837	0.969892	0.845644
C145	C	1.165305	0.303068	0.089356
C146	C	1.498638	0.636401	0.422690
C147	C	1.831971	0.969734	0.756023
C148	C	1.165288	0.303086	1.016574
C149	C	1.498622	0.636420	1.349907
C150	C	1.831955	0.969753	1.683241
C151	C	1.165276	0.303108	0.925265
C152	C	1.498609	0.636441	1.258599
C153	C	1.831943	0.969775	1.591932
C154	C	1.165270	0.303122	0.852489
C155	C	1.498604	0.636456	1.185822
C156	C	1.831937	0.969789	1.519156
C157	C	1.165257	0.303143	0.761175
C158	C	1.498590	0.636476	1.094508
C159	C	1.831924	0.969809	1.427841
H160	H	1.258702	0.542839	0.294971
H161	H	1.592035	0.876173	0.628305
H162	H	1.925369	1.209506	0.961638
H163	H	1.258968	1.062943	0.295131
H164	H	1.592301	1.396276	0.628464
H165	H	1.925635	1.729609	0.961797
O166	O	1.266894	0.667177	0.286837
O167	O	1.600227	1.000510	0.620171
O168	O	1.933561	1.333844	0.953504
C169	C	1.312425	0.624065	0.241362
C170	C	1.645758	0.957398	0.574696
C171	C	1.979091	1.290731	0.908029
H172	H	1.279383	0.577225	0.238531
H173	H	1.612716	0.910558	0.571864
H174	H	1.946050	1.243892	0.905198
H175	H	1.321060	0.643091	0.177846
H176	H	1.654394	0.976425	0.511180
H177	H	1.987727	1.309758	0.844513
H178	H	1.373647	0.617015	0.270936
H179	H	1.706980	0.950349	0.604269
H180	H	2.040314	1.283682	0.937602
O181	O	1.063338	0.667226	0.490009
O182	O	1.396671	1.000559	0.823342
O183	O	1.730004	1.333893	1.156676
C184	C	0.982977	0.651240	0.472300
C185	C	1.316310	0.984573	0.805633
C186	C	1.649643	1.317906	1.138966
H187	H	0.981300	0.603526	0.441290
H188	H	1.314634	0.936860	0.774624
H189	H	1.647967	1.270193	1.107957
H190	H	0.946791	0.648983	0.530459
H191	H	1.280124	0.982316	0.863793
H192	H	1.613457	1.315649	1.197126
H193	H	0.955857	0.688283	0.430831
H194	H	1.289191	1.021616	0.764164
H195	H	1.622524	1.354949	1.097497
O196	O	1.063671	1.068230	0.490091
O197	O	1.397004	1.401564	0.823425
O198	O	1.730338	1.734897	1.156758
C199	C	1.074781	1.133303	0.479081
C200	C	1.408114	1.466636	0.812415
C201	C	1.741447	1.799969	1.145748
H202	H	1.101224	1.142301	0.416882
H203	H	1.434557	1.475634	0.750215
H204	H	1.767891	1.808967	1.083548
H205	H	1.014395	1.158329	0.484507
H206	H	1.347729	1.491663	0.817840
H207	H	1.681062	1.824996	1.151174
H208	H	1.117705	1.151896	0.526951
H209	H	1.451038	1.485230	0.860284
H210	H	1.784372	1.818563	1.193617
H211	H	1.258901	0.943679	0.295085
H212	H	1.592234	1.277012	0.628418
H213	H	1.925568	1.610346	0.961751
O214	O	1.063431	0.537763	0.490130
O215	O	1.396764	0.871097	0.823463
O216	O	1.730097	1.204430	1.156796
C217	C	1.081029	0.553752	0.570514
C218	C	1.414363	0.887085	0.903848
C219	C	1.747696	1.220419	1.237181
H220	H	1.112048	0.601461	0.572231
H221	H	1.445381	0.934794	0.905564
H222	H	1.778714	1.268127	1.238897
H223	H	1.022819	0.556020	0.606617
H224	H	1.356152	0.889354	0.939951
H225	H	1.689486	1.222687	1.273284
H226	H	1.122451	0.516704	0.597696
H227	H	1.455784	0.850038	0.931030
H228	H	1.789118	1.183371	1.264363
O229	O	1.063503	0.938633	0.490146
O230	O	1.396836	1.271966	0.823479
O231	O	1.730170	1.605299	1.156812
C232	C	1.017998	0.981748	0.535641
C233	C	1.351331	1.315082	0.868975
C234	C	1.684664	1.648415	1.202308
H235	H	1.015249	1.028633	0.502627
H236	H	1.348582	1.361966	0.835960
H237	H	1.681916	1.695300	1.169294
H238	H	0.954455	0.962795	0.544175
H239	H	1.287788	1.296128	0.877509
H240	H	1.621122	1.629461	1.210842
H241	H	1.047491	0.988681	0.596910
H242	H	1.380824	1.322015	0.930243
H243	H	1.714157	1.655348	1.263576
