data_functionalizedCrystal
_audit_creation_method	'MofGen! by Chris Wilmer'
_symmetry_space_group_name_H-M	'P1'
_symmetry_Int_Tables_number	1
_symmetry_cell_setting	triclinic
loop_
_symmetry_equiv_pos_as_xyz
  x,y,z
_cell_length_a	18.050590
_cell_length_b	18.050589
_cell_length_c	12.759387
_cell_angle_alpha	90.029987
_cell_angle_beta	90.007221
_cell_angle_gamma	90.017386
loop_
_atom_site_label
_atom_site_type_symbol
_atom_site_fract_x
_atom_site_fract_y
_atom_site_fract_z
Zn1	Zn	1.135351	-0.295835	0.593638
Zn2	Zn	1.135244	-0.420044	0.417961
Zn3	Zn	1.011153	-0.295849	0.418016
Zn4	Zn	1.011118	-0.419964	0.593641
O5	O	1.073217	-0.357923	0.505814
O6	O	1.239261	-0.312339	0.570310
O7	O	1.118753	-0.403608	0.270947
O8	O	1.027687	-0.191922	0.441334
O9	O	1.239183	-0.403595	0.441241
O10	O	1.118935	-0.191912	0.570363
O11	O	1.027584	-0.312363	0.270988
O12	O	0.907224	-0.312285	0.441337
O13	O	1.027628	-0.403459	0.740662
O14	O	0.907198	-0.403473	0.570368
O15	O	1.118901	-0.312262	0.740660
O16	O	1.118720	-0.523958	0.441244
O17	O	1.027525	-0.523899	0.570315
C18	C	0.880264	-0.357872	0.505859
C19	C	0.797719	-0.357869	0.505904
C20	C	1.073127	-0.550875	0.505797
C21	C	1.073157	-0.633421	0.505824
C22	C	0.598276	-0.407598	0.575904
C23	C	0.548885	-0.339879	0.601751
C24	C	0.646588	-0.357910	0.505852
C25	C	0.548897	-0.425668	0.480005
C26	C	0.500603	-0.357956	0.505805
C27	C	0.598285	-0.290155	0.531749
C28	C	0.598301	-0.375989	0.409959
C29	C	0.548933	-0.308224	0.435769
C30	C	0.730687	-0.357884	0.505882
C31	C	0.416507	-0.357974	0.505775
C32	C	1.023613	-0.832867	0.575989
C33	C	1.005506	-0.882311	0.480126
C34	C	1.073229	-0.784551	0.505838
C35	C	1.091373	-0.882189	0.601712
C36	C	1.073299	-0.930536	0.505860
C37	C	1.055087	-0.832909	0.409925
C38	C	1.140985	-0.832781	0.531575
C39	C	1.122904	-0.882204	0.435646
C40	C	1.073188	-0.700453	0.505827
C41	C	1.073340	-1.014633	0.505860
C42	C	1.266922	-0.357975	0.505769
C43	C	1.349468	-0.357996	0.505750
C44	C	1.073273	-0.357850	0.779848
C45	C	1.073297	-0.357819	0.896625
C46	C	1.073327	-0.164217	0.505855
C47	C	1.073374	-0.081672	0.505872
C48	C	1.073203	-0.357942	0.232847
C49	C	1.073323	-0.357764	0.116070
C50	C	1.168346	-0.262862	0.896642
C51	C	1.215881	-0.215372	0.951512
C52	C	1.215899	-0.215345	1.061233
C53	C	1.168375	-0.262811	1.116088
C54	C	1.120840	-0.310301	1.061218
C55	C	1.120829	-0.310325	0.951494
C56	C	1.025788	-0.405254	1.061201
C57	C	1.025773	-0.405286	0.951479
C58	C	0.978265	-0.452720	1.116055
C59	C	0.930732	-0.500215	1.061186
C60	C	0.930717	-0.500240	0.951457
C61	C	0.978238	-0.452775	0.896609
H62	H	0.619943	-0.449544	0.635211
N63	N	0.879435	-0.551458	0.892291
H64	H	0.890930	-0.604520	0.911374
H65	H	0.886651	-0.544215	0.814476
H66	H	1.039702	-0.811351	0.328832
N67	N	0.520401	-0.252535	0.357271
H68	H	0.539175	-0.265716	0.285067
H69	H	0.538469	-0.201437	0.376999
N70	N	0.627069	-0.396252	0.302593
H71	H	0.658655	-0.442281	0.307777
H72	H	0.657822	-0.354064	0.274133
N73	N	0.879465	-0.551390	1.120346
H74	H	0.886682	-0.544159	1.198180
H75	H	0.890976	-0.604444	1.101169
N76	N	1.168330	-0.262868	0.778300
H77	H	1.117390	-0.249197	0.751889
H78	H	1.181972	-0.313830	0.751913
N79	N	0.520122	-0.319641	0.709135
H80	H	0.563224	-0.310909	0.758094
H81	H	0.488528	-0.361420	0.736952
H82	H	0.527200	-0.482949	0.458166
N83	N	1.168397	-0.262768	1.234430
H84	H	1.182019	-0.313708	1.260858
H85	H	1.117454	-0.249058	1.260782
N86	N	0.967961	-0.804167	0.654464
H87	H	0.916817	-0.822187	0.634889
H88	H	0.968724	-0.748221	0.654343
N89	N	0.929648	-0.911123	0.451279
H90	H	0.892176	-0.893179	0.504299
H91	H	0.930421	-0.967068	0.450811
H92	H	1.164892	-0.903730	0.376263
N93	N	1.216825	-0.803941	0.560435
H94	H	1.230461	-0.821833	0.632900
H95	H	1.216297	-0.747997	0.559473
N96	N	0.978210	-0.452810	0.778268
H97	H	1.029139	-0.466487	0.751818
H98	H	0.964556	-0.401855	0.751939
N99	N	1.111667	-0.910871	0.709092
H100	H	1.074125	-0.892924	0.762011
H101	H	1.162468	-0.892075	0.728978
N102	N	1.267155	-0.164196	0.892350
H103	H	1.259942	-0.171425	0.814515
H104	H	1.320181	-0.175793	0.911538
H105	H	1.254602	-0.176670	1.105908
H106	H	0.619888	-0.232856	0.553682
N107	N	0.978266	-0.452679	1.234397
H108	H	1.015587	-0.415390	1.260836
H109	H	0.991858	-0.503646	1.260743
