data_functionalizedCrystal
_audit_creation_method	'MofGen! by Chris Wilmer'
_symmetry_space_group_name_H-M	'P1'
_symmetry_Int_Tables_number	1
_symmetry_cell_setting	triclinic
loop_
_symmetry_equiv_pos_as_xyz
  x,y,z
_cell_length_a	19.077105
_cell_length_b	16.959454
_cell_length_c	19.076919
_cell_angle_alpha	87.724511
_cell_angle_beta	89.923776
_cell_angle_gamma	87.716588
loop_
_atom_site_label
_atom_site_type_symbol
_atom_site_fract_x
_atom_site_fract_y
_atom_site_fract_z
Zn1	Zn	1.058295	-0.382399	0.440440
Zn2	Zn	1.558295	0.117601	0.940440
Zn3	Zn	1.062944	-0.509490	0.322940
Zn4	Zn	1.562944	-0.009490	0.822940
Zn5	Zn	0.945513	-0.371810	0.318233
Zn6	Zn	1.445513	0.128190	0.818233
Zn7	Zn	0.940765	-0.509013	0.435693
Zn8	Zn	1.440765	-0.009013	0.935693
O9	O	1.001879	-0.443178	0.379326
O10	O	1.501879	0.056822	0.879326
O11	O	1.157244	-0.403889	0.428810
O12	O	1.657244	0.096111	0.928810
O13	O	1.051298	-0.486995	0.223984
O14	O	1.551298	0.013005	0.723984
O15	O	0.960515	-0.262606	0.334460
O16	O	1.460515	0.237394	0.834460
O17	O	1.160659	-0.497262	0.342484
O18	O	1.660659	0.002738	0.842484
O19	O	1.043376	-0.270386	0.424245
O20	O	1.543376	0.229614	0.924245
O21	O	0.965022	-0.385842	0.220526
O22	O	1.465022	0.114158	0.720526
O23	O	0.846551	-0.385379	0.329857
O24	O	1.346551	0.114621	0.829857
O25	O	0.952424	-0.496450	0.534654
O26	O	1.452424	0.003550	1.034654
O27	O	0.843063	-0.486182	0.416155
O28	O	1.343063	0.013818	0.916155
O29	O	1.038773	-0.403426	0.538142
O30	O	1.538773	0.096574	1.038142
O31	O	1.046695	-0.620035	0.337881
O32	O	1.546695	-0.120035	0.837881
O33	O	0.956931	-0.619685	0.420720
O34	O	1.456931	-0.119685	0.920720
C35	C	0.819311	-0.434581	0.371980
C36	C	1.319311	0.065419	0.871980
C37	C	0.741206	-0.430922	0.368854
C38	C	1.241206	0.069078	0.868854
C39	C	0.702718	-0.481759	0.412246
C40	C	1.202718	0.018241	0.912246
C41	C	0.629330	-0.478312	0.409312
C42	C	1.129330	0.021688	0.909312
C43	C	0.594433	-0.424030	0.362983
C44	C	1.094433	0.075970	0.862983
C45	C	0.632926	-0.373188	0.319590
C46	C	1.132926	0.126812	0.819590
C47	C	0.706312	-0.376632	0.322528
C48	C	1.206312	0.123368	0.822528
C49	C	0.375144	-0.408090	0.349389
C50	C	0.875144	0.091910	0.849389
C51	C	0.301753	-0.404651	0.346453
C52	C	0.801753	0.095349	0.846453
C53	C	0.298162	-0.509774	0.436177
C54	C	0.798162	-0.009774	0.936177
C55	C	0.371550	-0.513217	0.439107
C56	C	0.871550	-0.013217	0.939107
C57	C	0.410037	-0.462372	0.395717
C58	C	0.910037	0.037628	0.895717
N59	N	0.519419	-0.420507	0.359981
N60	N	1.019419	0.079493	0.859981
N61	N	0.485049	-0.465892	0.398723
N62	N	0.985049	0.034108	0.898723
C63	C	1.001821	-0.648541	0.379312
C64	C	1.501821	-0.148541	0.879312
C65	C	1.001859	-0.736400	0.379332
C66	C	1.501859	-0.236400	0.879332
C67	C	0.955205	-1.107727	0.422458
C68	C	1.455205	-0.607727	0.922458
C69	C	1.048747	-1.108038	0.336274
C70	C	1.548747	-0.608038	0.836274
C71	C	1.048723	-1.025491	0.336266
C72	C	1.548723	-0.525491	0.836266
C73	C	1.001938	-0.984058	0.379355
C74	C	1.501938	-0.484058	0.879355
C75	C	0.955178	-1.025172	0.422451
C76	C	1.455178	-0.525172	0.922451
C77	C	1.095477	-0.984370	0.293166
C78	C	1.595477	-0.484370	0.793166
C79	C	1.095454	-0.901818	0.293156
C80	C	1.595454	-0.401818	0.793156
C81	C	1.048672	-0.860383	0.336249
C82	C	1.548672	-0.360383	0.836249
C83	C	1.001911	-0.901503	0.379347
C84	C	1.501911	-0.401503	0.879347
C85	C	0.955126	-0.860069	0.422436
C86	C	1.455126	-0.360069	0.922436
C87	C	0.908367	-0.901187	0.465538
C88	C	1.408367	-0.401187	0.965538
C89	C	0.908396	-0.983737	0.465543
C90	C	1.408396	-0.483737	0.965543
C91	C	1.048644	-0.777834	0.336244
C92	C	1.548644	-0.277834	0.836244
C93	C	0.955099	-0.777514	0.422428
C94	C	1.455099	-0.277514	0.922428
C95	C	1.185161	-0.451810	0.386702
C96	C	1.685161	0.048190	0.886702
C97	C	1.263265	-0.455488	0.389844
C98	C	1.763265	0.044512	0.889844
C99	C	0.994550	-0.451066	0.562607
C100	C	1.494550	0.048934	1.062607
C101	C	0.991427	-0.454427	0.640710
C102	C	1.491427	0.045573	1.140710
C103	C	1.001956	-0.237015	0.379357
C104	C	1.501956	0.262985	0.879357
C105	C	1.001989	-0.149160	0.379370
C106	C	1.501989	0.350840	0.879370
C107	C	1.009220	-0.435266	0.196760
C108	C	1.509220	0.064734	0.696760
C109	C	1.012479	-0.431688	0.118663
C110	C	1.512479	0.068312	0.618663
C111	C	1.034915	-0.407577	0.679220
C112	C	1.534915	0.092423	1.179220
C113	C	1.031972	-0.410731	0.752606
C114	C	1.531972	0.089269	1.252606
C115	C	0.985544	-0.460742	0.787481
C116	C	1.485544	0.039258	1.287481
C117	C	0.942052	-0.507595	0.748966
C118	C	1.442052	-0.007595	1.248966
C119	C	0.944992	-0.504435	0.675581
C120	C	1.444992	-0.004435	1.175581
C121	C	0.971927	-0.475381	1.006763
C122	C	1.471927	0.024619	1.506763
C123	C	0.968992	-0.478539	1.080153
C124	C	1.468992	0.021461	1.580153
C125	C	1.058911	-0.381674	1.083788
C126	C	1.558911	0.118326	1.583788
C127	C	1.061850	-0.378523	1.010402
C128	C	1.561850	0.121477	1.510402
C129	C	1.018355	-0.425372	0.971893
C130	C	1.518355	0.074628	1.471893
N131	N	0.982536	-0.463970	0.862493
N132	N	1.482536	0.036030	1.362493
N133	N	1.021360	-0.422140	0.896882
N134	N	1.521360	0.077860	1.396882
H135	H	0.273341	-0.360439	0.308731
H136	H	0.773341	0.139561	0.808731
H137	H	1.094322	-0.343531	1.115150
H138	H	1.594322	0.156469	1.615150
C139	C	1.136952	-0.775417	0.254874
C140	C	1.636952	-0.275417	0.754874
C141	C	1.146852	-0.856624	0.245783
C142	C	1.646852	-0.356624	0.745783
H143	H	1.168681	-0.747517	0.225625
H144	H	1.668681	-0.247517	0.725625
H145	H	1.145307	-0.764388	0.302501
H146	H	1.645307	-0.264388	0.802501
H147	H	1.090154	-0.759271	0.242650
H148	H	1.590154	-0.259271	0.742650
H149	H	1.193649	-0.872771	0.258012
H150	H	1.693649	-0.372771	0.758012
H151	H	1.138502	-0.867659	0.198145
H152	H	1.638502	-0.367659	0.698145
H153	H	0.936521	-0.513541	0.975418
H154	H	1.436521	-0.013541	1.475418
H155	H	0.406472	-0.366694	0.314052
H156	H	0.906472	0.133306	0.814052
H157	H	0.266818	-0.551169	0.471504
H158	H	0.766818	-0.051169	0.971504
H159	H	0.604506	-0.328988	0.281870
H160	H	1.104506	0.171012	0.781870
C161	C	1.065355	-0.279476	0.776581
C162	C	1.565355	0.220524	1.276581
C163	C	1.079779	-0.359229	0.794929
C164	C	1.579779	0.140771	1.294929
H165	H	1.094875	-0.247679	0.802705
H166	H	1.594875	0.252321	1.302705
H167	H	1.017672	-0.266205	0.786712
H168	H	1.517672	0.233795	1.286712
H169	H	1.073749	-0.270457	0.727882
H170	H	1.573749	0.229543	1.227882
H171	H	1.071381	-0.368250	0.843627
H172	H	1.571381	0.131750	1.343627
H173	H	1.127473	-0.372505	0.784803
H174	H	1.627473	0.127495	1.284803
C175	C	0.702495	-0.272389	0.233534
C176	C	1.202495	0.227611	0.733534
C177	C	0.748621	-0.320757	0.274824
C178	C	1.248621	0.179243	0.774824
H179	H	0.728616	-0.237897	0.204082
H180	H	1.228616	0.262103	0.704082
H181	H	0.672663	-0.242183	0.263049
H182	H	1.172663	0.257817	0.763049
H183	H	0.674931	-0.304288	0.205461
H184	H	1.174931	0.195712	0.705461
H185	H	0.776182	-0.288859	0.302901
H186	H	1.276182	0.211141	0.802901
H187	H	0.778466	-0.350966	0.245306
H188	H	1.278466	0.149034	0.745306
C189	C	1.106236	-0.330618	0.899522
C190	C	1.606236	0.169382	1.399522
C191	C	1.112852	-0.323511	0.972068
C192	C	1.612852	0.176489	1.472068
H193	H	1.137718	-0.296649	0.875858
H194	H	1.637718	0.203351	1.375858
H195	H	1.059503	-0.316341	0.885615
H196	H	1.559503	0.183659	1.385615
H197	H	1.117013	-0.383684	0.887895
H198	H	1.617013	0.116316	1.387895
H199	H	1.102070	-0.270446	0.983696
H200	H	1.602070	0.229554	1.483696
H201	H	1.159595	-0.337783	0.985980
H202	H	1.659595	0.162217	1.485980
H203	H	0.931183	-0.519265	1.108546
H204	H	1.431183	-0.019265	1.608546
H205	H	0.399959	-0.557420	0.476832
H206	H	0.899959	-0.057420	0.976832
H207	H	0.904247	-0.548311	0.777367
H208	H	1.404247	-0.048311	1.277367
C209	C	0.862640	-0.785499	0.507624
C210	C	1.362640	-0.285499	1.007624
C211	C	0.903671	-0.731974	0.469794
C212	C	1.403671	-0.231974	0.969794
H213	H	0.830889	-0.757383	0.536862
H214	H	1.330889	-0.257383	1.036862
H215	H	0.892171	-0.820257	0.535759
H216	H	1.392171	-0.320257	1.035759
H217	H	0.837022	-0.815150	0.475904
H218	H	1.337022	-0.315150	0.975904
H219	H	0.929292	-0.702328	0.501515
H220	H	1.429292	-0.202328	1.001515
H221	H	0.874136	-0.697203	0.441657
H222	H	1.374136	-0.197203	0.941657
H223	H	0.909572	-0.542578	0.644227
H224	H	1.409572	-0.042578	1.144227
C225	C	0.894803	-1.080171	0.559659
C226	C	1.394803	-0.580171	1.059659
C227	C	0.856998	-1.028938	0.512911
C228	C	1.356998	-0.528938	1.012911
H229	H	0.863070	-1.108082	0.588896
H230	H	1.363070	-0.608082	1.088896
H231	H	0.924301	-1.050534	0.587794
H232	H	1.424301	-0.550534	1.087794
H233	H	0.922669	-1.116653	0.533988
H234	H	1.422669	-0.616653	1.033988
H235	H	0.829135	-0.992453	0.538582
H236	H	1.329135	-0.492453	1.038582
H237	H	0.827488	-1.058578	0.484773
H238	H	1.327488	-0.558578	0.984773
C239	C	0.691789	-0.585314	0.500644
C240	C	1.191789	-0.085314	1.000644
C241	C	0.741074	-0.541426	0.463175
C242	C	1.241074	-0.041426	0.963175
H243	H	0.715469	-0.622145	0.532091
H244	H	1.215469	-0.122145	1.032091
H245	H	0.664381	-0.612833	0.468838
H246	H	1.164381	-0.112833	0.968838
H247	H	0.662102	-0.550728	0.526425
H248	H	1.162102	-0.050728	1.026425
H249	H	0.770758	-0.576012	0.437390
H250	H	1.270758	-0.076012	0.937390
H251	H	0.768494	-0.513905	0.494986
H252	H	1.268494	-0.013905	0.994986
C253	C	0.941617	-1.204145	0.516586
C254	C	1.441617	-0.704145	1.016586
C255	C	0.903809	-1.152921	0.469833
C256	C	1.403809	-0.652921	0.969833
H257	H	0.909886	-1.232049	0.545830
H258	H	1.409886	-0.732049	1.045830
H259	H	0.971117	-1.174502	0.544714
H260	H	1.471117	-0.674502	1.044714
H261	H	0.969481	-1.240633	0.490920
H262	H	1.469481	-0.740633	0.990920
H263	H	0.875948	-1.116430	0.495500
H264	H	1.375948	-0.616430	0.995500
H265	H	0.874297	-1.182567	0.441702
H266	H	1.374297	-0.682567	0.941702
H267	H	0.597996	-0.519710	0.444645
H268	H	1.097996	-0.019710	0.944645
H269	H	0.870272	-0.867443	0.500618
H270	H	1.370272	-0.367443	1.000618
H271	H	1.086833	-1.141778	0.301189
H272	H	1.586833	-0.641778	0.801189
C273	C	1.136951	-1.111044	0.254811
C274	C	1.636951	-0.611044	0.754811
C275	C	1.146830	-1.029907	0.245730
C276	C	1.646830	-0.529907	0.745730
H277	H	1.168639	-1.139156	0.225505
H278	H	1.668639	-0.639156	0.725505
H279	H	1.090142	-1.121906	0.242660
H280	H	1.590142	-0.621906	0.742660
H281	H	1.145386	-1.127098	0.302427
H282	H	1.645386	-0.627098	0.802427
H283	H	1.138391	-1.013852	0.198115
H284	H	1.638391	-0.513852	0.698115
H285	H	1.193651	-1.019040	0.257877
H286	H	1.693651	-0.519040	0.757877
H287	H	1.086711	-0.744359	0.301147
H288	H	1.586711	-0.244359	0.801147
H289	H	1.072724	-0.366855	0.650831
H290	H	1.572724	0.133145	1.150831
