data_functionalizedCrystal
_audit_creation_method	'MofGen! by Chris Wilmer'
_symmetry_space_group_name_H-M	'P1'
_symmetry_Int_Tables_number	1
_symmetry_cell_setting	triclinic
loop_
_symmetry_equiv_pos_as_xyz
  x,y,z
_cell_length_a	12.759400
_cell_length_b	12.759401
_cell_length_c	12.759393
_cell_angle_alpha	90.019003
_cell_angle_beta	89.968231
_cell_angle_gamma	89.989346
loop_
_atom_site_label
_atom_site_type_symbol
_atom_site_fract_x
_atom_site_fract_y
_atom_site_fract_z
Zn1	Zn	-0.418315	-1.606244	-0.594027
Zn2	Zn	-0.594035	-1.606142	-0.418347
Zn3	Zn	-0.418358	-1.430549	-0.418361
Zn4	Zn	-0.593940	-1.430535	-0.593983
O5	O	-0.506162	-1.518367	-0.506180
O6	O	-0.441646	-1.753251	-0.570735
O7	O	-0.570788	-1.582812	-0.271328
O8	O	-0.271331	-1.453905	-0.441688
O9	O	-0.570747	-1.753176	-0.441663
O10	O	-0.271300	-1.582987	-0.570749
O11	O	-0.441719	-1.453805	-0.271338
O12	O	-0.441628	-1.283526	-0.441646
O13	O	-0.570586	-1.453879	-0.741010
O14	O	-0.570627	-1.283516	-0.570675
O15	O	-0.441555	-1.582972	-0.741042
O16	O	-0.741043	-1.582798	-0.441621
O17	O	-0.740974	-1.453780	-0.570661
C18	C	-0.506123	-1.245400	-0.506158
C19	C	-0.506131	-1.128623	-0.506173
C20	C	-0.439033	-1.073794	-0.573483
C21	C	-0.439047	-0.964069	-0.573487
C22	C	-0.573267	-0.964015	-0.438867
C23	C	-0.573247	-1.073737	-0.438859
C24	C	-0.361544	-1.073824	-0.651208
C25	C	-0.361559	-0.964100	-0.651212
C26	C	-0.779129	-1.518305	-0.506158
C27	C	-0.895906	-1.518374	-0.506183
C28	C	-0.950769	-1.585629	-0.439067
C29	C	-1.060493	-1.585693	-0.439099
C30	C	-1.060481	-1.451240	-0.573368
C31	C	-0.950759	-1.451182	-0.573340
C32	C	-0.950777	-1.663251	-0.361545
C33	C	-1.060501	-1.663315	-0.361577
C34	C	-0.232129	-1.518459	-0.506225
C35	C	-0.115352	-1.518497	-0.506244
C36	C	-0.506055	-1.518436	-0.780213
C37	C	-0.506009	-1.518465	-0.896990
C38	C	-0.506189	-0.792401	-0.506195
C39	C	-0.506166	-0.909177	-0.506185
C40	C	-0.438791	-1.451319	-0.951863
C41	C	-0.438760	-1.451351	-1.061587
C42	C	-0.573168	-1.585683	-1.061555
C43	C	-0.573204	-1.585645	-0.951833
C44	C	-0.361188	-1.373767	-0.951883
C45	C	-0.361156	-1.373799	-1.061607
C46	C	-0.506193	-1.518360	-0.233212
C47	C	-0.505942	-1.518534	-0.116436
H48	H	-0.627911	-0.919313	-0.384063
H49	H	-0.920925	-1.744594	-0.383399
O50	O	-0.395870	-1.281503	-1.102034
C51	C	-0.461280	-1.108092	-1.065603
C52	C	-0.421962	-1.212547	-1.019678
H53	H	-0.482407	-1.052320	-0.999040
H54	H	-0.397064	-1.071563	-1.115870
H55	H	-0.533551	-1.123095	-1.115910
H56	H	-0.349710	-1.197633	-0.969324
H57	H	-0.486241	-1.249043	-0.969470
H58	H	-0.284229	-0.930059	-0.622211
H59	H	-0.283911	-1.402931	-0.917868
H60	H	-0.627875	-1.118375	-0.384039
O61	O	-1.096312	-1.637445	-0.264544
C62	C	-1.247230	-1.608118	-0.154762
C63	C	-1.206817	-1.637450	-0.264687
H64	H	-1.336577	-1.608091	-0.154847
H65	H	-1.217535	-1.667703	-0.095202
H66	H	-1.217483	-1.526764	-0.132875
H67	H	-1.236548	-1.718780	-0.286673
H68	H	-1.236502	-1.577798	-0.324184
O69	O	-0.910440	-1.628534	-0.269213
C70	C	-0.947041	-1.563210	-0.095792
C71	C	-0.992863	-1.602531	-0.200293
H72	H	-1.013657	-1.542155	-0.040050
H73	H	-0.896775	-1.627397	-0.059264
H74	H	-0.896753	-1.490894	-0.110731
H75	H	-1.043198	-1.674828	-0.185443
H76	H	-1.043069	-1.538280	-0.236789
O77	O	-0.264033	-1.399910	-1.096989
C78	C	-0.087069	-1.447317	-1.051218
C79	C	-0.197010	-1.417783	-1.011007
H80	H	-0.032844	-1.461754	-0.981722
H81	H	-0.092311	-1.521463	-1.100818
H82	H	-0.054641	-1.380517	-1.100897
H83	H	-0.229502	-1.484515	-0.961285
H84	H	-0.191702	-1.343605	-0.961464
H85	H	-0.280143	-1.103591	-0.629555
H86	H	-0.627875	-1.640379	-1.106221
H87	H	-0.390778	-1.107888	-0.728447
O88	O	-0.638538	-1.650965	-0.898690
C89	C	-0.771900	-1.784156	-0.910242
C90	C	-0.697944	-1.710249	-0.970555
H91	H	-0.819965	-1.832091	-0.968318
H92	H	-0.723745	-1.839166	-0.858913
H93	H	-0.826795	-1.735863	-0.858831
H94	H	-0.643034	-1.758457	-1.022023
H95	H	-0.746164	-1.655236	-1.021818
H96	H	-0.383452	-0.934353	-0.732547
H97	H	-0.906090	-1.396428	-0.628001
O98	O	-1.113930	-1.386004	-0.638498
C99	C	-1.282957	-1.326557	-0.698100
C100	C	-1.222561	-1.400475	-0.624270
H101	H	-1.370795	-1.338247	-0.686638
H102	H	-1.261542	-1.241815	-0.679571
H103	H	-1.261234	-1.344939	-0.782814
H104	H	-1.244251	-1.382188	-0.539531
H105	H	-1.243980	-1.485195	-0.642890
H106	H	-1.094451	-1.740619	-0.390791
H107	H	-0.382971	-1.292378	-0.922103
