data_functionalizedCrystal
_audit_creation_method	'MofGen! by Chris Wilmer'
_symmetry_space_group_name_H-M	'P1'
_symmetry_Int_Tables_number	1
_symmetry_cell_setting	triclinic
loop_
_symmetry_equiv_pos_as_xyz
  x,y,z
_cell_length_a	21.395362
_cell_length_b	16.625546
_cell_length_c	21.395356
_cell_angle_alpha	90.025578
_cell_angle_beta	90.035770
_cell_angle_gamma	90.038346
loop_
_atom_site_label
_atom_site_type_symbol
_atom_site_fract_x
_atom_site_fract_y
_atom_site_fract_z
Zn1	Zn	0.957845	-0.320697	0.354586
Zn2	Zn	1.291178	0.012637	0.687919
Zn3	Zn	1.624511	0.345970	1.021252
Zn4	Zn	0.957777	-0.455529	0.249808
Zn5	Zn	1.291111	-0.122195	0.583142
Zn6	Zn	1.624444	0.211138	0.916475
Zn7	Zn	0.853075	-0.320751	0.249787
Zn8	Zn	1.186408	0.012582	0.583120
Zn9	Zn	1.519741	0.345916	0.916454
Zn10	Zn	0.853044	-0.455528	0.354513
Zn11	Zn	1.186377	-0.122195	0.687846
Zn12	Zn	1.519711	0.211138	1.021180
O13	O	0.905435	-0.388126	0.302174
O14	O	1.238769	-0.054793	0.635507
O15	O	1.572102	0.278540	0.968840
O16	O	1.045514	-0.338560	0.340726
O17	O	1.378847	-0.005226	0.674060
O18	O	1.712180	0.328107	1.007393
O19	O	0.943873	-0.437673	0.162128
O20	O	1.277206	-0.104339	0.495461
O21	O	1.610540	0.228994	0.828794
O22	O	0.867014	-0.207911	0.263710
O23	O	1.200347	0.125422	0.597044
O24	O	1.533680	0.458755	0.930377
O25	O	1.045464	-0.437620	0.263747
O26	O	1.378797	-0.104287	0.597080
O27	O	1.712131	0.229046	0.930413
O28	O	0.943988	-0.207872	0.340705
O29	O	1.277321	0.125462	0.674039
O30	O	1.610655	0.458795	1.007372
O31	O	0.866948	-0.338652	0.162112
O32	O	1.200282	-0.005319	0.495445
O33	O	1.533615	0.328014	0.828779
O34	O	0.765393	-0.338652	0.263640
O35	O	1.098726	-0.005319	0.596973
O36	O	1.432059	0.328014	0.930307
O37	O	0.866961	-0.437620	0.442201
O38	O	1.200295	-0.104287	0.775534
O39	O	1.533628	0.229047	1.108867
O40	O	0.765370	-0.437673	0.340582
O41	O	1.098704	-0.104339	0.673915
O42	O	1.432037	0.228994	1.007248
O43	O	0.943958	-0.338560	0.442254
O44	O	1.277292	-0.005226	0.775587
O45	O	1.610625	0.328107	1.108921
O46	O	0.943843	-0.568361	0.263676
O47	O	1.277176	-0.235028	0.597010
O48	O	1.610510	0.098306	0.930343
O49	O	0.866896	-0.568361	0.340602
O50	O	1.200229	-0.235028	0.673936
O51	O	1.533563	0.098306	1.007269
C52	C	0.742648	-0.388169	0.302101
C53	C	1.075981	-0.054836	0.635434
C54	C	1.409314	0.278498	0.968768
C55	C	0.673006	-0.388207	0.302085
C56	C	1.006340	-0.054873	0.635418
C57	C	1.339673	0.278460	0.968751
C58	C	0.905376	-0.597617	0.302147
C59	C	1.238709	-0.264284	0.635481
C60	C	1.572043	0.069050	0.968814
C61	C	0.905408	-0.687238	0.302157
C62	C	1.238741	-0.353905	0.635490
C63	C	1.572075	-0.020572	0.968824
C64	C	0.640298	-0.439835	0.342088
C65	C	0.973631	-0.106501	0.675422
C66	C	1.306964	0.226832	1.008755
C67	C	0.574862	-0.439815	0.342116
C68	C	0.908196	-0.106482	0.675449
C69	C	1.241529	0.226852	1.008783
C70	C	0.542138	-0.388175	0.302129
C71	C	0.875471	-0.054842	0.635463
C72	C	1.208805	0.278491	0.968796
C73	C	0.574854	-0.336537	0.262123
C74	C	0.908188	-0.003204	0.595456
C75	C	1.241521	0.330130	0.928790
C76	C	0.640288	-0.336553	0.262101
C77	C	0.973622	-0.003219	0.595434
C78	C	1.306955	0.330114	0.928767
C79	C	0.438421	-0.381689	0.245724
C80	C	0.771754	-0.048356	0.579057
C81	C	1.105087	0.284978	0.912391
C82	C	0.372988	-0.381679	0.245745
C83	C	0.706321	-0.048346	0.579079
C84	C	1.039654	0.284988	0.912412
C85	C	0.340317	-0.388123	0.302198
C86	C	0.673651	-0.054790	0.635532
C87	C	1.006984	0.278544	0.968865
C88	C	0.373088	-0.394593	0.358632
C89	C	0.706421	-0.061260	0.691965
C90	C	1.039755	0.272073	1.025299
C91	C	0.438522	-0.394609	0.358610
C92	C	0.771855	-0.061276	0.691943
C93	C	1.105189	0.272058	1.025276
C94	C	0.471186	-0.388152	0.302149
C95	C	0.804519	-0.054819	0.635483
C96	C	1.137852	0.278514	0.968816
C97	C	0.236656	-0.439732	0.342236
C98	C	0.569990	-0.106399	0.675569
C99	C	0.903323	0.226934	1.008902
C100	C	0.171220	-0.439707	0.342265
C101	C	0.504553	-0.106374	0.675598
C102	C	0.837886	0.226960	1.008931
C103	C	0.171213	-0.336433	0.262266
C104	C	0.504546	-0.003100	0.595599
C105	C	0.837880	0.330233	0.928933
C106	C	0.236648	-0.336455	0.262242
C107	C	0.569982	-0.003121	0.595576
C108	C	0.903315	0.330212	0.928909
C109	C	0.269366	-0.388108	0.302227
C110	C	0.602699	-0.054775	0.635560
C111	C	0.936033	0.278558	0.968893
C112	C	0.905517	-1.015414	0.302222
C113	C	1.238850	-0.682080	0.635556
C114	C	1.572184	-0.348747	0.968889
C115	C	0.905485	-0.924105	0.302206
C116	C	1.238818	-0.590772	0.635539
C117	C	1.572151	-0.257439	0.968873
C118	C	0.905462	-0.851329	0.302189
C119	C	1.238795	-0.517996	0.635523
C120	C	1.572129	-0.184662	0.968856
C121	C	0.905431	-0.760015	0.302174
C122	C	1.238764	-0.426681	0.635507
C123	C	1.572097	-0.093348	0.968840
C124	C	1.068859	-0.388084	0.302247
C125	C	1.402192	-0.054751	0.635580
C126	C	1.735525	0.278583	0.968914
C127	C	1.138500	-0.388066	0.302278
C128	C	1.471833	-0.054733	0.635611
C129	C	1.805166	0.278601	0.968945
C130	C	0.905464	-0.388084	0.465597
C131	C	1.238797	-0.054750	0.798930
C132	C	1.572131	0.278583	1.132264
C133	C	0.905476	-0.388066	0.535238
C134	C	1.238810	-0.054732	0.868572
C135	C	1.572143	0.278601	1.201905
C136	C	0.905512	-0.177817	0.302214
C137	C	1.238845	0.155516	0.635547
C138	C	1.572178	0.488849	0.968880
C139	C	0.905544	-0.088196	0.302231
C140	C	1.238878	0.245137	0.635564
C141	C	1.572211	0.578471	0.968897
C142	C	0.905443	-0.388110	0.139386
C143	C	1.238776	-0.054777	0.472719
C144	C	1.572109	0.278556	0.806053
C145	C	0.905552	-0.387901	0.069745
C146	C	1.238885	-0.054568	0.403078
C147	C	1.572218	0.278766	0.736412
C148	C	0.945601	-0.439457	1.037043
C149	C	1.278934	-0.106123	1.370377
C150	C	1.612268	0.227210	1.703710
C151	C	0.945590	-0.439482	0.971608
C152	C	1.278923	-0.106149	1.304941
C153	C	1.612257	0.227184	1.638275
C154	C	0.905536	-0.387938	0.938877
C155	C	1.238869	-0.054605	1.272210
C156	C	1.572203	0.278729	1.605543
C157	C	0.865479	-0.336379	0.971586
C158	C	1.198812	-0.003045	1.304920
C159	C	1.532145	0.330288	1.638253
C160	C	0.865487	-0.336360	1.037021
C161	C	1.198820	-0.003027	1.370354
C162	C	1.532153	0.330306	1.703687
C163	C	0.900602	-0.315324	0.835220
C164	C	1.233936	0.018010	1.168553
C165	C	1.567269	0.351343	1.501887
C166	C	0.900599	-0.315341	0.769787
C167	C	1.233932	0.017992	1.103120
C168	C	1.567265	0.351326	1.436454
C169	C	0.905508	-0.387995	0.737056
C170	C	1.238841	-0.054662	1.070389
C171	C	1.572174	0.278672	1.403723
C172	C	0.910433	-0.460634	0.769766
C173	C	1.243767	-0.127301	1.103099
C174	C	1.577100	0.206032	1.436433
C175	C	0.910441	-0.460616	0.835200
C176	C	1.243775	-0.127283	1.168533
C177	C	1.577108	0.206051	1.501867
C178	C	0.905523	-0.387952	0.867924
C179	C	1.238856	-0.054619	1.201258
C180	C	1.572189	0.278714	1.534591
C181	C	0.945547	-0.439583	0.633401
C182	C	1.278880	-0.106249	0.966735
C183	C	1.612214	0.227084	1.300068
C184	C	0.945531	-0.439610	0.567965
C185	C	1.278865	-0.106276	0.901298
C186	C	1.612198	0.227057	1.234631
C187	C	0.865424	-0.336499	0.567945
C188	C	1.198757	-0.003166	0.901278
C189	C	1.532090	0.330168	1.234611
C190	C	0.865436	-0.336479	0.633380
C191	C	1.198769	-0.003146	0.966713
C192	C	1.532103	0.330187	1.300047
C193	C	0.905501	-0.388020	0.666105
C194	C	1.238834	-0.054687	0.999438
C195	C	1.572168	0.278647	1.332771
H196	H	0.548226	-0.481857	0.374694
H197	H	0.881559	-0.148523	0.708028
H198	H	1.214893	0.184810	1.041361
H199	H	0.263297	-0.481788	0.374796
H200	H	0.596630	-0.148455	0.708130
H201	H	0.929963	0.184879	1.041463
H202	H	0.465201	-0.399875	0.404560
H203	H	0.798535	-0.066542	0.737893
H204	H	1.131868	0.266791	1.071227
H205	H	0.978141	-0.481600	0.541340
H206	H	1.311474	-0.148267	0.874673
H207	H	1.644808	0.185067	1.208007
H208	H	0.346489	-0.399839	0.404602
H209	H	0.679823	-0.066506	0.737935
H210	H	1.013156	0.266827	1.071268
O211	O	0.895298	-0.236996	0.734511
O212	O	1.228631	0.096338	1.067845
O213	O	1.561964	0.429671	1.401178
H214	H	0.850729	-0.206925	0.747046
H215	H	1.184062	0.126408	1.080379
H216	H	1.517395	0.459741	1.413712
H217	H	0.832809	-0.294532	0.541296
H218	H	1.166143	0.038801	0.874629
H219	H	1.499476	0.372134	1.207962
H220	H	0.144590	-0.481747	0.374844
H221	H	0.477923	-0.148414	0.708178
H222	H	0.811256	0.184919	1.041511
O223	O	0.675573	-0.280881	0.218941
O224	O	1.008907	0.052452	0.552274
O225	O	1.342240	0.385785	0.885607
H226	H	0.641828	-0.244974	0.191134
H227	H	0.975161	0.088359	0.524467
H228	H	1.308494	0.421693	0.857800
H229	H	0.896646	-0.256151	0.861864
H230	H	1.229979	0.077182	1.195197
H231	H	1.563313	0.410516	1.528531
H232	H	0.914432	-0.519796	0.743118
H233	H	1.247765	-0.186463	1.076451
H234	H	1.581099	0.146870	1.409785
H235	H	0.144569	-0.294384	0.229711
H236	H	0.477903	0.038950	0.563044
H237	H	0.811236	0.372283	0.896377
O238	O	0.988747	-0.495181	0.668705
O239	O	1.322080	-0.161848	1.002038
O240	O	1.655414	0.171485	1.335371
H241	H	1.016586	-0.531048	0.634969
H242	H	1.349920	-0.197715	0.968302
H243	H	1.683253	0.135618	1.301635
H244	H	0.832826	-0.294494	0.660006
H245	H	1.166159	0.038839	0.993340
H246	H	1.499492	0.372173	1.326673
H247	H	0.263280	-0.294417	0.229664
H248	H	0.596613	0.038916	0.562997
H249	H	0.929946	0.372249	0.896331
H250	H	0.346311	-0.376415	0.199794
H251	H	0.679644	-0.043082	0.533127
H252	H	1.012977	0.290251	0.866460
H253	H	0.465015	-0.376438	0.199750
H254	H	0.798349	-0.043105	0.533083
H255	H	1.131682	0.290229	0.866417
O256	O	0.915743	-0.538961	0.870477
O257	O	1.249076	-0.205627	1.203810
O258	O	1.582409	0.127706	1.537143
H259	H	0.958193	-0.537668	0.900308
H260	H	1.291527	-0.204335	1.233642
H261	H	1.624860	0.128998	1.566975
H262	H	0.548206	-0.294490	0.229566
H263	H	0.881539	0.038843	0.562900
H264	H	1.214873	0.372176	0.896233
O265	O	0.675583	-0.495543	0.385217
O266	O	1.008916	-0.162209	0.718550
O267	O	1.342249	0.171124	1.051884
H268	H	0.726579	-0.486887	0.378479
H269	H	1.059913	-0.153553	0.711813
H270	H	1.393246	0.179780	1.045146
H271	H	0.978223	-0.481427	1.063684
H272	H	1.311557	-0.148094	1.397017
H273	H	1.644890	0.185239	1.730350
H274	H	0.832866	-0.294412	0.944933
H275	H	1.166199	0.038921	1.278266
H276	H	1.499532	0.372255	1.611599
O277	O	0.988794	-0.495081	0.936324
O278	O	1.322127	-0.161748	1.269657
O279	O	1.655461	0.171585	1.602991
H280	H	1.016658	-0.530912	0.970073
H281	H	1.349992	-0.197579	1.303406
H282	H	1.683325	0.135755	1.636739
H283	H	0.832873	-0.294376	1.063646
H284	H	1.166206	0.038958	1.396979
H285	H	1.499540	0.372291	1.730313
