data_functionalizedCrystal
_audit_creation_method	'MofGen! by Chris Wilmer'
_symmetry_space_group_name_H-M	'P1'
_symmetry_Int_Tables_number	1
_symmetry_cell_setting	triclinic
loop_
_symmetry_equiv_pos_as_xyz
  x,y,z
_cell_length_a	12.759401
_cell_length_b	18.101390
_cell_length_c	12.759400
_cell_angle_alpha	89.970545
_cell_angle_beta	90.014632
_cell_angle_gamma	89.981142
loop_
_atom_site_label
_atom_site_type_symbol
_atom_site_fract_x
_atom_site_fract_y
_atom_site_fract_z
Zn1	Zn	1.606231	-0.418742	-0.418228
Zn2	Zn	1.606133	-0.294908	-0.593940
Zn3	Zn	1.430540	-0.294915	-0.418276
Zn4	Zn	1.430522	-0.418709	-0.593865
O5	O	1.518357	-0.356818	-0.506077
O6	O	1.753239	-0.402325	-0.441548
O7	O	1.582807	-0.191276	-0.570689
O8	O	1.453895	-0.311358	-0.271248
O9	O	1.753167	-0.311345	-0.570643
O10	O	1.582975	-0.402333	-0.271213
O11	O	1.453800	-0.191281	-0.441629
O12	O	1.283517	-0.311326	-0.441556
O13	O	1.453864	-0.522346	-0.570515
O14	O	1.283503	-0.402277	-0.570561
O15	O	1.582957	-0.522370	-0.441475
O16	O	1.582789	-0.311313	-0.740951
O17	O	1.453768	-0.402269	-0.740896
C18	C	1.245389	-0.356799	-0.506057
C19	C	1.128613	-0.356809	-0.506073
C20	C	0.963979	-0.309397	-0.573209
C21	C	1.073703	-0.309376	-0.573190
C22	C	1.073793	-0.404260	-0.438964
C23	C	0.964070	-0.404277	-0.438979
C24	C	0.963928	-0.254619	-0.650706
C25	C	1.073652	-0.254598	-0.650687
C26	C	1.518419	-0.549980	-0.505981
C27	C	1.518446	-0.632294	-0.505940
C28	C	1.518502	-0.931386	-0.505875
C29	C	1.599992	-0.900076	-0.424972
C30	C	1.599737	-0.814457	-0.424672
C31	C	1.518475	-0.783003	-0.505907
C32	C	1.407786	-0.814076	-0.475827
C33	C	1.408274	-0.899721	-0.475220
C34	C	1.546727	-0.899802	-0.617066
C35	C	1.549156	-0.814152	-0.616499
C36	C	1.518453	-0.699143	-0.505927
C37	C	1.518517	-1.015245	-0.505852
C38	C	1.792390	-0.356838	-0.506098
C39	C	1.909167	-0.356846	-0.506107
C40	C	1.518294	-0.356803	-0.779044
C41	C	1.518364	-0.356821	-0.895821
C42	C	1.518355	-0.164408	-0.506097
C43	C	1.518532	-0.082094	-0.505842
C44	C	1.585619	-0.309512	-0.950677
C45	C	1.585684	-0.309535	-1.060401
C46	C	1.451228	-0.404177	-1.060404
C47	C	1.451170	-0.404158	-0.950682
C48	C	1.663243	-0.254869	-0.950676
C49	C	1.663308	-0.254892	-1.060400
C50	C	1.518448	-0.356850	-0.232044
C51	C	1.518487	-0.356863	-0.115267
H52	H	1.103434	-0.269860	-0.732078
C53	C	1.711240	-0.927906	-0.450096
C54	C	1.804275	-0.904241	-0.380941
C55	C	1.915527	-0.932076	-0.406068
C56	C	1.933745	-0.983575	-0.500351
C57	C	1.840708	-1.007243	-0.569512
C58	C	1.729456	-0.979408	-0.544385
H59	H	1.790791	-0.866116	-0.311142
H60	H	1.984399	-0.914555	-0.354870
H61	H	2.016101	-1.004180	-0.518952
H62	H	1.854192	-1.045368	-0.639311
H63	H	1.660584	-0.996929	-0.595583
H64	H	1.345492	-0.920432	-0.531583
H65	H	1.630613	-0.793842	-0.639182
H66	H	1.383428	-0.792635	-0.395450
H67	H	1.396415	-0.442687	-0.906019
H68	H	0.929902	-0.275076	-0.728038
H69	H	1.118509	-0.442875	-0.384310
C70	C	1.119579	-0.181030	-0.611198
C71	C	1.094240	-0.153735	-0.499756
C72	C	1.140167	-0.080169	-0.460267
C73	C	1.211432	-0.033897	-0.532221
C74	C	1.236774	-0.061191	-0.643670
C75	C	1.190847	-0.134757	-0.683159
H76	H	1.041483	-0.187989	-0.446485
H77	H	1.121407	-0.059965	-0.377764
H78	H	1.245429	0.020561	-0.502989
H79	H	1.289532	-0.026937	-0.696941
H80	H	1.209608	-0.154961	-0.765661
C81	C	1.633941	-0.177402	-1.100750
C82	C	1.628320	-0.162407	-1.219430
C83	C	1.598952	-0.084921	-1.259779
C84	C	1.575205	-0.022429	-1.181448
C85	C	1.580826	-0.037422	-1.062761
C86	C	1.610194	-0.114908	-1.022412
H87	H	1.645899	-0.208669	-1.277421
H88	H	1.594791	-0.073822	-1.347640
H89	H	1.553466	0.034931	-1.211317
H90	H	1.563247	0.008840	-1.004769
H91	H	1.614354	-0.126006	-0.934551
C92	C	1.710620	-0.786070	-0.450100
C93	C	1.800020	-0.841332	-0.470824
C94	C	1.910909	-0.812950	-0.496247
C95	C	1.932399	-0.729306	-0.500946
C96	C	1.842997	-0.674039	-0.480221
C97	C	1.732107	-0.702421	-0.454798
H98	H	1.784115	-0.903255	-0.467346
H99	H	1.977091	-0.853862	-0.511588
H100	H	2.014486	-0.708295	-0.519765
H101	H	1.858902	-0.612116	-0.483699
H102	H	1.665926	-0.661508	-0.439457
H103	H	1.581543	-0.921610	-0.343059
C104	C	1.377315	-0.456243	-1.120753
C105	C	1.377378	-0.456271	-1.241443
C106	C	1.303462	-0.508338	-1.301789
C107	C	1.229483	-0.560377	-1.241446
C108	C	1.229416	-0.560352	-1.120749
C109	C	1.303332	-0.508285	-1.060403
H110	H	1.432145	-0.417746	-1.286119
H111	H	1.303512	-0.508356	-1.391137
H112	H	1.174766	-0.598921	-1.286118
H113	H	1.174650	-0.598877	-1.076073
H114	H	1.303283	-0.508266	-0.971055
C115	C	1.574480	-0.786787	-0.313397
C116	C	1.554473	-0.842622	-0.224533
C117	C	1.529208	-0.814952	-0.113254
C118	C	1.523950	-0.731449	-0.090840
C119	C	1.543957	-0.675610	-0.179706
C120	C	1.569223	-0.703279	-0.290985
H121	H	1.558365	-0.904440	-0.241123
H122	H	1.514397	-0.856289	-0.047470
H123	H	1.505247	-0.710967	-0.008465
H124	H	1.540065	-0.613791	-0.163116
H125	H	1.584033	-0.661943	-0.356770
H126	H	1.384351	-0.919709	-0.393940
H127	H	0.919446	-0.442909	-0.384330
C128	C	1.767732	-0.282709	-1.106275
C129	C	1.769364	-0.351347	-1.177510
C130	C	1.873784	-0.379165	-1.223390
C131	C	1.976572	-0.338343	-1.198035
C132	C	1.974943	-0.269701	-1.126796
C133	C	1.870524	-0.241884	-1.080917
H134	H	1.693271	-0.381569	-1.196283
H135	H	1.874989	-0.429978	-1.276125
H136	H	2.053869	-0.358935	-1.231997
H137	H	2.051036	-0.239479	-1.108024
H138	H	1.869319	-0.191070	-1.028181
C139	C	1.474796	-0.785242	-0.702311
C140	C	1.384508	-0.732609	-0.673336
C141	C	1.310132	-0.703704	-0.759143
C142	C	1.326045	-0.727431	-0.873927
C143	C	1.416337	-0.780067	-0.902907
C144	C	1.490712	-0.808972	-0.817100
H145	H	1.372724	-0.715042	-0.588361
H146	H	1.243292	-0.664739	-0.737689
H147	H	1.270988	-0.706034	-0.937447
H148	H	1.428120	-0.797634	-0.987882
H149	H	1.557553	-0.847937	-0.838554
H150	H	1.345421	-0.793700	-0.532938
H151	H	1.626027	-0.921447	-0.644457
C152	C	1.466555	-0.927155	-0.698508
C153	C	1.349603	-0.908180	-0.685672
C154	C	1.269429	-0.935537	-0.767104
C155	C	1.306206	-0.981869	-0.861372
C156	C	1.423163	-1.000846	-0.874213
C157	C	1.503337	-0.973489	-0.792781
H158	H	1.322374	-0.873880	-0.615885
H159	H	1.182850	-0.921488	-0.757598
H160	H	1.246856	-1.002120	-0.921653
H161	H	1.450393	-1.035146	-0.944000
H162	H	1.589917	-0.987538	-0.802286
H163	H	1.744585	-0.270275	-0.920819
H164	H	1.634121	-0.200362	-0.916726
H165	H	0.934111	-0.197293	-0.628823
