data_functionalizedCrystal
_audit_creation_method	'MofGen! by Chris Wilmer'
_symmetry_space_group_name_H-M	'P1'
_symmetry_Int_Tables_number	1
_symmetry_cell_setting	triclinic
loop_
_symmetry_equiv_pos_as_xyz
  x,y,z
_cell_length_a	18.215407
_cell_length_b	18.215399
_cell_length_c	12.759399
_cell_angle_alpha	89.972629
_cell_angle_beta	90.009629
_cell_angle_gamma	89.985195
loop_
_atom_site_label
_atom_site_type_symbol
_atom_site_fract_x
_atom_site_fract_y
_atom_site_fract_z
Zn1	Zn	1.125100	-0.416091	-0.418406
Zn2	Zn	1.625100	0.083909	0.081594
Zn3	Zn	1.125036	-0.293032	-0.594111
Zn4	Zn	1.625036	0.206968	-0.094111
Zn5	Zn	1.002039	-0.293043	-0.418430
Zn6	Zn	1.502039	0.206957	0.081570
Zn7	Zn	1.002019	-0.416061	-0.594027
Zn8	Zn	1.502019	0.083939	-0.094027
O9	O	1.063549	-0.354557	-0.506243
O10	O	1.563549	0.145443	-0.006243
O11	O	1.228076	-0.399775	-0.441739
O12	O	1.728076	0.100225	0.058261
O13	O	1.108701	-0.190049	-0.570851
O14	O	1.608701	0.309951	-0.070851
O15	O	1.018398	-0.309383	-0.271405
O16	O	1.518398	0.190617	0.228595
O17	O	1.228029	-0.309364	-0.570828
O18	O	1.728029	0.190636	-0.070828
O19	O	1.108811	-0.399786	-0.271388
O20	O	1.608811	0.100214	0.228612
O21	O	1.018336	-0.190057	-0.441779
O22	O	1.518336	0.309943	0.058221
O23	O	0.899052	-0.309354	-0.441698
O24	O	1.399052	0.190646	0.058302
O25	O	1.018365	-0.519049	-0.570685
O26	O	1.518365	-0.019049	-0.070685
O27	O	0.899038	-0.399734	-0.570708
O28	O	1.399038	0.100266	-0.070708
O29	O	1.108792	-0.519072	-0.441657
O30	O	1.608792	-0.019072	0.058343
O31	O	1.108682	-0.309334	-0.741121
O32	O	1.608682	0.190666	-0.241121
O33	O	1.018303	-0.399723	-0.741059
O34	O	1.518303	0.100277	-0.241059
C35	C	0.872342	-0.354542	-0.506197
C36	C	1.372342	0.145458	-0.006197
C37	C	0.790543	-0.354554	-0.506202
C38	C	1.290543	0.145446	-0.006202
C39	C	0.525505	-0.401709	-0.439156
C40	C	1.025505	0.098291	0.060844
C41	C	0.602364	-0.401707	-0.439139
C42	C	1.102364	0.098293	0.060861
C43	C	0.602334	-0.307420	-0.573365
C44	C	1.102334	0.192580	-0.073365
C45	C	0.525476	-0.307427	-0.573386
C46	C	1.025476	0.192573	-0.073386
C47	C	0.487064	-0.354570	-0.506276
C48	C	0.987064	0.145430	-0.006276
C49	C	0.640780	-0.354561	-0.506237
C50	C	1.140780	0.145439	-0.006237
C51	C	0.724114	-0.354559	-0.506219
C52	C	1.224114	0.145441	-0.006219
C53	C	0.403725	-0.354574	-0.506295
C54	C	0.903725	0.145426	-0.006295
C55	C	1.063583	-0.546510	-0.506159
C56	C	1.563583	-0.046510	-0.006159
C57	C	1.063598	-0.628309	-0.506123
C58	C	1.563598	-0.128309	-0.006123
C59	C	1.016585	-0.816508	-0.438870
C60	C	1.516585	-0.316508	0.061130
C61	C	1.016598	-0.893367	-0.438849
C62	C	1.516598	-0.393367	0.061151
C63	C	1.110700	-0.893347	-0.573251
C64	C	1.610700	-0.393347	-0.073251
C65	C	1.110683	-0.816490	-0.573277
C66	C	1.610683	-0.316490	-0.073277
C67	C	1.063626	-0.778072	-0.506081
C68	C	1.563626	-0.278072	-0.006081
C69	C	1.063656	-0.931788	-0.506034
C70	C	1.563656	-0.431788	-0.006034
C71	C	1.063670	-1.015122	-0.506011
C72	C	1.563670	-0.515122	-0.006011
C73	C	1.063611	-0.694733	-0.506104
C74	C	1.563611	-0.194733	-0.006104
C75	C	1.255502	-0.354572	-0.506290
C76	C	1.755502	0.145428	-0.006290
C77	C	1.337300	-0.354578	-0.506310
C78	C	1.837300	0.145422	-0.006310
C79	C	1.063504	-0.354540	-0.779211
C80	C	1.563504	0.145460	-0.279211
C81	C	1.063552	-0.354557	-0.895987
C82	C	1.563552	0.145443	-0.395987
C83	C	1.063556	-0.163351	-0.506251
C84	C	1.563556	0.336649	-0.006251
C85	C	1.063684	-0.081552	-0.505991
C86	C	1.563684	0.418448	-0.005991
C87	C	1.110666	-0.307545	-0.950846
C88	C	1.610666	0.192455	-0.450846
C89	C	1.110713	-0.307570	-1.060570
C90	C	1.610713	0.192430	-0.560570
C91	C	1.016525	-0.401621	-1.060566
C92	C	1.516525	0.098379	-0.560566
C93	C	1.016482	-0.401599	-0.950844
C94	C	1.516482	0.098401	-0.450844
C95	C	1.063614	-0.354590	-0.232210
C96	C	1.563614	0.145410	0.267790
C97	C	1.063642	-0.354604	-0.115433
C98	C	1.563642	0.145396	0.384567
H99	H	0.633659	-0.440093	-0.384484
H100	H	1.133659	0.059907	0.115516
H101	H	0.978291	-0.924658	-0.384121
H102	H	1.478291	-0.424658	0.115879
H103	H	1.148991	-0.785195	-0.628012
H104	H	1.648991	-0.285195	-0.128012
H105	H	0.978268	-0.785231	-0.384155
H106	H	1.478268	-0.285231	0.115845
O107	O	0.965651	-0.452301	-0.891674
O108	O	1.465651	0.047699	-0.391674
H109	H	0.978235	-0.510076	-0.912661
H110	H	1.478235	-0.010076	-0.412661
H111	H	0.633618	-0.269037	-0.628002
H112	H	1.133618	0.230963	-0.128002
O113	O	0.484006	-0.256577	-0.645775
O114	O	0.984006	0.243423	-0.145775
H115	H	0.523627	-0.223785	-0.692424
H116	H	1.023627	0.276215	-0.192424
O117	O	1.161459	-0.934782	-0.645716
O118	O	1.661459	-0.434782	-0.145716
H119	H	1.153575	-0.994684	-0.634400
H120	H	1.653575	-0.494684	-0.134400
O121	O	1.161439	-0.256819	-0.891674
O122	O	1.661439	0.243181	-0.391674
H123	H	1.194214	-0.224139	-0.948259
H124	H	1.694214	0.275861	-0.448259
H125	H	0.978202	-0.439920	-1.105244
H126	H	1.478202	0.060080	-0.605244
O127	O	0.484070	-0.452559	-0.366785
O128	O	0.984070	0.047441	0.133215
H129	H	0.523717	-0.485342	-0.320118
H130	H	1.023717	0.014658	0.179882
O131	O	1.161525	-0.256861	-1.119744
O132	O	1.661525	0.243139	-0.619744
H133	H	1.194241	-0.224144	-1.063161
H134	H	1.694241	0.275856	-0.563161
