data_functionalizedCrystal
_audit_creation_method	'MofGen! by Chris Wilmer'
_symmetry_space_group_name_H-M	'P1'
_symmetry_Int_Tables_number	1
_symmetry_cell_setting	triclinic
loop_
_symmetry_equiv_pos_as_xyz
  x,y,z
_cell_length_a	14.971475
_cell_length_b	14.971493
_cell_length_c	13.448316
_cell_angle_alpha	90.005675
_cell_angle_beta	90.005879
_cell_angle_gamma	83.613431
loop_
_atom_site_label
_atom_site_type_symbol
_atom_site_fract_x
_atom_site_fract_y
_atom_site_fract_z
O1	O	-1.186957	-0.116518	-0.082669
O2	O	-0.853623	0.216815	0.250664
O3	O	-0.520290	0.550149	0.583997
O4	O	-0.926555	-0.130487	-0.082676
O5	O	-0.593222	0.202846	0.250658
O6	O	-0.259889	0.536180	0.583991
O7	O	-1.063732	0.006697	-0.082668
O8	O	-0.730399	0.340031	0.250665
O9	O	-0.397065	0.673364	0.583999
O10	O	-1.049780	-0.253702	-0.082677
O11	O	-0.716447	0.079631	0.250656
O12	O	-0.383113	0.412964	0.583990
O13	O	-1.063715	0.006706	0.082716
O14	O	-0.730381	0.340039	0.416049
O15	O	-0.397048	0.673373	0.749382
O16	O	-0.926538	-0.130478	0.082708
O17	O	-0.593205	0.202855	0.416041
O18	O	-0.259872	0.536188	0.749375
O19	O	-1.186939	-0.116510	0.082714
O20	O	-0.853606	0.216824	0.416048
O21	O	-0.520273	0.550157	0.749381
Cu22	Cu	-1.056737	-0.123493	0.097812
Cu23	Cu	-0.723404	0.209840	0.431145
Cu24	Cu	-0.390070	0.543173	0.764479
Cu25	Cu	-1.056758	-0.123503	-0.097773
Cu26	Cu	-0.723424	0.209830	0.235560
Cu27	Cu	-0.390091	0.543163	0.568893
O28	O	-1.049763	-0.253694	0.082707
O29	O	-0.716429	0.079639	0.416040
O30	O	-0.383096	0.412973	0.749374
C31	C	-0.893222	-0.129860	0.000015
C32	C	-0.559889	0.203474	0.333349
C33	C	-0.226555	0.536807	0.666682
C34	C	-0.793924	-0.127993	0.000013
C35	C	-0.460591	0.205340	0.333346
C36	C	-0.127258	0.538674	0.666680
C37	C	-0.747270	-0.127109	0.090165
C38	C	-0.413937	0.206224	0.423498
C39	C	-0.080603	0.539558	0.756831
C40	C	-0.653971	-0.125341	0.090165
C41	C	-0.320638	0.207993	0.423499
C42	C	0.012695	0.541326	0.756832
C43	C	-0.607328	-0.124463	0.000013
C44	C	-0.273994	0.208871	0.333346
C45	C	0.059339	0.542204	0.666680
C46	C	-0.653989	-0.125344	-0.090145
C47	C	-0.320655	0.207990	0.243188
C48	C	0.012678	0.541323	0.576521
C49	C	-0.747287	-0.127106	-0.090145
C50	C	-0.413953	0.206228	0.243188
C51	C	-0.080620	0.539561	0.576522
C52	C	-0.459526	-0.121674	-0.090140
C53	C	-0.126193	0.211660	0.243193
C54	C	0.207141	0.544993	0.576527
C55	C	-0.366221	-0.119913	-0.090141
C56	C	-0.032888	0.213420	0.243192
C57	C	0.300445	0.546754	0.576526
C58	C	-0.366211	-0.119908	0.090170
C59	C	-0.032877	0.213425	0.423503
C60	C	0.300456	0.546758	0.756837
C61	C	-0.459509	-0.121670	0.090170
C62	C	-0.126175	0.211663	0.423504
C63	C	0.207158	0.544996	0.756837
C64	C	-0.506163	-0.122553	0.000012
C65	C	-0.172830	0.210780	0.333345
C66	C	0.160504	0.544113	0.666678
C67	C	-1.063098	0.040026	0.000023
C68	C	-0.729765	0.373360	0.333356
C69	C	-0.396432	0.706693	0.666689
C70	C	-1.061225	0.139323	0.000020
C71	C	-0.727891	0.472656	0.333353
C72	C	-0.394558	0.805990	0.666686
C73	C	-0.220272	-0.117143	0.000019
C74	C	0.113061	0.216190	0.333353
C75	C	0.446395	0.549524	0.666686
C76	C	-0.319567	-0.119029	0.000011
C77	C	0.013766	0.214304	0.333344
C78	C	0.347100	0.547637	0.666677
C79	C	-1.060356	0.185963	-0.090132
C80	C	-0.727023	0.519296	0.243202
C81	C	-0.393689	0.852630	0.576535
C82	C	-1.058590	0.279262	-0.090131
C83	C	-0.725257	0.612595	0.243202
C84	C	-0.391923	0.945929	0.576535
C85	C	-1.057699	0.325920	0.000021
C86	C	-0.724366	0.659253	0.333354
C87	C	-0.391032	0.992587	0.666688
C88	C	-1.058565	0.279273	0.090179
C89	C	-0.725232	0.612606	0.423512
C90	C	-0.391899	0.945940	0.756846
C91	C	-1.060325	0.185975	0.090178
C92	C	-0.726991	0.519308	0.423511
C93	C	-0.393658	0.852642	0.756845
C94	C	-1.054900	0.473736	0.090175
C95	C	-0.721567	0.807070	0.423509
C96	C	-0.388233	1.140403	0.756842
C97	C	-1.053142	0.567041	0.090177
C98	C	-0.719809	0.900374	0.423510
C99	C	-0.386475	1.233708	0.756844
C100	C	-1.053165	0.567023	-0.090134
C101	C	-0.719832	0.900357	0.243199
C102	C	-0.386499	1.233690	0.576533
C103	C	-1.054925	0.473725	-0.090135
C104	C	-0.721591	0.807058	0.243198
C105	C	-0.388258	1.140392	0.576531
C106	C	-1.055792	0.427085	0.000023
C107	C	-0.722459	0.760418	0.333357
C108	C	-0.389126	1.093751	0.666690
N109	N	-1.056729	-0.123486	0.235376
N110	N	-0.723396	0.209848	0.568710
N111	N	-0.390063	0.543181	0.902043
C112	C	-1.050397	0.712977	0.000018
C113	C	-0.717064	1.046311	0.333351
C114	C	-0.383731	1.379644	0.666684
C115	C	-1.052273	0.613681	0.000026
C116	C	-0.718940	0.947014	0.333359
C117	C	-0.385607	1.280348	0.666692
N118	N	-1.056772	-0.123504	-0.235338
N119	N	-0.723439	0.209830	0.097996
N120	N	-0.390106	0.543163	0.431329
C121	C	-1.117490	-0.062765	0.287420
C122	C	-0.784157	0.270568	0.620753
C123	C	-0.450823	0.603901	0.954087
C124	C	-1.117496	-0.062765	0.391523
C125	C	-0.784162	0.270569	0.724857
C126	C	-0.450829	0.603902	1.058190
C127	C	-1.056744	-0.123489	0.443581
C128	C	-0.723411	0.209844	0.776914
C129	C	-0.390077	0.543178	1.110248
C130	C	-0.995977	-0.184212	0.391530
C131	C	-0.662644	0.149121	0.724863
C132	C	-0.329310	0.482454	1.058197
C133	C	-0.995968	-0.184208	0.287429
C134	C	-0.662634	0.149125	0.620762
C135	C	-0.329301	0.482459	0.954095
C136	C	-0.996002	-0.184218	0.608510
C137	C	-0.662668	0.149115	0.941843
C138	C	-0.329335	0.482448	1.275177
C139	C	-0.996012	-0.184224	0.712619
C140	C	-0.662679	0.149109	1.045952
C141	C	-0.329345	0.482443	1.379285
C142	C	-1.117530	-0.062775	0.712605
C143	C	-0.784196	0.270558	1.045938
C144	C	-0.450863	0.603892	1.379271
C145	C	-1.117520	-0.062771	0.608503
C146	C	-0.784187	0.270563	0.941837
C147	C	-0.450854	0.603896	1.275170
C148	C	-1.056754	-0.123495	0.556460
C149	C	-0.723421	0.209838	0.889793
C150	C	-0.390087	0.543171	1.223126
H151	H	-0.616005	-0.124623	-0.163549
H152	H	-0.282671	0.208711	0.169785
H153	H	0.050662	0.542044	0.503118
H154	H	-1.057834	0.317269	0.163583
H155	H	-0.724501	0.650602	0.496916
H156	H	-0.391168	0.983935	0.830249
F157	F	-1.182202	0.001851	0.767998
F158	F	-0.848868	0.335184	1.101331
F159	F	-0.515535	0.668518	1.434664
H160	H	-0.785271	-0.127827	-0.163556
H161	H	-0.451938	0.205506	0.169778
H162	H	-0.118604	0.538839	0.503111
H163	H	-1.061020	0.148000	0.163588
H164	H	-0.727686	0.481333	0.496922
H165	H	-0.394353	0.814667	0.830255
F166	F	-0.604321	-0.124412	0.186117
F167	F	-0.270988	0.208921	0.519450
F168	F	0.062346	0.542254	0.852784
H169	H	-1.055587	0.435762	0.163592
H170	H	-0.722254	0.769095	0.496925
H171	H	-0.388920	1.102429	0.830259
F172	F	-1.182156	0.001863	0.232026
F173	F	-0.848822	0.335196	0.565360
F174	F	-0.515489	0.668530	0.898693
F175	F	-1.182163	0.001861	0.446912
F176	F	-0.848829	0.335195	0.780246
F177	F	-0.515496	0.668528	1.113579
H178	H	-1.166993	-0.013329	0.566118
H179	H	-0.833660	0.320005	0.899452
H180	H	-0.500326	0.653338	1.232785
F181	F	-0.931350	-0.248854	0.768015
F182	F	-0.598017	0.084479	1.101348
F183	F	-0.264683	0.417812	1.434682
H184	H	-0.946516	-0.233664	0.566139
H185	H	-0.613183	0.099669	0.899473
H186	H	-0.279850	0.433003	1.232806
F187	F	-0.931315	-0.248837	0.446934
F188	F	-0.597982	0.084497	0.780268
F189	F	-0.264649	0.417830	1.113601
H190	H	-1.052457	0.605002	-0.163544
H191	H	-0.719123	0.938335	0.169789
H192	H	-0.385790	1.271669	0.503122
F193	F	-1.061310	0.136315	-0.186086
F194	F	-0.727977	0.469648	0.147247
F195	F	-0.394644	0.802982	0.480581
H196	H	-1.055657	0.435739	-0.163545
H197	H	-0.722323	0.769073	0.169788
H198	H	-0.388990	1.102406	0.503121
F199	F	-0.796903	-0.128049	0.186119
F200	F	-0.463569	0.205284	0.519452
F201	F	-0.130236	0.538617	0.852785
F202	F	-0.509147	-0.122614	0.186120
F203	F	-0.175814	0.210719	0.519454
F204	F	0.157519	0.544053	0.852787
H205	H	-0.946489	-0.233651	0.245056
H206	H	-0.613156	0.099682	0.578389
H207	H	-0.279823	0.433015	0.911722
H208	H	-0.328246	-0.119199	-0.163551
H209	H	0.005087	0.214134	0.169783
H210	H	0.338420	0.547468	0.503116
F211	F	-0.509177	-0.122610	-0.186098
F212	F	-0.175844	0.210723	0.147235
F213	F	0.157489	0.544057	0.480569
F214	F	-0.316557	-0.118969	0.186124
F215	F	0.016777	0.214364	0.519458
F216	F	0.350110	0.547698	0.852791
H217	H	-1.057887	0.317233	-0.163542
H218	H	-0.724553	0.650566	0.169792
H219	H	-0.391220	0.983899	0.503125
H220	H	-1.052409	0.605027	0.163587
H221	H	-0.719076	0.938360	0.496920
H222	H	-0.385742	1.271693	0.830254
