data_functionalizedCrystal
_audit_creation_method	'MofGen! by Chris Wilmer'
_symmetry_space_group_name_H-M	'P1'
_symmetry_Int_Tables_number	1
_symmetry_cell_setting	triclinic
loop_
_symmetry_equiv_pos_as_xyz
  x,y,z
_cell_length_a	19.805407
_cell_length_b	21.295416
_cell_length_c	19.805399
_cell_angle_alpha	89.971630
_cell_angle_beta	90.019573
_cell_angle_gamma	89.969669
loop_
_atom_site_label
_atom_site_type_symbol
_atom_site_fract_x
_atom_site_fract_y
_atom_site_fract_z
Zn1	Zn	1.034717	0.250624	0.382716
Zn2	Zn	1.534717	0.750624	0.882716
Zn3	Zn	1.034624	0.355893	0.269526
Zn4	Zn	1.534624	0.855893	0.769526
Zn5	Zn	0.921532	0.250641	0.269541
Zn6	Zn	1.421532	0.750641	0.769541
Zn7	Zn	0.921488	0.355859	0.382673
Zn8	Zn	1.421488	0.855859	0.882673
O9	O	0.978090	0.303254	0.326114
O10	O	1.478090	0.803254	0.826114
O11	O	1.129421	0.264595	0.367713
O12	O	1.629421	0.764595	0.867713
O13	O	1.019602	0.341952	0.174811
O14	O	1.519602	0.841952	0.674811
O15	O	0.936604	0.162549	0.284578
O16	O	1.436604	0.662549	0.784578
O17	O	1.129353	0.341935	0.284553
O18	O	1.629353	0.841935	0.784553
O19	O	1.019760	0.162537	0.367727
O20	O	1.519760	0.662537	0.867727
O21	O	0.936513	0.264624	0.174822
O22	O	1.436513	0.764624	0.674822
O23	O	0.826809	0.264592	0.284536
O24	O	1.326809	0.764592	0.784536
O25	O	0.936528	0.341878	0.477395
O26	O	1.436528	0.841878	0.977395
O27	O	0.826777	0.341895	0.367654
O28	O	1.326777	0.841895	0.867654
O29	O	1.019717	0.264562	0.477427
O30	O	1.519717	0.764562	0.977427
O31	O	1.019559	0.443977	0.284511
O32	O	1.519559	0.943977	0.784511
O33	O	0.936438	0.443953	0.367640
O34	O	1.436438	0.943953	0.867640
C35	C	0.802234	0.303242	0.326092
C36	C	1.302234	0.803242	0.826092
C37	C	0.727002	0.303252	0.326099
C38	C	1.227002	0.803252	0.826099
C39	C	0.691659	0.343564	0.369308
C40	C	1.191659	0.843564	0.869308
C41	C	0.620970	0.343566	0.369318
C42	C	1.120970	0.843566	0.869318
C43	C	0.585627	0.303257	0.326114
C44	C	1.085627	0.803257	0.826114
C45	C	0.620975	0.262940	0.282903
C46	C	1.120975	0.762940	0.782903
C47	C	0.691662	0.262936	0.282897
C48	C	1.191662	0.762936	0.782897
C49	C	0.335902	0.262954	0.282925
C50	C	0.835902	0.762954	0.782925
C51	C	0.265210	0.262962	0.282932
C52	C	0.765210	0.762962	0.782932
C53	C	0.265210	0.343583	0.369346
C54	C	0.765210	0.843583	0.869346
C55	C	0.335897	0.343579	0.369340
C56	C	0.835897	0.843579	0.869340
C57	C	0.371239	0.303261	0.326132
C58	C	0.871239	0.803261	0.826132
C59	C	0.447888	0.303259	0.326123
C60	C	0.947888	0.803259	0.826123
C61	C	0.508980	0.303261	0.326119
C62	C	1.008980	0.803261	0.826119
C63	C	0.978002	0.466806	0.326084
C64	C	1.478002	0.966806	0.826084
C65	C	0.978026	0.536774	0.326094
C66	C	1.478026	1.036774	0.826094
C67	C	1.021346	0.569632	0.282855
C68	C	1.521346	1.069632	0.782855
C69	C	1.021378	0.635375	0.282873
C70	C	1.521378	1.135375	0.782873
C71	C	0.978078	0.668256	0.326123
C72	C	1.478078	1.168256	0.826123
C73	C	0.934755	0.635390	0.369371
C74	C	1.434755	1.135390	0.869371
C75	C	0.934729	0.569649	0.369356
C76	C	1.434729	1.069649	0.869356
N77	N	0.918868	0.771522	0.331281
N78	N	1.418868	1.271522	0.831281
N79	N	0.918895	0.833974	0.331291
N80	N	1.418895	1.333974	0.831291
C81	C	0.978155	0.866331	0.326171
C82	C	1.478155	1.366331	0.826171
N83	N	1.037388	0.833878	0.321028
N84	N	1.537388	1.333878	0.821028
N85	N	1.037361	0.771421	0.321015
N86	N	1.537361	1.271421	0.821015
C87	C	0.978102	0.739542	0.326144
C88	C	1.478102	1.239542	0.826144
C89	C	1.021513	0.970475	0.282950
C90	C	1.521513	1.470475	0.782950
C91	C	1.021546	1.036219	0.282973
C92	C	1.521546	1.536219	0.782973
C93	C	0.934917	1.036233	0.369467
C94	C	1.434917	1.536233	0.869467
C95	C	0.934890	0.970490	0.369447
C96	C	1.434890	1.470490	0.869447
C97	C	0.978187	0.937615	0.326185
C98	C	1.478187	1.437615	0.826185
C99	C	1.154633	0.303267	0.326136
C100	C	1.654633	0.803267	0.826136
C101	C	1.229865	0.303272	0.326146
C102	C	1.729865	0.803272	0.826146
C103	C	0.978128	0.303214	0.502657
C104	C	1.478128	0.803214	1.002657
C105	C	0.978144	0.303198	0.577889
C106	C	1.478144	0.803198	1.077889
C107	C	0.978198	1.139064	0.326170
C108	C	1.478198	1.639064	0.826170
C109	C	0.978246	1.069096	0.326224
C110	C	1.478246	1.569096	0.826224
C111	C	0.978091	0.303248	0.150258
C112	C	1.478091	0.803248	0.650258
C113	C	0.978206	0.303088	0.075026
C114	C	1.478206	0.803088	0.575026
C115	C	1.021462	0.262937	0.613250
C116	C	1.521462	0.762937	1.113250
C117	C	1.021469	0.262919	0.683939
C118	C	1.521469	0.762919	1.183939
C119	C	0.978161	0.303165	0.719264
C120	C	1.478161	0.803165	1.219264
C121	C	0.934839	0.343427	0.683898
C122	C	1.434839	0.843427	1.183898
C123	C	0.934829	0.343442	0.613210
C124	C	1.434829	0.843442	1.113210
C125	C	0.934877	0.343368	0.968971
C126	C	1.434877	0.843368	1.468971
C127	C	0.934892	0.343352	1.039663
C128	C	1.434892	0.843352	1.539663
C129	C	1.021517	0.262846	1.039700
C130	C	1.521517	0.762846	1.539700
C131	C	1.021507	0.262860	0.969012
C132	C	1.521507	0.762860	1.469012
C133	C	0.978183	0.303120	0.933652
C134	C	1.478183	0.803120	1.433652
C135	C	0.978175	0.303138	0.857003
C136	C	1.478175	0.803138	1.357003
C137	C	0.978172	0.303150	0.795912
C138	C	1.478172	0.803150	1.295912
H139	H	0.236435	0.230134	0.247751
H140	H	0.736435	0.730134	0.747751
O141	O	0.230982	0.382802	0.411350
O142	O	0.730982	0.882802	0.911350
C143	C	0.277337	0.418366	0.449492
C144	C	0.777337	0.918366	0.949492
H145	H	0.327709	0.420512	0.421755
H146	H	0.827709	0.920512	0.921755
H147	H	0.284894	0.395374	0.500939
H148	H	0.784894	0.895374	1.000939
C149	C	0.187850	0.482740	0.493193
C150	C	0.687850	0.982740	0.993193
C151	C	0.249717	0.485379	0.459124
C152	C	0.749717	0.985379	0.959124
H153	H	0.170812	0.524076	0.499138
H154	H	0.670812	1.024076	0.999138
H155	H	0.156619	0.458778	0.467499
H156	H	0.656619	0.958778	0.967499
H157	H	0.194156	0.463577	0.536063
H158	H	0.694156	0.963577	1.036063
H159	H	0.243409	0.504535	0.416252
H160	H	0.743409	1.004535	0.916252
H161	H	0.280946	0.509346	0.484811
H162	H	0.780946	1.009346	0.984811
O163	O	0.726026	0.223712	0.241017
O164	O	1.226026	0.723712	0.741017
C165	C	0.766963	0.183108	0.279627
C166	C	1.266963	0.683108	0.779627
H167	H	0.745686	0.179287	0.332945
H168	H	1.245686	0.679287	0.832945
H169	H	0.820527	0.202570	0.281915
H170	H	1.320527	0.702570	0.781915
C171	C	0.794198	0.122322	0.181200
C172	C	1.294198	0.622322	0.681200
C173	C	0.768062	0.117624	0.246685
C174	C	1.268062	0.617624	0.746685
H175	H	0.794879	0.081928	0.160879
H176	H	1.294879	0.581928	0.660879
H177	H	0.766620	0.149678	0.155187
H178	H	1.266620	0.649678	0.655187
H179	H	0.838833	0.138542	0.183116
H180	H	1.338833	0.638542	0.683116
H181	H	0.723426	0.101411	0.244768
H182	H	1.223426	0.601411	0.744768
H183	H	0.795633	0.090263	0.272697
H184	H	1.295633	0.590263	0.772697
O185	O	0.892787	0.667397	0.411417
O186	O	1.392787	1.167397	0.911417
C187	C	0.931313	0.705354	0.455187
C188	C	1.431313	1.205354	0.955187
H189	H	0.982624	0.715176	0.431364
H190	H	1.482624	1.215176	0.931364
H191	H	0.938711	0.679980	0.505348
H192	H	1.438711	1.179980	1.005348
C193	C	0.831067	0.755761	0.496679
C194	C	1.331067	1.255761	0.996679
C195	C	0.894087	0.767829	0.467417
C196	C	1.394087	1.267829	0.967417
H197	H	0.808104	0.794298	0.504227
H198	H	1.308104	1.294298	1.004227
H199	H	0.805111	0.730188	0.467193
H200	H	1.305111	1.230188	0.967193
H201	H	0.837241	0.734615	0.538477
H202	H	1.337241	1.234615	1.038477
H203	H	0.887911	0.788967	0.425616
H204	H	1.387911	1.288967	0.925616
H205	H	0.920041	0.793408	0.496897
H206	H	1.420041	1.293408	0.996897
H207	H	0.899453	0.542895	0.404567
H208	H	1.399453	1.042895	0.904567
H209	H	0.592197	0.376393	0.404502
H210	H	1.092197	0.876393	0.904502
H211	H	1.056770	0.943707	0.247725
H212	H	1.556770	1.443707	0.747725
H213	H	0.720431	0.376391	0.404487
H214	H	1.220431	0.876391	0.904487
H215	H	1.056826	1.062971	0.247764
H216	H	1.556826	1.562971	0.747764
O217	O	1.063356	0.667365	0.240819
O218	O	1.563356	1.167365	0.740819
C219	C	1.024839	0.705429	0.197070
C220	C	1.524839	1.205429	0.697070
H221	H	0.973545	0.715307	0.220915
H222	H	1.473545	1.215307	0.720915
H223	H	1.017403	0.680119	0.146908
H224	H	1.517403	1.180119	0.646908
C225	C	1.125103	0.755720	0.155543
C226	C	1.625103	1.255720	0.655543
C227	C	1.062104	0.767857	0.184833
C228	C	1.562104	1.267857	0.684833
H229	H	1.148090	0.794228	0.147992
H230	H	1.648090	1.294228	0.647992
H231	H	1.151053	0.730074	0.185015
H232	H	1.651053	1.230074	0.685015
H233	H	1.118897	0.734627	0.113745
H234	H	1.618897	1.234627	0.613745
H235	H	1.068312	0.788942	0.226634
H236	H	1.568312	1.288942	0.726634
H237	H	1.036156	0.793508	0.155368
H238	H	1.536156	1.293508	0.655368
H239	H	0.899664	1.063004	0.404685
H240	H	1.399664	1.563004	0.904685
H241	H	0.899609	0.376159	0.940189
H242	H	1.399609	0.876159	1.440189
O243	O	0.370303	0.382646	0.411344
O244	O	0.870303	0.882646	0.911344
C245	C	0.411213	0.346854	0.455136
C246	C	0.911213	0.846854	0.955136
H247	H	0.421816	0.299120	0.431352
H248	H	0.921816	0.799120	0.931352
H249	H	0.383994	0.339997	0.505309
H250	H	0.883994	0.839997	1.005309
C251	C	0.465324	0.440124	0.496534
C252	C	0.965324	0.940124	0.996534
C253	C	0.478352	0.381499	0.467320
C254	C	0.978352	0.881499	0.967320
H255	H	0.506738	0.461495	0.504053
H256	H	1.006738	0.961495	1.004053
H257	H	0.437761	0.464239	0.467032
H258	H	0.937761	0.964239	0.967032
H259	H	0.442640	0.434402	0.538342
H260	H	0.942640	0.934402	1.038342
H261	H	0.501028	0.387222	0.425509
H262	H	1.001028	0.887222	0.925509
H263	H	0.505921	0.357386	0.496815
H264	H	1.005921	0.857386	0.996815
O265	O	0.892831	0.382501	0.718315
O266	O	1.392831	0.882501	1.218315
C267	C	0.902117	0.373845	0.788289
C268	C	1.402117	0.873845	1.288289
H269	H	0.954367	0.353233	0.797960
H270	H	1.454367	0.853233	1.297960
H271	H	0.861995	0.340315	0.808351
H272	H	1.361995	0.840315	1.308351
C273	C	0.831700	0.462847	0.812682
C274	C	1.331700	0.962847	1.312682
C275	C	0.895878	0.437535	0.824560
C276	C	1.395878	0.937535	1.324560
H277	H	0.827849	0.502132	0.835057
H278	H	1.327849	1.002132	1.335057
H279	H	0.825442	0.468677	0.765539
H280	H	1.325442	0.968677	1.265539
H281	H	0.798273	0.434899	0.829400
H282	H	1.298273	0.934899	1.329400
H283	H	0.929303	0.465479	0.807834
H284	H	1.429303	0.965479	1.307834
H285	H	0.902141	0.431711	0.871701
H286	H	1.402141	0.931711	1.371701
O287	O	0.892786	0.382360	1.074056
O288	O	1.392786	0.882360	1.574056
C289	C	0.849095	0.346505	1.114938
C290	C	1.349095	0.846505	1.614938
H291	H	0.873003	0.298800	1.125541
H292	H	1.373003	0.798800	1.625541
H293	H	0.798933	0.339589	1.087694
H294	H	1.298933	0.839589	1.587694
C295	C	0.807470	0.439714	1.169051
C296	C	1.307470	0.939714	1.669051
C297	C	0.836837	0.381124	1.182078
C298	C	1.336837	0.881124	1.682078
H299	H	0.799905	0.461069	1.210465
H300	H	1.299905	0.961069	1.710465
H301	H	0.836903	0.463871	1.141506
H302	H	1.336903	0.963871	1.641506
H303	H	0.765671	0.433943	1.146346
H304	H	1.265671	0.933943	1.646346
H305	H	0.878638	0.386896	1.204775
H306	H	1.378638	0.886896	1.704775
H307	H	0.807410	0.356969	1.209629
H308	H	1.307410	0.856969	1.709629
H309	H	1.056792	0.230062	1.068499
H310	H	1.556792	0.730062	1.568499
H311	H	0.364669	0.230129	0.247737
H312	H	0.864669	0.730129	0.747737
H313	H	0.592192	0.230118	0.247728
H314	H	1.092192	0.730118	0.747728
H315	H	0.899548	0.376219	0.584420
H316	H	1.399548	0.876219	1.084420
H317	H	1.056602	0.542868	0.247630
H318	H	1.556602	1.042868	0.747630
H319	H	0.899612	0.943735	0.404654
H320	H	1.399612	1.443735	0.904654
H321	H	1.056730	0.230166	0.584493
H322	H	1.556730	0.730166	1.084493
O323	O	1.063614	0.223792	0.718184
O324	O	1.563614	0.723792	1.218184
C325	C	1.101828	0.188267	0.671848
C326	C	1.601828	0.688267	1.171848
H327	H	1.104145	0.214063	0.621453
H328	H	1.604145	0.714063	1.121453
H329	H	1.077077	0.140456	0.664337
H330	H	1.577077	0.640456	1.164337
C331	C	1.171030	0.147515	0.761347
C332	C	1.671030	0.647515	1.261347
C333	C	1.173881	0.179201	0.699454
C334	C	1.673881	0.679201	1.199454
H335	H	1.215475	0.141920	0.778376
H336	H	1.715475	0.641920	1.278376
H337	H	1.145283	0.171447	0.792566
H338	H	1.645283	0.671447	1.292566
H339	H	1.150401	0.107676	0.755080
H340	H	1.650401	0.607676	1.255080
H341	H	1.194502	0.219042	0.705723
H342	H	1.694502	0.719042	1.205723
H343	H	1.199633	0.155275	0.668236
H344	H	1.699633	0.655275	1.168236
H345	H	1.056775	0.230090	0.940254
H346	H	1.556775	0.730090	1.440254
