data_functionalizedCrystal
_audit_creation_method	'MofGen! by Chris Wilmer'
_symmetry_space_group_name_H-M	'P1'
_symmetry_Int_Tables_number	1
_symmetry_cell_setting	triclinic
loop_
_symmetry_equiv_pos_as_xyz
  x,y,z
_cell_length_a	16.120297
_cell_length_b	13.897449
_cell_length_c	13.897448
_cell_angle_alpha	90.018972
_cell_angle_beta	87.126532
_cell_angle_gamma	87.120648
loop_
_atom_site_label
_atom_site_type_symbol
_atom_site_fract_x
_atom_site_fract_y
_atom_site_fract_z
Zn1	Zn	-0.471366	-1.447031	0.411661
Zn2	Zn	-0.221366	-1.197031	0.661661
Zn3	Zn	0.028634	-0.947031	0.911661
Zn4	Zn	0.278634	-0.697031	1.161661
Zn5	Zn	-0.331958	-1.455109	0.564787
Zn6	Zn	-0.081958	-1.205109	0.814787
Zn7	Zn	0.168042	-0.955109	1.064787
Zn8	Zn	0.418042	-0.705109	1.314787
Zn9	Zn	-0.331973	-1.293903	0.403512
Zn10	Zn	-0.081973	-1.043903	0.653512
Zn11	Zn	0.168027	-0.793903	0.903512
Zn12	Zn	0.418027	-0.543903	1.153512
Zn13	Zn	-0.471327	-1.285704	0.572917
Zn14	Zn	-0.221327	-1.035704	0.822917
Zn15	Zn	0.028673	-0.785704	1.072917
Zn16	Zn	0.278673	-0.535704	1.322917
O17	O	-0.401656	-1.370437	0.488219
O18	O	-0.151656	-1.120437	0.738219
O19	O	0.098344	-0.870437	0.988219
O20	O	0.348344	-0.620437	1.238219
O21	O	-0.452884	-1.583083	0.431981
O22	O	-0.202884	-1.333083	0.681981
O23	O	0.047116	-1.083083	0.931981
O24	O	0.297116	-0.833083	1.181981
O25	O	-0.215297	-1.440537	0.536581
O26	O	0.034703	-1.190537	0.786581
O27	O	0.284703	-0.940537	1.036581
O28	O	0.534703	-0.690537	1.286581
O29	O	-0.350486	-1.314266	0.269613
O30	O	-0.100486	-1.064266	0.519613
O31	O	0.149514	-0.814266	0.769613
O32	O	0.399514	-0.564266	1.019613
O33	O	-0.350461	-1.589018	0.544483
O34	O	-0.100461	-1.339018	0.794483
O35	O	0.149539	-1.089018	1.044483
O36	O	0.399539	-0.839018	1.294483
O37	O	-0.452898	-1.426769	0.275600
O38	O	-0.202898	-1.176769	0.525600
O39	O	0.047102	-0.926769	0.775600
O40	O	0.297102	-0.676769	1.025600
O41	O	-0.215308	-1.322099	0.418094
O42	O	0.034692	-1.072099	0.668094
O43	O	0.284692	-0.822099	0.918094
O44	O	0.534692	-0.572099	1.168094
O45	O	-0.350448	-1.157834	0.425976
O46	O	-0.100448	-0.907834	0.675976
O47	O	0.149552	-0.657834	0.925976
O48	O	0.399552	-0.407834	1.175976
O49	O	-0.587995	-1.300292	0.558338
O50	O	-0.337995	-1.050292	0.808338
O51	O	-0.087995	-0.800292	1.058338
O52	O	0.162005	-0.550292	1.308338
O53	O	-0.452831	-1.151811	0.550437
O54	O	-0.202831	-0.901811	0.800437
O55	O	0.047169	-0.651811	1.050437
O56	O	0.297169	-0.401811	1.300437
O57	O	-0.588024	-1.418818	0.439864
O58	O	-0.338024	-1.168818	0.689864
O59	O	-0.088024	-0.918818	0.939864
O60	O	0.161976	-0.668818	1.189864
O61	O	-0.350423	-1.432586	0.700846
O62	O	-0.100423	-1.182586	0.950846
O63	O	0.149577	-0.932586	1.200846
O64	O	0.399577	-0.682586	1.450846
O65	O	-0.452816	-1.308125	0.706819
O66	O	-0.202816	-1.058125	0.956819
O67	O	0.047184	-0.808125	1.206819
O68	O	0.297184	-0.558125	1.456819
C69	C	-0.401632	-1.370368	0.738832
C70	C	-0.151632	-1.120368	0.988832
C71	C	0.098368	-0.870368	1.238832
C72	C	0.348368	-0.620368	1.488832
C73	C	-0.401649	-1.370425	0.846047
C74	C	-0.151649	-1.120425	1.096047
C75	C	0.098351	-0.870425	1.346047
C76	C	0.348351	-0.620425	1.596047
C77	C	-0.401637	-1.119823	0.488205
C78	C	-0.151637	-0.869823	0.738205
C79	C	0.098363	-0.619823	0.988205
C80	C	0.348363	-0.369823	1.238205
C81	C	-0.401649	-1.012609	0.488224
C82	C	-0.151649	-0.762609	0.738224
C83	C	0.098351	-0.512609	0.988224
C84	C	0.348351	-0.262609	1.238224
C85	C	-0.619105	-1.357740	0.500917
C86	C	-0.369105	-1.107740	0.750917
C87	C	-0.119105	-0.857740	1.000917
C88	C	0.130895	-0.607740	1.250917
C89	C	-0.711769	-1.352329	0.506328
C90	C	-0.461769	-1.102329	0.756328
C91	C	-0.211769	-0.852329	1.006328
C92	C	0.038231	-0.602329	1.256328
C93	C	-0.881426	-1.342415	0.516186
C94	C	-0.631426	-1.092415	0.766186
C95	C	-0.381426	-0.842415	1.016186
C96	C	-0.131426	-0.592415	1.266186
C97	C	-0.922737	-1.398648	0.459964
C98	C	-0.672737	-1.148648	0.709964
C99	C	-0.422737	-0.898648	0.959964
C100	C	-0.172737	-0.648648	1.209964
C101	C	-1.017141	-1.393132	0.465449
C102	C	-0.767141	-1.143132	0.715449
C103	C	-0.517141	-0.893132	0.965449
C104	C	-0.267141	-0.643132	1.215449
C105	C	-0.787014	-1.347930	0.510702
C106	C	-0.537014	-1.097930	0.760702
C107	C	-0.287014	-0.847930	1.010702
C108	C	-0.037014	-0.597930	1.260702
C109	C	-0.185053	-1.383140	0.475502
C110	C	0.064947	-1.133140	0.725502
C111	C	0.314947	-0.883140	0.975502
C112	C	0.564947	-0.633140	1.225502
C113	C	-0.092390	-1.388737	0.469819
C114	C	0.157610	-1.138737	0.719819
C115	C	0.407610	-0.888737	0.969819
C116	C	0.657610	-0.638737	1.219819
C117	C	-0.401675	-1.622028	0.488234
C118	C	-0.151675	-1.372028	0.738234
C119	C	0.098325	-1.122028	0.988234
C120	C	0.348325	-0.872028	1.238234
C121	C	-0.401684	-1.729242	0.488240
C122	C	-0.151684	-1.479242	0.738240
C123	C	0.098316	-1.229242	0.988240
C124	C	0.348316	-0.979242	1.238240
C125	C	-0.401670	-0.816312	0.488229
C126	C	-0.151670	-0.566312	0.738229
C127	C	0.098330	-0.316312	0.988229
C128	C	0.348330	-0.066312	1.238229
C129	C	-0.401656	-0.925546	0.488223
C130	C	-0.151656	-0.675546	0.738223
C131	C	0.098344	-0.425546	0.988223
C132	C	0.348344	-0.175546	1.238223
C133	C	-0.401698	-1.370531	0.236629
C134	C	-0.151698	-1.120531	0.486629
C135	C	0.098302	-0.870531	0.736629
C136	C	0.348302	-0.620531	0.986629
C137	C	-0.401716	-1.370571	0.129416
C138	C	-0.151716	-1.120571	0.379416
C139	C	0.098284	-0.870571	0.629416
C140	C	0.348284	-0.620571	0.879416
C141	C	-0.401702	-1.370523	1.042345
C142	C	-0.151702	-1.120523	1.292345
C143	C	0.098298	-0.870523	1.542345
C144	C	0.348298	-0.620523	1.792345
C145	C	-0.401675	-1.370465	0.933111
C146	C	-0.151675	-1.120465	1.183111
C147	C	0.098325	-0.870465	1.433111
C148	C	0.348325	-0.620465	1.683111
H149	H	-0.887205	-1.450934	0.407711
H150	H	-0.637205	-1.200934	0.657711
H151	H	-0.387205	-0.950934	0.907711
H152	H	-0.137205	-0.700934	1.157711
H153	H	-0.916956	-1.290134	0.568435
H154	H	-0.666956	-1.040134	0.818435
H155	H	-0.416956	-0.790134	1.068435
H156	H	-0.166956	-0.540134	1.318435
