data_functionalizedCrystal
_audit_creation_method	'MofGen! by Chris Wilmer'
_symmetry_space_group_name_H-M	'P1'
_symmetry_Int_Tables_number	1
_symmetry_cell_setting	triclinic
loop_
_symmetry_equiv_pos_as_xyz
  x,y,z
_cell_length_a	11.169417
_cell_length_b	29.839131
_cell_length_c	11.169406
_cell_angle_alpha	89.944602
_cell_angle_beta	89.969003
_cell_angle_gamma	90.042299
loop_
_atom_site_label
_atom_site_type_symbol
_atom_site_fract_x
_atom_site_fract_y
_atom_site_fract_z
Zn1	Zn	1.834836	-0.178739	-0.678478
Zn2	Zn	1.834577	-0.253900	-0.477768
Zn3	Zn	1.634082	-0.178786	-0.477812
Zn4	Zn	1.634020	-0.253844	-0.678413
O5	O	1.734379	-0.216317	-0.578118
O6	O	2.002751	-0.188713	-0.651862
O7	O	1.807899	-0.243980	-0.309824
O8	O	1.660847	-0.115913	-0.504477
O9	O	2.002561	-0.243934	-0.504401
O10	O	1.808340	-0.115878	-0.651906
O11	O	1.660596	-0.188794	-0.309857
O12	O	1.466124	-0.188739	-0.504414
O13	O	1.660741	-0.243837	-0.846371
O14	O	1.466079	-0.243883	-0.651794
O15	O	1.808279	-0.188658	-0.846419
O16	O	1.807838	-0.316760	-0.504338
O17	O	1.660490	-0.316718	-0.651751
C18	C	1.422554	-0.216310	-0.578102
C19	C	1.289154	-0.216318	-0.578124
C20	C	1.734162	-0.333040	-0.578058
C21	C	1.734179	-0.382974	-0.578073
C22	C	1.811242	-0.692626	-0.501472
C23	C	1.811391	-0.880300	-0.501519
O24	O	1.876741	-0.904572	-0.436344
N25	N	1.734628	-0.903759	-0.578208
C26	C	1.657828	-0.880298	-0.654897
O27	O	1.592548	-0.904558	-0.720136
C28	C	1.657686	-0.692625	-0.654856
C29	C	1.734446	-0.669168	-0.578153
C30	C	1.887997	-0.669169	-0.424776
C31	C	1.887954	-0.622254	-0.424760
C32	C	1.811158	-0.598796	-0.501441
C33	C	1.734403	-0.622253	-0.578137
C34	C	1.580893	-0.669165	-0.731550
C35	C	1.580867	-0.622244	-0.731535
C36	C	1.657626	-0.598787	-0.654832
C37	C	1.657564	-0.551879	-0.654802
N38	N	1.734327	-0.528420	-0.578113
C39	C	1.811124	-0.551878	-0.501432
C40	C	1.657906	-0.978828	-0.654912
C41	C	1.657939	-1.025746	-0.654921
C42	C	1.811504	-1.025745	-0.501543
C43	C	1.811464	-0.978826	-0.501529
C44	C	1.734669	-0.955369	-0.578222
C45	C	1.811028	-0.453352	-0.501404
C46	C	1.810976	-0.406432	-0.501392
C47	C	1.657416	-0.406438	-0.654774
C48	C	1.657463	-0.453353	-0.654782
C49	C	1.734280	-0.476809	-0.578093
O50	O	1.592258	-0.527578	-0.719952
O51	O	1.876413	-0.527610	-0.436221
C52	C	1.811285	-0.739542	-0.501487
C53	C	1.734531	-0.762999	-0.578184
C54	C	1.657734	-0.739541	-0.654864
C55	C	1.734564	-0.809917	-0.578193
C56	C	1.811361	-0.833375	-0.501512
C57	C	1.888124	-0.809916	-0.424822
C58	C	1.888082	-0.763000	-0.424807
C59	C	1.580971	-0.763001	-0.731554
C60	C	1.581019	-0.809916	-0.731562
C61	C	1.657815	-0.833374	-0.654882
C62	C	2.047421	-0.216324	-0.578134
C63	C	2.180821	-0.216327	-0.578141
C64	C	1.734532	-0.216236	-0.891161
C65	C	1.734597	-0.216201	-1.024561
C66	C	1.734629	-0.099139	-0.578204
C67	C	1.734736	-0.049204	-0.578240
C68	C	1.734295	-0.216366	-0.266293
C69	C	1.734462	-0.216274	-0.132893
H70	H	1.873582	-0.472444	-0.438960
H71	H	1.950651	-0.829023	-0.362383
H72	H	1.518501	-0.829011	-0.794022
H73	H	1.518382	-0.688256	-0.794005
H74	H	1.873968	-0.959730	-0.439072
O75	O	1.583533	-1.048579	-0.729482
C76	C	1.567375	-1.101465	-0.891584
C77	C	1.651769	-1.075645	-0.807190
H78	H	1.622511	-1.123347	-0.954448
H79	H	1.504666	-1.123507	-0.836508
H80	H	1.512462	-1.076625	-0.946330
H81	H	1.706760	-1.100452	-0.752426
H82	H	1.714400	-1.053597	-0.862334
H83	H	1.950462	-0.603158	-0.362306
O84	O	1.886140	-1.048606	-0.427240
C85	C	1.954353	-1.120891	-0.359422
C86	C	1.869741	-1.095055	-0.443591
H87	H	1.941106	-1.158450	-0.372595
H88	H	2.051107	-1.111637	-0.380688
H89	H	1.933426	-1.111709	-0.262599
H90	H	1.890560	-1.104223	-0.540442
H91	H	1.773013	-1.104311	-0.422223
O92	O	1.506156	-0.599528	-0.806079
C93	C	1.353919	-0.604485	-0.958283
C94	C	1.438445	-0.630265	-0.873905
H95	H	1.299172	-0.629325	-1.013160
H96	H	1.291073	-0.582577	-0.903191
H97	H	1.409009	-0.582461	-1.021025
H98	H	1.383453	-0.652313	-0.811146
H99	H	1.501295	-0.652144	-0.929071
O100	O	1.582859	-0.476073	-0.729399
C101	C	1.430501	-0.471117	-0.881487
C102	C	1.514937	-0.445336	-0.797051
H103	H	1.375546	-0.446277	-0.936188
H104	H	1.485553	-0.493018	-0.944381
H105	H	1.367835	-0.493146	-0.826329
H106	H	1.577620	-0.423282	-0.852112
H107	H	1.459811	-0.423462	-0.734154
H108	H	1.873482	-0.387335	-0.438927
H109	H	1.950540	-0.688264	-0.362333
H110	H	1.950586	-0.743905	-0.362348
O111	O	1.583179	-0.956114	-0.729446
C112	C	1.430905	-0.961080	-0.881610
C113	C	1.515459	-0.986856	-0.797250
H114	H	1.376150	-0.985923	-0.936470
H115	H	1.368068	-0.939173	-0.826506
H116	H	1.485974	-0.939055	-0.944370
H117	H	1.460487	-1.008904	-0.734474
H118	H	1.578299	-1.008734	-0.852429
H119	H	1.594885	-0.387331	-0.717203
H120	H	1.518435	-0.743905	-0.793998
