data_functionalizedCrystal
_audit_creation_method	'MofGen! by Chris Wilmer'
_symmetry_space_group_name_H-M	'P1'
_symmetry_Int_Tables_number	1
_symmetry_cell_setting	triclinic
loop_
_symmetry_equiv_pos_as_xyz
  x,y,z
_cell_length_a	6.817900
_cell_length_b	15.301126
_cell_length_c	12.200875
_cell_angle_alpha	94.042470
_cell_angle_beta	107.143593
_cell_angle_gamma	104.177575
loop_
_atom_site_label
_atom_site_type_symbol
_atom_site_fract_x
_atom_site_fract_y
_atom_site_fract_z
V1	V	-4.071837	-0.124964	-0.358010
O2	O	-4.054876	0.005794	-0.350836
O3	O	-4.026524	-0.247580	-0.355907
O4	O	-4.041509	-0.123134	-0.513993
O5	O	-4.039788	-0.119513	-0.191655
V6	V	-4.552723	-0.109313	-0.338071
O7	O	-4.338879	-0.159296	-0.401749
O8	O	-4.735879	-0.074981	-0.294332
O9	O	-4.374830	0.013303	-0.340174
O10	O	-4.687081	-0.240071	-0.345245
O11	O	-4.702170	-0.114764	-0.504426
O12	O	-4.359845	-0.111142	-0.182088
C13	C	-3.871691	-0.277468	-0.350348
C14	C	-3.916049	-0.377708	-0.349668
C15	C	-4.119790	-0.429397	-0.355083
C16	C	-4.161461	-0.523585	-0.354451
C17	C	-3.999384	-0.566080	-0.348395
C18	C	-3.795627	-0.514384	-0.342983
C19	C	-3.753964	-0.420200	-0.343623
C20	C	-3.882480	-0.710694	-0.341645
C21	C	-3.924144	-0.804885	-0.341002
C22	C	-4.289977	-0.814079	-0.352472
C23	C	-4.248314	-0.719895	-0.353113
C24	C	-4.044558	-0.668205	-0.347699
C25	C	-3.890804	-0.118724	-0.552002
C26	C	-3.947311	-0.118039	-0.679521
C27	C	-4.050728	-0.116787	-0.912992
C28	C	-3.993171	-0.117483	-0.783072
C29	C	-4.193005	0.043186	-0.345730
C30	C	-4.127886	0.143426	-0.346418
C31	C	-4.173891	-0.115555	-0.144073
C32	C	-4.096622	-0.116236	-0.016553
H33	H	-4.251773	-0.394804	-0.360003
N34	N	-3.749320	-0.850715	-0.334441
H35	H	-3.806628	-0.918221	-0.334836
H36	H	-3.626270	-0.823431	-0.260572
H37	H	-3.716568	-0.668612	-0.337245
N38	N	-3.620804	-0.560214	-0.336433
H39	H	-3.665840	-0.607892	-0.407367
H40	H	-3.594112	-0.590224	-0.264396
N41	N	-3.534211	-0.364452	-0.337789
H42	H	-3.425568	-0.370030	-0.263706
H43	H	-3.532602	-0.298364	-0.339168
N44	N	-4.381212	-0.579337	-0.360295
H45	H	-4.477561	-0.538124	-0.364222
H46	H	-4.370546	-0.609819	-0.288815
N47	N	-4.423124	-0.674058	-0.359658
H48	H	-4.558530	-0.721095	-0.363001
H49	H	-4.449698	-0.643987	-0.431647
H50	H	-4.455875	-0.856167	-0.356864
