data_functionalizedCrystal
_audit_creation_method	'MofGen! by Chris Wilmer'
_symmetry_space_group_name_H-M	'P1'
_symmetry_Int_Tables_number	1
_symmetry_cell_setting	triclinic
loop_
_symmetry_equiv_pos_as_xyz
  x,y,z
_cell_length_a	21.395364
_cell_length_b	11.169409
_cell_length_c	21.395361
_cell_angle_alpha	90.041458
_cell_angle_beta	89.954341
_cell_angle_gamma	89.976827
loop_
_atom_site_label
_atom_site_type_symbol
_atom_site_fract_x
_atom_site_fract_y
_atom_site_fract_z
Zn1	Zn	0.957851	-0.678574	0.249138
Zn2	Zn	1.457851	-0.178574	0.749138
Zn3	Zn	0.957756	-0.477859	0.353934
Zn4	Zn	1.457756	0.022141	0.853934
Zn5	Zn	0.853068	-0.477897	0.249202
Zn6	Zn	1.353068	0.022103	0.749202
Zn7	Zn	0.853035	-0.678492	0.353909
Zn8	Zn	1.353035	-0.178492	0.853909
O9	O	0.905427	-0.578206	0.301546
O10	O	1.405427	-0.078206	0.801546
O11	O	1.045516	-0.651967	0.263023
O12	O	1.545516	-0.151967	0.763023
O13	O	0.943843	-0.309914	0.340079
O14	O	1.443843	0.190086	0.840079
O15	O	0.867022	-0.504567	0.161515
O16	O	1.367022	-0.004567	0.661515
O17	O	1.045446	-0.504503	0.340017
O18	O	1.545446	-0.004503	0.840017
O19	O	0.944005	-0.652004	0.161468
O20	O	1.444005	-0.152004	0.661468
O21	O	0.866929	-0.309942	0.263132
O22	O	1.366929	0.190058	0.763132
O23	O	0.765386	-0.504488	0.263108
O24	O	1.265386	-0.004488	0.763108
O25	O	0.866965	-0.846453	0.339973
O26	O	1.366965	-0.346453	0.839973
O27	O	0.765361	-0.651864	0.340035
O28	O	1.265361	-0.151864	0.840035
O29	O	0.943973	-0.846513	0.262999
O30	O	1.443973	-0.346513	0.762999
O31	O	0.943811	-0.504423	0.441609
O32	O	1.443811	-0.004423	0.941609
O33	O	0.866873	-0.651828	0.441590
O34	O	1.366873	-0.151828	0.941590
C35	C	0.742640	-0.578172	0.301576
C36	C	1.242640	-0.078172	0.801576
C37	C	0.672999	-0.578186	0.301604
C38	C	1.172999	-0.078186	0.801604
C39	C	0.640344	-0.655089	0.261579
C40	C	1.140344	-0.155089	0.761579
C41	C	0.574909	-0.655094	0.261563
C42	C	1.074909	-0.155094	0.761563
C43	C	0.542130	-0.578208	0.301582
C44	C	1.042130	-0.078208	0.801582
C45	C	0.574793	-0.501289	0.341610
C46	C	1.074793	-0.001289	0.841610
C47	C	0.640227	-0.501278	0.341621
C48	C	1.140227	-0.001278	0.841621
C49	C	0.438406	-0.568552	0.358009
C50	C	0.938406	-0.068552	0.858009
C51	C	0.372973	-0.568572	0.357999
C52	C	0.872973	-0.068572	0.857999
C53	C	0.340310	-0.578234	0.301548
C54	C	0.840310	-0.078234	0.801548
C55	C	0.373087	-0.587903	0.245105
C56	C	0.873087	-0.087903	0.745105
C57	C	0.438521	-0.587892	0.245116
C58	C	0.938521	-0.087892	0.745116
C59	C	0.471178	-0.578211	0.301574
C60	C	0.971178	-0.078211	0.801574
C61	C	0.236703	-0.655147	0.261501
C62	C	0.736703	-0.155147	0.761501
C63	C	0.171266	-0.655143	0.261484
C64	C	0.671266	-0.155143	0.761484
C65	C	0.171151	-0.501345	0.341536
C66	C	0.671151	-0.001345	0.841536
C67	C	0.236586	-0.501342	0.341548
C68	C	0.736586	-0.001342	0.841548
C69	C	0.269358	-0.578250	0.301532
C70	C	0.769358	-0.078250	0.801532
C71	C	0.905476	-0.891248	0.301476
C72	C	1.405476	-0.391248	0.801476
C73	C	0.905496	-1.024648	0.301446
C74	C	1.405496	-0.524648	0.801446
C75	C	1.068851	-0.578240	0.301516
C76	C	1.568851	-0.078240	0.801516
C77	C	1.138492	-0.578255	0.301503
C78	C	1.638492	-0.078255	0.801503
C79	C	0.905345	-0.578139	0.464333
C80	C	1.405345	-0.078139	0.964333
C81	C	0.905367	-0.578150	0.533975
C82	C	1.405367	-0.078150	1.033975
C83	C	0.905416	-0.266381	0.301570
C84	C	1.405416	0.233619	0.801570
C85	C	0.905516	-0.132981	0.301423
C86	C	1.405516	0.367019	0.801423
C87	C	0.905528	-0.578299	0.138122
C88	C	1.405528	-0.078299	0.638122
C89	C	0.905570	-0.578339	0.068481
C90	C	1.405570	-0.078339	0.568481
C91	C	0.945464	-0.501476	0.566677
C92	C	1.445464	-0.001476	1.066677
C93	C	0.945493	-0.501502	0.632112
C94	C	1.445493	-0.001502	1.132112
C95	C	0.905414	-0.578191	0.664843
C96	C	1.405414	-0.078191	1.164843
C97	C	0.865314	-0.654881	0.632133
C98	C	1.365314	-0.154881	1.132133
C99	C	0.865290	-0.654861	0.566699
C100	C	1.365290	-0.154861	1.066699
C101	C	0.848999	-0.587597	0.768571
C102	C	1.348999	-0.087597	1.268571
C103	C	0.849021	-0.587609	0.834004
C104	C	1.349021	-0.087609	1.334004
C105	C	0.905487	-0.578262	0.866664
C106	C	1.405487	-0.078262	1.366664
C107	C	0.961931	-0.568878	0.833882
C108	C	1.461931	-0.068878	1.333882
C109	C	0.961908	-0.568857	0.768448
C110	C	1.461908	-0.068857	1.268448
C111	C	0.905435	-0.578223	0.735795
C112	C	1.405435	-0.078223	1.235795
C113	C	0.945619	-0.501612	0.970318
C114	C	1.445619	-0.001612	1.470318
C115	C	0.945649	-0.501647	1.035755
C116	C	1.445649	-0.001647	1.535755
C117	C	0.865464	-0.655020	1.035774
C118	C	1.365464	-0.155020	1.535774
C119	C	0.865440	-0.654991	0.970339
C120	C	1.365440	-0.154991	1.470339
C121	C	0.905516	-0.578281	0.937615
C122	C	1.405516	-0.078281	1.437615
H123	H	0.548316	-0.717716	0.228967
H124	H	1.048316	-0.217716	0.728967
C125	C	0.989758	-0.417300	1.071727
C126	C	1.489758	0.082700	1.571727
H127	H	1.013616	-0.371607	1.042864
H128	H	1.513616	0.128393	1.542864
H129	H	1.017057	-0.463260	1.097199
H130	H	1.517057	0.036740	1.597199
H131	H	0.965807	-0.364974	1.097305
H132	H	1.465807	0.135026	1.597305
H133	H	0.346494	-0.595771	0.199137
H134	H	0.846494	-0.095771	0.699137
C135	C	0.821379	-0.739383	1.071768
C136	C	1.321379	-0.239383	1.571768
H137	H	0.797496	-0.785049	1.042917
H138	H	1.297496	-0.285049	1.542917
H139	H	0.794101	-0.693437	1.097349
H140	H	1.294101	-0.193437	1.597349
H141	H	0.845347	-0.791732	1.097238
H142	H	1.345347	-0.291732	1.597238
C143	C	0.474577	-0.598517	0.183037
C144	C	0.974577	-0.098517	0.683037
H145	H	0.518224	-0.597134	0.191131
H146	H	1.018224	-0.097134	0.691131
H147	H	0.463864	-0.533326	0.156640
H148	H	0.963864	-0.033326	0.656640
H149	H	0.463894	-0.671663	0.163044
H150	H	0.963894	-0.171663	0.663044
C151	C	0.272754	-0.739730	0.217481
C152	C	0.772754	-0.239730	0.717481
H153	H	0.243932	-0.785521	0.193634
H154	H	0.743932	-0.285521	0.693634
H155	H	0.298269	-0.791936	0.241483
H156	H	0.798269	-0.291936	0.741483
H157	H	0.298296	-0.693905	0.190158
H158	H	0.798296	-0.193905	0.690158
C159	C	0.676390	-0.739669	0.217555
C160	C	1.176390	-0.239669	0.717555
H161	H	0.647566	-0.785462	0.193711
H162	H	1.147566	-0.285462	0.693711
H163	H	0.701909	-0.791873	0.241554
H164	H	1.201909	-0.291873	0.741554
H165	H	0.701926	-0.693839	0.190230
H166	H	1.201926	-0.193839	0.690230
C167	C	0.135103	-0.416777	0.385560
C168	C	0.635103	0.083223	0.885560
H169	H	0.091455	-0.427802	0.379825
H170	H	0.591455	0.072198	0.879825
H171	H	0.145814	-0.336167	0.376349
H172	H	0.645814	0.163833	0.876349
H173	H	0.145791	-0.434206	0.427671
H174	H	0.645791	0.065794	0.927671
C175	C	0.989599	-0.417158	0.668095
C176	C	1.489599	0.082842	1.168095
H177	H	0.983875	-0.428164	0.711752
H178	H	1.483875	0.071836	1.211752
H179	H	0.980446	-0.336499	0.657420
H180	H	1.480446	0.163501	1.157420
H181	H	1.031692	-0.434795	0.657316
H182	H	1.531692	0.065205	1.157316
C183	C	0.989553	-0.417111	0.530683
C184	C	1.489553	0.082889	1.030683
H185	H	1.013442	-0.371458	0.559535
H186	H	1.513442	0.128542	1.059535
H187	H	0.965594	-0.364768	0.505206
H188	H	1.465594	0.135232	1.005206
H189	H	1.016834	-0.463073	0.505108
H190	H	1.516834	0.036927	1.005108
H191	H	1.007866	-0.561219	0.741759
H192	H	1.507866	-0.061219	1.241759
H193	H	0.832638	-0.717300	0.540072
H194	H	1.332638	-0.217300	1.040072
C195	C	0.786885	-0.597877	0.732649
C196	C	1.286885	-0.097877	1.232649
H197	H	0.794954	-0.596532	0.688984
H198	H	1.294954	-0.096532	1.188984
H199	H	0.760552	-0.532545	0.743433
H200	H	1.260552	-0.032545	1.243433
H201	H	0.766834	-0.670916	0.743361
H202	H	1.266834	-0.170916	1.243361
C203	C	0.538739	-0.416722	0.385633
C204	C	1.038739	0.083278	0.885633
H205	H	0.495092	-0.427752	0.379899
H206	H	0.995092	0.072248	0.879899
H207	H	0.549448	-0.336112	0.376419
H208	H	1.049448	0.163888	0.876419
H209	H	0.549429	-0.434145	0.427744
H210	H	1.049429	0.065855	0.927744
C211	C	0.135346	-0.739742	0.217454
C212	C	0.635346	-0.239742	0.717454
H213	H	0.164238	-0.785547	0.193629
H214	H	0.664238	-0.285547	0.693629
H215	H	0.109836	-0.693938	0.190120
H216	H	0.609836	-0.193938	0.690120
H217	H	0.109810	-0.791952	0.241454
H218	H	0.609810	-0.291952	0.741454
C219	C	0.272508	-0.416761	0.385583
C220	C	0.772508	0.083239	0.885583
H221	H	0.243616	-0.370976	0.409419
H222	H	0.743616	0.129024	0.909419
H223	H	0.298045	-0.364548	0.361591
H224	H	0.798045	0.135452	0.861591
H225	H	0.298017	-0.462581	0.412916
H226	H	0.798017	0.037419	0.912916
H227	H	1.007911	-0.561267	0.860472
H228	H	1.507911	-0.061267	1.360472
H229	H	0.832786	-0.717422	0.943711
H230	H	1.332786	-0.217422	1.443711
C231	C	0.989707	-0.417254	0.934316
C232	C	1.489707	0.082746	1.434316
H233	H	0.983945	-0.428212	0.890661
H234	H	1.483945	0.071788	1.390661
H235	H	1.031803	-0.434902	0.944981
H236	H	1.531803	0.065098	1.444981
H237	H	0.980562	-0.336596	0.945088
H238	H	1.480562	0.163404	1.445088
H239	H	0.346291	-0.560705	0.403958
H240	H	0.846291	-0.060705	0.903958
C241	C	0.474330	-0.557932	0.420109
C242	C	0.974330	-0.057932	0.920109
H243	H	0.445439	-0.552197	0.453722
H244	H	0.945439	-0.052197	0.953722
H245	H	0.499841	-0.488365	0.419264
H246	H	0.999841	0.011635	0.919264
H247	H	0.499865	-0.626704	0.425656
H248	H	0.999865	-0.126704	0.925656
C249	C	0.676148	-0.416692	0.385656
C250	C	1.176148	0.083308	0.885656
H251	H	0.647257	-0.370904	0.409491
H252	H	1.147257	0.129096	0.909491
H253	H	0.701688	-0.364482	0.361665
H254	H	1.201688	0.135518	0.861665
H255	H	0.701655	-0.462516	0.412989
H256	H	1.201655	0.037484	0.912989
H257	H	0.803061	-0.595238	0.860690
H258	H	1.303061	-0.095238	1.360690
C259	C	0.821227	-0.739234	0.668134
C260	C	1.321227	-0.239234	1.168134
H261	H	0.826979	-0.728257	0.711788
H262	H	1.326979	-0.228257	1.211788
H263	H	0.830370	-0.819887	0.657364
H264	H	1.330370	-0.319887	1.157364
H265	H	0.779128	-0.721585	0.657466
H266	H	1.279128	-0.221585	1.157466
