data_functionalizedCrystal
_audit_creation_method	'MofGen! by Chris Wilmer'
_symmetry_space_group_name_H-M	'P1'
_symmetry_Int_Tables_number	1
_symmetry_cell_setting	triclinic
loop_
_symmetry_equiv_pos_as_xyz
  x,y,z
_cell_length_a	19.288840
_cell_length_b	27.731996
_cell_length_c	17.766277
_cell_angle_alpha	89.987644
_cell_angle_beta	89.983415
_cell_angle_gamma	82.873701
loop_
_atom_site_label
_atom_site_type_symbol
_atom_site_fract_x
_atom_site_fract_y
_atom_site_fract_z
O1	O	0.920972	0.060244	-0.062730
O2	O	0.718656	0.068391	-0.062705
O3	O	0.826116	-0.006063	-0.062702
O4	O	0.813512	0.134697	-0.062733
O5	O	0.826098	-0.006066	0.062487
O6	O	0.718637	0.068387	0.062484
O7	O	0.920953	0.060240	0.062459
Cu8	Cu	0.819794	0.064313	0.073902
Cu9	Cu	0.819816	0.064318	-0.074148
O10	O	0.813493	0.134693	0.062456
C11	C	0.692772	0.068129	-0.000107
C12	C	0.615672	0.067348	-0.000097
C13	C	0.579481	0.066975	-0.068339
C14	C	0.507039	0.066236	-0.068348
C15	C	0.470793	0.065860	-0.000111
C16	C	0.506992	0.066236	0.068140
C17	C	0.579432	0.066980	0.068147
C18	C	0.361649	0.036367	0.052164
C19	C	0.289211	0.035620	0.052154
C20	C	0.247364	0.063568	-0.000130
C21	C	0.277965	0.092256	-0.052417
C22	C	0.350404	0.093000	-0.052410
C23	C	0.392244	0.065054	-0.000111
C24	C	0.132623	0.062394	-0.068387
C25	C	0.060179	0.061658	-0.068393
C26	C	0.060134	0.061653	0.068097
C27	C	0.132576	0.062394	0.068101
C28	C	0.168816	0.062762	-0.000143
C29	C	0.825848	-0.024073	-0.000105
C30	C	0.825068	-0.077731	-0.000097
C31	C	0.820172	-0.410460	-0.068374
C32	C	0.817210	-0.612127	-0.068386
O33	O	0.816806	-0.638197	-0.126423
N34	N	0.816832	-0.637347	-0.000147
C35	C	0.817190	-0.612147	0.068101
O36	O	0.816793	-0.638225	0.126143
C37	C	0.820146	-0.410481	0.068113
C38	C	0.820532	-0.385264	-0.000131
C39	C	0.820556	-0.385243	-0.136612
C40	C	0.821300	-0.334829	-0.136608
C41	C	0.821660	-0.309633	-0.068366
C42	C	0.821276	-0.334850	-0.000127
C43	C	0.820499	-0.385281	0.136360
C44	C	0.821237	-0.334861	0.136357
C45	C	0.821622	-0.309644	0.068113
C46	C	0.822380	-0.259241	0.068119
N47	N	0.822758	-0.234020	-0.000120
C48	C	0.822398	-0.259217	-0.068363
C49	C	0.815639	-0.718025	0.068090
C50	C	0.814901	-0.768442	0.068087
C51	C	0.814920	-0.768418	-0.068401
C52	C	0.815663	-0.718001	-0.068397
C53	C	0.816017	-0.692805	-0.000150
C54	C	0.823961	-0.153345	-0.068350
C55	C	0.824708	-0.102927	-0.068340
C56	C	0.824686	-0.102955	0.068148
C57	C	0.823942	-0.153369	0.068138
C58	C	0.823578	-0.178562	-0.000117
O59	O	0.822776	-0.233139	0.126125
O60	O	0.822779	-0.233128	-0.126396
C61	C	0.819428	-0.460873	-0.068377
C62	C	0.819043	-0.486090	-0.000139
C63	C	0.819403	-0.460894	0.068104
C64	C	0.818305	-0.536507	-0.000142
C65	C	0.817945	-0.561703	-0.068384
C66	C	0.818323	-0.536483	-0.136624
C67	C	0.819068	-0.486070	-0.136620
C68	C	0.819025	-0.486114	0.136343
C69	C	0.818282	-0.536528	0.136334
C70	C	0.817922	-0.561724	0.068091
C71	C	0.946838	0.060502	-0.000140
C72	C	1.023937	0.061283	-0.000156
C73	C	0.813761	0.152703	-0.000143
C74	C	0.814541	0.206362	-0.000155
N75	N	0.819783	0.064310	0.178032
N76	N	0.819832	0.064317	-0.178278
C77	C	0.867382	0.031358	0.217421
C78	C	0.867386	0.031356	0.296222
C79	C	0.819798	0.064314	0.335633
C80	C	0.772190	0.097268	0.296235
C81	C	0.772183	0.097266	0.217435
C82	C	0.810212	0.108358	0.460462
C83	C	0.810224	0.108360	0.539261
C84	C	0.819816	0.064319	0.578679
C85	C	0.829411	0.020274	0.539289
C86	C	0.829404	0.020272	0.460489
C87	C	0.819800	0.064319	0.421079
C88	C	0.867422	0.031362	0.703513
C89	C	0.867421	0.031359	0.782317
C90	C	0.772229	0.097276	0.782328
C91	C	0.772226	0.097275	0.703526
C92	C	0.819827	0.064318	0.664124
H93	H	0.477475	0.065931	0.123699
H94	H	0.821611	-0.314302	-0.192180
N95	N	0.839767	-0.027234	0.581786
H96	H	0.797618	-0.030033	0.614498
H97	H	0.845864	-0.055102	0.544821
H98	H	0.814598	-0.788970	0.123658
N99	N	0.918774	-0.004175	0.824804
H100	H	0.948930	-0.025047	0.787882
H101	H	0.949266	0.014289	0.857471
H102	H	0.733422	0.124100	0.185364
N103	N	0.720891	0.132823	0.661046
H104	H	0.747193	0.154177	0.628332
H105	H	0.690349	0.114374	0.628416
H106	H	0.608898	0.067284	0.123720
H107	H	0.375316	0.116361	-0.094982
N108	N	0.406781	0.006223	0.108562
H109	H	0.376407	-0.012067	0.141678
H110	H	0.441664	-0.017652	0.081015
N111	N	0.918731	-0.004181	0.338722
H112	H	0.892433	-0.025536	0.371439
H113	H	0.948873	-0.025026	0.301759
H114	H	0.906179	0.004526	0.671431
N115	N	0.799871	0.155864	0.581742
H116	H	0.838249	0.175952	0.568003
H117	H	0.753072	0.174243	0.568022
H118	H	0.825024	-0.082398	-0.123915
N119	N	0.171717	0.062793	-0.141988
H120	H	0.137794	0.062449	-0.185222
H121	H	0.195809	0.093060	-0.144963
H122	H	0.264303	0.012257	0.094725
N123	N	0.823543	-0.180569	0.141744
H124	H	0.866310	-0.205505	0.144777
H125	H	0.823864	-0.156920	0.184928
H126	H	0.733479	0.124109	0.814415
H127	H	0.608984	0.067275	-0.123909
N128	N	0.816026	-0.690853	0.141704
H129	H	0.815678	-0.714485	0.184927
H130	H	0.859410	-0.673954	0.144674
N131	N	0.467993	0.065834	-0.141954
H132	H	0.501943	0.066181	-0.185185
H133	H	0.443908	0.035565	-0.144917
N134	N	0.823588	-0.180515	-0.141965
H135	H	0.823952	-0.156885	-0.185187
H136	H	0.866363	-0.205446	-0.144931
H137	H	0.837214	-0.015591	0.428421
H138	H	0.820260	-0.405752	-0.192186
H139	H	0.818034	-0.557007	-0.192189
H140	H	0.815975	-0.697472	-0.123968
H141	H	0.030713	0.061357	-0.123966
H142	H	0.802389	0.144224	0.428374
H143	H	0.243893	0.115016	-0.094990
H144	H	0.733442	0.124102	0.328327
H145	H	0.030622	0.061350	0.123657
H146	H	0.162043	0.062695	0.123671
N147	N	0.814533	-0.795598	-0.142007
H148	H	0.814007	-0.831363	-0.131647
H149	H	0.771587	-0.782766	-0.171798
H150	H	0.820187	-0.405804	0.191932
N151	N	0.821630	-0.307689	0.209970
H152	H	0.822160	-0.271923	0.199623
H153	H	0.778419	-0.312487	0.239774
N154	N	0.825080	-0.075775	0.141749
H155	H	0.825608	-0.040011	0.131390
H156	H	0.781869	-0.080571	0.171554
H157	H	0.819381	-0.465542	-0.192191
N158	N	0.817872	-0.563721	0.209948
H159	H	0.774920	-0.550928	0.239782
H160	H	0.817372	-0.599477	0.199538
N161	N	0.819416	-0.458943	0.209951
H162	H	0.819065	-0.482574	0.253175
H163	H	0.862803	-0.442047	0.212920
H164	H	0.906139	0.004522	0.185341
