data_functionalizedCrystal
_audit_creation_method	'MofGen! by Chris Wilmer'
_symmetry_space_group_name_H-M	'P1'
_symmetry_Int_Tables_number	1
_symmetry_cell_setting	triclinic
loop_
_symmetry_equiv_pos_as_xyz
  x,y,z
_cell_length_a	10.654550
_cell_length_b	27.732025
_cell_length_c	9.730223
_cell_angle_alpha	90.013238
_cell_angle_beta	89.996251
_cell_angle_gamma	83.559187
loop_
_atom_site_label
_atom_site_type_symbol
_atom_site_fract_x
_atom_site_fract_y
_atom_site_fract_z
O1	O	1.664966	0.067884	-0.114354
O2	O	1.299214	0.074352	-0.114327
O3	O	1.493464	0.000792	-0.114383
O4	O	1.470716	0.141445	-0.114298
O5	O	1.493462	0.000793	0.114197
O6	O	1.299212	0.074354	0.114253
O7	O	1.664964	0.067886	0.114226
Zn8	Zn	1.482088	0.071120	0.150532
Zn9	Zn	1.482091	0.071118	-0.150632
O10	O	1.470714	0.141447	0.114282
C11	C	1.252435	0.073878	-0.000034
C12	C	1.113052	0.072457	-0.000027
C13	C	1.492990	-0.017218	-0.000107
C14	C	1.491565	-0.070882	-0.000147
C15	C	1.031737	0.115769	-0.000021
C16	C	0.900772	0.114431	-0.000045
C17	C	0.932452	0.026466	-0.000088
C18	C	1.063414	0.027805	-0.000054
C19	C	1.013445	0.166554	-0.000002
C20	C	0.882481	0.165216	-0.000026
C21	C	1.481444	-0.454111	-0.124665
C22	C	1.486776	-0.252419	-0.124710
O23	O	1.487517	-0.226348	-0.230680
N24	N	1.487441	-0.227192	-0.000115
C25	C	1.486782	-0.252393	0.124500
O26	O	1.487483	-0.226309	0.230475
C27	C	1.481459	-0.454085	0.124544
C28	C	1.480781	-0.479308	-0.000060
C29	C	1.480767	-0.479335	-0.249259
C30	C	1.479427	-0.529754	-0.249246
C31	C	1.478764	-0.554951	-0.124641
C32	C	1.479441	-0.529728	-0.000047
C33	C	1.480808	-0.479285	0.249157
C34	C	1.479481	-0.529711	0.249157
C35	C	1.478803	-0.554934	0.124554
C36	C	1.477438	-0.605344	0.124571
N37	N	1.476773	-0.630570	-0.000024
C38	C	1.477436	-0.605374	-0.124630
C39	C	1.489574	-0.146501	0.124469
C40	C	1.490902	-0.096078	0.124458
C41	C	1.490899	-0.096108	-0.124753
C42	C	1.489561	-0.146532	-0.124741
C43	C	1.488908	-0.171728	-0.000126
C44	C	1.474621	-0.711259	-0.124595
C45	C	1.473276	-0.761683	-0.124571
C46	C	1.473286	-0.761649	0.124639
C47	C	1.474625	-0.711229	0.124616
C48	C	1.475296	-0.686036	-0.000012
O49	O	1.476711	-0.631447	0.230485
O50	O	1.476762	-0.631468	-0.230589
C51	C	1.482784	-0.403692	-0.124678
C52	C	1.483460	-0.378468	-0.000085
C53	C	1.482797	-0.403665	0.124521
C54	C	1.484789	-0.328045	-0.000095
C55	C	1.485452	-0.302849	-0.124701
C56	C	1.484787	-0.328075	-0.249296
C57	C	1.483447	-0.378495	-0.249283
C58	C	1.483462	-0.378438	0.249116
C59	C	1.484801	-0.328019	0.249094
C60	C	1.485464	-0.302822	0.124488
C61	C	1.711743	0.068360	-0.000069
C62	C	1.851126	0.069781	-0.000086
C63	C	1.471188	0.159456	0.000003
C64	C	1.472613	0.213120	0.000035
N65	N	1.482095	0.071122	0.356068
N66	N	1.482093	0.071113	-0.356169
C67	C	1.568130	0.038560	0.427969
C68	C	1.568127	0.038554	0.571852
C69	C	1.396049	0.103676	0.571920
C70	C	1.396047	0.103679	0.428040
C71	C	1.667482	0.000964	0.427931
C72	C	1.667479	0.000959	0.571814
H73	H	0.892020	-0.009888	-0.000131
H74	H	0.836160	0.180565	0.098667
O75	O	1.491617	-0.068878	0.258857
H76	H	1.492643	-0.029581	0.237931
O77	O	0.826112	0.190563	-0.126721
H78	H	0.902380	0.204027	-0.188737
O79	O	1.151124	-0.018909	-0.000036
H80	H	1.094602	-0.050181	-0.000069
O81	O	1.472517	-0.788888	-0.258969
H82	H	1.473205	-0.762893	-0.345613
H83	H	1.638449	-0.034148	0.616411
O84	O	1.475326	-0.684088	-0.259010
H85	H	1.474614	-0.710104	-0.345634
O86	O	1.641145	-0.048241	0.376151
H87	H	1.628239	-0.072332	0.464908
H88	H	1.325980	0.130189	0.369499
O89	O	1.794842	0.011938	0.623549
H90	H	1.794759	0.011925	0.737620
H91	H	1.041937	0.186417	0.095676
H92	H	1.325990	0.130183	0.630535
H93	H	1.481374	-0.458757	0.350623
O94	O	1.787611	0.016546	0.368800
H95	H	1.851302	0.024804	0.453808
H96	H	1.048419	0.182724	-0.098680
O97	O	1.478665	-0.556948	-0.383653
H98	H	1.564532	-0.551296	-0.443428
O99	O	1.481462	-0.452161	-0.383665
H100	H	1.480755	-0.478179	-0.470286
O101	O	1.488818	-0.173736	-0.259131
H102	H	1.489500	-0.147738	-0.345771
H103	H	1.491430	-0.075584	-0.226211
H104	H	1.489043	-0.167011	0.225951
H105	H	1.478950	-0.550223	0.350636
O106	O	1.475352	-0.684019	0.259004
H107	H	1.474671	-0.710014	0.345651
H108	H	1.472741	-0.782173	0.226090
O109	O	1.482690	-0.405697	-0.383677
H110	H	1.483374	-0.379698	-0.470313
H111	H	1.485317	-0.307551	-0.350754
H112	H	1.485341	-0.307486	0.350568
H113	H	1.482926	-0.398949	0.350587
