data_functionalizedCrystal
_audit_creation_method	'MofGen! by Chris Wilmer'
_symmetry_space_group_name_H-M	'P1'
_symmetry_Int_Tables_number	1
_symmetry_cell_setting	triclinic
loop_
_symmetry_equiv_pos_as_xyz
  x,y,z
_cell_length_a	13.635800
_cell_length_b	11.168130
_cell_length_c	16.462431
_cell_angle_alpha	102.609842
_cell_angle_beta	104.022449
_cell_angle_gamma	71.491347
loop_
_atom_site_label
_atom_site_type_symbol
_atom_site_fract_x
_atom_site_fract_y
_atom_site_fract_z
V1	V	1.876435	-0.175699	-0.261156
O2	O	1.859629	0.007420	-0.256177
O3	O	1.865795	-0.347398	-0.259376
O4	O	1.786729	-0.173445	-0.375051
O5	O	1.939243	-0.167737	-0.139701
V6	V	2.124980	-0.153743	-0.246628
O7	O	1.992184	-0.223862	-0.293023
O8	O	2.234329	-0.105580	-0.214760
O9	O	2.024016	0.017956	-0.248407
O10	O	2.200483	-0.336862	-0.251606
O11	O	2.120870	-0.161705	-0.368082
O12	O	2.103082	-0.155997	-0.132732
V13	V	2.376435	-0.175699	-0.261156
O14	O	2.359629	0.007420	-0.256177
O15	O	2.365795	-0.347398	-0.259376
O16	O	2.286729	-0.173445	-0.375051
O17	O	2.439243	-0.167737	-0.139701
V18	V	2.624980	-0.153743	-0.246628
O19	O	2.492184	-0.223862	-0.293023
O20	O	2.734329	-0.105580	-0.214760
O21	O	2.524016	0.017956	-0.248407
O22	O	2.700483	-0.336862	-0.251606
O23	O	2.620870	-0.161705	-0.368082
O24	O	2.603082	-0.155997	-0.132732
C25	C	1.793714	-0.389240	-0.255258
C26	C	1.825221	-0.529609	-0.254562
C27	C	1.817850	-0.609603	-0.327146
C28	C	1.850414	-0.754682	-0.326429
C29	C	1.692857	-0.167345	-0.402812
C30	C	1.660245	-0.166639	-0.495923
C31	C	1.927770	0.059791	-0.252523
C32	C	1.885878	0.200159	-0.253224
C33	C	2.028627	-0.162101	-0.104967
C34	C	2.050859	-0.162801	-0.011855
C35	C	2.034635	-0.171353	0.285602
C36	C	2.013740	-0.170705	0.198113
C37	C	2.190317	-0.158095	0.206624
C38	C	2.211214	-0.158752	0.294111
C39	C	2.133368	-0.165375	0.333598
C40	C	2.091575	-0.164069	0.158622
C41	C	2.068920	-0.163367	0.063762
C42	C	2.156025	-0.166080	0.428464
C43	C	2.196334	-0.167346	0.597187
C44	C	2.174084	-0.166643	0.504076
C45	C	1.674261	-0.171309	-0.714405
C46	C	1.643609	-0.170634	-0.801891
C47	C	1.465461	-0.158004	-0.793348
C48	C	1.496112	-0.158670	-0.705863
C49	C	1.600516	-0.165329	-0.666394
C50	C	1.539212	-0.163989	-0.841365
C51	C	1.505976	-0.163257	-0.936221
C52	C	1.633753	-0.166058	-0.571532
C53	C	2.293714	-0.389240	-0.255258
C54	C	2.325221	-0.529609	-0.254562
C55	C	2.427770	0.059791	-0.252523
C56	C	2.385878	0.200159	-0.253224
C57	C	2.528627	-0.162101	-0.104967
C58	C	2.550859	-0.162801	-0.011855
C59	C	2.423973	-0.598315	-0.258224
C60	C	2.456540	-0.743393	-0.257505
H61	H	1.787425	-0.570683	-0.389819
Br62	Br	1.396020	-0.150545	-0.640698
H63	H	1.971245	-0.176737	0.317751
Br64	Br	1.875909	-0.594461	-0.150095
Br65	Br	1.839993	-0.869224	-0.430008
H66	H	1.892143	-0.731123	-0.191081
H67	H	2.253693	-0.152700	0.174463
Br68	Br	1.815950	-0.180342	-0.660843
H69	H	1.933344	-0.175574	0.159038
Br70	Br	1.743698	-0.178747	-0.867045
Br71	Br	2.244873	-0.701414	-0.247988
H72	H	2.291618	-0.153888	0.333191
Br73	Br	1.323777	-0.148982	-0.846919
H74	H	2.484406	-0.549732	-0.261897
Br75	Br	2.597552	-0.841824	-0.262720
H76	H	2.264786	-0.578193	-0.250899
