data_functionalizedCrystal
_audit_creation_method	'MofGen! by Chris Wilmer'
_symmetry_space_group_name_H-M	'P1'
_symmetry_Int_Tables_number	1
_symmetry_cell_setting	triclinic
loop_
_symmetry_equiv_pos_as_xyz
  x,y,z
_cell_length_a	10.723023
_cell_length_b	9.130313
_cell_length_c	10.654550
_cell_angle_alpha	90.001415
_cell_angle_beta	84.476225
_cell_angle_gamma	89.999478
loop_
_atom_site_label
_atom_site_type_symbol
_atom_site_fract_x
_atom_site_fract_y
_atom_site_fract_z
O1	O	1.657207	0.121791	0.176142
O2	O	1.294057	0.121795	0.193004
O3	O	1.483981	0.121787	0.001832
O4	O	1.467282	0.121799	0.367313
O5	O	1.483982	-0.121811	0.001832
O6	O	1.294057	-0.121804	0.193004
O7	O	1.657207	-0.121808	0.176142
Cu8	Cu	1.475632	-0.144048	0.184573
Cu9	Cu	1.475632	0.144036	0.184573
O10	O	1.467283	-0.121800	0.367313
C11	C	1.247557	-0.000004	0.191777
C12	C	1.109002	-0.000003	0.188106
N13	N	1.475642	-0.346671	0.184572
C14	C	0.904034	-0.126189	0.182676
C15	C	1.047237	-0.126193	0.186470
C16	C	1.551974	-0.576685	0.261432
C17	C	1.551976	-0.423348	0.261440
C18	C	1.399291	-0.423339	0.107701
C19	C	1.399283	-0.576673	0.107700
C20	C	1.640130	-0.576689	0.350188
C21	C	1.640132	-0.423352	0.350196
C22	C	1.703707	-0.000005	0.177369
C23	C	1.842262	0.000003	0.181039
C24	C	1.482755	-0.000010	-0.044966
C25	C	1.479087	-0.000005	-0.184408
N26	N	1.475632	0.346658	0.184563
C27	C	1.590911	-0.000010	-0.263911
C28	C	1.587457	-0.000000	-0.394931
C29	C	1.360344	0.000015	-0.366933
C30	C	1.363800	0.000015	-0.235915
C31	C	1.722034	-0.000026	-0.280077
C32	C	1.718579	-0.000015	-0.411097
C33	C	1.468508	0.000001	0.414111
C34	C	1.472177	0.000005	0.553554
H35	H	1.100361	-0.234231	0.187871
H36	H	0.895393	0.108037	0.182454
C37	C	1.772105	0.142062	-0.472781
H38	H	1.767878	0.137226	-0.561342
H39	H	1.856906	0.153290	-0.455697
H40	H	1.724527	0.223324	-0.439372
C41	C	1.315309	-0.660991	0.023144
H42	H	1.269854	-0.593365	-0.022642
H43	H	1.258322	-0.720808	0.074077
H44	H	1.365956	-0.720803	-0.034196
H45	H	1.055888	0.108040	0.186696
C46	C	1.315313	-0.338998	0.023159
H47	H	1.326252	-0.236698	0.034165
H48	H	1.230136	-0.364129	0.045714
H49	H	1.337761	-0.364122	-0.062568
C50	C	1.791312	0.137674	-0.240410
H51	H	1.793666	0.137657	-0.151503
H52	H	1.748606	0.222641	-0.264863
H53	H	1.874421	0.137656	-0.280382
H54	H	1.266480	0.000032	-0.408887
H55	H	1.609399	-0.618296	0.449233
H56	H	1.763788	-0.105207	-0.244456
C57	C	1.767082	-0.640961	0.296859
H58	H	1.823623	-0.563477	0.273116
H59	H	1.755664	-0.699526	0.225166
H60	H	1.800290	-0.699517	0.359410
H61	H	1.600872	-0.375793	0.444776
H62	H	1.738556	-0.381745	0.319312
C63	C	1.240793	0.000031	-0.148466
H64	H	1.171642	0.000029	-0.197910
H65	H	1.237426	0.084978	-0.096771
H66	H	1.237414	-0.084929	-0.096779
C67	C	1.785300	-0.137736	-0.467529
H68	H	1.815073	-0.194389	-0.401826
H69	H	1.853904	-0.109432	-0.525533
H70	H	1.728066	-0.194366	-0.510025
C71	C	0.832276	-0.272140	0.180714
H72	H	0.745444	-0.252990	0.178387
H73	H	0.844650	-0.326780	0.254367
H74	H	0.862458	-0.326686	0.108138
