data_functionalizedCrystal
_audit_creation_method	'MofGen! by Chris Wilmer'
_symmetry_space_group_name_H-M	'P1'
_symmetry_Int_Tables_number	1
_symmetry_cell_setting	triclinic
loop_
_symmetry_equiv_pos_as_xyz
  x,y,z
_cell_length_a	21.395362
_cell_length_b	14.908520
_cell_length_c	14.908858
_cell_angle_alpha	89.778004
_cell_angle_beta	93.259282
_cell_angle_gamma	93.337688
loop_
_atom_site_label
_atom_site_type_symbol
_atom_site_fract_x
_atom_site_fract_y
_atom_site_fract_z
Zn1	Zn	0.923498	-0.328213	-0.529480
Zn2	Zn	0.922727	-0.487268	-0.387793
Zn3	Zn	0.824396	-0.336969	-0.379092
Zn4	Zn	0.812328	-0.478580	-0.538050
O5	O	0.870737	-0.407758	-0.458604
O6	O	1.011073	-0.349284	-0.510740
O7	O	0.914411	-0.474630	-0.260818
O8	O	0.842916	-0.209978	-0.391814
O9	O	1.010506	-0.466140	-0.406643
O10	O	0.915726	-0.203545	-0.502303
O11	O	0.842168	-0.364206	-0.254425
O12	O	0.735119	-0.355782	-0.400123
O13	O	0.822347	-0.451334	-0.662734
O14	O	0.726252	-0.459824	-0.516909
O15	O	0.904023	-0.340860	-0.656438
O16	O	0.902709	-0.611945	-0.414953
O17	O	0.821599	-0.605562	-0.525346
C18	C	0.707952	-0.407811	-0.458502
C19	C	0.638309	-0.407854	-0.458481
C20	C	0.860777	-0.641379	-0.472043
C21	C	0.856572	-0.741321	-0.477823
C22	C	0.600996	-0.462110	-0.519210
C23	C	0.535560	-0.462086	-0.519249
C24	C	0.507440	-0.407816	-0.458544
C25	C	0.544762	-0.353550	-0.397810
C26	C	0.610197	-0.353569	-0.397779
C27	C	0.407082	-0.405262	-0.377182
C28	C	0.341648	-0.405250	-0.377212
C29	C	0.305618	-0.407752	-0.458639
C30	C	0.335029	-0.410285	-0.540041
C31	C	0.400464	-0.410305	-0.540010
C32	C	0.436488	-0.407789	-0.458571
C33	C	0.197351	-0.461984	-0.519415
C34	C	0.131914	-0.461953	-0.519455
C35	C	0.141118	-0.353422	-0.398009
C36	C	0.206554	-0.353448	-0.397977
C37	C	0.234666	-0.407733	-0.458679
C38	C	0.933209	-0.935703	-0.373824
C39	C	0.929260	-1.029608	-0.379251
C40	C	0.844729	-1.023037	-0.494109
C41	C	0.848678	-0.929132	-0.488682
C42	C	0.892919	-0.885469	-0.428536
C43	C	0.896864	-0.791562	-0.423104
C44	C	0.812336	-0.784993	-0.537966
C45	C	0.808388	-0.878898	-0.543394
C46	C	1.034159	-0.407704	-0.458706
C47	C	1.103799	-0.407682	-0.458750
C48	C	0.861925	-0.394151	-0.693122
C49	C	0.858170	-0.388353	-0.793060
C50	C	0.880753	-0.173223	-0.445132
C51	C	0.885021	-0.073278	-0.439391
C52	C	0.815268	-0.322691	-0.930589
C53	C	0.818794	-0.328137	-0.836688
C54	C	0.894023	-0.443124	-0.843339
C55	C	0.890497	-0.437678	-0.937239
C56	C	0.851117	-0.377460	-0.980861
C57	C	0.847588	-0.372019	-1.074764
C58	C	0.922820	-0.487001	-1.081412
C59	C	0.926346	-0.492447	-0.987512
C60	C	0.879554	-0.421246	-0.224994
C61	C	0.883442	-0.426791	-0.125042
H62	H	0.623881	-0.506312	-0.568640
H63	H	0.969227	-0.900152	-0.324844
H64	H	0.220242	-0.506181	-0.568847
N65	N	0.797019	-1.070144	-0.558977
H66	H	0.753471	-1.054702	-0.543991
H67	H	0.805041	-1.050013	-0.622264
H68	H	0.305695	-0.412321	-0.606347
N69	N	0.961491	-0.546074	-1.135637
H70	H	0.986971	-0.585047	-1.093751
H71	H	0.932745	-0.585436	-1.176968
N72	N	0.972717	-1.083791	-0.320243
H73	H	1.001341	-1.041878	-0.281320
H74	H	0.947163	-1.125227	-0.280840
H75	H	0.779527	-0.744081	-0.582514
N76	N	0.760674	-0.925994	-0.608263
H77	H	0.764285	-0.993106	-0.603401
H78	H	0.717152	-0.910477	-0.593234
H79	H	0.815523	-0.322988	-1.110279
N80	N	0.780123	-0.269064	-0.782475
H81	H	0.750989	-0.307872	-0.745597
H82	H	0.808868	-0.229651	-0.741190
H83	H	0.236935	-0.309272	-0.348520
N84	N	0.091665	-0.520479	-0.584954
H85	H	0.101270	-0.502902	-0.648419
H86	H	0.100833	-0.585500	-0.574480
H87	H	0.783201	-0.273663	-0.966106
N88	N	0.936501	-0.508060	-0.796285
H89	H	0.933228	-0.503289	-0.729176
H90	H	0.923451	-0.571321	-0.816473
N91	N	0.968821	-0.557390	-0.940460
H92	H	0.965546	-0.552624	-0.873351
H93	H	0.955766	-0.620647	-0.960654
N94	N	0.495303	-0.520604	-0.584753
H95	H	0.523042	-0.554995	-0.623203
H96	H	0.467727	-0.564274	-0.550481
N97	N	0.110799	-0.294880	-0.332538
H98	H	0.063684	-0.303097	-0.341773
H99	H	0.124016	-0.312504	-0.269094
N100	N	0.514438	-0.295027	-0.332324
H101	H	0.467323	-0.303254	-0.341552
H102	H	0.527663	-0.312665	-0.268887
H103	H	0.317706	-0.403192	-0.310930
H104	H	0.424408	-0.412365	-0.606290
H105	H	0.436412	-0.403221	-0.310869
H106	H	0.932885	-0.756012	-0.374129
N107	N	0.650447	-0.295041	-0.332283
H108	H	0.622707	-0.260651	-0.293834
H109	H	0.677570	-0.333999	-0.292699
