data_functionalizedCrystal
_audit_creation_method	'MofGen! by Chris Wilmer'
_symmetry_space_group_name_H-M	'P1'
_symmetry_Int_Tables_number	1
_symmetry_cell_setting	triclinic
loop_
_symmetry_equiv_pos_as_xyz
  x,y,z
_cell_length_a	12.759401
_cell_length_b	29.839131
_cell_length_c	12.759393
_cell_angle_alpha	89.955530
_cell_angle_beta	89.979213
_cell_angle_gamma	90.035711
loop_
_atom_site_label
_atom_site_type_symbol
_atom_site_fract_x
_atom_site_fract_y
_atom_site_fract_z
Zn1	Zn	1.606116	-0.178826	-0.593914
Zn2	Zn	1.605945	-0.253963	-0.418191
Zn3	Zn	1.430415	-0.178848	-0.418249
Zn4	Zn	1.430344	-0.253930	-0.593829
O5	O	1.518205	-0.216392	-0.506046
O6	O	1.753115	-0.188797	-0.570615
O7	O	1.582618	-0.244022	-0.271178
O8	O	1.453824	-0.115978	-0.441612
O9	O	1.752988	-0.244000	-0.441512
O10	O	1.582911	-0.115962	-0.570672
O11	O	1.453657	-0.188836	-0.271221
O12	O	1.283385	-0.188804	-0.441529
O13	O	1.453703	-0.243944	-0.740861
O14	O	1.283333	-0.243966	-0.570527
O15	O	1.582842	-0.188765	-0.740924
O16	O	1.582549	-0.316826	-0.441430
O17	O	1.453536	-0.316802	-0.570470
C18	C	1.245238	-0.216384	-0.506026
C19	C	1.128461	-0.216392	-0.506042
C20	C	0.963804	-0.245097	-0.438747
C21	C	1.073528	-0.245090	-0.438728
C22	C	1.073664	-0.187695	-0.573373
C23	C	0.963942	-0.187700	-0.573387
C24	C	1.223399	-0.261072	-0.314729
C25	C	1.278192	-0.289772	-0.247410
C26	C	1.242519	-0.333601	-0.231082
C27	C	1.152056	-0.348739	-0.282088
C28	C	1.097268	-0.320041	-0.349415
C29	C	1.132939	-0.276205	-0.365723
C30	C	0.814070	-0.171723	-0.697386
C31	C	0.759280	-0.143026	-0.764719
C32	C	0.794951	-0.099197	-0.781058
C33	C	0.885418	-0.084061	-0.730070
C34	C	0.940207	-0.112757	-0.662738
C35	C	0.904529	-0.156587	-0.646397
C36	C	1.518045	-0.333114	-0.505957
C37	C	1.518072	-0.383049	-0.505954
C38	C	1.585406	-0.692649	-0.573343
C39	C	1.585520	-0.880322	-0.573406
O40	O	1.642612	-0.904550	-0.630637
N41	N	1.518384	-0.903834	-0.506162
C42	C	1.451209	-0.880425	-0.438903
O43	O	1.394100	-0.904730	-0.381717
C44	C	1.451090	-0.692753	-0.438846
C45	C	1.518239	-0.669243	-0.506087
C46	C	1.652548	-0.669139	-0.640579
C47	C	1.652523	-0.622223	-0.640559
C48	C	1.585356	-0.598818	-0.573302
C49	C	1.518214	-0.622328	-0.506066
C50	C	1.383911	-0.669345	-0.371592
C51	C	1.383885	-0.622424	-0.371586
C52	C	1.451034	-0.598914	-0.438827
C53	C	1.451021	-0.552006	-0.438789
N54	N	1.518158	-0.528494	-0.506033
C55	C	1.585325	-0.551900	-0.573289
C56	C	1.451277	-0.978955	-0.438936
C57	C	1.451308	-1.025873	-0.438949
C58	C	1.585618	-1.025767	-0.573454
C59	C	1.585592	-0.978848	-0.573435
C60	C	1.518414	-0.955443	-0.506180
C61	C	1.585268	-0.453374	-0.573241
C62	C	1.585240	-0.406455	-0.573211
C63	C	1.450926	-0.406565	-0.438710
C64	C	1.450958	-0.453481	-0.438736
C65	C	1.518132	-0.476884	-0.506009
O66	O	1.393950	-0.527750	-0.381597
O67	O	1.642409	-0.527587	-0.630483
C68	C	1.585431	-0.739564	-0.573364
C69	C	1.518289	-0.763074	-0.506127
C70	C	1.451122	-0.739668	-0.438871
C71	C	1.518320	-0.809992	-0.506140
C72	C	1.585487	-0.833397	-0.573397
C73	C	1.652624	-0.809885	-0.640640
C74	C	1.652598	-0.762970	-0.640620
C75	C	1.383985	-0.763180	-0.371627
C76	C	1.384017	-0.810096	-0.371652
C77	C	1.451184	-0.833501	-0.438909
C78	C	1.792238	-0.216400	-0.506067
C79	C	1.909015	-0.216403	-0.506075
C80	C	1.518284	-0.216349	-0.780079
C81	C	1.518317	-0.216330	-0.896856
C82	C	1.518395	-0.099213	-0.506158
C83	C	1.518475	-0.049279	-0.506205
C84	C	1.585565	-0.187594	-0.951752
C85	C	1.585583	-0.187575	-1.061476
C86	C	1.451102	-0.245032	-1.061398
C87	C	1.451080	-0.245048	-0.951676
C88	C	1.623239	-0.134570	-1.211485
C89	C	1.690504	-0.105838	-1.266385
C90	C	1.793022	-0.098950	-1.230797
C91	C	1.828297	-0.120801	-1.140311
C92	C	1.761039	-0.149536	-1.085417
C93	C	1.658506	-0.156416	-1.121003
C94	C	1.413434	-0.298053	-0.801666
C95	C	1.346180	-0.326792	-0.746770
C96	C	1.243660	-0.333684	-0.782355
C97	C	1.208388	-0.311842	-0.872845
C98	C	1.275642	-0.283103	-0.927741
C99	C	1.378162	-0.276210	-0.892148
C100	C	1.518187	-0.216402	-0.233078
C101	C	1.518357	-0.216294	-0.116302
H102	H	0.919086	-0.268469	-0.383937
H103	H	1.329232	-0.688478	-0.316837
H104	H	1.252445	-0.225381	-0.328008
H105	H	1.246916	-0.265318	-1.001423
H106	H	1.118399	-0.164326	-0.628177
H107	H	1.014009	-0.100464	-0.621413
H108	H	1.640311	-0.164209	-0.907121
H109	H	0.914463	-0.048371	-0.743377
H110	H	0.750336	-0.075834	-0.835895
H111	H	1.124909	-0.317456	-0.901822
H112	H	1.847789	-0.075555	-1.275504
H113	H	1.396640	-1.045011	-0.384183
H114	H	1.639924	-0.387314	-0.627966
H115	H	1.707198	-0.603085	-0.695315
H116	H	1.539758	-0.140173	-1.240464
H117	H	0.685621	-0.155355	-0.806241
H118	H	1.707277	-0.743832	-0.695374
H119	H	1.789761	-0.167328	-1.011748
H120	H	0.785019	-0.207413	-0.684090
H121	H	1.351863	-0.277447	-0.205903
H122	H	1.639960	-0.472424	-0.628028
H123	H	1.329178	-0.603370	-0.316820
H124	H	1.287140	-0.356970	-0.176270
H125	H	1.661773	-0.088047	-1.340058
H126	H	1.496913	-0.292440	-0.772678
H127	H	1.640310	-1.044832	-0.628215
H128	H	1.023616	-0.332365	-0.390945
H129	H	1.707244	-0.688191	-0.695354
H130	H	1.640269	-0.959709	-0.628189
H131	H	1.396571	-0.959902	-0.384166
H132	H	1.329338	-0.829233	-0.316887
H133	H	1.396288	-0.472623	-0.383975
H134	H	1.123026	-0.384431	-0.268798
H135	H	1.374911	-0.344581	-0.673095
H136	H	1.707317	-0.828950	-0.695400
H137	H	1.396242	-0.387501	-0.383948
H138	H	1.396362	-0.268414	-1.106046
H139	H	1.329288	-0.744127	-0.316860
H140	H	1.911782	-0.115193	-1.111348
H141	H	1.188906	-0.357089	-0.737654
