data_functionalizedCrystal
_audit_creation_method	'MofGen! by Chris Wilmer'
_symmetry_space_group_name_H-M	'P1'
_symmetry_Int_Tables_number	1
_symmetry_cell_setting	triclinic
loop_
_symmetry_equiv_pos_as_xyz
  x,y,z
_cell_length_a	31.640172
_cell_length_b	31.640172
_cell_length_c	15.698487
_cell_angle_alpha	59.992080
_cell_angle_beta	89.995948
_cell_angle_gamma	59.994337
loop_
_atom_site_label
_atom_site_type_symbol
_atom_site_fract_x
_atom_site_fract_y
_atom_site_fract_z
Zr1	Zr	0.407156	0.462629	-0.111982
O2	O	0.339661	0.550821	-0.248025
O3	O	0.427849	0.374444	-0.070256
O4	O	0.427843	0.462629	-0.248001
O5	O	0.339670	0.462634	0.069905
O6	O	0.497399	0.462622	-0.248007
O7	O	0.339668	0.462636	-0.070280
O8	O	0.497411	0.304875	0.069947
O9	O	0.339658	0.620381	-0.248049
O10	O	0.488581	0.410708	-0.052491
O11	O	0.436674	0.410712	0.052132
O12	O	0.436666	0.514539	-0.157140
O13	O	0.384758	0.514543	-0.052518
Zr14	Zr	0.518094	0.462615	0.111587
Zr15	Zr	0.518090	0.462618	-0.111991
Zr16	Zr	0.407160	0.462627	0.111596
Zr17	Zr	0.407151	0.573570	-0.112020
Zr18	Zr	0.518099	0.351675	0.111626
O19	O	0.497401	0.550801	0.069862
O20	O	0.497395	0.550804	-0.248038
O21	O	0.339667	0.550817	0.069874
O22	O	0.585589	0.374424	0.247630
O23	O	0.585584	0.374428	-0.070269
O24	O	0.427855	0.374440	0.247643
O25	O	0.585580	0.462610	-0.070299
O26	O	0.497407	0.462616	0.247607
O27	O	0.427851	0.462623	0.247613
O28	O	0.585582	0.462609	0.069885
O29	O	0.427836	0.620372	-0.248056
O30	O	0.497414	0.304873	0.247661
O31	O	0.585592	0.304864	0.247654
O32	O	0.585589	0.304866	0.069939
O33	O	0.339661	0.620379	-0.070334
O34	O	0.427839	0.620369	-0.070341
O35	O	0.488584	0.410706	0.156746
O36	O	0.540492	0.410702	0.052123
O37	O	0.488576	0.514532	-0.052526
O38	O	0.436669	0.514536	0.052096
C39	C	0.462631	0.323853	-0.000149
C40	C	0.462633	0.276756	-0.000133
C41	C	0.424304	0.023086	-0.077455
C42	C	0.424300	-0.153895	-0.077484
O43	O	0.391721	-0.144184	-0.143202
N44	N	0.462622	-0.214352	-0.000244
C45	C	0.500949	-0.230563	0.077004
O46	O	0.533546	-0.286047	0.142694
C47	C	0.500954	-0.053583	0.077028
C48	C	0.462627	0.006875	-0.000211
C49	C	0.385981	0.083540	-0.154688
C50	C	0.385980	0.127783	-0.154677
C51	C	0.424304	0.111571	-0.077433
C52	C	0.462627	0.051117	-0.000200
C53	C	0.539283	-0.069795	0.154271
C54	C	0.539282	-0.025543	0.154268
C55	C	0.500955	0.034914	0.077030
C56	C	0.500950	0.079147	0.077056
N57	N	0.462629	0.139604	-0.000184
C58	C	0.424305	0.155816	-0.077428
C59	C	0.500942	-0.323478	0.076987
C60	C	0.500941	-0.367723	0.076983
C61	C	0.424292	-0.291051	-0.077507
C62	C	0.424293	-0.246806	-0.077497
C63	C	0.462621	-0.263021	-0.000252
C64	C	0.424308	0.248725	-0.077398
C65	C	0.424310	0.292968	-0.077377
C66	C	0.500959	0.216292	0.077108
C67	C	0.500956	0.172053	0.077091
C68	C	0.462628	0.188274	-0.000171
O69	O	0.533515	0.069481	0.142732
O70	O	0.391719	0.211302	-0.143122
C71	C	0.424304	-0.021156	-0.077466
C72	C	0.462628	-0.081610	-0.000233
C73	C	0.500951	-0.097822	0.077011
C74	C	0.462626	-0.125855	-0.000238
C75	C	0.424303	-0.109643	-0.077482
C76	C	0.385981	-0.049186	-0.154722
C77	C	0.385981	-0.004944	-0.154711
C78	C	0.539273	-0.158279	0.154250
C79	C	0.539269	-0.202518	0.154233
C80	C	0.500946	-0.186306	0.076989
C81	C	0.323863	0.462637	-0.000186
C82	C	0.276769	0.462641	-0.000182
C83	C	-0.015238	0.462612	-0.077424
C84	C	-0.192224	0.462605	-0.077432
O85	O	-0.215098	0.462579	-0.143086
N86	N	-0.214354	0.462605	-0.000204
C87	C	-0.192232	0.462603	0.077035
O88	O	-0.215112	0.462597	0.142728
C89	C	-0.015244	0.462607	0.077046
C90	C	0.006880	0.462612	-0.000193
C91	C	0.006887	0.462618	-0.154656
C92	C	0.051129	0.462623	-0.154656
C93	C	0.073247	0.462623	-0.077425
C94	C	0.051122	0.462618	-0.000193
C95	C	0.006879	0.462601	0.154289
C96	C	0.051130	0.462600	0.154286
C97	C	0.073254	0.462606	0.077047
C98	C	0.117483	0.462623	0.077038
N99	N	0.139612	0.462622	-0.000190
C100	C	0.117494	0.462622	-0.077421
C101	C	-0.285154	0.462603	0.077023
C102	C	-0.329401	0.462603	0.077019
C103	C	-0.329390	0.462604	-0.077447
C104	C	-0.285144	0.462608	-0.077447
C105	C	-0.263024	0.462603	-0.000205
C106	C	0.210406	0.462634	-0.077417
C107	C	0.254651	0.462641	-0.077414
C108	C	0.254638	0.462638	0.077055
C109	C	0.210395	0.462633	0.077049
C110	C	0.188281	0.462629	-0.000192
O111	O	0.140387	0.462642	0.142665
O112	O	0.140389	0.462615	-0.143091
C113	C	-0.059480	0.462607	-0.077423
C114	C	-0.081605	0.462602	-0.000191
C115	C	-0.059487	0.462602	0.077040
C116	C	-0.125852	0.462602	-0.000195
C117	C	-0.147970	0.462602	-0.077426
C118	C	-0.125840	0.462602	-0.154654
C119	C	-0.081598	0.462607	-0.154655
C120	C	-0.081616	0.462603	0.154268
C121	C	-0.125859	0.462598	0.154261
C122	C	-0.147977	0.462598	0.077030
C123	C	0.601387	0.462608	-0.000209
C124	C	0.648481	0.462603	-0.000212
C125	C	0.462620	0.462626	-0.279859
C126	C	0.462619	0.462627	-0.374774
C127	C	0.462619	0.601392	-0.000245
C128	C	0.462617	0.648489	-0.000261
C129	C	0.462631	0.462616	-0.548538
C130	C	0.462625	0.462620	-0.451841
C131	C	0.462630	0.462619	0.279465
C132	C	0.462631	0.462618	0.374380
C133	C	0.601392	0.323839	-0.000161
C134	C	0.648489	0.276737	-0.000148
C135	C	0.462635	0.323850	0.279513
C136	C	0.462639	0.276751	0.374444
C137	C	0.601397	0.323835	0.279501
C138	C	0.648495	0.276732	0.374429
C139	C	0.323853	0.601409	-0.279896
C140	C	0.276755	0.648512	-0.374823
C141	C	0.323858	0.601406	-0.000234
C142	C	0.276761	0.648508	-0.000246
C143	C	0.462615	0.601395	-0.279907
C144	C	0.462611	0.648493	-0.374838
C145	C	0.643509	0.254621	-0.054759
C146	C	0.687757	0.210370	-0.054768
C147	C	0.736984	0.188232	-0.000160
C148	C	0.741963	0.210353	0.054453
C149	C	0.697716	0.254606	0.054455
C150	C	0.489737	0.254630	0.473641
C151	C	0.489739	0.210383	0.562847
C152	C	0.462644	0.188254	0.552854
C153	C	0.435542	0.210380	0.453646
C154	C	0.435538	0.254629	0.364442
C155	C	0.697712	0.254610	0.364396
C156	C	0.741970	0.210358	0.453581
C157	C	0.737009	0.188226	0.552799
C158	C	0.687787	0.210352	0.562830
C159	C	0.643530	0.254607	0.473645
C160	C	0.227538	0.670640	-0.364790
C161	C	0.183280	0.714906	-0.453976
C162	C	0.188241	0.737040	-0.553194
C163	C	0.237463	0.714911	-0.563224
C164	C	0.281720	0.670649	-0.474040
C165	C	0.281741	0.670629	0.054355
C166	C	0.237493	0.714892	0.054340
C167	C	0.188266	0.737031	-0.000272
C168	C	0.183287	0.714908	-0.054880
C169	C	0.227534	0.670649	-0.054870
C170	C	0.489711	0.670608	-0.364812
C171	C	0.489718	0.714856	-0.454001
C172	C	0.462621	0.736991	-0.553216
C173	C	0.435521	0.714872	-0.563241
C174	C	0.435517	0.670622	-0.474052
H175	H	0.393098	0.261941	-0.140314
N176	N	0.518979	0.186514	0.669843
H177	H	0.494133	0.194221	0.709287
H178	H	0.536146	0.207253	0.662544
H179	H	0.511801	0.272642	0.481798
H180	H	0.413447	0.652621	-0.482231
N181	N	0.222174	0.646775	-0.257789
H182	H	0.202629	0.680540	-0.249446
H183	H	0.257692	0.615366	-0.202864
N184	N	0.703094	0.278455	0.113364
H185	H	0.685944	0.322878	0.063271
H186	H	0.741004	0.257669	0.147947
H187	H	0.354776	-0.035993	-0.217615
H188	H	0.462652	0.152223	0.625498
H189	H	0.413483	0.192356	0.445525
H190	H	0.773009	0.152198	-0.000169
H191	H	0.413473	0.272635	0.283675
H192	H	0.701762	0.272624	0.283616
H193	H	0.782045	0.192347	0.445395
H194	H	0.393096	0.342196	-0.140273
N195	N	0.682437	0.186478	0.669843
H196	H	0.699591	0.194174	0.709275
H197	H	0.699590	0.142061	0.709196
N198	N	0.682375	0.186520	-0.113675
H199	H	0.662831	0.168160	-0.085009
H200	H	0.717888	0.155152	-0.105388
N201	N	0.130190	0.738782	-0.113764
H202	H	0.126048	0.705018	-0.085095
H203	H	0.126065	0.757153	-0.190158
H204	H	0.773050	0.152191	0.625410
H205	H	0.603457	0.272613	0.481829
N206	N	0.242872	0.738753	0.113227
H207	H	0.207375	0.770158	0.104926
H208	H	0.262445	0.757067	0.084528
H209	H	0.511776	0.652592	-0.284034
N210	N	0.344657	0.192987	-0.238015
H211	H	0.320388	0.196535	-0.286954
H212	H	0.361432	0.212996	-0.278503
N213	N	0.130194	0.738767	-0.443144
H214	H	0.133771	0.718021	-0.366755
H215	H	0.110650	0.731073	-0.477766
H216	H	0.321794	0.652633	-0.482221
N217	N	0.140504	0.784779	-0.649381
H218	H	0.108574	0.795434	-0.627960
H219	H	0.140525	0.769348	-0.692263
N220	N	0.242810	0.738787	-0.670240
H221	H	0.207302	0.770181	-0.725207
H222	H	0.262372	0.704991	-0.678500
H223	H	0.321820	0.652607	0.098833
N224	N	-0.149709	0.462610	-0.237957
H225	H	-0.149636	0.425751	-0.204246
H226	H	-0.128970	0.462636	-0.286870
N227	N	0.344645	0.101034	-0.238013
H228	H	0.320373	0.146047	-0.286933
H229	H	0.324544	0.084349	-0.204247
H230	H	0.152241	0.773070	-0.000271
N231	N	0.222159	0.646792	-0.113765
H232	H	0.184259	0.667535	-0.148357
H233	H	0.239335	0.602368	-0.063609
H234	H	0.511785	0.732860	-0.445818
N235	N	0.462633	0.784712	-0.649407
H236	H	0.483915	0.795359	-0.627991
H237	H	0.425922	0.821411	-0.692312
N238	N	0.406297	0.738750	-0.670254
H239	H	0.410412	0.770139	-0.725224
H240	H	0.368401	0.757088	-0.678525
N241	N	-0.353259	0.462601	0.160327
H242	H	-0.353185	0.425742	0.200920
H243	H	-0.390036	0.499483	0.126556
H244	H	0.393081	-0.197581	-0.140386
H245	H	0.393088	-0.277858	-0.140403
N246	N	-0.016972	0.462586	0.237606
H247	H	-0.053762	0.499441	0.203918
H248	H	0.003800	0.462559	0.286503
N249	N	0.542274	-0.432929	0.160293
H250	H	0.540605	-0.441989	0.231203
H251	H	0.577432	-0.441939	0.156825
N252	N	0.542284	-0.340980	0.160319
H253	H	0.525568	-0.324336	0.200908
H254	H	0.562413	-0.324337	0.126566
N255	N	0.580625	-0.134995	0.237573
H256	H	0.604901	-0.138541	0.286494
H257	H	0.600720	-0.155015	0.203787
H258	H	0.570495	-0.038753	0.217171
H259	H	0.532160	0.122825	0.139995
N260	N	0.795058	0.186469	0.113365
H261	H	0.799212	0.220223	0.084722
H262	H	0.822298	0.155068	0.105061
H263	H	0.354771	0.044280	-0.217605
N264	N	0.542293	0.198812	0.160417
H265	H	0.536476	0.236018	0.148692
H266	H	0.577453	0.174345	0.156994
H267	H	0.570481	-0.171488	0.217152
N268	N	0.580609	-0.267726	0.237548
H269	H	0.604886	-0.271276	0.286477
H270	H	0.600706	-0.287746	0.203763
H271	H	0.272662	0.462648	-0.140314
N272	N	0.186559	0.462629	-0.160724
H273	H	0.207293	0.462634	-0.209645
H274	H	0.149769	0.499487	-0.201243
H275	H	0.069141	0.462625	-0.217548
N276	N	-0.016969	0.462620	-0.237962
H277	H	0.009164	0.425765	-0.234583
H278	H	-0.027698	0.499506	-0.308825
N279	N	-0.261283	0.462614	-0.160753
H280	H	-0.282014	0.462616	-0.209677
H281	H	-0.224494	0.425755	-0.126972
H282	H	-0.267147	0.462599	0.139924
N283	N	-0.353251	0.462607	-0.160752
H284	H	-0.384638	0.462607	-0.149028
H285	H	-0.327085	0.425746	-0.157324
H286	H	0.192377	0.462637	0.139935
N287	N	0.074990	0.462589	0.237605
H288	H	0.054258	0.462584	0.286530
H289	H	0.074916	0.499449	0.203830
H290	H	0.272652	0.462640	0.139934
H291	H	-0.143872	0.462598	0.217158
N292	N	-0.057740	0.462615	-0.237964
H293	H	-0.078470	0.462614	-0.286883
H294	H	-0.020949	0.425757	-0.204186
H295	H	0.603430	0.272644	-0.099241
N296	N	-0.057762	0.462608	0.237561
H297	H	-0.020972	0.425753	0.278157
H298	H	-0.078533	0.462630	0.286412
