data_functionalizedCrystal
_audit_creation_method	'MofGen! by Chris Wilmer'
_symmetry_space_group_name_H-M	'P1'
_symmetry_Int_Tables_number	1
_symmetry_cell_setting	triclinic
loop_
_symmetry_equiv_pos_as_xyz
  x,y,z
_cell_length_a	8.559649
_cell_length_b	17.699083
_cell_length_c	16.176319
_cell_angle_alpha	89.992304
_cell_angle_beta	89.992630
_cell_angle_gamma	76.530839
loop_
_atom_site_label
_atom_site_type_symbol
_atom_site_fract_x
_atom_site_fract_y
_atom_site_fract_z
O1	O	2.120234	-0.025680	-0.068732
O2	O	2.620234	0.474320	0.431268
O3	O	1.654878	0.013416	-0.068738
O4	O	2.154878	0.513416	0.431262
O5	O	1.900704	-0.117074	-0.068727
O6	O	2.400704	0.382926	0.431273
O7	O	1.874409	0.104810	-0.068742
O8	O	2.374409	0.604810	0.431258
O9	O	1.900670	-0.117080	0.068766
O10	O	2.400670	0.382920	0.568766
O11	O	1.654845	0.013410	0.068756
O12	O	2.154845	0.513410	0.568756
O13	O	2.120200	-0.025686	0.068761
O14	O	2.620200	0.474314	0.568761
Cu15	Cu	1.887519	-0.006138	0.081313
Cu16	Cu	2.387519	0.493862	0.581313
Cu17	Cu	1.887559	-0.006132	-0.081289
Cu18	Cu	2.387559	0.493868	0.418711
O19	O	1.874375	0.104804	0.068751
O20	O	2.374375	0.604804	0.568751
C21	C	1.899745	-0.145220	0.000019
C22	C	2.399745	0.354780	0.500019
C23	C	1.896918	-0.229076	0.000020
C24	C	2.396918	0.270924	0.500020
C25	C	1.595320	0.016376	0.000008
C26	C	2.095320	0.516376	0.500008
C27	C	1.417906	0.025195	0.000007
C28	C	1.917906	0.525195	0.500007
C29	C	2.041212	-0.285959	0.000022
C30	C	2.541212	0.214041	0.500022
C31	C	2.038547	-0.364749	0.000015
C32	C	2.538547	0.135251	0.500015
C33	C	1.891585	-0.386656	0.000011
C34	C	2.391585	0.113344	0.500011
C35	C	1.747280	-0.329767	0.000006
C36	C	2.247280	0.170233	0.500006
C37	C	1.749947	-0.250978	0.000007
C38	C	2.249947	0.249022	0.500007
C39	C	1.736521	-0.647514	-0.000001
C40	C	2.236521	-0.147514	0.499999
C41	C	1.733865	-0.726310	-0.000000
C42	C	2.233865	-0.226310	0.500000
C43	C	2.025120	-0.761286	0.000007
C44	C	2.525120	-0.261286	0.500007
C45	C	2.027787	-0.682496	0.000008
C46	C	2.527787	-0.182496	0.500008
C47	C	1.883483	-0.625614	-0.000001
C48	C	2.383483	-0.125614	0.499999
C49	C	1.886375	-0.540181	0.000005
C50	C	2.386375	-0.040181	0.500005
C51	C	1.888692	-0.472088	0.000010
C52	C	2.388692	0.027912	0.500010
C53	C	2.179758	-0.028646	0.000013
C54	C	2.679758	0.471354	0.500013
C55	C	2.357173	-0.037465	0.000010
C56	C	2.857173	0.462535	0.500010
C57	C	1.875334	0.132950	0.000002
C58	C	2.375334	0.632950	0.500002
C59	C	1.878161	0.216806	-0.000003
C60	C	2.378161	0.716806	0.499997
N61	N	1.887503	-0.006144	0.195678
N62	N	2.387503	0.493856	0.695678
N63	N	1.887588	-0.006133	-0.195654
N64	N	2.387588	0.493867	0.304346
C65	C	1.996387	-0.063906	0.238946
C66	C	2.496387	0.436094	0.738946
C67	C	1.996395	-0.063907	0.325494
C68	C	2.496395	0.436093	0.825494
C69	C	1.887526	-0.006143	0.368770
C70	C	2.387526	0.493857	0.868770
C71	C	1.778630	0.051622	0.325496
C72	C	2.278630	0.551622	0.825496
C73	C	1.778615	0.051620	0.238950
C74	C	2.278615	0.551620	0.738950
C75	C	1.778685	0.051633	0.674524
C76	C	2.278685	0.551633	1.174524
C77	C	1.778711	0.051633	0.761075
C78	C	2.278711	0.551633	1.261075
C79	C	1.996464	-0.063893	0.761067
C80	C	2.496464	0.436107	1.261067
C81	C	1.996450	-0.063896	0.674522
C82	C	2.496450	0.436104	1.174522
C83	C	1.887549	-0.006134	0.631255
C84	C	2.387549	0.493866	1.131255
C85	C	1.887540	-0.006134	0.537410
C86	C	2.387540	0.493866	1.037410
C87	C	1.887541	-0.006139	0.462613
C88	C	2.387541	0.493861	0.962613
H89	H	2.160885	-0.268130	0.000031
H90	H	2.660885	0.231870	0.500031
F91	F	2.184203	-0.659187	0.000012
F92	F	2.684203	-0.159187	0.500012
F93	F	2.112328	-0.125374	0.628467
F94	F	2.612328	0.374626	1.128467
H95	H	1.614184	-0.744141	-0.000002
H96	H	2.114184	-0.244141	0.499998
H97	H	2.156046	-0.411061	0.000019
H98	H	2.656046	0.088939	0.500019
H99	H	1.334165	0.085592	-0.000002
H100	H	1.834165	0.585592	0.499998
H101	H	1.619019	-0.601208	-0.000009
H102	H	2.119019	-0.101208	0.499991
F103	F	2.112279	-0.125384	0.371544
F104	F	2.612279	0.374616	0.871544
F105	F	1.662753	0.113098	0.371555
F106	F	2.162753	0.613098	0.871555
H107	H	2.085048	-0.110941	0.203716
H108	H	2.585048	0.389059	0.703716
F109	F	1.590872	-0.353083	-0.000008
F110	F	2.090872	0.146917	0.499992
F111	F	2.112363	-0.125372	0.807122
F112	F	2.612363	0.374628	1.307122
F113	F	2.178704	-0.821831	0.000014
F114	F	2.678704	-0.321831	0.500014
H115	H	1.690017	0.098667	0.639303
H116	H	2.190017	0.598667	1.139303
F117	F	1.662721	0.113096	0.192902
F118	F	2.162721	0.613096	0.692902
F119	F	1.596369	-0.190438	0.000001
F120	F	2.096369	0.309562	0.500001
F121	F	1.466613	-0.116406	0.000010
F122	F	1.966613	0.383594	0.500010
F123	F	1.662829	0.113116	0.807132
F124	F	2.162829	0.613116	1.307132
