data_functionalizedCrystal
_audit_creation_method	'MofGen! by Chris Wilmer'
_symmetry_space_group_name_H-M	'P1'
_symmetry_Int_Tables_number	1
_symmetry_cell_setting	triclinic
loop_
_symmetry_equiv_pos_as_xyz
  x,y,z
_cell_length_a	9.065218
_cell_length_b	10.065875
_cell_length_c	11.026607
_cell_angle_alpha	79.268236
_cell_angle_beta	96.800951
_cell_angle_gamma	98.878472
loop_
_atom_site_label
_atom_site_type_symbol
_atom_site_fract_x
_atom_site_fract_y
_atom_site_fract_z
O1	O	2.021801	0.113493	0.160803
O2	O	1.596167	0.113495	0.175440
O3	O	1.773707	0.113489	-0.008918
O4	O	1.844261	0.113499	0.345162
O5	O	1.739891	-0.113498	0.026379
O6	O	1.562350	-0.113493	0.210738
O7	O	1.987985	-0.113494	0.196101
Zn8	Zn	1.769798	-0.149533	0.209024
Zn9	Zn	1.814353	0.149533	0.162518
O10	O	1.810444	-0.113489	0.380460
C11	C	1.523921	0.000001	0.191683
C12	C	1.359029	0.000002	0.187476
N13	N	1.739402	-0.353637	0.240762
C14	C	1.803766	-0.421418	0.173553
C15	C	1.780385	-0.578585	0.197989
C16	C	2.060231	0.000002	0.179858
C17	C	2.225124	0.000010	0.184063
C18	C	1.743783	-0.000003	-0.036624
C19	C	1.704984	0.000002	-0.171765
N20	N	1.844759	0.353638	0.130769
C21	C	1.812118	0.000004	-0.244393
C22	C	1.772020	0.000009	-0.384069
C23	C	1.840368	0.000006	0.408164
C24	C	1.879169	0.000010	0.543304
H25	H	1.707960	-0.636903	0.273621
H26	H	1.666981	-0.411961	0.316390
H27	H	1.583578	0.000011	-0.212992
O28	O	2.024104	0.000065	-0.407743
C29	C	2.115923	0.000029	-0.502389
H30	H	2.058079	0.043007	-0.595820
H31	H	2.136110	-0.108870	-0.502927
C32	C	2.338132	0.036253	-0.364085
C33	C	2.267093	0.089050	-0.478837
H34	H	2.431384	0.091160	-0.349555
H35	H	2.276273	0.036272	-0.300318
H36	H	2.354940	-0.054495	-0.364547
H37	H	2.250269	0.179789	-0.478367
H38	H	2.328953	0.089048	-0.542603
H39	H	1.917171	-0.588044	0.055128
O40	O	1.889968	-0.351882	0.083181
C41	C	1.828442	-0.386690	-0.032121
H42	H	1.704019	-0.426103	-0.027741
H43	H	1.888600	-0.469484	-0.054317
C44	C	2.000863	-0.211226	-0.139385
C45	C	1.848041	-0.259623	-0.134008
H46	H	2.012958	-0.132848	-0.202236
H47	H	2.042319	-0.187777	-0.061704
H48	H	2.050977	-0.280233	-0.157877
H49	H	1.797934	-0.190623	-0.115502
H50	H	1.806577	-0.283057	-0.211689
O51	O	1.956933	0.000184	-0.195106
C52	C	2.003268	0.117759	-0.140721
H53	H	1.900816	0.156953	-0.116609
H54	H	2.066198	0.200078	-0.208819
C55	C	2.233103	0.033909	-0.051513
C56	C	2.107270	0.082041	-0.021888
H57	H	2.297261	0.011880	0.021786
H58	H	2.201889	-0.045302	-0.088156
H59	H	2.285526	0.102516	-0.108264
H60	H	2.054838	0.013428	0.034849
H61	H	2.138477	0.161240	0.014768
O62	O	1.627236	-0.000046	-0.433425
C63	C	1.619434	-0.000003	-0.561900
H64	H	1.720644	-0.042977	-0.583637
H65	H	1.619164	0.108897	-0.614254
C66	C	1.350251	-0.036231	-0.575455
C67	C	1.474553	-0.089024	-0.602152
H68	H	1.260878	-0.091138	-0.600287
H69	H	1.355506	-0.036255	-0.488900
H70	H	1.350046	0.054518	-0.619085
H71	H	1.474766	-0.179764	-0.558509
H72	H	1.469294	-0.089017	-0.688701
