data_functionalizedCrystal
_audit_creation_method	'MofGen! by Chris Wilmer'
_symmetry_space_group_name_H-M	'P1'
_symmetry_Int_Tables_number	1
_symmetry_cell_setting	triclinic
loop_
_symmetry_equiv_pos_as_xyz
  x,y,z
_cell_length_a	23.532407
_cell_length_b	13.930277
_cell_length_c	14.853567
_cell_angle_alpha	89.999243
_cell_angle_beta	83.241804
_cell_angle_gamma	89.998126
loop_
_atom_site_label
_atom_site_type_symbol
_atom_site_fract_x
_atom_site_fract_y
_atom_site_fract_z
O1	O	0.755739	-0.079703	0.109437
O2	O	0.589945	-0.079731	0.125272
O3	O	0.677271	-0.079719	-0.013923
O4	O	0.668414	-0.079715	0.248633
O5	O	0.677259	0.079943	-0.013926
O6	O	0.589933	0.079931	0.125269
O7	O	0.755727	0.079958	0.109435
Zn8	Zn	0.672828	0.105295	0.117352
Zn9	Zn	0.672844	-0.105067	0.117355
O10	O	0.668402	0.079947	0.248630
C11	C	0.568721	0.000097	0.124868
C12	C	0.505499	0.000086	0.123655
N13	N	0.672822	0.248861	0.117348
N14	N	0.672856	-0.248633	0.117351
C15	C	0.106722	0.000131	0.198424
C16	C	0.047317	0.000137	0.197298
O17	O	0.010875	0.000173	0.266610
N18	N	0.024330	0.000134	0.114546
C19	C	0.060751	0.000135	0.032915
O20	O	0.035744	0.000134	-0.037575
C21	C	0.120155	0.000136	0.034043
C22	C	0.143139	0.000129	0.116800
C23	C	0.129707	0.000125	0.281175
C24	C	0.189108	0.000117	0.282300
C25	C	0.225524	0.000116	0.200676
C26	C	0.202540	0.000121	0.117926
C27	C	0.156575	0.000143	-0.047587
C28	C	0.215983	0.000145	-0.046453
C29	C	0.238966	0.000138	0.036304
C30	C	0.298358	0.000112	0.037427
N31	N	0.321345	0.000115	0.120179
C32	C	0.284928	0.000117	0.201803
C33	C	-0.064002	0.000134	0.030555
C34	C	-0.123405	0.000126	0.029427
C35	C	-0.136834	0.000130	0.193810
C36	C	-0.077431	0.000131	0.194937
C37	C	-0.041014	0.000137	0.113306
C38	C	0.409675	0.000100	0.204161
C39	C	0.469082	0.000088	0.205280
C40	C	0.482507	0.000089	0.040897
C41	C	0.423105	0.000096	0.039778
C42	C	0.386690	0.000104	0.121418
O43	O	0.334835	0.000080	-0.031848
O44	O	0.309944	0.000130	0.272282
C45	C	0.776951	0.000129	0.109839
C46	C	0.840174	0.000133	0.111052
C47	C	0.676864	0.000109	-0.047509
C48	C	0.675661	0.000100	-0.147580
C49	C	0.634175	0.701125	0.178967
C50	C	0.711529	0.701104	0.055736
C51	C	0.711523	0.600609	0.055734
C52	C	0.672842	0.550366	0.117349
C53	C	0.634168	0.600620	0.178968
C54	C	0.750200	0.550348	-0.005878
C55	C	0.750195	0.449846	-0.005882
C56	C	0.711511	0.399602	0.055730
C57	C	0.672835	0.449861	0.117350
C58	C	0.634155	0.399619	0.178966
C59	C	0.595475	0.449877	0.240583
C60	C	0.595484	0.550376	0.240580
C61	C	0.711502	0.299103	0.055733
C62	C	0.634148	0.299114	0.178967
C63	C	0.618704	0.000109	-0.559490
C64	C	0.722449	0.000126	-0.581906
C65	C	0.723580	0.000121	-0.487885
C66	C	0.672272	0.000111	-0.429662
C67	C	0.619833	0.000107	-0.465460
C68	C	0.776017	0.000135	-0.452079
C69	C	0.777150	0.000130	-0.358053
C70	C	0.725842	0.000114	-0.299828
C71	C	0.673401	0.000108	-0.335631
C72	C	0.622093	0.000099	-0.277408
C73	C	0.569652	0.000086	-0.313210
C74	C	0.568524	0.000090	-0.407235
C75	C	0.726969	0.000110	-0.205803
C76	C	0.623222	0.000096	-0.183378
C77	C	0.668809	0.000117	0.282216
C78	C	0.670012	0.000119	0.382286
H79	H	0.487792	0.000082	0.272673
F80	F	0.568612	0.000079	-0.121419
F81	F	0.512718	0.000074	-0.445345
H82	H	0.742997	0.258188	0.005569
H83	H	0.781688	0.408932	-0.056054
F84	F	0.777051	0.000150	-0.643873
H85	H	0.563984	0.408958	0.290755
F86	F	0.090957	0.000127	0.368059
H87	H	0.512168	0.000084	-0.025559
H88	H	0.527877	0.000085	-0.265793
F89	F	-0.175602	0.000136	0.280682
H90	H	0.576007	0.000096	-0.588645
F91	F	0.830619	0.000163	-0.514048
F92	F	0.832962	0.000131	-0.319958
H93	H	0.743025	0.742015	0.005575
F94	F	0.213561	0.000115	0.370383
H95	H	0.380033	0.000110	0.270640
F96	F	-0.052975	0.000126	0.283017
H97	H	-0.034354	0.000131	-0.035923
F98	F	0.132127	0.000137	-0.135670
F99	F	-0.147859	0.000112	-0.058655
F100	F	0.254736	0.000154	-0.133338
F101	F	0.398643	0.000103	-0.048300
H102	H	0.602647	0.258213	0.229139
F103	F	0.554324	0.603867	0.306154
H104	H	0.602681	0.742047	0.229132
F105	F	0.791368	0.603818	-0.071445
H106	H	0.769666	0.000126	-0.176657
