data_functionalizedCrystal
_audit_creation_method	'MofGen! by Chris Wilmer'
_symmetry_space_group_name_H-M	'P1'
_symmetry_Int_Tables_number	1
_symmetry_cell_setting	triclinic
loop_
_symmetry_equiv_pos_as_xyz
  x,y,z
_cell_length_a	10.268362
_cell_length_b	11.792241
_cell_length_c	11.792241
_cell_angle_alpha	84.193416
_cell_angle_beta	89.994090
_cell_angle_gamma	90.003482
loop_
_atom_site_label
_atom_site_type_symbol
_atom_site_fract_x
_atom_site_fract_y
_atom_site_fract_z
O1	O	0.108174	-1.506902	-0.155570
O2	O	0.108205	-1.176561	-0.171603
O3	O	0.108180	-1.349748	0.001584
O4	O	0.108199	-1.333715	-0.328757
O5	O	-0.108421	-1.349746	0.001594
O6	O	-0.108396	-1.176559	-0.171593
O7	O	-0.108426	-1.506900	-0.155560
Cu8	Cu	-0.128188	-1.341729	-0.163576
Cu9	Cu	0.127967	-1.341732	-0.163588
O10	O	-0.108401	-1.333713	-0.328747
C11	C	-0.000092	-1.134269	-0.170591
C12	C	-0.000080	-1.008255	-0.167576
N13	N	-0.308354	-1.341736	-0.163566
N14	N	0.308133	-1.341734	-0.163588
C15	C	0.573803	-1.341731	-0.163581
C16	C	0.425965	-1.341730	-0.163588
C17	C	-0.000120	-1.348740	0.043880
C18	C	-0.000119	-1.345726	0.169894
C19	C	-0.000127	-1.549192	-0.156572
C20	C	-0.000130	-1.675206	-0.159587
C21	C	-0.000118	-0.777543	-0.162034
C22	C	-0.000097	-0.905928	-0.165113
C23	C	-0.000099	-1.334721	-0.371043
C24	C	-0.000092	-1.337736	-0.497057
C25	C	-0.000096	-1.340183	0.400606
C26	C	-0.000108	-1.343262	0.272221
