data_functionalizedCrystal
_audit_creation_method	'MofGen! by Chris Wilmer'
_symmetry_space_group_name_H-M	'P1'
_symmetry_Int_Tables_number	1
_symmetry_cell_setting	triclinic
loop_
_symmetry_equiv_pos_as_xyz
  x,y,z
_cell_length_a	8.597314
_cell_length_b	27.732048
_cell_length_c	7.681481
_cell_angle_alpha	84.300807
_cell_angle_beta	76.526409
_cell_angle_gamma	96.001364
loop_
_atom_site_label
_atom_site_type_symbol
_atom_site_fract_x
_atom_site_fract_y
_atom_site_fract_z
O1	O	-2.098190	0.066851	0.171826
O2	O	-1.633941	0.074552	0.101398
O3	O	-1.880488	0.000336	0.138834
O4	O	-1.851644	0.141067	0.134391
O5	O	-1.910834	-0.008819	0.436299
O6	O	-1.664287	0.065397	0.398864
O7	O	-2.128537	0.057696	0.469292
Zn8	Zn	-1.901230	0.060093	0.481307
Zn9	Zn	-1.861248	0.072155	0.089383
O10	O	-1.881990	0.131912	0.431856
C11	C	-1.589739	0.069657	0.241124
C12	C	-1.412818	0.068706	0.214286
C13	C	-1.895056	-0.022250	0.287479
C14	C	-1.893235	-0.075909	0.287218
C15	C	-2.027441	-0.414419	0.307487
C16	C	-2.020676	-0.616093	0.306436
O17	O	-2.143398	-0.647070	0.324976
N18	N	-1.874486	-0.635546	0.284260
C19	C	-1.729976	-0.604577	0.262334
O20	O	-1.605476	-0.625749	0.243429
C21	C	-1.736742	-0.402903	0.263372
C22	C	-1.882943	-0.383454	0.285567
C23	C	-2.173630	-0.394969	0.329679
C24	C	-2.175321	-0.344554	0.329951
C25	C	-2.030823	-0.313589	0.308031
C26	C	-1.884634	-0.333039	0.285840
C27	C	-1.592232	-0.371934	0.241433
C28	C	-1.593936	-0.321513	0.241690
C29	C	-1.740137	-0.302064	0.263885
C30	C	-1.741826	-0.251658	0.264192
N31	N	-1.888016	-0.232205	0.286368
C32	C	-2.032514	-0.263171	0.308288
C33	C	-1.726435	-0.710459	0.261794
C34	C	-1.724743	-0.760877	0.261537
C35	C	-2.015443	-0.772390	0.305636
C36	C	-2.017134	-0.721971	0.305905
C37	C	-1.872624	-0.691006	0.283969
C38	C	-2.036054	-0.157295	0.308859
C39	C	-2.037733	-0.106875	0.309137
C40	C	-1.747033	-0.095366	0.265029
C41	C	-1.745354	-0.145781	0.264760
C42	C	-1.889877	-0.176745	0.286672
O43	O	-1.619167	-0.220652	0.245642
O44	O	-2.156993	-0.241987	0.327150
C45	C	-2.025750	-0.464835	0.307215
C46	C	-1.879561	-0.484284	0.285023
C47	C	-1.735063	-0.453319	0.263104
C48	C	-1.877870	-0.534703	0.284767
C49	C	-2.022368	-0.565668	0.306686
C50	C	-2.168558	-0.546215	0.328862
C51	C	-2.170249	-0.495800	0.329134
C52	C	-1.588873	-0.472772	0.240928
C53	C	-1.587195	-0.523188	0.240659
C54	C	-1.731693	-0.554153	0.262579
C55	C	-1.172739	0.062590	0.329569
C56	C	-1.349661	0.063540	0.356416
C57	C	-1.867421	0.154498	0.283207
C58	C	-1.869241	0.208158	0.283457
N59	N	-1.928529	0.051860	0.748786
N60	N	-1.833962	0.080384	-0.178094
H61	H	-1.331531	0.072402	0.072053
O62	O	-1.446588	0.059041	0.526135
C63	C	-1.545028	0.008949	0.813964
C64	C	-1.435211	0.013976	0.621797
H65	H	-1.535841	-0.027479	0.891374
H66	H	-1.675270	0.010491	0.806226
H67	H	-1.505182	0.040136	0.886600
H68	H	-1.474912	-0.017203	0.549051
H69	H	-1.304992	0.012456	0.629663
H70	H	-2.133099	-0.797611	0.323485
O71	O	-1.718591	0.115091	0.714883
C72	C	-1.434992	0.145225	0.615059
C73	C	-1.565489	0.105895	0.736392
H74	H	-1.311177	0.137799	0.632379
H75	H	-1.458570	0.182819	0.654791
H76	H	-1.438625	0.144157	0.468067
H77	H	-1.561931	0.106919	0.883419
H78	H	-1.541866	0.068320	0.696506
O79	O	-2.179892	-0.088060	0.330634
C80	C	-2.468056	-0.104813	0.374449
C81	C	-2.307180	-0.126181	0.350086
H82	H	-2.571015	-0.135625	0.390220
H83	H	-2.463526	-0.077675	0.251177
H84	H	-2.488733	-0.085318	0.500126
H85	H	-2.286404	-0.145701	0.224477
H86	H	-2.311788	-0.153294	0.473450
O87	O	-2.043621	0.017064	0.855777
C88	C	-2.144499	-0.068760	0.927940
C89	C	-2.014087	-0.029404	0.806622
H90	H	-2.120647	-0.106339	0.888268
H91	H	-2.268362	-0.061416	0.910522
H92	H	-2.140973	-0.067660	1.074948
H93	H	-2.017464	-0.030481	0.659567
H94	H	-1.890283	-0.036761	0.824194
O95	O	-1.448371	-0.442739	0.219390
C96	C	-1.184726	-0.412708	0.027647
C97	C	-1.343759	-0.446746	0.051813
H98	H	-1.100116	-0.415929	-0.107849
H99	H	-1.125315	-0.423629	0.141115
H100	H	-1.211067	-0.373336	0.031743
H101	H	-1.317557	-0.486128	0.047676
H102	H	-1.403124	-0.435783	-0.061652
H103	H	-2.294372	-0.328723	0.348017
O104	O	-2.176363	-0.187424	0.330375
C105	C	-2.358961	-0.255755	0.509857
C106	C	-2.200009	-0.221675	0.485667
H107	H	-2.378147	-0.283448	0.635426
H108	H	-2.352791	-0.275846	0.386438
H109	H	-2.463688	-0.233173	0.525674
H110	H	-2.095199	-0.244221	0.469899
H111	H	-2.206319	-0.201582	0.609096
O112	O	-2.313928	-0.425102	0.351198
C113	C	-2.496530	-0.493429	0.530697
C114	C	-2.337577	-0.459350	0.506499
H115	H	-2.515718	-0.521120	0.656273
H116	H	-2.490361	-0.513523	0.407285
H117	H	-2.601255	-0.470846	0.546505
H118	H	-2.232769	-0.481896	0.490740
H119	H	-2.343885	-0.439253	0.629921
O120	O	-2.159283	-0.703157	0.327390
C121	C	-2.447446	-0.719915	0.371205
C122	C	-2.286567	-0.741281	0.346857
H123	H	-2.550401	-0.750729	0.386988
H124	H	-2.442917	-0.692782	0.247921
H125	H	-2.468127	-0.700415	0.496870
H126	H	-2.265786	-0.760806	0.221259
H127	H	-2.291172	-0.768389	0.470233
H128	H	-1.626311	-0.161619	0.246737
H129	H	-1.608750	-0.685250	0.243930
O130	O	-1.582801	-0.779817	0.239770
C131	C	-1.396393	-0.825273	0.059696
C132	C	-1.557201	-0.803862	0.084173
H133	H	-1.375628	-0.844710	-0.066120
H134	H	-1.400984	-0.852455	0.182868
H135	H	-1.293453	-0.794470	0.044161
H136	H	-1.660226	-0.834632	0.099659
H137	H	-1.552471	-0.776668	-0.039009
H138	H	-1.473179	-0.387760	0.223348
O139	O	-1.453427	-0.291475	0.220130
C140	C	-1.189806	-0.261437	0.028343
C141	C	-1.348830	-0.295482	0.052542
H142	H	-1.105209	-0.264658	-0.107161
H143	H	-1.130372	-0.272352	0.141798
H144	H	-1.216163	-0.222067	0.032438
H145	H	-1.322612	-0.334863	0.048407
H146	H	-1.408218	-0.284526	-0.060908
H147	H	-1.629387	-0.070145	0.247189
H148	H	-2.286214	-0.571437	0.346717
O149	O	-1.445238	-0.542127	0.218872
C150	C	-1.258838	-0.587576	0.038757
C151	C	-1.419649	-0.566167	0.063262
H152	H	-1.238081	-0.607009	-0.087069
H153	H	-1.263417	-0.614762	0.161916
H154	H	-1.155898	-0.556773	0.023224
H155	H	-1.522674	-0.596937	0.078747
H156	H	-1.414931	-0.538969	-0.059907
H157	H	-2.289300	-0.479969	0.347207
