data_functionalizedCrystal
_audit_creation_method	'MofGen! by Chris Wilmer'
_symmetry_space_group_name_H-M	'P1'
_symmetry_Int_Tables_number	1
_symmetry_cell_setting	triclinic
loop_
_symmetry_equiv_pos_as_xyz
  x,y,z
_cell_length_a	19.121063
_cell_length_b	19.805407
_cell_length_c	19.805399
_cell_angle_alpha	89.975799
_cell_angle_beta	92.411105
_cell_angle_gamma	92.468477
loop_
_atom_site_label
_atom_site_type_symbol
_atom_site_fract_x
_atom_site_fract_y
_atom_site_fract_z
Zn1	Zn	-0.279645	1.023233	-0.394286
Zn2	Zn	-0.397097	1.018317	-0.285921
Zn3	Zn	-0.279662	0.910047	-0.281102
Zn4	Zn	-0.397058	0.905182	-0.399057
O5	O	-0.338365	0.964195	-0.340091
O6	O	-0.295234	1.117297	-0.379931
O7	O	-0.381543	1.003933	-0.190566
O8	O	-0.181375	0.929155	-0.292103
O9	O	-0.381525	1.113685	-0.300316
O10	O	-0.181362	1.012312	-0.375259
O11	O	-0.295264	0.924388	-0.187026
O12	O	-0.295226	0.814686	-0.296729
O13	O	-0.381459	0.920863	-0.493139
O14	O	-0.381476	0.811111	-0.383390
O15	O	-0.295196	1.007595	-0.489635
O16	O	-0.495376	0.999216	-0.304941
O17	O	-0.495348	0.916096	-0.388062
C18	C	-0.338350	0.788339	-0.340055
C19	C	-0.338360	0.713107	-0.340056
C20	C	-0.383360	0.249469	-0.385194
C21	C	-0.383359	0.320157	-0.385180
C22	C	-0.338382	0.357344	-0.340119
C23	C	-0.293409	0.323839	-0.295064
C24	C	-0.293414	0.253152	-0.295075
C25	C	-0.293388	0.608913	-0.295015
C26	C	-0.293384	0.679606	-0.295009
C27	C	-0.383332	0.675919	-0.385120
C28	C	-0.383338	0.605231	-0.385132
C29	C	-0.338367	0.571732	-0.340075
C30	C	-0.338370	0.495084	-0.340090
C31	C	-0.338376	0.433992	-0.340106
C32	C	-0.520846	0.956613	-0.347557
C33	C	-0.598912	0.953431	-0.350773
C34	C	-0.635579	0.995246	-0.309044
C35	C	-0.708931	0.992258	-0.312073
C36	C	-0.745614	0.947450	-0.356829
C37	C	-0.708941	0.905634	-0.398563
C38	C	-0.635591	0.908626	-0.395536
C39	C	-0.967084	0.936252	-0.368132
C40	C	-1.040439	0.933261	-0.371153
C41	C	-1.040423	1.019887	-0.284664
C42	C	-0.967072	1.022872	-0.281639
C43	C	-0.930406	0.981058	-0.323376
C44	C	-0.820591	0.944393	-0.359924
C45	C	-0.855430	0.984119	-0.320283
C46	C	-0.155172	0.971825	-0.332611
C47	C	-0.077106	0.975076	-0.329424
C48	C	-0.338321	0.964235	-0.516632
C49	C	-0.338302	0.964251	-0.591864
C50	C	-0.338382	1.140737	-0.340129
C51	C	-0.338389	1.215968	-0.340145
C52	C	-0.293383	1.009414	-0.625384
C53	C	-0.293363	1.009422	-0.696071
C54	C	-0.338266	0.964270	-0.733238
C55	C	-0.383187	0.919103	-0.699713
C56	C	-0.383203	0.919092	-0.629026
C57	C	-0.383122	0.919144	-0.984784
C58	C	-0.383103	0.919159	-1.055475
C59	C	-0.293281	1.009473	-1.051829
C60	C	-0.293297	1.009463	-0.981142
C61	C	-0.338216	0.964293	-0.947623
C62	C	-0.338236	0.964284	-0.870976
C63	C	-0.338249	0.964281	-0.809884
C64	C	-0.338359	0.964196	-0.164235
C65	C	-0.338180	0.964319	-0.088996
H66	H	-0.419960	0.574957	-0.421828
H67	H	-0.256792	0.225877	-0.258393
H68	H	-0.937206	1.059357	-0.245196
H69	H	-0.937236	0.902204	-0.402114
H70	H	-0.850466	0.907910	-0.396363
H71	H	-0.256735	1.046232	-0.950885
O72	O	-1.076182	0.889751	-0.414573
C73	C	-1.148785	0.896088	-0.408300
H74	H	-1.158815	0.917876	-0.356500
H75	H	-1.176702	0.844247	-0.413990
H76	H	-1.169547	0.931262	-0.449338
H77	H	-0.738782	1.026307	-0.278092
O78	O	-0.249741	0.360064	-0.251355
C79	C	-0.259389	0.429639	-0.260994
H80	H	-0.282461	0.438366	-0.314135
H81	H	-0.206771	0.458683	-0.254329
H82	H	-0.296735	0.448127	-0.222312
O83	O	-0.426926	0.708539	-0.428914
C84	C	-0.386994	0.751099	-0.471063
H85	H	-0.333737	0.763888	-0.445092
H86	H	-0.415614	0.799622	-0.481254
H87	H	-0.379343	0.724203	-0.520925
H88	H	-1.070285	1.053930	-0.250686
O89	O	-0.600057	1.038830	-0.265549
C90	C	-0.648154	1.075083	-0.229356
H91	H	-0.700418	1.075279	-0.259240
H92	H	-0.626922	1.129282	-0.221312
H93	H	-0.656014	1.050006	-0.178250
O94	O	-0.249661	1.053282	-1.084495
C95	C	-0.259281	1.043622	-1.154855
H96	H	-0.282275	0.990430	-1.165435
H97	H	-0.206665	1.050410	-1.179570
H98	H	-0.296682	1.082214	-1.176455
H99	H	-0.419670	0.882388	-1.085734
O100	O	-0.744651	0.862199	-0.442075
C101	C	-0.787006	0.898981	-0.487588
H102	H	-0.797968	0.949842	-0.464220
H103	H	-0.838602	0.869300	-0.498757
H104	H	-0.758698	0.907542	-0.536588
O105	O	-0.600079	0.867941	-0.436100
C106	C	-0.648183	0.827764	-0.476266
H107	H	-0.700490	0.823296	-0.450695
H108	H	-0.627026	0.775296	-0.482566
H109	H	-0.655932	0.852209	-0.528013
H110	H	-0.419707	0.882373	-0.957501
H111	H	-0.256756	0.709882	-0.258313
O112	O	-0.819877	1.027605	-0.276717
C113	C	-0.837842	1.012103	-0.209983
H114	H	-0.891125	0.983916	-0.210749
H115	H	-0.840324	1.060865	-0.179779
H116	H	-0.796606	0.978993	-0.185456
H117	H	-0.256820	1.046184	-0.595128
H118	H	-0.256786	1.046199	-0.723360
O119	O	-0.426783	0.875305	-0.735918
C120	C	-0.417126	0.884987	-0.805495
H121	H	-0.394128	0.938181	-0.814226
H122	H	-0.469728	0.878207	-0.834505
H123	H	-0.379714	0.846401	-0.824017
H124	H	-0.256772	0.581647	-0.258325
O125	O	-0.426944	0.875298	-0.596493
C126	C	-0.496940	0.887172	-0.616639
H127	H	-0.500481	0.941097	-0.636237
H128	H	-0.531649	0.879899	-0.571566
H129	H	-0.515293	0.850122	-0.658404
O130	O	-0.427114	0.213450	-0.428996
C131	C	-0.466793	0.258181	-0.468767
H132	H	-0.469187	0.308452	-0.441126
H133	H	-0.522140	0.235464	-0.478173
H134	H	-0.441138	0.266797	-0.519159
H135	H	-0.419981	0.347430	-0.421863
