data_functionalizedCrystal
_audit_creation_method	'MofGen! by Chris Wilmer'
_symmetry_space_group_name_H-M	'P1'
_symmetry_Int_Tables_number	1
_symmetry_cell_setting	triclinic
loop_
_symmetry_equiv_pos_as_xyz
  x,y,z
_cell_length_a	10.540510
_cell_length_b	23.532407
_cell_length_c	9.616153
_cell_angle_alpha	89.993077
_cell_angle_beta	89.992871
_cell_angle_gamma	83.680994
loop_
_atom_site_label
_atom_site_type_symbol
_atom_site_fract_x
_atom_site_fract_y
_atom_site_fract_z
O1	O	1.683283	0.080171	-0.115670
O2	O	1.313617	0.087750	-0.115673
O3	O	1.509597	0.001102	-0.115646
O4	O	1.487302	0.166819	-0.115697
O5	O	1.509570	0.001103	0.115646
O6	O	1.313590	0.087752	0.115619
O7	O	1.683256	0.080172	0.115621
Zn8	Zn	1.498419	0.083962	0.152342
Zn9	Zn	1.498454	0.083960	-0.152394
O10	O	1.487276	0.166821	0.115594
C11	C	1.266318	0.087186	-0.000027
C12	C	1.125424	0.085496	-0.000027
C13	C	0.905993	0.145690	-0.000577
C14	C	1.052529	0.147493	-0.000047
C15	C	1.081690	0.053761	0.132059
C16	C	0.934974	0.052397	0.132161
C17	C	0.935240	0.051104	-0.130860
C18	C	1.081485	0.054045	-0.132598
C19	C	1.509016	-0.020117	0.000003
C20	C	1.507309	-0.083346	0.000014
C21	C	1.612580	-0.481758	-0.000061
C22	C	1.610995	-0.541169	-0.000072
O23	O	1.708582	-0.577274	-0.000123
N24	N	1.494484	-0.564559	-0.000072
C25	C	1.379552	-0.528535	-0.000075
O26	O	1.280305	-0.553886	-0.000077
C27	C	1.381139	-0.469126	-0.000074
C28	C	1.497657	-0.445739	-0.000061
C29	C	1.729089	-0.458371	-0.000049
C30	C	1.730674	-0.398964	-0.000036
C31	C	1.615750	-0.362945	-0.000035
C32	C	1.499242	-0.386332	-0.000047
C33	C	1.266208	-0.433103	-0.000088
C34	C	1.267805	-0.373690	-0.000088
C35	C	1.384323	-0.350303	-0.000074
C36	C	1.385904	-0.290907	-0.000033
N37	N	1.502414	-0.267516	-0.000034
C38	C	1.617337	-0.303536	-0.000035
C39	C	1.376228	-0.653300	-0.000079
C40	C	1.374640	-0.712708	-0.000069
C41	C	1.606083	-0.725338	-0.000069
C42	C	1.607670	-0.665928	-0.000068
C43	C	1.492738	-0.629909	-0.000079
C44	C	1.620658	-0.178777	-0.000006
C45	C	1.622232	-0.119365	0.000013
C46	C	1.390790	-0.106740	0.000005
C47	C	1.389214	-0.166147	-0.000006
C48	C	1.504159	-0.202165	-0.000016
O49	O	1.288367	-0.254767	0.000012
O50	O	1.716568	-0.278177	-0.000051
C51	C	1.730555	0.080736	-0.000028
C52	C	1.871449	0.082426	-0.000037
N53	N	1.498404	0.083964	0.360317
C54	C	1.487857	0.188039	-0.000058
C55	C	1.489564	0.251268	-0.000078
N56	N	1.498479	0.083954	-0.360368
C57	C	1.393257	0.130159	0.580673
C58	C	1.393480	0.130332	0.419505
C59	C	1.630686	0.097475	0.418762
C60	C	1.630111	0.097802	0.579980
C61	C	1.472596	0.024105	0.580247
C62	C	1.469537	0.024493	0.419020
H63	H	0.894034	0.074087	0.230883
N64	N	1.262562	0.119562	0.632087
H65	H	1.196459	0.149681	0.593041
H66	H	1.243088	0.080503	0.600644
N67	N	1.736836	0.054115	0.367991
H68	H	1.700109	0.025228	0.306466
H69	H	1.800480	0.074214	0.313298
N70	N	1.140523	-0.458308	-0.000116
H71	H	1.134711	-0.482668	-0.085861
H72	H	1.134741	-0.482651	0.085675
N73	N	1.415275	0.189145	0.368372
H74	H	1.415509	0.189503	0.263345
H75	H	1.344753	0.218058	0.403772
N76	N	1.660473	0.155637	0.629767
H77	H	1.674102	0.180680	0.546986
H78	H	1.587092	0.174060	0.687449
N79	N	0.847319	0.177505	0.124168
H80	H	0.798459	0.151115	0.181028
H81	H	0.917035	0.191378	0.183038
N82	N	1.661794	0.154658	0.365245
H83	H	1.593487	0.185556	0.396141
H84	H	1.747111	0.162918	0.403445
H85	H	1.541247	-0.011541	0.378736
N86	N	1.089051	0.180580	0.125567
H87	H	1.062549	0.161199	0.212953
H88	H	1.184500	0.181888	0.126312
H89	H	1.372233	0.014252	0.380823
H90	H	1.549338	-0.010285	0.618374
N91	N	0.878189	0.077053	-0.263480
H92	H	0.810404	0.109379	-0.240095
H93	H	0.947368	0.092221	-0.320795
N94	N	0.906535	-0.009023	0.140157
H95	H	0.855137	-0.014677	0.226737
H96	H	0.856193	-0.018416	0.055443
N97	N	1.347645	0.007074	0.634166
H98	H	1.306548	0.037986	0.697644
H99	H	1.288910	0.001796	0.553331
H100	H	1.409476	0.174310	0.621158
N101	N	1.736850	0.054951	0.631689
H102	H	1.723541	0.015592	0.596598
H103	H	1.821192	0.065764	0.596386
N104	N	1.121542	0.082957	0.262265
H105	H	1.180008	0.055084	0.319137
H106	H	1.167868	0.116736	0.235891
H107	H	1.130577	0.008120	0.136985
N108	N	1.856355	-0.373751	-0.000033
H109	H	1.906666	-0.386852	-0.085777
H110	H	1.839843	-0.330653	0.000023
H111	H	1.699660	-0.754676	-0.000075
H112	H	1.081071	0.172320	-0.094735
H113	H	1.109357	0.077135	-0.230314
H114	H	1.132039	0.008783	-0.140560
N115	N	1.733340	-0.640706	-0.000053
H116	H	1.805896	-0.672544	-0.000049
H117	H	1.739059	-0.616329	-0.085796
N118	N	1.248959	-0.737922	-0.000069
H119	H	1.243141	-0.762282	-0.085813
H120	H	1.243198	-0.762266	0.085723
N121	N	0.907929	-0.010553	-0.132025
H122	H	0.812657	-0.012251	-0.135638
H123	H	0.949225	-0.030423	-0.216297
N124	N	1.747910	-0.094141	0.000036
H125	H	1.820469	-0.125977	0.000030
H126	H	1.753624	-0.069760	-0.085700
N127	N	1.143841	-0.334841	-0.000106
H128	H	1.069795	-0.358676	-0.000116
H129	H	1.139438	-0.309922	0.085640
H130	H	1.822679	-0.487693	-0.000055
N131	N	0.849389	0.177689	-0.126047
H132	H	0.800799	0.151489	-0.183759
H133	H	0.789441	0.211673	-0.094433
H134	H	1.714256	-0.208096	-0.000019
H135	H	1.297223	-0.077403	0.000011
N136	N	1.252259	-0.614452	-0.000078
H137	H	1.178218	-0.638289	-0.000076
H138	H	1.247861	-0.589532	0.085666
N139	N	1.263546	-0.191376	-0.000002
H140	H	1.190985	-0.159541	0.000006
H141	H	1.257858	-0.215740	-0.085756
H142	H	1.295128	0.122203	0.379993
