data_functionalizedCrystal
_audit_creation_method	'MofGen! by Chris Wilmer'
_symmetry_space_group_name_H-M	'P1'
_symmetry_Int_Tables_number	1
_symmetry_cell_setting	triclinic
loop_
_symmetry_equiv_pos_as_xyz
  x,y,z
_cell_length_a	19.805407
_cell_length_b	19.120786
_cell_length_c	19.805399
_cell_angle_alpha	92.468930
_cell_angle_beta	90.024201
_cell_angle_gamma	92.464129
loop_
_atom_site_label
_atom_site_type_symbol
_atom_site_fract_x
_atom_site_fract_y
_atom_site_fract_z
Zn1	Zn	1.023243	-0.279660	0.371297
Zn2	Zn	1.356577	0.053673	0.704631
Zn3	Zn	1.689910	0.387006	1.037964
Zn4	Zn	1.018331	-0.397119	0.253277
Zn5	Zn	1.351665	-0.063786	0.586610
Zn6	Zn	1.684998	0.269548	0.919943
Zn7	Zn	0.910057	-0.279678	0.258112
Zn8	Zn	1.243391	0.053655	0.591445
Zn9	Zn	1.576724	0.386989	0.924779
Zn10	Zn	0.905196	-0.397080	0.366416
Zn11	Zn	1.238530	-0.063747	0.699749
Zn12	Zn	1.571863	0.269586	1.033083
O13	O	0.964207	-0.338384	0.312276
O14	O	1.297541	-0.005051	0.645609
O15	O	1.630874	0.328282	0.978942
O16	O	1.117308	-0.295250	0.355661
O17	O	1.450641	0.038083	0.688994
O18	O	1.783975	0.371417	1.022328
O19	O	1.003947	-0.381564	0.159201
O20	O	1.337281	-0.048231	0.492534
O21	O	1.670614	0.285103	0.825867
O22	O	0.929162	-0.181385	0.277193
O23	O	1.262495	0.151948	0.610526
O24	O	1.595828	0.485281	0.943860
O25	O	1.113699	-0.381547	0.268952
O26	O	1.447033	-0.048213	0.602285
O27	O	1.780366	0.285120	0.935618
O28	O	1.012319	-0.181372	0.360350
O29	O	1.345652	0.151961	0.693683
O30	O	1.678986	0.485294	1.027016
O31	O	0.924399	-0.295281	0.162753
O32	O	1.257732	0.038053	0.496086
O33	O	1.591065	0.371386	0.829420
O34	O	0.814696	-0.295243	0.272460
O35	O	1.148030	0.038090	0.605793
O36	O	1.481363	0.371424	0.939126
O37	O	0.920877	-0.381480	0.461781
O38	O	1.254210	-0.048147	0.795114
O39	O	1.587544	0.285186	1.128448
O40	O	0.811125	-0.381498	0.352030
O41	O	1.144458	-0.048164	0.685363
O42	O	1.477792	0.285169	1.018697
O43	O	1.007606	-0.295212	0.465367
O44	O	1.340939	0.038121	0.798701
O45	O	1.674272	0.371454	1.132034
O46	O	0.999234	-0.495404	0.264218
O47	O	1.332567	-0.162071	0.597552
O48	O	1.665901	0.171263	0.930885
O49	O	0.916114	-0.495376	0.347341
O50	O	1.249447	-0.162042	0.680674
O51	O	1.582781	0.171291	1.014008
C52	C	0.788352	-0.338369	0.312240
C53	C	1.121685	-0.005035	0.645573
C54	C	1.455018	0.328298	0.978907
C55	C	0.713119	-0.338379	0.312240
C56	C	1.046453	-0.005045	0.645574
C57	C	1.379786	0.328288	0.978907
C58	C	0.249483	-0.383382	0.353680
C59	C	0.582816	-0.050048	0.687013
C60	C	0.916150	0.283285	1.020346
C61	C	0.320171	-0.383381	0.353665
C62	C	0.653505	-0.050047	0.686999
C63	C	0.986838	0.283286	1.020332
C64	C	0.357357	-0.338401	0.312301
C65	C	0.690690	-0.005068	0.645635
C66	C	1.024023	0.328265	0.978968
C67	C	0.323850	-0.293425	0.270944
C68	C	0.657183	0.039908	0.604277
C69	C	0.990517	0.373241	0.937610
C70	C	0.253163	-0.293431	0.270955
C71	C	0.586496	0.039903	0.604288
C72	C	0.919829	0.373236	0.937622
C73	C	0.608924	-0.293404	0.270897
C74	C	0.942257	0.039929	0.604230
C75	C	1.275591	0.373263	0.937564
C76	C	0.679616	-0.293401	0.270890
C77	C	1.012950	0.039933	0.604224
C78	C	1.346283	0.373266	0.937557
C79	C	0.675933	-0.383354	0.353607
C80	C	1.009266	-0.050020	0.686941
C81	C	1.342600	0.283313	1.020274
C82	C	0.605245	-0.383359	0.353619
C83	C	0.938579	-0.050026	0.686952
C84	C	1.271912	0.283308	1.020285
C85	C	0.571745	-0.338386	0.312259
C86	C	0.905078	-0.005053	0.645592
C87	C	1.238411	0.328281	0.978925
C88	C	0.495096	-0.338389	0.312274
C89	C	0.828430	-0.005055	0.645607
C90	C	1.161763	0.328278	0.978940
C91	C	0.434004	-0.338395	0.312289
C92	C	0.767338	-0.005061	0.645623
C93	C	1.100671	0.328272	0.978956
C94	C	0.956632	-0.520875	0.304740
C95	C	1.289965	-0.187542	0.638073
C96	C	1.623298	0.145791	0.971407
C97	C	0.953453	-0.598946	0.301539
C98	C	1.286786	-0.265612	0.634872
C99	C	1.620120	0.067721	0.968206
C100	C	0.995223	-0.635556	0.343365
C101	C	1.328556	-0.302223	0.676699
C102	C	1.661890	0.031110	1.010032
C103	C	0.992233	-0.708912	0.340359
C104	C	1.325567	-0.375578	0.673692
C105	C	1.658900	-0.042245	1.007026
C106	C	0.947477	-0.745655	0.295522
C107	C	1.280810	-0.412322	0.628855
C108	C	1.614143	-0.078989	0.962189
C109	C	0.905702	-0.709040	0.253694
C110	C	1.239036	-0.375706	0.587027
C111	C	1.572369	-0.042373	0.920360
C112	C	0.908689	-0.635686	0.256704
C113	C	1.242022	-0.302352	0.590037
C114	C	1.575356	0.030981	0.923371
C115	C	0.936291	-0.967141	0.284268
C116	C	1.269625	-0.633807	0.617601
C117	C	1.602958	-0.300474	0.950934
C118	C	0.933309	-1.040500	0.281259
C119	C	1.266643	-0.707167	0.614592
C120	C	1.599976	-0.373833	0.947925
C121	C	1.019840	-1.040367	0.367925
C122	C	1.353173	-0.707033	0.701259
C123	C	1.686506	-0.373700	1.034592
C124	C	1.022825	-0.967011	0.370929
C125	C	1.356159	-0.633678	0.704262
C126	C	1.689492	-0.300345	1.037596
C127	C	0.981048	-0.930402	0.329103
C128	C	1.314382	-0.597069	0.662437
C129	C	1.647715	-0.263735	0.995770
C130	C	0.944421	-0.820636	0.292446
C131	C	1.277755	-0.487303	0.625779
C132	C	1.611088	-0.153970	0.959113
C133	C	0.984101	-0.855422	0.332183
C134	C	1.317434	-0.522089	0.665516
C135	C	1.650768	-0.188756	0.998850
C136	C	1.140749	-0.338401	0.312311
C137	C	1.474083	-0.005067	0.645645
C138	C	1.807416	0.328266	0.978978
C139	C	1.215981	-0.338408	0.312327
C140	C	1.549314	-0.005074	0.645660
C141	C	1.882648	0.328259	0.978993
C142	C	0.964247	-0.338340	0.488820
C143	C	1.297580	-0.005007	0.822153
C144	C	1.630914	0.328327	1.155487
C145	C	0.964264	-0.338321	0.564053
C146	C	1.297597	-0.004988	0.897386
C147	C	1.630931	0.328345	1.230720
C148	C	0.971831	-0.155181	0.319855
C149	C	1.305164	0.178153	0.653189
C150	C	1.638497	0.511486	0.986522
C151	C	0.975079	-0.077110	0.323085
C152	C	1.308413	0.256223	0.656419
C153	C	1.641746	0.589556	0.989752
C154	C	0.964209	-0.338378	0.136420
C155	C	1.297542	-0.005044	0.469753
C156	C	1.630875	0.328289	0.803086
C157	C	0.964331	-0.338199	0.061196
C158	C	1.297664	-0.004865	0.394529
C159	C	1.630998	0.328468	0.727862
C160	C	1.009425	-0.293399	0.601266
C161	C	1.342758	0.039934	0.934599
C162	C	1.676091	0.373267	1.267932
C163	C	1.009432	-0.293379	0.671955
C164	C	1.342766	0.039954	1.005288
C165	C	1.676099	0.373288	1.338622
C166	C	0.964282	-0.338285	0.705430
C167	C	1.297616	-0.004951	1.038763
C168	C	1.630949	0.328382	1.372097
C169	C	0.919117	-0.383209	0.668212
C170	C	1.252450	-0.049875	1.001546
C171	C	1.585783	0.283458	1.334879
C172	C	0.919106	-0.383225	0.597524
C173	C	1.252440	-0.049892	0.930858
C174	C	1.585773	0.283442	1.264191
C175	C	0.919158	-0.383143	0.953288
C176	C	1.252491	-0.049810	1.286622
C177	C	1.585824	0.283524	1.619955
C178	C	0.919173	-0.383125	1.023981
C179	C	1.252506	-0.049791	1.357315
C180	C	1.585840	0.283542	1.690648
C181	C	1.009484	-0.293297	1.027719
C182	C	1.342817	0.040036	1.361052
C183	C	1.676150	0.373370	1.694386
C184	C	1.009473	-0.293313	0.957031
C185	C	1.342807	0.040020	1.290365
C186	C	1.676140	0.373353	1.623698
C187	C	0.964306	-0.338234	0.919820
C188	C	1.297639	-0.004901	1.253153
C189	C	1.630972	0.328432	1.586486
C190	C	0.964297	-0.338255	0.843170
C191	C	1.297630	-0.004922	1.176504
C192	C	1.630964	0.328412	1.509837
C193	C	0.964294	-0.338268	0.782078
C194	C	1.297627	-0.004935	1.115411
C195	C	1.630960	0.328399	1.448745
H196	H	0.703217	-0.419975	0.387283
H197	H	1.036551	-0.086642	0.720616
H198	H	1.369884	0.246692	1.053950
H199	H	1.046208	-0.256801	0.702251
H200	H	1.379542	0.076533	1.035584
H201	H	1.712875	0.409866	1.368917
C202	C	1.059139	-0.243911	0.920213
C203	C	1.392473	0.089422	1.253546
C204	C	1.725806	0.422756	1.586880
N205	N	1.096546	-0.206697	0.892482
N206	N	1.429879	0.126637	1.225816
N207	N	1.763213	0.459970	1.559149
C208	C	0.572083	-0.243922	0.225410
C209	C	0.905416	0.089411	0.558743
C210	C	1.238750	0.422744	0.892076
N211	N	0.544332	-0.206647	0.191149
N212	N	0.877665	0.126686	0.524483
N213	N	1.210999	0.460019	0.857816
H214	H	0.902276	-0.937339	0.250210
H215	H	1.235610	-0.604006	0.583543
H216	H	1.568943	-0.270673	0.916877
C217	C	0.869470	-0.432555	0.912365
C218	C	1.202803	-0.099222	1.245698
C219	C	1.536136	0.234111	1.579032
N220	N	0.832041	-0.469774	0.881539
N221	N	1.165375	-0.136441	1.214872
N222	N	1.498708	0.196893	1.548206
H223	H	0.907982	-0.850561	0.255938
H224	H	1.241316	-0.517228	0.589271
H225	H	1.574649	-0.183895	0.922604
H226	H	0.354132	-0.256806	0.237261
H227	H	0.687465	0.076528	0.570595
H228	H	1.020799	0.409861	0.903928
C229	C	0.216311	-0.243954	0.225465
C230	C	0.549644	0.089379	0.558799
C231	C	0.882978	0.422713	0.892132
N232	N	0.188555	-0.206688	0.191200
N233	N	0.521889	0.126646	0.524533
N234	N	0.855222	0.459979	0.857867
H235	H	1.031671	-0.605644	0.379874
H236	H	1.365005	-0.272311	0.713207
H237	H	1.698338	0.061022	1.046540
C238	C	0.869427	-0.432644	0.556591
C239	C	1.202760	-0.099310	0.889924
C240	C	1.536094	0.234023	1.223257
N241	N	0.832006	-0.469866	0.525760
N242	N	1.165339	-0.136533	0.859093
N243	N	1.498673	0.196800	1.192427
C244	C	1.033333	-0.815002	0.381501
C245	C	1.366666	-0.481669	0.714834
C246	C	1.700000	-0.148335	1.048168
N247	N	1.070418	-0.784551	0.418645
N248	N	1.403751	-0.451218	0.751978
N249	N	1.737084	-0.117884	1.085311
C250	C	1.059162	-0.243874	1.068658
C251	C	1.392495	0.089459	1.401992
C252	C	1.725828	0.422793	1.735325
N253	N	1.096578	-0.206649	1.099493
N254	N	1.429911	0.126684	1.432826
N255	N	1.763244	0.460018	1.766160
H256	H	1.046193	-0.256834	0.574016
H257	H	1.379527	0.076499	0.907349
H258	H	1.712860	0.409833	1.240682
H259	H	1.026252	-0.738717	0.374413
H260	H	1.359585	-0.405383	0.707747
H261	H	1.692919	-0.072050	1.041080
C262	C	0.869497	-0.432522	1.060802
C263	C	1.202831	-0.099189	1.394136
C264	C	1.536164	0.234145	1.727469
N265	N	0.832083	-0.469726	1.088536
N266	N	1.165417	-0.136392	1.421870
N267	N	1.498750	0.196941	1.755203
H268	H	1.059270	-0.937096	0.407439
H269	H	1.392603	-0.603763	0.740772
H270	H	1.725936	-0.270429	1.074105
H271	H	1.053851	-1.070182	0.401978
H272	H	1.387185	-0.736848	0.735312
H273	H	1.720518	-0.403515	1.068645
H274	H	0.896860	-1.070415	0.244747
H275	H	1.230193	-0.737081	0.578080
H276	H	1.563527	-0.403748	0.911413
C277	C	0.720519	-0.243922	0.225380
C278	C	1.053852	0.089412	0.558714
C279	C	1.387186	0.422745	0.892047
N280	N	0.751327	-0.206657	0.191103
N281	N	1.084660	0.126677	0.524437
N282	N	1.417993	0.460010	0.857770
C283	C	0.856511	-0.749460	0.204331
C284	C	1.189844	-0.416127	0.537665
C285	C	1.523177	-0.082794	0.870998
N286	N	0.819475	-0.779905	0.167134
N287	N	1.152809	-0.446571	0.500467
N288	N	1.486142	-0.113238	0.833800
C289	C	0.862739	-0.595415	0.210691
C290	C	1.196073	-0.262081	0.544024
C291	C	1.529406	0.071252	0.877358
N292	N	0.828127	-0.565083	0.176034
N293	N	1.161460	-0.231750	0.509367
N294	N	1.494793	0.101583	0.842700
H295	H	0.219211	-0.420005	0.387367
H296	H	0.552545	-0.086672	0.720700
H297	H	0.885878	0.246661	1.054034
C298	C	0.357020	-0.432858	0.399155
C299	C	0.690353	-0.099525	0.732488
C300	C	1.023687	0.233809	1.065821
N301	N	0.384774	-0.470128	0.433418
N302	N	0.718107	-0.136795	0.766751
N303	N	1.051440	0.196539	1.100084
H304	H	0.882352	-0.419769	0.695473
H305	H	1.215686	-0.086436	1.028807
H306	H	1.549019	0.246898	1.362140
C307	C	0.564345	-0.432845	0.399116
C308	C	0.897678	-0.099512	0.732450
C309	C	1.231012	0.233821	1.065783
N310	N	0.533540	-0.470124	0.433382
N311	N	0.866873	-0.136791	0.766715
N312	N	1.200206	0.196542	1.100049
