data_functionalizedCrystal
_audit_creation_method	'MofGen! by Chris Wilmer'
_symmetry_space_group_name_H-M	'P1'
_symmetry_Int_Tables_number	1
_symmetry_cell_setting	triclinic
loop_
_symmetry_equiv_pos_as_xyz
  x,y,z
_cell_length_a	17.077404
_cell_length_b	18.215399
_cell_length_c	17.077402
_cell_angle_alpha	89.968846
_cell_angle_beta	90.020853
_cell_angle_gamma	89.984555
loop_
_atom_site_label
_atom_site_type_symbol
_atom_site_fract_x
_atom_site_fract_y
_atom_site_fract_z
Zn1	Zn	1.200032	-0.416085	-0.312540
Zn2	Zn	1.700032	0.083915	0.187460
Zn3	Zn	1.199946	-0.293017	-0.443818
Zn4	Zn	1.699946	0.206983	0.056182
Zn5	Zn	1.068771	-0.293035	-0.312566
Zn6	Zn	1.568771	0.206965	0.187434
Zn7	Zn	1.068732	-0.416045	-0.443763
Zn8	Zn	1.568732	0.083955	0.056237
O9	O	1.134370	-0.354545	-0.378172
O10	O	1.634370	0.145455	0.121828
O11	O	1.309867	-0.399769	-0.329967
O12	O	1.809867	0.100231	0.170033
O13	O	1.182525	-0.190035	-0.426441
O14	O	1.682525	0.309965	0.073559
O15	O	1.086235	-0.309382	-0.202715
O16	O	1.586235	0.190618	0.297285
O17	O	1.309804	-0.309351	-0.426416
O18	O	1.809804	0.190649	0.073584
O19	O	1.182672	-0.399786	-0.202697
O20	O	1.682672	0.100214	0.297303
O21	O	1.086151	-0.190048	-0.330010
O22	O	1.586151	0.309952	0.169990
O23	O	0.958918	-0.309343	-0.329957
O24	O	1.458918	0.190657	0.170043
O25	O	1.086169	-0.519034	-0.426322
O26	O	1.586169	-0.019034	0.073678
O27	O	0.958890	-0.399718	-0.426347
O28	O	1.458890	0.100282	0.073653
O29	O	1.182635	-0.519064	-0.329913
O30	O	1.682635	-0.019064	0.170087
O31	O	1.182488	-0.309312	-0.553658
O32	O	1.682488	0.190688	-0.053658
O33	O	1.086085	-0.399700	-0.553617
O34	O	1.586085	0.100300	-0.053617
C35	C	0.930422	-0.354529	-0.378149
C36	C	1.430422	0.145471	0.121851
C37	C	0.843172	-0.354539	-0.378159
C38	C	1.343172	0.145461	0.121841
C39	C	0.802216	-0.401691	-0.328027
C40	C	1.302216	0.098309	0.171973
C41	C	0.720236	-0.401695	-0.328032
C42	C	1.220236	0.098305	0.171968
C43	C	0.679213	-0.354549	-0.378174
C44	C	1.179213	0.145451	0.121826
C45	C	0.720175	-0.307392	-0.428308
C46	C	1.220175	0.192608	0.071692
C47	C	0.802154	-0.307385	-0.428298
C48	C	1.302154	0.192615	0.071702
C49	C	0.549305	-0.307410	-0.428325
C50	C	1.049305	0.192590	0.071675
C51	C	0.467320	-0.307417	-0.428336
C52	C	0.967320	0.192583	0.071664
C53	C	0.467387	-0.401720	-0.328059
C54	C	0.967387	0.098280	0.171941
C55	C	0.549365	-0.401713	-0.328050
C56	C	1.049365	0.098287	0.171950
C57	C	0.590322	-0.354556	-0.378185
C58	C	1.090322	0.145444	0.121815
C59	C	1.134407	-0.546498	-0.378109
C60	C	1.634407	-0.046498	0.121891
C61	C	1.134423	-0.628297	-0.378082
C62	C	1.634423	-0.128297	0.121918
C63	C	1.084283	-0.816499	-0.327837
C64	C	1.584283	-0.316499	0.172163
C65	C	1.084297	-0.893358	-0.327821
C66	C	1.584297	-0.393358	0.172179
C67	C	1.184656	-0.893333	-0.428234
C68	C	1.684656	-0.393333	0.071766
C69	C	1.184638	-0.816476	-0.428253
C70	C	1.684638	-0.316476	0.071747
C71	C	1.134453	-0.778061	-0.378050
C72	C	1.634453	-0.278061	0.121950
C73	C	1.134485	-0.931777	-0.378015
C74	C	1.634485	-0.431777	0.121985
C75	C	1.134500	-1.015111	-0.377998
C76	C	1.634500	-0.515111	0.122002
C77	C	1.134436	-0.694722	-0.378068
C78	C	1.634436	-0.194722	0.121932
C79	C	1.339114	-0.354562	-0.378195
C80	C	1.839114	0.145438	0.121805
C81	C	1.426364	-0.354569	-0.378204
C82	C	1.926364	0.145431	0.121796
C83	C	1.134294	-0.354516	-0.582120
C84	C	1.634294	0.145484	-0.082120
C85	C	1.134334	-0.354528	-0.669369
C86	C	1.634334	0.145472	-0.169369
C87	C	1.134378	-0.163339	-0.378178
C88	C	1.634378	0.336661	0.121822
C89	C	1.134515	-0.081541	-0.377983
C90	C	1.634515	0.418459	0.122017
C91	C	1.184582	-0.307513	-0.710354
C92	C	1.684582	0.192487	-0.210354
C93	C	1.184620	-0.307532	-0.792335
C94	C	1.684620	0.192468	-0.292335
C95	C	1.134406	-0.354562	-0.833329
C96	C	1.634406	0.145438	-0.333329
C97	C	1.084156	-0.401582	-0.792338
C98	C	1.584156	0.098418	-0.292338
C99	C	1.084122	-0.401566	-0.710359
C100	C	1.584122	0.098434	-0.210359
C101	C	1.084228	-0.401610	-0.963208
C102	C	1.584228	0.098390	-0.463208
C103	C	1.084261	-0.401625	-1.045193
C104	C	1.584261	0.098375	-0.545193
C105	C	1.184727	-0.307576	-1.045184
C106	C	1.684727	0.192424	-0.545184
C107	C	1.184693	-0.307560	-0.963205
C108	C	1.684693	0.192440	-0.463205
C109	C	1.134441	-0.354579	-0.922220
C110	C	1.634441	0.145421	-0.422220
C111	C	1.134467	-0.354591	-0.173427
C112	C	1.634467	0.145409	0.326573
C113	C	1.134509	-0.354610	-0.086178
C114	C	1.634509	0.145390	0.413822
H115	H	0.434036	-0.440115	-0.287236
H116	H	0.934036	0.059885	0.212764
H117	H	1.043311	-0.439900	-0.929841
H118	H	1.543311	0.060100	-0.429841
H119	H	0.433922	-0.269028	-0.469166
H120	H	0.933922	0.230972	0.030834
H121	H	1.225646	-0.269294	-1.078558
H122	H	1.725646	0.230706	-0.578558
H123	H	1.225516	-0.924620	-0.469107
H124	H	1.725516	-0.424620	0.030893
H125	H	0.582649	-0.269008	-0.469149
H126	H	1.082649	0.230992	0.030851
C127	C	1.029764	-0.452687	-0.836944
C128	C	1.529764	0.047313	-0.336944
C129	C	1.074196	-0.499888	-0.883954
C130	C	1.574196	0.000112	-0.383954
C131	C	1.024114	-0.546968	-0.925063
C132	C	1.524114	-0.046968	-0.425063
H133	H	0.999815	-0.480756	-0.800883
H134	H	1.499815	0.019244	-0.300883
H135	H	0.995606	-0.424531	-0.869017
H136	H	1.495606	0.075469	-0.369017
H137	H	1.108340	-0.528042	-0.851884
H138	H	1.608340	-0.028042	-0.351884
H139	H	1.104143	-0.471839	-0.920030
H140	H	1.604143	0.028161	-0.420030
H141	H	0.989956	-0.518812	-0.957136
H142	H	1.489956	-0.018812	-0.457136
H143	H	0.994168	-0.575033	-0.888996
H144	H	1.494168	-0.075033	-0.388996
H145	H	1.054254	-0.578995	-0.956969
H146	H	1.554254	-0.078995	-0.456969
C147	C	1.029850	-0.452814	-1.089665
C148	C	1.529850	0.047186	-0.589665
C149	C	1.046910	-0.525639	-1.069674
C150	C	1.546910	-0.025639	-0.569674
C151	C	0.996812	-0.572816	-1.110636
C152	C	1.496812	-0.072816	-0.610636
H153	H	0.977078	-0.442105	-1.076318
H154	H	1.477078	0.057895	-0.576318
H155	H	1.037077	-0.446133	-1.144364
H156	H	1.537077	0.053867	-0.644364
H157	H	1.039677	-0.532316	-1.014986
H158	H	1.539677	-0.032316	-0.514986
H159	H	1.099673	-0.536371	-1.083023
H160	H	1.599673	-0.036371	-0.583023
H161	H	1.004039	-0.566135	-1.165335
H162	H	1.504039	-0.066135	-0.665335
H163	H	0.944043	-0.562100	-1.097285
H164	H	1.444043	-0.062100	-0.597285
H165	H	1.008385	-0.622233	-1.097083
H166	H	1.508385	-0.122233	-0.597083
H167	H	1.225494	-0.785178	-0.469146
H168	H	1.725494	-0.285178	0.030854
H169	H	1.043206	-0.439851	-0.676990
H170	H	1.543206	0.060149	-0.176990
C171	C	1.029799	-0.934958	-0.273215
C172	C	1.529799	-0.434958	0.226785
C173	C	0.985862	-0.884863	-0.229244
C174	C	1.485862	-0.384863	0.270756
C175	C	0.935655	-0.923157	-0.178924
C176	C	1.435655	-0.423157	0.321076
H177	H	0.995518	-0.964931	-0.303144
H178	H	1.495518	-0.464931	0.196856
H179	H	1.059832	-0.964937	-0.238967
H180	H	1.559832	-0.464937	0.261033
H181	H	0.955831	-0.854896	-0.263487
H182	H	1.455831	-0.354896	0.236513
H183	H	1.020122	-0.854888	-0.199299
H184	H	1.520122	-0.354888	0.300701
H185	H	0.965687	-0.953136	-0.144676
H186	H	1.465687	-0.453136	0.355324
H187	H	0.901379	-0.953129	-0.208859
H188	H	1.401379	-0.453129	0.291141
H189	H	0.905843	-0.889173	-0.149078
H190	H	1.405843	-0.389173	0.350922
H191	H	1.225577	-0.269261	-0.929828
H192	H	1.725577	0.230739	-0.429828
C193	C	1.239016	-0.256478	-0.665709
C194	C	1.739016	0.243522	-0.165709
C195	C	1.228219	-0.266510	-0.585142
C196	C	1.728219	0.233490	-0.085142
C197	C	1.278345	-0.219503	-0.543993
C198	C	1.778345	0.280497	-0.043993
H199	H	1.291788	-0.267250	-0.679000
H200	H	1.791788	0.232750	-0.179000
H201	H	1.227559	-0.207008	-0.679148
H202	H	1.727559	0.292992	-0.179148
H203	H	1.239681	-0.315969	-0.571708
H204	H	1.739681	0.184031	-0.071708
H205	H	1.175457	-0.255734	-0.571828
H206	H	1.675457	0.244266	-0.071828
H207	H	1.266889	-0.170033	-0.557433
H208	H	1.766889	0.329967	-0.057433
H209	H	1.331114	-0.230278	-0.557291
H210	H	1.831114	0.269722	-0.057291
H211	H	1.271022	-0.226299	-0.489325
H212	H	1.771022	0.273701	0.010675
H213	H	0.835611	-0.440085	-0.287198
H214	H	1.335611	0.059915	0.212802
C215	C	1.029747	-0.774696	-0.273467
C216	C	1.529747	-0.274696	0.226533
C217	C	0.979420	-0.730543	-0.317922
C218	C	1.479420	-0.230543	0.182078
C219	C	0.929173	-0.692018	-0.267865
C220	C	1.429173	-0.192018	0.232135
H221	H	0.999793	-0.808514	-0.243543
H222	H	1.499793	-0.308514	0.256457
H223	H	1.059759	-0.744682	-0.239285
H224	H	1.559759	-0.244682	0.260715
H225	H	0.949410	-0.760553	-0.352091
H226	H	1.449410	-0.260553	0.147909
H227	H	1.009351	-0.696711	-0.347845
H228	H	1.509351	-0.196711	0.152155
H229	H	0.959186	-0.662004	-0.233682
H230	H	1.459186	-0.162004	0.266318
H231	H	0.899225	-0.725841	-0.237943
H232	H	1.399225	-0.225841	0.262057
H233	H	0.895025	-0.662050	-0.298019
H234	H	1.395025	-0.162050	0.201981
H235	H	1.225536	-0.269248	-0.825701
H236	H	1.725536	0.230752	-0.325701
H237	H	0.686892	-0.440092	-0.287211
H238	H	1.186892	0.059908	0.212789
H239	H	0.686768	-0.269001	-0.469130
H240	H	1.186768	0.230999	0.030870
C241	C	0.593765	-0.452927	-0.273525
C242	C	1.093765	0.047073	0.226475
C243	C	0.540353	-0.494211	-0.229604
C244	C	1.040353	0.005789	0.270396
C245	C	0.581225	-0.541389	-0.179358
C246	C	1.081225	-0.041389	0.320642
H247	H	0.625754	-0.485003	-0.303505
H248	H	1.125754	0.014997	0.196495
H249	H	0.625725	-0.424843	-0.239241
H250	H	1.125725	0.075157	0.260759
H251	H	0.508406	-0.522293	-0.263884
H252	H	1.008406	-0.022293	0.236116
H253	H	0.508362	-0.462155	-0.199609
H254	H	1.008362	0.037845	0.300391
H255	H	0.613185	-0.513305	-0.145075
H256	H	1.113185	-0.013305	0.354925
H257	H	0.613213	-0.573460	-0.209344
H258	H	1.113213	-0.073460	0.290656
H259	H	0.544991	-0.569401	-0.149547
H260	H	1.044991	-0.069401	0.350453
C261	C	0.846483	-0.256166	-0.482817
C262	C	1.346483	0.243834	0.017183
C263	C	0.793013	-0.214893	-0.526748
C264	C	1.293013	0.285107	-0.026748
C265	C	0.833818	-0.167707	-0.576986
C266	C	1.333818	0.332293	-0.076986
H267	H	0.878461	-0.224083	-0.452831
H268	H	1.378461	0.275917	0.047169
H269	H	0.878448	-0.284242	-0.517095
H270	H	1.378448	0.215758	-0.017095
H271	H	0.761061	-0.186819	-0.492475
H272	H	1.261061	0.313181	0.007525
H273	H	0.761033	-0.246957	-0.556750
H274	H	1.261033	0.253043	-0.056750
H275	H	0.865784	-0.195783	-0.611263
H276	H	1.365784	0.304217	-0.111263
H277	H	0.865795	-0.135628	-0.546993
H278	H	1.365795	0.364372	-0.046993
H279	H	0.797546	-0.139703	-0.606804
H280	H	1.297546	0.360297	-0.106804
