data_functionalizedCrystal
_audit_creation_method	'MofGen! by Chris Wilmer'
_symmetry_space_group_name_H-M	'P1'
_symmetry_Int_Tables_number	1
_symmetry_cell_setting	triclinic
loop_
_symmetry_equiv_pos_as_xyz
  x,y,z
_cell_length_a	12.594517
_cell_length_b	29.839131
_cell_length_c	12.594509
_cell_angle_alpha	90.042620
_cell_angle_beta	90.022214
_cell_angle_gamma	90.034660
loop_
_atom_site_label
_atom_site_type_symbol
_atom_site_fract_x
_atom_site_fract_y
_atom_site_fract_z
Zn1	Zn	1.627125	-0.178847	0.601779
Zn2	Zn	2.127125	0.321153	1.101779
Zn3	Zn	1.626956	-0.253981	0.423755
Zn4	Zn	2.126956	0.246019	0.923755
Zn5	Zn	1.449129	-0.178865	0.423805
Zn6	Zn	1.949129	0.321135	0.923805
Zn7	Zn	1.449052	-0.253950	0.601683
Zn8	Zn	1.949052	0.246050	1.101683
O9	O	1.538066	-0.216411	0.512755
O10	O	2.038066	0.283589	1.012755
O11	O	1.776049	-0.188819	0.578183
O12	O	2.276049	0.311181	1.078183
O13	O	1.603329	-0.244038	0.274816
O14	O	2.103329	0.255962	0.774816
O15	O	1.472844	-0.115996	0.447474
O16	O	1.972844	0.384004	0.947474
O17	O	1.775925	-0.244020	0.447390
O18	O	2.275925	0.255980	0.947390
O19	O	1.603617	-0.115982	0.578231
O20	O	2.103617	0.384018	1.078231
O21	O	1.472680	-0.188851	0.274852
O22	O	1.972680	0.311149	0.774852
O23	O	1.300173	-0.188820	0.447381
O24	O	1.800173	0.311180	0.947381
O25	O	1.472712	-0.243966	0.750641
O26	O	1.972712	0.256034	1.250641
O27	O	1.300116	-0.243984	0.578067
O28	O	1.800116	0.256016	1.078067
O29	O	1.603542	-0.188788	0.750712
O30	O	2.103542	0.311212	1.250712
O31	O	1.603254	-0.316844	0.447297
O32	O	2.103254	0.183156	0.947297
O33	O	1.472548	-0.316821	0.578020
O34	O	1.972548	0.183179	1.078020
C35	C	1.261525	-0.216401	0.512720
C36	C	1.761525	0.283599	1.012720
C37	C	1.143219	-0.216408	0.512730
C38	C	1.643219	0.283592	1.012730
C39	C	1.003202	-0.186371	0.441812
C40	C	1.503202	0.313629	0.941812
C41	C	1.074070	-0.175425	0.538945
C42	C	1.574070	0.324575	1.038945
C43	C	1.073923	-0.227333	0.415608
C44	C	1.573923	0.272667	0.915608
C45	C	1.003301	-0.205458	0.609992
C46	C	1.503301	0.294542	1.109992
C47	C	1.003148	-0.257386	0.486589
C48	C	1.503148	0.242614	0.986589
C49	C	1.073984	-0.246455	0.583789
C50	C	1.573984	0.253545	1.083789
C51	C	1.537903	-0.333133	0.512666
C52	C	2.037903	0.166867	1.012666
C53	C	1.537931	-0.383068	0.512663
C54	C	2.037931	0.116932	1.012663
C55	C	1.606144	-0.692669	0.580937
C56	C	2.106144	-0.192669	1.080937
C57	C	1.606260	-0.880342	0.581001
C58	C	2.106260	-0.380342	1.081001
O59	O	1.664098	-0.904571	0.638984
O60	O	2.164098	-0.404571	1.138984
N61	N	1.538246	-0.903853	0.512874
N62	N	2.038246	-0.403853	1.012874
C63	C	1.470194	-0.880442	0.444730
C64	C	1.970194	-0.380442	0.944730
O65	O	1.412340	-0.904746	0.386792
O66	O	1.912340	-0.404746	0.886792
C67	C	1.470074	-0.692770	0.444672
C68	C	1.970074	-0.192770	0.944672
C69	C	1.538100	-0.669262	0.512797
C70	C	2.038100	-0.169262	1.012797
C71	C	1.674163	-0.669161	0.649057
C72	C	2.174163	-0.169161	1.149057
C73	C	1.674138	-0.622245	0.649037
C74	C	2.174138	-0.122245	1.149037
C75	C	1.606093	-0.598838	0.580896
C76	C	2.106093	-0.098838	1.080896
C77	C	1.538074	-0.622346	0.512776
C78	C	2.038074	-0.122346	1.012776
C79	C	1.402017	-0.669361	0.376534
C80	C	1.902017	-0.169361	0.876534
C81	C	1.401992	-0.622440	0.376528
C82	C	1.901992	-0.122440	0.876528
C83	C	1.470017	-0.598931	0.444653
C84	C	1.970017	-0.098931	0.944653
C85	C	1.470004	-0.552024	0.444614
C86	C	1.970004	-0.052024	0.944614
N87	N	1.538018	-0.528513	0.512742
N88	N	2.038018	-0.028513	1.012742
C89	C	1.606062	-0.551920	0.580883
C90	C	2.106062	-0.051920	1.080883
C91	C	1.470264	-0.978973	0.444763
C92	C	1.970264	-0.478973	0.944763
C93	C	1.470295	-1.025891	0.444776
C94	C	1.970295	-0.525891	0.944776
C95	C	1.606359	-1.025787	0.581050
C96	C	2.106359	-0.525787	1.081050
C97	C	1.606333	-0.978869	0.581031
C98	C	2.106333	-0.478869	1.081031
C99	C	1.538277	-0.955462	0.512891
C100	C	2.038277	-0.455462	1.012891
C101	C	1.606004	-0.453394	0.580834
C102	C	2.106004	0.046606	1.080834
C103	C	1.605976	-0.406475	0.580804
C104	C	2.105976	0.093525	1.080804
C105	C	1.469908	-0.406582	0.444535
C106	C	1.969908	0.093418	0.944535
C107	C	1.469940	-0.453498	0.444560
C108	C	1.969940	0.046502	0.944560
C109	C	1.537991	-0.476903	0.512718
C110	C	2.037991	0.023097	1.012718
O111	O	1.412188	-0.527766	0.386670
O112	O	1.912188	-0.027766	0.886670
O113	O	1.663891	-0.527609	0.638829
O114	O	2.163891	-0.027609	1.138829
C115	C	1.606170	-0.739584	0.580958
C116	C	2.106170	-0.239584	1.080958
C117	C	1.538151	-0.763093	0.512838
C118	C	2.038151	-0.263093	1.012838
C119	C	1.470106	-0.739686	0.444698
C120	C	1.970106	-0.239686	0.944698
C121	C	1.538182	-0.810011	0.512851
C122	C	2.038182	-0.310011	1.012851
C123	C	1.606226	-0.833418	0.580992
C124	C	2.106226	-0.333418	1.080992
C125	C	1.674240	-0.809907	0.649120
C126	C	2.174240	-0.309907	1.149120
C127	C	1.674214	-0.762992	0.649099
C128	C	2.174214	-0.262992	1.149099
C129	C	1.402093	-0.763196	0.376570
C130	C	1.902093	-0.263196	0.876570
C131	C	1.402124	-0.810112	0.376595
C132	C	1.902124	-0.310112	0.876595
C133	C	1.470169	-0.833519	0.444736
C134	C	1.970169	-0.333519	0.944736
C135	C	1.815686	-0.216421	0.512792
C136	C	2.315686	0.283579	1.012792
C137	C	1.933992	-0.216425	0.512807
C138	C	2.433992	0.283575	1.012807
C139	C	1.538137	-0.216371	0.790377
C140	C	2.038137	0.283629	1.290377
C141	C	1.538167	-0.216355	0.908682
C142	C	2.038167	0.283645	1.408682
C143	C	1.538258	-0.099232	0.512869
C144	C	2.038258	0.400768	1.012869
C145	C	1.538339	-0.049298	0.512917
C146	C	2.038339	0.450702	1.012917
C147	C	1.538056	-0.216417	0.236214
C148	C	2.038056	0.283583	0.736214
C149	C	1.538232	-0.216308	0.117910
C150	C	2.038232	0.283692	0.617910
C151	C	1.467031	-0.246349	0.977897
C152	C	1.967031	0.253651	1.477897
C153	C	1.564143	-0.257326	1.048682
C154	C	2.064143	0.242674	1.548682
C155	C	1.441131	-0.205350	1.048696
C156	C	1.941131	0.294650	1.548696
C157	C	1.635330	-0.227353	0.977909
C158	C	2.135330	0.272647	1.477909
C159	C	1.512252	-0.175359	0.977917
C160	C	2.012252	0.324641	1.477917
C161	C	1.609431	-0.186320	1.048670
C162	C	2.109431	0.313680	1.548670
H163	H	0.971974	-0.292022	0.464411
H164	H	1.471974	0.207978	0.964411
Cl165	Cl	1.702455	-0.147128	1.096353
Cl166	Cl	2.202455	0.352872	1.596353
H167	H	1.490270	-0.140719	0.946808
H168	H	1.990270	0.359281	1.446808
H169	H	1.661765	-1.044853	0.636531
H170	H	2.161765	-0.544853	1.136531
Cl171	Cl	1.762104	-0.241759	0.930111
Cl172	Cl	2.262104	0.258241	1.430111
H173	H	1.359042	-0.196062	1.079790
H174	H	1.859042	0.303938	1.579790
Cl175	Cl	1.121825	-0.241590	0.288749
Cl176	Cl	1.621825	0.258410	0.788749
Cl177	Cl	1.691851	-0.949320	0.666678
Cl178	Cl	2.191851	-0.449320	1.166678
H179	H	1.729527	-0.603108	0.704513
H180	H	2.229527	-0.103108	1.204513
H181	H	0.972127	-0.160943	0.381881
H182	H	1.472127	0.339057	0.881881
H183	H	1.661374	-0.387336	0.636279
H184	H	2.161374	0.112664	1.136279
H185	H	1.104865	-0.271864	0.643863
H186	H	1.604865	0.228136	1.143863
Cl187	Cl	1.598040	-0.310821	1.096677
Cl188	Cl	2.098040	0.189179	1.596677
H189	H	1.414510	-0.387517	0.389052
H190	H	1.914510	0.112483	0.889052
H191	H	1.661411	-0.472445	0.636342
H192	H	2.161411	0.027555	1.136342
Cl193	Cl	1.759714	-0.698578	0.734735
Cl194	Cl	2.259714	-0.198578	1.234735
Cl195	Cl	1.384788	-1.055438	0.359116
Cl196	Cl	1.884788	-0.555438	0.859116
Cl197	Cl	1.384696	-0.949554	0.359096
Cl198	Cl	1.884696	-0.449554	0.859096
Cl199	Cl	0.955610	-0.191139	0.736890
Cl200	Cl	1.455610	0.308861	1.236890
Cl201	Cl	1.316489	-0.698902	0.290890
Cl202	Cl	1.816489	-0.198902	0.790890
H203	H	1.346569	-0.603384	0.321042
H204	H	1.846569	-0.103384	0.821042
H205	H	1.414556	-0.472639	0.389079
H206	H	1.914556	0.027361	0.889079
Cl207	Cl	1.122155	-0.121933	0.573151
Cl208	Cl	1.622155	0.378067	1.073151
H209	H	1.729607	-0.743855	0.704573
H210	H	2.229607	-0.243855	1.204573
H211	H	1.729648	-0.828973	0.704599
H212	H	2.229648	-0.328973	1.204599
H213	H	1.346731	-0.829248	0.321110
H214	H	1.846731	-0.329248	0.821110
H215	H	1.406921	-0.271753	0.946823
H216	H	1.906921	0.228247	1.446823
Cl217	Cl	1.316537	-0.733777	0.290903
Cl218	Cl	1.816537	-0.233777	0.790903
