data_functionalizedCrystal
_audit_creation_method	'MofGen! by Chris Wilmer'
_symmetry_space_group_name_H-M	'P1'
_symmetry_Int_Tables_number	1
_symmetry_cell_setting	triclinic
loop_
_symmetry_equiv_pos_as_xyz
  x,y,z
_cell_length_a	16.120484
_cell_length_b	16.120490
_cell_length_c	12.759393
_cell_angle_alpha	87.081391
_cell_angle_beta	92.864008
_cell_angle_gamma	90.164100
loop_
_atom_site_label
_atom_site_type_symbol
_atom_site_fract_x
_atom_site_fract_y
_atom_site_fract_z
Zn1	Zn	-0.395627	1.254506	-0.699333
Zn2	Zn	-0.534698	1.247342	-0.532065
Zn3	Zn	-0.388600	1.115437	-0.514343
Zn4	Zn	-0.527572	1.108358	-0.698376
O5	O	-0.461624	1.181411	-0.611029
O6	O	-0.419999	1.369922	-0.684962
O7	O	-0.515359	1.229809	-0.382693
O8	O	-0.273169	1.139846	-0.531866
O9	O	-0.522174	1.364658	-0.562071
O10	O	-0.278333	1.242019	-0.667777
O11	O	-0.408021	1.132899	-0.369673
O12	O	-0.401111	0.998132	-0.530937
O13	O	-0.510028	1.127781	-0.845524
O14	O	-0.503214	0.992931	-0.666146
O15	O	-0.413089	1.235155	-0.846227
O16	O	-0.650115	1.222945	-0.561143
O17	O	-0.644880	1.120834	-0.683331
C18	C	-0.450627	0.965359	-0.596515
C19	C	-0.445943	0.872930	-0.590332
C20	C	-0.485917	0.659963	-0.643103
C21	C	-0.437398	0.703707	-0.579043
C22	C	-0.442154	0.797871	-0.585326
C23	C	-0.481162	0.565790	-0.636821
C24	C	-0.677670	1.170366	-0.624080
C25	C	-0.770099	1.165717	-0.629704
C26	C	-0.939329	1.157234	-0.639993
C27	C	-0.983086	1.205737	-0.582092
C28	C	-1.077252	1.201017	-0.587817
C29	C	-0.845155	1.161953	-0.634270
C30	C	-0.244736	1.192522	-0.597951
C31	C	-0.152311	1.197256	-0.592378
C32	C	-0.461548	1.181477	-0.885062
C33	C	-0.461515	1.181505	-1.001838
C34	C	-0.472665	1.398306	-0.625600
C35	C	-0.477370	1.490734	-0.631810
C36	C	-0.411030	1.237420	-1.057068
C37	C	-0.410995	1.237436	-1.166791
C38	C	-0.511936	1.125620	-1.166045
C39	C	-0.511967	1.125601	-1.056324
C40	C	-0.314400	1.272198	-1.312828
C41	C	-0.263923	1.328125	-1.368062
C42	C	-0.255298	1.409912	-1.337142
C43	C	-0.297163	1.435789	-1.250990
C44	C	-0.347646	1.379866	-1.195762
C45	C	-0.356254	1.298068	-1.226679
C46	C	-0.608563	1.090847	-0.910286
C47	C	-0.659052	1.034927	-0.855056
C48	C	-0.667685	0.953138	-0.885975
C49	C	-0.625835	0.927264	-0.972131
C50	C	-0.575347	0.983184	-1.027361
C51	C	-0.566712	1.064972	-0.996434
C52	C	-0.461643	1.181396	-0.338062
C53	C	-0.461450	1.181541	-0.221283
H54	H	-0.949828	1.250805	-0.528221
H55	H	-0.290142	1.502391	-1.225828
H56	H	-0.531025	0.693231	-0.702660
H57	H	-0.972586	1.112168	-0.693858
H58	H	-0.369947	1.282938	-1.012709
H59	H	-0.392287	0.670436	-0.519480
H60	H	-0.693136	1.056004	-0.784911
H61	H	-0.214198	1.455448	-1.382122
H62	H	-0.321411	1.205599	-1.338006
H63	H	-0.381734	1.400935	-1.125622
H64	H	-0.229836	1.307049	-1.438207
H65	H	-0.553014	1.080107	-1.210421
H66	H	-0.541271	0.962110	-1.097514
H67	H	-0.632868	0.860666	-0.997309
H68	H	-0.708805	0.907612	-0.841003
H69	H	-0.601532	1.157445	-0.885097
