data_functionalizedCrystal
_audit_creation_method	'MofGen! by Chris Wilmer'
_symmetry_space_group_name_H-M	'P1'
_symmetry_Int_Tables_number	1
_symmetry_cell_setting	triclinic
loop_
_symmetry_equiv_pos_as_xyz
  x,y,z
_cell_length_a	21.883469
_cell_length_b	21.882911
_cell_length_c	21.879399
_cell_angle_alpha	60.006540
_cell_angle_beta	60.013207
_cell_angle_gamma	59.992231
loop_
_atom_site_label
_atom_site_type_symbol
_atom_site_fract_x
_atom_site_fract_y
_atom_site_fract_z
O1	O	0.084645	-0.892842	0.746620
O2	O	0.031867	-0.695139	0.601571
O3	O	0.157054	-0.820237	0.601476
O4	O	-0.040542	-0.767744	0.746716
O5	O	0.198586	-0.778715	0.642912
O6	O	0.073399	-0.653617	0.643007
O7	O	0.126177	-0.851320	0.788056
Cu8	Cu	0.103580	-0.748677	0.719315
Cu9	Cu	0.054464	-0.797782	0.670313
O10	O	0.000990	-0.726222	0.788151
N11	N	0.138128	-0.714145	0.753785
N12	N	0.019923	-0.832320	0.635843
C13	C	0.190018	-0.547369	0.805644
C14	C	0.190029	-0.662289	0.805630
C15	C	0.218780	-0.633565	0.834353
C16	C	0.344122	-0.611968	0.768360
C17	C	0.422474	-0.638085	0.742222
C18	C	0.422504	-0.764859	0.790561
C19	C	0.344154	-0.738739	0.816702
C20	C	0.208899	-0.508180	0.728617
C21	C	0.182748	-0.429822	0.702522
C22	C	0.118843	-0.429847	0.830485
C23	C	0.144993	-0.508205	0.856580
C24	C	0.112994	-0.643364	0.824587
C25	C	0.086865	-0.669476	0.798467
C26	C	0.214799	-0.733437	0.734451
C27	C	0.240932	-0.707325	0.760562
C28	C	0.113084	-0.643389	0.959747
C29	C	0.087018	-0.669524	1.038102
C30	C	0.214996	-0.733501	1.038048
C31	C	0.241061	-0.707367	0.959690
C32	C	0.190103	-0.662308	0.920542
C33	C	0.304966	-0.662293	0.805598
C34	C	-0.117460	-0.854702	0.612901
C35	C	-0.002405	-0.854864	0.498145
C36	C	-0.002621	-0.969735	0.613108
C37	C	-0.002603	-0.854858	0.613180
C38	C	-0.031272	-0.883541	0.584334
N39	N	0.460550	-0.714150	0.753681
O40	O	0.699805	-0.721060	0.574973
O41	O	0.700047	-0.866553	0.772482
O42	O	0.699952	-0.866219	0.647213
O43	O	0.699900	-0.721394	0.700242
O44	O	0.575478	-0.824800	0.688791
O45	O	0.575573	-0.825134	0.814060
O46	O	0.575331	-0.679641	0.616551
Cu47	Cu	0.564087	-0.748606	0.719102
Cu48	Cu	0.711292	-0.797588	0.669931
O49	O	0.575426	-0.679975	0.741820
N50	N	0.814828	-0.832044	0.635345
N51	N	0.138106	-0.391772	0.753815
O52	O	-0.040520	-0.152377	0.746758
O53	O	0.156993	-0.152371	0.601281
O54	O	0.031698	-0.152390	0.601639
O55	O	0.084775	-0.152358	0.746401
O56	O	0.073234	-0.276876	0.643130
O57	O	0.198529	-0.276856	0.642772
O58	O	0.001015	-0.276863	0.788249
Cu59	Cu	0.103564	-0.288226	0.719299
Cu60	Cu	0.054444	-0.141007	0.670231
O61	O	0.126310	-0.276844	0.787892
N62	N	0.019892	-0.037461	0.635717
N63	N	0.138332	-0.714192	1.076133
O64	O	0.131293	-0.892804	1.315506
O65	O	-0.014162	-0.695219	1.315533
O66	O	-0.013826	-0.820490	1.315480
O67	O	0.130957	-0.767533	1.315559
O68	O	0.027651	-0.778981	1.191001
O69	O	0.027314	-0.653710	1.191054
O70	O	0.172770	-0.851295	1.191026
Cu71	Cu	0.103829	-0.748713	1.179674
Cu72	Cu	0.054778	-0.797802	1.326885
O73	O	0.172434	-0.726024	1.191079
N74	N	0.020275	-0.832331	1.430426
C75	C	0.047687	-0.649466	0.602306
C76	C	0.202716	-0.804385	0.602188
C77	C	0.110357	-0.896993	0.787321
C78	C	-0.044672	-0.742074	0.787439
C79	C	0.637839	-0.865879	0.818154
C80	C	0.637724	-0.865466	0.663023
C81	C	0.637536	-0.680313	0.570880
C82	C	0.637655	-0.680728	0.726010
C83	C	0.202592	-0.214459	0.601942
C84	C	0.047481	-0.214636	0.602435
C85	C	-0.044635	-0.214620	0.787537
C86	C	0.110528	-0.214598	0.787096
C87	C	-0.013455	-0.649572	1.253296
C88	C	-0.013030	-0.804697	1.253206
C89	C	0.172063	-0.896942	1.253263
C90	C	0.171648	-0.741808	1.253325
H91	H	0.024299	-0.654107	1.070013
H92	H	-0.059121	-0.592825	1.253304
O93	O	0.637613	-0.919678	0.649499
C94	C	0.573124	-0.893918	0.631905
H95	H	0.528054	-0.847460	0.656092
H96	H	0.587638	-0.871323	0.568524
C97	C	0.599310	-1.016117	0.635928
C98	C	0.543952	-0.959061	0.665639
H99	H	0.581317	-1.056300	0.656733
H100	H	0.642760	-1.033472	0.647779
H101	H	0.611400	-0.997279	0.583111
H102	H	0.531870	-0.977897	0.718454
H103	H	0.500500	-0.941710	0.653799
O104	O	-0.067341	-0.818191	1.253248
C105	C	-0.130487	-0.809852	1.317681
H106	H	-0.112611	-0.817991	1.362795
H107	H	-0.172880	-0.751392	1.303097
C108	C	-0.188302	-0.858721	1.291415
C109	C	-0.166345	-0.868724	1.346826
H110	H	-0.210424	-0.895033	1.309392
H111	H	-0.145761	-0.864337	1.248003
H112	H	-0.223626	-0.810002	1.279266
H113	H	-0.131015	-0.917438	1.358967
H114	H	-0.208881	-0.863117	1.390241
H115	H	0.217133	-0.730478	1.253340
H116	H	0.036413	-0.592673	0.556752
H117	H	0.121632	-0.953785	0.832877
O118	O	0.460693	-0.839092	0.801251
C119	C	0.538244	-0.851355	0.770211
H120	H	0.548917	-0.797429	0.725300
H121	H	0.560510	-0.869414	0.816064
C122	C	0.565353	-0.979431	0.790195
C123	C	0.578462	-0.913200	0.735029
H124	H	0.590162	-1.017582	0.768496
H125	H	0.513105	-0.971170	0.811109
H126	H	0.583908	-0.994471	0.828401
H127	H	0.559898	-0.898157	0.696829
H128	H	0.630707	-0.921460	0.714107
O129	O	-0.112410	-0.728810	0.841832
C130	C	-0.145587	-0.780217	0.861991
H131	H	-0.120830	-0.802057	0.813977
H132	H	-0.134205	-0.828999	0.914010
C133	C	-0.261056	-0.714148	0.937571
C134	C	-0.230653	-0.740967	0.878597
H135	H	-0.313529	-0.689938	0.947818
H136	H	-0.238703	-0.679515	0.923992
H137	H	-0.251563	-0.754805	0.980914
H138	H	-0.240138	-0.700308	0.835253
H139	H	-0.253010	-0.775591	0.892168
O140	O	0.226454	-0.964690	1.253284
C141	C	0.199523	-1.011250	1.253231
H142	H	0.135771	-0.990970	1.276791
H143	H	0.218542	-1.009216	1.193502
C144	C	0.308831	-1.117161	1.273095
C145	C	0.230531	-1.092257	1.302038
H146	H	0.327961	-1.167131	1.303198
H147	H	0.326977	-1.085793	1.273128
H148	H	0.324670	-1.115460	1.223321
H149	H	0.214693	-1.093950	1.351806
H150	H	0.212383	-1.123628	1.302014
H151	H	0.071582	-0.606692	0.927876
H152	H	0.637457	-0.634634	0.514159
O153	O	0.637736	-0.626542	0.739598
C154	C	0.702246	-0.652291	0.757152
H155	H	0.723794	-0.716094	0.778619
H156	H	0.747337	-0.630929	0.704840
C157	C	0.656230	-0.544721	0.791630
C158	C	0.682692	-0.623086	0.818001
H159	H	0.644170	-0.526704	0.829162
H160	H	0.612769	-0.527372	0.779801
H161	H	0.693810	-0.526929	0.748036
H162	H	0.645109	-0.640876	0.861588
H163	H	0.726147	-0.640437	0.829839
O164	O	0.264600	-0.777276	1.075955
C165	C	0.338167	-0.788347	1.024545
H166	H	0.337989	-0.779587	0.968699
H167	H	0.360603	-0.746635	1.016206
C168	C	0.388682	-0.879379	1.123681
C169	C	0.388463	-0.868626	1.055092
H170	H	0.419708	-0.928897	1.142525
H171	H	0.339118	-0.871919	1.158318
H172	H	0.407376	-0.844614	1.116723
H173	H	0.369761	-0.903384	1.062053
H174	H	0.438025	-0.876094	1.020458
H175	H	0.036114	-0.214639	0.556956
O176	O	0.063446	-0.599594	0.868327
C177	C	-0.010149	-0.588503	0.879465
H178	H	-0.010038	-0.597245	0.832225
H179	H	-0.032564	-0.630216	0.935279
C180	C	-0.060550	-0.497494	0.938069
C181	C	-0.060413	-0.508225	0.880045
H182	H	-0.091557	-0.447976	0.938430
H183	H	-0.010967	-0.504968	0.930568
H184	H	-0.079227	-0.532260	0.984575
H185	H	-0.041728	-0.473466	0.833540
H186	H	-0.109994	-0.500743	0.887538
O187	O	-0.112251	-0.214749	0.842090
C188	C	-0.102360	-0.279203	0.905166
H189	H	-0.047556	-0.324269	0.887134
H190	H	-0.100621	-0.264615	0.947405
C191	C	-0.235247	-0.253087	0.963517
C192	C	-0.167938	-0.308440	0.941368
H193	H	-0.275700	-0.271121	0.985850
H194	H	-0.241911	-0.209661	0.921022
H195	H	-0.233787	-0.240935	0.998712
H196	H	-0.169395	-0.320584	0.906166
H197	H	-0.161275	-0.351869	0.983857
H198	H	0.303780	-0.722782	0.927774
O199	O	0.460396	-0.589095	0.706033
C200	C	0.409006	-0.516022	0.701853
H201	H	0.353147	-0.512967	0.707001
H202	H	0.400700	-0.501398	0.749325
C203	C	0.508155	-0.463837	0.619884
C204	C	0.439549	-0.460083	0.626201
H205	H	0.526996	-0.429330	0.573220
H206	H	0.542779	-0.513068	0.622702
H207	H	0.501224	-0.451652	0.659448
H208	H	0.446483	-0.472278	0.586642
H209	H	0.404928	-0.410853	0.623374
H210	H	0.637900	-0.911553	0.874882
O211	O	0.270151	-0.214008	0.547386
C212	C	0.316707	-0.213874	0.574274
H213	H	0.280707	-0.190549	0.622493
H214	H	0.354787	-0.273516	0.594793
C215	C	0.408965	-0.193313	0.451567
C216	C	0.364750	-0.164660	0.510787
H217	H	0.438603	-0.162959	0.412405
H218	H	0.377601	-0.193406	0.433451
H219	H	0.440693	-0.243015	0.468676
H220	H	0.333017	-0.114963	0.493679
H221	H	0.396109	-0.164557	0.528898
H222	H	0.121892	-0.214588	0.832572
O223	O	0.270363	-0.817737	0.547704
C224	C	0.260520	-0.809331	0.484638
H225	H	0.205691	-0.817552	0.502658
H226	H	0.258863	-0.750823	0.442323
C227	C	0.393412	-0.857979	0.426433
C228	C	0.326073	-0.868083	0.448567
H229	H	0.433850	-0.894218	0.404180
H230	H	0.400044	-0.863640	0.468921
H231	H	0.392021	-0.809221	0.391174
H232	H	0.327461	-0.916837	0.483832
H233	H	0.319443	-0.862432	0.406084
O234	O	0.264349	-0.777154	0.690659
C235	C	0.337943	-0.788273	0.679553
H236	H	0.337802	-0.741037	0.688315
H237	H	0.360422	-0.844098	0.721242
C238	C	0.388329	-0.846833	0.588510
C239	C	0.388157	-0.788813	0.599265
H240	H	0.419305	-0.847169	0.538986
H241	H	0.338747	-0.839344	0.595994
H242	H	0.407060	-0.893347	0.623256
H243	H	0.369417	-0.742299	0.564526
H244	H	0.437736	-0.796293	0.591774
O245	O	0.012039	-0.651007	0.816751
C246	C	-0.006944	-0.611563	0.750934
H247	H	0.037202	-0.585041	0.703855
H248	H	-0.009556	-0.651847	0.734439
C249	C	-0.138009	-0.582462	0.822740
C250	C	-0.083791	-0.549881	0.764918
H251	H	-0.185413	-0.544416	0.831366
H252	H	-0.125220	-0.609039	0.867082
H253	H	-0.140176	-0.616031	0.808986
H254	H	-0.081618	-0.516320	0.778676
H255	H	-0.096581	-0.523298	0.720578
H256	H	0.303660	-0.722726	0.745118
H257	H	0.312222	-0.549720	0.759316
O258	O	0.306150	-0.787640	0.852752
C259	C	0.325284	-0.824340	0.804801
H260	H	0.346788	-0.788661	0.744144
H261	H	0.370782	-0.880890	0.817417
C262	C	0.229266	-0.880057	0.891816
C263	C	0.255672	-0.836233	0.817316
H264	H	0.186328	-0.887397	0.899537
H265	H	0.216377	-0.855334	0.924123
H266	H	0.267188	-0.927177	0.902321
H267	H	0.217754	-0.789110	0.806815
H268	H	0.268553	-0.860948	0.785007
O269	O	0.252596	-0.546109	0.679040
C270	C	0.263659	-0.494714	0.605456
H271	H	0.216409	-0.438862	0.605619
H272	H	0.319471	-0.486376	0.582985
C273	C	0.322211	-0.593883	0.555010
C274	C	0.264174	-0.525286	0.555209
H275	H	0.322532	-0.612742	0.524014
H276	H	0.314760	-0.628510	0.604584
H277	H	0.368714	-0.586925	0.536286
H278	H	0.217672	-0.532247	0.573941
H279	H	0.271617	-0.490662	0.505636
H280	H	0.082193	-0.397958	0.871963
O281	O	0.126612	-0.546163	0.931434
C282	C	0.081246	-0.494793	0.970795
H283	H	0.091218	-0.438931	0.933432
H284	H	0.019875	-0.486465	0.987704
C285	C	0.088877	-0.593998	1.087308
C286	C	0.101129	-0.525390	1.041421
H287	H	0.101139	-0.612872	1.130875
H288	H	0.119439	-0.628607	1.060790
H289	H	0.037735	-0.587049	1.101391
H290	H	0.152273	-0.532341	1.027330
H291	H	0.070577	-0.490782	1.067938
O292	O	0.201118	-0.391667	0.627711
C293	C	0.240568	-0.346356	0.608769
H294	H	0.226461	-0.334629	0.660406
H295	H	0.303276	-0.376548	0.587242
C296	C	0.235334	-0.286318	0.483984
C297	C	0.218002	-0.271910	0.547404
H298	H	0.221418	-0.240398	0.446129
H299	H	0.208758	-0.316847	0.496744
H300	H	0.287591	-0.311481	0.466054
H301	H	0.165745	-0.246757	0.565338
H302	H	0.244568	-0.241375	0.534646
