data_functionalizedCrystal
_audit_creation_method	'MofGen! by Chris Wilmer'
_symmetry_space_group_name_H-M	'P1'
_symmetry_Int_Tables_number	1
_symmetry_cell_setting	triclinic
loop_
_symmetry_equiv_pos_as_xyz
  x,y,z
_cell_length_a	16.974829
_cell_length_b	23.532357
_cell_length_c	15.455313
_cell_angle_alpha	92.642146
_cell_angle_beta	83.671566
_cell_angle_gamma	83.113467
loop_
_atom_site_label
_atom_site_type_symbol
_atom_site_fract_x
_atom_site_fract_y
_atom_site_fract_z
O1	O	1.055625	0.067553	-0.146240
O2	O	1.555625	0.567553	0.353760
O3	O	0.824560	0.077354	-0.130023
O4	O	1.324560	0.577354	0.369977
O5	O	0.947080	-0.010473	-0.138604
O6	O	1.447080	0.489527	0.361396
O7	O	0.933105	0.155381	-0.137659
O8	O	1.433105	0.655381	0.362341
O9	O	0.940074	-0.005472	0.006149
O10	O	1.440074	0.494528	0.506149
O11	O	0.817554	0.082356	0.014729
O12	O	1.317554	0.582356	0.514729
O13	O	1.048619	0.072555	-0.001487
O14	O	1.548619	0.572555	0.498513
Cu15	Cu	0.932447	0.077912	0.019838
Cu16	Cu	1.432447	0.577912	0.519838
Cu17	Cu	0.940732	0.071997	-0.151349
Cu18	Cu	1.440732	0.571997	0.348651
O19	O	0.926099	0.160382	0.007094
O20	O	1.426099	0.660382	0.507094
C21	C	0.791501	0.079575	-0.055572
C22	C	1.291501	0.579575	0.444428
C23	C	0.703434	0.078732	-0.049391
C24	C	1.203434	0.578732	0.450609
C25	C	0.207298	0.074299	-0.006126
C26	C	0.707298	0.574299	0.493874
C27	C	0.290046	0.075091	-0.011936
C28	C	0.790046	0.575091	0.488064
C29	C	0.335240	0.072756	-0.093747
C30	C	0.835240	0.572756	0.406253
C31	C	0.297681	0.069635	-0.169753
C32	C	0.797681	0.569635	0.330247
C33	C	0.214934	0.068847	-0.163943
C34	C	0.714934	0.568847	0.336057
C35	C	0.583128	0.074823	-0.119587
C36	C	1.083128	0.574823	0.380413
C37	C	0.665881	0.075609	-0.125391
C38	C	1.165881	0.575609	0.374609
C39	C	0.658240	0.081066	0.032426
C40	C	1.158240	0.581066	0.532426
C41	C	0.575492	0.080275	0.038230
C42	C	1.075492	0.580275	0.538230
C43	C	0.537940	0.077157	-0.037776
C44	C	1.037940	0.577157	0.462224
N45	N	0.419823	0.073564	-0.099688
N46	N	0.919823	0.573564	0.400312
N47	N	0.453358	0.076354	-0.031835
N48	N	0.953358	0.576354	0.468165
C49	C	0.943227	-0.029189	-0.066200
C50	C	1.443227	0.470811	0.433800
C51	C	0.942176	-0.092409	-0.066118
C52	C	1.442176	0.407591	0.433882
C53	C	0.939398	-0.487154	-0.144607
C54	C	1.439398	0.012846	0.355393
C55	C	0.938399	-0.546554	-0.144542
C56	C	1.438399	-0.046554	0.355458
O57	O	0.941104	-0.579590	-0.211609
O58	O	1.441104	-0.079590	0.288391
N59	N	0.934085	-0.573539	-0.065603
N60	N	1.434085	-0.073539	0.434397
C61	C	0.930761	-0.541120	0.013276
C62	C	1.430761	-0.041120	0.513276
O63	O	0.926999	-0.569527	0.080425
O64	O	1.426999	-0.069527	0.580425
C65	C	0.931754	-0.481720	0.013210
C66	C	1.431754	0.018280	0.513210
C67	C	0.936077	-0.454739	-0.065734
C68	C	1.436077	0.045261	0.434266
C69	C	0.943720	-0.460172	-0.223545
C70	C	1.443720	0.039828	0.276455
C71	C	0.944720	-0.400776	-0.223610
C72	C	1.444720	0.099224	0.276390
C73	C	0.941399	-0.368361	-0.144737
C74	C	1.441399	0.131639	0.355263
C75	C	0.937077	-0.395343	-0.065799
C76	C	1.437077	0.104657	0.434201
C77	C	0.928425	-0.449301	0.092088
C78	C	1.428425	0.050699	0.592088
C79	C	0.929418	-0.389898	0.092016
C80	C	1.429418	0.110102	0.592016
C81	C	0.933741	-0.362916	0.013072
C82	C	1.433741	0.137084	0.513072
C83	C	0.934757	-0.303532	0.013009
C84	C	1.434757	0.196468	0.513009
N85	N	0.939071	-0.276547	-0.065930
N86	N	1.439071	0.223453	0.434070
C87	C	0.942392	-0.308961	-0.144803
C88	C	1.442392	0.191039	0.355197
C89	C	0.928674	-0.665864	0.013408
C90	C	1.428674	-0.165864	0.513408
C91	C	0.927686	-0.725263	0.013474
C92	C	1.427686	-0.225263	0.513474
C93	C	0.935323	-0.730693	-0.144344
C94	C	1.435323	-0.230693	0.355656
C95	C	0.936316	-0.671293	-0.144410
C96	C	1.436316	-0.171293	0.355590
C97	C	0.932988	-0.638879	-0.065531
C98	C	1.432988	-0.138879	0.434469
C99	C	0.944493	-0.184225	-0.144933
C100	C	1.444493	0.315775	0.355067
C101	C	0.945497	-0.124823	-0.144991
C102	C	1.445497	0.375177	0.355009
C103	C	0.937856	-0.119398	0.012826
C104	C	1.437856	0.380602	0.512826
C105	C	0.936857	-0.178795	0.012885
C106	C	1.436857	0.321205	0.512885
C107	C	0.940173	-0.211207	-0.066002
C108	C	1.440173	0.288793	0.433998
O109	O	0.932051	-0.270459	0.080042
O110	O	1.432051	0.229541	0.580042
O111	O	0.946143	-0.280545	-0.211940
O112	O	1.446143	0.219455	0.288060
C113	C	1.081678	0.070334	-0.075940
C114	C	1.581678	0.570334	0.424060
C115	C	1.169745	0.071177	-0.082127
C116	C	1.669745	0.571177	0.417873
C117	C	0.929952	0.179098	-0.065312
C118	C	1.429952	0.679098	0.434688
C119	C	0.931003	0.242317	-0.065399
C120	C	1.431003	0.742317	0.434601
N121	N	0.926625	0.082072	0.140242
N122	N	1.426625	0.582072	0.640242
N123	N	0.946560	0.067832	-0.271752
N124	N	1.446560	0.567832	0.228248
C125	C	0.978693	0.044773	0.181989
C126	C	1.478693	0.544773	0.681989
C127	C	0.974298	0.047925	0.273105
C128	C	1.474298	0.547925	0.773105
C129	C	0.917837	0.088378	0.322471
C130	C	1.417837	0.588378	0.822471
C131	C	0.865763	0.125678	0.280718
C132	C	1.365763	0.625678	0.780718
C133	C	0.870155	0.122524	0.189604
C134	C	1.370155	0.622524	0.689604
C135	C	0.898878	0.101978	0.595380
C136	C	1.398878	0.601978	1.095380
C137	C	0.894491	0.105131	0.686500
C138	C	1.394491	0.605131	1.186500
C139	C	1.003026	0.027376	0.678881
C140	C	1.503026	0.527376	1.178881
C141	C	1.007417	0.024228	0.587766
C142	C	1.507417	0.524228	1.087766
C143	C	0.955340	0.061526	0.546020
C144	C	1.455340	0.561526	1.046020
N145	N	0.913344	0.091601	0.415606
N146	N	1.413344	0.591601	0.915606
N147	N	0.959829	0.058300	0.452887
N148	N	1.459829	0.558300	0.952887
H149	H	0.184359	0.066306	-0.225830
H150	H	0.684359	0.566306	0.274170
H151	H	0.949019	-0.102859	-0.209280
H152	H	1.449019	0.397141	0.290720
F153	F	0.834395	0.148191	0.739034
F154	F	1.334395	0.648191	1.239034
H155	H	1.016696	0.017553	0.307095
H156	H	1.516696	0.517553	0.807095
F157	F	0.934323	-0.084890	0.096764
F158	F	1.434323	0.415110	0.596764
F159	F	0.947254	-0.494662	-0.307499
F160	F	1.447254	0.005338	0.192501
F161	F	0.949316	-0.372068	-0.307633
F162	F	1.449316	0.127932	0.192367
F163	F	1.058445	-0.012318	0.723315
F164	F	1.558445	0.487682	1.223315
H165	H	0.924178	-0.747227	0.077757
H166	H	1.424178	-0.247227	0.577757
F167	F	1.038791	0.001720	0.129458
F168	F	1.538791	0.501720	0.629458
F169	F	0.805668	0.168729	0.333258
F170	F	1.305668	0.668729	0.833258
F171	F	0.940916	-0.642583	-0.228432
F172	F	1.440916	-0.142583	0.271568
H173	H	0.320618	0.077632	0.049952
H174	H	0.820618	0.577632	0.549952
F175	F	0.938853	-0.765201	-0.228288
F176	F	1.438853	-0.265201	0.271712
H177	H	0.702676	0.073712	-0.192015
H178	H	1.202676	0.573712	0.307985
F179	F	0.345782	0.067151	-0.256823
F180	F	0.845782	0.567151	0.243177
H181	H	0.827754	0.152896	0.155614
H182	H	1.327754	0.652896	0.655614
H183	H	0.552563	0.072282	-0.181476
H184	H	1.052563	0.572282	0.318524
F185	F	0.948023	-0.218712	-0.228893
F186	F	1.448023	0.281288	0.271107
F187	F	1.067509	-0.018826	0.535227
F188	F	1.567509	0.481174	1.035227
H189	H	0.925966	-0.639475	0.077644
H190	H	1.425966	-0.139475	0.577644
F191	F	0.527397	0.082770	0.125305
F192	F	1.027397	0.582770	0.625305
H193	H	0.688824	0.083606	0.094306
H194	H	1.188824	0.583606	0.594306
F195	F	0.923821	-0.478003	0.176113
F196	F	1.423821	0.021997	0.676113
F197	F	0.925875	-0.355403	0.175972
F198	F	1.425875	0.144597	0.675972
H199	H	0.856477	0.132349	0.561399
H200	H	1.356477	0.632349	1.061399
F201	F	0.159207	0.076779	0.080949
F202	F	0.659207	0.576779	0.580949
F203	F	0.932270	-0.207513	0.096904
F204	F	1.432270	0.292487	0.596904
