data_functionalizedCrystal
_audit_creation_method	'MofGen! by Chris Wilmer'
_symmetry_space_group_name_H-M	'P1'
_symmetry_Int_Tables_number	1
_symmetry_cell_setting	triclinic
loop_
_symmetry_equiv_pos_as_xyz
  x,y,z
_cell_length_a	10.654544
_cell_length_b	16.098678
_cell_length_c	10.654541
_cell_angle_alpha	87.242054
_cell_angle_beta	95.515610
_cell_angle_gamma	87.251496
loop_
_atom_site_label
_atom_site_type_symbol
_atom_site_fract_x
_atom_site_fract_y
_atom_site_fract_z
O1	O	1.662277	0.069276	-0.181961
O2	O	1.296798	0.069273	-0.198767
O3	O	1.487942	0.069269	-0.007624
O4	O	1.471132	0.069279	-0.373104
O5	O	1.499051	-0.069241	0.003505
O6	O	1.307906	-0.069238	-0.187638
O7	O	1.673385	-0.069235	-0.170832
Zn8	Zn	1.492409	-0.091228	-0.177468
Zn9	Zn	1.477774	0.091266	-0.192131
O10	O	1.482241	-0.069231	-0.361975
C11	C	1.255554	0.000017	-0.191969
C12	C	1.116111	0.000016	-0.188277
N13	N	1.502407	-0.215774	-0.167461
C14	C	1.128197	-0.150992	-0.176158
C15	C	1.068729	-0.226494	-0.168368
C16	C	0.937711	-0.226490	-0.164898
C17	C	0.866156	-0.150977	-0.169214
C18	C	0.925623	-0.075476	-0.177004
C19	C	1.056645	-0.075487	-0.180478
C20	C	0.913538	0.075531	-0.189113
C21	C	1.044556	0.075529	-0.192593
C22	C	0.841984	0.151044	-0.193430
C23	C	0.901450	0.226547	-0.201229
C24	C	1.032476	0.226541	-0.204701
C25	C	1.104023	0.151031	-0.200383
C26	C	1.421261	-0.259378	-0.248559
C27	C	1.428292	-0.346566	-0.241553
C28	C	1.516462	-0.390148	-0.153442
C29	C	1.597616	-0.346537	-0.072340
C30	C	1.590591	-0.259352	-0.079353
C31	C	1.541915	-0.653392	-0.128040
C32	C	1.548931	-0.740583	-0.121031
C33	C	1.379607	-0.740606	-0.290246
C34	C	1.372585	-0.653418	-0.297246
C35	C	1.453743	-0.609816	-0.216149
C36	C	1.523648	-0.479267	-0.146276
C37	C	1.446563	-0.520698	-0.223322
C38	C	1.714629	0.000023	-0.177631
C39	C	1.854071	0.000029	-0.181323
C40	C	1.492263	0.000015	0.044738
C41	C	1.488572	0.000016	0.184181
N42	N	1.467786	0.215813	-0.202129
C43	C	1.477920	0.000025	-0.414338
C44	C	1.481610	0.000030	-0.553782
C45	C	1.717137	0.000007	0.212153
C46	C	1.829681	0.000001	0.291648
C47	C	1.826205	0.000004	0.422666
C48	C	1.710173	0.000015	0.474190
C49	C	1.597630	0.000021	0.394695
C50	C	1.601118	0.000016	0.263676
C51	C	1.369067	0.000036	0.366723
C52	C	1.372540	0.000027	0.235706
C53	C	1.253035	0.000047	0.418248
C54	C	1.140489	0.000047	0.338753
C55	C	1.143969	0.000043	0.207728
C56	C	1.259996	0.000033	0.156211
H57	H	1.234878	-0.151003	-0.179001
H58	H	1.262842	0.000025	0.049532
H59	H	1.250212	0.000054	0.524930
H60	H	0.889292	-0.287970	-0.158564
N61	N	1.141841	-0.303618	-0.163949
N62	N	1.258821	-0.303616	-0.167047
H63	H	1.310455	-0.358084	-0.163922
N64	N	1.345408	-0.391093	-0.324417
N65	N	1.266693	-0.352171	-0.403085
H66	H	1.208157	-0.383617	-0.461618
H67	H	1.313533	-0.776115	-0.356274
H68	H	0.759476	-0.150981	-0.166371
N69	N	1.687663	-0.391056	0.017679
N70	N	1.684153	-0.381322	0.133000
H71	H	1.747747	-0.412763	0.196580
H72	H	1.719980	-0.000006	0.105474
N73	N	1.021965	0.000064	0.391358
N74	N	0.941153	0.058450	0.362655
H75	H	0.857441	0.058460	0.399808
H76	H	1.052321	0.000052	0.143009
H77	H	0.735303	0.151042	-0.190594
H78	H	1.707353	0.000027	0.580872
H79	H	0.843181	0.288024	-0.204735
N80	N	1.093198	0.303673	-0.212643
N81	N	1.029292	0.371082	-0.216488
H82	H	1.072171	0.425559	-0.222096
H83	H	1.607995	-0.617897	-0.062005
H84	H	1.349458	-0.223900	-0.320303
N85	N	1.237822	0.151098	-0.204155
N86	N	1.288038	0.117446	-0.291509
H87	H	1.382524	0.117519	-0.294249
N88	N	1.282503	-0.608916	-0.387248
N89	N	1.210053	-0.647860	-0.459648
H90	H	1.146425	-0.616431	-0.523209
N91	N	1.638987	-0.785116	-0.031024
N92	N	1.635500	-0.775397	0.084304
H93	H	1.699096	-0.806854	0.147866
N94	N	1.673402	-0.214821	0.003583
N95	N	1.752061	-0.253741	0.082310
H96	H	1.810518	-0.222293	0.140918
H97	H	1.374779	-0.485211	-0.295067
H98	H	1.595436	-0.514758	-0.074532
N99	N	1.948200	-0.000032	0.239015
N100	N	2.028997	-0.058427	0.267708
H101	H	2.112701	-0.058452	0.230539
H102	H	1.917848	0.000005	0.487391
