data_functionalizedCrystal
_audit_creation_method	'MofGen! by Chris Wilmer'
_symmetry_space_group_name_H-M	'P1'
_symmetry_Int_Tables_number	1
_symmetry_cell_setting	triclinic
loop_
_symmetry_equiv_pos_as_xyz
  x,y,z
_cell_length_a	14.971491
_cell_length_b	10.967829
_cell_length_c	14.048226
_cell_angle_alpha	77.865708
_cell_angle_beta	89.991693
_cell_angle_gamma	84.175069
loop_
_atom_site_label
_atom_site_type_symbol
_atom_site_fract_x
_atom_site_fract_y
_atom_site_fract_z
O1	O	1.187820	0.162650	-0.105880
O2	O	0.927525	0.182118	-0.109067
O3	O	1.063674	-0.009258	-0.077673
O4	O	1.051671	0.354026	-0.137274
O5	O	1.063657	-0.009270	0.080650
O6	O	0.927509	0.182106	0.049257
O7	O	1.187803	0.162639	0.052443
Zn8	Zn	1.057653	0.172371	0.075987
Zn9	Zn	1.057675	0.172386	-0.132611
O10	O	1.051655	0.354015	0.021049
C11	C	0.894188	0.181240	-0.029761
C12	C	0.794877	0.178628	-0.029330
C13	C	0.367120	0.167361	-0.113804
C14	C	0.460433	0.169812	-0.114203
C15	C	0.507076	0.171040	-0.028100
C16	C	0.460403	0.169803	0.058409
C17	C	0.367092	0.167344	0.058808
C18	C	0.654892	0.174933	0.057571
C19	C	0.748209	0.177396	0.057172
C20	C	0.748233	0.177402	-0.115440
C21	C	0.654922	0.174942	-0.115041
C22	C	0.608255	0.173708	-0.028532
C23	C	1.062791	-0.055756	0.009114
C24	C	1.060174	-0.194285	0.031835
C25	C	1.059017	-0.256034	-0.040052
C26	C	1.056312	-0.399212	-0.016570
C27	C	1.221141	0.163516	-0.026865
C28	C	1.320452	0.166129	-0.027302
C29	C	1.052538	0.400512	-0.065740
C30	C	1.055154	0.539042	-0.088467
N31	N	1.057645	0.172360	0.218349
N32	N	1.057691	0.172387	-0.274972
C33	C	1.117951	0.087654	0.282063
C34	C	1.117957	0.087653	0.381720
C35	C	1.057661	0.172366	0.417662
C36	C	0.997348	0.257076	0.353941
C37	C	0.997339	0.257070	0.254286
C38	C	0.997374	0.257085	0.561654
C39	C	0.997385	0.257093	0.661315
C40	C	1.117993	0.087668	0.689088
C41	C	1.117983	0.087662	0.589433
C42	C	1.057671	0.172374	0.525719
H43	H	0.329148	0.166371	-0.183921
Cl44	Cl	0.806846	0.178929	0.165419
H45	H	0.329095	0.166353	0.129245
Cl46	Cl	0.596227	0.173368	0.166330
H47	H	1.055296	-0.452339	0.062365
Cl48	Cl	0.519040	0.171344	0.166654
H49	H	1.056154	-0.407829	-0.167403
Cl50	Cl	1.193761	-0.018843	0.236890
H51	H	1.059158	-0.247417	0.110765
Cl52	Cl	0.921578	0.363591	0.706491
H53	H	0.948249	0.326046	0.383211
H54	H	1.167062	0.018678	0.433597
H55	H	1.167085	0.018689	0.560170
H56	H	1.060023	-0.202901	-0.118981
H57	H	1.167100	0.018693	0.740971
H58	H	0.948259	0.326063	0.509780
Cl59	Cl	0.806899	0.178968	-0.224197
Cl60	Cl	0.519098	0.171355	-0.222952
Cl61	Cl	0.596285	0.173410	-0.223288
H62	H	0.948230	0.326044	0.202411
