data_functionalizedCrystal
_audit_creation_method	'MofGen! by Chris Wilmer'
_symmetry_space_group_name_H-M	'P1'
_symmetry_Int_Tables_number	1
_symmetry_cell_setting	triclinic
loop_
_symmetry_equiv_pos_as_xyz
  x,y,z
_cell_length_a	8.497374
_cell_length_b	8.497374
_cell_length_c	17.077404
_cell_angle_alpha	90.003463
_cell_angle_beta	89.998682
_cell_angle_gamma	90.005237
loop_
_atom_site_label
_atom_site_type_symbol
_atom_site_fract_x
_atom_site_fract_y
_atom_site_fract_z
Zn1	Zn	0.628320	0.892179	1.200049
Zn2	Zn	1.128320	1.392179	1.700049
Zn3	Zn	0.892066	0.628445	1.200043
Zn4	Zn	1.392066	1.128445	1.700043
Zn5	Zn	0.628295	0.628399	1.068818
Zn6	Zn	1.128295	1.128399	1.568818
Zn7	Zn	0.892053	0.892169	1.068799
Zn8	Zn	1.392053	1.392169	1.568799
O9	O	0.760183	0.760298	1.134427
O10	O	1.260183	1.260298	1.634427
O11	O	0.663322	0.857218	1.309895
O12	O	1.163322	1.357218	1.809895
O13	O	0.857071	0.407677	1.182641
O14	O	1.357071	0.907677	1.682641
O15	O	0.407536	0.663375	1.086236
O16	O	0.907536	1.163375	1.586236
O17	O	0.857095	0.663454	1.309891
O18	O	1.357095	1.163454	1.809891
O19	O	0.407554	0.857174	1.182652
O20	O	0.907554	1.357174	1.682652
O21	O	0.663279	0.407643	1.086230
O22	O	1.163279	0.907643	1.586230
O23	O	0.663267	0.663364	0.958968
O24	O	1.163267	1.163364	1.458968
O25	O	0.857074	1.112932	1.086204
O26	O	1.357074	1.612932	1.586204
O27	O	0.857049	0.857155	0.958955
O28	O	1.357049	1.357155	1.458955
O29	O	0.663310	1.112940	1.182633
O30	O	1.163310	1.612940	1.682633
O31	O	1.112826	0.663443	1.182623
O32	O	1.612826	1.163443	1.682623
O33	O	1.112817	0.857200	1.086198
O34	O	1.612817	1.357200	1.586198
C35	C	0.760155	0.760254	0.930479
C36	C	1.260155	1.260254	1.430479
C37	C	0.760180	0.760273	0.843230
C38	C	1.260180	1.260273	1.343230
C39	C	0.861235	0.861018	0.802253
C40	C	1.361235	1.361018	1.302253
C41	C	0.861238	0.861043	0.720272
C42	C	1.361238	1.361043	1.220272
C43	C	0.760194	0.760315	0.679270
C44	C	1.260194	1.260315	1.179270
C45	C	0.659128	0.659565	0.720253
C46	C	1.159128	1.159565	1.220253
C47	C	0.659118	0.659549	0.802232
C48	C	1.159118	1.159549	1.302232
C49	C	0.659160	0.659603	0.549383
C50	C	1.159160	1.159603	1.049383
C51	C	0.659171	0.659617	0.467398
C52	C	1.159171	1.159617	0.967398
C53	C	0.861280	0.861097	0.467423
C54	C	1.361280	1.361097	0.967423
C55	C	0.861270	0.861081	0.549402
C56	C	1.361270	1.361081	1.049402
C57	C	0.760206	0.760329	0.590379
C58	C	1.260206	1.260329	1.090379
C59	C	1.170063	0.760321	1.134417
C60	C	1.670063	1.260321	1.634417
C61	C	1.348707	0.760295	1.134438
C62	C	1.848707	1.260295	1.634438
C63	C	0.760186	1.171778	1.134421
C64	C	1.260186	1.671778	1.634421
C65	C	0.760202	1.350422	1.134423
C66	C	1.260202	1.850422	1.634423
C67	C	0.760213	0.760343	1.339171
C68	C	1.260213	1.260343	1.839171
C69	C	0.760226	0.760362	1.426421
C70	C	1.260226	1.260362	1.926421
H71	H	0.943522	0.943038	0.835631
H72	H	1.443522	1.443038	1.335631
Cl73	Cl	0.988309	0.987703	0.600947
Cl74	Cl	1.488309	1.487703	1.100947
H75	H	0.576821	0.577520	0.835594
H76	H	1.076821	1.077520	1.335594
Cl77	Cl	0.532149	0.532977	0.415853
Cl78	Cl	1.032149	1.032977	0.915853
H79	H	0.576848	0.577574	0.582744
H80	H	1.076848	1.077574	1.082744
Cl81	Cl	0.988285	0.987700	0.668762
Cl82	Cl	1.488285	1.487700	1.168762
H83	H	0.943565	0.943138	0.434056
H84	H	1.443565	1.443138	0.934056
H85	H	0.576850	0.577557	0.686862
H86	H	1.076850	1.077557	1.186862
