data_functionalizedCrystal
_audit_creation_method	'MofGen! by Chris Wilmer'
_symmetry_space_group_name_H-M	'P1'
_symmetry_Int_Tables_number	1
_symmetry_cell_setting	triclinic
loop_
_symmetry_equiv_pos_as_xyz
  x,y,z
_cell_length_a	12.645331
_cell_length_b	12.645330
_cell_length_c	12.645323
_cell_angle_alpha	90.030929
_cell_angle_beta	90.026382
_cell_angle_gamma	90.012301
loop_
_atom_site_label
_atom_site_type_symbol
_atom_site_fract_x
_atom_site_fract_y
_atom_site_fract_z
Zn1	Zn	-1.620729	0.422193	-0.599506
Zn2	Zn	-1.620609	0.599481	-0.422228
Zn3	Zn	-1.443443	0.422215	-0.422239
Zn4	Zn	-1.443424	0.599398	-0.599432
O5	O	-1.532051	0.510822	-0.510851
O6	O	-1.769060	0.445737	-0.576016
O7	O	-1.597066	0.576011	-0.273882
O8	O	-1.467019	0.273865	-0.445790
O9	O	-1.768972	0.575990	-0.445771
O10	O	-1.597269	0.273849	-0.576028
O11	O	-1.466903	0.445773	-0.273890
O12	O	-1.295093	0.445692	-0.445718
O13	O	-1.466986	0.575847	-0.747789
O14	O	-1.295079	0.575868	-0.575900
O15	O	-1.597251	0.445656	-0.747844
O16	O	-1.597047	0.747818	-0.445698
O17	O	-1.466870	0.747756	-0.575889
C18	C	-1.256622	0.510774	-0.510803
C19	C	-1.138791	0.510779	-0.510807
C20	C	-1.531972	0.786252	-0.510807
C21	C	-1.532035	0.904082	-0.510824
C22	C	-0.971201	0.428495	-0.429350
C23	C	-1.093761	0.428718	-0.429000
C24	C	-1.094270	0.622449	-0.480278
C25	C	-0.971672	0.621990	-0.479714
C26	C	-0.971642	0.482424	-0.623083
C27	C	-1.094248	0.479939	-0.622468
C28	C	-1.532129	0.510740	-0.787357
C29	C	-1.532163	0.510705	-0.905187
C30	C	-0.808556	0.510850	-0.510884
C31	C	-0.926386	0.510809	-0.510857
C32	C	-1.614019	0.948958	-0.428987
C33	C	-1.613819	1.071518	-0.428684
C34	C	-1.420302	1.072077	-0.480781
C35	C	-1.420736	0.949479	-0.480169
C36	C	-1.560894	0.949164	-0.622947
C37	C	-1.563400	1.071770	-0.622368
C38	C	-1.532135	1.234317	-0.510895
C39	C	-1.532107	1.116486	-0.510855
C40	C	-1.449960	0.592222	-1.072716
C41	C	-1.450175	0.592626	-0.950156
C42	C	-1.643862	0.541035	-0.949711
C43	C	-1.643411	0.541546	-1.072309
C44	C	-1.503722	0.398402	-1.072395
C45	C	-1.501230	0.399075	-0.949788
C46	C	-1.532034	0.510827	-0.235422
C47	C	-1.532207	0.510563	-0.117592
H48	H	-0.941737	0.345433	-0.448278
N49	N	-1.589880	1.108369	-0.324455
N50	N	-1.504087	1.083947	-0.281845
H51	H	-1.487194	1.109961	-0.208220
H52	H	-1.124926	0.646940	-0.399119
N53	N	-1.674697	0.642811	-0.911216
N54	N	-1.757022	0.652428	-0.857389
H55	H	-1.778797	0.724310	-0.830204
H56	H	-1.468581	0.674852	-1.103528
H57	H	-1.697154	0.919421	-0.447557
H58	H	-1.123440	0.685424	-0.537783
N59	N	-1.722889	0.470189	-1.109586
N60	N	-1.697640	0.393280	-1.166342
H61	H	-1.753774	0.342890	-1.192669
N62	N	-1.130518	0.452274	-0.324688
N63	N	-1.227539	0.456531	-0.306300
H64	H	-1.253500	0.473171	-0.232626
N65	N	-0.932874	0.382058	-0.657923
N66	N	-0.835673	0.367651	-0.668608
H67	H	-0.808291	0.296764	-0.693205
H68	H	-1.501189	0.920135	-0.683919
H69	H	-0.943026	0.646062	-0.397671
H70	H	-1.123353	0.397762	-0.645488
H71	H	-1.124905	0.535525	-0.686449
N72	N	-1.390108	0.913677	-0.377369
N73	N	-1.384887	0.816831	-0.358331
H74	H	-1.363253	0.791548	-0.285728
H75	H	-1.696714	1.101541	-0.447470
H76	H	-0.942027	0.685397	-0.536491
N77	N	-0.932483	0.451764	-0.325642
N78	N	-0.872028	0.528707	-0.311499
H79	H	-0.844681	0.545145	-0.238256
H80	H	-0.942663	0.542378	-0.683813
N81	N	-1.590309	0.910403	-0.325363
N82	N	-1.513294	0.850019	-0.311521
H83	H	-1.496543	0.822789	-0.238336
H84	H	-1.563626	0.337563	-1.101419
N85	N	-1.341478	0.912249	-0.551713
N86	N	-1.286015	0.976814	-0.601932
H87	H	-1.230036	0.950526	-0.652456
H88	H	-1.357573	1.101206	-0.538563
H89	H	-1.395481	1.102860	-0.399738
N90	N	-1.403322	0.363731	-1.111168
N91	N	-1.351539	0.421273	-1.172593
H92	H	-1.280628	0.396797	-1.199980
N93	N	-1.398108	0.370391	-0.913279
N94	N	-1.347525	0.431875	-0.854626
H95	H	-1.274693	0.411621	-0.828835
N96	N	-1.661397	0.910274	-0.657329
N97	N	-1.712980	0.848849	-0.599605
H98	H	-1.783963	0.821377	-0.623878
N99	N	-1.666618	1.108179	-0.650816
N100	N	-1.717004	1.166845	-0.589250
H101	H	-1.789902	1.192568	-0.609339
N102	N	-1.131537	0.324838	-0.452994
N103	N	-1.188598	0.310026	-0.532377
H104	H	-1.215270	0.236654	-0.549318
H105	H	-1.508088	1.102374	-0.686596
N106	N	-1.346265	0.568810	-0.912398
N107	N	-1.273078	0.551775	-0.976592
H108	H	-1.199685	0.534959	-0.949932
H109	H	-1.366886	0.573424	-1.102187
H110	H	-1.706785	0.483440	-0.920586
N111	N	-1.473802	0.696931	-0.913380
N112	N	-1.490192	0.769654	-0.978259
H113	H	-1.506880	0.843325	-0.952287
N114	N	-1.570863	0.318702	-0.911365
N115	N	-1.534901	0.243301	-0.858556
H116	H	-1.584083	0.186541	-0.831407
H117	H	-1.667556	0.623538	-1.100913
