data_functionalizedCrystal
_audit_creation_method	'MofGen! by Chris Wilmer'
_symmetry_space_group_name_H-M	'P1'
_symmetry_Int_Tables_number	1
_symmetry_cell_setting	triclinic
loop_
_symmetry_equiv_pos_as_xyz
  x,y,z
_cell_length_a	19.077105
_cell_length_b	21.295417
_cell_length_c	19.076919
_cell_angle_alpha	92.266620
_cell_angle_beta	90.076224
_cell_angle_gamma	87.726672
loop_
_atom_site_label
_atom_site_type_symbol
_atom_site_fract_x
_atom_site_fract_y
_atom_site_fract_z
Zn1	Zn	1.058236	-0.304534	-0.440387
Zn2	Zn	1.062864	-0.405747	-0.322870
Zn3	Zn	0.945454	-0.296102	-0.318181
Zn4	Zn	0.940686	-0.405368	-0.435623
O5	O	1.001810	-0.352938	-0.379265
O6	O	1.157181	-0.321649	-0.428754
O7	O	1.051222	-0.387832	-0.223917
O8	O	0.960474	-0.209134	-0.334424
O9	O	1.160581	-0.396009	-0.342415
O10	O	1.043334	-0.215330	-0.424208
O11	O	0.964962	-0.307276	-0.220472
O12	O	0.846490	-0.306908	-0.329804
O13	O	0.952346	-0.395362	-0.534586
O14	O	0.842987	-0.387185	-0.416088
O15	O	1.038710	-0.321280	-0.538086
O16	O	1.046598	-0.493783	-0.337795
O17	O	0.956834	-0.493504	-0.420634
C18	C	0.819242	-0.346091	-0.371921
C19	C	0.741139	-0.343178	-0.368795
C20	C	0.702642	-0.383663	-0.412179
C21	C	0.629255	-0.380918	-0.409246
C22	C	0.594366	-0.337689	-0.362924
C23	C	0.632868	-0.297199	-0.319538
C24	C	0.706253	-0.299942	-0.322476
C25	C	0.375080	-0.324994	-0.349333
C26	C	0.301690	-0.322256	-0.346397
C27	C	0.298082	-0.405974	-0.436106
C28	C	0.371470	-0.408715	-0.439037
C29	C	0.409965	-0.368223	-0.395653
N30	N	0.519353	-0.334883	-0.359923
N31	N	0.484976	-0.371027	-0.398658
C32	C	1.001719	-0.516485	-0.379223
C33	C	1.001744	-0.586454	-0.379231
C34	C	1.048522	-0.619448	-0.336144
C35	C	1.048554	-0.685192	-0.336161
C36	C	1.001796	-0.717939	-0.379257
C37	C	0.955015	-0.684937	-0.422352
C38	C	0.954989	-0.619195	-0.422339
N39	N	0.940111	-0.819089	-0.382141
N40	N	0.940138	-0.881541	-0.382149
C41	C	1.001873	-0.916018	-0.379300
N42	N	1.063583	-0.885683	-0.376429
N43	N	1.063555	-0.823224	-0.376417
C44	C	1.001820	-0.789226	-0.379276
C45	C	1.048690	-1.020300	-0.336230
C46	C	1.048724	-1.086046	-0.336252
C47	C	0.955178	-1.085789	-0.422439
C48	C	0.955151	-1.020045	-0.422421
C49	C	1.001906	-0.987304	-0.379313
C50	C	1.185090	-0.359812	-0.386639
C51	C	1.263193	-0.362741	-0.389782
C52	C	0.994480	-0.359220	-0.562545
C53	C	0.991356	-0.361897	-0.640648
C54	C	1.001919	-0.188754	-0.379324
C55	C	1.001966	-0.118788	-0.379349
C56	C	1.034851	-0.324586	-0.679164
C57	C	1.031907	-0.327098	-0.752550
C58	C	0.985472	-0.366925	-0.787418
C59	C	0.941972	-0.404238	-0.748896
C60	C	0.944913	-0.401722	-0.675512
C61	C	0.971853	-0.378584	-1.006698
C62	C	0.968917	-0.381099	-1.080087
C63	C	1.058852	-0.303958	-1.083736
C64	C	1.061791	-0.301448	-1.010350
C65	C	1.018289	-0.338758	-0.971835
N66	N	0.982464	-0.369496	-0.862429
N67	N	1.021294	-0.336183	-0.896824
C68	C	1.009152	-0.346637	-0.196700
C69	C	1.012412	-0.343787	-0.118604
H70	H	0.406414	-0.292027	-0.314002
O71	O	1.101032	-0.267734	-1.121256
C72	C	1.088494	-0.278504	-1.193504
H73	H	1.033852	-0.297431	-1.201335
H74	H	1.092172	-0.232488	-1.221602
H75	H	1.129319	-0.314300	-1.215997
O76	O	1.106819	-0.262654	-0.976524
C77	C	1.090781	-0.199965	-0.993892
H78	H	1.033836	-0.195386	-1.011796
H79	H	1.098791	-0.167425	-0.945899
H80	H	1.126748	-0.186391	-1.038025
H81	H	0.604455	-0.261999	-0.281825
H82	H	0.399871	-0.443918	-0.476755
H83	H	0.916895	-0.592330	-0.457426
H84	H	1.072666	-0.292156	-0.650780
O85	O	0.923761	-0.419698	-1.114031
C86	C	0.876696	-0.383604	-1.154650
H87	H	0.901079	-0.337212	-1.166661
H88	H	0.865188	-0.410658	-1.205864
H89	H	0.825762	-0.373757	-1.124271
H90	H	0.917110	-1.112451	-0.457532
O91	O	1.094019	-0.717153	-0.294237
C92	C	1.135293	-0.674158	-0.256201
H93	H	1.106597	-0.626155	-0.252580
H94	H	1.145047	-0.691556	-0.201150
H95	H	1.187610	-0.669997	-0.284114
O96	O	0.929561	-0.414880	-0.969397
C97	C	0.887931	-0.450554	-1.015911
H98	H	0.914626	-0.455620	-1.069375
H99	H	0.881229	-0.499136	-0.994382
H100	H	0.834276	-0.425755	-1.021588
H101	H	1.067327	-0.296717	-0.783907
H102	H	0.904161	-0.436664	-0.777291
O103	O	0.902644	-0.438036	-0.638203
C104	C	0.861020	-0.473722	-0.684712
H105	H	0.887701	-0.478767	-0.738184
H106	H	0.854352	-0.522312	-0.663191
H107	H	0.807351	-0.448944	-0.690368
H108	H	0.737596	-0.266971	-0.287151
H109	H	1.086820	-1.112908	-0.301168
O110	O	0.736419	-0.425674	-0.457239
C111	C	0.686701	-0.460828	-0.494890
H112	H	0.634305	-0.433178	-0.495281
H113	H	0.705698	-0.470308	-0.551090
H114	H	0.679899	-0.507424	-0.468748
H115	H	0.597915	-0.413886	-0.444573
H116	H	0.273285	-0.287047	-0.308681
O117	O	0.260580	-0.445237	-0.478224
C118	C	0.188327	-0.433560	-0.465689
H119	H	0.179240	-0.383790	-0.442374
H120	H	0.158343	-0.438663	-0.517199
H121	H	0.168974	-0.468784	-0.427360
H122	H	1.086595	-0.592792	-0.301045
H123	H	0.916945	-0.711604	-0.457442
H124	H	0.917057	-0.993179	-0.457503
O125	O	1.094176	-0.988590	-0.294340
C126	C	1.135464	-1.031813	-0.256304
H127	H	1.136746	-1.079738	-0.285198
H128	H	1.191122	-1.014590	-0.251073
H129	H	1.111911	-1.036061	-0.201885
