data_functionalizedCrystal
_audit_creation_method	'MofGen! by Chris Wilmer'
_symmetry_space_group_name_H-M	'P1'
_symmetry_Int_Tables_number	1
_symmetry_cell_setting	triclinic
loop_
_symmetry_equiv_pos_as_xyz
  x,y,z
_cell_length_a	8.559649
_cell_length_b	8.559649
_cell_length_c	10.065875
_cell_angle_alpha	97.528889
_cell_angle_beta	82.476114
_cell_angle_gamma	69.778664
loop_
_atom_site_label
_atom_site_type_symbol
_atom_site_fract_x
_atom_site_fract_y
_atom_site_fract_z
O1	O	2.100161	-0.028320	0.113490
O2	O	2.600161	0.471680	0.613490
O3	O	1.624676	0.055462	0.113492
O4	O	2.124676	0.555462	0.613492
O5	O	1.904310	-0.224172	0.113488
O6	O	2.404310	0.275828	0.613488
O7	O	1.820528	0.251314	0.113493
O8	O	2.320528	0.751314	0.613493
O9	O	1.957732	-0.277610	-0.113501
O10	O	2.457732	0.222390	0.386499
O11	O	1.678098	0.002024	-0.113498
O12	O	2.178098	0.502024	0.386502
O13	O	2.153583	-0.081757	-0.113500
O14	O	2.653583	0.418243	0.386500
Zn15	Zn	1.924322	-0.048351	-0.149538
Zn16	Zn	2.424322	0.451649	0.350462
Zn17	Zn	1.853937	0.022055	0.149530
Zn18	Zn	2.353937	0.522055	0.649530
O19	O	1.873949	0.197876	-0.113496
O20	O	2.373949	0.697876	0.386504
C21	C	1.591078	0.035092	-0.000003
C22	C	2.091078	0.535092	0.499997
C23	C	1.411379	0.053991	-0.000002
C24	C	1.911379	0.553991	0.499998
C25	C	1.937370	-0.311199	-0.000004
C26	C	2.437370	0.188801	0.499996
C27	C	1.956267	-0.490897	0.000003
C28	C	2.456267	0.009103	0.500003
C29	C	2.187181	-0.061387	-0.000002
C30	C	2.687181	0.438613	0.499998
C31	C	2.366878	-0.080284	0.000006
C32	C	2.866878	0.419716	0.500006
N33	N	1.972371	-0.096404	-0.353644
N34	N	2.472371	0.403596	0.146356
C35	C	1.840889	0.284904	-0.000001
C36	C	2.340889	0.784904	0.499999
C37	C	1.821990	0.464604	0.000001
C38	C	2.321990	0.964604	0.500001
N39	N	1.805903	0.070093	0.353636
N40	N	2.305903	0.570093	0.853636
C41	C	1.907619	-0.031628	0.421414
C42	C	2.407619	0.468372	0.921414
C43	C	1.870640	0.005333	0.578582
C44	C	2.370640	0.505333	1.078582
H45	H	1.311997	0.183414	0.000013
H46	H	1.811997	0.683414	0.500013
H47	H	2.086843	-0.210856	0.588033
H48	H	2.586843	0.289144	1.088033
F49	F	1.721029	0.154945	0.654809
F50	F	2.221029	0.654945	1.154809
H51	H	2.085689	0.409723	-0.000006
H52	H	2.585689	0.909723	0.499994
H53	H	1.466266	-0.209713	0.000005
H54	H	1.966266	0.290287	0.500005
H55	H	1.692563	0.563991	-0.000006
H56	H	2.192563	1.063991	0.499994
F57	F	2.057237	-0.181220	0.345184
F58	F	2.557237	0.318780	0.845184
F59	F	1.656300	0.219698	0.429869
F60	F	2.156300	0.719698	0.929869
