data_functionalizedCrystal
_audit_creation_method	'MofGen! by Chris Wilmer'
_symmetry_space_group_name_H-M	'P1'
_symmetry_Int_Tables_number	1
_symmetry_cell_setting	triclinic
loop_
_symmetry_equiv_pos_as_xyz
  x,y,z
_cell_length_a	12.759400
_cell_length_b	12.759401
_cell_length_c	12.759393
_cell_angle_alpha	89.980918
_cell_angle_beta	89.968385
_cell_angle_gamma	90.014328
loop_
_atom_site_label
_atom_site_type_symbol
_atom_site_fract_x
_atom_site_fract_y
_atom_site_fract_z
Zn1	Zn	-0.418214	1.606255	-0.593999
Zn2	Zn	-0.593933	1.606150	-0.418319
Zn3	Zn	-0.418267	1.430557	-0.418336
Zn4	Zn	-0.593850	1.430546	-0.593959
O5	O	-0.506066	1.518377	-0.506153
O6	O	-0.441535	1.753262	-0.570704
O7	O	-0.570687	1.582818	-0.271300
O8	O	-0.271239	1.453913	-0.441663
O9	O	-0.570635	1.753185	-0.441633
O10	O	-0.271200	1.582997	-0.570721
O11	O	-0.441627	1.453811	-0.271313
O12	O	-0.441547	1.283535	-0.441623
O13	O	-0.570495	1.453893	-0.740985
O14	O	-0.570547	1.283526	-0.570652
O15	O	-0.441455	1.582986	-0.741015
O16	O	-0.740943	1.582806	-0.441594
O17	O	-0.740882	1.453791	-0.570636
C18	C	-0.506044	1.245410	-0.506136
C19	C	-0.506060	1.128633	-0.506154
C20	C	-0.438824	0.964020	-0.439097
C21	C	-0.438802	1.073744	-0.439087
C22	C	-0.573337	1.073792	-0.573243
C23	C	-0.573353	0.964070	-0.573258
C24	C	-0.371570	0.909136	-0.372018
C25	C	-0.304291	0.963969	-0.304930
C26	C	-0.304269	1.073693	-0.304919
C27	C	-0.371525	1.128584	-0.371997
C28	C	-0.779033	1.518315	-0.506131
C29	C	-0.895810	1.518384	-0.506157
C30	C	-0.950669	1.585637	-0.439039
C31	C	-1.060393	1.585701	-0.439072
C32	C	-1.060390	1.451251	-0.573343
C33	C	-0.950668	1.451193	-0.573315
C34	C	-0.895811	1.652828	-0.371882
C35	C	-0.950670	1.720086	-0.304758
C36	C	-1.060394	1.720150	-0.304790
C37	C	-1.115259	1.652957	-0.371947
C38	C	-0.232033	1.518468	-0.506198
C39	C	-0.115256	1.518507	-0.506217
C40	C	-0.505960	1.518450	-0.780187
C41	C	-0.505915	1.518481	-0.896963
C42	C	-0.506089	1.792410	-0.506171
C43	C	-0.506098	1.909187	-0.506179
C44	C	-0.438700	1.451332	-0.951832
C45	C	-0.438668	1.451356	-1.061556
C46	C	-0.573067	1.585689	-1.061534
C47	C	-0.573104	1.585659	-0.951812
C48	C	-0.506096	1.518364	-0.233186
C49	C	-0.505845	1.518537	-0.116410
H50	H	-0.628095	1.118494	-0.627854
C51	C	-0.231395	1.133362	-0.232026
C52	C	-0.290795	1.196339	-0.164599
C53	C	-0.223701	1.251328	-0.097438
H54	H	-0.191321	1.085078	-0.191981
H55	H	-0.185670	1.176246	-0.272257
H56	H	-0.336502	1.153458	-0.124372
H57	H	-0.330867	1.244642	-0.204614
H58	H	-0.177977	1.294213	-0.137669
H59	H	-0.183631	1.203037	-0.057401
H60	H	-0.263994	1.294072	-0.051688
H61	H	-0.371492	1.217929	-0.371993
C62	C	-0.646324	0.904657	-0.646263
C63	C	-0.623570	0.931418	-0.750245
C64	C	-0.690771	0.876714	-0.817532
H65	H	-0.636757	0.831436	-0.636806
H66	H	-0.716917	0.922635	-0.630838
H67	H	-0.552994	0.913432	-0.765665
H68	H	-0.633144	1.004629	-0.759734
H69	H	-0.761364	0.894693	-0.802107
H70	H	-0.681198	0.803496	-0.808066
H71	H	-0.675348	0.894871	-0.888090
H72	H	-0.249527	0.919269	-0.250324
C73	C	-1.234390	1.653149	-0.371796
C74	C	-1.270694	1.726415	-0.298630
C75	C	-1.380428	1.726609	-0.298449
H76	H	-1.259268	1.671332	-0.439556
H77	H	-1.259323	1.585393	-0.353524
H78	H	-1.245772	1.794156	-0.316908
H79	H	-1.245845	1.708248	-0.230860
H80	H	-1.405361	1.658852	-0.280178
H81	H	-1.405296	1.744790	-0.366213
H82	H	-1.405074	1.776312	-0.248801
C83	C	-0.645892	1.658588	-1.121276
C84	C	-0.631455	1.644265	-1.229110
C85	C	-0.698512	1.711413	-1.284174
H86	H	-0.716530	1.643248	-1.103406
H87	H	-0.630519	1.729202	-1.103360
H88	H	-0.646834	1.573667	-1.247018
H89	H	-0.560831	1.659612	-1.247012
H90	H	-0.683140	1.782027	-1.266259
H91	H	-0.769146	1.696068	-1.266295
H92	H	-0.688719	1.701711	-1.357345
C93	C	-1.120144	1.378336	-0.646129
C94	C	-1.227976	1.392762	-0.631767
C95	C	-1.283052	1.325597	-0.698788
H96	H	-1.102223	1.393596	-0.716773
H97	H	-1.102290	1.307722	-0.630676
H98	H	-1.245822	1.463360	-0.647227
H99	H	-1.245928	1.377494	-0.561137
H100	H	-1.265198	1.254982	-0.683334
H101	H	-1.265123	1.340862	-0.769427
H102	H	-1.356221	1.335368	-0.689045
H103	H	-0.905993	1.774798	-0.250087
C104	C	-1.119768	1.793212	-0.231805
C105	C	-1.048236	1.852020	-0.172972
C106	C	-1.102890	1.919323	-0.105712
H107	H	-1.162503	1.839088	-0.271925
H108	H	-1.162618	1.753091	-0.185951
H109	H	-1.005404	1.892138	-0.218821
H110	H	-1.005498	1.806172	-0.132830
H111	H	-1.145741	1.879202	-0.059857
H112	H	-1.145624	1.965192	-0.145840
H113	H	-1.054365	1.959226	-0.065779
C114	C	-0.891288	1.378069	-0.646232
C115	C	-0.962811	1.319216	-0.705030
C116	C	-0.908149	1.251841	-0.772211
H117	H	-0.848419	1.418107	-0.692120
H118	H	-0.848570	1.332232	-0.606024
H119	H	-1.005511	1.365047	-0.745235
H120	H	-1.005683	1.279157	-0.659170
H121	H	-0.865431	1.206004	-0.732003
H122	H	-0.865282	1.291887	-0.818092
H123	H	-0.956669	1.211895	-0.812107
C124	C	-0.365725	1.378273	-0.892470
C125	C	-0.306878	1.319450	-0.964012
C126	C	-0.239654	1.252123	-0.909371
H127	H	-0.319870	1.418345	-0.849674
H128	H	-0.405905	1.332415	-0.849681
H129	H	-0.266701	1.365302	-1.006784
H130	H	-0.352705	1.279358	-1.006810
H131	H	-0.279835	1.206265	-0.866581
H132	H	-0.193807	1.292203	-0.866577
H133	H	-0.199725	1.212197	-0.957903
C134	C	-0.646124	1.658684	-0.892422
C135	C	-0.704932	1.717547	-0.963937
C136	C	-0.772198	1.784832	-0.909265
H137	H	-0.692001	1.618580	-0.849604
H138	H	-0.605976	1.704519	-0.849651
H139	H	-0.745076	1.671719	-1.006689
H140	H	-0.659082	1.757673	-1.006757
H141	H	-0.732050	1.830666	-0.866495
H142	H	-0.818068	1.744719	-0.866450
H143	H	-0.812100	1.824785	-0.957780
H144	H	-0.383936	1.396675	-1.106225
H145	H	-0.371582	0.819793	-0.372017
H146	H	-0.806468	1.652780	-0.371845
