data_functionalizedCrystal
_audit_creation_method	'MofGen! by Chris Wilmer'
_symmetry_space_group_name_H-M	'P1'
_symmetry_Int_Tables_number	1
_symmetry_cell_setting	triclinic
loop_
_symmetry_equiv_pos_as_xyz
  x,y,z
_cell_length_a	25.639242
_cell_length_b	12.759400
_cell_length_c	12.759393
_cell_angle_alpha	90.030452
_cell_angle_beta	90.031512
_cell_angle_gamma	90.010100
loop_
_atom_site_label
_atom_site_type_symbol
_atom_site_fract_x
_atom_site_fract_y
_atom_site_fract_z
Zn1	Zn	0.799361	-0.418341	0.594317
Zn2	Zn	0.799307	-0.594056	0.418637
Zn3	Zn	0.711923	-0.418378	0.418620
Zn4	Zn	0.711919	-0.593964	0.594242
O5	O	0.755628	-0.506185	0.506454
O6	O	0.872519	-0.441672	0.571051
O7	O	0.787694	-0.570806	0.271614
O8	O	0.723546	-0.271352	0.441950
O9	O	0.872479	-0.570770	0.441980
O10	O	0.787786	-0.271325	0.571034
O11	O	0.723494	-0.441736	0.271601
O12	O	0.638757	-0.441647	0.441878
O13	O	0.723540	-0.570613	0.741273
O14	O	0.638754	-0.570650	0.570906
O15	O	0.787783	-0.441583	0.741328
O16	O	0.787691	-0.741065	0.441907
O17	O	0.723487	-0.740998	0.570923
C18	C	0.619785	-0.506144	0.506383
C19	C	0.561671	-0.506151	0.506377
C20	C	0.755597	-0.779152	0.506432
C21	C	0.755631	-0.895929	0.506458
C22	C	0.789131	-1.060522	0.439387
C23	C	0.789100	-0.950798	0.439354
C24	C	0.722188	-0.950789	0.573592
C25	C	0.722218	-1.060511	0.573618
C26	C	0.201315	-0.573469	0.573576
C27	C	0.146711	-0.573475	0.573592
O28	O	0.118481	-0.630660	0.630666
N29	N	0.119388	-0.506214	0.506522
C30	C	0.146673	-0.438934	0.439439
O31	O	0.118419	-0.381723	0.382393
C32	C	0.201276	-0.438923	0.439429
C33	C	0.228596	-0.506196	0.506495
C34	C	0.228635	-0.640736	0.640637
C35	C	0.283236	-0.640730	0.640619
C36	C	0.310516	-0.573458	0.573539
C37	C	0.283197	-0.506191	0.506477
C38	C	0.228560	-0.371639	0.372352
C39	C	0.283167	-0.371633	0.372348
C40	C	0.310487	-0.438907	0.439414
C41	C	0.365078	-0.438914	0.439379
N42	N	0.392400	-0.506175	0.506448
C43	C	0.365120	-0.573447	0.573529
C44	C	0.032002	-0.438961	0.439468
C45	C	-0.022600	-0.438976	0.439472
C46	C	-0.022558	-0.573516	0.573627
C47	C	0.032045	-0.573505	0.573616
C48	C	0.059325	-0.506222	0.506537
C49	C	0.479785	-0.573432	0.573485
C50	C	0.534390	-0.573423	0.573457
C51	C	0.534344	-0.438880	0.439307
C52	C	0.479743	-0.438892	0.439330
C53	C	0.452465	-0.506171	0.506427
O54	O	0.393343	-0.381755	0.382337
O55	O	0.393380	-0.630639	0.630575
C56	C	0.892001	-0.506227	0.506526
C57	C	0.950115	-0.506245	0.506557
C58	C	0.755667	-0.506084	0.780487
C59	C	0.755683	-0.506041	0.897264
C60	C	0.755673	-0.232152	0.506499
C61	C	0.755692	-0.115375	0.506518
C62	C	0.755619	-0.506210	0.233486
C63	C	0.755703	-0.505957	0.116710
C64	C	0.789137	-0.438844	0.952156
C65	C	0.789146	-0.438799	1.061881
C66	C	0.722246	-0.573156	1.061810
C67	C	0.722235	-0.573195	0.952088
H68	H	0.816388	-1.105189	0.384749
H69	H	0.694989	-0.627914	0.907394
H70	H	0.556566	-0.384112	0.384689
H71	H	0.694985	-1.105174	0.628286
H72	H	0.556631	-0.628209	0.628072
H73	H	0.457498	-0.384114	0.384717
H74	H	0.695014	-0.627833	1.106462
H75	H	0.457581	-0.628214	0.628124
H76	H	0.305474	-0.695509	0.695234
H77	H	0.816372	-0.384160	0.907522
H78	H	0.816387	-0.384079	1.106569
H79	H	0.206429	-0.695517	0.695268
H80	H	0.816328	-0.906140	0.384689
H81	H	0.054285	-0.628284	0.628229
H82	H	0.694935	-0.906109	0.628225
H83	H	-0.044780	-0.628290	0.628250
H84	H	-0.044839	-0.384206	0.384849
H85	H	0.054210	-0.384172	0.384836
H86	H	0.206326	-0.316860	0.317736
H87	H	0.305375	-0.316836	0.317729
