data_functionalizedCrystal
_audit_creation_method	'MofGen! by Chris Wilmer'
_symmetry_space_group_name_H-M	'P1'
_symmetry_Int_Tables_number	1
_symmetry_cell_setting	triclinic
loop_
_symmetry_equiv_pos_as_xyz
  x,y,z
_cell_length_a	19.188933
_cell_length_b	18.266242
_cell_length_c	11.792241
_cell_angle_alpha	89.993537
_cell_angle_beta	96.330508
_cell_angle_gamma	90.007623
loop_
_atom_site_label
_atom_site_type_symbol
_atom_site_fract_x
_atom_site_fract_y
_atom_site_fract_z
O1	O	0.926951	0.060857	-0.141706
O2	O	0.723748	0.060864	-0.160778
O3	O	0.830281	0.060855	0.014002
O4	O	0.820418	0.060866	-0.316486
O5	O	0.830262	-0.060907	0.014011
O6	O	0.723730	-0.060898	-0.160769
O7	O	0.926933	-0.060905	-0.141697
Zn8	Zn	0.825328	-0.080234	-0.151232
Zn9	Zn	0.825352	0.080193	-0.151243
O10	O	0.820400	-0.060896	-0.316477
C11	C	0.697724	-0.000016	-0.160155
C12	C	0.620209	-0.000014	-0.158300
C13	C	0.066889	0.066350	-0.145065
C14	C	0.139723	0.066353	-0.146801
C15	C	0.176135	-0.000019	-0.147670
C16	C	0.139709	-0.066399	-0.146773
C17	C	0.066877	-0.066400	-0.145025
N18	N	0.285529	-0.049421	-0.214993
N19	N	0.354716	-0.049415	-0.216656
C20	C	0.395573	-0.000020	-0.152933
N21	N	0.364629	0.049381	-0.087499
N22	N	0.295435	0.049377	-0.085841
C23	C	0.255109	-0.000025	-0.149564
C24	C	0.510966	0.066359	-0.155704
C25	C	0.583802	0.066359	-0.157434
C26	C	0.583786	-0.066395	-0.157417
C27	C	0.510952	-0.066393	-0.155676
C28	C	0.474546	-0.000014	-0.154825
N29	N	0.825317	-0.189721	-0.151223
C30	C	0.872505	-0.228034	-0.073868
C31	C	0.872510	-0.304679	-0.073863
C32	C	0.825333	-0.343008	-0.151232
C33	C	0.778135	-0.304686	-0.228593
C34	C	0.778128	-0.228042	-0.228588
N35	N	0.816826	-0.463337	-0.251702
N36	N	0.816838	-0.536145	-0.251702
C37	C	0.825352	-0.573930	-0.151248
N38	N	0.833869	-0.536157	-0.050790
N39	N	0.833861	-0.463342	-0.050790
C40	C	0.825336	-0.426115	-0.151245
C41	C	0.872548	-0.695350	-0.073881
C42	C	0.872548	-0.771997	-0.073874
C43	C	0.778176	-0.772002	-0.228614
C44	C	0.778174	-0.695357	-0.228611
C45	C	0.825363	-0.657036	-0.151246
C46	C	0.952956	-0.000023	-0.142319
C47	C	1.030471	-0.000021	-0.144174
C48	C	0.829652	-0.000026	0.056289
C49	C	0.827798	-0.000025	0.182275
N50	N	0.825369	0.189680	-0.151243
C51	C	0.821029	-0.000014	-0.358763
C52	C	0.822883	-0.000010	-0.484749
C53	C	0.824388	-0.000013	0.412936
C54	C	0.826283	-0.000019	0.284579
H55	H	0.481301	-0.120440	-0.154955
H56	H	0.169380	0.120402	-0.147533
H57	H	0.481323	0.120409	-0.155008
N58	N	0.923398	-0.186701	0.009576
H59	H	0.953292	-0.222607	0.058582
H60	H	0.896479	-0.154915	0.059649
N61	N	0.623087	0.137949	-0.158376
H62	H	0.588969	0.179996	-0.157571
H63	H	0.647916	0.140841	-0.229437
H64	H	0.613432	-0.120437	-0.158120
N65	N	0.027594	-0.137989	-0.144063
H66	H	0.061769	-0.180036	-0.144088
H67	H	-0.007688	-0.141101	-0.214079
N68	N	0.178977	-0.137987	-0.147706
H69	H	0.230642	-0.127916	-0.148953
H70	H	0.160846	-0.166972	-0.217737
H71	H	0.739700	-0.196848	-0.291581
N72	N	0.923406	-0.346014	0.009576
H73	H	0.953297	-0.310108	0.058588
H74	H	0.954432	-0.377801	-0.033763
H75	H	0.739722	-0.335897	-0.291586
N76	N	0.923440	-0.654011	0.009560
H77	H	0.953332	-0.689915	0.058573
H78	H	0.896522	-0.622220	0.059628
H79	H	0.910972	-0.803191	-0.010877
H80	H	0.037252	0.120401	-0.144368
N81	N	0.727286	-0.813332	-0.312056
H82	H	0.734448	-0.867699	-0.300320
H83	H	0.735649	-0.799926	-0.392540
H84	H	0.739751	-0.664161	-0.291605
