data_functionalizedCrystal
_audit_creation_method	'MofGen! by Chris Wilmer'
_symmetry_space_group_name_H-M	'P1'
_symmetry_Int_Tables_number	1
_symmetry_cell_setting	triclinic
loop_
_symmetry_equiv_pos_as_xyz
  x,y,z
_cell_length_a	21.395364
_cell_length_b	12.645330
_cell_length_c	21.395355
_cell_angle_alpha	89.985534
_cell_angle_beta	89.975448
_cell_angle_gamma	90.027597
loop_
_atom_site_label
_atom_site_type_symbol
_atom_site_fract_x
_atom_site_fract_y
_atom_site_fract_z
Zn1	Zn	0.957938	-0.421739	-0.354279
Zn2	Zn	1.457938	0.078261	0.145721
Zn3	Zn	0.957873	-0.598988	-0.249509
Zn4	Zn	1.457873	-0.098988	0.250491
Zn5	Zn	0.853153	-0.421786	-0.249516
Zn6	Zn	1.353153	0.078214	0.250484
Zn7	Zn	0.853155	-0.599007	-0.354249
Zn8	Zn	1.353155	-0.099007	0.145751
O9	O	0.905530	-0.510380	-0.301888
O10	O	1.405530	-0.010380	0.198112
O11	O	1.045607	-0.445224	-0.340391
O12	O	1.545607	0.054776	0.159609
O13	O	0.943954	-0.575494	-0.161832
O14	O	1.443954	-0.075494	0.338168
O15	O	0.867079	-0.273432	-0.263428
O16	O	1.367079	0.226568	0.236572
O17	O	1.045560	-0.575449	-0.263417
O18	O	1.545560	-0.075449	0.236583
O19	O	0.944064	-0.273398	-0.340397
O20	O	1.444064	0.226602	0.159603
O21	O	0.867016	-0.445303	-0.161837
O22	O	1.367016	0.054697	0.338163
O23	O	0.765475	-0.445322	-0.263399
O24	O	1.265475	0.054678	0.236601
O25	O	0.867083	-0.575481	-0.441931
O26	O	1.367083	-0.075481	0.058069
O27	O	0.765477	-0.575526	-0.340346
O28	O	1.265477	-0.075526	0.159654
O29	O	0.944066	-0.445243	-0.441953
O30	O	1.444066	0.054757	0.058047
O31	O	0.943956	-0.747338	-0.263388
O32	O	1.443956	-0.247338	0.236612
O33	O	0.867020	-0.747352	-0.340340
O34	O	1.367020	-0.247352	0.159660
C35	C	0.742742	-0.510432	-0.301871
C36	C	1.242742	-0.010432	0.198129
C37	C	0.673101	-0.510479	-0.301878
C38	C	1.173101	-0.010479	0.198122
C39	C	0.640435	-0.442783	-0.342020
C40	C	1.140435	0.057217	0.157980
C41	C	0.574999	-0.442754	-0.342023
C42	C	1.074999	0.057246	0.157977
C43	C	0.542233	-0.510442	-0.301889
C44	C	1.042233	-0.010442	0.198111
C45	C	0.574907	-0.578143	-0.261739
C46	C	1.074907	-0.078143	0.238261
C47	C	0.640341	-0.578162	-0.261734
C48	C	1.140341	-0.078162	0.238266
C49	C	0.438526	-0.605910	-0.296856
C50	C	0.938526	-0.105910	0.203144
C51	C	0.373093	-0.605893	-0.296866
C52	C	0.873093	-0.105893	0.203134
C53	C	0.340412	-0.510383	-0.301903
C54	C	0.840412	-0.010383	0.198097
C55	C	0.373172	-0.414888	-0.306944
C56	C	0.873172	0.085112	0.193056
C57	C	0.438606	-0.414907	-0.306938
C58	C	0.938606	0.085093	0.193062
C59	C	0.471280	-0.510429	-0.301891
C60	C	0.971280	-0.010429	0.198109
C61	C	0.236793	-0.442650	-0.342051
C62	C	0.736793	0.057350	0.157949
C63	C	0.171357	-0.442620	-0.342049
C64	C	0.671357	0.057380	0.157951
C65	C	0.171265	-0.578019	-0.261768
C66	C	0.671265	-0.078019	0.238232
C67	C	0.236700	-0.578039	-0.261767
C68	C	0.736700	-0.078039	0.238233
C69	C	0.269461	-0.510357	-0.301911
C70	C	0.769461	-0.010357	0.198089
C71	C	0.905498	-0.785810	-0.301874
C72	C	1.405498	-0.285810	0.198126
C73	C	0.905542	-0.903640	-0.301888
C74	C	1.405542	-0.403640	0.198112
C75	C	0.953865	-1.071151	-0.253379
C76	C	1.453865	-0.571151	0.246621
C77	C	0.954022	-0.948591	-0.253498
C78	C	1.454022	-0.448591	0.246502
C79	C	0.923453	-0.948039	-0.367933
C80	C	1.423453	-0.448039	0.132067
C81	C	0.923836	-1.070636	-0.367675
C82	C	1.423836	-0.570636	0.132325
C83	C	0.839290	-1.070990	-0.285003
C84	C	1.339290	-0.570990	0.214997
C85	C	0.839607	-0.948385	-0.283522
C86	C	1.339607	-0.448385	0.216478
C87	C	1.068953	-0.510329	-0.301906
C88	C	1.568953	-0.010329	0.198094
C89	C	1.138594	-0.510307	-0.301914
C90	C	1.638594	-0.010307	0.198086
C91	C	0.905582	-0.510359	-0.465312
C92	C	1.405582	-0.010359	0.034688
C93	C	0.905604	-0.510349	-0.534953
C94	C	1.405604	-0.010349	-0.034953
C95	C	0.905578	-0.233875	-0.301917
C96	C	1.405578	0.266125	0.198083
C97	C	0.905599	-0.116045	-0.301929
C98	C	1.405599	0.383955	0.198071
C99	C	0.945687	-0.442532	-0.567679
C100	C	1.445687	0.057468	-0.067679
C101	C	0.945687	-0.442486	-0.633114
C102	C	1.445687	0.057514	-0.133114
C103	C	0.905609	-0.510277	-0.665821
C104	C	1.405609	-0.010277	-0.165821
C105	C	0.865517	-0.578100	-0.633088
C106	C	1.365517	-0.078100	-0.133088
C107	C	0.865515	-0.578136	-0.567654
C108	C	1.365515	-0.078136	-0.067654
C109	C	0.900651	-0.605732	-0.769491
C110	C	1.400651	-0.105732	-0.269491
C111	C	0.900657	-0.605697	-0.834924
C112	C	1.400657	-0.105697	-0.334924
C113	C	0.905613	-0.510165	-0.867642
C114	C	1.405613	-0.010165	-0.367642
C115	C	0.910574	-0.414664	-0.834919
C116	C	1.410574	0.085336	-0.334919
C117	C	0.910572	-0.414701	-0.769485
C118	C	1.410572	0.085299	-0.269485
C119	C	0.905607	-0.510245	-0.736774
C120	C	1.405607	-0.010245	-0.236774
C121	C	0.945697	-0.442292	-0.971320
C122	C	1.445697	0.057708	-0.471320
C123	C	0.945692	-0.442245	-1.036757
C124	C	1.445692	0.057755	-0.536757
C125	C	0.865526	-0.577868	-1.036730
C126	C	1.365526	-0.077868	-0.536730
C127	C	0.865528	-0.577906	-0.971294
C128	C	1.365528	-0.077906	-0.471294
C129	C	0.905617	-0.510120	-0.938594
C130	C	1.405617	-0.010120	-0.438594
C131	C	0.905514	-0.510325	-0.139101
C132	C	1.405514	-0.010325	0.360899
C133	C	0.905613	-0.510035	-0.069460
C134	C	1.405613	-0.010035	0.430540
H135	H	0.548224	-0.633254	-0.229062
H136	H	1.048224	-0.133254	0.270938
O137	O	0.895310	-0.708700	-0.870212
O138	O	1.395310	-0.208700	-0.370212
H139	H	0.896154	-0.692629	-0.921208
H140	H	1.396154	-0.192629	-0.421208
H141	H	0.144761	-0.387487	-0.374736
H142	H	0.644761	0.112513	0.125264
O143	O	0.822287	-0.651218	-0.668359
O144	O	1.322287	-0.151218	-0.168359
H145	H	0.829026	-0.639806	-0.719358
H146	H	1.329026	-0.139806	-0.219358
H147	H	0.465276	-0.337151	-0.311040
H148	H	0.965276	0.162849	0.188960
H149	H	0.346425	-0.683651	-0.292765
H150	H	0.846425	-0.183651	0.207235
H151	H	1.002714	-1.101864	-0.264449
H152	H	1.502714	-0.601864	0.235551
H153	H	1.003135	-0.919165	-0.264693
H154	H	1.503135	-0.419165	0.235307
H155	H	0.978330	-0.387333	-0.541058
H156	H	1.478330	0.112667	-0.041058
H157	H	0.465130	-0.683691	-0.292753
H158	H	0.965130	-0.183691	0.207247
H159	H	0.832871	-0.633360	-0.541009
H160	H	1.332871	-0.133360	-0.041009
O161	O	0.895305	-0.708777	-0.734204
O162	O	1.395305	-0.208777	-0.234204
H163	H	0.852856	-0.707126	-0.704381
H164	H	1.352856	-0.207126	-0.204381
H165	H	0.890222	-1.100332	-0.405095
H166	H	1.390222	-0.600332	0.094905
O167	O	0.675771	-0.369766	-0.385305
O168	O	1.175771	0.130234	0.114695
H169	H	0.642058	-0.322677	-0.413213
H170	H	1.142058	0.177323	0.086787
H171	H	0.914610	-0.336941	-0.742845
H172	H	1.414610	0.163059	-0.242845
H173	H	0.972305	-1.099133	-0.382013
H174	H	1.472305	-0.599133	0.117987
H175	H	0.823003	-1.101989	-0.237682
H176	H	1.323003	-0.601989	0.262318
H177	H	0.666937	-0.633291	-0.229044
H178	H	1.166937	-0.133291	0.270956
H179	H	0.826103	-0.919377	-0.234919
H180	H	1.326103	-0.419377	0.265081
H181	H	0.942816	-0.918574	-0.204527
H182	H	1.442816	-0.418574	0.295473
H183	H	0.263297	-0.633170	-0.229081
H184	H	0.763297	-0.133170	0.270919
H185	H	0.346564	-0.337115	-0.311046
H186	H	0.846564	0.162885	0.188954
O187	O	0.939586	-1.111120	-0.188416
O188	O	1.439586	-0.611120	0.311584
H189	H	0.897887	-1.163298	-0.190021
H190	H	1.397887	-0.663298	0.309979
H191	H	0.548397	-0.387622	-0.374711
H192	H	1.048397	0.112378	0.125289
O193	O	0.878314	-0.909467	-0.417140
O194	O	1.378314	-0.409467	0.082860
H195	H	0.842551	-0.858117	-0.394993
H196	H	1.342551	-0.358117	0.105007
O197	O	0.988926	-0.369347	-0.668423
O198	O	1.488926	0.130653	-0.168423
H199	H	1.016805	-0.322223	-0.634691
H200	H	1.516805	0.177777	-0.134691
O201	O	0.791676	-1.109673	-0.331801
O202	O	1.291676	-0.609673	0.168199
H203	H	0.805040	-1.082432	-0.379284
H204	H	1.305040	-0.582432	0.120716
O205	O	0.272133	-0.369637	-0.385337
O206	O	0.772133	0.130363	0.114663
H207	H	0.259587	-0.387922	-0.434494
H208	H	0.759587	0.112078	0.065506
O209	O	0.135935	-0.651029	-0.218479
O210	O	0.635935	-0.151029	0.281521
H211	H	0.084945	-0.639647	-0.225229
H212	H	0.584945	-0.139647	0.274771
H213	H	0.971374	-0.917235	-0.382509
H214	H	1.471374	-0.417235	0.117491
O215	O	0.789396	-0.907869	-0.326922
O216	O	1.289396	-0.407869	0.173078
H217	H	0.800148	-0.932705	-0.375503
H218	H	1.300148	-0.432705	0.124497
O219	O	0.915902	-0.311611	-0.870196
O220	O	1.415902	0.188389	-0.370196
H221	H	0.915057	-0.327623	-0.921194
H222	H	1.415057	0.172377	-0.421194
O223	O	0.988926	-0.369173	-0.936043
O224	O	1.488926	0.130827	-0.436043
H225	H	1.016792	-0.321992	-0.969795
H226	H	1.516792	0.178008	-0.469795
O227	O	0.988928	-0.369097	-1.072059
O228	O	1.488928	0.130903	-0.572059
H229	H	1.016806	-0.321979	-1.038324
H230	H	1.516806	0.178021	-0.538324
O231	O	0.822293	-0.650984	-1.071995
O232	O	1.322293	-0.150984	-0.571995
H233	H	0.850324	-0.704902	-1.101818
H234	H	1.350324	-0.204902	-0.601818
O235	O	0.822278	-0.651024	-0.935991
O236	O	1.322278	-0.151024	-0.435991
H237	H	0.794404	-0.698149	-0.969725
H238	H	1.294404	-0.198149	-0.469725
