data_functionalizedCrystal
_audit_creation_method	'MofGen! by Chris Wilmer'
_symmetry_space_group_name_H-M	'P1'
_symmetry_Int_Tables_number	1
_symmetry_cell_setting	triclinic
loop_
_symmetry_equiv_pos_as_xyz
  x,y,z
_cell_length_a	16.974800
_cell_length_b	10.654555
_cell_length_c	16.053802
_cell_angle_alpha	92.593161
_cell_angle_beta	91.074188
_cell_angle_gamma	83.938478
loop_
_atom_site_label
_atom_site_type_symbol
_atom_site_fract_x
_atom_site_fract_y
_atom_site_fract_z
O1	O	1.049956	0.160085	0.001545
O2	O	0.820600	0.179310	-0.013959
O3	O	0.940547	-0.013096	-0.005850
O4	O	0.930009	0.352491	-0.006563
O5	O	0.933944	-0.002550	0.132562
O6	O	0.813998	0.189857	0.124454
O7	O	1.043354	0.170632	0.139958
Zn8	Zn	0.927627	0.181919	0.154182
Zn9	Zn	0.936326	0.168023	-0.028183
O10	O	0.923407	0.363038	0.131850
C11	C	0.787931	0.183659	0.053262
C12	C	0.700423	0.180890	0.047347
C13	C	0.655717	0.185335	0.120018
C14	C	0.573496	0.182713	0.114462
C15	C	0.535981	0.175655	0.036234
C16	C	0.580693	0.171206	-0.036443
C17	C	0.662913	0.173819	-0.030886
C18	C	0.290464	0.167215	0.011525
C19	C	0.208237	0.164607	0.005974
C20	C	0.201046	0.176112	0.156880
C21	C	0.283268	0.178732	0.162429
C22	C	0.327973	0.174276	0.089752
N23	N	0.451937	0.172979	0.030553
N24	N	0.412016	0.176943	0.095434
C25	C	0.936470	-0.054613	0.063302
C26	C	0.934150	-0.194031	0.063140
C27	C	0.922597	-0.444517	0.213753
C28	C	0.920084	-0.373265	0.289277
C29	C	0.922261	-0.242269	0.289424
C30	C	0.926948	-0.182523	0.214039
C31	C	0.929461	-0.253775	0.138516
C32	C	0.927286	-0.384774	0.138377
C33	C	0.936663	-0.265284	-0.012384
C34	C	0.934492	-0.396281	-0.012532
C35	C	0.941350	-0.205537	-0.087768
C36	C	0.943868	-0.276791	-0.163293
C37	C	0.941692	-0.407795	-0.163437
C38	C	0.937004	-0.467533	-0.088056
C39	C	1.076023	0.166283	0.072735
C40	C	1.163531	0.169052	0.078645
C41	C	0.927484	0.404554	0.062696
C42	C	0.929804	0.543973	0.062852
N43	N	0.921696	0.191402	0.278641
N44	N	0.942264	0.158530	-0.152642
C45	C	0.972753	0.109562	0.325787
C46	C	0.968611	0.116207	0.412913
C47	C	0.913417	0.204699	0.452894
C48	C	0.862355	0.286543	0.405742
C49	C	0.866493	0.279891	0.318616
C50	C	0.895340	0.233721	0.713081
C51	C	0.891207	0.240370	0.800213
C52	C	0.997463	0.070032	0.807379
C53	C	1.001600	0.063393	0.720252
C54	C	0.950535	0.145232	0.673107
N55	N	0.909184	0.211497	0.541951
N56	N	0.954765	0.138427	0.584051
H57	H	0.164638	0.179737	0.216049
H58	H	0.537101	0.186312	0.173639
H59	H	0.326854	0.163583	-0.047654
O60	O	1.052538	-0.018233	0.858226
H61	H	1.042762	-0.117454	0.840794
H62	H	0.313807	0.184473	0.226131
O63	O	0.929351	-0.041248	0.214170
H64	H	0.877875	0.001865	0.178003
O65	O	0.802827	0.382001	0.448857
H66	H	0.762350	0.332015	0.485966
O67	O	0.943763	-0.064262	-0.087604
H68	H	0.947463	-0.034694	-0.152708
H69	H	0.935236	-0.574197	-0.088166
H70	H	0.947679	-0.228133	-0.224665
O71	O	0.944398	-0.484635	-0.244900
H72	H	0.942092	-0.585763	-0.232342
H73	H	0.824917	0.346532	0.280231
H74	H	0.686255	0.191092	0.183720
O75	O	0.915035	-0.437722	0.370577
H76	H	0.860100	-0.398828	0.403160
O77	O	0.167773	0.156982	-0.078406
H78	H	0.178727	0.240233	-0.113971
O79	O	0.540236	0.163598	-0.120821
H80	H	0.475551	0.162543	-0.112478
H81	H	0.699312	0.170201	-0.090063
H82	H	1.017701	0.037508	0.293241
H83	H	0.920832	-0.551182	0.213641
O84	O	1.023693	0.027961	0.463767
H85	H	1.062780	-0.034672	0.421330
O86	O	1.061140	-0.032054	0.677145
H87	H	1.101623	0.017955	0.640059
O88	O	0.831664	0.335804	0.843339
H89	H	0.796843	0.391584	0.795920
O90	O	0.919557	-0.165407	0.370878
H91	H	0.915938	-0.228954	0.423274
H92	H	0.853763	0.300360	0.674703
