data_functionalizedCrystal
_audit_creation_method	'MofGen! by Chris Wilmer'
_symmetry_space_group_name_H-M	'P1'
_symmetry_Int_Tables_number	1
_symmetry_cell_setting	triclinic
loop_
_symmetry_equiv_pos_as_xyz
  x,y,z
_cell_length_a	13.033748
_cell_length_b	13.032721
_cell_length_c	13.032268
_cell_angle_alpha	76.710373
_cell_angle_beta	76.702071
_cell_angle_gamma	103.361838
loop_
_atom_site_label
_atom_site_type_symbol
_atom_site_fract_x
_atom_site_fract_y
_atom_site_fract_z
Zn1	Zn	1.506748	-0.279639	0.435246
Zn2	Zn	2.006748	0.220361	0.935246
Zn3	Zn	1.506630	-0.434741	0.280212
Zn4	Zn	2.006630	0.065259	0.780212
Zn5	Zn	1.351689	-0.279717	0.280199
Zn6	Zn	1.851689	0.220283	0.780199
Zn7	Zn	1.298873	-0.487472	0.487944
Zn8	Zn	1.798873	0.012528	0.987944
O9	O	1.415985	-0.370393	0.370900
O10	O	1.915985	0.129607	0.870900
O11	O	1.658572	-0.278113	0.392632
O12	O	2.158572	0.221887	0.892632
O13	O	1.508131	-0.392141	0.128385
O14	O	2.008131	0.107859	0.628385
O15	O	1.394412	-0.127850	0.278707
O16	O	1.894412	0.372150	0.778707
O17	O	1.658485	-0.392066	0.278729
O18	O	2.158485	0.107934	0.778729
O19	O	1.508333	-0.127793	0.392620
O20	O	2.008333	0.372207	0.892620
O21	O	1.394297	-0.278246	0.128376
O22	O	1.894297	0.221754	0.628376
O23	O	1.192844	-0.329377	0.329805
O24	O	1.692844	0.170623	0.829805
O25	O	1.304394	-0.481939	0.632778
O26	O	1.804394	0.018061	1.132778
O27	O	1.154040	-0.482014	0.482435
O28	O	1.654040	0.017986	0.982435
O29	O	1.457119	-0.329245	0.594062
O30	O	1.957119	0.170755	1.094062
O31	O	1.456917	-0.593593	0.329827
O32	O	1.956917	-0.093593	0.829827
O33	O	1.304279	-0.632334	0.482447
O34	O	1.804279	-0.132334	0.982447
C35	C	1.134071	-0.411427	0.411838
C36	C	1.634071	0.088573	0.911838
C37	C	1.013460	-0.429011	0.429381
C38	C	1.513460	0.070989	0.929381
C39	C	0.978858	-0.361246	0.361775
C40	C	1.478858	0.138754	0.861775
C41	C	0.854200	-0.379419	0.379905
C42	C	1.354200	0.120581	0.879905
C43	C	1.374880	-0.652338	0.411876
C44	C	1.874880	-0.152338	0.911876
C45	C	1.357389	-0.772946	0.429428
C46	C	1.857389	-0.272946	0.929428
C47	C	1.425164	-0.807512	0.361780
C48	C	1.925164	-0.307512	0.861780
C49	C	1.407088	-0.932167	0.379919
C50	C	1.907088	-0.432167	0.879919
C51	C	1.699000	-0.329199	0.329803
C52	C	2.199000	0.170801	0.829803
C53	C	1.819603	-0.311645	0.312290
C54	C	2.319603	0.188355	0.812290
C55	C	1.374878	-0.411465	0.653887
C56	C	1.874878	0.088535	1.153887
C57	C	1.357361	-0.428968	0.774479
C58	C	1.857361	0.071032	1.274479
C59	C	1.457277	-0.087346	0.329784
C60	C	1.957277	0.412654	0.829784
C61	C	1.474873	0.033272	0.312262
C62	C	1.974873	0.533272	0.812262
C63	C	1.457006	-0.329392	0.088994
C64	C	1.957006	0.170608	0.588994
C65	C	1.474778	-0.311553	-0.031673
C66	C	1.974778	0.188447	0.468327
C67	C	1.425116	-0.361221	0.809087
C68	C	1.925116	0.138779	1.309087
C69	C	1.407013	-0.379309	0.933725
C70	C	1.907013	0.120691	1.433725
H71	H	0.791539	-0.450897	0.451209
H72	H	1.291539	0.049103	0.951209
H73	H	1.285985	-0.835637	0.500776
H74	H	1.785985	-0.335637	1.000776
N75	N	0.902592	-0.216971	0.217828
N76	N	1.402592	0.283029	0.717828
H77	H	0.979880	-0.217407	0.218262
H78	H	1.479880	0.282593	0.718262
H79	H	0.891664	-0.144823	0.226434
H80	H	1.391664	0.355177	0.726434
N81	N	1.312420	-0.473889	1.016692
N82	N	1.812420	0.026111	1.516692
H83	H	1.269691	-0.516616	0.976473
H84	H	1.769691	-0.016616	1.476473
H85	H	1.261868	-0.443801	1.064572
H86	H	1.761868	0.056199	1.564572
H87	H	1.546189	-0.240151	0.905687
H88	H	2.046189	0.259849	1.405687
H89	H	1.546289	-0.904040	0.240916
H90	H	2.046289	-0.404040	0.740916
N91	N	1.519718	-0.266666	0.726109
N92	N	2.019718	0.233334	1.226109
H93	H	1.511358	-0.194406	0.736935
H94	H	2.011358	0.305594	1.236935
H95	H	1.519181	-0.267265	0.648877
H96	H	2.019181	0.232735	1.148877
N97	N	1.519757	-0.724475	0.267281
N98	N	2.019757	-0.224475	0.767281
H99	H	1.489774	-0.676632	0.216580
H100	H	1.989774	-0.176632	0.716580
H101	H	1.562473	-0.764744	0.224711
H102	H	2.062473	-0.264744	0.724711
N103	N	0.930467	-0.523692	0.523825
N104	N	1.430467	-0.023692	1.023825
H105	H	0.853179	-0.523255	0.523387
H106	H	1.353179	-0.023255	1.023387
H107	H	0.941412	-0.515313	0.596048
H108	H	1.441412	-0.015313	1.096048
H109	H	1.285944	-0.500353	0.837123
H110	H	1.785944	-0.000353	1.337123
N111	N	1.061846	-0.266571	0.267322
N112	N	1.561846	0.233429	0.767322
H113	H	1.109747	-0.296480	0.216580
H114	H	1.609747	0.203520	0.716580
H115	H	1.109691	-0.215989	0.297492
H116	H	1.609691	0.284011	0.797492
N117	N	1.312497	-1.015193	0.474436
N118	N	1.812497	-0.515193	0.974436
H119	H	1.312992	-1.092473	0.473998
H120	H	1.812992	-0.592473	0.973998
H121	H	1.240311	-1.004343	0.465894
H122	H	1.740311	-0.504343	0.965894
