data_functionalizedCrystal
_audit_creation_method	'MofGen! by Chris Wilmer'
_symmetry_space_group_name_H-M	'P1'
_symmetry_Int_Tables_number	1
_symmetry_cell_setting	triclinic
loop_
_symmetry_equiv_pos_as_xyz
  x,y,z
_cell_length_a	10.654562
_cell_length_b	10.489716
_cell_length_c	9.130313
_cell_angle_alpha	90.002761
_cell_angle_beta	89.996930
_cell_angle_gamma	84.509620
loop_
_atom_site_label
_atom_site_type_symbol
_atom_site_fract_x
_atom_site_fract_y
_atom_site_fract_z
O1	O	1.667893	0.179235	-0.121881
O2	O	1.302423	0.196288	-0.121862
O3	O	1.493490	0.002158	-0.121877
O4	O	1.476826	0.373365	-0.121866
O5	O	1.493488	0.002163	0.121722
O6	O	1.302421	0.196293	0.121737
O7	O	1.667891	0.179241	0.121717
Cu8	Cu	1.485156	0.187767	0.143970
Cu9	Cu	1.485158	0.187761	-0.144114
O10	O	1.476824	0.373370	0.121733
C11	C	1.255624	0.195035	-0.000060
C12	C	1.116180	0.191279	-0.000053
C13	C	1.050647	0.189530	0.132721
C14	C	0.919624	0.186011	0.132696
C15	C	0.919676	0.185995	-0.132888
C16	C	1.050699	0.189505	-0.132862
C17	C	1.116129	0.191303	0.265530
C18	C	1.050596	0.189556	0.398315
C19	C	0.919572	0.186036	0.398290
C20	C	0.854081	0.184265	0.265481
C21	C	1.492237	-0.045371	-0.000082
C22	C	1.488491	-0.187000	-0.000095
C23	C	1.605659	-0.284725	-0.000088
C24	C	1.543746	-0.362061	-0.120188
C25	C	1.543717	-0.362020	0.119981
C26	C	1.426627	-0.262471	-0.120294
C27	C	1.426615	-0.262424	0.119983
C28	C	1.364615	-0.339711	-0.000146
C29	C	1.714690	0.180493	-0.000088
C30	C	1.854134	0.184250	-0.000104
C31	C	1.478077	0.420899	-0.000065
C32	C	1.481823	0.562529	-0.000062
N33	N	1.485163	0.187771	0.346592
N34	N	1.485161	0.187748	-0.346737
C35	C	1.569789	0.101840	0.423237
C36	C	1.569786	0.101825	0.576574
C37	C	1.400526	0.273683	0.576607
C38	C	1.400524	0.273691	0.423273
C39	C	1.654428	0.015920	0.346556
C40	C	1.739063	-0.070017	0.423202
C41	C	1.739059	-0.070033	0.576539
C42	C	1.654421	0.015889	0.653230
H43	H	0.747394	0.181396	0.265472
Br44	Br	0.830798	0.183577	-0.313118
Br45	Br	1.194622	-0.380362	-0.000235
H46	H	1.654417	0.015861	0.778087
Br47	Br	1.344272	-0.189814	0.289237
Br48	Br	1.285663	0.390308	0.319250
H49	H	1.331618	0.343638	0.639060
H50	H	1.104056	0.190936	-0.240979
Br51	Br	1.293944	0.196094	0.265571
H52	H	1.103928	0.190988	0.506443
Br53	Br	1.626191	-0.434511	0.289210
H54	H	0.866220	0.184603	0.506410
H55	H	1.707576	-0.260093	-0.000216
H56	H	1.593208	-0.405580	-0.221732
H57	H	1.654441	0.015927	0.221702
H58	H	1.377193	-0.219148	-0.221942
Br59	Br	1.853907	-0.186635	0.319127
Br60	Br	1.853903	-0.186671	0.680557
