data_functionalizedCrystal
_audit_creation_method	'MofGen! by Chris Wilmer'
_symmetry_space_group_name_H-M	'P1'
_symmetry_Int_Tables_number	1
_symmetry_cell_setting	triclinic
loop_
_symmetry_equiv_pos_as_xyz
  x,y,z
_cell_length_a	12.594517
_cell_length_b	12.594516
_cell_length_c	12.594510
_cell_angle_alpha	90.036961
_cell_angle_beta	90.021120
_cell_angle_gamma	90.013323
loop_
_atom_site_label
_atom_site_type_symbol
_atom_site_fract_x
_atom_site_fract_y
_atom_site_fract_z
Zn1	Zn	-1.627283	0.423651	-0.601841
Zn2	Zn	-1.627183	0.601681	-0.423854
Zn3	Zn	-1.449288	0.423716	-0.423870
Zn4	Zn	-1.449277	0.601588	-0.601784
O5	O	-1.538258	0.512659	-0.512837
O6	O	-1.776216	0.447279	-0.578248
O7	O	-1.603547	0.578139	-0.274910
O8	O	-1.472946	0.274762	-0.447508
O9	O	-1.776142	0.578077	-0.447482
O10	O	-1.603719	0.274714	-0.578263
O11	O	-1.472848	0.447389	-0.274922
O12	O	-1.300341	0.447299	-0.447453
O13	O	-1.472928	0.577918	-0.750738
O14	O	-1.300333	0.577981	-0.578166
O15	O	-1.603708	0.447189	-0.750779
O16	O	-1.603537	0.750614	-0.447427
O17	O	-1.472830	0.750546	-0.578151
C18	C	-1.261717	0.512638	-0.512806
C19	C	-1.143412	0.512654	-0.512818
C20	C	-1.538328	0.512536	-0.790458
C21	C	-1.538358	0.512484	-0.908764
C22	C	-1.538200	0.789200	-0.512804
C23	C	-1.538273	0.907505	-0.512826
C24	C	-1.815879	0.512681	-0.512869
C25	C	-1.934184	0.512691	-0.512883
C26	C	-1.074132	0.441479	-0.441858
C27	C	-1.003325	0.538571	-0.415674
C28	C	-1.003419	0.415610	-0.539020
C29	C	-1.074163	0.609797	-0.486582
C30	C	-1.074263	0.486770	-0.609974
C31	C	-1.003489	0.583929	-0.583826
C32	C	-1.538345	0.235038	-0.512893
C33	C	-1.538382	0.116733	-0.512917
C34	C	-1.609495	1.047520	-0.441849
C35	C	-1.512365	0.976839	-0.415690
C36	C	-1.635391	0.976616	-0.538936
C37	C	-1.441201	1.047609	-0.486709
C38	C	-1.564293	1.047392	-0.610001
C39	C	-1.467097	0.976742	-0.583879
C40	C	-1.609511	0.441375	-0.978040
C41	C	-1.512434	0.415322	-1.048832
C42	C	-1.635492	0.538462	-1.048771
C43	C	-1.441229	0.486381	-0.977998
C44	C	-1.564353	0.609566	-0.977931
C45	C	-1.467209	0.583550	-1.048691
C46	C	-1.538249	0.512705	-0.236296
C47	C	-1.538425	0.512457	-0.117991
H48	H	-1.105150	0.381348	-0.381777
O49	O	-1.395286	0.940023	-0.655665
C50	C	-1.421967	0.977545	-0.757691
H51	H	-1.472217	1.052434	-0.750073
H52	H	-1.468955	0.914024	-0.801934
C53	C	-1.258039	0.911194	-0.829024
C54	C	-1.319750	1.003180	-0.819666
H55	H	-1.194988	0.927002	-0.867256
H56	H	-1.240065	0.885911	-0.760288
H57	H	-1.297208	0.858268	-0.865890
H58	H	-1.280586	1.056098	-0.782790
H59	H	-1.337715	1.028472	-0.888398
O60	O	-0.966659	0.655684	-0.655571
C61	C	-0.905093	0.602986	-0.732806
H62	H	-0.929034	0.515751	-0.736148
H63	H	-0.817454	0.609447	-0.711051
C64	C	-0.894482	0.761677	-0.837942
C65	C	-0.923893	0.654535	-0.842053
H66	H	-0.906074	0.793477	-0.905330
H67	H	-0.935957	0.797182	-0.785906
H68	H	-0.821451	0.767047	-0.819808
H69	H	-0.996925	0.649168	-0.860173
H70	H	-0.882430	0.619030	-0.894095
H71	H	-1.717609	0.560444	-1.079862
O72	O	-1.395238	0.655156	-1.085427
C73	C	-1.293040	0.627372	-1.049148
H74	H	-1.291038	0.539067	-1.029431
H75	H	-1.273232	0.675359	-0.974954
C76	C	-1.213325	0.759944	-1.160593
C77	C	-1.210863	0.651484	-1.136385
H78	H	-1.162632	0.774821	-1.214402
H79	H	-1.282177	0.778666	-1.185033
H80	H	-1.196821	0.799920	-1.098758
H81	H	-1.227379	0.611511	-1.198217
H82	H	-1.142011	0.632756	-1.111958
H83	H	-1.586347	0.691655	-0.946766
H84	H	-1.105447	0.464825	-0.692084
H85	H	-0.972167	0.560486	-0.333539
H86	H	-0.972289	0.333537	-0.561119
H87	H	-1.490395	0.945843	-0.333549
O88	O	-1.486064	0.317439	-1.086065
C89	C	-1.392888	0.324784	-1.147646
H90	H	-1.346473	0.398653	-1.123427
H91	H	-1.414995	0.330343	-1.235252
C92	C	-1.380949	0.134784	-1.159036
C93	C	-1.323937	0.225507	-1.129283
H94	H	-1.338418	0.073544	-1.147714
H95	H	-1.443725	0.129835	-1.117551
H96	H	-1.399368	0.139431	-1.232040
H97	H	-1.305531	0.220865	-1.056278
H98	H	-1.261155	0.230453	-1.170755
H99	H	-1.669604	1.078597	-0.381741
O100	O	-1.111197	0.707744	-0.460206
C101	C	-1.173586	0.747826	-0.544061
H102	H	-1.204547	0.679087	-0.594219
H103	H	-1.123205	0.802515	-0.595639
C104	C	-1.229944	0.895016	-0.436629
C105	C	-1.267978	0.810588	-0.498228
H106	H	-1.288167	0.933735	-0.408359
H107	H	-1.187908	0.868015	-0.380135
H108	H	-1.187960	0.940578	-0.479620
H109	H	-1.309950	0.765020	-0.455234
H110	H	-1.310024	0.837583	-0.554714
O111	O	-1.343252	1.084767	-0.460442
C112	C	-1.303237	1.147040	-0.544378
H113	H	-1.372015	1.177858	-0.594501
H114	H	-1.248561	1.096611	-0.595964
C115	C	-1.156005	1.203703	-0.437112
C116	C	-1.240480	1.241562	-0.498669
H117	H	-1.117289	1.262007	-0.408919
H118	H	-1.182961	1.161746	-0.380564
H119	H	-1.110453	1.161679	-0.480110
H120	H	-1.286037	1.283574	-0.455668
H121	H	-1.213530	1.283529	-0.555210
O122	O	-1.343161	0.460062	-0.941254
C123	C	-1.274606	0.441620	-1.027797
H124	H	-1.306056	0.484712	-1.100898
H125	H	-1.270456	0.352772	-1.044657
C126	C	-1.124211	0.430359	-0.911024
C127	C	-1.162835	0.483292	-1.000806
H128	H	-1.055265	0.456059	-0.894375
H129	H	-1.170398	0.442779	-0.852718
H130	H	-1.120763	0.356322	-0.925086
H131	H	-1.166296	0.557325	-0.986739
H132	H	-1.116646	0.470885	-1.059110
H133	H	-1.586292	1.078410	-0.692118
H134	H	-1.717476	0.945433	-0.560981
H135	H	-1.669576	0.381206	-0.947014
