data_functionalizedCrystal
_audit_creation_method	'MofGen! by Chris Wilmer'
_symmetry_space_group_name_H-M	'P1'
_symmetry_Int_Tables_number	1
_symmetry_cell_setting	triclinic
loop_
_symmetry_equiv_pos_as_xyz
  x,y,z
_cell_length_a	12.645331
_cell_length_b	12.645330
_cell_length_c	12.645323
_cell_angle_alpha	90.023971
_cell_angle_beta	89.981990
_cell_angle_gamma	89.973403
loop_
_atom_site_label
_atom_site_type_symbol
_atom_site_fract_x
_atom_site_fract_y
_atom_site_fract_z
Zn1	Zn	1.620669	0.422019	-0.599321
Zn2	Zn	2.120669	0.922019	-0.099321
Zn3	Zn	1.620524	0.599307	-0.422064
Zn4	Zn	2.120524	1.099307	0.077936
Zn5	Zn	1.443383	0.422060	-0.422080
Zn6	Zn	1.943383	0.922060	0.077920
Zn7	Zn	1.443339	0.599243	-0.599294
Zn8	Zn	1.943339	1.099243	-0.099294
O9	O	1.531979	0.510657	-0.510689
O10	O	2.031979	1.010657	-0.010689
O11	O	1.768997	0.445547	-0.575812
O12	O	2.268997	0.945547	-0.075812
O13	O	1.596984	0.575839	-0.273719
O14	O	2.096984	1.075839	0.226281
O15	O	1.466980	0.273707	-0.445609
O16	O	1.966980	0.773707	0.054391
O17	O	1.768890	0.575800	-0.445582
O18	O	2.268890	1.075800	0.054418
O19	O	1.597230	0.273677	-0.575828
O20	O	2.097230	0.773677	-0.075828
O21	O	1.466839	0.445616	-0.273730
O22	O	1.966839	0.945616	0.226270
O23	O	1.295030	0.445553	-0.445583
O24	O	1.795030	0.945553	0.054417
O25	O	1.466904	0.575690	-0.747645
O26	O	1.966904	1.075690	-0.247645
O27	O	1.294997	0.575729	-0.575781
O28	O	1.794997	1.075729	-0.075781
O29	O	1.597187	0.445484	-0.747665
O30	O	2.097187	0.945484	-0.247665
O31	O	1.596941	0.747646	-0.445556
O32	O	2.096941	1.247646	0.054444
O33	O	1.466764	0.747598	-0.575766
O34	O	1.966764	1.247598	-0.075766
C35	C	1.256549	0.510639	-0.510681
C36	C	1.756549	1.010639	-0.010681
C37	C	1.138719	0.510657	-0.510703
C38	C	1.638719	1.010657	-0.010703
C39	C	1.093852	0.592690	-0.592491
C40	C	1.593852	1.092690	-0.092491
C41	C	0.971292	0.593027	-0.592248
C42	C	1.471292	1.093027	-0.092248
C43	C	0.970761	0.540495	-0.398847
C44	C	1.470761	1.040495	0.101153
C45	C	1.093359	0.541074	-0.399320
C46	C	1.593359	1.041074	0.100680
C47	C	1.093589	0.398611	-0.539794
C48	C	1.593589	0.898611	-0.039794
C49	C	0.970984	0.399230	-0.542257
C50	C	1.470984	0.899230	-0.042257
C51	C	1.531860	0.786087	-0.510679
C52	C	2.031860	1.286087	-0.010679
C53	C	1.531907	0.903917	-0.510710
C54	C	2.031907	1.403917	-0.010710
C55	C	1.450325	1.071495	-0.592880
C56	C	1.950325	1.571495	-0.092880
C57	C	1.449926	0.948936	-0.592614
C58	C	1.949926	1.448936	-0.092614
C59	C	1.501655	0.948511	-0.398991
C60	C	2.001655	1.448511	0.101009
C61	C	1.501139	1.071110	-0.399492
C62	C	2.001139	1.571110	0.100508
C63	C	1.644183	1.071006	-0.539358
C64	C	2.144183	1.571006	-0.039358
C65	C	1.643513	0.948399	-0.541799
C66	C	2.143513	1.448399	-0.041799
C67	C	1.808484	0.510676	-0.510698
C68	C	2.308484	1.010676	-0.010698
C69	C	1.926314	0.510685	-0.510702
C70	C	2.426314	1.010685	-0.010702
C71	C	1.532089	1.234152	-0.510727
C72	C	2.032089	1.734152	-0.010727
C73	C	1.532041	1.116322	-0.510753
C74	C	2.032041	1.616322	-0.010753
C75	C	1.532057	0.510575	-0.787195
C76	C	2.032057	1.010575	-0.287195
C77	C	1.532090	0.510540	-0.905025
C78	C	2.032090	1.010540	-0.405025
C79	C	1.449876	0.592066	-1.072577
C80	C	1.949876	1.092066	-0.572577
C81	C	1.450091	0.592470	-0.950017
C82	C	1.950091	1.092470	-0.450017
C83	C	1.643785	0.540858	-0.949536
C84	C	2.143785	1.040858	-0.449536
C85	C	1.643334	0.541369	-1.072135
C86	C	2.143334	1.041369	-0.572135
C87	C	1.503665	0.398241	-1.072223
C88	C	2.003665	0.898241	-0.572223
C89	C	1.501173	0.398914	-0.949617
C90	C	2.001173	0.898914	-0.449617
C91	C	1.531962	0.510662	-0.235260
C92	C	2.031962	1.010662	0.264740
C93	C	1.532134	0.510399	-0.117430
C94	C	2.032134	1.010399	0.382570
H95	H	0.941242	0.574431	-0.675173
H96	H	1.441242	1.074431	-0.175173
F97	F	1.581975	0.318711	-1.110137
F98	F	2.081975	0.818711	-0.610137
F99	F	0.930960	0.315123	-0.470140
F100	F	1.430960	0.815123	0.029860
F101	F	1.132462	0.568685	-0.701216
F102	F	1.632462	1.068685	-0.201216
H103	H	1.671769	1.101849	-0.619439
H104	H	2.171769	1.601849	-0.119439
F105	F	1.393729	0.369031	-0.911603
F106	F	1.893729	0.869031	-0.411603
F107	F	1.132155	0.466346	-0.316913
F108	F	1.632155	0.966346	0.183087
H109	H	1.668332	0.621988	-0.918847
H110	H	2.168332	1.121988	-0.418847
F111	F	1.573772	0.315176	-0.909598
F112	F	2.073772	0.815176	-0.409598
H113	H	0.941939	0.376742	-0.624576
H114	H	1.441939	0.876742	-0.124576
H115	H	1.122607	0.337498	-0.480229
H116	H	1.622607	0.837498	0.019771
H117	H	1.423636	0.370605	-1.103134
H118	H	1.923636	0.870605	-0.603134
F119	F	1.726113	0.466949	-1.110922
F120	F	2.226113	0.966949	-0.610922
F121	F	1.727299	0.908329	-0.469313
F122	F	2.227299	1.408329	0.030687
F123	F	1.674876	0.648535	-1.109533
F124	F	2.174876	1.148535	-0.609533
F125	F	1.134066	0.700596	-0.567576
F126	F	1.634066	1.200596	-0.067576
F127	F	1.575548	1.109877	-0.316778
F128	F	2.075548	1.609877	0.183222
F129	F	1.673335	0.910298	-0.649266
F130	F	2.173335	1.410298	-0.149266
F131	F	0.930575	0.646363	-0.366155
F132	F	1.430575	1.146363	0.133845
F133	F	1.474664	0.909519	-0.700891
F134	F	1.974664	1.409519	-0.200891
F135	F	1.726044	0.465570	-0.911450
F136	F	2.226044	0.965570	-0.411450
H137	H	1.366804	0.573277	-1.102057
H138	H	1.866804	1.073277	-0.602057
H139	H	0.941627	0.482580	-0.336235
H140	H	1.441627	0.982580	0.163765
F141	F	1.723763	1.108911	-0.461187
F142	F	2.223763	1.608911	0.038813
H143	H	1.367265	0.573498	-0.919921
H144	H	1.867265	1.073498	-0.419921
H145	H	1.121911	0.622964	-0.374732
H146	H	1.621911	1.122964	0.125268
F147	F	0.932897	0.701564	-0.567046
F148	F	1.432897	1.201564	-0.067046
F149	F	1.342341	1.111904	-0.568446
F150	F	1.842341	1.611904	-0.068446
H151	H	1.124549	0.371373	-0.619984
H152	H	1.624549	0.871373	-0.119984
H153	H	1.469071	1.100907	-0.675992
H154	H	1.969071	1.600907	-0.175992
H155	H	1.366798	0.919702	-0.573663
H156	H	1.866798	1.419702	-0.073663
H157	H	1.419163	1.099802	-0.375258
H158	H	1.919163	1.599802	0.124742
H159	H	1.559295	0.919353	-0.336127
H160	H	2.059295	1.419353	0.163873
H161	H	1.420542	0.917901	-0.374319
H162	H	1.920542	1.417901	0.125681
F163	F	1.474149	0.700056	-1.112920
F164	F	1.974149	1.200056	-0.612920
H165	H	1.468883	0.675618	-0.920702
H166	H	1.968883	1.175618	-0.420702
