data_functionalizedCrystal
_audit_creation_method	'MofGen! by Chris Wilmer'
_symmetry_space_group_name_H-M	'P1'
_symmetry_Int_Tables_number	1
_symmetry_cell_setting	triclinic
loop_
_symmetry_equiv_pos_as_xyz
  x,y,z
_cell_length_a	18.215407
_cell_length_b	21.295417
_cell_length_c	18.215399
_cell_angle_alpha	89.965438
_cell_angle_beta	89.983176
_cell_angle_gamma	90.030955
loop_
_atom_site_label
_atom_site_type_symbol
_atom_site_fract_x
_atom_site_fract_y
_atom_site_fract_z
Zn1	Zn	1.125021	-0.250593	-0.416094
Zn2	Zn	1.625021	0.249407	0.083906
Zn3	Zn	1.124924	-0.355869	-0.293019
Zn4	Zn	1.624924	0.144131	0.206981
Zn5	Zn	1.001960	-0.250618	-0.293042
Zn6	Zn	1.501960	0.249382	0.206958
Zn7	Zn	1.001908	-0.355829	-0.416044
Zn8	Zn	1.501908	0.144171	0.083956
O9	O	1.063453	-0.303227	-0.354550
O10	O	1.563453	0.196773	0.145450
O11	O	1.227993	-0.264564	-0.399780
O12	O	1.727993	0.235436	0.100220
O13	O	1.108594	-0.341934	-0.190038
O14	O	1.608594	0.158066	0.309962
O15	O	1.018347	-0.162525	-0.309396
O16	O	1.518347	0.337475	0.190604
O17	O	1.227921	-0.341910	-0.309357
O18	O	1.727921	0.158090	0.190643
O19	O	1.108760	-0.162507	-0.399802
O20	O	1.608760	0.337493	0.100198
O21	O	1.018253	-0.264607	-0.190054
O22	O	1.518253	0.235393	0.309946
O23	O	0.898969	-0.264569	-0.309347
O24	O	1.398969	0.235431	0.190653
O25	O	1.018258	-0.341843	-0.519035
O26	O	1.518258	0.158157	-0.019035
O27	O	0.898930	-0.341867	-0.399716
O28	O	1.398930	0.158133	0.100284
O29	O	1.108709	-0.264526	-0.519072
O30	O	1.608709	0.235474	-0.019072
O31	O	1.108543	-0.443953	-0.309308
O32	O	1.608543	0.056047	0.190692
O33	O	1.018163	-0.443924	-0.399694
O34	O	1.518163	0.056076	0.100306
C35	C	0.872247	-0.303217	-0.354529
C36	C	1.372247	0.196783	0.145471
C37	C	0.790448	-0.303227	-0.354537
C38	C	1.290448	0.196773	0.145463
C39	C	0.602253	-0.343540	-0.401533
C40	C	1.102253	0.156460	0.098467
C41	C	0.525395	-0.343542	-0.401542
C42	C	1.025395	0.156458	0.098458
C43	C	0.525405	-0.262927	-0.307582
C44	C	1.025405	0.237073	0.192418
C45	C	0.602263	-0.262922	-0.307577
C46	C	1.102263	0.237078	0.192423
C47	C	0.640685	-0.303232	-0.354552
C48	C	1.140685	0.196768	0.145448
C49	C	0.486969	-0.303239	-0.354566
C50	C	0.986969	0.196761	0.145434
C51	C	0.403635	-0.303240	-0.354575
C52	C	0.903635	0.196760	0.145425
C53	C	0.724024	-0.303229	-0.354543
C54	C	1.224024	0.196771	0.145457
C55	C	1.063357	-0.466779	-0.354509
C56	C	1.563357	0.033221	0.145491
C57	C	1.063383	-0.536747	-0.354516
C58	C	1.563383	-0.036747	0.145484
C59	C	1.110485	-0.569608	-0.307500
C60	C	1.610485	-0.069608	0.192500
C61	C	1.110520	-0.635350	-0.307517
C62	C	1.610520	-0.135350	0.192483
C63	C	1.063439	-0.668230	-0.354542
C64	C	1.563439	-0.168230	0.145458
C65	C	1.016333	-0.635361	-0.401566
C66	C	1.516333	-0.135361	0.098434
C67	C	1.016305	-0.569620	-0.401554
C68	C	1.516305	-0.069620	0.098446
N69	N	0.999060	-0.771496	-0.360145
N70	N	1.499060	-0.271496	0.139855
N71	N	0.999088	-0.833947	-0.360153
N72	N	1.499088	-0.333947	0.139847
C73	C	1.063521	-0.866304	-0.354584
C74	C	1.563521	-0.366304	0.145416
N75	N	1.127926	-0.833851	-0.348993
N76	N	1.627926	-0.333851	0.151007
N77	N	1.127896	-0.771394	-0.348981
N78	N	1.627896	-0.271394	0.151019
C79	C	1.063464	-0.739515	-0.354561
C80	C	1.563464	-0.239515	0.145439
C81	C	1.110665	-0.970451	-0.307584
C82	C	1.610665	-0.470451	0.192416
C83	C	1.110701	-1.036194	-0.307605
C84	C	1.610701	-0.536194	0.192395
C85	C	1.016507	-1.036203	-0.401651
C86	C	1.516507	-0.536203	0.098349
C87	C	1.016478	-0.970461	-0.401633
C88	C	1.516478	-0.470461	0.098367
C89	C	1.063556	-0.937589	-0.354595
C90	C	1.563556	-0.437589	0.145405
C91	C	1.255406	-0.303239	-0.354571
C92	C	1.755406	0.196761	0.145429
C93	C	1.337205	-0.303243	-0.354581
C94	C	1.837205	0.196757	0.145419
C95	C	1.063488	-0.303177	-0.546503
C96	C	1.563488	0.196823	-0.046503
C97	C	1.063503	-0.303156	-0.628302
C98	C	1.563503	0.196844	-0.128302
C99	C	1.063570	-0.139037	-0.354607
C100	C	1.563570	0.360963	0.145393
C101	C	1.063620	-0.069069	-0.354631
C102	C	1.563620	0.430931	0.145369
C103	C	1.016502	-0.262864	-0.816505
C104	C	1.516502	0.237136	-0.316505
C105	C	1.016515	-0.262852	-0.893364
C106	C	1.516515	0.237148	-0.393364
C107	C	1.110592	-0.343372	-0.893336
C108	C	1.610592	0.156628	-0.393336
C109	C	1.110575	-0.343387	-0.816479
C110	C	1.610575	0.156613	-0.316479
C111	C	1.063531	-0.303130	-0.778065
C112	C	1.563531	0.196870	-0.278065
C113	C	1.063561	-0.303102	-0.931781
C114	C	1.563561	0.196898	-0.431781
C115	C	1.063575	-0.303088	-1.015115
C116	C	1.563575	0.196912	-0.515115
C117	C	1.063516	-0.303144	-0.694726
C118	C	1.563516	0.196856	-0.194726
C119	C	1.063461	-0.303232	-0.163344
C120	C	1.563461	0.196768	0.336656
C121	C	1.063589	-0.303076	-0.081545
C122	C	1.563589	0.196924	0.418455
H123	H	0.494107	-0.376363	-0.439801
H124	H	0.994107	0.123637	0.060199
H125	H	1.148894	-0.376148	-0.924622
H126	H	1.648894	0.123852	-0.424622
F127	F	0.966452	-0.220002	-0.934272
F128	F	1.466452	0.279998	-0.434272
H129	H	1.148821	-0.542845	-0.269202
H130	H	1.648821	-0.042845	0.230798
H131	H	1.148879	-0.662111	-0.269231
H132	H	1.648879	-0.162111	0.230769
F133	F	1.160629	-0.386248	-0.775566
F134	F	1.660629	0.113752	-0.275566
F135	F	0.643167	-0.220015	-0.257574
F136	F	1.143167	0.279985	0.242426
H137	H	0.494113	-0.230108	-0.269336
H138	H	0.994113	0.269892	0.230664
F139	F	0.966229	-0.670354	-0.451616
F140	F	1.466229	-0.170354	0.048384
F141	F	0.643142	-0.386439	-0.451529
F142	F	1.143142	0.113561	0.048471
F143	F	1.160768	-0.935463	-0.257522
F144	F	1.660768	-0.435463	0.242478
F145	F	0.966170	-0.534646	-0.451597
F146	F	1.466170	-0.034646	0.048403
F147	F	1.160841	-1.071167	-0.257567
F148	F	1.660841	-0.571167	0.242433
F149	F	0.966404	-1.071191	-0.451703
F150	F	1.466404	-0.571191	0.048297
H151	H	0.978120	-0.943704	-0.439914
H152	H	1.478120	-0.443704	0.060086
H153	H	0.978196	-0.230084	-0.785231
H154	H	1.478196	0.269916	-0.285231
