data_functionalizedCrystal
_audit_creation_method	'MofGen! by Chris Wilmer'
_symmetry_space_group_name_H-M	'P1'
_symmetry_Int_Tables_number	1
_symmetry_cell_setting	triclinic
loop_
_symmetry_equiv_pos_as_xyz
  x,y,z
_cell_length_a	10.686220
_cell_length_b	12.645330
_cell_length_c	10.685884
_cell_angle_alpha	94.383277
_cell_angle_beta	80.951928
_cell_angle_gamma	94.394340
loop_
_atom_site_label
_atom_site_type_symbol
_atom_site_fract_x
_atom_site_fract_y
_atom_site_fract_z
Zn1	Zn	1.885349	-0.263844	0.569037
Zn2	Zn	2.385349	0.236156	1.069037
Zn3	Zn	1.901560	-0.453706	0.356792
Zn4	Zn	2.401560	0.046294	0.856792
Zn5	Zn	1.689414	-0.289104	0.373061
Zn6	Zn	2.189414	0.210896	0.873061
Zn7	Zn	1.673082	-0.453724	0.585242
Zn8	Zn	2.173082	0.046276	1.085242
O9	O	1.787351	-0.365094	0.471033
O10	O	2.287351	0.134906	0.971033
O11	O	2.065117	-0.278450	0.527291
O12	O	2.565117	0.221550	1.027291
O13	O	1.887038	-0.442435	0.181327
O14	O	2.387038	0.057565	0.681327
O15	O	1.715456	-0.137401	0.399085
O16	O	2.215456	0.362599	0.899085
O17	O	2.077028	-0.417942	0.371356
O18	O	2.577028	0.082058	0.871356
O19	O	1.859408	-0.118842	0.543067
O20	O	2.359408	0.381158	1.043067
O21	O	1.731175	-0.321503	0.193280
O22	O	2.231175	0.178497	0.693280
O23	O	1.509630	-0.321520	0.414798
O24	O	2.009630	0.178480	0.914798
O25	O	1.687620	-0.417972	0.760715
O26	O	2.187620	0.082028	1.260715
O27	O	1.497631	-0.442466	0.570686
O28	O	1.997631	0.057534	1.070686
O29	O	1.843572	-0.278468	0.748810
O30	O	2.343572	0.221532	1.248810
O31	O	1.871202	-0.602061	0.387069
O32	O	2.371202	-0.102061	0.887069
O33	O	1.703340	-0.602074	0.554910
O34	O	2.203340	-0.102074	1.054910
C35	C	1.457576	-0.384737	0.496267
C36	C	1.957576	0.115263	0.996267
C37	C	1.316494	-0.393163	0.507092
C38	C	1.816494	0.106837	1.007092
C39	C	1.787290	-0.640530	0.471008
C40	C	2.287290	-0.140530	0.971008
C41	C	1.787377	-0.758353	0.471030
C42	C	2.287377	-0.258353	0.971030
C43	C	1.892837	-0.925886	0.365255
C44	C	2.392837	-0.425886	0.865255
C45	C	1.893137	-0.803292	0.365471
C46	C	2.393137	-0.303292	0.865471
C47	C	1.813359	-0.792650	0.602051
C48	C	2.313359	-0.292650	1.102051
C49	C	1.814176	-0.915233	0.601470
C50	C	2.314176	-0.415233	1.101470
C51	C	1.655795	-0.935707	0.447108
C52	C	2.155795	-0.435707	0.947108
C53	C	1.656669	-0.813242	0.444058
C54	C	2.156669	-0.313242	0.944058
C55	C	2.118415	-0.345376	0.445701
C56	C	2.618415	0.154624	0.945701
C57	C	2.259494	-0.336974	0.434906
C58	C	2.759494	0.163026	0.934906
C59	C	1.761966	-0.345404	0.802106
C60	C	2.261966	0.154596	1.302106
C61	C	1.751148	-0.337013	0.943189
C62	C	2.251148	0.162987	1.443189
C63	C	1.787445	-0.088580	0.471083
C64	C	2.287445	0.411420	0.971083
C65	C	1.787485	0.029254	0.471105
C66	C	2.287485	0.529254	0.971105
C67	C	1.812629	-0.384730	1.141248
C68	C	2.312629	0.115270	1.641248
C69	C	1.823446	-0.393113	1.000165
C70	C	2.323446	0.106887	1.500165
H71	H	1.878073	-0.780516	0.268000
H72	H	2.378073	-0.280516	0.768000
F73	F	1.915181	-0.464274	0.922842
F74	F	2.415181	0.035726	1.422842
H75	H	1.257356	-0.447726	0.577173
H76	H	1.757356	0.052274	1.077173
F77	F	1.336781	-0.265669	0.343298
F78	F	1.836781	0.234331	0.843298
F79	F	2.020898	-0.755340	0.385157
F80	F	2.520898	-0.255340	0.885157
F81	F	1.873556	-0.973964	0.237441
F82	F	2.373556	-0.473964	0.737441
F83	F	1.659432	-0.265845	1.020505
F84	F	2.159432	0.234155	1.520505
F85	F	2.019930	-0.956600	0.384655
F86	F	2.519930	-0.456600	0.884655
H87	H	1.910129	-0.936172	0.622992
H88	H	2.410129	-0.436172	1.122992
F89	F	1.715528	-0.754124	0.707322
F90	F	2.215528	-0.254124	1.207322
F91	F	1.717497	-0.953459	0.707336
F92	F	2.217497	-0.453459	1.207336
H93	H	1.908166	-0.754326	0.624142
H94	H	2.408166	-0.254326	1.124142
F95	F	1.630811	-0.785089	0.318099
F96	F	2.130811	-0.285089	0.818099
F97	F	1.622315	-0.986228	0.325107
F98	F	2.122315	-0.486228	0.825107
H99	H	1.577426	-0.964817	0.524328
H100	H	2.077426	-0.464817	1.024328
F101	F	1.549624	-0.774074	0.538518
F102	F	2.049624	-0.274074	1.038518
