data_functionalizedCrystal
_audit_creation_method	'MofGen! by Chris Wilmer'
_symmetry_space_group_name_H-M	'P1'
_symmetry_Int_Tables_number	1
_symmetry_cell_setting	triclinic
loop_
_symmetry_equiv_pos_as_xyz
  x,y,z
_cell_length_a	31.640172
_cell_length_b	17.917603
_cell_length_c	17.917559
_cell_angle_alpha	60.139256
_cell_angle_beta	89.997910
_cell_angle_gamma	63.027896
loop_
_atom_site_label
_atom_site_type_symbol
_atom_site_fract_x
_atom_site_fract_y
_atom_site_fract_z
Zr1	Zr	0.431293	0.806773	-0.129084
O2	O	0.370646	0.951814	-0.249615
O3	O	0.446986	0.654543	-0.087434
O4	O	0.454644	0.796390	-0.242842
O5	O	0.360244	0.820665	0.023033
O6	O	0.524200	0.796377	-0.242846
O7	O	0.362988	0.809967	-0.094208
O8	O	0.510502	0.542639	0.035150
O9	O	0.373943	1.074402	-0.254963
O10	O	0.509090	0.719810	-0.075354
O11	O	0.455133	0.727803	0.012145
O12	O	0.464149	0.894809	-0.170827
O13	O	0.410193	0.902802	-0.083329
Zr14	Zr	0.537851	0.823813	0.057894
Zr15	Zr	0.542227	0.806752	-0.129091
Zr16	Zr	0.426917	0.823834	0.057901
Zr17	Zr	0.436551	1.002287	-0.137613
Zr18	Zr	0.532593	0.628299	0.066423
O19	O	0.522158	0.976043	0.016244
O20	O	0.528379	0.951784	-0.249625
O21	O	0.364424	0.976072	0.016254
O22	O	0.598498	0.678772	0.178425
O23	O	0.604720	0.654514	-0.087444
O24	O	0.440764	0.678802	0.178435
O25	O	0.608899	0.809921	-0.094223
O26	O	0.514500	0.834196	0.171651
O27	O	0.444944	0.834209	0.171656
O28	O	0.606156	0.820619	0.023018
O29	O	0.462120	1.074386	-0.254968
O30	O	0.507023	0.556200	0.183778
O31	O	0.595201	0.556184	0.183773
O32	O	0.598679	0.542623	0.035144
O33	O	0.370465	1.087963	-0.106334
O34	O	0.458642	1.087947	-0.106340
O35	O	0.504995	0.735777	0.099637
O36	O	0.558951	0.727784	0.012139
O37	O	0.514010	0.902783	-0.083335
O38	O	0.460054	0.910776	0.004163
C39	C	0.477995	0.570735	-0.024927
C40	C	0.475762	0.487734	-0.021307
C41	C	0.345811	0.815319	-0.035587
C42	C	0.298716	0.815328	-0.035584
C43	C	0.471684	0.335768	-0.014695
C44	C	0.497458	0.294813	-0.056493
C45	C	0.495189	0.210254	-0.052814
C46	C	0.473953	0.420335	-0.018373
C47	C	0.008221	0.809381	-0.100181
C48	C	-0.168766	0.809367	-0.100187
O49	O	-0.190355	0.804310	-0.155094
N50	N	-0.192408	0.815262	-0.035599
C51	C	-0.171799	0.821155	0.028998
O52	O	-0.195966	0.826158	0.083940
C53	C	0.005189	0.821161	0.029007
C54	C	0.028826	0.815276	-0.035590
C55	C	0.031859	0.803495	-0.164773
C56	C	0.076101	0.803504	-0.164774
C57	C	0.096706	0.809399	-0.100183
C58	C	0.073069	0.815285	-0.035591
C59	C	0.025799	0.827047	0.093608
C60	C	0.070050	0.827045	0.093606
C61	C	0.093687	0.821160	0.029008
C62	C	0.137917	0.821189	0.028999
N63	N	0.161559	0.815294	-0.035589
C64	C	0.140954	0.809399	-0.100180
C65	C	-0.264720	0.821153	0.028988
C66	C	-0.308967	0.821153	0.028985
C67	C	-0.305931	0.809364	-0.100200
C68	C	-0.261685	0.809371	-0.100200
C69	C	-0.241078	0.815258	-0.035600
C70	C	0.233866	0.809419	-0.100177
C71	C	0.278111	0.809433	-0.100175
C72	C	0.275072	0.821217	0.029012
C73	C	0.230829	0.821209	0.029007
C74	C	0.210228	0.815306	-0.035592
O75	O	0.159536	0.826232	0.083883
O76	O	0.165134	0.804374	-0.155101
C77	C	-0.036021	0.809372	-0.100180
C78	C	-0.059659	0.815258	-0.035589
C79	C	-0.039054	0.821153	0.029002
C80	C	-0.103906	0.815258	-0.035592
C81	C	-0.124511	0.809363	-0.100183
C82	C	-0.100869	0.803468	-0.164770
C83	C	-0.056627	0.803477	-0.164771
C84	C	-0.062696	0.827048	0.093590
C85	C	-0.106939	0.827040	0.093585
C86	C	-0.127544	0.821145	0.028994
C87	C	0.623333	0.815267	-0.035603
C88	C	0.670427	0.815258	-0.035606
C89	C	0.490045	0.793953	-0.269485
C90	C	0.491903	0.786710	-0.348865
C91	C	0.491149	1.059851	-0.046263
C92	C	0.493381	1.142852	-0.049883
C93	C	0.473838	0.857094	-0.576965
C94	C	0.495304	0.773496	-0.494223
C95	C	0.493411	0.780851	-0.413339
C96	C	0.475731	0.849742	-0.657857
C97	C	0.479099	0.836633	0.198295
C98	C	0.477241	0.843876	0.277675
C99	C	0.616756	0.570709	-0.024936
C100	C	0.661618	0.487699	-0.021318
C101	C	0.472521	0.592075	0.208963
C102	C	0.468431	0.516317	0.291963
C103	C	0.611283	0.592049	0.208954
C104	C	0.654287	0.516282	0.291952
C105	C	0.357861	1.038537	-0.280145
C106	C	0.314857	1.114304	-0.363142
C107	C	0.352388	1.059877	-0.046255
C108	C	0.307526	1.142887	-0.049872
C109	C	0.496622	1.038511	-0.280153
C110	C	0.500712	1.114269	-0.363154
C111	C	0.656659	0.444554	-0.065297
C112	C	0.698808	0.366567	-0.061915
C113	C	0.745915	0.331721	-0.014549
C114	C	0.750874	0.374874	0.029431
C115	C	0.708725	0.452865	0.026043
C116	C	0.492538	0.484903	0.376619
C117	C	0.488693	0.413732	0.454614
C118	C	0.460745	0.373971	0.447951
C119	C	0.436636	0.405391	0.363286
C120	C	0.440478	0.476567	0.285293
C121	C	0.702652	0.476529	0.285256
C122	C	0.743064	0.405348	0.363233
C123	C	0.735110	0.373917	0.447907
C124	C	0.686740	0.413677	0.454602
C125	C	0.646329	0.484862	0.376625
C126	C	0.266492	1.154066	-0.356446
C127	C	0.226081	1.225271	-0.434425
C128	C	0.234035	1.256707	-0.519099
C129	C	0.282404	1.216941	-0.525793
C130	C	0.322815	1.145743	-0.447816
C131	C	0.312485	1.186039	-0.005901
C132	C	0.270337	1.264046	-0.009304
C133	C	0.223230	1.298894	-0.056673
C134	C	0.218271	1.255738	-0.100649
C135	C	0.260419	1.177737	-0.097251
C136	C	0.528665	1.154008	-0.356461
C137	C	0.532517	1.225181	-0.434442
C138	C	0.508414	1.256619	-0.519114
C139	C	0.480461	1.216872	-0.525804
C140	C	0.476611	1.145695	-0.447824
H141	H	0.521228	0.323257	-0.095040
N142	N	0.788956	0.252034	-0.011090
N143	N	0.821980	0.266676	-0.041410
H144	H	0.852370	0.210386	-0.038968
N145	N	0.678621	0.381568	0.541098
N146	N	0.696294	0.394991	0.592530
H147	H	0.690561	0.372306	0.653621
N148	N	0.290516	1.249072	-0.612296
N149	N	0.254427	1.312640	-0.681904
H150	H	0.260154	1.335333	-0.742999
N151	N	0.520131	0.676779	-0.481553
N152	N	0.506009	0.616366	-0.439922
H153	H	0.523539	0.548061	-0.430977
H154	H	0.447915	0.307328	0.023848
H155	H	0.453848	1.113347	-0.453285
N156	N	0.713796	0.496938	0.070964
N157	N	0.738507	0.538675	0.049701
H158	H	0.742091	0.569800	0.081428
N159	N	0.449004	0.953796	-0.589614
N160	N	0.447483	0.959699	-0.522928
H161	H	0.429943	1.027993	-0.531852
N162	N	0.513334	0.381642	0.541082
N163	N	0.559419	0.340148	0.565211
H164	H	0.576823	0.317485	0.626277
H165	H	0.274384	1.299171	0.026511
H166	H	0.606950	0.517220	0.382090
H167	H	0.413880	0.373007	0.357874
H168	H	0.297355	0.804643	-0.152781
H169	H	0.188914	1.362408	-0.059433
N170	N	0.456827	0.301270	0.527632
N171	N	0.478356	0.273235	0.603210
H172	H	0.475591	0.221889	0.659489
H173	H	-0.037384	0.798684	-0.217373
N174	N	0.798990	0.339273	0.077830
N175	N	0.803418	0.377790	0.117105
H176	H	0.837401	0.352642	0.151292
N177	N	0.521078	0.525533	0.383423
N178	N	0.524507	0.589087	0.313789
H179	H	0.544663	0.617785	0.318599
N180	N	0.258351	1.121972	-0.269968
N181	N	0.215162	1.157498	-0.264018
H182	H	0.209407	1.134840	-0.202945
H183	H	0.362194	1.113368	-0.453278
N184	N	-0.131087	0.833074	0.159563
N185	N	-0.145304	0.907658	0.164277
H186	H	-0.162356	0.911914	0.210876
N187	N	-0.041657	0.833066	0.159581
N188	N	-0.062775	0.838325	0.217241
H189	H	-0.047920	0.842579	0.263850
N190	N	-0.333122	0.827186	0.094951
N191	N	-0.376293	0.899140	0.070827
H192	H	-0.393351	0.903397	0.117419
H193	H	0.186700	1.257637	-0.428957
H194	H	0.420848	0.502134	0.216366
N195	N	0.212835	0.803383	-0.166166
N196	N	0.233952	0.798128	-0.223827
H197	H	0.219098	0.793870	-0.270434
H198	H	0.709137	0.502110	0.216317
H199	H	-0.247946	0.825948	0.081594
N200	N	0.792471	0.364731	0.356399
N201	N	0.822711	0.376307	0.387427
H202	H	0.857605	0.347621	0.382600
N203	N	0.192748	1.329438	-0.598738
N204	N	0.149569	1.364926	-0.592736
H205	H	0.120408	1.416292	-0.648978
N206	N	0.561063	1.265794	-0.427612
N207	N	0.564501	1.329342	-0.497235
H208	H	0.584662	1.358024	-0.492412
H209	H	0.548293	1.128423	-0.287525
N210	N	0.091086	0.833095	0.159579
N211	N	0.097284	0.905064	0.135448
H212	H	0.112137	0.909345	0.182038
H213	H	0.768019	0.315953	0.511394
N214	N	0.360597	1.150462	0.042495
N215	N	0.365010	1.189016	0.081743
H216	H	0.398988	1.163898	0.115923
H217	H	0.179911	1.284123	-0.139216
N218	N	0.255338	1.133659	-0.142158
N219	N	0.230621	1.091934	-0.120882
H220	H	0.227028	1.060807	-0.152599
H221	H	0.511552	1.314577	-0.582603
N222	N	0.455846	1.249000	-0.612304
N223	N	0.459289	1.312555	-0.681914
H224	H	0.441903	1.335251	-0.743008
H225	H	0.694761	0.331441	-0.097730
N226	N	0.100232	0.797508	-0.230775
N227	N	0.081819	0.792255	-0.288441
H228	H	0.098858	0.788025	-0.335060
N229	N	0.296143	0.827193	0.095005
N230	N	0.335657	0.827160	0.095009
H231	H	0.350547	0.831355	0.141631
N232	N	0.010824	0.797466	-0.230760
N233	N	0.031943	0.792208	-0.288418
H234	H	0.017089	0.787955	-0.335030
H235	H	-0.322715	0.804566	-0.152794
N236	N	-0.237546	0.803348	-0.166185
N237	N	-0.255953	0.798083	-0.223846
H238	H	-0.238906	0.793824	-0.270448
H239	H	0.006560	0.831838	0.146209
N240	N	0.206677	0.827263	0.094974
N241	N	0.225077	0.832549	0.152627
H242	H	0.208022	0.836826	0.199217
H243	H	-0.117654	0.798673	-0.217366
N244	N	0.608546	0.480118	-0.113679
N245	N	0.604134	0.441575	-0.152938
H246	H	0.570156	0.466688	-0.187112
