data_functionalizedCrystal
_audit_creation_method	'MofGen! by Chris Wilmer'
_symmetry_space_group_name_H-M	'P1'
_symmetry_Int_Tables_number	1
_symmetry_cell_setting	triclinic
loop_
_symmetry_equiv_pos_as_xyz
  x,y,z
_cell_length_a	19.188930
_cell_length_b	15.995350
_cell_length_c	14.472311
_cell_angle_alpha	90.006054
_cell_angle_beta	90.018994
_cell_angle_gamma	83.318578
loop_
_atom_site_label
_atom_site_type_symbol
_atom_site_fract_x
_atom_site_fract_y
_atom_site_fract_z
O1	O	-0.926411	-0.104538	-0.077134
O2	O	-0.593078	0.228795	0.256200
O3	O	-0.259745	0.562129	0.589533
O4	O	-0.723136	-0.118610	-0.077070
O5	O	-0.389802	0.214723	0.256264
O6	O	-0.056469	0.548057	0.589597
O7	O	-0.830330	0.010334	-0.077103
O8	O	-0.496997	0.343667	0.256231
O9	O	-0.163664	0.677001	0.589564
O10	O	-0.819217	-0.233482	-0.077101
O11	O	-0.485884	0.099851	0.256233
O12	O	-0.152550	0.433185	0.589566
O13	O	-0.830321	0.010347	0.076579
O14	O	-0.496987	0.343680	0.409913
O15	O	-0.163654	0.677013	0.743246
O16	O	-0.723126	-0.118597	0.076612
O17	O	-0.389793	0.214736	0.409946
O18	O	-0.056459	0.548069	0.743279
O19	O	-0.926402	-0.104525	0.076548
O20	O	-0.593068	0.228808	0.409882
O21	O	-0.259735	0.562141	0.743215
Cu22	Cu	-0.824763	-0.111560	0.090613
Cu23	Cu	-0.491430	0.221773	0.423946
Cu24	Cu	-0.158096	0.555106	0.757279
Cu25	Cu	-0.824774	-0.111575	-0.091134
Cu26	Cu	-0.491441	0.221758	0.242199
Cu27	Cu	-0.158108	0.555092	0.575533
O28	O	-0.819207	-0.233469	0.076581
O29	O	-0.485874	0.099864	0.409915
O30	O	-0.152541	0.433197	0.743248
C31	C	-0.697119	-0.118148	-0.000221
C32	C	-0.363785	0.215185	0.333113
C33	C	-0.030452	0.548519	0.666446
C34	C	-0.619611	-0.116780	-0.000196
C35	C	-0.286277	0.216553	0.333137
C36	C	0.047056	0.549887	0.666470
C37	C	-0.952419	-0.104987	-0.000303
C38	C	-0.619085	0.228346	0.333031
C39	C	-0.285752	0.561679	0.666364
C40	C	-1.029927	-0.106355	-0.000333
C41	C	-0.696593	0.226978	0.333000
C42	C	-0.363260	0.560311	0.666334
C43	C	-0.574880	-0.192440	-0.000210
C44	C	-0.241546	0.140893	0.333123
C45	C	0.091787	0.474227	0.666456
C46	C	-0.502052	-0.191155	-0.000220
C47	C	-0.168719	0.142178	0.333113
C48	C	0.164614	0.475512	0.666446
C49	C	-0.473960	-0.114205	-0.000235
C50	C	-0.140627	0.219128	0.333098
C51	C	0.192707	0.552461	0.666432
C52	C	-0.518701	-0.038535	-0.000216
C53	C	-0.185368	0.294798	0.333117
C54	C	0.147966	0.628131	0.666451
C55	C	-0.591526	-0.039823	-0.000197
C56	C	-0.258193	0.293511	0.333137
C57	C	0.075140	0.626844	0.666470
N58	N	-0.365833	-0.055391	-0.052577
N59	N	-0.032500	0.277942	0.280756
N60	N	0.300833	0.611275	0.614089
N61	N	-0.296652	-0.054174	-0.052598
N62	N	0.036682	0.279160	0.280735
N63	N	0.370015	0.612493	0.614069
C64	C	-0.254541	-0.110322	-0.000292
C65	C	0.078792	0.223011	0.333042
C66	C	0.412125	0.556345	0.666375
N67	N	-0.284225	-0.167747	0.052024
N68	N	0.049108	0.165586	0.385357
N69	N	0.382442	0.498919	0.718691
N70	N	-0.353413	-0.168967	0.052040
N71	N	-0.020080	0.164366	0.385374
N72	N	0.313254	0.497699	0.718707
C73	C	-0.394994	-0.112801	-0.000256
C74	C	-0.061660	0.220532	0.333078
C75	C	0.271673	0.553866	0.666411
C76	C	-0.130842	-0.184594	-0.000315
C77	C	0.202491	0.148739	0.333018
C78	C	0.535825	0.482073	0.666351
C79	C	-0.058014	-0.183306	-0.000320
C80	C	0.275319	0.150028	0.333014
C81	C	0.608653	0.483361	0.666347
C82	C	-0.074664	-0.030684	-0.000325
C83	C	0.258669	0.302650	0.333009
C84	C	0.592002	0.635983	0.666342
C85	C	-0.147491	-0.031974	-0.000311
C86	C	0.185843	0.301359	0.333022
C87	C	0.519176	0.634692	0.666356
C88	C	-0.175575	-0.108932	-0.000311
C89	C	0.157758	0.224402	0.333023
C90	C	0.491092	0.557735	0.666356
C91	C	-0.829866	0.041533	-0.000263
C92	C	-0.496533	0.374867	0.333070
C93	C	-0.163199	0.708200	0.666404
C94	C	-0.828489	0.134479	-0.000268
C95	C	-0.495155	0.467812	0.333065
C96	C	-0.161822	0.801145	0.666399
C97	C	-0.819671	-0.264669	-0.000260
C98	C	-0.486338	0.068665	0.333073
C99	C	-0.153005	0.401998	0.666407
C100	C	-0.821049	-0.357614	-0.000261
C101	C	-0.487716	-0.024281	0.333072
C102	C	-0.154382	0.309053	0.666405
N103	N	-0.824760	-0.111549	0.218444
N104	N	-0.491427	0.221784	0.551777
N105	N	-0.158093	0.555117	0.885110
C106	C	-0.823542	0.472208	-0.000263
C107	C	-0.490209	0.805541	0.333070
C108	C	-0.156875	1.138875	0.666403
C109	C	-0.747200	0.424494	-0.000584
C110	C	-0.413867	0.757828	0.332749
C111	C	-0.080533	1.091161	0.666083
C112	C	-0.748578	0.327809	-0.000238
C113	C	-0.415244	0.661143	0.333095
C114	C	-0.081911	0.994476	0.666429
C115	C	-0.825995	0.304657	-0.000266
C116	C	-0.492662	0.637990	0.333067
C117	C	-0.159329	0.971323	0.666401
C118	C	-0.863645	0.345879	0.087480
C119	C	-0.530311	0.679212	0.420814
C120	C	-0.196978	1.012546	0.754147
C121	C	-0.861727	0.442508	0.087554
C122	C	-0.528393	0.775841	0.420888
C123	C	-0.195060	1.109175	0.754221
C124	C	-0.863315	0.442858	-0.087211
C125	C	-0.529981	0.776191	0.246122
C126	C	-0.196648	1.109524	0.579455
C127	C	-0.863297	0.345912	-0.088371
C128	C	-0.529963	0.679245	0.244962
C129	C	-0.196630	1.012579	0.578296
C130	C	-0.827386	0.209964	-0.000265
C131	C	-0.494053	0.543298	0.333069
C132	C	-0.160720	0.876631	0.666402
C133	C	-0.822153	0.566901	-0.000259
C134	C	-0.488820	0.900234	0.333075
C135	C	-0.155487	1.233568	0.666408
N136	N	-0.824783	-0.111579	-0.218965
N137	N	-0.491450	0.221754	0.114368
N138	N	-0.158116	0.555087	0.447702
C139	C	-0.824768	-0.111560	0.406944
C140	C	-0.491434	0.221773	0.740277
C141	C	-0.158101	0.555107	1.073611
C142	C	-0.882139	-0.042588	0.446128
C143	C	-0.548805	0.290746	0.779461
C144	C	-0.215472	0.624079	1.112795
C145	C	-0.882347	-0.042770	0.553216
C146	C	-0.549013	0.290563	0.886549
C147	C	-0.215680	0.623897	1.219882
C148	C	-0.824775	-0.111569	0.592535
C149	C	-0.491442	0.221765	0.925868
C150	C	-0.158109	0.555098	1.259202
C151	C	-0.840385	-0.198984	0.553636
C152	C	-0.507052	0.134349	0.886969
C153	C	-0.173719	0.467682	1.220302
C154	C	-0.840793	-0.198574	0.446514
C155	C	-0.507459	0.134759	0.779848
C156	C	-0.174126	0.468092	1.113181
C157	C	-0.751615	-0.093904	0.446458
C158	C	-0.418281	0.239429	0.779791
C159	C	-0.084948	0.572762	1.113125
C160	C	-0.752110	-0.091923	0.553586
C161	C	-0.418776	0.241410	0.886920
C162	C	-0.085443	0.574744	1.220253
C163	C	-0.824778	-0.111579	0.697423
C164	C	-0.491445	0.221754	1.030756
C165	C	-0.158111	0.555087	1.364090
C166	C	-0.824766	-0.111555	0.302056
C167	C	-0.491433	0.221778	0.635389
C168	C	-0.158100	0.555112	0.968722
H169	H	-0.597741	-0.255105	-0.000212
H170	H	-0.264407	0.078229	0.333122
H171	H	0.068926	0.411562	0.666455
F172	F	-0.454437	-0.271686	-0.000233
F173	F	-0.121104	0.061647	0.333101
F174	F	0.212229	0.394981	0.666434
F175	F	-0.829456	0.308667	0.172857
F176	F	-0.496123	0.642000	0.506190
F177	F	-0.162790	0.975334	0.839524
F178	F	-0.160734	-0.266497	-0.000308
F179	F	0.172599	0.066836	0.333025
F180	F	0.505933	0.400169	0.666359
H181	H	-0.495823	0.024118	-0.000241
H182	H	-0.162490	0.357451	0.333093
H183	H	0.170843	0.690784	0.666426
H184	H	-0.716691	0.442909	-0.063507
H185	H	-0.383357	0.776243	0.269826
H186	H	-0.050024	1.109576	0.603159
F187	F	-0.937089	0.326099	-0.095330
F188	F	-0.603756	0.659432	0.238004
F189	F	-0.270423	0.992766	0.571337
F190	F	-0.707386	0.450247	0.081004
F191	F	-0.374053	0.783581	0.414337
F192	F	-0.040720	1.116914	0.747671
F193	F	-0.827595	0.309770	-0.173229
F194	F	-0.494261	0.643103	0.160104
F195	F	-0.160928	0.976436	0.493437
F196	F	-0.731912	-0.012359	0.411169
F197	F	-0.398579	0.320974	0.744502
F198	F	-0.065245	0.654308	1.077835
H199	H	-0.718983	0.299274	-0.063137
H200	H	-0.385649	0.632607	0.270196
H201	H	-0.052316	0.965940	0.603529
H202	H	-0.838359	0.463300	-0.153719
H203	H	-0.505026	0.796634	0.179614
H204	H	-0.171692	1.129967	0.512948
H205	H	-0.936639	-0.054060	0.578819
H206	H	-0.603306	0.279274	0.912152
H207	H	-0.269973	0.612607	1.245486
F208	F	-0.010407	-0.263838	-0.000330
F209	F	0.322926	0.069495	0.333004
F210	F	0.656260	0.402829	0.666337
F211	F	-0.910512	-0.218897	0.413823
F212	F	-0.577179	0.114437	0.747156
F213	F	-0.243846	0.447770	1.080490
F214	F	-0.639135	0.040709	-0.000182
F215	F	-0.305801	0.374042	0.333152
F216	F	0.027532	0.707376	0.666485
H217	H	-0.936123	-0.053706	0.419173
H218	H	-0.602790	0.279628	0.752506
H219	H	-0.269457	0.612961	1.085840
H220	H	-0.051792	0.031970	-0.000394
H221	H	0.281541	0.365303	0.332939
H222	H	0.614874	0.698637	0.666273
H223	H	-0.183912	0.029637	-0.000305
H224	H	0.149421	0.362970	0.333029
H225	H	0.482755	0.696303	0.666362
H226	H	-0.718776	0.299841	0.062787
H227	H	-0.385442	0.633174	0.396121
H228	H	-0.052109	0.966507	0.729454
F229	F	-0.936885	0.484641	-0.088011
F230	F	-0.603551	0.817974	0.245322
F231	F	-0.270218	1.151308	0.578656
F232	F	-0.787205	-0.267694	0.586920
F233	F	-0.453871	0.065639	0.920254
F234	F	-0.120538	0.398973	1.253587
H235	H	-0.800465	-0.251321	0.420593
H236	H	-0.467132	0.082012	0.753926
H237	H	-0.133799	0.415345	1.087259
F238	F	-0.693721	-0.153329	0.588563
F239	F	-0.360387	0.180004	0.921896
F240	F	-0.027054	0.513338	1.255229
H241	H	-0.893116	-0.214913	0.580441
H242	H	-0.559782	0.118421	0.913774
H243	H	-0.226449	0.451754	1.247108
F244	F	-0.825829	0.466307	0.173312
F245	F	-0.492496	0.799640	0.506645
F246	F	-0.159163	1.132973	0.839978
H247	H	-0.873096	0.022208	0.579517
H248	H	-0.539763	0.355541	0.912850
H249	H	-0.206429	0.688874	1.246184
H250	H	-0.917776	0.474962	0.091516
H251	H	-0.584442	0.808295	0.424849
H252	H	-0.251109	1.141628	0.758183
F253	F	-0.870248	0.042631	0.412478
F254	F	-0.536914	0.375964	0.745811
F255	F	-0.203581	0.709298	1.079145
F256	F	-0.736608	-0.007879	0.586836
F257	F	-0.403275	0.325455	0.920170
F258	F	-0.069941	0.658788	1.253503
F259	F	-0.695815	-0.159646	0.413338
F260	F	-0.362482	0.173688	0.746671
F261	F	-0.029148	0.507021	1.080005
F262	F	-0.937987	0.327690	0.091723
F263	F	-0.604654	0.661024	0.425056
F264	F	-0.271320	0.994357	0.758389
