data_functionalizedCrystal
_audit_creation_method	'MofGen! by Chris Wilmer'
_symmetry_space_group_name_H-M	'P1'
_symmetry_Int_Tables_number	1
_symmetry_cell_setting	triclinic
loop_
_symmetry_equiv_pos_as_xyz
  x,y,z
_cell_length_a	15.538191
_cell_length_b	17.699083
_cell_length_c	16.776229
_cell_angle_alpha	89.995692
_cell_angle_beta	89.993235
_cell_angle_gamma	65.277554
loop_
_atom_site_label
_atom_site_type_symbol
_atom_site_fract_x
_atom_site_fract_y
_atom_site_fract_z
O1	O	-1.250477	0.245976	0.066293
O2	O	-0.976018	0.158529	0.066294
O3	O	-1.121002	0.314560	0.066286
O4	O	-1.105493	0.089944	0.066300
O5	O	-1.120985	0.314556	-0.066290
O6	O	-0.976001	0.158525	-0.066283
O7	O	-1.250461	0.245972	-0.066284
Zn8	Zn	-1.113228	0.202248	-0.087333
Zn9	Zn	-1.113250	0.202253	0.087343
O10	O	-1.105477	0.089940	-0.066276
C11	C	-0.940893	0.149378	0.000006
C12	C	-0.836257	0.122125	0.000006
C13	C	-1.285585	0.255123	0.000006
C14	C	-1.390221	0.282375	0.000011
C15	C	-1.120438	0.342603	-0.000002
C16	C	-1.118771	0.426166	-0.000002
C17	C	-0.549086	0.392872	0.000001
C18	C	-0.450762	0.367245	0.000004
C19	C	-0.427989	0.223099	0.000012
C20	C	-0.526313	0.248714	0.000006
C21	C	-0.586855	0.333602	0.000002
C22	C	-0.564082	0.189444	0.000007
C23	C	-0.662398	0.215057	0.000005
C24	C	-0.722945	0.299940	0.000003
C25	C	-0.685171	0.359215	-0.000000
C26	C	-0.503539	0.104556	0.000017
C27	C	-0.541308	0.045286	0.000017
C28	C	-0.639625	0.070899	0.000010
C29	C	-0.700173	0.155782	0.000007
C30	C	-0.677400	0.011624	0.000012
C31	C	-0.775716	0.037238	0.000011
C32	C	-0.798489	0.181396	0.000006
C33	C	-1.106041	0.061897	0.000014
C34	C	-1.107708	-0.021665	0.000020
N35	N	-1.113221	0.202246	-0.206544
C36	C	-1.203873	0.498041	-0.000004
C37	C	-1.202301	0.576554	0.000003
C38	C	-1.115626	0.583192	0.000006
C39	C	-1.030517	0.511309	0.000010
C40	C	-1.032090	0.432797	0.000008
C41	C	-1.024171	0.827938	0.000016
C42	C	-1.022605	0.906458	0.000015
C43	C	-1.194382	0.971696	0.000011
C44	C	-1.195955	0.893184	0.000010
C45	C	-1.110847	0.821308	0.000018
C46	C	-1.112552	0.736175	0.000012
C47	C	-1.113919	0.668323	0.000006
C48	C	-1.170278	0.171988	-0.248255
C49	C	-1.170289	0.171994	-0.331707
C50	C	-1.113236	0.202253	-0.373447
C51	C	-1.056176	0.232515	-0.331730
C52	C	-1.056171	0.232514	-0.248279
C53	C	-1.056195	0.232519	-0.668277
C54	C	-1.056202	0.232515	-0.751734
C55	C	-1.170313	0.171999	-0.751705
C56	C	-1.170308	0.171998	-0.668254
C57	C	-1.113252	0.202265	-0.626545
C58	C	-1.113243	0.202259	-0.536056
C59	C	-1.113239	0.202253	-0.463934
N60	N	-1.113265	0.202263	0.206554
H61	H	-0.847785	0.250520	-0.000003
F62	F	-0.363547	0.132758	0.000022
F63	F	-0.612956	-0.078716	0.000029
H64	H	-1.263682	1.030228	0.000008
H65	H	-0.598383	0.461996	-0.000007
F66	F	-0.995476	0.264723	-0.796155
F67	F	-0.815914	-0.025844	0.000012
H68	H	-0.952019	0.911855	0.000016
F69	F	-0.995457	0.264721	-0.376155
F70	F	-1.296126	0.490986	-0.000015
H71	H	-1.271600	0.635075	0.000000
H72	H	-1.216753	0.147357	-0.365664
H73	H	-1.266535	0.887787	0.000003
F74	F	-0.995450	0.264727	-0.203888
F75	F	-0.827583	0.327201	0.000005
H76	H	-0.492002	-0.023830	0.000024
F77	F	-0.938270	0.518375	0.000022
F78	F	-0.410570	0.430336	-0.000007
F79	F	-0.749609	0.449562	-0.000014
H80	H	-0.423484	0.083705	0.000021
H81	H	-0.954870	0.769424	0.000023
F82	F	-1.231001	0.139780	-0.203839
F83	F	-0.941512	0.356301	0.000013
F84	F	-1.231021	0.139782	-0.623836
H85	H	-1.216773	0.147357	-0.785674
H86	H	-1.009736	0.257164	-0.634328
