data_functionalizedCrystal
_audit_creation_method	'MofGen! by Chris Wilmer'
_symmetry_space_group_name_H-M	'P1'
_symmetry_Int_Tables_number	1
_symmetry_cell_setting	triclinic
loop_
_symmetry_equiv_pos_as_xyz
  x,y,z
_cell_length_a	14.519709
_cell_length_b	10.723022
_cell_length_c	12.996460
_cell_angle_alpha	89.993696
_cell_angle_beta	89.999167
_cell_angle_gamma	84.073685
loop_
_atom_site_label
_atom_site_type_symbol
_atom_site_fract_x
_atom_site_fract_y
_atom_site_fract_z
O1	O	0.129336	1.655985	-0.085563
O2	O	0.141718	1.292716	-0.085566
O3	O	0.001338	1.483982	-0.085555
O4	O	0.269716	1.464719	-0.085574
O5	O	0.001347	1.483956	0.085579
O6	O	0.141728	1.292690	0.085567
O7	O	0.129345	1.655959	0.085571
Cu8	Cu	0.135537	1.474322	0.101195
Cu9	Cu	0.135526	1.474353	-0.101190
O10	O	0.269726	1.464693	0.085560
C11	C	0.140822	1.246212	0.000000
C12	C	0.138127	1.107683	-0.000001
C13	C	-0.033022	1.483071	0.000012
C14	C	-0.135417	1.480381	0.000012
C15	C	0.057174	1.059879	0.000004
C16	C	0.054387	0.916702	0.000003
C17	C	-0.510363	1.470477	-0.000014
C18	C	-0.406041	1.473228	-0.000007
C19	C	-0.322894	1.475429	0.000000
C20	C	-0.218565	1.478180	0.000006
C21	C	0.304085	1.465604	-0.000009
C22	C	0.406480	1.468294	-0.000017
C23	C	0.130241	1.702463	0.000002
C24	C	0.132936	1.840992	-0.000003
N25	N	0.135544	1.474310	0.243542
C26	C	0.135547	1.474314	0.336648
C27	C	0.135542	1.474325	0.453453
C28	C	0.135532	1.474340	0.546552
C29	C	0.135528	1.474352	0.663364
N30	N	0.135519	1.474367	0.756463
H31	H	-0.014924	0.875538	-0.000019
C32	C	-0.037203	1.223462	-0.087960
C33	C	-0.033605	1.147716	0.000011
H34	H	-0.093246	1.277692	-0.087951
H35	H	-0.034762	1.172085	-0.147627
H36	H	0.013954	1.271997	-0.087954
H37	H	-0.084758	1.099174	0.000000
H38	H	-0.036056	1.199099	0.059693
C39	C	0.233020	0.970505	-0.087995
C40	C	0.226516	0.896534	-0.000018
H41	H	0.290795	1.004792	-0.088007
H42	H	0.184110	1.036561	-0.087979
H43	H	0.228579	0.920319	-0.147664
H44	H	0.230950	0.946722	0.059652
H45	H	0.275439	0.830469	-0.000025
H46	H	0.205370	1.042612	-0.000010
