data_functionalizedCrystal
_audit_creation_method	'MofGen! by Chris Wilmer'
_symmetry_space_group_name_H-M	'P1'
_symmetry_Int_Tables_number	1
_symmetry_cell_setting	triclinic
loop_
_symmetry_equiv_pos_as_xyz
  x,y,z
_cell_length_a	19.188930
_cell_length_b	17.666332
_cell_length_c	19.188922
_cell_angle_alpha	89.992279
_cell_angle_beta	96.857064
_cell_angle_gamma	90.023133
loop_
_atom_site_label
_atom_site_type_symbol
_atom_site_fract_x
_atom_site_fract_y
_atom_site_fract_z
O1	O	0.926147	0.063196	-0.087168
O2	O	1.176147	0.313196	0.162832
O3	O	1.426147	0.563196	0.412832
O4	O	1.676147	0.813196	0.662832
O5	O	0.722835	0.063144	-0.098902
O6	O	0.972835	0.313144	0.151098
O7	O	1.222835	0.563144	0.401098
O8	O	1.472835	0.813144	0.651098
O9	O	0.830361	0.063162	0.008621
O10	O	1.080361	0.313162	0.258621
O11	O	1.330361	0.563162	0.508621
O12	O	1.580361	0.813162	0.758621
O13	O	0.818621	0.063178	-0.194691
O14	O	1.068621	0.313178	0.055309
O15	O	1.318621	0.563178	0.305309
O16	O	1.568621	0.813178	0.555309
O17	O	0.830343	-0.062735	0.008624
O18	O	1.080343	0.187265	0.258624
O19	O	1.330343	0.437265	0.508624
O20	O	1.580343	0.687265	0.758624
O21	O	0.722816	-0.062752	-0.098899
O22	O	0.972816	0.187248	0.151101
O23	O	1.222816	0.437248	0.401101
O24	O	1.472816	0.687248	0.651101
O25	O	0.926128	-0.062701	-0.087165
O26	O	1.176128	0.187299	0.162835
O27	O	1.426128	0.437299	0.412835
O28	O	1.676128	0.687299	0.662835
Cu29	Cu	0.824470	-0.074222	-0.093032
Cu30	Cu	1.074470	0.175778	0.156968
Cu31	Cu	1.324470	0.425778	0.406968
Cu32	Cu	1.574470	0.675778	0.656968
Cu33	Cu	0.824493	0.074665	-0.093035
Cu34	Cu	1.074493	0.324665	0.156965
Cu35	Cu	1.324493	0.574665	0.406965
Cu36	Cu	1.574493	0.824665	0.656965
O37	O	0.818602	-0.062718	-0.194688
O38	O	1.068602	0.187282	0.055312
O39	O	1.318602	0.437282	0.305312
O40	O	1.568602	0.687282	0.555312
C41	C	0.696815	0.000189	-0.098521
C42	C	0.946815	0.250189	0.151479
C43	C	1.196815	0.500189	0.401479
C44	C	1.446815	0.750189	0.651479
C45	C	0.619310	0.000169	-0.097380
C46	C	0.869310	0.250169	0.152620
C47	C	1.119310	0.500169	0.402620
C48	C	1.369310	0.750169	0.652620
N49	N	0.824460	-0.178941	-0.093029
N50	N	1.074460	0.071059	0.156971
N51	N	1.324460	0.321059	0.406971
N52	N	1.574460	0.571059	0.656971
C53	C	0.574384	0.000186	-0.160471
C54	C	0.824384	0.250186	0.089529
C55	C	1.074384	0.500186	0.339529
C56	C	1.324384	0.750186	0.589529
C57	C	0.501560	0.000195	-0.159399
C58	C	0.751560	0.250195	0.090601
C59	C	1.001560	0.500195	0.340601
C60	C	1.251560	0.750195	0.590601
C61	C	0.473666	0.000201	-0.095233
C62	C	0.723666	0.250201	0.154767
C63	C	0.973666	0.500201	0.404767
C64	C	1.223666	0.750201	0.654767
C65	C	0.518602	0.000180	-0.032134
C66	C	0.768602	0.250180	0.217866
C67	C	1.018602	0.500180	0.467866
C68	C	1.268602	0.750180	0.717866
C69	C	0.591424	0.000164	-0.033207
C70	C	0.841424	0.250164	0.216793
C71	C	1.091424	0.500164	0.466793
C72	C	1.341424	0.750164	0.716793
N73	N	0.365694	0.043076	-0.046187
N74	N	0.615694	0.293076	0.203813
N75	N	0.865694	0.543076	0.453813
N76	N	1.115694	0.793076	0.703813
N77	N	0.296515	0.043092	-0.045171
N78	N	0.546515	0.293092	0.204829
N79	N	0.796515	0.543092	0.454829
N80	N	1.046515	0.793092	0.704829
C81	C	0.254257	0.000247	-0.091995
C82	C	0.504257	0.250247	0.158005
C83	C	0.754257	0.500247	0.408005
C84	C	1.004257	0.750247	0.658005
N85	N	0.283790	-0.042606	-0.139883
N86	N	0.533790	0.207394	0.110117
N87	N	0.783790	0.457394	0.360117
N88	N	1.033790	0.707394	0.610117
N89	N	0.352975	-0.042619	-0.140900
N90	N	0.602975	0.207381	0.109100
N91	N	0.852975	0.457381	0.359100
N92	N	1.102975	0.707381	0.609100
C93	C	0.394704	0.000218	-0.094062
C94	C	0.644704	0.250218	0.155938
C95	C	0.894704	0.500218	0.405938
C96	C	1.144704	0.750218	0.655938
C97	C	0.130367	0.000272	-0.153928
C98	C	0.380367	0.250272	0.096072
C99	C	0.630367	0.500272	0.346072
C100	C	0.880367	0.750272	0.596072
C101	C	0.057542	0.000276	-0.152854
C102	C	0.307542	0.250276	0.097146
C103	C	0.557542	0.500276	0.347146
C104	C	0.807542	0.750276	0.597146
C105	C	0.074585	0.000268	-0.025586
C106	C	0.324585	0.250268	0.224414
C107	C	0.574585	0.500268	0.474414
C108	C	0.824585	0.750268	0.724414
C109	C	0.147408	0.000257	-0.026663
C110	C	0.397408	0.250257	0.223337
C111	C	0.647408	0.500257	0.473337
C112	C	0.897408	0.750257	0.723337
C113	C	0.175295	0.000263	-0.090835
C114	C	0.425295	0.250263	0.159165
C115	C	0.675295	0.500263	0.409165
C116	C	0.925295	0.750263	0.659165
C117	C	0.866667	-0.218530	-0.135274
C118	C	1.116667	0.031470	0.114726
C119	C	1.366667	0.281470	0.364726
C120	C	1.616667	0.531470	0.614726
C121	C	0.866679	-0.297778	-0.135272
C122	C	1.116679	-0.047778	0.114728
C123	C	1.366679	0.202222	0.364728
C124	C	1.616679	0.452222	0.614728
C125	C	0.824469	-0.337434	-0.093033
C126	C	1.074469	-0.087434	0.156967
C127	C	1.324469	0.162566	0.406967
C128	C	1.574469	0.412566	0.656967
C129	C	0.782259	-0.297836	-0.050778
C130	C	1.032259	-0.047836	0.199222
C131	C	1.282259	0.202164	0.449222
C132	C	1.532259	0.452164	0.699222
C133	C	0.782254	-0.218590	-0.050776
C134	C	1.032254	0.031410	0.199224
C135	C	1.282254	0.281410	0.449224
C136	C	1.532254	0.531410	0.699224
N137	N	0.763321	-0.461889	-0.091313
N138	N	1.013321	-0.211889	0.158687
N139	N	1.263321	0.038111	0.408687
N140	N	1.513321	0.288111	0.658687
N141	N	0.763327	-0.537169	-0.091318
N142	N	1.013327	-0.287169	0.158682
N143	N	1.263327	-0.037169	0.408682
N144	N	1.513327	0.212831	0.658682
C145	C	0.824482	-0.576198	-0.093035
C146	C	1.074482	-0.326198	0.156965
C147	C	1.324482	-0.076198	0.406965
C148	C	1.574482	0.173802	0.656965
N149	N	0.885631	-0.537101	-0.094759
N150	N	1.135631	-0.287101	0.155241
N151	N	1.385631	-0.037101	0.405241
N152	N	1.635631	0.212899	0.655241
N153	N	0.885624	-0.461814	-0.094757
N154	N	1.135624	-0.211814	0.155243
N155	N	1.385624	0.038186	0.405243
N156	N	1.635624	0.288186	0.655243
C157	C	0.824470	-0.423363	-0.093030
C158	C	1.074470	-0.173363	0.156970
C159	C	1.324470	0.076637	0.406970
C160	C	1.574470	0.326637	0.656970
C161	C	0.866705	-0.701715	-0.135281
C162	C	1.116705	-0.451715	0.114719
C163	C	1.366705	-0.201715	0.364719
C164	C	1.616705	0.048285	0.614719
C165	C	0.866718	-0.780964	-0.135274
C166	C	1.116718	-0.530964	0.114726
C167	C	1.366718	-0.280964	0.364726
C168	C	1.616718	-0.030964	0.614726
C169	C	0.782292	-0.781021	-0.050784
C170	C	1.032292	-0.531021	0.199216
C171	C	1.282292	-0.281021	0.449216
C172	C	1.532292	-0.031021	0.699216
C173	C	0.782286	-0.701773	-0.050787
C174	C	1.032286	-0.451773	0.199213
C175	C	1.282286	-0.201773	0.449213
C176	C	1.532286	0.048227	0.699213
C177	C	0.824491	-0.662125	-0.093039
C178	C	1.074491	-0.412125	0.156961
C179	C	1.324491	-0.162125	0.406961
C180	C	1.574491	0.087875	0.656961
C181	C	0.952148	0.000256	-0.087546
C182	C	1.202148	0.250256	0.162454
C183	C	1.452148	0.500256	0.412454
C184	C	1.702148	0.750256	0.662454
C185	C	1.029653	0.000281	-0.088687
C186	C	1.279653	0.250281	0.161313
C187	C	1.529653	0.500281	0.411313
C188	C	1.779653	0.750281	0.661313
C189	C	0.829973	0.000212	0.034634
C190	C	1.079973	0.250212	0.284634
C191	C	1.329973	0.500212	0.534634
C192	C	1.579973	0.750212	0.784634
C193	C	0.828835	0.000210	0.112139
C194	C	1.078835	0.250210	0.362139
C195	C	1.328835	0.500210	0.612139
C196	C	1.578835	0.750210	0.862139
N197	N	0.824509	0.179385	-0.093033
N198	N	1.074509	0.429385	0.156967
N199	N	1.324509	0.679385	0.406967
N200	N	1.574509	0.929385	0.656967
C201	C	0.828314	0.068836	0.148536
C202	C	1.078314	0.318836	0.398536
C203	C	1.328314	0.568836	0.648536
C204	C	1.578314	0.818836	0.898536
C205	C	0.827234	0.068840	0.221359
C206	C	1.077234	0.318840	0.471359
C207	C	1.327234	0.568840	0.721359
C208	C	1.577234	0.818840	0.971359
C209	C	0.826690	0.000215	0.257783
C210	C	1.076690	0.250215	0.507783
C211	C	1.326690	0.500215	0.757783
C212	C	1.576690	0.750215	1.007783
C213	C	0.827207	-0.068420	0.221377
C214	C	1.077207	0.181580	0.471377
C215	C	1.327207	0.431580	0.721377
C216	C	1.577207	0.681580	0.971377
C217	C	0.828279	-0.068423	0.148554
C218	C	1.078279	0.181577	0.398554
C219	C	1.328279	0.431577	0.648554
C220	C	1.578279	0.681577	0.898554
N221	N	0.864731	-0.050852	0.377448
N222	N	1.114731	0.199148	0.627448
N223	N	1.364731	0.449148	0.877448
N224	N	1.614731	0.699148	1.127448
N225	N	0.863714	-0.050844	0.446626
N226	N	1.113714	0.199156	0.696626
N227	N	1.363714	0.449156	0.946626
N228	N	1.613714	0.699156	1.196626
C229	C	0.823458	0.000220	0.477193
C230	C	1.073458	0.250220	0.727193
C231	C	1.323458	0.500220	0.977193
C232	C	1.573458	0.750220	1.227193
N233	N	0.784266	0.051288	0.435968
N234	N	1.034266	0.301288	0.685968
N235	N	1.284266	0.551288	0.935968
N236	N	1.534266	0.801288	1.185968
N237	N	0.785286	0.051283	0.366784
N238	N	1.035286	0.301283	0.616784
N239	N	1.285286	0.551283	0.866784
N240	N	1.535286	0.801283	1.116784
C241	C	0.825527	0.000211	0.336747
C242	C	1.075527	0.250211	0.586747
C243	C	1.325527	0.500211	0.836747
C244	C	1.575527	0.750211	1.086747
C245	C	0.821765	0.068856	0.592552
C246	C	1.071765	0.318856	0.842552
C247	C	1.321765	0.568856	1.092552
C248	C	1.571765	0.818856	1.342552
C249	C	0.820682	0.068858	0.665376
C250	C	1.070682	0.318858	0.915376
C251	C	1.320682	0.568858	1.165376
C252	C	1.570682	0.818858	1.415376
C253	C	0.820661	-0.068404	0.665394
C254	C	1.070661	0.181596	0.915394
C255	C	1.320661	0.431596	1.165394
C256	C	1.570661	0.681596	1.415394
C257	C	0.821738	-0.068404	0.592571
C258	C	1.071738	0.181596	0.842571
C259	C	1.321738	0.431596	1.092571
C260	C	1.571738	0.681596	1.342571
C261	C	0.822293	0.000228	0.556155
C262	C	1.072293	0.250228	0.806155
C263	C	1.322293	0.500228	1.056155
C264	C	1.572293	0.750228	1.306155
C265	C	0.818992	0.000231	0.779300
C266	C	1.068992	0.250231	1.029300
C267	C	1.318992	0.500231	1.279300
C268	C	1.568992	0.750231	1.529300
C269	C	0.820136	0.000232	0.701795
C270	C	1.070136	0.250232	0.951795
C271	C	1.320136	0.500232	1.201795
C272	C	1.570136	0.750232	1.451795
H273	H	0.597084	0.000192	-0.212726
H274	H	0.847084	0.250192	0.037274
H275	H	1.097084	0.500192	0.287274
H276	H	1.347084	0.750192	0.537274
H277	H	0.901093	-0.813196	-0.169673
H278	H	1.151093	-0.563196	0.080327
H279	H	1.401093	-0.313196	0.330327
H280	H	1.651093	-0.063196	0.580327
Cl281	Cl	0.203890	0.000240	0.052657
Cl282	Cl	0.453890	0.250240	0.302657
Cl283	Cl	0.703890	0.500240	0.552657
Cl284	Cl	0.953890	0.750240	0.802657
H285	H	0.747882	-0.186357	-0.016374
H286	H	0.997882	0.063643	0.233626
H287	H	1.247882	0.313643	0.483626
H288	H	1.497882	0.563643	0.733626
Cl289	Cl	0.820022	0.155139	0.711133
Cl290	Cl	1.070022	0.405139	0.961133
Cl291	Cl	1.320022	0.655139	1.211133
Cl292	Cl	1.570022	0.905139	1.461133
Cl293	Cl	0.819973	-0.154677	0.711177
Cl294	Cl	1.069973	0.095323	0.961177
Cl295	Cl	1.319973	0.345323	1.211177
Cl296	Cl	1.569973	0.595323	1.461177
H297	H	0.826806	0.124726	0.250998
H298	H	1.076806	0.374726	0.500998
H299	H	1.326806	0.624726	0.750998
H300	H	1.576806	0.874726	1.000998
Cl301	Cl	0.826517	-0.154691	0.267166
Cl302	Cl	1.076517	0.095309	0.517166
Cl303	Cl	1.326517	0.345309	0.767166
Cl304	Cl	1.576517	0.595309	1.017166
H305	H	0.828701	-0.124308	0.118920
H306	H	1.078701	0.125692	0.368920
H307	H	1.328701	0.375692	0.618920
H308	H	1.578701	0.625692	0.868920
Cl309	Cl	0.919712	-0.168691	-0.188405
Cl310	Cl	1.169712	0.081309	0.061595
Cl311	Cl	1.419712	0.331309	0.311595
Cl312	Cl	1.669712	0.581309	0.561595
H313	H	0.828764	0.124721	0.118890
H314	H	1.078764	0.374721	0.368890
H315	H	1.328764	0.624721	0.618890
H316	H	1.578764	0.874721	0.868890
Cl317	Cl	0.039525	0.000267	0.055081
Cl318	Cl	0.289525	0.250267	0.305081
Cl319	Cl	0.539525	0.500267	0.555081
Cl320	Cl	0.789525	0.750267	0.805081
H321	H	0.747913	-0.669540	-0.016389
H322	H	0.997913	-0.419540	0.233611
H323	H	1.247913	-0.169540	0.483611
H324	H	1.497913	0.080460	0.733611
H325	H	0.822213	0.124741	0.562901
H326	H	1.072213	0.374741	0.812901
H327	H	1.322213	0.624741	1.062901
H328	H	1.572213	0.874741	1.312901
Cl329	Cl	0.919778	-0.651869	-0.188381
Cl330	Cl	1.169778	-0.401869	0.061619
Cl331	Cl	1.419778	-0.151869	0.311619
Cl332	Cl	1.669778	0.098131	0.561619
H333	H	0.464975	0.000206	-0.210777
H334	H	0.714975	0.250206	0.039223
H335	H	0.964975	0.500206	0.289223
H336	H	1.214975	0.750206	0.539223
Cl337	Cl	0.919744	-0.347556	-0.188385
Cl338	Cl	1.169744	-0.097556	0.061615
Cl339	Cl	1.419744	0.152444	0.311615
Cl340	Cl	1.669744	0.402444	0.561615
H341	H	0.747925	-0.813308	-0.016391
H342	H	0.997925	-0.563308	0.233609
H343	H	1.247925	-0.313308	0.483609
H344	H	1.497925	-0.063308	0.733609
Cl345	Cl	0.483536	0.000183	0.048533
Cl346	Cl	0.733536	0.250183	0.298533
Cl347	Cl	0.983536	0.500183	0.548533
Cl348	Cl	1.233536	0.750183	0.798533
Cl349	Cl	0.647906	0.000143	0.046114
Cl350	Cl	0.897906	0.250143	0.296114
Cl351	Cl	1.147906	0.500143	0.546114
Cl352	Cl	1.397906	0.750143	0.796114
H353	H	0.153073	0.000265	-0.206182
H354	H	0.403073	0.250265	0.043818
H355	H	0.653073	0.500265	0.293818
H356	H	0.903073	0.750265	0.543818
Cl357	Cl	0.001062	0.000293	-0.232176
Cl358	Cl	0.251062	0.250293	0.017824
Cl359	Cl	0.501062	0.500293	0.267824
Cl360	Cl	0.751062	0.750293	0.517824
H361	H	0.822168	-0.124287	0.562936
H362	H	1.072168	0.125713	0.812936
H363	H	1.322168	0.375713	1.062936
H364	H	1.572168	0.625713	1.312936
H365	H	0.747892	-0.330129	-0.016386
H366	H	0.997892	-0.080129	0.233614
H367	H	1.247892	0.169871	0.483614
H368	H	1.497892	0.419871	0.733614
