data_functionalizedCrystal
_audit_creation_method	'MofGen! by Chris Wilmer'
_symmetry_space_group_name_H-M	'P1'
_symmetry_Int_Tables_number	1
_symmetry_cell_setting	triclinic
loop_
_symmetry_equiv_pos_as_xyz
  x,y,z
_cell_length_a	17.077404
_cell_length_b	21.395361
_cell_length_c	17.077396
_cell_angle_alpha	89.966749
_cell_angle_beta	89.980499
_cell_angle_gamma	90.030933
loop_
_atom_site_label
_atom_site_type_symbol
_atom_site_fract_x
_atom_site_fract_y
_atom_site_fract_z
Zn1	Zn	1.200012	-0.249435	-0.443817
Zn2	Zn	1.199901	-0.354216	-0.312540
Zn3	Zn	1.068744	-0.249457	-0.312565
Zn4	Zn	1.068694	-0.354179	-0.443763
O5	O	1.134338	-0.301822	-0.378171
O6	O	1.309844	-0.263341	-0.426414
O7	O	1.182477	-0.340344	-0.202696
O8	O	1.086224	-0.161776	-0.330008
O9	O	1.309763	-0.340323	-0.329966
O10	O	1.182666	-0.161760	-0.426439
O11	O	1.086117	-0.263378	-0.202714
O12	O	0.958890	-0.263342	-0.329957
O13	O	1.086139	-0.340260	-0.553617
O14	O	0.958854	-0.340281	-0.426348
O15	O	1.182618	-0.263305	-0.553657
O16	O	1.182429	-0.441889	-0.329914
O17	O	1.086031	-0.441862	-0.426324
C18	C	0.930390	-0.301810	-0.378149
C19	C	0.843140	-0.301821	-0.378159
C20	C	1.134234	-0.464609	-0.378127
C21	C	1.134262	-0.534251	-0.378135
C22	C	0.802151	-0.341943	-0.428269
C23	C	0.720171	-0.341944	-0.428282
C24	C	0.679181	-0.301826	-0.378179
C25	C	0.720175	-0.261699	-0.328067
C26	C	0.802154	-0.261695	-0.328059
C27	C	0.549305	-0.261711	-0.328086
C28	C	0.467320	-0.261716	-0.328092
C29	C	0.467322	-0.341961	-0.428309
C30	C	0.549301	-0.341957	-0.428301
C31	C	0.590290	-0.301830	-0.378187
C32	C	1.184500	-0.566957	-0.327986
C33	C	1.184537	-0.632392	-0.328004
C34	C	1.134321	-0.665119	-0.378162
C35	C	1.084078	-0.632404	-0.428321
C36	C	1.084049	-0.566970	-0.428307
C37	C	1.063641	-0.768833	-0.384313
C38	C	1.063669	-0.834266	-0.384321
C39	C	1.134412	-0.866940	-0.378208
C40	C	1.205129	-0.834172	-0.372070
C41	C	1.205099	-0.768738	-0.372057
C42	C	1.134347	-0.736071	-0.378182
C43	C	1.184694	-0.970599	-0.328075
C44	C	1.184732	-1.036035	-0.328098
C45	C	1.084267	-1.036046	-0.428411
C46	C	1.084236	-0.970611	-0.428392
C47	C	1.134449	-0.937891	-0.378220
C48	C	1.339082	-0.301833	-0.378193
C49	C	1.426332	-0.301839	-0.378203
C50	C	1.134385	-0.301775	-0.582915
C51	C	1.134405	-0.301756	-0.670165
C52	C	1.134463	-0.138398	-0.378232
C53	C	1.134517	-0.068757	-0.378258
C54	C	1.184644	-0.261682	-0.711177
C55	C	1.184653	-0.261661	-0.793158
C56	C	1.134428	-0.301718	-0.834125
C57	C	1.084184	-0.341793	-0.793107
C58	C	1.084171	-0.341811	-0.711128
C59	C	1.084215	-0.341756	-0.963977
C60	C	1.084229	-0.341739	-1.045962
C61	C	1.184698	-0.261606	-1.046007
C62	C	1.184685	-0.261623	-0.964028
C63	C	1.134442	-0.301700	-0.923016
C64	C	1.134336	-0.301822	-0.174223
C65	C	1.134467	-0.301666	-0.086974
H66	H	0.835520	-0.374614	-0.469066
H67	H	1.225647	-1.062664	-0.287263
O68	O	0.676043	-0.385278	-0.482323
H69	H	0.638718	-0.357345	-0.522393
H70	H	1.043290	-0.374380	-0.930588
O71	O	0.423180	-0.385332	-0.482298
H72	H	0.438942	-0.374725	-0.543952
H73	H	0.582676	-0.229031	-0.287285
H74	H	0.582673	-0.374628	-0.469094
O75	O	1.030099	-1.071333	-0.482510
H76	H	1.038555	-1.122329	-0.474091
O77	O	0.675964	-0.218426	-0.274030
H78	H	0.718241	-0.190521	-0.239190
O79	O	1.281443	-0.869395	-0.365473
H80	H	1.289450	-0.899162	-0.418076
O81	O	1.030044	-0.384930	-1.090152
H82	H	1.065149	-0.416808	-1.127495
O83	O	1.238847	-0.218442	-0.837390
H84	H	1.203749	-0.186547	-0.874740
H85	H	1.225587	-0.229009	-0.930675
O86	O	0.987334	-0.733597	-0.390908
H87	H	0.979346	-0.703819	-0.338312
H88	H	1.043286	-0.374406	-0.826469
H89	H	1.262678	-0.742060	-0.367061
H90	H	0.433948	-0.229041	-0.287304
O91	O	1.238890	-0.218379	-1.090235
H92	H	1.225470	-0.169208	-1.074508
O93	O	0.846370	-0.218428	-0.274003
H94	H	0.804096	-0.190537	-0.239156
H95	H	1.043254	-0.374436	-0.677737
H96	H	1.006087	-0.860941	-0.389311
H97	H	1.043194	-0.659054	-0.469161
H98	H	1.043138	-0.540340	-0.469145
O99	O	1.238669	-0.531669	-0.273884
H100	H	1.225253	-0.544277	-0.212266
O101	O	1.238717	-0.667681	-0.273906
H102	H	1.273623	-0.633936	-0.239013
H103	H	1.225583	-0.943957	-0.287224
O104	O	1.030030	-0.935327	-0.482461
H105	H	0.995107	-0.969075	-0.517335
O106	O	1.238816	-0.218478	-0.666992
H107	H	1.273746	-0.190605	-0.709286
