data_functionalizedCrystal
_audit_creation_method	'MofGen! by Chris Wilmer'
_symmetry_space_group_name_H-M	'P1'
_symmetry_Int_Tables_number	1
_symmetry_cell_setting	triclinic
loop_
_symmetry_equiv_pos_as_xyz
  x,y,z
_cell_length_a	27.732048
_cell_length_b	19.188930
_cell_length_c	17.666332
_cell_angle_alpha	90.011603
_cell_angle_beta	90.003861
_cell_angle_gamma	82.893719
loop_
_atom_site_label
_atom_site_type_symbol
_atom_site_fract_x
_atom_site_fract_y
_atom_site_fract_z
O1	O	-0.641184	-0.083079	-0.062859
O2	O	-0.500430	-0.095711	-0.062883
O3	O	-0.574869	0.012286	-0.062856
O4	O	-0.566745	-0.191077	-0.062887
O5	O	-0.574856	0.012292	0.063041
O6	O	-0.500417	-0.095706	0.063014
O7	O	-0.641171	-0.083074	0.063038
Cu8	Cu	-0.570793	-0.089389	0.074521
Cu9	Cu	-0.570808	-0.089396	-0.074367
O10	O	-0.566732	-0.191071	0.063010
C11	C	-0.574599	0.038299	0.000095
C12	C	-0.573810	0.115798	0.000101
C13	C	-0.482415	-0.095443	0.000062
C14	C	-0.428758	-0.094645	0.000054
C15	C	-0.659186	-0.083341	0.000090
C16	C	-0.712843	-0.084140	0.000094
C17	C	-0.090123	-0.153438	0.000078
C18	C	0.111546	-0.150475	0.000085
O19	O	0.142637	-0.204237	0.000109
N20	N	0.130866	-0.086437	0.000093
C21	C	0.099764	-0.023135	0.000105
O22	O	0.120824	0.031401	0.000120
C23	C	-0.101903	-0.026098	0.000103
C24	C	-0.121220	-0.090140	0.000087
C25	C	-0.109440	-0.217475	0.000062
C26	C	-0.159854	-0.218215	0.000056
C27	C	-0.190951	-0.154917	0.000066
C28	C	-0.171634	-0.090880	0.000081
C29	C	-0.133003	0.037203	0.000120
C30	C	-0.183423	0.036457	0.000121
C31	C	-0.202740	-0.027586	0.000105
C32	C	-0.253145	-0.028323	0.000084
N33	N	-0.272465	-0.092361	0.000076
C34	C	-0.241368	-0.155658	0.000067
C35	C	0.205643	-0.021584	0.000104
C36	C	0.256060	-0.020843	0.000103
C37	C	0.267838	-0.148183	0.000085
C38	C	0.217420	-0.148923	0.000080
C39	C	0.186324	-0.085622	0.000096
C40	C	-0.347242	-0.157208	0.000054
C41	C	-0.397661	-0.157942	0.000044
C42	C	-0.409435	-0.030602	0.000067
C43	C	-0.359020	-0.029867	0.000072
C44	C	-0.327924	-0.093176	0.000068
O45	O	-0.284265	0.025410	0.000068
O46	O	-0.262437	-0.210187	0.000068
C47	C	-0.039708	-0.152698	0.000084
C48	C	-0.020391	-0.088661	0.000099
C49	C	-0.051489	-0.025363	0.000108
C50	C	0.030025	-0.087920	0.000098
C51	C	0.061122	-0.151217	0.000089
C52	C	0.041803	-0.215255	0.000080
C53	C	-0.008611	-0.215995	0.000074
C54	C	-0.032169	0.038675	0.000116
C55	C	0.018246	0.039409	0.000122
C56	C	0.049343	-0.023888	0.000112
C57	C	-0.567002	-0.217083	0.000058
C58	C	-0.567791	-0.294583	0.000047
N59	N	-0.570786	-0.089384	0.179240
C60	C	-0.617488	0.161001	0.000112
C61	C	-0.616746	0.233820	0.000100
C62	C	-0.572323	0.261433	0.000092
C63	C	-0.528639	0.216220	0.000077
C64	C	-0.529382	0.143403	0.000081
N65	N	-0.538363	0.369223	0.042931
N66	N	-0.537660	0.438397	0.042928
C67	C	-0.570081	0.480827	0.000076
N68	N	-0.603240	0.451471	-0.042764
N69	N	-0.603944	0.382291	-0.042757
C70	C	-0.571512	0.340390	0.000086
C71	C	-0.612959	0.604989	0.000073
C72	C	-0.612215	0.677809	0.000056
C73	C	-0.524106	0.660208	0.000040
C74	C	-0.524851	0.587390	0.000049
C75	C	-0.569279	0.559785	0.000069
N76	N	-0.570819	-0.089395	-0.179086
C77	C	-0.603758	-0.041586	0.218862
C78	C	-0.603761	-0.041582	0.298110
C79	C	-0.570796	-0.089389	0.337733
C80	C	-0.537817	-0.137191	0.298101
C81	C	-0.537812	-0.137188	0.218855
N82	N	-0.564512	-0.151237	0.462141
N83	N	-0.564520	-0.151237	0.537422
C84	C	-0.570808	-0.089399	0.576497
N85	N	-0.577098	-0.027558	0.537447
N86	N	-0.577093	-0.027559	0.462160
C87	C	-0.570797	-0.089397	0.423662
C88	C	-0.603786	-0.041593	0.702048
C89	C	-0.603785	-0.041589	0.781297
C90	C	-0.537844	-0.137203	0.781286
C91	C	-0.537842	-0.137202	0.702039
C92	C	-0.570816	-0.089397	0.662424
H93	H	-0.413385	-0.210095	0.000031
O94	O	-0.505754	-0.183575	0.819732
C95	C	-0.457931	-0.172711	0.800365
H96	H	-0.457814	-0.116811	0.778596
H97	H	-0.433658	-0.180985	0.852484
H98	H	-0.443649	-0.211551	0.754359
H99	H	-0.321929	-0.208759	0.000053
H100	H	-0.510961	-0.176112	0.186594
H101	H	-0.653664	0.138530	0.000126
H102	H	-0.343292	0.022281	0.000074
O103	O	-0.505729	-0.183562	0.336554
C104	C	-0.457905	-0.172694	0.317194
H105	H	-0.457790	-0.116793	0.295424
H106	H	-0.433635	-0.180965	0.369315
H107	H	-0.443620	-0.211534	0.271189
H108	H	-0.630633	-0.002665	0.669792
O109	O	-0.505884	-0.183671	0.663464
C110	C	-0.531676	-0.226499	0.617625
H111	H	-0.569556	-0.198310	0.605749
H112	H	-0.511475	-0.237749	0.561901
H113	H	-0.534854	-0.278068	0.648154
H114	H	-0.487936	0.682690	0.000030
H115	H	-0.630634	-0.002662	0.813558
O116	O	-0.659222	0.277641	0.000147
C117	C	-0.698593	0.237661	0.000143
H118	H	-0.686207	0.183178	0.023975
H119	H	-0.729181	0.264864	0.036704
H120	H	-0.712228	0.232612	-0.060251
H121	H	-0.493813	0.106598	0.000072
H122	H	-0.084125	-0.269022	0.000058
O123	O	-0.178534	-0.280487	0.000084
C124	C	-0.140268	-0.336188	0.000060
H125	H	-0.106058	-0.316982	0.023895
H126	H	-0.150707	-0.380931	0.036610
H127	H	-0.133095	-0.355693	-0.060340
H128	H	-0.492469	0.238708	0.000068
O129	O	-0.656155	0.578285	0.000045
C130	C	-0.694550	0.633801	0.000061
H131	H	-0.681106	0.683123	-0.023778
H132	H	-0.725575	0.618907	-0.036489
H133	H	-0.708014	0.644265	0.060459
O134	O	-0.654634	0.721749	-0.000071
C135	C	-0.656846	0.764389	-0.065270
H136	H	-0.632077	0.737440	-0.110847
H137	H	-0.695803	0.772989	-0.087145
H138	H	-0.644447	0.817217	-0.050540
H139	H	0.201697	-0.201072	0.000071
O140	O	-0.482377	0.543575	0.000082
C141	C	-0.443008	0.583559	0.000053
H142	H	-0.455390	0.638051	0.023886
H143	H	-0.412409	0.556374	0.036602
H144	H	-0.429389	0.588583	-0.060349
H145	H	-0.630606	-0.002659	0.186610
H146	H	0.293166	-0.199722	0.000077
H147	H	0.180328	0.029967	0.000117
O148	O	0.274741	0.041429	0.000143
C149	C	0.236476	0.097133	0.000134
H150	H	0.202267	0.077934	0.023965
H151	H	0.246921	0.141880	0.036693
H152	H	0.229300	0.116628	-0.060262
O153	O	-0.114306	0.099460	0.000041
C154	C	-0.130206	0.138007	-0.065160
H155	H	-0.165132	0.119354	-0.086910
H156	H	-0.137331	0.196225	-0.050476
H157	H	-0.101014	0.129614	-0.110817
O158	O	-0.213679	0.097904	0.000032
C159	C	-0.243186	0.101296	-0.065183
H160	H	-0.245627	0.045906	-0.086933
H161	H	-0.281132	0.127725	-0.050517
H162	H	-0.226661	0.132999	-0.110832
O163	O	-0.635813	0.004755	0.336689
C164	C	-0.665561	-0.032348	0.382494
H165	H	-0.646190	-0.087174	0.394357
H166	H	-0.673277	-0.003131	0.438226
H167	H	-0.701270	-0.036740	0.351941
H168	H	0.033968	0.091564	0.000129
O169	O	-0.439697	0.030836	-0.000023
C170	C	-0.469207	0.034222	-0.065234
H171	H	-0.471640	-0.021168	-0.086989
H172	H	-0.507155	0.060638	-0.050562
H173	H	-0.452690	0.065936	-0.110883
O174	O	-0.027291	-0.278268	0.000097
C175	C	0.010975	-0.333968	0.000071
H176	H	0.045184	-0.314764	0.023910
H177	H	0.000534	-0.378713	0.036616
H178	H	0.018148	-0.353469	-0.060330
H179	H	-0.057484	0.090220	0.000126
O180	O	0.072065	-0.276697	-0.000029
C181	C	0.101572	-0.280086	-0.065239
H182	H	0.104004	-0.224695	-0.086971
H183	H	0.139520	-0.306501	-0.050574
H184	H	0.085053	-0.311800	-0.110902
