data_functionalizedCrystal
_audit_creation_method	'MofGen! by Chris Wilmer'
_symmetry_space_group_name_H-M	'P1'
_symmetry_Int_Tables_number	1
_symmetry_cell_setting	triclinic
loop_
_symmetry_equiv_pos_as_xyz
  x,y,z
_cell_length_a	25.639242
_cell_length_b	12.759400
_cell_length_c	12.759393
_cell_angle_alpha	90.031564
_cell_angle_beta	89.970128
_cell_angle_gamma	89.990414
loop_
_atom_site_label
_atom_site_type_symbol
_atom_site_fract_x
_atom_site_fract_y
_atom_site_fract_z
Zn1	Zn	0.799355	0.418347	-0.594300
Zn2	Zn	0.799303	0.594066	-0.418620
Zn3	Zn	0.711919	0.418386	-0.418605
Zn4	Zn	0.711913	0.593969	-0.594227
O5	O	0.755622	0.506192	-0.506438
O6	O	0.872513	0.441681	-0.571033
O7	O	0.787691	0.570818	-0.271597
O8	O	0.723542	0.271360	-0.441935
O9	O	0.872475	0.570781	-0.441962
O10	O	0.787781	0.271331	-0.571018
O11	O	0.723491	0.441747	-0.271586
O12	O	0.638753	0.441653	-0.441864
O13	O	0.723532	0.570615	-0.741258
O14	O	0.638749	0.570653	-0.570893
O15	O	0.787775	0.441587	-0.741312
O16	O	0.787686	0.741074	-0.441891
O17	O	0.723481	0.741003	-0.570908
C18	C	0.755591	0.779159	-0.506416
C19	C	0.755626	0.895936	-0.506442
C20	C	0.619780	0.506148	-0.506370
C21	C	0.561666	0.506154	-0.506365
C22	C	0.310466	0.438909	-0.439369
C23	C	0.365070	0.438900	-0.439356
O24	O	0.393301	0.381664	-0.382334
N25	N	0.392392	0.506167	-0.506418
C26	C	0.365107	0.573441	-0.573506
O27	O	0.393360	0.630655	-0.630547
C28	C	0.310503	0.573444	-0.573524
C29	C	0.283184	0.506180	-0.506449
C30	C	0.283147	0.371650	-0.372301
C31	C	0.228546	0.371661	-0.372313
C32	C	0.201265	0.438932	-0.439393
C33	C	0.228584	0.506192	-0.506462
C34	C	0.283219	0.640712	-0.640616
C35	C	0.228612	0.640709	-0.640629
C36	C	0.201293	0.573445	-0.573554
C37	C	0.146702	0.573474	-0.573554
N38	N	0.119380	0.506207	-0.506492
C39	C	0.146661	0.438936	-0.439411
C40	C	0.479777	0.573427	-0.573465
C41	C	0.534380	0.573429	-0.573442
C42	C	0.534339	0.438887	-0.439293
C43	C	0.479736	0.438890	-0.439311
C44	C	0.452455	0.506159	-0.506402
C45	C	0.031996	0.438965	-0.439441
C46	C	-0.022609	0.438986	-0.439456
C47	C	-0.022564	0.573524	-0.573609
C48	C	0.032037	0.573508	-0.573591
C49	C	0.059315	0.506220	-0.506503
O50	O	0.118436	0.630677	-0.630550
O51	O	0.118401	0.381721	-0.382389
C52	C	0.755659	0.506086	-0.780471
C53	C	0.755675	0.506041	-0.897248
C54	C	0.891995	0.506237	-0.506507
C55	C	0.950109	0.506257	-0.506537
C56	C	0.755668	0.232159	-0.506483
C57	C	0.755687	0.115382	-0.506502
C58	C	0.789094	0.950800	-0.439337
C59	C	0.789126	1.060524	-0.439369
C60	C	0.722217	1.060510	-0.573615
C61	C	0.722188	0.950788	-0.573587
C62	C	0.827722	0.950809	-0.361828
C63	C	0.827754	1.060533	-0.361860
C64	C	0.789131	0.438849	-0.952140
C65	C	0.789143	0.438811	-1.061864
C66	C	0.722242	0.573166	-1.061795
C67	C	0.722227	0.573197	-0.952073
C68	C	0.827757	0.361284	-0.952181
C69	C	0.827770	0.361246	-1.061905
C70	C	0.755616	0.506222	-0.233471
C71	C	0.755702	0.505971	-0.116695
H72	H	-0.044850	0.384210	-0.384833
Cl73	Cl	0.805326	0.241945	-1.114473
Cl74	Cl	0.194210	0.287084	-0.287998
H75	H	0.054200	0.384168	-0.384817
Cl76	Cl	0.317433	0.287068	-0.287960
H77	H	0.868264	0.383046	-1.091699
H78	H	0.457496	0.384114	-0.384696
Cl79	Cl	0.680158	0.657653	-0.883069
Cl80	Cl	0.568646	0.354316	-0.354963
H81	H	0.816937	1.090394	-0.280475
Cl82	Cl	0.568717	0.658008	-0.657753
H83	H	0.457569	0.628214	-0.628096
H84	H	0.054281	0.628288	-0.628200
Cl85	Cl	0.680196	0.657587	-1.130725
Cl86	Cl	0.194320	0.725280	-0.724980
Cl87	Cl	0.317550	0.725276	-0.724946
H88	H	0.816924	0.279918	-0.922421
Cl89	Cl	-0.056871	0.658102	-0.657921
H90	H	0.866212	0.390459	-0.918160
Cl91	Cl	0.680120	0.881819	-0.657967
H92	H	0.694994	1.105184	-0.628283
H93	H	0.868203	0.920959	-0.383695
H94	H	0.813228	0.916859	-0.284496
H95	H	0.866225	1.094485	-0.391087
