data_functionalizedCrystal
_audit_creation_method	'MofGen! by Chris Wilmer'
_symmetry_space_group_name_H-M	'P1'
_symmetry_Int_Tables_number	1
_symmetry_cell_setting	triclinic
loop_
_symmetry_equiv_pos_as_xyz
  x,y,z
_cell_length_a	10.654550
_cell_length_b	10.540539
_cell_length_c	9.730223
_cell_angle_alpha	90.000775
_cell_angle_beta	89.996251
_cell_angle_gamma	84.505197
loop_
_atom_site_label
_atom_site_type_symbol
_atom_site_fract_x
_atom_site_fract_y
_atom_site_fract_z
O1	O	1.667897	0.178295	-0.114396
O2	O	1.302424	0.195282	-0.114373
O3	O	1.493499	0.002079	-0.114383
O4	O	1.476822	0.371498	-0.114386
O5	O	1.493496	0.002084	0.114197
O6	O	1.302422	0.195287	0.114207
O7	O	1.667895	0.178300	0.114184
Zn8	Zn	1.485158	0.186794	0.150487
Zn9	Zn	1.485161	0.186788	-0.150677
O10	O	1.476820	0.371503	0.114194
C11	C	1.255625	0.194038	-0.000080
C12	C	1.116180	0.190306	-0.000072
C13	C	1.036734	0.304061	-0.000093
C14	C	0.905712	0.300547	-0.000116
C15	C	0.933595	0.069513	-0.000104
C16	C	1.064614	0.073028	-0.000071
C17	C	1.020636	0.437446	-0.000106
C18	C	0.889614	0.433932	-0.000129
C19	C	1.492247	-0.045221	-0.000096
C20	C	1.488505	-0.186168	-0.000103
C21	C	1.345134	-0.369543	-0.000607
C22	C	1.348927	-0.222926	-0.000093
C23	C	1.555675	-0.247847	0.130423
C24	C	1.550912	-0.394389	0.130533
C25	C	1.553753	-0.394914	-0.129405
C26	C	1.555039	-0.247933	-0.131131
C27	C	1.714694	0.179545	-0.000112
C28	C	1.854139	0.183276	-0.000129
C29	C	1.478072	0.418803	-0.000096
C30	C	1.481813	0.559750	-0.000098
N31	N	1.485165	0.186798	0.356024
N32	N	1.485164	0.186774	-0.356213
C33	C	1.569795	0.101277	0.427945
C34	C	1.569791	0.101261	0.571828
C35	C	1.400525	0.272299	0.571855
C36	C	1.400523	0.272308	0.427975
C37	C	1.667523	0.002533	0.427931
C38	C	1.667520	0.002518	0.571814
H39	H	1.049984	0.489615	0.095560
H40	H	1.505891	-0.207059	-0.227690
H41	H	1.331611	0.341918	0.630454
H42	H	1.646046	-0.095040	0.388879
H43	H	1.654570	-0.442176	-0.130289
C44	C	1.151730	-0.195740	0.120810
C45	C	1.277093	-0.166525	0.126450
H46	H	1.107389	-0.160928	0.198945
H47	H	1.113105	-0.160470	0.039637
H48	H	1.149680	-0.285638	0.120047
H49	H	1.279144	-0.076627	0.127203
H50	H	1.315728	-0.201790	0.207645
H51	H	1.129295	-0.019602	-0.000034
H52	H	1.758718	0.033451	0.383299
H53	H	1.658178	-0.225529	0.135270
H54	H	1.651295	-0.442394	0.136449
C55	C	0.921107	0.527682	0.220595
C56	C	0.827963	0.488355	0.133081
H57	H	0.883041	0.561283	0.302827
H58	H	0.979830	0.456903	0.242023
H59	H	0.963602	0.591548	0.176288
H60	H	0.785473	0.424481	0.177384
H61	H	0.769217	0.559142	0.111655
C62	C	1.153702	0.404574	-0.198570
C63	C	1.068805	0.494787	-0.133320
H64	H	1.183434	0.439972	-0.280815
H65	H	1.222878	0.381467	-0.139182
H66	H	1.112360	0.331110	-0.219986
H67	H	1.110150	0.568248	-0.111895
H68	H	0.999617	0.517912	-0.192721
H69	H	1.331600	0.341935	0.369418
H70	H	0.847900	0.484188	-0.095797
H71	H	1.289998	-0.398125	-0.094209
C72	C	1.503956	-0.138480	0.587586
C73	C	1.626324	-0.121977	0.632037
H74	H	1.478537	-0.215345	0.624756
H75	H	1.447785	-0.068626	0.617771
H76	H	1.502565	-0.142683	0.490083
H77	H	1.627713	-0.117764	0.729541
H78	H	1.682510	-0.191849	0.601860
H79	H	1.764039	0.024268	0.610858
C80	C	1.367155	-0.384790	-0.268842
C81	C	1.492773	-0.437476	-0.262966
H82	H	1.329504	-0.411060	-0.351297
H83	H	1.322350	-0.413118	-0.192081
H84	H	1.364422	-0.294458	-0.267157
H85	H	1.495505	-0.527809	-0.264640
H86	H	1.537589	-0.409155	-0.339747
C87	C	1.280895	-0.032898	-0.126196
C88	C	1.277599	-0.165381	-0.126414
H89	H	1.236869	0.002619	-0.204193
H90	H	1.242043	0.001764	-0.044860
H91	H	1.366013	-0.013232	-0.129409
H92	H	1.192481	-0.185047	-0.123190
H93	H	1.316447	-0.200055	-0.207771
C94	C	1.448382	-0.323276	0.340316
C95	C	1.483880	-0.432439	0.262247
H96	H	1.406990	-0.346763	0.421626
H97	H	1.521274	-0.282827	0.364155
H98	H	1.392791	-0.266212	0.288117
H99	H	1.539479	-0.489499	0.314442
H100	H	1.410978	-0.472907	0.238410
C101	C	0.745130	-0.038461	-0.000150
C102	C	0.876908	-0.059394	-0.000117
H103	H	0.710139	-0.118047	-0.000168
H104	H	0.717919	0.008418	0.079551
H105	H	0.717962	0.008426	-0.079872
H106	H	0.904076	-0.106273	0.079610
H107	H	0.904130	-0.106294	-0.079826
H108	H	1.290221	-0.399729	0.092477
H109	H	1.509014	-0.205228	0.227563
H110	H	1.656802	-0.223748	-0.139019
