data_functionalizedCrystal
_audit_creation_method	'MofGen! by Chris Wilmer'
_symmetry_space_group_name_H-M	'P1'
_symmetry_Int_Tables_number	1
_symmetry_cell_setting	triclinic
loop_
_symmetry_equiv_pos_as_xyz
  x,y,z
_cell_length_a	12.759401
_cell_length_b	12.759399
_cell_length_c	12.759393
_cell_angle_alpha	90.026988
_cell_angle_beta	90.022497
_cell_angle_gamma	90.015165
loop_
_atom_site_label
_atom_site_type_symbol
_atom_site_fract_x
_atom_site_fract_y
_atom_site_fract_z
Zn1	Zn	-1.606269	0.418192	-0.594089
Zn2	Zn	-1.106269	0.918192	-0.094089
Zn3	Zn	-1.606161	0.593908	-0.418420
Zn4	Zn	-1.106161	1.093908	0.081580
Zn5	Zn	-1.430568	0.418246	-0.418420
Zn6	Zn	-0.930568	0.918246	0.081580
Zn7	Zn	-1.430561	0.593832	-0.594053
Zn8	Zn	-0.930561	1.093832	-0.094053
O9	O	-1.518390	0.506045	-0.506246
O10	O	-1.018390	1.006045	-0.006246
O11	O	-1.753276	0.441511	-0.570802
O12	O	-1.253276	0.941511	-0.070802
O13	O	-1.582826	0.570660	-0.271399
O14	O	-1.082826	1.070660	0.228601
O15	O	-1.453923	0.271218	-0.441738
O16	O	-0.953923	0.771218	0.058262
O17	O	-1.753196	0.570608	-0.441739
O18	O	-1.253196	1.070608	0.058261
O19	O	-1.583010	0.271178	-0.570802
O20	O	-1.083010	0.771178	-0.070802
O21	O	-1.453818	0.441602	-0.271399
O22	O	-0.953818	0.941602	0.228601
O23	O	-1.283546	0.441529	-0.441702
O24	O	-0.783546	0.941529	0.058298
O25	O	-1.453911	0.570479	-0.741079
O26	O	-0.953911	1.070479	-0.241079
O27	O	-1.283541	0.570531	-0.570739
O28	O	-0.783541	1.070531	-0.070739
O29	O	-1.583003	0.441437	-0.741106
O30	O	-1.083003	0.941437	-0.241106
O31	O	-1.582819	0.740919	-0.441703
O32	O	-1.082819	1.240919	0.058297
O33	O	-1.453806	0.740863	-0.570740
O34	O	-0.953806	1.240863	-0.070740
C35	C	-1.245422	0.506029	-0.506217
C36	C	-0.745422	1.006029	-0.006217
C37	C	-1.128646	0.506047	-0.506230
C38	C	-0.628646	1.006047	-0.006230
C39	C	-1.073809	0.573320	-0.573312
C40	C	-0.573809	1.073320	-0.073312
C41	C	-0.964084	0.573323	-0.573330
C42	C	-0.464084	1.073323	-0.073330
C43	C	-0.964044	0.438776	-0.439175
C44	C	-0.464044	0.938776	0.060825
C45	C	-1.073766	0.438769	-0.439163
C46	C	-0.573766	0.938769	0.060837
C47	C	-1.518329	0.779012	-0.506240
C48	C	-1.018329	1.279012	-0.006240
C49	C	-1.518399	0.895789	-0.506273
C50	C	-1.018399	1.395789	-0.006273
C51	C	-0.792423	0.506059	-0.506268
C52	C	-0.292423	1.006059	-0.006268
C53	C	-0.909200	0.506057	-0.506260
C54	C	-0.409200	1.006057	-0.006260
C55	C	-1.518468	0.505944	-0.780279
C56	C	-1.018468	1.005944	-0.280279
C57	C	-1.518502	0.505901	-0.897056
C58	C	-1.018502	1.005901	-0.397056
C59	C	-1.585715	1.060376	-0.439202
C60	C	-1.085715	1.560376	0.060798
C61	C	-1.585652	0.950652	-0.439162
C62	C	-1.085652	1.450652	0.060838
C63	C	-1.451198	0.950655	-0.573421
C64	C	-0.951198	1.450655	-0.073421
C65	C	-1.451257	1.060377	-0.573454
C66	C	-0.951257	1.560377	-0.073454
C67	C	-1.518480	1.232011	-0.506289
C68	C	-1.018480	1.732011	-0.006289
C69	C	-1.518521	1.115235	-0.506346
C70	C	-1.018521	1.615235	-0.006346
C71	C	-1.585725	0.438698	-0.951933
C72	C	-1.085725	0.938698	-0.451933
C73	C	-1.585743	0.438653	-1.061658
C74	C	-1.085743	0.938653	-0.561658
C75	C	-1.451311	0.573022	-1.061617
C76	C	-0.951311	1.073022	-0.561617
C77	C	-1.451289	0.573061	-0.951895
C78	C	-0.951289	1.073061	-0.451895
C79	C	-1.518372	0.506069	-0.233278
C80	C	-1.018372	1.006069	0.266722
C81	C	-1.518542	0.505816	-0.116502
C82	C	-1.018542	1.005816	0.383498
H83	H	-0.919348	0.384003	-0.384569
H84	H	-0.419348	0.884003	0.115431
O85	O	-1.658137	0.891479	-0.366754
O86	O	-1.158137	1.391479	0.133246
H87	H	-1.640188	0.912622	-0.284285
H88	H	-1.140188	1.412622	0.215715
H89	H	-0.919441	0.628102	-0.627957
H90	H	-0.419441	1.128102	-0.127957
H91	H	-1.396535	1.105045	-0.628133
H92	H	-0.896535	1.605045	-0.128133
H93	H	-1.118488	0.628099	-0.627925
H94	H	-0.618488	1.128099	-0.127925
O95	O	-1.658207	0.366257	-0.892780
O96	O	-1.158207	0.866257	-0.392780
H97	H	-1.704946	0.319512	-0.949379
H98	H	-1.204946	0.819512	-0.449379
H99	H	-1.396434	0.905980	-0.628060
H100	H	-0.896434	1.405980	-0.128060
H101	H	-1.640486	1.105037	-0.384558
H102	H	-1.140486	1.605037	0.115442
H103	H	-1.640481	0.383928	-1.106334
H104	H	-1.140481	0.883928	-0.606334
O105	O	-1.378820	0.645460	-1.120762
O106	O	-0.878820	1.145460	-0.620762
H107	H	-1.390133	0.634150	-1.206279
H108	H	-0.890133	1.134150	-0.706279
O109	O	-1.132925	0.366223	-0.366791
O110	O	-0.632925	0.866223	0.133209
H111	H	-1.076332	0.319458	-0.320140
H112	H	-0.576332	0.819458	0.179860
H113	H	-1.396540	0.627785	-0.907212
H114	H	-0.896540	1.127785	-0.407212
