data_functionalizedCrystal
_audit_creation_method	'MofGen! by Chris Wilmer'
_symmetry_space_group_name_H-M	'P1'
_symmetry_Int_Tables_number	1
_symmetry_cell_setting	triclinic
loop_
_symmetry_equiv_pos_as_xyz
  x,y,z
_cell_length_a	14.971486
_cell_length_b	12.376457
_cell_length_c	14.971494
_cell_angle_alpha	78.707853
_cell_angle_beta	83.615843
_cell_angle_gamma	101.301993
loop_
_atom_site_label
_atom_site_type_symbol
_atom_site_fract_x
_atom_site_fract_y
_atom_site_fract_z
O1	O	1.204058	0.093869	0.099461
O2	O	0.943664	0.093900	0.113414
O3	O	1.080836	0.093881	-0.023761
O4	O	1.066886	0.093888	0.236637
O5	O	1.046555	-0.094126	0.010486
O6	O	0.909383	-0.094108	0.147661
O7	O	1.169777	-0.094138	0.133708
Zn8	Zn	1.034137	-0.123973	0.146122
Zn9	Zn	1.079304	0.123735	0.101000
O10	O	1.032605	-0.094120	0.270884
C11	C	0.893200	-0.000100	0.129913
C12	C	0.793905	-0.000089	0.128040
N13	N	1.003319	-0.293027	0.176916
C14	C	0.736682	-0.000088	0.208629
C15	C	0.643379	-0.000105	0.206869
C16	C	0.607303	-0.000114	0.124518
C17	C	0.664532	-0.000118	0.043923
C18	C	0.757831	-0.000109	0.045686
C19	C	0.470067	-0.000134	0.040255
C20	C	0.376761	-0.000141	0.038492
C21	C	0.355614	-0.000130	0.201438
C22	C	0.448914	-0.000121	0.203201
C23	C	0.506137	-0.000122	0.122605
C24	C	1.181669	-0.648037	-0.001302
C25	C	1.203233	-0.529700	-0.022854
C26	C	1.153256	-0.470526	0.027086
C27	C	1.081711	-0.529700	0.098584
C28	C	1.060149	-0.648049	0.120144
C29	C	1.031737	-0.470538	0.148531
C30	C	0.960192	-0.529713	0.220029
C31	C	0.938633	-0.648050	0.241585
C32	C	0.988610	-0.707224	0.191644
C33	C	1.053299	-0.352190	0.126972
C34	C	0.931780	-0.352202	0.248417
C35	C	0.910215	-0.470539	0.269970
C36	C	1.220242	-0.000136	0.117209
C37	C	1.319539	-0.000140	0.119081
C38	C	1.063071	-0.000121	-0.039963
C39	C	1.061198	-0.000115	-0.139260
N40	N	1.110129	0.292789	0.070199
C41	C	1.079006	0.102369	-0.204573
C42	C	1.077240	0.102370	-0.297873
C43	C	1.057672	-0.000113	-0.325858
C44	C	1.039859	-0.102606	-0.260537
C45	C	1.041619	-0.102606	-0.167238
C46	C	1.036195	-0.102598	-0.455001
C47	C	1.034437	-0.102598	-0.548306
C48	C	1.071816	0.102379	-0.585636
C49	C	1.073576	0.102379	-0.492337
C50	C	1.055765	-0.000114	-0.427023
C51	C	1.050371	-0.000115	0.287085
C52	C	1.052245	-0.000113	0.386381
H53	H	0.766047	-0.000080	0.275689
H54	H	0.891085	-0.304024	0.289085
Br55	Br	1.105574	0.241462	-0.166605
Br56	Br	0.835491	-0.000120	-0.063687
H57	H	1.261485	-0.481524	-0.081066
Br58	Br	1.150394	-0.271896	0.029944
Br59	Br	0.547726	-0.000142	-0.069124
Br60	Br	1.007884	-0.241684	-0.586286
Br61	Br	0.615570	-0.000142	-0.067839
Br62	Br	1.249498	-0.728343	-0.069061
Br63	Br	1.012024	-0.241696	-0.366360
Br64	Br	0.841550	-0.728362	0.338630
Br65	Br	0.565723	-0.000101	0.316244
H66	H	1.023921	-0.186050	-0.283328
H67	H	1.086317	0.185832	-0.638820
H68	H	1.027105	-0.186059	-0.114058
H69	H	0.347391	-0.000150	-0.028565
H70	H	0.851962	-0.518734	0.328185
Br71	Br	0.497878	-0.000091	0.314961
H72	H	0.309017	-0.000133	0.267063
H73	H	1.170818	-0.374170	0.009534
H74	H	0.971050	-0.803583	0.209190
Br75	Br	1.101409	0.241463	-0.386510
Br76	Br	1.100145	0.241465	-0.454359
