data_functionalizedCrystal
_audit_creation_method	'MofGen! by Chris Wilmer'
_symmetry_space_group_name_H-M	'P1'
_symmetry_Int_Tables_number	1
_symmetry_cell_setting	triclinic
loop_
_symmetry_equiv_pos_as_xyz
  x,y,z
_cell_length_a	17.640112
_cell_length_b	18.101397
_cell_length_c	17.639306
_cell_angle_alpha	101.181650
_cell_angle_beta	87.804122
_cell_angle_gamma	101.246095
loop_
_atom_site_label
_atom_site_type_symbol
_atom_site_fract_x
_atom_site_fract_y
_atom_site_fract_z
Zn1	Zn	1.247743	-0.095188	-0.195061
Zn2	Zn	1.222001	-0.199865	-0.068079
Zn3	Zn	1.095095	-0.104960	-0.093713
Zn4	Zn	1.120713	-0.247925	-0.220648
O5	O	1.171388	-0.161985	-0.144375
O6	O	1.350601	-0.084870	-0.156780
O7	O	1.183672	-0.171252	0.034786
O8	O	1.115396	-0.000025	-0.107176
O9	O	1.331688	-0.161776	-0.063487
O10	O	1.227546	0.007155	-0.181636
O11	O	1.090435	-0.101526	0.015953
O12	O	0.992221	-0.148128	-0.131987
O13	O	1.159059	-0.243688	-0.323519
O14	O	1.011042	-0.253164	-0.225245
O15	O	1.252387	-0.131473	-0.304720
O16	O	1.208513	-0.309879	-0.088298
O17	O	1.134098	-0.345189	-0.200390
C18	C	0.974076	-0.206923	-0.184175
C19	C	0.889669	-0.226168	-0.201219
C20	C	0.563037	-0.015769	-0.014896
C21	C	0.483725	-0.033869	-0.030922
C22	C	0.503345	-0.143348	-0.127865
C23	C	0.582660	-0.125255	-0.111850
C24	C	0.612499	-0.061465	-0.055364
C25	C	0.632123	-0.170951	-0.152317
C26	C	0.711430	-0.152861	-0.136300
C27	C	0.741275	-0.089076	-0.079815
C28	C	0.691807	-0.043375	-0.039346
C29	C	0.602281	-0.234744	-0.208799
C30	C	0.651744	-0.280440	-0.249267
C31	C	0.731054	-0.262347	-0.233254
C32	C	0.760899	-0.198562	-0.176769
C33	C	0.780522	-0.308047	-0.273722
C34	C	0.859830	-0.289958	-0.257705
C35	C	0.840206	-0.180472	-0.160752
C36	C	1.171316	-0.354404	-0.144351
C37	C	1.171359	-0.436710	-0.144352
C38	C	1.171470	-0.735790	-0.144402
C39	C	1.218095	-0.682231	-0.073753
C40	C	1.218328	-0.596589	-0.073865
C41	C	1.171415	-0.587413	-0.144377
C42	C	1.209282	-0.625572	-0.220045
C43	C	1.209670	-0.711065	-0.219634
C44	C	1.086962	-0.719510	-0.140107
C45	C	1.086998	-0.633500	-0.138240
C46	C	1.171384	-0.503558	-0.144368
C47	C	1.171505	-0.819645	-0.144416
C48	C	1.369471	-0.116872	-0.104420
C49	C	1.453881	-0.097648	-0.087394
C50	C	1.211452	-0.191851	-0.342443
C51	C	1.228525	-0.204579	-0.426848
C52	C	1.171485	0.031189	-0.144411
C53	C	1.171526	0.113508	-0.144427
C54	C	1.041982	-0.064952	-0.753490
C55	C	1.058042	-0.076923	-0.832797
C56	C	1.155120	-0.149521	-0.813169
C57	C	1.139071	-0.137553	-0.733857
C58	C	1.082501	-0.095269	-0.704024
C59	C	1.179589	-0.167870	-0.684392
C60	C	1.163538	-0.155906	-0.605088
C61	C	1.106969	-0.113625	-0.575249
C62	C	1.066450	-0.083305	-0.624720
C63	C	1.236155	-0.210159	-0.714227
C64	C	1.276673	-0.240475	-0.664762
C65	C	1.260627	-0.228507	-0.585456
C66	C	1.204057	-0.186226	-0.555617
C67	C	1.301146	-0.258827	-0.535985
C68	C	1.285095	-0.246863	-0.456681
C69	C	1.188007	-0.174262	-0.476313
C70	C	1.131524	-0.132171	0.052931
C71	C	1.114598	-0.119201	0.137365
H72	H	0.627437	-0.332379	-0.295255
H73	H	1.280009	-0.692237	-0.075222
H74	H	1.271923	-0.720226	-0.225155
C75	C	0.747687	-0.378217	-0.335851
N76	N	0.722955	-0.431070	-0.382647
C77	C	0.470512	-0.213514	-0.189999
N78	N	0.445784	-0.266363	-0.236802
C79	C	1.302455	-0.553279	-0.075965
N80	N	1.365822	-0.520657	-0.077546
C81	C	0.914242	-0.340223	-0.302225
N82	N	0.955226	-0.378084	-0.335758
H83	H	1.192764	-0.569753	-0.017250
H84	H	1.178082	-0.747929	-0.273209
C85	C	1.329662	-0.280219	-0.402267
N86	N	1.363228	-0.305348	-0.361283
C87	C	1.165761	-0.619969	-0.292131
N88	N	1.132981	-0.615746	-0.346426
H89	H	1.025046	-0.052229	-0.873070
H90	H	1.055637	-0.737001	-0.086732
C91	C	1.183739	-0.702100	0.003018
N92	N	1.157859	-0.717070	0.060844
C93	C	1.039761	-0.769058	-0.209887
N94	N	1.004215	-0.806380	-0.262446
H95	H	1.270937	-0.593500	-0.225993
C96	C	0.828517	-0.069175	-0.062198
N97	N	0.894228	-0.054185	-0.048930
C98	C	1.125779	-0.127744	-0.443492
N99	N	1.078911	-0.092709	-0.418771
C100	C	1.048813	-0.599135	-0.063124
N101	N	1.020053	-0.573245	-0.006548
C102	C	1.035771	-0.626857	-0.204423
N103	N	0.997190	-0.621855	-0.254277
C104	C	1.004223	-0.036786	-0.591900
N105	N	0.957354	-0.001751	-0.567179
H106	H	1.093896	-0.103891	-0.510676
H107	H	0.995925	-0.030511	-0.729197
C108	C	1.217175	-0.196237	-0.846028
N109	N	1.263856	-0.231495	-0.870789
C110	C	0.724634	0.026800	0.022788
N111	N	0.749360	0.079652	0.069587
H112	H	1.249223	-0.219896	-0.778802
C113	C	1.338729	-0.287190	-0.697622
N114	N	1.385410	-0.322449	-0.722383
H115	H	1.347199	-0.293262	-0.560288
H116	H	0.587335	0.036184	0.031089
C117	C	0.429318	0.016406	0.013599
N118	N	0.388338	0.054272	0.047133
H119	H	0.864505	-0.128518	-0.114766
H120	H	0.537703	-0.249470	-0.221838
