data_functionalizedCrystal
_audit_creation_method	'MofGen! by Chris Wilmer'
_symmetry_space_group_name_H-M	'P1'
_symmetry_Int_Tables_number	1
_symmetry_cell_setting	triclinic
loop_
_symmetry_equiv_pos_as_xyz
  x,y,z
_cell_length_a	12.837943
_cell_length_b	15.944551
_cell_length_c	11.892095
_cell_angle_alpha	93.888509
_cell_angle_beta	85.689438
_cell_angle_gamma	89.163839
loop_
_atom_site_label
_atom_site_type_symbol
_atom_site_fract_x
_atom_site_fract_y
_atom_site_fract_z
O1	O	1.382096	0.213524	-0.093988
O2	O	1.080290	0.202737	-0.093995
O3	O	1.239434	0.086515	-0.093981
O4	O	1.222952	0.329745	-0.094002
O5	O	1.226164	0.096189	0.094025
O6	O	1.067021	0.212411	0.094012
O7	O	1.368826	0.223198	0.094018
Zn8	Zn	1.215817	0.219340	0.123865
Zn9	Zn	1.233299	0.206594	-0.123842
O10	O	1.209683	0.339419	0.094005
C11	C	1.035034	0.203930	0.000008
C12	C	0.919957	0.193062	0.000006
C13	C	0.679007	0.323714	0.000011
C14	C	0.570881	0.313507	0.000010
C15	C	0.595575	0.162440	0.000010
C16	C	0.703701	0.172648	0.000012
C17	C	0.745413	0.253287	0.000010
C18	C	0.853542	0.263494	0.000003
C19	C	0.878234	0.112428	0.000012
C20	C	0.770107	0.102221	0.000011
C21	C	1.232115	0.060004	0.000022
C22	C	1.230063	-0.033407	0.000023
C23	C	1.126515	-0.256548	0.000005
C24	C	1.168058	-0.308949	0.092705
C25	C	1.226352	-0.204430	0.000014
C26	C	1.181163	-0.318468	-0.092655
C27	C	1.222761	-0.369631	0.000001
C28	C	1.267917	-0.255596	0.092790
C29	C	1.281014	-0.265115	-0.092653
C30	C	1.322628	-0.317491	0.000069
C31	C	1.228418	-0.109262	0.000023
C32	C	1.220702	-0.464796	0.000000
C33	C	1.414082	0.222005	0.000013
C34	C	1.529160	0.232872	0.000008
C35	C	1.217002	0.365931	-0.000001
C36	C	1.219054	0.459340	-0.000009
N37	N	1.203893	0.228039	0.292918
N38	N	1.245231	0.197890	-0.292895
C39	C	1.328203	0.137313	0.529576
C40	C	1.319876	0.143400	0.647918
C41	C	1.178907	0.246295	0.647944
C42	C	1.187234	0.240208	0.529603
C43	C	1.261886	0.185716	0.470423
C44	C	1.270217	0.179634	0.352080
C45	C	1.129244	0.282524	0.352108
C46	C	1.120917	0.288611	0.470449
H47	H	0.887502	0.329155	0.000004
N48	N	0.503033	0.385439	0.000022
N49	N	0.434352	0.400667	0.079274
H50	H	0.386433	0.451471	0.079287
N51	N	1.044667	0.344261	0.530921
N52	N	1.037237	0.349687	0.636582
H53	H	0.983384	0.388991	0.679291
N54	N	1.404367	0.081568	0.469137
N55	N	1.463512	0.038300	0.521967
H56	H	1.517267	-0.001106	0.479284
N57	N	1.061516	0.331974	0.291666
N58	N	1.068967	0.326541	0.186005
H59	H	1.021140	0.361469	0.143316
N60	N	1.387620	0.093946	0.708324
N61	N	1.454261	0.045296	0.655467
H62	H	1.502108	0.010365	0.698128
N63	N	1.426669	-0.350773	0.000107
N64	N	1.493023	-0.337396	-0.078729
H65	H	1.566501	-0.360904	-0.078701
H66	H	1.118121	0.290655	0.696143
H67	H	0.932315	0.055081	0.000004
N68	N	0.721606	0.406086	-0.000006
N69	N	0.662303	0.468961	-0.000015
H70	H	0.692385	0.527138	-0.000027
H71	H	0.561587	0.096792	0.000105
H72	H	1.043639	-0.229864	0.000096
N73	N	0.727477	0.019860	0.000021
N74	N	0.630935	0.010755	0.000024
H75	H	0.600827	-0.047413	0.000029
H76	H	1.120299	-0.328402	0.171073
H77	H	1.328737	-0.245642	-0.171025
N78	N	1.313883	-0.221214	0.191218
N79	N	1.262342	-0.171172	0.260247
H80	H	1.294801	-0.146887	0.329763
N81	N	1.135095	-0.352966	-0.190956
N82	N	1.043087	-0.333495	-0.207447
H83	H	1.010542	-0.357858	-0.276867
H84	H	1.331005	0.135266	0.303897
