data_functionalizedCrystal
_audit_creation_method	'MofGen! by Chris Wilmer'
_symmetry_space_group_name_H-M	'P1'
_symmetry_Int_Tables_number	1
_symmetry_cell_setting	triclinic
loop_
_symmetry_equiv_pos_as_xyz
  x,y,z
_cell_length_a	18.050589
_cell_length_b	18.215407
_cell_length_c	18.215399
_cell_angle_alpha	89.983140
_cell_angle_beta	90.023603
_cell_angle_gamma	89.975646
loop_
_atom_site_label
_atom_site_type_symbol
_atom_site_fract_x
_atom_site_fract_y
_atom_site_fract_z
Zn1	Zn	-0.295744	-1.125055	0.416080
Zn2	Zn	0.037590	-0.791722	0.749413
Zn3	Zn	0.370923	-0.458388	1.082746
Zn4	Zn	-0.419939	-1.124956	0.293023
Zn5	Zn	-0.086605	-0.791623	0.626356
Zn6	Zn	0.246728	-0.458289	0.959689
Zn7	Zn	-0.295759	-1.001987	0.293033
Zn8	Zn	0.037575	-0.668654	0.626367
Zn9	Zn	0.370908	-0.335321	0.959700
Zn10	Zn	-0.419888	-1.001946	0.416054
Zn11	Zn	-0.086555	-0.668613	0.749387
Zn12	Zn	0.246779	-0.335279	1.082721
O13	O	-0.357832	-1.063486	0.354547
O14	O	-0.024499	-0.730153	0.687881
O15	O	0.308834	-0.396819	1.021214
O16	O	-0.312233	-1.228026	0.399762
O17	O	0.021100	-0.894693	0.733096
O18	O	0.354433	-0.561359	1.066429
O19	O	-0.403493	-1.108620	0.190040
O20	O	-0.070160	-0.775287	0.523373
O21	O	0.263173	-0.441953	0.856707
O22	O	-0.191832	-1.018371	0.309371
O23	O	0.141501	-0.685038	0.642704
O24	O	0.474835	-0.351705	0.976038
O25	O	-0.403479	-1.227953	0.309353
O26	O	-0.070146	-0.894620	0.642686
O27	O	0.263188	-0.561287	0.976019
O28	O	-0.191821	-1.108788	0.399773
O29	O	0.141512	-0.775455	0.733106
O30	O	0.474846	-0.442122	1.066439
O31	O	-0.312259	-1.018275	0.190048
O32	O	0.021074	-0.684942	0.523381
O33	O	0.354408	-0.351609	0.856714
O34	O	-0.312210	-0.898998	0.309346
O35	O	0.021124	-0.565664	0.642679
O36	O	0.354457	-0.232331	0.976013
O37	O	-0.403393	-1.018301	0.519042
O38	O	-0.070059	-0.684967	0.852375
O39	O	0.263274	-0.351634	1.185708
O40	O	-0.403407	-0.898967	0.399729
O41	O	-0.070074	-0.565634	0.733062
O42	O	0.263260	-0.232301	1.066395
O43	O	-0.312184	-1.108748	0.519061
O44	O	0.021149	-0.775415	0.852394
O45	O	0.354482	-0.442082	1.185727
O46	O	-0.523857	-1.108580	0.309328
O47	O	-0.190523	-0.775247	0.642661
O48	O	0.142810	-0.441913	0.975995
O49	O	-0.523819	-1.018205	0.399718
O50	O	-0.190486	-0.684872	0.733052
O51	O	0.142847	-0.351538	1.066385
C52	C	-0.357805	-0.872280	0.354536
C53	C	-0.024472	-0.538947	0.687870
C54	C	0.308862	-0.205613	1.021203
C55	C	-0.357811	-0.790481	0.354549
C56	C	-0.024478	-0.457148	0.687882
C57	C	0.308855	-0.123814	1.021216
C58	C	-0.405384	-0.525427	0.401546
C59	C	-0.072051	-0.192094	0.734879
C60	C	0.261283	0.141240	1.068212
C61	C	-0.405380	-0.602286	0.401542
C62	C	-0.072046	-0.268952	0.734875
C63	C	0.261287	0.064381	1.068209
C64	C	-0.310274	-0.602287	0.307563
C65	C	0.023060	-0.268953	0.640896
C66	C	0.356393	0.064380	0.974230
C67	C	-0.310283	-0.525429	0.307563
C68	C	0.023051	-0.192096	0.640897
C69	C	0.356384	0.141237	0.974230
C70	C	-0.357837	-0.487001	0.354559
C71	C	-0.024503	-0.153668	0.687892
C72	C	0.308830	0.179665	1.021226
C73	C	-0.357823	-0.640717	0.354555
C74	C	-0.024490	-0.307384	0.687888
C75	C	0.308843	0.025949	1.021222
C76	C	-0.357818	-0.724051	0.354551
C77	C	-0.024485	-0.390718	0.687884
C78	C	0.308849	-0.057384	1.021217
C79	C	-0.357843	-0.403662	0.354562
C80	C	-0.024510	-0.070329	0.687896
C81	C	0.308824	0.263004	1.021229
C82	C	-0.550784	-1.063397	0.354535
C83	C	-0.217451	-0.730064	0.687869
C84	C	0.115882	-0.396731	1.021202
C85	C	-0.633330	-1.063427	0.354555
C86	C	-0.299997	-0.730093	0.687888
C87	C	0.033336	-0.396760	1.021221
C88	C	-0.832788	-1.014329	0.403692
C89	C	-0.499454	-0.680996	0.737025
C90	C	-0.166121	-0.347662	1.070359
C91	C	-0.882227	-0.996389	0.336539
C92	C	-0.548893	-0.663056	0.669872
C93	C	-0.215560	-0.329723	1.003205
C94	C	-0.784461	-1.063499	0.354564
C95	C	-0.451127	-0.730166	0.687898
C96	C	-0.117794	-0.396832	1.021231
C97	C	-0.882103	-1.081475	0.421725
C98	C	-0.548770	-0.748141	0.755059
C99	C	-0.215436	-0.414808	1.088392
C100	C	-0.930446	-1.063567	0.354579
C101	C	-0.597112	-0.730234	0.687913
C102	C	-0.263779	-0.396901	1.021246
C103	C	-0.832812	-1.045524	0.287375
C104	C	-0.499479	-0.712191	0.620709
C105	C	-0.166146	-0.378857	0.954042
C106	C	-0.832684	-1.130641	0.372607
C107	C	-0.499351	-0.797307	0.705941
C108	C	-0.166018	-0.463974	1.039274
C109	C	-0.882101	-1.112726	0.305408
C110	C	-0.548768	-0.779393	0.638741
C111	C	-0.215435	-0.446060	0.972074
C112	C	-0.700362	-1.063458	0.354556
C113	C	-0.367029	-0.730124	0.687890
C114	C	-0.033696	-0.396791	1.021223
C115	C	-1.014542	-1.063609	0.354580
C116	C	-0.681209	-0.730275	0.687913
C117	C	-0.347875	-0.396942	1.021246
C118	C	-0.164127	-1.063595	0.354576
C119	C	0.169207	-0.730262	0.687909
C120	C	0.502540	-0.396929	1.021243
C121	C	-0.081581	-1.063642	0.354588
C122	C	0.251752	-0.730309	0.687921
C123	C	0.585086	-0.396975	1.021255
C124	C	-0.357781	-1.063531	0.546500
C125	C	-0.024448	-0.730198	0.879834
C126	C	0.308886	-0.396864	1.213167
C127	C	-0.357759	-1.063550	0.628299
C128	C	-0.024426	-0.730217	0.961633
C129	C	0.308907	-0.396883	1.294966
C130	C	-0.357854	-0.255439	0.354559
C131	C	-0.024521	0.077894	0.687893
C132	C	0.308812	0.411228	1.021226
C133	C	-0.357849	-0.337238	0.354565
C134	C	-0.024515	-0.003905	0.687898
C135	C	0.308818	0.329429	1.021231
C136	C	-0.357830	-1.063484	0.163341
C137	C	-0.024496	-0.730150	0.496675
C138	C	0.308837	-0.396817	0.830008
C139	C	-0.357642	-1.063607	0.081543
C140	C	-0.024309	-0.730274	0.414876
C141	C	0.309024	-0.396941	0.748209
C142	C	-0.310223	-1.110663	0.816504
C143	C	0.023111	-0.777330	1.149838
C144	C	0.356444	-0.443996	1.483171
C145	C	-0.310201	-1.110672	0.893363
C146	C	0.023132	-0.777338	1.226697
C147	C	0.356466	-0.444005	1.560030
C148	C	-0.405181	-1.016489	0.893332
C149	C	-0.071848	-0.683156	1.226666
C150	C	0.261486	-0.349823	1.559999
C151	C	-0.405198	-1.016477	0.816475
C152	C	-0.071865	-0.683144	1.149808
C153	C	0.261468	-0.349811	1.483142
C154	C	-0.357720	-1.063568	0.778063
C155	C	-0.024387	-0.730235	1.111396
C156	C	0.308946	-0.396902	1.444730
C157	C	-0.357681	-1.063589	0.931779
C158	C	-0.024348	-0.730256	1.265112
C159	C	0.308985	-0.396922	1.598446
C160	C	-0.357658	-1.063598	1.015113
C161	C	-0.024325	-0.730265	1.348446
C162	C	0.309008	-0.396932	1.681780
C163	C	-0.357742	-1.063558	0.694724
C164	C	-0.024409	-0.730225	1.028057
C165	C	0.308924	-0.396892	1.361391
H166	H	-0.444106	-0.494141	0.439812
H167	H	-0.110773	-0.160808	0.773145
H168	H	0.222561	0.172526	1.106479
H169	H	-0.443876	-0.978122	0.785175
H170	H	-0.110543	-0.644789	1.118508
H171	H	0.222791	-0.311455	1.451842
H172	H	-0.444098	-0.633568	0.439802
H173	H	-0.110765	-0.300235	0.773136
H174	H	0.222568	0.033098	1.106469
H175	H	-0.811134	-0.972687	0.445179
H176	H	-0.477801	-0.639353	0.778512
H177	H	-0.144467	-0.306020	1.111845
H178	H	-0.271556	-0.633584	0.269302
H179	H	0.061777	-0.300251	0.602635
H180	H	0.395111	0.033083	0.935969
H181	H	-0.271563	-0.494142	0.269298
H182	H	0.061771	-0.160809	0.602631
H183	H	0.395104	0.172524	0.935964
H184	H	-0.443838	-0.978151	0.924617
H185	H	-0.110504	-0.644818	1.257950
H186	H	0.222829	-0.311484	1.591283
H187	H	-0.810909	-1.187375	0.387887
H188	H	-0.477575	-0.854042	0.721220
H189	H	-0.144242	-0.520708	1.054553
H190	H	-0.904004	-0.939642	0.321291
H191	H	-0.570671	-0.606309	0.654625
H192	H	-0.237338	-0.272975	0.987958
H193	H	-0.811250	-1.030281	0.230569
H194	H	-0.477917	-0.696948	0.563902
H195	H	-0.144584	-0.363615	0.897235
H196	H	-0.903618	-1.154337	0.263821
H197	H	-0.570284	-0.821004	0.597154
H198	H	-0.236951	-0.487670	0.930487
H199	H	-0.903755	-1.096652	0.478516
H200	H	-0.570421	-0.763318	0.811850
H201	H	-0.237088	-0.429985	1.145183
H202	H	-0.271561	-1.149006	0.785232
H203	H	0.061772	-0.815672	1.118565
H204	H	0.395106	-0.482339	1.451898
H205	H	-0.271523	-1.149020	0.924659
H206	H	0.061811	-0.815686	1.257992
H207	H	0.395144	-0.482353	1.591326
