data_functionalizedCrystal
_audit_creation_method	'MofGen! by Chris Wilmer'
_symmetry_space_group_name_H-M	'P1'
_symmetry_Int_Tables_number	1
_symmetry_cell_setting	triclinic
loop_
_symmetry_equiv_pos_as_xyz
  x,y,z
_cell_length_a	15.944551
_cell_length_b	11.792241
_cell_length_c	15.021413
_cell_angle_alpha	90.003896
_cell_angle_beta	89.997174
_cell_angle_gamma	83.846077
loop_
_atom_site_label
_atom_site_type_symbol
_atom_site_fract_x
_atom_site_fract_y
_atom_site_fract_z
O1	O	-1.115189	-0.146365	0.073940
O2	O	-0.870721	-0.164412	0.073962
O3	O	-0.998888	0.009831	0.073944
O4	O	-0.987023	-0.320608	0.073957
O5	O	-0.998867	0.009806	-0.074120
O6	O	-0.870701	-0.164437	-0.074103
O7	O	-1.115169	-0.146390	-0.074125
Zn8	Zn	-0.992932	-0.155417	-0.097622
Zn9	Zn	-0.992958	-0.155384	0.097459
O10	O	-0.987002	-0.320632	-0.074107
C11	C	-0.839414	-0.163675	-0.000068
C12	C	-0.746157	-0.161429	-0.000059
C13	C	-0.998132	0.052104	-0.000088
C14	C	-0.995901	0.178099	-0.000087
C15	C	-1.146476	-0.147126	-0.000093
C16	C	-1.239733	-0.149372	-0.000096
C17	C	-0.530789	-0.048056	-0.000081
C18	C	-0.470017	-0.100690	0.072924
C19	C	-0.575413	-0.157365	-0.000070
C20	C	-0.470019	-0.100741	-0.073055
C21	C	-0.410483	-0.153432	-0.000084
C22	C	-0.515869	-0.210030	0.072996
C23	C	-0.515878	-0.210065	-0.073049
C24	C	-0.455123	-0.262778	-0.000026
C25	C	-0.670426	-0.159628	-0.000061
C26	C	-0.315471	-0.151178	-0.000087
C27	C	-0.987758	-0.362905	-0.000073
C28	C	-0.989989	-0.488900	-0.000068
N29	N	-0.992919	-0.155439	-0.230760
C30	C	-0.991799	0.408777	-0.000072
C31	C	-0.994079	0.280411	-0.000080
C32	C	-0.933646	-0.235971	-0.470435
C33	C	-1.009646	-0.258005	-0.529775
C34	C	-0.992941	-0.155410	-0.412367
C35	C	-0.916962	-0.133401	-0.529768
C36	C	-0.992955	-0.155386	-0.587791
C37	C	-1.068979	-0.177496	-0.470400
C38	C	-0.976245	-0.052847	-0.470388
C39	C	-1.052299	-0.074838	-0.529702
C40	C	-0.992932	-0.155428	-0.311309
C41	C	-0.992972	-0.155367	-0.688846
N42	N	-0.992977	-0.155354	0.230597
H43	H	-0.563713	0.042662	0.000005
H44	H	-0.422374	-0.353590	0.000019
H45	H	-0.449715	-0.054498	-0.134774
C46	C	-1.154687	-0.202657	-0.435936
C47	C	-1.172088	-0.309701	-0.466804
C48	C	-1.251038	-0.332926	-0.435095
H49	H	-1.154270	-0.202648	-0.372702
H50	H	-1.196863	-0.145811	-0.456739
H51	H	-1.129924	-0.366532	-0.445996
H52	H	-1.172522	-0.309736	-0.530034
H53	H	-1.293213	-0.276080	-0.455898
H54	H	-1.250613	-0.332912	-0.371861
H55	H	-1.262857	-0.405552	-0.456040
H56	H	-0.962087	0.033849	-0.444282
H57	H	-0.536209	-0.256270	-0.134770
C58	C	-1.028517	-0.373541	-0.564744
C59	C	-1.029044	-0.371645	-0.657939
C60	C	-1.046428	-0.478053	-0.690181
H61	H	-0.986371	-0.430802	-0.544553
H62	H	-1.082112	-0.389738	-0.543597
H63	H	-0.975457	-0.355461	-0.679078
H64	H	-1.071191	-0.314406	-0.678154
H65	H	-1.100023	-0.494250	-0.669034
H66	H	-1.004279	-0.535306	-0.669984
H67	H	-1.046795	-0.476777	-0.753417
C68	C	-0.542734	-0.271823	0.155314
C69	C	-0.503452	-0.383860	0.155397
C70	C	-0.528190	-0.440817	0.231208
H71	H	-0.526675	-0.233386	0.207156
H72	H	-0.602225	-0.272915	0.154833
H73	H	-0.443974	-0.382762	0.155888
H74	H	-0.519506	-0.422328	0.103573
H75	H	-0.587681	-0.441909	0.230726
H76	H	-0.512130	-0.402370	0.283044
H77	H	-0.501548	-0.516842	0.231270
C78	C	-0.866959	-0.327051	-0.435773
C79	C	-0.884853	-0.434237	-0.465847
C80	C	-0.823452	-0.518169	-0.433923
H81	H	-0.813052	-0.312297	-0.456950
H82	H	-0.867089	-0.326042	-0.372530
H83	H	-0.884714	-0.435243	-0.529076
H84	H	-0.938749	-0.449027	-0.444672
H85	H	-0.823582	-0.517160	-0.370681
H86	H	-0.769549	-0.503404	-0.455103
H87	H	-0.835588	-0.590905	-0.454317
C88	C	-1.119365	0.015881	-0.564144
C89	C	-1.198736	-0.007690	-0.533917
C90	C	-1.260539	0.075841	-0.565639
H91	H	-1.108074	0.088596	-0.542930
H92	H	-1.118750	0.015802	-0.627387
H93	H	-1.199349	-0.007598	-0.470687
H94	H	-1.210055	-0.080390	-0.555128
H95	H	-1.259924	0.075762	-0.628883
H96	H	-1.249240	0.148551	-0.544423
H97	H	-1.314400	0.059854	-0.545142
H98	H	-0.449706	-0.054447	0.134642
C99	C	-0.831199	-0.108743	-0.564413
C100	C	-0.769365	-0.193347	-0.534363
C101	C	-0.690349	-0.170670	-0.566246
H102	H	-0.831852	-0.108248	-0.627644
H103	H	-0.818882	-0.036466	-0.543178
H104	H	-0.781679	-0.265605	-0.555603
H105	H	-0.768685	-0.193856	-0.471135
H106	H	-0.678032	-0.098393	-0.545010
H107	H	-0.691011	-0.170174	-0.629476
H108	H	-0.648384	-0.228063	-0.545854
