data_functionalizedCrystal
_audit_creation_method	'MofGen! by Chris Wilmer'
_symmetry_space_group_name_H-M	'P1'
_symmetry_Int_Tables_number	1
_symmetry_cell_setting	triclinic
loop_
_symmetry_equiv_pos_as_xyz
  x,y,z
_cell_length_a	23.532407
_cell_length_b	10.489689
_cell_length_c	8.965430
_cell_angle_alpha	89.999709
_cell_angle_beta	90.006902
_cell_angle_gamma	83.683250
loop_
_atom_site_label
_atom_site_type_symbol
_atom_site_fract_x
_atom_site_fract_y
_atom_site_fract_z
O1	O	-0.080200	-1.691413	0.124122
O2	O	-0.087773	-1.319957	0.124098
O3	O	-0.001128	-1.516886	0.124130
O4	O	-0.166845	-1.494484	0.124091
O5	O	-0.001131	-1.516895	-0.123949
O6	O	-0.087775	-1.319966	-0.123981
O7	O	-0.080203	-1.691422	-0.123957
Cu8	Cu	-0.083989	-1.505695	-0.146620
Cu9	Cu	-0.083986	-1.505684	0.146762
O10	O	-0.166847	-1.494493	-0.123988
C11	C	-0.087208	-1.272448	0.000056
C12	C	-0.085516	-1.130871	0.000049
C13	C	-0.137624	-0.946751	0.000047
C14	C	-0.111594	-1.039758	0.122370
C15	C	-0.111583	-1.039740	-0.122216
C16	C	-0.056442	-0.971640	0.122496
C17	C	-0.056439	-0.971612	-0.122200
C18	C	-0.030369	-1.064594	0.000153
C19	C	-0.188066	-1.495059	0.000047
C20	C	-0.251294	-1.496774	0.000033
C21	C	-0.649705	-1.390993	0.000102
C22	C	-0.709116	-1.392587	0.000113
O23	O	-0.745219	-1.294527	0.000161
N24	N	-0.732508	-1.509661	0.000118
C25	C	-0.696486	-1.625150	0.000129
O26	O	-0.721838	-1.724877	0.000136
C27	C	-0.637076	-1.623555	0.000129
C28	C	-0.613688	-1.506473	0.000108
C29	C	-0.626316	-1.273921	0.000083
C30	C	-0.566909	-1.272328	0.000070
C31	C	-0.530892	-1.387808	0.000076
C32	C	-0.554281	-1.504880	0.000095
C33	C	-0.601056	-1.739042	0.000150
C34	C	-0.541643	-1.737437	0.000151
C35	C	-0.518254	-1.620355	0.000130
C36	C	-0.458857	-1.618767	0.000087
N37	N	-0.435465	-1.501693	0.000081
C38	C	-0.471482	-1.386213	0.000076
C39	C	-0.821250	-1.628490	0.000131
C40	C	-0.880659	-1.630086	0.000120
C41	C	-0.893284	-1.397522	0.000107
C42	C	-0.833875	-1.395927	0.000107
C43	C	-0.797858	-1.511415	0.000125
C44	C	-0.346724	-1.382877	0.000046
C45	C	-0.287311	-1.381294	0.000027
C46	C	-0.274691	-1.613857	0.000048
C47	C	-0.334098	-1.615440	0.000059
C48	C	-0.370114	-1.499940	0.000064
O49	O	-0.422719	-1.716775	0.000045
O50	O	-0.446122	-1.286502	0.000088
C51	C	0.020091	-1.516320	0.000098
C52	C	0.083319	-1.514605	0.000122
C53	C	-0.080776	-0.738929	0.000080
C54	C	-0.082495	-0.880497	0.000073
N55	N	-0.083991	-1.505712	-0.352969
C56	C	-0.043924	-1.596814	-0.450221
C57	C	-0.032400	-1.481699	-0.549629
C58	C	-0.095478	-1.620783	-0.549688
C59	C	-0.072442	-1.390539	-0.450189
C60	C	-0.135543	-1.529698	-0.450239
C61	C	-0.124040	-1.414500	-0.549603
N62	N	-0.083980	-1.505678	0.353111
H63	H	-0.134919	-1.069924	-0.225629
H64	H	-0.179130	-1.550046	-0.406548
O65	O	-0.356727	-1.729283	0.000145
C66	C	-0.312195	-1.830865	0.000106
H67	H	-0.271691	-1.795630	0.047038
H68	H	-0.324933	-1.912641	0.072158
H69	H	-0.303950	-1.866466	-0.118906
H70	H	-0.062671	-1.293189	-0.406667
H71	H	-0.512320	-1.831484	0.000174
H72	H	-0.182939	-0.895553	0.000157
H73	H	-0.157921	-1.337359	-0.592964
O74	O	-0.264687	-1.267443	0.000078
C75	C	-0.309221	-1.165864	0.000044
H76	H	-0.349714	-1.201094	0.047021
H77	H	-0.296469	-1.084074	0.072061
H78	H	-0.317490	-1.130283	-0.118972
H79	H	0.014989	-1.115559	0.000227
O80	O	-0.028718	-0.935554	-0.245713
C81	C	-0.057922	-0.969861	-0.374436
H82	H	-0.104395	-0.979493	-0.345143
H83	H	-0.056208	-0.892557	-0.463195
H84	H	-0.036781	-1.065271	-0.419059
H85	H	-0.922621	-1.303492	0.000101
O86	O	-0.139529	-1.075835	0.245531
C87	C	-0.196068	-1.015262	0.245058
H88	H	-0.209136	-0.987250	0.126038
H89	H	-0.226066	-1.083956	0.291053
H90	H	-0.198721	-0.925602	0.317700
O91	O	-0.028694	-0.935953	0.246169
C92	C	-0.057647	-0.971443	0.374761
H93	H	-0.083945	-1.053149	0.346252
H94	H	-0.025190	-1.004255	0.465086
H95	H	-0.087216	-0.885625	0.416929
O96	O	-0.381761	-1.270764	-0.000155
C97	C	-0.416502	-1.264711	-0.128653
H98	H	-0.419931	-1.365908	-0.171471
H99	H	-0.460947	-1.216597	-0.099758
H100	H	-0.396722	-1.206733	-0.218633
H101	H	-0.547872	-1.176988	0.000066
O102	O	-0.661216	-1.161617	0.000006
C103	C	-0.627820	-1.057961	0.000029
H104	H	-0.583623	-1.090940	-0.046925
H105	H	-0.649395	-0.977096	-0.072012
H106	H	-0.623437	-1.022027	0.119040
O107	O	-0.811251	-1.282083	0.000167
C108	C	-0.855788	-1.180509	0.000119
H109	H	-0.896282	-1.215745	0.047081
H110	H	-0.843042	-1.098717	0.072141
H111	H	-0.864052	-1.144929	-0.118900
O112	O	-0.903281	-1.743931	0.000190
C113	C	-0.858745	-1.845505	0.000152
H114	H	-0.818245	-1.810267	0.047107
H115	H	-0.871483	-1.927293	0.072185
H116	H	-0.850492	-1.881092	-0.118863
O117	O	-0.107195	-1.736830	-0.601752
C118	C	-0.161157	-1.762830	-0.548890
H119	H	-0.187862	-1.668886	-0.519431
H120	H	-0.183891	-1.814601	-0.639139
H121	H	-0.155355	-1.826027	-0.445360
H122	H	-0.791928	-1.722540	0.000135
H123	H	0.011201	-1.461387	-0.593288
H124	H	-0.620088	-1.834383	0.000168
O125	O	-0.003408	-1.688503	-0.398216
C126	C	0.050881	-1.662715	-0.448892
H127	H	0.049704	-1.556424	-0.476769
H128	H	0.083990	-1.688724	-0.357930
H129	H	0.062850	-1.722142	-0.552949
O130	O	-0.239616	-1.725912	0.000121
C131	C	-0.182167	-1.699385	0.000075
H132	H	-0.179483	-1.599226	0.047022
H133	H	-0.155548	-1.773025	0.072111
H134	H	-0.165014	-1.704453	-0.118941
