data_functionalizedCrystal
_audit_creation_method	'MofGen! by Chris Wilmer'
_symmetry_space_group_name_H-M	'P1'
_symmetry_Int_Tables_number	1
_symmetry_cell_setting	triclinic
loop_
_symmetry_equiv_pos_as_xyz
  x,y,z
_cell_length_a	14.560438
_cell_length_b	23.196402
_cell_length_c	23.196401
_cell_angle_alpha	60.007332
_cell_angle_beta	90.014604
_cell_angle_gamma	60.004543
loop_
_atom_site_label
_atom_site_type_symbol
_atom_site_fract_x
_atom_site_fract_y
_atom_site_fract_z
Zr1	Zr	0.884841	0.630967	-0.075613
O2	O	0.738177	0.751231	-0.167663
O3	O	0.929788	0.510705	-0.047397
O4	O	0.929762	0.630968	-0.167663
O5	O	0.738239	0.630967	0.047475
O6	O	1.080903	0.630966	-0.167660
O7	O	0.738203	0.630968	-0.047397
O8	O	1.080950	0.415838	0.047474
O9	O	0.738192	0.846095	-0.167659
O10	O	1.061769	0.560168	-0.035358
O11	O	0.949001	0.560169	0.035441
O12	O	0.948970	0.701763	-0.106156
O13	O	0.836202	0.701763	-0.035357
Zr14	Zr	1.125951	0.630962	0.075701
Zr15	Zr	1.125894	0.630964	-0.075608
Zr16	Zr	0.884899	0.630965	0.075696
Zr17	Zr	0.884865	0.782264	-0.075607
Zr18	Zr	1.125927	0.479665	0.075696
O19	O	1.081004	0.751224	0.047486
O20	O	1.080922	0.751227	-0.167656
O21	O	0.738259	0.751228	0.047479
O22	O	1.272616	0.510698	0.167751
O23	O	1.272534	0.510701	-0.047390
O24	O	0.929870	0.510702	0.167744
O25	O	1.272553	0.630962	-0.047386
O26	O	1.081031	0.630961	0.167752
O27	O	0.929890	0.630963	0.167749
O28	O	1.272589	0.630961	0.047486
O29	O	0.929796	0.846093	-0.167655
O30	O	1.080996	0.415836	0.167744
O31	O	1.272600	0.415833	0.167748
O32	O	1.272555	0.415835	0.047477
O33	O	0.738238	0.846094	-0.047389
O34	O	0.929842	0.846091	-0.047385
O35	O	1.061823	0.560166	0.106245
O36	O	1.174590	0.560166	0.035446
O37	O	1.061791	0.701760	-0.035353
O38	O	0.949024	0.701761	0.035447
C39	C	1.005366	0.441715	0.000037
C40	C	1.005355	0.377485	0.000035
C41	C	1.088641	0.295055	0.052297
C42	C	1.088649	0.234694	0.052304
C43	C	1.005379	0.256769	0.000037
C44	C	0.922079	0.339214	-0.052230
C45	C	0.922067	0.399572	-0.052231
C46	C	0.979429	0.201183	-0.063756
C47	C	0.979449	0.140824	-0.063755
C48	C	1.005409	0.070607	0.000040
C49	C	1.031375	0.060747	0.063838
C50	C	1.031363	0.121105	0.063837
C51	C	1.005382	0.191327	0.000032
C52	C	1.088708	-0.077276	0.052313
C53	C	1.088708	-0.137636	0.052320
C54	C	0.922143	-0.033114	-0.052219
C55	C	0.922138	0.027243	-0.052220
C56	C	1.005427	0.005157	0.000046
C57	C	0.703876	0.630968	0.000038
C58	C	0.601543	0.630969	0.000036
C59	C	0.553440	0.630971	-0.052228
C60	C	0.457294	0.630964	-0.052219
C61	C	0.457361	0.630955	0.052322
C62	C	0.553510	0.630957	0.052315
C63	C	0.601474	0.630984	-0.104507
C64	C	0.553370	0.630987	-0.156776
C65	C	0.457224	0.630979	-0.156767
C66	C	0.409182	0.630968	-0.104488
C67	C	1.306916	0.630961	0.000051
C68	C	1.409249	0.630960	0.000053
C69	C	1.005324	0.630967	-0.189220
C70	C	1.005300	0.630968	-0.253455
C71	C	1.005427	0.820214	0.000051
C72	C	1.005437	0.884444	0.000054
C73	C	0.946425	0.704877	-0.320584
C74	C	0.946454	0.704878	-0.380939
C75	C	1.005341	0.630966	-0.374161
C76	C	1.064229	0.557048	-0.307020
C77	C	1.064208	0.557049	-0.246667
C78	C	0.996969	0.574340	-0.441480
C79	C	0.996981	0.574342	-0.501834
C80	C	1.005413	0.630960	-0.560309
C81	C	1.013808	0.687589	-0.558429
C82	C	1.013787	0.687591	-0.498076
C83	C	1.005371	0.630957	-0.439600
C84	C	0.946566	0.704875	-0.692884
C85	C	0.946603	0.704873	-0.753239
C86	C	1.064370	0.557041	-0.679318
C87	C	1.064341	0.557045	-0.618965
C88	C	1.005433	0.630964	-0.625753
C89	C	1.005468	0.630962	0.189309
C90	C	1.005493	0.630961	0.253543
C91	C	1.306885	0.441711	0.000043
C92	C	1.409208	0.377480	0.000043
C93	C	1.005438	0.441712	0.189302
C94	C	1.005452	0.377481	0.253534
C95	C	1.306958	0.441708	0.189308
C96	C	1.409305	0.377476	0.253542
C97	C	0.703835	0.820221	-0.189219
C98	C	0.601487	0.884453	-0.253454
C99	C	0.703907	0.820218	0.000045
C100	C	0.601584	0.884449	0.000045
C101	C	1.005354	0.820217	-0.189213
C102	C	1.005340	0.884448	-0.253445
C103	C	1.398368	0.347318	-0.036922
C104	C	1.494502	0.286975	-0.036937
C105	C	1.601475	0.256790	0.000019
C106	C	1.612313	0.286959	0.036985
C107	C	1.516180	0.347305	0.036995
C108	C	1.064350	0.347316	0.320663
C109	C	1.064359	0.286973	0.381022
C110	C	1.005476	0.256792	0.374250
C111	C	0.946570	0.286963	0.307113
C112	C	0.946555	0.347309	0.246756
C113	C	1.516242	0.347312	0.246751
C114	C	1.612417	0.286968	0.307100
C115	C	1.601653	0.256785	0.374240
C116	C	1.494705	0.286955	0.381030
C117	C	1.398532	0.347302	0.320681
C118	C	0.494550	0.914624	-0.246662
C119	C	0.398375	0.974987	-0.307011
C120	C	0.409139	1.005173	-0.374151
C121	C	0.516088	0.975000	-0.380941
C122	C	0.612261	0.914642	-0.320593
C123	C	0.612424	0.914617	0.037004
C124	C	0.516290	0.974977	0.037002
C125	C	0.409317	1.005164	0.000045
C126	C	0.398480	0.974993	-0.036919
C127	C	0.494612	0.914638	-0.036920
C128	C	1.064235	0.914610	-0.246650
C129	C	1.064244	0.974954	-0.306998
C130	C	1.005350	1.005138	-0.374139
C131	C	0.946454	0.974970	-0.380932
C132	C	0.946452	0.914623	-0.320586
H133	H	1.156528	-0.204757	0.094883
O134	O	1.282999	0.379875	-0.076796
H135	H	1.236379	0.368288	-0.039493
O136	O	1.127907	0.254438	0.453425
H137	H	1.118021	0.207412	0.494264
H138	H	0.418238	0.630948	0.094885
O139	O	0.882921	1.007536	-0.453350
H140	H	0.892811	1.054574	-0.494165
H141	H	0.330820	1.054320	-0.423285
O142	O	0.705171	0.630995	-0.104513
H143	H	0.774548	0.575733	-0.099444
H144	H	0.898601	0.765065	-0.698412
H145	H	1.485656	0.262419	-0.067039
O146	O	0.405342	0.630979	-0.213138
H147	H	0.317504	0.686240	-0.243260
H148	H	1.005497	0.207654	0.423402
O149	O	1.127859	0.379867	0.327976
H150	H	1.168800	0.348752	0.384800
O151	O	0.883100	0.784592	-0.825649
H152	H	0.842129	0.835989	-0.820225
O153	O	0.883098	0.254384	0.299813
H154	H	0.893034	0.207341	0.353065
H155	H	0.485764	0.890050	-0.191999
O156	O	0.283095	1.007559	-0.076778
H157	H	0.273302	0.956904	-0.055425
H158	H	1.525028	0.371879	0.192088
H159	H	0.485771	0.890076	-0.067015
H160	H	1.679743	0.207652	0.000006
O161	O	1.127886	0.477318	-0.671995
H162	H	1.118005	0.489732	-0.725240
H163	H	1.679972	0.207646	0.423374
H164	H	0.699331	0.890077	-0.326131
H165	H	0.898597	0.371861	0.192099
H166	H	0.592496	0.630989	-0.199336
H167	H	1.699490	0.262410	0.301559
H168	H	0.699518	0.890044	0.067104
O169	O	0.882910	0.882102	-0.327918
H170	H	0.841952	0.913241	-0.384745
H171	H	1.485957	0.262371	0.435703
O172	O	0.305481	0.630960	-0.104475
H173	H	0.280097	0.630967	-0.149602
O174	O	1.527888	0.379820	0.076880
H175	H	1.443077	0.426856	0.070683
O176	O	1.178468	0.271234	0.108670
H177	H	1.138436	0.296230	0.138802
H178	H	1.311462	0.371854	0.326221
H179	H	0.311303	0.999544	-0.301469
O180	O	0.527692	1.007555	-0.453358
H181	H	0.442845	1.054585	-0.494174
H182	H	0.525137	0.999532	0.067105
H183	H	0.331049	1.054308	0.000052
H184	H	1.156471	0.167567	0.094864
H185	H	1.112193	0.890044	-0.191986
H186	H	0.592676	0.630954	0.094874
H187	H	1.112203	0.999510	-0.301453
H188	H	0.854241	0.466694	-0.094789
H189	H	0.898462	0.765068	-0.326117
O190	O	1.005339	1.070237	-0.439226
H191	H	1.056178	1.086143	-0.423214
H192	H	1.052506	0.003577	0.115786
O193	O	1.059349	0.110484	0.132640
H194	H	1.077396	0.051523	0.177004
H195	H	1.112177	0.496869	-0.301505
H196	H	1.020626	0.733699	-0.496549
O197	O	0.882941	0.784596	-0.453355
H198	H	0.841969	0.835996	-0.447935
H199	H	1.020668	0.733696	-0.606042
H200	H	0.990139	0.528235	-0.503359
O201	O	1.178522	-0.101087	0.108689
H202	H	1.236428	-0.168551	0.145040
H203	H	1.112278	0.496860	-0.564304
H204	H	0.854342	-0.015139	-0.094775
H205	H	0.958311	0.148858	-0.115703
O206	O	0.832322	0.116154	-0.108603
H207	H	0.748372	0.129628	-0.106042
O208	O	0.951431	0.276918	-0.132565
H209	H	1.012738	0.259418	-0.159198
O210	O	0.832273	0.363031	-0.108612
H211	H	0.846283	0.307211	-0.099838
H212	H	0.990095	0.528236	-0.393872
H213	H	1.112151	0.496862	-0.192005
H214	H	1.699423	0.262374	0.067073
