data_functionalizedCrystal
_audit_creation_method	'MofGen! by Chris Wilmer'
_symmetry_space_group_name_H-M	'P1'
_symmetry_Int_Tables_number	1
_symmetry_cell_setting	triclinic
loop_
_symmetry_equiv_pos_as_xyz
  x,y,z
_cell_length_a	10.654562
_cell_length_b	10.540510
_cell_length_c	9.730223
_cell_angle_alpha	90.001116
_cell_angle_beta	89.996961
_cell_angle_gamma	84.501707
loop_
_atom_site_label
_atom_site_type_symbol
_atom_site_fract_x
_atom_site_fract_y
_atom_site_fract_z
O1	O	1.667869	0.178374	-0.114372
O2	O	1.302396	0.195345	-0.114354
O3	O	1.493490	0.002148	-0.114363
O4	O	1.476775	0.371571	-0.114363
O5	O	1.493488	0.002153	0.114217
O6	O	1.302394	0.195350	0.114226
O7	O	1.667866	0.178379	0.114208
Zn8	Zn	1.485130	0.186865	0.150509
Zn9	Zn	1.485133	0.186859	-0.150655
O10	O	1.476773	0.371576	0.114217
C11	C	1.255597	0.194098	-0.000062
C12	C	1.116154	0.190360	-0.000056
C13	C	1.050622	0.188619	0.124533
C14	C	0.919598	0.185116	0.124510
C15	C	0.919651	0.185102	-0.124701
C16	C	1.050673	0.188595	-0.124676
C17	C	1.050589	0.188633	0.268412
C18	C	0.919566	0.185131	0.268390
C19	C	1.492243	-0.045153	-0.000076
C20	C	1.488517	-0.186101	-0.000084
C21	C	1.621269	-0.403599	0.000433
C22	C	1.625244	-0.257004	-0.000089
C23	C	1.418527	-0.230841	-0.130608
C24	C	1.415520	-0.377601	-0.130710
C25	C	1.412670	-0.377403	0.129228
C26	C	1.419155	-0.231064	0.130946
C27	C	1.714666	0.179626	-0.000087
C28	C	1.854109	0.183364	-0.000103
C29	C	1.478019	0.418877	-0.000074
C30	C	1.481746	0.559825	-0.000075
N31	N	1.485137	0.186869	0.356045
N32	N	1.485136	0.186845	-0.356192
C33	C	1.569775	0.101351	0.427967
C34	C	1.569772	0.101335	0.571850
C35	C	1.400488	0.272368	0.571876
C36	C	1.400486	0.272376	0.427996
C37	C	1.667514	0.002610	0.427953
C38	C	1.667510	0.002594	0.571836
H39	H	1.096827	0.100903	0.323665
O40	O	1.318144	0.355473	0.641559
C41	C	1.243461	0.430978	0.547220
H42	H	1.241593	0.378927	0.444649
H43	H	1.285062	0.525676	0.531932
C44	C	1.110505	0.519779	0.729356
C45	C	1.108202	0.455843	0.603380
H46	H	1.027072	0.535122	0.763999
H47	H	1.160823	0.468913	0.792915
H48	H	1.145179	0.598686	0.716599
H49	H	1.073544	0.376931	0.616141
H50	H	1.057875	0.506696	0.539823
O51	O	1.085967	0.299145	0.321453
C52	C	1.152916	0.361881	0.221204
H53	H	1.126227	0.328638	0.114557
H54	H	1.258514	0.338535	0.237879
C55	C	1.152233	0.547681	0.364220
C56	C	1.119445	0.506860	0.233234
H57	H	1.131592	0.637112	0.371643
H58	H	1.107132	0.505414	0.431763
H59	H	1.240230	0.528216	0.378101
H60	H	1.031447	0.526311	0.219362
H61	H	1.164530	0.549134	0.165689
H62	H	0.889955	0.092549	0.313035
H63	H	0.873301	0.272865	0.323625
H64	H	1.313256	-0.400564	-0.136619
H65	H	1.646047	-0.094966	0.388901
H66	H	1.680006	-0.227675	0.093473
O67	O	1.298479	-0.174210	-0.136655
C68	C	1.282292	-0.102508	-0.258773
H69	H	1.355037	-0.141228	-0.337912
H70	H	1.295314	0.001551	-0.236198
C71	C	1.059408	-0.064889	-0.218559
C72	C	1.148748	-0.112453	-0.315763
H73	H	0.977030	-0.071018	-0.253711
H74	H	1.070313	-0.113192	-0.136283
H75	H	1.070275	0.021823	-0.199756
H76	H	1.137889	-0.199168	-0.334552
H77	H	1.137837	-0.064165	-0.398044
H78	H	1.674535	-0.445568	0.094039
H79	H	1.674230	-0.447123	-0.092648
H80	H	1.456120	-0.419596	0.228166
H81	H	1.680326	-0.228618	-0.093821
O82	O	1.630936	-0.107414	0.624898
C83	C	1.507704	-0.123838	0.580053
H84	H	1.487015	-0.067627	0.481215
H85	H	1.437129	-0.087911	0.662624
C86	C	1.521786	-0.335282	0.674437
C87	C	1.496379	-0.266251	0.553035
H88	H	1.514797	-0.423129	0.657776
H89	H	1.604808	-0.324216	0.704655
H90	H	1.462970	-0.305329	0.743234
H91	H	1.555204	-0.296194	0.484246
H92	H	1.413366	-0.277326	0.522805
H93	H	1.467134	-0.200002	-0.227749
H94	H	1.463353	-0.417833	-0.228284
H95	H	1.758705	0.033533	0.383323
O96	O	1.300082	-0.172419	0.140129
C97	C	1.276794	-0.089000	0.027783
H98	H	1.342941	-0.120782	-0.060384
H99	H	1.293737	0.011900	0.060154
C100	C	1.057871	-0.052212	0.088723
C101	C	1.139106	-0.091253	-0.019570
H102	H	0.972938	-0.053596	0.059516
H103	H	1.073560	-0.108409	0.164416
H104	H	1.072005	0.031868	0.115688
H105	H	1.124982	-0.175337	-0.046521
H106	H	1.123411	-0.035070	-0.095268
H107	H	1.104027	0.189993	-0.226128
H108	H	0.866320	0.183665	-0.226163
H109	H	1.470083	-0.202466	0.227507
H110	H	1.310014	-0.399521	0.130112
H111	H	1.764027	0.024350	0.610882
H112	H	1.331557	0.342000	0.369438
