data_functionalizedCrystal
_audit_creation_method	'MofGen! by Chris Wilmer'
_symmetry_space_group_name_H-M	'P1'
_symmetry_Int_Tables_number	1
_symmetry_cell_setting	triclinic
loop_
_symmetry_equiv_pos_as_xyz
  x,y,z
_cell_length_a	16.625548
_cell_length_b	12.759394
_cell_length_c	12.759387
_cell_angle_alpha	89.968340
_cell_angle_beta	90.022878
_cell_angle_gamma	89.984095
loop_
_atom_site_label
_atom_site_type_symbol
_atom_site_fract_x
_atom_site_fract_y
_atom_site_fract_z
Zn1	Zn	1.232742	0.418181	0.594065
Zn2	Zn	1.232657	0.593898	0.418383
Zn3	Zn	1.097898	0.418237	0.418395
Zn4	Zn	1.097892	0.593822	0.594015
O5	O	1.165297	0.506035	0.506214
O6	O	1.345563	0.441499	0.570777
O7	O	1.214749	0.570652	0.271363
O8	O	1.115823	0.271208	0.441724
O9	O	1.345501	0.570597	0.441704
O10	O	1.214892	0.271167	0.570788
O11	O	1.115741	0.441594	0.271372
O12	O	0.985065	0.441520	0.441675
O13	O	1.115813	0.570468	0.741043
O14	O	0.985060	0.570522	0.570702
O15	O	1.214886	0.441425	0.741080
O16	O	1.214743	0.740909	0.441655
O17	O	1.115731	0.740853	0.570691
C18	C	0.955806	0.506020	0.506185
C19	C	0.866185	0.506038	0.506197
C20	C	0.538010	0.506045	0.506242
C21	C	0.629318	0.506040	0.506227
C22	C	0.702094	0.506042	0.506219
C23	C	0.793409	0.506036	0.506205
C24	C	1.165249	0.779002	0.506189
C25	C	1.165302	0.895779	0.506213
C26	C	1.165358	0.505932	0.780248
C27	C	1.165384	0.505888	0.897025
C28	C	1.375606	0.506050	0.506245
C29	C	1.465227	0.506057	0.506257
C30	C	1.165368	0.232001	0.506263
C31	C	1.165398	0.115224	0.506284
C32	C	1.268480	0.895784	0.371949
C33	C	1.320090	0.950647	0.304829
C34	C	1.320137	1.060368	0.304858
C35	C	1.268571	1.115229	0.372015
C36	C	1.216961	1.060366	0.439135
C37	C	1.216917	0.950642	0.439097
C38	C	1.113788	1.060361	0.573403
C39	C	1.113735	0.950640	0.573371
C40	C	1.062221	1.115222	0.640561
C41	C	1.010606	1.060359	0.707677
C42	C	1.010560	0.950631	0.707645
C43	C	1.062125	0.895776	0.640491
C44	C	1.165283	0.506061	0.233247
C45	C	1.165413	0.505809	0.116471
C46	C	1.268556	0.371524	0.897083
C47	C	1.320154	0.304327	0.951973
C48	C	1.320173	0.304289	1.061695
C49	C	1.268588	0.371453	1.116529
C50	C	1.216991	0.438650	1.061639
C51	C	1.216979	0.438683	0.951915
C52	C	1.113816	0.573007	1.061581
C53	C	1.113799	0.573052	0.951859
C54	C	1.062231	0.640171	1.116415
C55	C	1.010636	0.707375	1.061525
C56	C	1.010619	0.707411	0.951797
C57	C	1.062202	0.640249	0.896969
H58	H	1.362077	0.905970	0.250151
O59	O	1.268556	0.789201	0.371813
C60	C	1.325116	0.752544	0.298126
H61	H	1.372259	0.815733	0.283484
H62	H	1.355668	0.679074	0.329834
H63	H	1.293158	0.733183	0.221479
H64	H	0.968594	0.762120	0.907112
O65	O	1.062340	0.640285	0.790386
C66	C	1.139599	0.667320	0.753752
H67	H	1.186053	0.649368	0.817008
H68	H	1.153944	0.619952	0.680368
H69	H	1.141275	0.754499	0.734257
H70	H	1.362167	1.105038	0.250208
H71	H	0.968636	0.762049	1.106180
H72	H	1.268602	0.371407	1.205870
O73	O	0.960385	0.897226	0.772703
C74	C	0.908281	0.833887	0.712820
H75	H	0.936732	0.817480	0.633224
H76	H	0.897426	0.756709	0.755584
H77	H	0.848551	0.876253	0.701227
O78	O	1.268620	0.371402	0.790500
C79	C	1.325229	0.297740	0.753873
H80	H	1.336550	0.236334	0.817116
H81	H	1.300905	0.257895	0.680466
H82	H	1.384004	0.339422	0.734418
H83	H	1.362152	0.249642	0.907315
O84	O	1.268771	1.221812	0.372054
C85	C	1.346051	1.258353	0.399160
H86	H	1.392470	1.195082	0.381242
H87	H	1.360437	1.331783	0.351813
H88	H	1.347738	1.277741	0.486343
O89	O	1.062252	0.640328	1.222998
C90	C	1.082949	0.741008	1.259633
H91	H	1.069140	0.801539	1.196384
H92	H	1.046587	0.759653	1.333026
H93	H	1.149854	0.743246	1.279115
O94	O	1.062416	1.221805	0.640595
C95	C	1.139694	1.258358	0.667691
H96	H	1.186117	1.195094	0.649772
H97	H	1.154071	1.331787	0.620337
H98	H	1.141385	1.277753	0.754872
O99	O	0.960546	1.113811	0.772810
C100	C	0.971676	1.222417	0.758469
H101	H	0.998119	1.237442	0.677423
H102	H	0.911299	1.264185	0.765542
H103	H	1.014609	1.253448	0.820845
H104	H	1.062087	0.806435	0.640452
O105	O	1.370369	0.238981	1.114858
C106	C	1.415878	0.179685	1.042939
H107	H	1.418647	0.222739	0.964713
H108	H	1.479413	0.168481	1.074665
H109	H	1.386375	0.099890	1.031284
