data_functionalizedCrystal
_audit_creation_method	'MofGen! by Chris Wilmer'
_symmetry_space_group_name_H-M	'P1'
_symmetry_Int_Tables_number	1
_symmetry_cell_setting	triclinic
loop_
_symmetry_equiv_pos_as_xyz
  x,y,z
_cell_length_a	14.971506
_cell_length_b	15.944545
_cell_length_c	14.048226
_cell_angle_alpha	89.991465
_cell_angle_beta	89.993237
_cell_angle_gamma	83.559280
loop_
_atom_site_label
_atom_site_type_symbol
_atom_site_fract_x
_atom_site_fract_y
_atom_site_fract_z
O1	O	1.186815	0.109544	-0.079172
O2	O	0.926403	0.122635	-0.079173
O3	O	1.063723	-0.006178	-0.079161
O4	O	1.049495	0.238358	-0.079184
O5	O	1.063707	-0.006186	0.079160
O6	O	0.926386	0.122628	0.079148
O7	O	1.186798	0.109537	0.079149
Zn8	Zn	1.056590	0.116081	0.104286
Zn9	Zn	1.056612	0.116091	-0.104309
O10	O	1.049478	0.238350	0.079138
C11	C	0.893071	0.122043	-0.000012
C12	C	0.793777	0.120279	-0.000012
C13	C	1.063125	-0.037477	0.000001
C14	C	1.061357	-0.130725	0.000003
C15	C	0.355418	0.189225	-0.000028
C16	C	0.448717	0.190875	-0.000033
C17	C	0.506020	0.115193	-0.000021
C18	C	0.470021	0.037854	-0.000015
C19	C	0.376724	0.036205	-0.000018
C20	C	0.664480	0.041298	-0.000008
C21	C	0.757783	0.042947	-0.000003
C22	C	0.736473	0.195968	-0.000022
C23	C	0.643176	0.194319	-0.000025
C24	C	0.607183	0.116980	-0.000017
C25	C	0.970957	-0.401450	-0.000016
C26	C	1.014549	-0.350816	-0.078077
C27	C	1.055053	-0.466375	-0.000024
C28	C	1.014555	-0.350851	0.078015
C29	C	1.058146	-0.301458	-0.000009
C30	C	1.098622	-0.416970	-0.078149
C31	C	1.098616	-0.417008	0.078013
C32	C	1.142269	-0.366407	-0.000067
C33	C	1.053268	-0.561379	-0.000033
C34	C	1.059937	-0.206457	-0.000006
C35	C	1.220130	0.110129	-0.000013
C36	C	1.319425	0.111893	-0.000020
C37	C	1.050076	0.269649	-0.000026
C38	C	1.051844	0.362897	-0.000035
N39	N	1.056581	0.116074	0.246647
N40	N	1.056627	0.116092	-0.246670
C41	C	1.117406	0.059059	0.296470
C42	C	1.117412	0.059058	0.396128
C43	C	1.056597	0.116077	0.445960
C44	C	0.995766	0.173095	0.396130
C45	C	0.995757	0.173091	0.296474
C46	C	0.995792	0.173101	0.603844
C47	C	0.995802	0.173107	0.703507
C48	C	1.117447	0.059069	0.703498
C49	C	1.117438	0.059064	0.603842
C50	C	1.056608	0.116083	0.554018
H51	H	0.308767	0.250855	-0.000030
H52	H	1.134118	-0.445736	-0.144217
H53	H	0.596521	0.255946	-0.000028
H54	H	0.478017	0.253847	-0.000049
H55	H	0.635179	-0.021679	-0.000006
H56	H	0.898533	-0.417176	-0.000093
Cl57	Cl	0.781720	0.293194	-0.000022
Cl58	Cl	0.919315	0.244782	0.541213
H59	H	0.946245	0.219518	0.436709
Cl60	Cl	1.254170	-0.342368	-0.000132
H61	H	1.166939	0.012632	0.436693
Cl62	Cl	0.959730	-0.306196	-0.179971
Cl63	Cl	0.919284	0.244767	0.233840
H64	H	0.804438	-0.018681	-0.000002
Cl65	Cl	1.153391	-0.461657	0.179910
H66	H	0.979018	-0.321976	0.144008
H67	H	1.166977	0.012642	0.744070
H68	H	0.516685	-0.023768	-0.000012
H69	H	1.166932	0.012631	0.255903
Cl70	Cl	0.331475	-0.061017	-0.000007
H71	H	1.166962	0.012639	0.563268
H72	H	0.946280	0.219537	0.744075
