data_functionalizedCrystal
_audit_creation_method	'MofGen! by Chris Wilmer'
_symmetry_space_group_name_H-M	'P1'
_symmetry_Int_Tables_number	1
_symmetry_cell_setting	triclinic
loop_
_symmetry_equiv_pos_as_xyz
  x,y,z
_cell_length_a	19.188930
_cell_length_b	19.188930
_cell_length_c	17.666332
_cell_angle_alpha	90.011603
_cell_angle_beta	90.023234
_cell_angle_gamma	83.144779
loop_
_atom_site_label
_atom_site_type_symbol
_atom_site_fract_x
_atom_site_fract_y
_atom_site_fract_z
O1	O	-0.926150	-0.087169	-0.063200
O2	O	-0.592816	0.246165	0.270133
O3	O	-0.259483	0.579498	0.603467
O4	O	-0.722838	-0.098903	-0.063149
O5	O	-0.389505	0.234430	0.270184
O6	O	-0.056172	0.567764	0.603517
O7	O	-0.830361	0.008620	-0.063161
O8	O	-0.497028	0.341953	0.270172
O9	O	-0.163694	0.675286	0.603505
O10	O	-0.818627	-0.194692	-0.063188
O11	O	-0.485294	0.138642	0.270145
O12	O	-0.151960	0.471975	0.603479
O13	O	-0.830342	0.008625	0.062735
O14	O	-0.497009	0.341959	0.396069
O15	O	-0.163676	0.675292	0.729402
O16	O	-0.722820	-0.098897	0.062747
O17	O	-0.389486	0.234436	0.396081
O18	O	-0.056153	0.567769	0.729414
O19	O	-0.926131	-0.087163	0.062697
O20	O	-0.592797	0.246170	0.396030
O21	O	-0.259464	0.579504	0.729363
Cu22	Cu	-0.824473	-0.093030	0.074217
Cu23	Cu	-0.491140	0.240304	0.407551
Cu24	Cu	-0.157807	0.573637	0.740884
Cu25	Cu	-0.824496	-0.093036	-0.074670
Cu26	Cu	-0.491162	0.240297	0.258663
Cu27	Cu	-0.157829	0.573630	0.591997
O28	O	-0.818608	-0.194686	0.062709
O29	O	-0.485275	0.138647	0.396042
O30	O	-0.151941	0.471981	0.729375
C31	C	-0.696818	-0.098520	-0.000194
C32	C	-0.363485	0.234813	0.333139
C33	C	-0.030151	0.568146	0.666472
C34	C	-0.619313	-0.097380	-0.000174
C35	C	-0.285980	0.235954	0.333159
C36	C	0.047353	0.569287	0.666492
C37	C	-0.829972	0.034634	-0.000211
C38	C	-0.496638	0.367967	0.333123
C39	C	-0.163305	0.701300	0.666456
C40	C	-0.828831	0.112138	-0.000204
C41	C	-0.495498	0.445471	0.333129
C42	C	-0.162164	0.778805	0.666463
C43	C	-0.952151	-0.087546	-0.000260
C44	C	-0.618818	0.245787	0.333073
C45	C	-0.285485	0.579121	0.666407
C46	C	-1.029656	-0.088687	-0.000285
C47	C	-0.696322	0.244647	0.333048
C48	C	-0.362989	0.577980	0.666382
C49	C	-0.574389	-0.160470	-0.000194
C50	C	-0.241056	0.172863	0.333139
C51	C	0.092277	0.506196	0.666472
C52	C	-0.501566	-0.159399	-0.000203
C53	C	-0.168232	0.173935	0.333131
C54	C	0.165101	0.507268	0.666464
C55	C	-0.473669	-0.095233	-0.000206
C56	C	-0.140336	0.238101	0.333128
C57	C	0.192998	0.571434	0.666461
C58	C	-0.518603	-0.032133	-0.000181
C59	C	-0.185270	0.301200	0.333152
C60	C	0.148064	0.634533	0.666485
C61	C	-0.591425	-0.033207	-0.000166
C62	C	-0.258092	0.300126	0.333168
C63	C	0.075242	0.633460	0.666501
N64	N	-0.365695	-0.046188	-0.043078
N65	N	-0.032362	0.287146	0.290255
N66	N	0.300971	0.620479	0.623589
N67	N	-0.296517	-0.045172	-0.043095
N68	N	0.036817	0.288161	0.290239
N69	N	0.370150	0.621495	0.623572
C70	C	-0.254260	-0.091994	-0.000252
C71	C	0.079073	0.241339	0.333082
C72	C	0.412406	0.574672	0.666415
N73	N	-0.283795	-0.139881	0.042599
N74	N	0.049539	0.193452	0.375932
N75	N	0.382872	0.526785	0.709266
N76	N	-0.352979	-0.140899	0.042612
N77	N	-0.019646	0.192435	0.375946
N78	N	0.313687	0.525768	0.709279
C79	C	-0.394707	-0.094062	-0.000222
C80	C	-0.061373	0.239272	0.333111
C81	C	0.271960	0.572605	0.666444
C82	C	-0.130372	-0.153928	-0.000280
C83	C	0.202961	0.179406	0.333054
C84	C	0.536295	0.512739	0.666387
C85	C	-0.057547	-0.152853	-0.000283
C86	C	0.275786	0.180480	0.333050
C87	C	0.609119	0.513813	0.666384
C88	C	-0.074586	-0.025586	-0.000270
C89	C	0.258747	0.307747	0.333064
C90	C	0.592081	0.641080	0.666397
C91	C	-0.147409	-0.026662	-0.000258
C92	C	0.185924	0.306671	0.333075
C93	C	0.519257	0.640004	0.666408
C94	C	-0.175298	-0.090835	-0.000267
C95	C	0.158036	0.242498	0.333066
C96	C	0.491369	0.575832	0.666400
C97	C	-0.818997	-0.220700	-0.000244
C98	C	-0.485664	0.112634	0.333090
C99	C	-0.152331	0.445967	0.666423
C100	C	-0.820138	-0.298204	-0.000255
C101	C	-0.486805	0.035129	0.333078
C102	C	-0.153471	0.368462	0.666411
C103	C	-0.891922	0.157062	-0.000216
C104	C	-0.558589	0.490395	0.333117
C105	C	-0.225255	0.823729	0.666451
C106	C	-0.890850	0.229886	-0.000228
C107	C	-0.557517	0.563219	0.333105
C108	C	-0.224184	0.896552	0.666439
C109	C	-0.826684	0.257782	-0.000212
C110	C	-0.493351	0.591116	0.333121
C111	C	-0.160017	0.924449	0.666454
C112	C	-0.763585	0.212849	-0.000205
C113	C	-0.430252	0.546182	0.333129
C114	C	-0.096918	0.879515	0.666462
C115	C	-0.764658	0.140026	-0.000200
C116	C	-0.431325	0.473360	0.333133
C117	C	-0.097992	0.806693	0.666466
N118	N	-0.777630	0.365789	0.042645
N119	N	-0.444297	0.699123	0.375978
N120	N	-0.110964	1.032456	0.709311
N121	N	-0.776615	0.434968	0.042642
N122	N	-0.443282	0.768301	0.375976
N123	N	-0.109948	1.101635	0.709309
C124	C	-0.823446	0.477191	-0.000227
C125	C	-0.490113	0.810524	0.333106
C126	C	-0.156779	1.143858	0.666440
N127	N	-0.871341	0.447624	-0.043084
N128	N	-0.538008	0.780957	0.290249
N129	N	-0.204675	1.114290	0.623582
N130	N	-0.872359	0.378439	-0.043079
N131	N	-0.539026	0.711772	0.290255
N132	N	-0.205692	1.045106	0.623588
C133	C	-0.825513	0.336745	-0.000218
C134	C	-0.492180	0.670078	0.333116
C135	C	-0.158846	1.003412	0.666449
C136	C	-0.885379	0.601079	-0.000253
C137	C	-0.552046	0.934413	0.333080
C138	C	-0.218712	1.267746	0.666414
C139	C	-0.884305	0.673904	-0.000270
C140	C	-0.550971	1.007238	0.333064
C141	C	-0.217638	1.340571	0.666397
C142	C	-0.757038	0.656865	-0.000239
C143	C	-0.423704	0.990199	0.333095
C144	C	-0.090371	1.323532	0.666428
C145	C	-0.758114	0.584042	-0.000230
C146	C	-0.424781	0.917376	0.333104
C147	C	-0.091447	1.250709	0.666437
C148	C	-0.822287	0.556154	-0.000233
C149	C	-0.488953	0.889487	0.333100
C150	C	-0.155620	1.222821	0.666433
N151	N	-0.824463	-0.093025	0.178937
N152	N	-0.491130	0.240309	0.512270
N153	N	-0.157796	0.573642	0.845603
N154	N	-0.824512	-0.093036	-0.179390
N155	N	-0.491178	0.240297	0.153944
N156	N	-0.157845	0.573631	0.487277
C157	C	-0.872089	-0.045437	0.218541
C158	C	-0.538756	0.287897	0.551875
C159	C	-0.205423	0.621230	0.885208
C160	C	-0.872093	-0.045433	0.297789
C161	C	-0.538760	0.287900	0.631122
C162	C	-0.205427	0.621233	0.964455
C163	C	-0.824478	-0.093030	0.337429
C164	C	-0.491144	0.240303	0.670762
C165	C	-0.157811	0.573637	1.004096
C166	C	-0.776842	-0.140621	0.297815
C167	C	-0.443509	0.192712	0.631148
C168	C	-0.110176	0.526045	0.964482
C169	C	-0.776835	-0.140619	0.218569
C170	C	-0.443502	0.192715	0.551902
C171	C	-0.110168	0.526048	0.885236
N172	N	-0.815401	-0.154837	0.461841
N173	N	-0.482068	0.178496	0.795174
N174	N	-0.148735	0.511829	1.128508
N175	N	-0.815413	-0.154837	0.537121
N176	N	-0.482079	0.178496	0.870455
N177	N	-0.148746	0.511829	1.203788
C178	C	-0.824496	-0.093040	0.576193
C179	C	-0.491163	0.240294	0.909526
C180	C	-0.157829	0.573627	1.242860
N181	N	-0.833582	-0.031239	0.537140
N182	N	-0.500248	0.302094	0.870474
N183	N	-0.166915	0.635427	1.203807
N184	N	-0.833574	-0.031240	0.461853
N185	N	-0.500241	0.302094	0.795186
N186	N	-0.166907	0.635427	1.128520
C187	C	-0.824480	-0.093038	0.423358
C188	C	-0.491147	0.240296	0.756691
C189	C	-0.157813	0.573629	1.090025
C190	C	-0.872130	-0.045444	0.701727
C191	C	-0.538796	0.287889	1.035060
C192	C	-0.205463	0.621223	1.368393
C193	C	-0.872129	-0.045440	0.780976
C194	C	-0.538795	0.287894	1.114309
C195	C	-0.205462	0.621227	1.447642
C196	C	-0.776881	-0.140634	0.781000
C197	C	-0.443548	0.192699	1.114334
C198	C	-0.110214	0.526033	1.447667
C199	C	-0.776878	-0.140632	0.701753
C200	C	-0.443545	0.192701	1.035086
C201	C	-0.110212	0.526034	1.368420
C202	C	-0.824506	-0.093038	0.662121
C203	C	-0.491173	0.240295	0.995454
C204	C	-0.157840	0.573629	1.328787
H205	H	-0.464982	-0.210776	-0.000217
H206	H	-0.131648	0.122557	0.333116
H207	H	0.201685	0.455890	0.666450
H208	H	-0.738051	-0.179371	0.186322
H209	H	-0.404718	0.153962	0.519656
H210	H	-0.071384	0.487295	0.852989
H211	H	-0.738109	-0.179385	0.813275
H212	H	-0.404775	0.153948	1.146608
H213	H	-0.071442	0.487281	1.479942
H214	H	-0.910910	-0.006684	0.813222
H215	H	-0.577576	0.326649	1.146556
H216	H	-0.244243	0.659982	1.479889
H217	H	-0.738099	-0.179386	0.669505
H218	H	-0.404766	0.153948	1.002838
H219	H	-0.071433	0.487281	1.336172
C220	C	-0.637898	0.188694	-0.000182
C221	C	-0.304565	0.522027	0.333152
C222	C	0.028768	0.855361	0.666485
C223	C	-0.693051	0.243509	-0.000190
C224	C	-0.359718	0.576842	0.333143
C225	C	-0.026385	0.910175	0.666476
H226	H	-0.594353	0.207623	-0.000181
H227	H	-0.261020	0.540956	0.333153
H228	H	0.072313	0.874290	0.666486
H229	H	-0.640954	0.160656	0.043720
H230	H	-0.307621	0.493989	0.377053
H231	H	0.025713	0.827322	0.710386
H232	H	-0.640979	0.160635	-0.044087
H233	H	-0.307646	0.493969	0.289247
H234	H	0.025688	0.827302	0.622580
H235	H	-0.689974	0.271564	0.043718
H236	H	-0.356641	0.604898	0.377051
H237	H	-0.023307	0.938231	0.710385
H238	H	-0.689994	0.271559	-0.044096
H239	H	-0.356661	0.604892	0.289237
H240	H	-0.023328	0.938225	0.622571
H241	H	-0.183988	0.024713	-0.000246
H242	H	0.149346	0.358046	0.333087
H243	H	0.482679	0.691380	0.666420
H244	H	-0.944176	0.134360	-0.000222
H245	H	-0.610843	0.467694	0.333112
H246	H	-0.277509	0.801027	0.666445
C247	C	-1.016756	0.239421	-0.000238
C248	C	-0.683423	0.572754	0.333095
C249	C	-0.350089	0.906087	0.666428
C250	C	-0.960204	0.279278	-0.000236
C251	C	-0.626871	0.612611	0.333097
C252	C	-0.293538	0.945945	0.666431
H253	H	-1.059571	0.269913	-0.000238
H254	H	-0.726238	0.603247	0.333095
H255	H	-0.392904	0.936580	0.666429
H256	H	-1.014542	0.210658	-0.044138
H257	H	-0.681209	0.543991	0.289195
H258	H	-0.347875	0.877324	0.622529
H259	H	-1.014513	0.210668	0.043668
H260	H	-0.681179	0.544002	0.377002
H261	H	-0.347846	0.877335	0.710335
H262	H	-0.962445	0.308027	-0.044146
H263	H	-0.629111	0.641360	0.289188
H264	H	-0.295778	0.974694	0.622521
H265	H	-0.962419	0.308053	0.043668
H266	H	-0.629086	0.641387	0.377002
H267	H	-0.295753	0.974720	0.710335
H268	H	-0.713281	0.103448	-0.000190
H269	H	-0.379947	0.436782	0.333143
H270	H	-0.046614	0.770115	0.666476
H271	H	-0.738072	-0.179374	0.330094
H272	H	-0.404738	0.153959	0.663427
H273	H	-0.071405	0.487293	0.996761
C274	C	-0.582300	-0.269279	-0.064927
C275	C	-0.248966	0.064055	0.268406
C276	C	0.084367	0.397388	0.601739
C277	C	-0.605033	-0.231014	-0.000199
C278	C	-0.271700	0.102320	0.333134
C279	C	0.061634	0.435653	0.666467
H280	H	-0.601213	-0.312832	-0.064927
H281	H	-0.267880	0.020501	0.268407
H282	H	0.065453	0.353835	0.601740
H283	H	-0.597768	-0.243312	-0.108815
H284	H	-0.264434	0.090021	0.224519
H285	H	0.068899	0.423354	0.557852
H286	H	-0.532498	-0.277652	-0.064931
H287	H	-0.199165	0.055681	0.268402
H288	H	0.134168	0.389014	0.601735
H289	H	-0.654834	-0.222635	-0.000198
H290	H	-0.321501	0.110698	0.333135
H291	H	0.011832	0.444031	0.666468
H292	H	-0.589569	-0.256986	0.043699
H293	H	-0.256235	0.076348	0.377033
H294	H	0.077098	0.409681	0.710366
H295	H	-0.935683	0.710481	-0.000284
H296	H	-0.602350	1.043815	0.333050
H297	H	-0.269017	1.377148	0.666383
H298	H	-0.628003	0.018171	-0.000150
H299	H	-0.294670	0.351504	0.333184
H300	H	0.038664	0.684838	0.666517
C301	C	-0.966245	0.048658	0.289813
C302	C	-0.632912	0.381991	0.623146
C303	C	-0.299578	0.715325	0.956479
C304	C	-0.924446	0.006881	0.341334
C305	C	-0.591112	0.340214	0.674668
C306	C	-0.257779	0.673548	1.008001
H307	H	-0.998566	0.080952	0.316696
H308	H	-0.665232	0.414286	0.650029
H309	H	-0.331899	0.747619	0.983362
H310	H	-0.937261	0.073702	0.258927
H311	H	-0.603928	0.407036	0.592260
H312	H	-0.270594	0.740369	0.925594
H313	H	-0.991266	0.019651	0.258882
H314	H	-0.657932	0.352984	0.592215
H315	H	-0.324599	0.686317	0.925548
H316	H	-0.899421	0.035888	0.372262
H317	H	-0.566088	0.369222	0.705595
H318	H	-0.232754	0.702555	1.038928
H319	H	-0.953434	-0.018165	0.372233
H320	H	-0.620100	0.315168	0.705566
H321	H	-0.286767	0.648502	1.038900
C322	C	-1.011068	0.625233	-0.000303
C323	C	-0.677735	0.958566	0.333031
C324	C	-0.344402	1.291900	0.666364
C325	C	-0.955915	0.570419	-0.000275
C326	C	-0.622582	0.903752	0.333058
C327	C	-0.289249	1.237085	0.666391
H328	H	-1.054613	0.606304	-0.000324
H329	H	-0.721280	0.939637	0.333010
H330	H	-0.387947	1.272971	0.666343
H331	H	-1.008002	0.653290	0.043597
H332	H	-0.674669	0.986624	0.376931
H333	H	-0.341336	1.319957	0.710264
H334	H	-1.007998	0.653273	-0.044209
H335	H	-0.674665	0.986606	0.289124
H336	H	-0.341331	1.319939	0.622458
H337	H	-0.958983	0.542382	0.043634
H338	H	-0.625649	0.875715	0.376967
H339	H	-0.292316	1.209049	0.710301
H340	H	-0.958983	0.542349	-0.044180
H341	H	-0.625649	0.875683	0.289154
H342	H	-0.292316	1.209016	0.622487
C343	C	0.034196	-0.225472	-0.065032
C344	C	0.367529	0.107862	0.268301
C345	C	0.700863	0.441195	0.601634
C346	C	-0.008163	-0.222208	-0.000307
C347	C	0.325171	0.111125	0.333026
C348	C	0.658504	0.444458	0.666360
H349	H	0.064687	-0.268288	-0.065044
H350	H	0.398020	0.065045	0.268289
H351	H	0.731353	0.398379	0.601623
H352	H	0.005410	-0.223245	-0.108921
H353	H	0.338743	0.110089	0.224412
H354	H	0.672076	0.443422	0.557745
H355	H	0.061228	-0.187100	-0.065019
H356	H	0.394561	0.146233	0.268314
H357	H	0.727894	0.479567	0.601647
H358	H	-0.035198	-0.260578	-0.000322
H359	H	0.298135	0.072756	0.333011
H360	H	0.631468	0.406089	0.666344
H361	H	0.020627	-0.224442	0.043593
H362	H	0.353960	0.108891	0.376927
H363	H	0.687294	0.442224	0.710260
H364	H	-0.704792	0.679578	-0.000230
H365	H	-0.371459	1.012911	0.333104
H366	H	-0.038126	1.346245	0.666437
H367	H	-0.495885	0.020111	-0.000194
H368	H	-0.162552	0.353444	0.333139
H369	H	0.170782	0.686778	0.666472
C370	C	-0.966272	0.048656	0.709659
C371	C	-0.632938	0.381990	1.042992
C372	C	-0.299605	0.715323	1.376326
C373	C	-0.924473	0.006877	0.658157
C374	C	-0.591139	0.340211	0.991490
C375	C	-0.257806	0.673544	1.324824
H376	H	-0.998582	0.080960	0.682761
H377	H	-0.665249	0.414293	1.016094
H378	H	-0.331916	0.747626	1.349427
H379	H	-0.991298	0.019656	0.740546
H380	H	-0.657964	0.352989	1.073879
H381	H	-0.324631	0.686323	1.407213
H382	H	-0.937281	0.073696	0.740590
H383	H	-0.603948	0.407029	1.073924
H384	H	-0.270614	0.740363	1.407257
H385	H	-0.953463	-0.018167	0.627229
H386	H	-0.620130	0.315167	0.960562
H387	H	-0.286797	0.648500	1.293896
H388	H	-0.899445	0.035881	0.627257
H389	H	-0.566112	0.369215	0.960590
H390	H	-0.232778	0.702548	1.293924
H391	H	-0.910869	-0.006681	0.186275
H392	H	-0.577536	0.326652	0.519608
H393	H	-0.244202	0.659985	0.852942
C394	C	-0.106218	-0.279617	-0.000286
C395	C	0.227115	0.053717	0.333048
C396	C	0.560448	0.387050	0.666381
C397	C	-0.161033	-0.224464	-0.000277
C398	C	0.172300	0.108869	0.333056
C399	C	0.505634	0.442203	0.666389
H400	H	-0.125147	-0.323162	-0.000279
H401	H	0.208186	0.010171	0.333054
H402	H	0.541519	0.343505	0.666387
H403	H	-0.078193	-0.276556	-0.044190
H404	H	0.255140	0.056777	0.289143
H405	H	0.588474	0.390111	0.622476
H406	H	-0.078147	-0.276542	0.043616
H407	H	0.255187	0.056792	0.376949
H408	H	0.588520	0.390125	0.710283
H409	H	-0.189102	-0.227536	-0.044182
H410	H	0.144232	0.105797	0.289151
H411	H	0.477565	0.439131	0.622485
H412	H	-0.189070	-0.227526	0.043632
H413	H	0.144263	0.105807	0.376965
H414	H	0.477597	0.439140	0.710298
H415	H	-0.051874	0.026659	-0.000319
H416	H	0.281460	0.359992	0.333014
H417	H	0.614793	0.693326	0.666348
H418	H	-0.706738	0.547464	-0.000216
H419	H	-0.373405	0.880797	0.333118
H420	H	-0.040072	1.214131	0.666451
