data_functionalizedCrystal
_audit_creation_method	'MofGen! by Chris Wilmer'
_symmetry_space_group_name_H-M	'P1'
_symmetry_Int_Tables_number	1
_symmetry_cell_setting	triclinic
loop_
_symmetry_equiv_pos_as_xyz
  x,y,z
_cell_length_a	14.519731
_cell_length_b	14.519731
_cell_length_c	13.448316
_cell_angle_alpha	89.992415
_cell_angle_beta	89.993151
_cell_angle_gamma	83.688853
loop_
_atom_site_label
_atom_site_type_symbol
_atom_site_fract_x
_atom_site_fract_y
_atom_site_fract_z
O1	O	1.223867	0.120986	-0.082696
O2	O	0.955394	0.135202	-0.082698
O3	O	1.096739	-0.006143	-0.082688
O4	O	1.082523	0.262330	-0.082706
O5	O	1.096721	-0.006152	0.082696
O6	O	0.955376	0.135193	0.082686
O7	O	1.223850	0.120977	0.082688
Cu8	Cu	1.089611	0.128084	0.097788
Cu9	Cu	1.089632	0.128094	-0.097798
O10	O	1.082505	0.262322	0.082678
C11	C	0.921026	0.134531	-0.000006
C12	C	0.818645	0.132535	-0.000007
C13	C	1.096064	-0.040507	0.000004
C14	C	1.094068	-0.142887	0.000005
C15	C	0.735501	0.130913	-0.000011
C16	C	0.631192	0.128887	-0.000011
C17	C	0.548053	0.127278	-0.000011
C18	C	0.443738	0.125252	-0.000013
C19	C	1.092446	-0.226031	0.000002
C20	C	1.090419	-0.330340	-0.000005
C21	C	1.088811	-0.413479	-0.000012
C22	C	1.086785	-0.517795	-0.000017
C23	C	1.258218	0.121648	-0.000006
C24	C	1.360598	0.123644	-0.000013
C25	C	1.083180	0.296685	-0.000017
C26	C	1.085176	0.399066	-0.000024
N27	N	1.089603	0.128076	0.235352
N28	N	1.089648	0.128095	-0.235362
C29	C	1.152210	0.065515	0.287397
C30	C	1.152216	0.065514	0.391500
C31	C	1.089619	0.128080	0.443556
C32	C	1.027005	0.190645	0.391504
C33	C	1.026996	0.190640	0.287403
C34	C	1.027031	0.190651	0.608484
C35	C	1.027041	0.190657	0.712593
C36	C	1.152251	0.065525	0.712581
C37	C	1.152242	0.065520	0.608480
C38	C	1.089629	0.128086	0.556435
H39	H	1.203194	0.014571	0.433874
H40	H	1.203232	0.014581	0.754962
O41	O	1.213053	0.004648	0.236987
C42	C	1.337278	-0.119432	0.247975
C43	C	1.268409	-0.050561	0.305183
H44	H	1.382064	-0.164073	0.303087
H45	H	1.297431	-0.165661	0.199284
H46	H	1.383368	-0.079494	0.199192
H47	H	1.222302	-0.090423	0.354021
H48	H	1.308314	-0.004332	0.353812
O49	O	1.213083	0.004657	0.558064
C50	C	1.337312	-0.119420	0.569032
C51	C	1.268446	-0.050556	0.626251
H52	H	1.382104	-0.164065	0.624136
H53	H	1.297462	-0.165648	0.520341
H54	H	1.383396	-0.079477	0.520248
H55	H	1.222344	-0.090423	0.675090
H56	H	1.308353	-0.004329	0.674880
H57	H	0.976067	0.241603	0.754972
H58	H	0.976042	0.241596	0.566113
H59	H	0.976032	0.241584	0.433895
H60	H	0.976014	0.241583	0.245029
