data_functionalizedCrystal
_audit_creation_method	'MofGen! by Chris Wilmer'
_symmetry_space_group_name_H-M	'P1'
_symmetry_Int_Tables_number	1
_symmetry_cell_setting	triclinic
loop_
_symmetry_equiv_pos_as_xyz
  x,y,z
_cell_length_a	6.817900
_cell_length_b	17.458011
_cell_length_c	9.514088
_cell_angle_alpha	90.061718
_cell_angle_beta	118.843545
_cell_angle_gamma	106.367272
loop_
_atom_site_label
_atom_site_type_symbol
_atom_site_fract_x
_atom_site_fract_y
_atom_site_fract_z
V1	V	-4.233184	-0.111987	-0.502203
O2	O	-4.200812	0.003924	-0.491160
O3	O	-4.198635	-0.220649	-0.500194
O4	O	-4.267810	-0.110904	-0.720580
O5	O	-4.131158	-0.106581	-0.269249
V6	V	-4.704259	-0.098047	-0.474166
O7	O	-4.521749	-0.142565	-0.563703
O8	O	-4.865892	-0.067469	-0.412666
O9	O	-4.515601	0.010615	-0.476175
O10	O	-4.854028	-0.213957	-0.485209
O11	O	-4.923682	-0.103453	-0.707120
O12	O	-4.446426	-0.099130	-0.255789
C13	C	-4.044320	-0.247118	-0.492640
C14	C	-4.097912	-0.335955	-0.492453
C15	C	-4.419467	-0.836438	-0.492088
C16	C	-4.369110	-0.752968	-0.492284
C17	C	-4.158200	-0.707146	-0.484326
C18	C	-3.997626	-0.744796	-0.476155
C19	C	-4.047976	-0.828264	-0.475947
C20	C	-3.987689	-0.457074	-0.484074
C21	C	-3.937352	-0.373601	-0.484287
C22	C	-4.308839	-0.381778	-0.500414
C23	C	-4.359180	-0.465248	-0.500214
C24	C	-4.198597	-0.502890	-0.492035
N25	N	-4.106725	-0.621826	-0.484532
N26	N	-4.250065	-0.588208	-0.491817
C27	C	-4.132557	-0.107127	-0.773762
C28	C	-4.242242	-0.106960	-0.952295
C29	C	-4.333258	0.037080	-0.483725
C30	C	-4.258908	0.125916	-0.483922
C31	C	-4.245019	-0.102910	-0.202599
C32	C	-4.114571	-0.103072	-0.024063
H33	H	-4.591215	-0.873742	-0.498577
H34	H	-3.921359	-0.099878	-0.948926
F35	F	-4.494812	-0.111147	-1.050514
F36	F	-4.479722	-0.341710	-0.509113
H37	H	-3.765605	-0.336294	-0.477817
F38	F	-4.583654	-0.514009	-0.508681
F39	F	-3.816762	-0.497123	-0.475348
H40	H	-3.825888	-0.707480	-0.469665
F41	F	-3.877083	-0.868328	-0.467254
F42	F	-4.539978	-0.712904	-0.500936
