data_functionalizedCrystal
_audit_creation_method	'MofGen! by Chris Wilmer'
_symmetry_space_group_name_H-M	'P1'
_symmetry_Int_Tables_number	1
_symmetry_cell_setting	triclinic
loop_
_symmetry_equiv_pos_as_xyz
  x,y,z
_cell_length_a	17.699083
_cell_length_b	10.654541
_cell_length_c	16.176319
_cell_angle_alpha	89.993456
_cell_angle_beta	89.998611
_cell_angle_gamma	83.883472
loop_
_atom_site_label
_atom_site_type_symbol
_atom_site_fract_x
_atom_site_fract_y
_atom_site_fract_z
O1	O	1.005088	0.158809	-0.068630
O2	O	0.784840	0.179471	-0.068657
O3	O	0.900029	-0.013688	-0.068638
O4	O	0.889899	0.351968	-0.068649
O5	O	0.900013	-0.013701	0.068855
O6	O	0.784824	0.179458	0.068836
O7	O	1.005072	0.158797	0.068863
Cu8	Cu	0.894946	0.169126	0.081404
Cu9	Cu	0.894965	0.169141	-0.081198
O10	O	0.889883	0.351956	0.068844
C11	C	0.756631	0.178724	0.000086
C12	C	0.672599	0.176503	0.000076
C13	C	0.624698	0.289883	0.000072
C14	C	0.545741	0.287789	0.000083
C15	C	0.514687	0.172313	0.000091
C16	C	0.562594	0.058924	0.000097
C17	C	0.641549	0.061020	0.000092
C18	C	0.244177	0.050470	0.000118
C19	C	0.165216	0.048383	0.000120
C20	C	0.148369	0.277239	0.000109
C21	C	0.227324	0.279335	0.000104
C22	C	0.275224	0.165946	0.000114
C23	C	0.360838	0.168219	0.000104
C24	C	0.429075	0.170039	0.000096
C25	C	0.899277	-0.060480	0.000108
C26	C	0.897053	-0.199884	0.000106
C27	C	1.034792	-0.230266	0.000134
C28	C	1.102614	-0.310947	0.000149
C29	C	1.100519	-0.441929	0.000146
C30	C	1.030596	-0.492230	0.000126
C31	C	0.962775	-0.411549	0.000110
C32	C	0.964876	-0.280566	0.000116
C33	C	0.825037	-0.381167	0.000077
C34	C	0.827130	-0.250185	0.000086
C35	C	0.755114	-0.431468	0.000056
C36	C	0.687291	-0.350786	0.000047
C37	C	0.689388	-0.219798	0.000051
C38	C	0.759308	-0.169504	0.000071
C39	C	1.033281	0.159543	0.000118
C40	C	1.117313	0.161764	0.000123
C41	C	0.890634	0.398747	0.000096
C42	C	0.892859	0.538151	0.000092
N43	N	0.894939	0.169115	0.195769
N44	N	0.894979	0.169142	-0.195563
C45	C	0.945960	0.083620	0.239042
C46	C	0.945964	0.083618	0.325589
C47	C	0.894949	0.169120	0.368862
C48	C	0.843923	0.254620	0.325583
C49	C	0.843916	0.254614	0.239037
C50	C	0.843949	0.254643	0.674611
C51	C	0.843961	0.254645	0.761163
C52	C	0.945997	0.083647	0.761162
C53	C	0.945990	0.083642	0.674617
C54	C	0.894961	0.169137	0.631346
C55	C	0.894956	0.169136	0.537502
C56	C	0.894957	0.169128	0.462704
H57	H	0.680549	-0.031306	0.000094
F58	F	0.789643	0.345635	0.628565
F59	F	0.132168	-0.074529	0.000129
F60	F	1.000261	-0.007379	0.192996
H61	H	1.036505	-0.123616	0.000147
H62	H	0.987545	0.014029	0.796403
F63	F	0.789661	0.345651	0.807215
F64	F	0.752886	-0.570871	0.000011
H65	H	0.987508	0.014000	0.360821
H66	H	0.630364	-0.391753	0.000025
F67	F	0.494765	0.408464	0.000076
H68	H	0.802368	0.324232	0.203805
F69	F	1.177028	-0.257404	0.000166
H70	H	0.987533	0.014023	0.639387
H71	H	0.802382	0.324233	0.360820
H72	H	0.649976	0.383917	0.000065
H73	H	0.283168	-0.041858	0.000127
H74	H	0.761023	-0.062854	0.000079
F75	F	0.260370	0.402239	0.000090
H76	H	1.155746	-0.507621	0.000152
H77	H	0.537303	-0.035099	0.000116
H78	H	0.109359	0.369565	0.000105
H79	H	1.028897	-0.598883	0.000113
F80	F	0.617201	-0.133939	0.000029
