data_functionalizedCrystal
_audit_creation_method	'MofGen! by Chris Wilmer'
_symmetry_space_group_name_H-M	'P1'
_symmetry_Int_Tables_number	1
_symmetry_cell_setting	triclinic
loop_
_symmetry_equiv_pos_as_xyz
  x,y,z
_cell_length_a	15.944551
_cell_length_b	26.809956
_cell_length_c	15.944551
_cell_angle_alpha	90.003391
_cell_angle_beta	96.501262
_cell_angle_gamma	90.004339
loop_
_atom_site_label
_atom_site_type_symbol
_atom_site_fract_x
_atom_site_fract_y
_atom_site_fract_z
O1	O	1.114531	0.041429	-0.108320
O2	O	0.869981	0.041441	-0.121676
O3	O	0.998934	0.041430	0.007276
O4	O	0.985578	0.041440	-0.237273
O5	O	0.998910	-0.041529	0.007257
O6	O	0.869957	-0.041518	-0.121696
O7	O	1.114506	-0.041531	-0.108340
Zn8	Zn	0.992228	-0.054696	-0.115021
Zn9	Zn	0.992260	0.054606	-0.114995
O10	O	0.985553	-0.041519	-0.237293
C11	C	0.838675	-0.000037	-0.121132
C12	C	0.745429	-0.000032	-0.119470
N13	N	0.992212	-0.129292	-0.115038
C14	C	0.530572	-0.000045	-0.035565
C15	C	0.469564	0.040860	-0.074518
C16	C	0.574703	-0.000038	-0.116462
C17	C	0.469562	-0.040932	-0.074556
C18	C	0.409790	-0.000046	-0.113551
C19	C	0.514923	0.040900	-0.155437
C20	C	0.514928	-0.040928	-0.155464
C21	C	0.453937	-0.000013	-0.194476
C22	C	0.669705	-0.000033	-0.118137
C23	C	0.314789	-0.000048	-0.111883
C24	C	1.049353	-0.473923	-0.057909
C25	C	1.049373	-0.682801	-0.057896
O26	O	1.097922	-0.709809	-0.009328
N27	N	0.992264	-0.708919	-0.114977
C28	C	0.935143	-0.682815	-0.172061
O29	O	0.886564	-0.709823	-0.220605
C30	C	0.935120	-0.473938	-0.172069
C31	C	0.992238	-0.447822	-0.114990
C32	C	1.106465	-0.447807	-0.000834
C33	C	1.106463	-0.395591	-0.000841
C34	C	1.049348	-0.369490	-0.057923
C35	C	0.992235	-0.395606	-0.114997
C36	C	0.877996	-0.447835	-0.229148
C37	C	0.877993	-0.395612	-0.229144
C38	C	0.935111	-0.369497	-0.172065
C39	C	0.935118	-0.317289	-0.172085
N40	N	0.992226	-0.291171	-0.115005
C41	C	1.049341	-0.317271	-0.057923
C42	C	0.935161	-0.792478	-0.172054
C43	C	0.935167	-0.844697	-0.172053
C44	C	1.049396	-0.844679	-0.057887
C45	C	1.049393	-0.792459	-0.057892
C46	C	0.992269	-0.766360	-0.114973
C47	C	1.049332	-0.207613	-0.057943
C48	C	1.049327	-0.155392	-0.057957
C49	C	0.935096	-0.155415	-0.172119
C50	C	0.935104	-0.207631	-0.172109
C51	C	0.992225	-0.233729	-0.115013
O52	O	0.886588	-0.290249	-0.220622
O53	O	1.097901	-0.290254	-0.009374
C54	C	1.049355	-0.526139	-0.057902
C55	C	0.992243	-0.552255	-0.114977
C56	C	0.935128	-0.526154	-0.172058
C57	C	0.992249	-0.604474	-0.114976
C58	C	1.049364	-0.630574	-0.057894
C59	C	1.106473	-0.604456	-0.000814
C60	C	1.106470	-0.552240	-0.000821
C61	C	0.878019	-0.552273	-0.229139
C62	C	0.878027	-0.604489	-0.229128
C63	C	0.935142	-0.630590	-0.172046
C64	C	1.145813	-0.000051	-0.108885
C65	C	1.239059	-0.000053	-0.110547
C66	C	0.998367	-0.000050	0.038561
C67	C	0.996705	-0.000050	0.131807
N68	N	0.992282	0.129202	-0.114971
C69	C	0.986120	-0.000039	-0.268577
C70	C	0.987782	-0.000035	-0.361823
C71	C	0.912801	-0.000039	0.346663
C72	C	0.951751	-0.040945	0.407671
C73	C	0.993698	-0.000046	0.302533
C74	C	0.951794	0.040847	0.407674
C75	C	0.990787	-0.000040	0.467445
C76	C	1.032670	-0.040985	0.362312
C77	C	1.032702	0.040843	0.362308
C78	C	1.071711	-0.000073	0.423298
C79	C	0.995372	-0.000050	0.207530
C80	C	0.989119	-0.000039	0.562446
H81	H	0.563905	0.000003	0.031573
H82	H	0.420779	0.000013	-0.261683
H83	H	0.449464	0.075439	-0.040293
H84	H	1.066899	0.075424	0.342186
C85	C	0.872278	-0.236360	-0.234900
C86	C	0.776634	-0.229179	-0.233428
C87	C	0.713801	-0.257902	-0.296215
C88	C	0.746612	-0.293806	-0.360474
C89	C	0.842261	-0.300989	-0.361949
C90	C	0.905094	-0.272266	-0.299162
H91	H	0.752342	-0.202599	-0.185857
H92	H	0.642995	-0.252585	-0.295123
H93	H	0.700099	-0.315069	-0.406953
H94	H	0.866553	-0.327569	-0.409520
H95	H	0.975899	-0.277583	-0.300254
C96	C	0.442414	-0.087650	-0.028330
C97	C	0.348487	-0.096443	-0.018958
C98	C	0.321342	-0.143158	0.027276
C99	C	0.388124	-0.181079	0.064139
C100	C	0.482056	-0.172287	0.054768
C101	C	0.509201	-0.125572	0.008534
H102	H	0.299046	-0.068371	-0.046247
H103	H	0.251807	-0.149666	0.034212
H104	H	0.368029	-0.215660	0.098364
H105	H	0.531497	-0.200359	0.082057
H106	H	0.578737	-0.119064	0.001598
H107	H	1.138919	-0.000100	0.456457
C108	C	0.905520	-0.087659	0.434833
C109	C	0.896161	-0.096441	0.528763
C110	C	0.849926	-0.143154	0.555921
C111	C	0.813050	-0.181085	0.489148
C112	C	0.822408	-0.172304	0.395212
C113	C	0.868643	-0.125591	0.368054
H114	H	0.923460	-0.068361	0.578198
H115	H	0.842999	-0.149653	0.625460
H116	H	0.778824	-0.215664	0.509252
H117	H	0.795109	-0.200384	0.345777
H118	H	0.875571	-0.119091	0.298516
C119	C	0.541932	0.087675	-0.201604
C120	C	0.635745	0.096334	-0.211668
C121	C	0.662756	0.143109	-0.257829
C122	C	0.595954	0.181224	-0.293926
C123	C	0.502135	0.172566	-0.283863
C124	C	0.475124	0.125791	-0.237703
H125	H	0.685201	0.068118	-0.184946
H126	H	0.732207	0.149518	-0.265278
H127	H	0.615949	0.215849	-0.328097
H128	H	0.452679	0.200782	-0.310586
H129	H	0.405672	0.119382	-0.230254
H130	H	1.152981	-0.530980	0.045658
H131	H	0.535049	-0.075509	-0.189660
C132	C	0.815160	-0.476555	-0.291930
C133	C	0.719518	-0.469375	-0.290442
C134	C	0.656676	-0.498095	-0.353226
C135	C	0.689477	-0.533995	-0.417498
C136	C	0.785123	-0.541177	-0.418988
C137	C	0.847965	-0.512457	-0.356204
H138	H	0.695232	-0.442798	-0.242863
H139	H	0.585872	-0.492778	-0.352122
H140	H	0.642958	-0.555255	-0.463974
H141	H	0.809409	-0.567753	-0.466568
H142	H	0.918769	-0.517773	-0.357308
H143	H	0.888642	-0.771231	-0.218538
C144	C	1.112157	-0.126665	0.004835
C145	C	1.174978	-0.155379	0.067627
C146	C	1.237805	-0.126654	0.130418
C147	C	1.237811	-0.069215	0.130417
C148	C	1.174988	-0.040498	0.067624
C149	C	1.112161	-0.069223	0.004833
H150	H	1.174976	-0.197902	0.067629
H151	H	1.284310	-0.147913	0.176902
H152	H	1.284319	-0.047951	0.176899
H153	H	1.174990	0.002024	0.067621
H154	H	1.065655	-0.047965	-0.041651
H155	H	1.095845	-0.228856	-0.011449
C156	C	1.078841	-0.087758	0.335305
C157	C	1.045273	-0.140018	0.353734
C158	C	1.091440	-0.186790	0.326725
C159	C	1.171175	-0.181303	0.281287
C160	C	1.204747	-0.129041	0.262855
C161	C	1.158580	-0.082269	0.289864
H162	H	0.986245	-0.144082	0.387372
H163	H	1.066587	-0.225478	0.340370
H164	H	1.205350	-0.215926	0.261293
H165	H	1.263775	-0.124977	0.229217
H166	H	1.183433	-0.043581	0.276219
H167	H	1.152971	-0.374330	0.045639
C168	C	0.872343	-0.873421	-0.234846
C169	C	0.872339	-0.930860	-0.234856
C170	C	0.809510	-0.959582	-0.297648
C171	C	0.746684	-0.930866	-0.360430
C172	C	0.746686	-0.873424	-0.360423
C173	C	0.809515	-0.844702	-0.297631
H174	H	0.918849	-0.952121	-0.188379
H175	H	0.809509	-1.002105	-0.297653
H176	H	0.700174	-0.952128	-0.406912
H177	H	0.700176	-0.852163	-0.406900
H178	H	0.809516	-0.802179	-0.297626
H179	H	0.831474	-0.374364	-0.275625
H180	H	1.152975	-0.469054	0.045652
H181	H	0.917578	0.075432	0.427759
H182	H	0.831517	-0.625749	-0.275615
C183	C	1.169299	-0.633173	0.061978
C184	C	1.264947	-0.625995	0.060514
C185	C	1.327765	-0.654715	0.123306
C186	C	1.294937	-0.690612	0.187563
C187	C	1.199284	-0.697791	0.189030
C188	C	1.136466	-0.669072	0.126238
H189	H	1.289253	-0.599420	0.012945
H190	H	1.398574	-0.649400	0.122220
H191	H	1.341439	-0.711872	0.234045
H192	H	1.174978	-0.724366	0.236598
H193	H	1.065657	-0.674387	0.127324
H194	H	1.095902	-0.771199	-0.011414
C195	C	0.822092	-0.000086	0.301659
C196	C	0.761897	-0.043417	0.315892
C197	C	0.671192	-0.043467	0.270887
C198	C	0.640680	-0.000186	0.211649
C199	C	0.700875	0.043148	0.197413
C200	C	0.791581	0.043198	0.242418
H201	H	0.784483	-0.075459	0.359747
H202	H	0.626631	-0.075546	0.281426
H203	H	0.573534	-0.000223	0.178333
H204	H	0.678290	0.075190	0.153559
H205	H	0.836142	0.075277	0.231880
H206	H	1.095903	-0.865939	-0.011410
H207	H	0.831508	-0.531026	-0.275620
C208	C	0.872268	-0.126699	-0.234905
C209	C	0.776624	-0.133884	-0.233425
C210	C	0.713790	-0.105167	-0.296206
C211	C	0.746600	-0.069266	-0.360468
C212	C	0.842248	-0.062079	-0.361951
C213	C	0.905082	-0.090796	-0.299169
H214	H	0.752332	-0.160462	-0.185852
H215	H	0.642984	-0.110488	-0.295108
H216	H	0.700086	-0.048008	-0.406942
H217	H	0.866541	-0.035502	-0.409523
H218	H	0.975888	-0.085476	-0.300267
