data_functionalizedCrystal
_audit_creation_method	'MofGen! by Chris Wilmer'
_symmetry_space_group_name_H-M	'P1'
_symmetry_Int_Tables_number	1
_symmetry_cell_setting	triclinic
loop_
_symmetry_equiv_pos_as_xyz
  x,y,z
_cell_length_a	10.489741
_cell_length_b	10.489741
_cell_length_c	15.072220
_cell_angle_alpha	90.007770
_cell_angle_beta	90.002162
_cell_angle_gamma	84.539174
loop_
_atom_site_label
_atom_site_type_symbol
_atom_site_fract_x
_atom_site_fract_y
_atom_site_fract_z
O1	O	1.694054	0.179974	0.073727
O2	O	1.322858	0.196867	0.073741
O3	O	1.516902	0.002823	0.073728
O4	O	1.500010	0.374018	0.073740
O5	O	1.516885	0.002804	-0.073837
O6	O	1.322841	0.196848	-0.073824
O7	O	1.694037	0.179956	-0.073838
Zn8	Zn	1.508436	0.188399	-0.097260
Zn9	Zn	1.508459	0.188423	0.097163
O10	O	1.499992	0.374000	-0.073826
C11	C	1.275318	0.195582	-0.000040
C12	C	1.133688	0.191765	-0.000035
C13	C	1.065548	0.068300	-0.000047
C14	C	0.973430	0.126632	0.072710
C15	C	0.973447	0.126644	-0.072777
C16	C	1.043435	0.250148	0.072783
C17	C	1.043462	0.250142	-0.072770
C18	C	0.951371	0.308564	0.000004
C19	C	1.515618	-0.044718	-0.000054
C20	C	1.511801	-0.186348	-0.000052
C21	C	1.388336	-0.254488	-0.000041
C22	C	1.446651	-0.346619	-0.072800
C23	C	1.446697	-0.346576	0.072687
C24	C	1.570167	-0.276614	-0.072871
C25	C	1.570196	-0.276561	0.072682
C26	C	1.628600	-0.368665	-0.000095
C27	C	1.741577	0.181241	-0.000055
C28	C	1.883206	0.185058	-0.000055
C29	C	1.501277	0.421541	-0.000042
C30	C	1.505094	0.563170	-0.000037
N31	N	1.508430	0.188382	-0.229949
C32	C	1.508445	0.188399	-0.410947
C33	C	1.612299	0.084606	-0.448595
C34	C	1.612682	0.084888	-0.551420
C35	C	1.508460	0.188414	-0.589151
C36	C	1.538203	0.321937	-0.551802
C37	C	1.538941	0.321321	-0.448945
C38	C	1.374545	0.159866	-0.448862
C39	C	1.375422	0.156859	-0.551726
C40	C	1.508466	0.188430	-0.689864
C41	C	1.508442	0.188391	-0.310233
N42	N	1.508475	0.188431	0.229852
H43	H	0.942462	0.074373	-0.134288
O44	O	1.080544	0.312592	-0.146058
C45	C	1.141336	0.420826	-0.119972
H46	H	1.108599	0.451056	-0.050327
H47	H	1.115005	0.502755	-0.168262
H48	H	1.249558	0.396192	-0.120233
O49	O	1.267215	-0.195303	-0.000275
C50	C	1.202579	-0.230825	-0.077120
H51	H	1.275494	-0.263559	-0.130473
H52	H	1.137749	-0.145191	-0.102509
H53	H	1.142227	-0.312446	-0.060515
H54	H	1.115238	-0.033196	0.000041
H55	H	1.622355	-0.245790	-0.134453
H56	H	1.394403	-0.377639	-0.134309
H57	H	0.942423	0.074400	0.134219
H58	H	1.594784	-0.014917	-0.423852
H59	H	1.634767	0.347382	-0.577560
H60	H	1.074270	0.302356	0.134363
H61	H	1.394448	-0.377532	0.134206
O62	O	1.749881	-0.427457	-0.000027
C63	C	1.815247	-0.390133	0.076015
H64	H	1.768244	-0.294446	0.101128
H65	H	1.919506	-0.379995	0.058455
H66	H	1.810848	-0.465776	0.129949
H67	H	1.622399	-0.245509	0.134194
H68	H	1.297252	0.235538	-0.424513
H69	H	0.901947	0.410168	0.000047
H70	H	1.594872	-0.014309	-0.576673
O71	O	1.730076	0.106482	-0.417719
C72	C	1.719025	0.215150	-0.362188
H73	H	1.627736	0.278087	-0.379366
H74	H	1.805405	0.271773	-0.372322
H75	H	1.714997	0.183465	-0.289974
H76	H	1.636614	0.346199	-0.424950
H77	H	1.464602	0.401109	-0.576240
H78	H	1.346129	0.064486	-0.422931
H79	H	1.712035	0.103302	-0.576024
H80	H	1.465999	0.400777	-0.424038
H81	H	1.352868	0.058626	-0.576137
H82	H	1.294465	0.227429	-0.577406
