data_functionalizedCrystal
_audit_creation_method	'MofGen! by Chris Wilmer'
_symmetry_space_group_name_H-M	'P1'
_symmetry_Int_Tables_number	1
_symmetry_cell_setting	triclinic
loop_
_symmetry_equiv_pos_as_xyz
  x,y,z
_cell_length_a	16.974813
_cell_length_b	10.654555
_cell_length_c	9.130313
_cell_angle_alpha	90.001138
_cell_angle_beta	86.344195
_cell_angle_gamma	96.060020
loop_
_atom_site_label
_atom_site_type_symbol
_atom_site_fract_x
_atom_site_fract_y
_atom_site_fract_z
O1	O	0.111072	-1.666101	-0.134993
O2	O	0.121648	-1.300459	-0.136242
O3	O	0.001313	-1.493474	-0.121974
O4	O	0.231407	-1.473086	-0.149261
O5	O	0.001316	-1.493472	0.121624
O6	O	0.121651	-1.300457	0.107356
O7	O	0.111075	-1.666099	0.108606
Cu8	Cu	0.116363	-1.483277	0.130223
Cu9	Cu	0.116360	-1.483280	-0.157860
O10	O	0.231410	-1.473084	0.094338
C11	C	0.120872	-1.253672	-0.014350
C12	C	0.118546	-1.114265	-0.014073
C13	C	-0.028148	-1.492697	0.003316
C14	C	-0.115938	-1.490372	0.013717
C15	C	0.115271	-0.917787	-0.146480
C16	C	0.117452	-1.048776	-0.146734
C17	C	0.117451	-1.048761	0.118851
C18	C	0.115265	-0.917777	0.119104
C19	C	0.115275	-0.917796	-0.299814
C20	C	0.117456	-1.048784	-0.300068
C21	C	-0.157178	-1.489284	-0.114180
C22	C	-0.239665	-1.487091	-0.104403
C23	C	-0.280910	-1.485995	0.033275
C24	C	-0.239663	-1.487080	0.161182
C25	C	-0.157177	-1.489264	0.151403
C26	C	-0.527607	-1.479454	0.076761
C27	C	-0.610099	-1.477274	0.086531
C28	C	-0.610095	-1.477283	-0.179055
C29	C	-0.527608	-1.479475	-0.188822
C30	C	-0.486367	-1.480552	-0.060915
N31	N	-0.365225	-1.483757	0.043273
N32	N	-0.402053	-1.482781	-0.070914
C33	C	0.260871	-1.473860	-0.030956
C34	C	0.348661	-1.476186	-0.041367
N35	N	0.116366	-1.483285	0.332846
C36	C	0.111851	-0.712886	-0.013287
C37	C	0.114179	-0.852292	-0.013567
N38	N	0.116351	-1.483283	-0.360482
C39	C	0.063100	-1.568773	0.415813
C40	C	0.063090	-1.568770	0.569151
C41	C	0.169620	-1.397785	0.556540
C42	C	0.169625	-1.397784	0.403205
C43	C	0.001598	-1.667494	0.423096
C44	C	0.001588	-1.667490	0.576434
H45	H	0.114359	-0.864459	0.227336
F46	F	-0.283561	-1.485899	0.307709
H47	H	0.212991	-1.328161	0.335654
F48	F	-0.653991	-1.476135	-0.315173
H49	H	0.020856	-1.758378	0.373252
F50	F	-0.113286	-1.490420	0.287529
H51	H	0.059448	-0.893841	-0.352072
F52	F	-0.113290	-1.490459	-0.260717
F53	F	0.226298	-1.306793	0.631433
H54	H	-0.273240	-1.486210	-0.208551
F55	F	-0.077837	-1.640703	0.378108
F56	F	-0.073474	-1.628768	0.647491
H57	H	0.118335	-1.102095	0.226867
F58	F	-0.483718	-1.480643	-0.335357
F59	F	0.043852	-1.117521	-0.353530
F60	F	-0.653994	-1.476114	0.233073
F61	F	0.190427	-1.080115	-0.385660
H62	H	-0.494041	-1.480357	0.180913
H63	H	0.015137	-1.763791	0.616442
H64	H	0.171586	-0.865214	-0.354069
