data_functionalizedCrystal
_audit_creation_method	'MofGen! by Chris Wilmer'
_symmetry_space_group_name_H-M	'P1'
_symmetry_Int_Tables_number	1
_symmetry_cell_setting	triclinic
loop_
_symmetry_equiv_pos_as_xyz
  x,y,z
_cell_length_a	17.019311
_cell_length_b	17.000371
_cell_length_c	10.268362
_cell_angle_alpha	89.994238
_cell_angle_beta	86.115693
_cell_angle_gamma	79.507308
loop_
_atom_site_label
_atom_site_type_symbol
_atom_site_fract_x
_atom_site_fract_y
_atom_site_fract_z
O1	O	1.039642	0.101443	-0.224893
O2	O	0.809081	0.114368	-0.199039
O3	O	0.938677	-0.007977	-0.213562
O4	O	0.910045	0.223788	-0.210370
O5	O	0.938667	-0.007982	0.003040
O6	O	0.809071	0.114363	0.017563
O7	O	1.039632	0.101438	-0.008291
Cu8	Cu	0.924350	0.107900	0.024413
Cu9	Cu	0.924362	0.107906	-0.231744
O10	O	0.910035	0.223783	0.006232
C11	C	0.779721	0.113874	-0.087446
C12	C	0.692253	0.112401	-0.077638
C13	C	0.197546	0.104095	-0.016243
C14	C	0.279731	0.105479	-0.025461
C15	C	0.320831	0.106168	-0.148142
C16	C	0.279739	0.105480	-0.261612
C17	C	0.197554	0.104102	-0.252392
C18	C	0.568976	0.110335	-0.181888
C19	C	0.651167	0.111711	-0.191099
C20	C	0.651153	0.111711	0.045053
C21	C	0.568968	0.110328	0.054262
C22	C	0.527882	0.109645	-0.059208
C23	C	0.404838	0.107580	-0.157568
C24	C	0.443875	0.108238	-0.049780
C25	C	0.940210	-0.037635	-0.105434
C26	C	0.944783	-0.125998	-0.105948
C27	C	0.874410	-0.157946	-0.098063
C28	C	0.878711	-0.240974	-0.098541
C29	C	0.953387	-0.292052	-0.106915
C30	C	1.023766	-0.260100	-0.114798
C31	C	1.019464	-0.177074	-0.114309
C32	C	0.970006	-0.543217	-0.108788
C33	C	0.974303	-0.626248	-0.109279
C34	C	0.829248	-0.607116	-0.093021
C35	C	0.824952	-0.524089	-0.092541
C36	C	0.895331	-0.492144	-0.100416
C37	C	0.957786	-0.376920	-0.107409
C38	C	0.890931	-0.407277	-0.099913
C39	C	1.068992	0.101932	-0.119887
C40	C	1.156460	0.103405	-0.129704
C41	C	0.908502	0.253441	-0.101899
C42	C	0.903929	0.341804	-0.101394
N43	N	0.924348	0.107895	0.204579
N44	N	0.924372	0.107904	-0.411910
C45	C	0.924359	0.107904	0.470249
C46	C	0.924350	0.107902	0.322412
H47	H	0.164103	0.103542	-0.344784
C48	C	1.105910	-0.316290	-0.124006
N49	N	1.167783	-0.358611	-0.130947
H50	H	0.410408	0.107682	0.050106
H51	H	0.764143	-0.482505	-0.085726
H52	H	1.018587	-0.418518	-0.114229
C53	C	0.450058	0.108328	-0.292515
N54	N	0.484120	0.108890	-0.394157
H55	H	0.684614	0.112269	0.137433
C56	C	1.096880	-0.141932	-0.122988
N57	N	1.155193	-0.115466	-0.129522
H58	H	0.813601	-0.116362	-0.091250
C59	C	0.808790	-0.351088	-0.090707
N60	N	0.746921	-0.308760	-0.083780
C61	C	0.152343	0.103339	0.118718
N62	N	0.118298	0.102774	0.220374
H63	H	0.313180	0.106038	0.066931
H64	H	0.535513	0.109750	0.154161
H65	H	0.684627	0.112279	-0.291006
H66	H	0.535535	0.109776	-0.274283
H67	H	0.821406	-0.266981	-0.092130
C68	C	0.324952	0.106236	-0.396563
N69	N	0.359006	0.106802	-0.498211
H70	H	1.035116	-0.667836	-0.116107
C71	C	0.751837	-0.642264	-0.084336
N72	N	0.693527	-0.668736	-0.077785
H73	H	1.027313	-0.517217	-0.115204
