data_functionalizedCrystal
_audit_creation_method	'MofGen! by Chris Wilmer'
_symmetry_space_group_name_H-M	'P1'
_symmetry_Int_Tables_number	1
_symmetry_cell_setting	triclinic
loop_
_symmetry_equiv_pos_as_xyz
  x,y,z
_cell_length_a	10.654562
_cell_length_b	19.188930
_cell_length_c	9.730223
_cell_angle_alpha	90.006436
_cell_angle_beta	90.003039
_cell_angle_gamma	83.817442
loop_
_atom_site_label
_atom_site_type_symbol
_atom_site_fract_x
_atom_site_fract_y
_atom_site_fract_z
O1	O	1.665749	0.098101	0.114398
O2	O	1.300075	0.107434	0.114382
O3	O	1.493464	0.001181	0.114363
O4	O	1.472359	0.204354	0.114416
O5	O	1.493462	0.001184	-0.114217
O6	O	1.300073	0.107437	-0.114198
O7	O	1.665747	0.098104	-0.114182
Zn8	Zn	1.482909	0.102771	-0.150482
Zn9	Zn	1.482912	0.102767	0.150682
O10	O	1.472357	0.204357	-0.114164
C11	C	1.253291	0.106749	0.000090
C12	C	1.113892	0.104693	0.000083
C13	C	1.048380	0.103735	-0.124506
C14	C	0.917399	0.101809	-0.124483
C15	C	0.917451	0.101801	0.124727
C16	C	1.048431	0.103722	0.124703
C17	C	1.113840	0.104706	-0.249126
C18	C	1.048328	0.103749	-0.373725
C19	C	0.917347	0.101823	-0.373702
C20	C	0.851877	0.100854	-0.249081
C21	C	1.492780	-0.024833	0.000069
C22	C	1.490728	-0.102351	0.000058
C23	C	1.604203	-0.146530	0.000056
C24	C	1.602275	-0.219366	0.000078
C25	C	1.486867	-0.248020	0.000074
C26	C	1.373377	-0.203832	0.000083
C27	C	1.375308	-0.130997	0.000075
N28	N	1.398650	-0.356604	-0.077720
N29	N	1.396824	-0.425794	-0.077715
C30	C	1.481043	-0.467467	0.000101
N31	N	1.567176	-0.437337	0.077896
N32	N	1.569007	-0.368141	0.077885
C33	C	1.484760	-0.326997	0.000084
C34	C	1.592435	-0.590624	0.000125
C35	C	1.590503	-0.663462	0.000156
C36	C	1.361602	-0.647926	0.000148
C37	C	1.363537	-0.575090	0.000131
C38	C	1.478957	-0.546444	0.000113
C39	C	1.712531	0.098790	0.000113
C40	C	1.851930	0.100845	0.000129
C41	C	1.473042	0.230371	0.000133
C42	C	1.475093	0.307889	0.000154
N43	N	1.482916	0.102773	-0.356019
C44	C	1.568571	0.055740	-0.427953
C45	C	1.568568	0.055732	-0.571836
C46	C	1.397251	0.149795	-0.571837
C47	C	1.397250	0.149799	-0.427957
C48	C	1.654238	0.008714	-0.356014
C49	C	1.739900	-0.038323	-0.427949
C50	C	1.739897	-0.038331	-0.571832
C51	C	1.654231	0.008697	-0.643780
N52	N	1.482915	0.102760	0.356218
H53	H	1.698187	-0.123211	0.000046
N54	N	1.115199	0.104758	-0.501011
N55	N	1.088715	0.153679	-0.584409
H56	H	1.135942	0.154394	-0.674307
N57	N	1.718180	-0.264515	0.000052
N58	N	1.716434	-0.329543	0.000050
H59	H	1.798292	-0.361429	0.000029
H60	H	1.282900	-0.095026	0.000076
N61	N	0.850575	0.100831	0.252016
N62	N	0.853387	0.150173	0.335453
H63	H	0.806156	0.149491	0.425354
N64	N	1.243724	-0.677198	0.000159
N65	N	1.242013	-0.742229	0.000174
H66	H	1.158758	-0.762906	0.000188
N67	N	1.827379	-0.086360	-0.354441
N68	N	1.827370	-0.086349	-0.225978
H69	H	1.889152	-0.120278	-0.174063
N70	N	1.827389	-0.086386	-0.645291
N71	N	1.903860	-0.128370	-0.581038
H72	H	1.965657	-0.162310	-0.632916
N73	N	1.115367	0.104689	0.251961
N74	N	1.112598	0.055344	0.335378
H75	H	1.159875	0.056023	0.425256
N76	N	1.654230	0.008671	-0.790754
N77	N	1.730706	-0.033331	-0.854969
H78	H	1.730709	-0.033349	-0.958768
N79	N	0.850405	0.100855	-0.500956
N80	N	0.733459	0.099142	-0.500923
H81	H	0.686179	0.098464	-0.590800
N82	N	1.247636	0.106661	-0.249167
N83	N	1.317959	0.058391	-0.193583
H84	H	1.412452	0.059774	-0.193616
N85	N	1.309779	0.197853	-0.354467
N86	N	1.349381	0.241400	-0.274174
H87	H	1.287602	0.275338	-0.222269
N88	N	0.718081	0.098893	-0.249078
N89	N	0.647776	0.147163	-0.304688
H90	H	0.553282	0.145782	-0.304687
H91	H	1.327507	0.188083	-0.630427
N92	N	1.255501	-0.233109	0.000092
N93	N	1.253791	-0.298141	0.000098
H94	H	1.170538	-0.318818	0.000110
N95	N	1.706410	-0.708602	0.000134
N96	N	1.704672	-0.773632	0.000140
H97	H	1.786533	-0.805515	0.000120
N98	N	1.710338	-0.561369	0.000104
N99	N	1.811651	-0.600827	0.000111
H100	H	1.894923	-0.580168	0.000093
H101	H	1.271133	-0.539118	0.000125
H102	H	1.654250	0.008718	-0.238858
