data_functionalizedCrystal
_audit_creation_method	'MofGen! by Chris Wilmer'
_symmetry_space_group_name_H-M	'P1'
_symmetry_Int_Tables_number	1
_symmetry_cell_setting	triclinic
loop_
_symmetry_equiv_pos_as_xyz
  x,y,z
_cell_length_a	10.654545
_cell_length_b	26.809956
_cell_length_c	10.654550
_cell_angle_alpha	90.011243
_cell_angle_beta	95.515995
_cell_angle_gamma	90.008104
loop_
_atom_site_label
_atom_site_type_symbol
_atom_site_fract_x
_atom_site_fract_y
_atom_site_fract_z
O1	O	1.667821	-0.041474	-0.176386
O2	O	1.302342	-0.041477	-0.193198
O3	O	1.493484	-0.041472	-0.002053
O4	O	1.476678	-0.041479	-0.367532
O5	O	1.493515	0.041487	-0.002018
O6	O	1.302372	0.041483	-0.193163
O7	O	1.667851	0.041485	-0.176351
Zn8	Zn	1.485117	0.054655	-0.184752
Zn9	Zn	1.485077	-0.054647	-0.184798
O10	O	1.476709	0.041481	-0.367497
C11	C	1.255559	0.000003	-0.191948
C12	C	1.116115	0.000002	-0.188258
C13	C	1.050627	0.045223	-0.186502
C14	C	0.919608	0.045224	-0.183015
C15	C	0.919575	-0.045223	-0.183044
C16	C	1.050594	-0.045223	-0.186523
N17	N	1.485050	-0.129243	-0.184820
C18	C	1.569926	-0.473867	-0.100317
C19	C	1.569946	-0.682745	-0.100288
O20	O	1.642102	-0.709747	-0.028490
N21	N	1.485144	-0.708870	-0.184746
C22	C	1.400337	-0.682773	-0.269222
O23	O	1.328217	-0.709787	-0.341066
C24	C	1.400324	-0.473896	-0.269255
C25	C	1.485123	-0.447774	-0.184784
C26	C	1.654719	-0.447745	-0.015853
C27	C	1.654708	-0.395528	-0.015856
C28	C	1.569905	-0.369435	-0.100323
C29	C	1.485113	-0.395557	-0.184787
C30	C	1.315524	-0.447800	-0.353737
C31	C	1.315531	-0.395577	-0.353740
C32	C	1.400329	-0.369455	-0.269268
C33	C	1.400299	-0.317247	-0.269258
N34	N	1.485101	-0.291122	-0.184800
C35	C	1.569904	-0.317216	-0.100333
C36	C	1.400348	-0.792436	-0.269197
C37	C	1.400350	-0.844655	-0.269187
C38	C	1.569961	-0.844624	-0.100255
C39	C	1.569952	-0.792404	-0.100259
C40	C	1.485150	-0.766311	-0.184739
C41	C	1.569875	-0.207558	-0.100346
C42	C	1.569853	-0.155337	-0.100353
C43	C	1.400247	-0.155373	-0.269289
C44	C	1.400264	-0.207589	-0.269278
C45	C	1.485088	-0.233680	-0.184802
O46	O	1.328190	-0.290213	-0.341028
O47	O	1.642032	-0.290193	-0.028518
C48	C	1.569937	-0.526084	-0.100313
C49	C	1.485144	-0.552206	-0.184777
C50	C	1.400341	-0.526112	-0.269244
C51	C	1.485145	-0.604425	-0.184768
C52	C	1.569949	-0.630519	-0.100300
C53	C	1.654750	-0.604394	-0.015843
C54	C	1.654740	-0.552177	-0.015846
C55	C	1.315539	-0.552238	-0.353702
C56	C	1.315555	-0.604454	-0.353691
C57	C	1.400359	-0.630548	-0.269223
C58	C	1.714634	0.000004	-0.177602
C59	C	1.854078	0.000002	-0.181292
C60	C	1.492266	0.000007	0.044762
C61	C	1.488574	0.000006	0.184206
N62	N	1.485153	0.129251	-0.184720
C63	C	1.477927	0.000000	-0.414312
C64	C	1.481619	-0.000002	-0.553755
C65	C	1.601115	0.000007	0.263693
C66	C	1.597639	0.000001	0.394714
C67	C	1.369069	-0.000004	0.366747
C68	C	1.372547	-0.000002	0.235729
H69	H	1.103916	-0.082050	-0.187949
C70	C	1.241446	-0.000003	0.423435
N71	N	1.145318	0.000001	0.466132
C72	C	1.721444	0.000005	0.482145
N73	N	1.814700	0.000010	0.547998
H74	H	1.638907	-0.134069	-0.031562
H75	H	1.331198	-0.134119	-0.338058
H76	H	1.103971	0.082048	-0.187915
C77	C	0.847575	0.094971	-0.181098
N78	N	0.793321	0.132443	-0.179658
C79	C	0.847488	-0.094968	-0.181145
N80	N	0.793192	-0.132437	-0.179720
H81	H	1.638948	-0.228795	-0.031559
C82	C	1.747981	-0.366801	0.077084
N83	N	1.818234	-0.345166	0.147096
H84	H	1.280896	-0.000004	0.171006
H85	H	1.723782	-0.468986	0.052930
C86	C	1.728748	0.000010	0.207023
N87	N	1.824885	0.000010	0.164343
C88	C	1.663239	-0.763674	-0.007338
N89	N	1.733509	-0.742037	0.062654
H90	H	1.331286	-0.865920	-0.337958
C91	C	1.663251	-0.873336	-0.007346
N92	N	1.733520	-0.894965	0.062622
C93	C	1.222376	-0.476523	-0.446803
N94	N	1.152262	-0.498156	-0.516958
C95	C	1.222235	-0.366878	-0.446673
N96	N	1.151961	-0.345263	-0.516667
C97	C	1.307043	-0.763741	-0.362127
N98	N	1.236758	-0.742129	-0.432118
H99	H	1.331201	-0.228858	-0.338050
C100	C	1.748020	-0.523449	0.077087
N101	N	1.818281	-0.501815	0.147091
C102	C	1.748027	-0.633107	0.077079
N103	N	1.818280	-0.654736	0.147061
H104	H	1.246491	-0.625719	-0.422475
H105	H	1.246483	-0.530996	-0.422487
