data_functionalizedCrystal
_audit_creation_method	'MofGen! by Chris Wilmer'
_symmetry_space_group_name_H-M	'P1'
_symmetry_Int_Tables_number	1
_symmetry_cell_setting	triclinic
loop_
_symmetry_equiv_pos_as_xyz
  x,y,z
_cell_length_a	19.288867
_cell_length_b	17.699083
_cell_length_c	17.766277
_cell_angle_alpha	89.992740
_cell_angle_beta	89.992126
_cell_angle_gamma	83.210042
loop_
_atom_site_label
_atom_site_type_symbol
_atom_site_fract_x
_atom_site_fract_y
_atom_site_fract_z
O1	O	0.921464	0.094425	-0.062569
O2	O	1.254797	0.427758	0.270764
O3	O	1.588131	0.761091	0.604097
O4	O	0.719219	0.107160	-0.062577
O5	O	1.052552	0.440493	0.270757
O6	O	1.385885	0.773826	0.604090
O7	O	0.826055	-0.009405	-0.062566
O8	O	1.159388	0.323928	0.270767
O9	O	1.492722	0.657262	0.604100
O10	O	0.814627	0.210989	-0.062580
O11	O	1.147961	0.544323	0.270753
O12	O	1.481294	0.877656	0.604087
O13	O	0.826036	-0.009411	0.062622
O14	O	1.159370	0.323922	0.395956
O15	O	1.492703	0.657256	0.729289
O16	O	0.719200	0.107154	0.062612
O17	O	1.052533	0.440487	0.395945
O18	O	1.385866	0.773820	0.729278
O19	O	0.921445	0.094419	0.062619
O20	O	1.254778	0.427752	0.395953
O21	O	1.588112	0.761085	0.729286
Cu22	Cu	0.820321	0.100786	0.074046
Cu23	Cu	1.153654	0.434119	0.407379
Cu24	Cu	1.486987	0.767452	0.740713
Cu25	Cu	0.820343	0.100793	-0.074004
Cu26	Cu	1.153676	0.434126	0.259330
Cu27	Cu	1.487010	0.767459	0.592663
O28	O	0.814609	0.210983	0.062609
O29	O	1.147942	0.544317	0.395942
O30	O	1.481275	0.877650	0.729275
C31	C	0.693332	0.106747	0.000017
C32	C	1.026666	0.440080	0.333350
C33	C	1.359999	0.773413	0.666683
C34	C	0.616227	0.105516	0.000014
C35	C	0.949561	0.438849	0.333347
C36	C	1.282894	0.772183	0.666681
C37	C	0.060662	0.096653	-0.068217
C38	C	0.393995	0.429987	0.265116
C39	C	0.727328	0.763320	0.598450
C40	C	0.133111	0.097805	-0.068220
C41	C	0.466444	0.431139	0.265113
C42	C	0.799777	0.764472	0.598447
C43	C	0.169330	0.098382	0.000020
C44	C	0.502663	0.431715	0.333353
C45	C	0.835996	0.765048	0.666687
C46	C	0.133096	0.097786	0.068268
C47	C	0.466429	0.431120	0.401601
C48	C	0.799763	0.764453	0.734935
C49	C	0.060650	0.096627	0.068269
C50	C	0.393983	0.429960	0.401602
C51	C	0.727316	0.763293	0.734936
C52	C	0.278704	0.144545	0.052298
C53	C	0.612037	0.477879	0.385631
C54	C	0.945370	0.811212	0.718965
C55	C	0.351148	0.145709	0.052294
C56	C	0.684482	0.479043	0.385628
C57	C	1.017815	0.812376	0.718961
C58	C	0.392779	0.101955	0.000020
C59	C	0.726113	0.435288	0.333353
C60	C	1.059446	0.768621	0.666687
C61	C	0.361956	0.057045	-0.052263
C62	C	0.695289	0.390379	0.281070
C63	C	1.028622	0.723712	0.614404
C64	C	0.289509	0.055886	-0.052262
C65	C	0.622842	0.389219	0.281071
C66	C	0.956176	0.722552	0.614405
C67	C	0.247886	0.099638	0.000027
C68	C	0.581219	0.432972	0.333360
C69	C	0.914552	0.766305	0.666693
C70	C	0.507562	0.103794	-0.068227
C71	C	0.840896	0.437127	0.265107
C72	C	1.174229	0.770460	0.598440
C73	C	0.580013	0.104941	-0.068227
C74	C	0.913346	0.438274	0.265107
C75	C	1.246680	0.771608	0.598440
C76	C	0.579996	0.104930	0.068263
C77	C	0.913330	0.438263	0.401597
C78	C	1.246663	0.771596	0.734930
C79	C	0.507548	0.103775	0.068261
C80	C	0.840881	0.437108	0.401595
C81	C	1.174215	0.770441	0.734928
C82	C	0.471335	0.103210	0.000014
C83	C	0.804668	0.436544	0.333347
C84	C	1.138001	0.769877	0.666681
C85	C	0.825636	-0.037604	0.000028
C86	C	1.158970	0.295729	0.333361
C87	C	1.492303	0.629062	0.666695
C88	C	0.824408	-0.121621	0.000028
C89	C	1.157741	0.211713	0.333362
C90	C	1.491074	0.545046	0.666695
C91	C	0.887119	-0.170329	0.000032
C92	C	1.220452	0.163004	0.333365
C93	C	1.553785	0.496337	0.666698
C94	C	0.885960	-0.249271	0.000025
C95	C	1.219294	0.084062	0.333358
C96	C	1.552627	0.417396	0.666692
C97	C	0.822090	-0.279503	0.000020
C98	C	1.155424	0.053831	0.333354
C99	C	1.488757	0.387164	0.666687
C100	C	0.759375	-0.230788	0.000015
C101	C	1.092708	0.102546	0.333348
C102	C	1.426041	0.435879	0.666681
C103	C	0.760534	-0.151848	0.000016
C104	C	1.093867	0.181486	0.333349
C105	C	1.427200	0.514819	0.666683
C106	C	0.754699	-0.549144	0.000008
C107	C	1.088032	-0.215811	0.333342
C108	C	1.421365	0.117522	0.666675
C109	C	0.753544	-0.628091	0.000009
C110	C	1.086878	-0.294757	0.333343
C111	C	1.420211	0.038576	0.666676
C112	C	0.880125	-0.646568	0.000017
C113	C	1.213458	-0.313234	0.333351
C114	C	1.546792	0.020099	0.666684
C115	C	0.881284	-0.567628	0.000019
C116	C	1.214618	-0.234294	0.333352
C117	C	1.547951	0.099039	0.666685
C118	C	0.818569	-0.518920	0.000009
C119	C	1.151902	-0.185586	0.333343
C120	C	1.485236	0.147747	0.666676
C121	C	0.819826	-0.433322	0.000015
C122	C	1.153159	-0.099989	0.333348
C123	C	1.486492	0.233344	0.666682
C124	C	0.820833	-0.365099	0.000020
C125	C	1.154166	-0.031765	0.333353
C126	C	1.487499	0.301568	0.666687
C127	C	0.947331	0.094832	0.000024
C128	C	1.280665	0.428165	0.333358
C129	C	1.613998	0.761498	0.666691
C130	C	1.024436	0.096062	0.000022
C131	C	1.357770	0.429396	0.333355
C132	C	1.691103	0.762729	0.666689
C133	C	0.815027	0.239183	0.000013
C134	C	1.148361	0.572516	0.333346
C135	C	1.481694	0.905849	0.666679
C136	C	0.816256	0.323199	0.000007
C137	C	1.149589	0.656532	0.333341
C138	C	1.482922	0.989866	0.666674
N139	N	0.820310	0.100780	0.178176
N140	N	1.153644	0.434114	0.511510
N141	N	1.486977	0.767447	0.844843
N142	N	0.820359	0.100792	-0.178134
N143	N	1.153692	0.434125	0.155199
N144	N	1.487026	0.767459	0.488533
C145	C	0.867633	0.049191	0.217568
C146	C	1.200966	0.382524	0.550901
C147	C	1.534299	0.715857	0.884235
C148	C	0.867637	0.049187	0.296370
C149	C	1.200970	0.382520	0.629703
C150	C	1.534303	0.715854	0.963037
C151	C	0.820325	0.100786	0.335777
C152	C	1.153658	0.434120	0.669110
C153	C	1.486992	0.767453	1.002444
C154	C	0.772993	0.152380	0.296376
C155	C	1.106327	0.485713	0.629709
C156	C	1.439660	0.819047	0.963043
C157	C	0.772986	0.152377	0.217576
C158	C	1.106319	0.485710	0.550909
C159	C	1.439653	0.819044	0.884242
C160	C	0.811108	0.169748	0.460611
C161	C	1.144441	0.503081	0.793944
C162	C	1.477774	0.836415	1.127277
C163	C	0.811120	0.169752	0.539409
C164	C	1.144453	0.503085	0.872743
C165	C	1.477787	0.836419	1.206076
C166	C	0.820343	0.100795	0.578823
C167	C	1.153677	0.434129	0.912157
C168	C	1.487010	0.767462	1.245490
C169	C	0.829570	0.031832	0.539429
C170	C	1.162903	0.365165	0.872762
C171	C	1.496236	0.698498	1.206096
C172	C	0.829562	0.031829	0.460629
C173	C	1.162896	0.365162	0.793962
C174	C	1.496229	0.698495	1.127295
C175	C	0.820327	0.100795	0.421223
C176	C	1.153661	0.434128	0.754556
C177	C	1.486994	0.767462	1.087889
C178	C	0.867673	0.049198	0.703661
C179	C	1.201006	0.382531	1.036994
C180	C	1.534340	0.715864	1.370328
C181	C	0.867672	0.049193	0.782464
C182	C	1.201005	0.382526	1.115798
C183	C	1.534339	0.715860	1.449131
C184	C	0.773032	0.152392	0.782469
C185	C	1.106365	0.485726	1.115802
C186	C	1.439699	0.819059	1.449135
C187	C	0.773030	0.152390	0.703667
C188	C	1.106363	0.485724	1.037000
C189	C	1.439696	0.819057	1.370334
C190	C	0.820354	0.100794	0.664268
C191	C	1.153687	0.434127	0.997601
C192	C	1.487020	0.767460	1.330934
H193	H	0.244814	0.180172	0.094874
H194	H	0.578147	0.513505	0.428208
H195	H	0.911480	0.846839	0.761541
H196	H	0.937026	-0.288927	0.000029
H197	H	1.270359	0.044406	0.333363
H198	H	1.603692	0.377740	0.666696
H199	H	0.709468	-0.112189	0.000013
H200	H	1.042801	0.221144	0.333346
H201	H	1.376135	0.554477	0.666680
F202	F	0.949263	-0.535458	0.000023
F203	F	1.282596	-0.202124	0.333356
F204	F	1.615930	0.131209	0.666690
H205	H	0.031155	0.096149	0.123839
H206	H	0.364488	0.429482	0.457172
H207	H	0.697822	0.762815	0.790506
F208	F	0.406256	0.010477	-0.107904
F209	F	0.739590	0.343810	0.225429
F210	F	1.072923	0.677144	0.558763
F211	F	0.469020	0.103189	-0.140860
F212	F	0.802353	0.436522	0.192473
F213	F	1.135686	0.769855	0.525807
H214	H	0.376237	0.182296	0.094850
H215	H	0.709570	0.515629	0.428184
H216	H	1.042904	0.848963	0.761517
H217	H	0.703632	-0.509495	0.000001
H218	H	1.036965	-0.176162	0.333334
H219	H	1.370298	0.157171	0.666668
H220	H	0.939129	-0.145722	0.000040
H221	H	1.272462	0.187612	0.333374
H222	H	1.605796	0.520945	0.666707
F223	F	0.618540	0.105533	0.140890
F224	F	0.951873	0.438866	0.474223
F225	F	1.285206	0.772200	0.807557
H226	H	0.162591	0.098254	0.123830
H227	H	0.495924	0.431588	0.457163
H228	H	0.829257	0.764921	0.790496
F229	F	0.946873	-0.698413	0.000025
F230	F	1.280206	-0.365079	0.333358
F231	F	1.613540	-0.031746	0.666692
F232	F	0.685562	-0.660263	0.000003
F233	F	1.018895	-0.326929	0.333337
F234	F	1.352228	0.006404	0.666670
F235	F	0.839375	-0.041565	0.418705
F236	F	1.172709	0.291768	0.752038
F237	F	1.506042	0.625102	1.085372
H238	H	0.837080	-0.024319	0.571518
H239	H	1.170413	0.309014	0.904851
H240	H	1.503747	0.642347	1.238185
H241	H	0.803585	0.225904	0.428526
H242	H	1.136918	0.559238	0.761860
H243	H	1.470251	0.892571	1.095193
H244	H	0.707370	-0.255408	0.000006
H245	H	1.040704	0.077925	0.333340
H246	H	1.374037	0.411258	0.666673
F247	F	0.918036	-0.005719	0.661729
F248	F	1.251370	0.327614	0.995062
F249	F	1.584703	0.660948	1.328395
F250	F	0.918007	-0.005725	0.338300
F251	F	1.251340	0.327609	0.671634
F252	F	1.584673	0.660942	1.004967
H253	H	0.906165	0.007176	0.185492
H254	H	1.239498	0.340509	0.518825
H255	H	1.572832	0.673843	0.852158
F256	F	0.722617	0.207288	0.175650
F257	F	1.055951	0.540621	0.508984
F258	F	1.389284	0.873955	0.842317
F259	F	0.022126	0.096048	-0.140852
F260	F	0.355459	0.429382	0.192481
F261	F	0.688792	0.762715	0.525815
H262	H	0.906206	0.007179	0.814537
H263	H	1.239539	0.340512	1.147871
H264	H	1.572872	0.673845	1.481204
H265	H	0.264416	0.019318	-0.094831
H266	H	0.597749	0.352651	0.238502
H267	H	0.931082	0.685984	0.571835
F268	F	0.722675	0.207303	0.824405
F269	F	1.056008	0.540637	1.157738
F270	F	1.389342	0.873970	1.491072
H271	H	0.734498	0.194403	0.671592
H272	H	1.067831	0.527736	1.004925
H273	H	1.401165	0.861069	1.338259
H274	H	0.162610	0.098291	-0.123790
H275	H	0.495944	0.431624	0.209543
H276	H	0.829277	0.764957	0.542877
H277	H	0.803612	0.225906	0.571478
H278	H	1.136945	0.559239	0.904812
H279	H	1.470279	0.892573	1.238145
H280	H	0.609507	0.105416	-0.123797
H281	H	0.942840	0.438749	0.209536
H282	H	1.276174	0.772083	0.542869
F283	F	0.468991	0.103156	0.140892
F284	F	0.802325	0.436489	0.474225
F285	F	1.135658	0.769823	0.807558
H286	H	0.734470	0.194392	0.328465
H287	H	1.067804	0.527725	0.661799
H288	H	1.401137	0.861058	0.995132
