data_functionalizedCrystal
_audit_creation_method	'MofGen! by Chris Wilmer'
_symmetry_space_group_name_H-M	'P1'
_symmetry_Int_Tables_number	1
_symmetry_cell_setting	triclinic
loop_
_symmetry_equiv_pos_as_xyz
  x,y,z
_cell_length_a	16.974800
_cell_length_b	15.995350
_cell_length_c	16.053802
_cell_angle_alpha	92.567808
_cell_angle_beta	91.074188
_cell_angle_gamma	83.440933
loop_
_atom_site_label
_atom_site_type_symbol
_atom_site_fract_x
_atom_site_fract_y
_atom_site_fract_z
O1	O	1.049077	0.106733	0.001485
O2	O	0.819616	0.119551	-0.014026
O3	O	0.940619	-0.008732	-0.005845
O4	O	0.928074	0.235016	-0.006695
O5	O	0.933958	-0.001700	0.132563
O6	O	0.812955	0.126582	0.124383
O7	O	1.042417	0.113765	0.139894
Zn8	Zn	0.926628	0.121290	0.154114
Zn9	Zn	0.935404	0.112025	-0.028246
O10	O	0.921414	0.242047	0.131714
C11	C	0.786922	0.122450	0.053194
C12	C	0.699430	0.120604	0.047279
C13	C	0.654700	0.123568	0.119949
C14	C	0.572492	0.121820	0.114394
C15	C	0.535016	0.117114	0.036168
C16	C	0.579753	0.114147	-0.036507
C17	C	0.661959	0.115890	-0.030951
C18	C	0.289546	0.111487	0.011462
C19	C	0.207333	0.109748	0.005912
C20	C	0.200079	0.117418	0.156814
C21	C	0.282286	0.119165	0.162362
C22	C	0.327016	0.116194	0.089687
N23	N	0.450987	0.115330	0.030489
N24	N	0.411044	0.117972	0.095368
C25	C	0.936770	-0.036412	0.063322
C26	C	0.935215	-0.129366	0.063212
C27	C	0.929631	-0.467126	0.062838
C28	C	0.843470	-0.419899	0.056702
C29	C	0.845010	-0.323189	0.057119
C30	C	0.932401	-0.299559	0.063023
C31	C	0.971103	-0.336527	0.144933
C32	C	0.968935	-0.433164	0.144853
C33	C	0.978289	-0.441514	-0.012423
C34	C	0.978319	-0.344622	-0.013469
C35	C	0.933971	-0.204858	0.063131
C36	C	0.928064	-0.561827	0.062736
C37	C	1.075110	0.110865	0.072673
C38	C	1.162603	0.112711	0.078582
C39	C	0.925262	0.269727	0.062544
C40	C	0.926817	0.362681	0.062648
N41	N	0.920645	0.127613	0.278570
N42	N	0.941393	0.105696	-0.152701
C43	C	0.972151	0.073048	0.325746
C44	C	0.967973	0.077478	0.412870
C45	C	0.912293	0.136479	0.452817
C46	C	0.860781	0.191046	0.405634
C47	C	0.864956	0.186611	0.318511
C48	C	0.894057	0.155828	0.712994
C49	C	0.889887	0.160261	0.800123
C50	C	0.997079	0.046692	0.807353
C51	C	1.001252	0.042266	0.720228
C52	C	0.949738	0.096830	0.673053
N53	N	0.908022	0.141010	0.541872
N54	N	0.954005	0.092293	0.583999
H55	H	0.163651	0.119836	0.215981
F56	F	0.928817	-0.295613	0.219207
F57	F	1.022790	0.019404	0.463078
H58	H	1.017495	0.025007	0.293227
H59	H	0.685205	0.127406	0.183649
H60	H	0.536078	0.124219	0.173570
H61	H	0.952997	-0.465160	-0.074233
F62	F	1.060514	-0.020528	0.677715
F63	F	0.830622	0.223063	0.842632
H64	H	0.312794	0.122993	0.226062
H65	H	0.811754	-0.441387	-0.002305
F66	F	0.794998	-0.442158	0.127132
F67	F	0.167450	0.104741	-0.077350
F68	F	1.051898	-0.011377	0.857564
F69	F	0.839234	0.213901	0.662793
H70	H	0.808643	-0.292516	0.111599
F71	F	0.801517	0.253835	0.448149
H72	H	0.823014	0.231042	0.280101
H73	H	0.325955	0.109065	-0.047715
H74	H	0.698377	0.113478	-0.090127
H75	H	0.549234	0.110310	-0.100200
H76	H	0.935097	-0.448532	0.201841
F77	F	1.051405	-0.474895	0.155136
F78	F	1.054838	-0.317683	0.154448
F79	F	0.804902	-0.289897	-0.019887
F80	F	0.941690	-0.312590	-0.092629
H81	H	1.042278	-0.329361	-0.013936
F82	F	1.061370	-0.482880	-0.007509
