data_functionalizedCrystal
_audit_creation_method	'MofGen! by Chris Wilmer'
_symmetry_space_group_name_H-M	'P1'
_symmetry_Int_Tables_number	1
_symmetry_cell_setting	triclinic
loop_
_symmetry_equiv_pos_as_xyz
  x,y,z
_cell_length_a	23.532361
_cell_length_b	23.532407
_cell_length_c	14.048226
_cell_angle_alpha	89.988910
_cell_angle_beta	89.997812
_cell_angle_gamma	82.839173
loop_
_atom_site_label
_atom_site_type_symbol
_atom_site_fract_x
_atom_site_fract_y
_atom_site_fract_z
O1	O	0.755278	0.069010	-0.079075
O2	O	1.255278	0.569010	0.420925
O3	O	0.589411	0.079041	-0.079099
O4	O	1.089411	0.579041	0.420901
O5	O	0.677346	-0.008907	-0.079069
O6	O	1.177346	0.491093	0.420931
O7	O	0.667343	0.156958	-0.079105
O8	O	1.167343	0.656958	0.420895
O9	O	0.677336	-0.008912	0.079253
O10	O	1.177336	0.491088	0.579253
O11	O	0.589401	0.079036	0.079222
O12	O	1.089401	0.579036	0.579222
O13	O	0.755268	0.069005	0.079247
O14	O	1.255268	0.569005	0.579247
Zn15	Zn	0.672332	0.074019	0.104371
Zn16	Zn	1.172332	0.574019	0.604371
Zn17	Zn	0.672346	0.074026	-0.104224
Zn18	Zn	1.172346	0.574026	0.395776
O19	O	0.667332	0.156953	0.079216
O20	O	1.167332	0.656953	0.579216
C21	C	0.568189	0.078787	0.000059
C22	C	1.068189	0.578787	0.500059
C23	C	0.504971	0.078032	0.000050
C24	C	1.004971	0.578032	0.500050
C25	C	0.231733	0.074731	-0.086244
C26	C	0.731733	0.574731	0.413756
C27	C	0.291133	0.075446	-0.086247
C28	C	0.791133	0.575446	0.413753
O29	O	0.321863	0.075798	-0.159641
O30	O	0.821863	0.575798	0.340359
N31	N	0.320832	0.075804	0.000055
N32	N	0.820832	0.575804	0.500055
C33	C	0.291130	0.075442	0.086364
C34	C	0.791130	0.575442	0.586364
O35	O	0.321847	0.075812	0.159770
O36	O	0.821847	0.575812	0.659770
C37	C	0.231732	0.074723	0.086366
C38	C	0.731732	0.574723	0.586366
C39	C	0.202035	0.074370	0.000059
C40	C	0.702035	0.574370	0.500059
C41	C	0.202035	0.074378	-0.172544
C42	C	0.702035	0.574378	0.327456
C43	C	0.142639	0.073664	-0.172541
C44	C	0.642639	0.573664	0.327459
C45	C	0.112941	0.073303	-0.086238
C46	C	0.612941	0.573303	0.413762
C47	C	0.142639	0.073657	0.000061
C48	C	0.642639	0.573657	0.500061
C49	C	0.202032	0.074356	0.172674
C50	C	0.702032	0.574356	0.672674
C51	C	0.142630	0.073637	0.172668
C52	C	0.642630	0.573637	0.672668
C53	C	0.112932	0.073284	0.086361
C54	C	0.612932	0.573284	0.586361
C55	C	0.053545	0.072582	0.086367
C56	C	0.553545	0.572582	0.586367
N57	N	0.023845	0.072224	0.000066
N58	N	0.523845	0.572224	0.500066
C59	C	0.053543	0.072584	-0.086237
C60	C	0.553543	0.572584	0.413763
C61	C	0.415871	0.076951	0.086354
C62	C	0.915871	0.576951	0.586354
C63	C	0.475267	0.077674	0.086354
C64	C	0.975267	0.577674	0.586354
C65	C	0.475265	0.077677	-0.086257
C66	C	0.975265	0.577677	0.413743
C67	C	0.415867	0.076958	-0.086256
C68	C	0.915867	0.576958	0.413744
C69	C	0.386171	0.076593	0.000053
C70	C	0.886171	0.576593	0.500053
C71	C	-0.071192	0.071086	-0.086224
C72	C	0.428808	0.571086	0.413776
C73	C	-0.130594	0.070374	-0.086214
C74	C	0.369406	0.570374	0.413786
C75	C	-0.130586	0.070368	0.086396
C76	C	0.369414	0.570368	0.586396
C77	C	-0.071191	0.071083	0.086387
C78	C	0.428809	0.571083	0.586387
C79	C	-0.041495	0.071440	0.000068
C80	C	0.458505	0.571440	0.500068
O81	O	0.022777	0.072227	0.159724
O82	O	0.522777	0.572227	0.659724
O83	O	0.022820	0.072207	-0.159630
O84	O	0.522820	0.572207	0.340370
C85	C	0.677086	-0.030126	0.000094
C86	C	1.177086	0.469874	0.500094
C87	C	0.676320	-0.093343	0.000102
C88	C	1.176320	0.406657	0.500102
C89	C	0.723555	-0.492454	0.000056
C90	C	1.223555	0.007546	0.500056
C91	C	0.722844	-0.551854	0.000049
C92	C	1.222844	-0.051854	0.500049
O93	O	0.766630	-0.588606	0.000020
O94	O	1.266630	-0.088606	0.500020
N95	N	0.670566	-0.574471	0.000042
N96	N	1.170566	-0.074471	0.500042
C97	C	0.618997	-0.537685	0.000033
C98	C	1.118997	-0.037685	0.500033
O99	O	0.574465	-0.562377	0.000025
O100	O	1.074465	-0.062377	0.500025
C101	C	0.619709	-0.478286	0.000033
C102	C	1.119709	0.021714	0.500033
C103	C	0.671990	-0.455672	0.000050
C104	C	1.171990	0.044328	0.500050
C105	C	0.775832	-0.469839	0.000072
C106	C	1.275832	0.030161	0.500072
C107	C	0.776543	-0.410443	0.000081
C108	C	1.276543	0.089557	0.500081
C109	C	0.724977	-0.373662	0.000075
C110	C	1.224977	0.126338	0.500075
C111	C	0.672701	-0.396276	0.000059
C112	C	1.172701	0.103724	0.500059
C113	C	0.568140	-0.441501	0.000017
C114	C	1.068140	0.058499	0.500017
C115	C	0.568857	-0.382099	0.000017
C116	C	1.068857	0.117901	0.500017
C117	C	0.621137	-0.359485	0.000034
C118	C	1.121137	0.140515	0.500034
C119	C	0.621847	-0.300099	0.000062
C120	C	1.121847	0.199901	0.500062
N121	N	0.674124	-0.277481	0.000069
N122	N	1.174124	0.222519	0.500069
C123	C	0.725690	-0.314263	0.000075
C124	C	1.225690	0.185737	0.500075
C125	C	0.617505	-0.662427	0.000030
C126	C	1.117505	-0.162427	0.500030
C127	C	0.616793	-0.721825	0.000036
C128	C	1.116793	-0.221825	0.500036
C129	C	0.720640	-0.735990	0.000051
C130	C	1.220640	-0.235990	0.500051
C131	C	0.721352	-0.676591	0.000051
C132	C	1.221352	-0.176591	0.500051
C133	C	0.669783	-0.639810	0.000037
C134	C	1.169783	-0.139810	0.500037
C135	C	0.727179	-0.189526	0.000095
C136	C	1.227179	0.310474	0.500095
C137	C	0.727886	-0.130124	0.000108
C138	C	1.227886	0.369876	0.500108
C139	C	0.624039	-0.115965	0.000089
C140	C	1.124039	0.384035	0.500089
C141	C	0.623332	-0.175361	0.000081
C142	C	1.123332	0.324639	0.500081
C143	C	0.674907	-0.212141	0.000081
C144	C	1.174907	0.287859	0.500081
O145	O	0.578083	-0.263312	0.000087
O146	O	1.078083	0.236688	0.500087
O147	O	0.770214	-0.289562	0.000070
O148	O	1.270214	0.210438	0.500070
C149	C	0.776489	0.069258	0.000087
C150	C	1.276489	0.569258	0.500087
C151	C	0.839708	0.070014	0.000089
C152	C	1.339708	0.570014	0.500089
C153	C	0.667592	0.178171	0.000051
C154	C	1.167592	0.678171	0.500051
C155	C	0.668358	0.241388	0.000038
C156	C	1.168358	0.741388	0.500038
N157	N	0.672327	0.074014	0.246732
N158	N	1.172327	0.574014	0.746732
N159	N	0.672356	0.074026	-0.246584
N160	N	1.172356	0.574026	0.253416
C161	C	0.711277	0.035087	0.296564
C162	C	1.211277	0.535087	0.796564
C163	C	0.711281	0.035087	0.396221
C164	C	1.211281	0.535087	0.896221
C165	C	0.672337	0.074017	0.446046
C166	C	1.172337	0.574017	0.946046
C167	C	0.633383	0.112946	0.396207
C168	C	1.133383	0.612946	0.896207
C169	C	0.633377	0.112943	0.296551
C170	C	1.133377	0.612943	0.796551
C171	C	0.633400	0.112950	0.603921
C172	C	1.133400	0.612950	1.103921
C173	C	0.633406	0.112954	0.703584
C174	C	1.133406	0.612954	1.203584
C175	C	0.711303	0.035093	0.703591
C176	C	1.211303	0.535093	1.203591
C177	C	0.711297	0.035091	0.603935
C178	C	1.211297	0.535091	1.103935
C179	C	0.672344	0.074021	0.554104
C180	C	1.172344	0.574021	1.054104
H181	H	-0.047011	0.071381	0.156665
H182	H	0.452989	0.571381	0.656665
H183	H	0.762627	-0.765949	0.000052
H184	H	1.262627	-0.265949	0.500052
H185	H	0.819115	-0.392037	0.000091
H186	H	1.319115	0.107963	0.500091
Cl187	Cl	0.378543	0.076500	0.194868
Cl188	Cl	0.878543	0.576500	0.694868
H189	H	0.763923	-0.658183	0.000064
H190	H	1.263923	-0.158183	0.500064
Cl191	Cl	0.239351	0.074799	0.281181
Cl192	Cl	0.739351	0.574799	0.781181
Cl193	Cl	0.512592	0.078129	0.194859
Cl194	Cl	1.012592	0.578129	0.694859
H195	H	0.226209	0.074670	-0.242826
H196	H	0.726209	0.574670	0.257174
H197	H	0.817825	-0.499782	0.000074
H198	H	1.317825	0.000218	0.500074
H199	H	0.575509	-0.632483	0.000027
H200	H	1.075509	-0.132483	0.500027
H201	H	0.601678	0.144650	0.563352
H202	H	1.101678	0.644650	1.063352
H203	H	0.525567	-0.459902	-0.000002
H204	H	1.025567	0.040098	0.499998
H205	H	0.601672	0.144642	0.436780
H206	H	1.101672	0.644642	0.936780
Cl207	Cl	0.551065	-0.750246	0.000034
Cl208	Cl	1.051065	-0.250246	0.500034
Cl209	Cl	0.584445	0.161896	0.766213
Cl210	Cl	1.084445	0.661896	1.266213
Cl211	Cl	0.760241	-0.013855	0.233938
Cl212	Cl	1.260241	0.486145	0.733938
H213	H	0.742996	0.003389	0.436794
H214	H	1.242996	0.503389	0.936794
H215	H	0.743011	0.003393	0.563369
H216	H	1.243011	0.503393	1.063369
Cl217	Cl	0.584407	0.161881	0.233907
Cl218	Cl	1.084407	0.661881	0.733907
H219	H	0.526862	-0.352154	0.000004
H220	H	1.026862	0.147846	0.500004
Cl221	Cl	0.378539	0.076513	-0.194759
Cl222	Cl	0.878539	0.576513	0.305241
H223	H	0.580761	-0.193774	0.000094
H224	H	1.080761	0.306226	0.500094
Cl225	Cl	0.760273	-0.013846	0.766240
Cl226	Cl	1.260273	0.486154	1.266240
Cl227	Cl	-0.167925	0.069932	-0.194722
Cl228	Cl	0.332075	0.569932	0.305278
Cl229	Cl	-0.033870	0.071536	-0.194740
Cl230	Cl	0.466130	0.571536	0.305260
H231	H	0.582056	-0.086007	0.000087
H232	H	1.082056	0.413993	0.500087
Cl233	Cl	-0.167933	0.069916	0.194886
Cl234	Cl	0.332067	0.569916	0.694886
Cl235	Cl	0.105315	0.073215	-0.281047
Cl236	Cl	0.605315	0.573215	0.218953
Cl237	Cl	0.105301	0.073174	0.281178
Cl238	Cl	0.605301	0.573174	0.781178
H239	H	0.499456	0.077970	-0.156530
H240	H	0.999456	0.577970	0.343470
H241	H	0.770461	-0.111716	0.000124
H242	H	1.270461	0.388284	0.500124
H243	H	0.769176	-0.219466	0.000091
H244	H	1.269176	0.280534	0.500091
