data_functionalizedCrystal
_audit_creation_method	'MofGen! by Chris Wilmer'
_symmetry_space_group_name_H-M	'P1'
_symmetry_Int_Tables_number	1
_symmetry_cell_setting	triclinic
loop_
_symmetry_equiv_pos_as_xyz
  x,y,z
_cell_length_a	10.654550
_cell_length_b	14.853567
_cell_length_c	9.730223
_cell_angle_alpha	89.999394
_cell_angle_beta	89.999957
_cell_angle_gamma	84.059930
loop_
_atom_site_label
_atom_site_type_symbol
_atom_site_fract_x
_atom_site_fract_y
_atom_site_fract_z
O1	O	1.666524	0.126626	-0.114175
O2	O	1.300920	0.138690	-0.114199
O3	O	1.493487	0.001480	-0.114190
O4	O	1.473956	0.263835	-0.114183
O5	O	1.493475	0.001477	0.114390
O6	O	1.300907	0.138686	0.114381
O7	O	1.666511	0.126622	0.114405
Zn8	Zn	1.483707	0.132654	0.150685
Zn9	Zn	1.483724	0.132659	-0.150479
O10	O	1.473943	0.263832	0.114397
C11	C	1.254125	0.137802	0.000088
C12	C	1.114709	0.135152	0.000078
C13	C	1.034384	0.215939	0.000084
C14	C	0.903389	0.213443	0.000108
C15	C	0.933057	0.049367	0.000114
C16	C	1.064049	0.051864	0.000100
C17	C	1.492596	-0.032115	0.000096
C18	C	1.489944	-0.132213	0.000084
C19	C	1.364344	-0.545419	0.000102
C20	C	1.593119	-0.565475	0.000116
C21	C	1.595613	-0.471428	0.000109
C22	C	1.482470	-0.414372	0.000099
C23	C	1.366834	-0.451363	0.000098
C24	C	1.711247	-0.434430	0.000124
C25	C	1.713745	-0.340378	0.000118
C26	C	1.600601	-0.283320	0.000098
C27	C	1.484961	-0.320316	0.000095
C28	C	1.371818	-0.263260	0.000086
C29	C	1.256176	-0.300254	0.000073
C30	C	1.253691	-0.394305	0.000079
C31	C	1.603087	-0.189269	0.000093
C32	C	1.374308	-0.169204	0.000082
C33	C	1.713306	0.127510	0.000116
C34	C	1.852722	0.130160	0.000116
C35	C	1.474835	0.297427	0.000108
C36	C	1.477487	0.397525	0.000111
N37	N	1.483705	0.132650	0.356222
N38	N	1.483735	0.132655	-0.356015
C39	C	1.569003	0.071919	0.428151
C40	C	1.569016	0.071919	0.572034
C41	C	1.398429	0.193389	0.572045
C42	C	1.398411	0.193383	0.428165
H43	H	0.837993	0.279228	0.000116
C44	C	0.877318	-0.042246	0.000125
N45	N	0.835337	-0.111250	0.000129
C46	C	1.662819	0.005103	0.349019
N47	N	1.733481	-0.045228	0.289420
C48	C	1.126496	-0.435007	0.000093
N49	N	1.030694	-0.465667	0.000116
H50	H	1.807907	-0.310265	0.000126
C51	C	1.662840	0.005104	0.651150
N52	N	1.733509	-0.045228	0.710740
H53	H	1.270191	-0.575544	0.000086
H54	H	1.129454	-0.013927	0.000099
H55	H	1.282172	-0.122754	0.000069
C56	C	1.835694	-0.497196	0.000144
N57	N	1.929432	-0.544477	0.000157
H58	H	1.328985	0.242838	0.630636
H59	H	1.328945	0.242838	0.369596
H60	H	1.075626	0.283758	0.000077
H61	H	1.685234	-0.611935	0.000135
H62	H	1.164056	-0.253787	0.000075
H63	H	1.697240	-0.159152	0.000112
