data_functionalizedCrystal
_audit_creation_method	'MofGen! by Chris Wilmer'
_symmetry_space_group_name_H-M	'P1'
_symmetry_Int_Tables_number	1
_symmetry_cell_setting	triclinic
loop_
_symmetry_equiv_pos_as_xyz
  x,y,z
_cell_length_a	15.995350
_cell_length_b	10.654550
_cell_length_c	9.130313
_cell_angle_alpha	90.001310
_cell_angle_beta	89.999375
_cell_angle_gamma	96.011361
loop_
_atom_site_label
_atom_site_type_symbol
_atom_site_fract_x
_atom_site_fract_y
_atom_site_fract_z
O1	O	1.111924	-0.161864	0.121671
O2	O	0.868265	-0.181854	0.121701
O3	O	0.995697	0.010954	0.121680
O4	O	0.984493	-0.354671	0.121692
O5	O	0.995688	0.010942	-0.121919
O6	O	0.868256	-0.181865	-0.121898
O7	O	1.111916	-0.161876	-0.121927
Cu8	Cu	0.990085	-0.171871	-0.144155
Cu9	Cu	0.990096	-0.171858	0.143929
O10	O	0.984484	-0.354683	-0.121906
C11	C	0.837061	-0.181033	-0.000095
C12	C	0.744096	-0.178555	-0.000083
C13	C	0.994870	0.057735	-0.000117
C14	C	0.992409	0.197146	-0.000112
N15	N	0.990084	-0.171880	-0.346778
C16	C	0.406297	-0.169658	-0.000114
C17	C	0.452934	-0.032344	-0.000662
C18	C	0.549639	-0.034822	-0.000103
C19	C	0.573883	-0.174071	-0.000100
C20	C	0.533195	-0.241792	0.139004
C21	C	0.436539	-0.238343	0.139110
C22	C	0.436206	-0.241193	-0.137907
C23	C	0.533152	-0.241161	-0.139736
C24	C	0.668595	-0.176573	-0.000086
C25	C	0.311585	-0.167161	-0.000117
C26	C	1.143119	-0.162696	-0.000129
C27	C	1.236084	-0.165174	-0.000130
C28	C	0.985311	-0.401464	-0.000106
C29	C	0.987772	-0.540875	-0.000101
C30	C	1.067438	0.277612	-0.000126
C31	C	1.065121	0.408603	-0.000115
C32	C	0.912737	0.378648	-0.000084
C33	C	0.915055	0.247660	-0.000084
C34	C	1.155416	0.294907	-0.000150
C35	C	1.153098	0.425897	-0.000140
C36	C	1.041305	-0.248086	-0.423448
C37	C	1.041317	-0.248062	-0.576784
C38	C	0.938880	-0.095625	-0.576768
C39	C	0.938873	-0.095642	-0.423434
C40	C	1.100444	-0.336099	-0.423458
C41	C	1.100456	-0.336075	-0.576795
N42	N	0.990103	-0.171839	0.346551
H43	H	0.434089	0.022539	-0.100419
N44	N	0.584194	0.032421	0.125208
N45	N	0.536879	0.081322	0.212529
H46	H	0.561282	0.128814	0.301038
H47	H	0.560177	-0.191725	-0.242644
H48	H	1.074089	-0.431012	-0.375918
H49	H	0.897186	-0.033555	-0.639200
N50	N	1.194675	0.478813	-0.128036
N51	N	1.225863	0.408674	-0.218159
H52	H	1.255224	0.446043	-0.308485
N53	N	0.886549	-0.017790	-0.345140
N54	N	0.840826	0.050261	-0.413604
H55	H	0.803867	0.105245	-0.358310
H56	H	0.415406	-0.196307	-0.243344
H57	H	0.417947	-0.188948	0.243091
N58	N	1.183283	-0.296284	-0.371252
N59	N	1.241652	-0.268208	-0.460215
H60	H	1.300155	-0.240078	-0.423346
N61	N	0.568436	-0.182819	0.268906
N62	N	0.605921	-0.245359	0.358904
H63	H	0.630809	-0.203713	0.450652
H64	H	1.189831	0.266003	0.101784
N65	N	1.179598	-0.285302	-0.636122
N66	N	1.208218	-0.174434	-0.606981
H67	H	1.264124	-0.138491	-0.648759
H68	H	0.549106	-0.342706	-0.148136
H69	H	1.079834	-0.435379	-0.618431
H70	H	0.577755	0.018410	-0.099818
H71	H	1.183428	0.259641	-0.105335
N72	N	0.397085	-0.368188	-0.139086
N73	N	0.318761	-0.389098	-0.143609
H74	H	0.291126	-0.478784	-0.144432
N75	N	0.427946	0.036198	0.123777
N76	N	0.375940	-0.015642	0.212864
H77	H	0.358290	0.032762	0.300753
H78	H	0.853959	0.182149	-0.000052
H79	H	0.547914	-0.344095	0.144178
N80	N	0.396807	-0.364804	0.147020
N81	N	0.409528	-0.442422	0.048940
H82	H	0.381468	-0.531733	0.054532
N83	N	0.833733	0.430272	-0.000047
N84	N	0.831672	0.547226	-0.000035
H85	H	0.775874	0.583685	-0.000009
N86	N	1.186449	0.483589	0.131811
N87	N	1.213365	0.417256	0.230617
H88	H	1.236915	0.458000	0.323809
