data_functionalizedCrystal
_audit_creation_method	'MofGen! by Chris Wilmer'
_symmetry_space_group_name_H-M	'P1'
_symmetry_Int_Tables_number	1
_symmetry_cell_setting	triclinic
loop_
_symmetry_equiv_pos_as_xyz
  x,y,z
_cell_length_a	10.540535
_cell_length_b	10.489716
_cell_length_c	9.616153
_cell_angle_alpha	90.001737
_cell_angle_beta	90.000428
_cell_angle_gamma	84.526389
loop_
_atom_site_label
_atom_site_type_symbol
_atom_site_fract_x
_atom_site_fract_y
_atom_site_fract_z
O1	O	1.685893	0.179741	0.115556
O2	O	1.316480	0.196685	0.115574
O3	O	1.509608	0.002612	0.115570
O4	O	1.492764	0.373814	0.115560
O5	O	1.509598	0.002602	-0.115722
O6	O	1.316470	0.196674	-0.115717
O7	O	1.685883	0.179731	-0.115736
Zn8	Zn	1.501175	0.188201	-0.152449
Zn9	Zn	1.501188	0.188215	0.152287
O10	O	1.492754	0.373804	-0.115731
C11	C	1.269172	0.195410	-0.000069
C12	C	1.128223	0.191612	-0.000062
C13	C	1.091548	0.049915	-0.000064
C14	C	0.944947	0.045919	-0.000602
C15	C	0.918883	0.256288	-0.131901
C16	C	1.065649	0.259303	-0.131999
C17	C	1.065545	0.261377	0.131032
C18	C	0.919198	0.254824	0.132751
C19	C	1.508338	-0.044925	-0.000072
C20	C	1.504551	-0.186556	-0.000059
C21	C	1.622984	-0.284246	-0.000077
C22	C	1.560406	-0.361593	0.113961
C23	C	1.560369	-0.361567	-0.114074
C24	C	1.442023	-0.262037	0.114073
C25	C	1.442003	-0.262006	-0.114064
C26	C	1.379339	-0.339304	0.000002
C27	C	1.733191	0.181006	-0.000089
C28	C	1.874139	0.184803	-0.000088
C29	C	1.494025	0.421341	-0.000087
C30	C	1.497811	0.562971	-0.000090
N31	N	1.501175	0.188191	-0.360423
C32	C	1.604543	0.084387	-0.419424
C33	C	1.604929	0.084675	-0.580592
C34	C	1.530781	0.321735	-0.581208
C35	C	1.531510	0.321113	-0.419990
C36	C	1.367923	0.159674	-0.419850
C37	C	1.368801	0.156672	-0.581079
N38	N	1.501198	0.188215	0.360262
H39	H	1.105814	0.211018	-0.230907
H40	H	1.135000	-0.003591	-0.094449
H41	H	1.628710	0.345980	-0.382383
H42	H	1.088683	0.363178	-0.137633
H43	H	1.392048	-0.218486	-0.210476
C44	C	0.852976	0.391779	0.144030
N45	N	0.803101	0.494940	0.152513
C46	C	1.627932	-0.420297	-0.244327
N47	N	1.678829	-0.464528	-0.342429
C48	C	1.737366	0.108920	-0.364723
N49	N	1.837408	0.127410	-0.323530
C50	C	1.580979	-0.049328	-0.634059
N51	N	1.562936	-0.150264	-0.674324
C52	C	0.906492	-0.029225	-0.129023
N53	N	0.877529	-0.085816	-0.225762
H54	H	1.133519	-0.004493	0.094449
H55	H	1.587123	-0.015137	-0.380637
C56	C	1.095533	0.402215	0.132761
N57	N	1.118129	0.508288	0.134055
C58	C	1.738566	0.109317	-0.632696
N59	N	1.839249	0.127799	-0.671940
H60	H	0.871530	0.358546	-0.136434
H61	H	1.458909	0.400577	-0.380958
C62	C	1.338482	0.023976	-0.632779
N63	N	1.315645	-0.075969	-0.671734
C64	C	1.762151	-0.250922	0.000070
N65	N	1.866970	-0.225820	0.000188
C66	C	1.627955	-0.420368	0.244197
N67	N	1.678841	-0.464638	0.342284
H68	H	1.457526	0.400918	-0.619517
C69	C	1.240066	-0.372296	0.000090
N70	N	1.135167	-0.397148	0.000163
C71	C	1.660610	0.356097	-0.635737
N72	N	1.758402	0.381971	-0.676805
C73	C	1.329739	0.030813	-0.364945
N74	N	1.300993	-0.066251	-0.323590
H75	H	1.392060	-0.218722	0.210591
H76	H	1.288227	0.227254	-0.621335
H77	H	1.290992	0.235354	-0.381693
H78	H	0.887975	0.207235	-0.230373
C79	C	0.905316	-0.029628	0.127010
N80	N	0.875474	-0.086544	0.223126
H81	H	1.108006	0.217166	0.230977
H82	H	0.890598	0.202802	0.230269
