data_functionalizedCrystal
_audit_creation_method	'MofGen! by Chris Wilmer'
_symmetry_space_group_name_H-M	'P1'
_symmetry_Int_Tables_number	1
_symmetry_cell_setting	triclinic
loop_
_symmetry_equiv_pos_as_xyz
  x,y,z
_cell_length_a	16.625545
_cell_length_b	17.640112
_cell_length_c	17.639306
_cell_angle_alpha	92.195878
_cell_angle_beta	78.811101
_cell_angle_gamma	101.251248
loop_
_atom_site_label
_atom_site_type_symbol
_atom_site_fract_x
_atom_site_fract_y
_atom_site_fract_z
Zn1	Zn	0.103642	-1.247734	-0.195073
Zn2	Zn	0.217616	-1.221982	-0.068105
Zn3	Zn	0.114283	-1.095085	-0.093726
Zn4	Zn	0.269945	-1.120690	-0.220681
O5	O	0.176372	-1.171373	-0.144396
O6	O	0.092408	-1.350593	-0.156791
O7	O	0.186462	-1.183656	0.034763
O8	O	0.000027	-1.115396	-0.107176
O9	O	0.176144	-1.331673	-0.063509
O10	O	-0.007790	-1.227547	-0.181635
O11	O	0.110543	-1.090425	0.015939
O12	O	0.161285	-0.992207	-0.132006
O13	O	0.265332	-1.159036	-0.323551
O14	O	0.275649	-1.011018	-0.225279
O15	O	0.143150	-1.252375	-0.304737
O16	O	0.337402	-1.208484	-0.088339
O17	O	0.375848	-1.134065	-0.200435
C18	C	0.225301	-0.974057	-0.184202
C19	C	0.246255	-0.889648	-0.201249
C20	C	0.385882	-1.171282	-0.144398
C21	C	0.475498	-1.171318	-0.144410
C22	C	0.208891	-1.211434	-0.342468
C23	C	0.222749	-1.228506	-0.426875
C24	C	0.548276	-1.171350	-0.144423
C25	C	0.639577	-1.171396	-0.144434
C26	C	0.712347	-1.171436	-0.144439
C27	C	0.803654	-1.171481	-0.144450
C28	C	0.966044	-1.171484	-0.144418
C29	C	0.876423	-1.171522	-0.144455
C30	C	0.127252	-1.369460	-0.104436
C31	C	0.106320	-1.453872	-0.087407
C32	C	0.017170	-0.563035	-0.014898
C33	C	0.036878	-0.483722	-0.030927
C34	C	0.156080	-0.503331	-0.127884
C35	C	0.136380	-0.582648	-0.111866
C36	C	0.066924	-0.612493	-0.055372
C37	C	0.186134	-0.632106	-0.152340
C38	C	0.166438	-0.711416	-0.136320
C39	C	0.096987	-0.741267	-0.079827
C40	C	0.047228	-0.691803	-0.039352
C41	C	0.255593	-0.602259	-0.208830
C42	C	0.305348	-0.651717	-0.249304
C43	C	0.285648	-0.731029	-0.233288
C44	C	0.216197	-0.760880	-0.176795
C45	C	0.335407	-0.780493	-0.273763
C46	C	0.315711	-0.859802	-0.257743
C47	C	0.196501	-0.840189	-0.160775
C48	C	0.070721	-1.041976	-0.753498
C49	C	0.083755	-1.058035	-0.832807
C50	C	0.162801	-1.155105	-0.813189
C51	C	0.149770	-1.139058	-0.733875
C52	C	0.103730	-1.082492	-0.704037
C53	C	0.182779	-1.179573	-0.684414
C54	C	0.169753	-1.163523	-0.605109
C55	C	0.123717	-1.106958	-0.575264
C56	C	0.090704	-1.066442	-0.624731
C57	C	0.228824	-1.236135	-0.714255
C58	C	0.261833	-1.276651	-0.664794
C59	C	0.248802	-1.260605	-0.585486
C60	C	0.202766	-1.204040	-0.555642
C61	C	0.281815	-1.301122	-0.536019
C62	C	0.268789	-1.285072	-0.456713
C63	C	0.189740	-1.187990	-0.476336
C64	C	0.143910	-1.131511	0.052914
C65	C	0.129788	-1.114587	0.137350
H66	H	0.139933	-0.864493	-0.114783
O67	O	0.369355	-0.913154	-0.301420
H68	H	0.343986	-0.973317	-0.280791
H69	H	0.056868	-1.025041	-0.873077
O70	O	-0.016767	-0.430361	0.012741
H71	H	-0.043169	-0.401114	-0.028597
H72	H	0.113119	-1.093887	-0.510689
H73	H	0.200290	-1.201159	-0.837495
H74	H	0.080953	-0.805846	-0.066783
O75	O	0.242766	-1.253643	-0.799753
H76	H	0.310807	-1.242575	-0.823846
H77	H	0.299322	-1.322704	-0.689100
O78	O	0.041044	-1.005433	-0.592537
H79	H	0.020278	-0.979952	-0.640253
O80	O	-0.027685	-0.724004	0.021581
H81	H	-0.058976	-0.676290	0.047039
O82	O	0.021061	-0.980967	-0.721304
H83	H	0.000295	-0.955486	-0.769020
H84	H	0.319308	-1.347172	-0.560327
H85	H	-0.039398	-0.587339	0.031094
H86	H	0.361900	-0.627406	-0.295299
O87	O	0.230987	-0.471142	-0.188820
H88	H	0.236323	-0.407684	-0.193165
O89	O	0.304381	-1.328773	-0.403356
H90	H	0.338574	-1.370810	-0.437426
H91	H	0.391963	-0.756180	-0.319755
H92	H	0.152239	-1.141936	-0.452039
O93	O	0.276869	-0.516719	-0.226120
H94	H	0.223824	-0.498930	-0.245804
