data_functionalizedCrystal
_audit_creation_method	'MofGen! by Chris Wilmer'
_symmetry_space_group_name_H-M	'P1'
_symmetry_Int_Tables_number	1
_symmetry_cell_setting	triclinic
loop_
_symmetry_equiv_pos_as_xyz
  x,y,z
_cell_length_a	18.215407
_cell_length_b	12.827892
_cell_length_c	18.215399
_cell_angle_alpha	89.973563
_cell_angle_beta	89.985640
_cell_angle_gamma	90.012835
loop_
_atom_site_label
_atom_site_type_symbol
_atom_site_fract_x
_atom_site_fract_y
_atom_site_fract_z
Zn1	Zn	1.125099	-0.416090	-0.416088
Zn2	Zn	1.625099	0.083910	0.083912
Zn3	Zn	1.125034	-0.590857	-0.293030
Zn4	Zn	1.625034	-0.090857	0.206970
Zn5	Zn	1.002038	-0.416123	-0.293040
Zn6	Zn	1.502038	0.083877	0.206960
Zn7	Zn	1.002017	-0.590782	-0.416060
Zn8	Zn	1.502017	-0.090782	0.083940
O9	O	1.063547	-0.503463	-0.354554
O10	O	1.563547	-0.003463	0.145446
O11	O	1.228074	-0.439291	-0.399771
O12	O	1.728074	0.060709	0.100229
O13	O	1.108700	-0.567723	-0.190047
O14	O	1.608700	-0.067723	0.309953
O15	O	1.018398	-0.269882	-0.309379
O16	O	1.518398	0.230118	0.190621
O17	O	1.228027	-0.567691	-0.309361
O18	O	1.728027	-0.067691	0.190639
O19	O	1.108810	-0.269858	-0.399781
O20	O	1.608810	0.230142	0.100219
O21	O	1.018335	-0.439346	-0.190054
O22	O	1.518335	0.060654	0.309946
O23	O	0.899051	-0.439274	-0.309352
O24	O	1.399051	0.060726	0.190648
O25	O	1.018363	-0.567564	-0.519048
O26	O	1.518363	-0.067564	-0.019048
O27	O	0.899036	-0.567595	-0.399734
O28	O	1.399036	-0.067595	0.100266
O29	O	1.108790	-0.439219	-0.519068
O30	O	1.608790	0.060781	-0.019068
O31	O	1.108680	-0.737083	-0.309334
O32	O	1.608680	-0.237083	0.190666
O33	O	1.018300	-0.737028	-0.399724
O34	O	1.518300	-0.237028	0.100276
C35	C	0.872341	-0.503431	-0.354541
C36	C	1.372341	-0.003431	0.145459
C37	C	0.790542	-0.503442	-0.354553
C38	C	1.290542	-0.003442	0.145447
C39	C	0.602372	-0.436722	-0.401704
C40	C	1.102372	0.063278	0.098296
C41	C	0.525513	-0.436731	-0.401707
C42	C	1.025513	0.063269	0.098293
C43	C	0.525474	-0.570233	-0.307417
C44	C	1.025474	-0.070233	0.192583
C45	C	0.602332	-0.570218	-0.307412
C46	C	1.102332	-0.070218	0.192588
C47	C	0.640778	-0.503464	-0.354559
C48	C	1.140778	-0.003464	0.145441
C49	C	0.487062	-0.503488	-0.354567
C50	C	0.987062	-0.003488	0.145433
C51	C	0.403729	-0.503498	-0.354570
C52	C	0.903729	-0.003498	0.145430
C53	C	0.724117	-0.503452	-0.354556
C54	C	1.224117	-0.003452	0.145444
C55	C	1.063501	-0.774973	-0.354541
C56	C	1.563501	-0.274973	0.145459
C57	C	1.063549	-0.891126	-0.354559
C58	C	1.563549	-0.391126	0.145441
C59	C	1.108267	-0.942816	-0.399334
C60	C	1.608267	-0.442816	0.100666
C61	C	1.108318	-1.062866	-0.399354
C62	C	1.608318	-0.562866	0.100646
C63	C	1.255500	-0.503496	-0.354568
C64	C	1.755500	-0.003496	0.145432
C65	C	1.337299	-0.503510	-0.354573
C66	C	1.837299	-0.003510	0.145427
C67	C	1.063582	-0.503379	-0.546507
C68	C	1.563582	-0.003379	-0.046507
C69	C	1.063596	-0.503344	-0.628306
C70	C	1.563596	-0.003344	-0.128306
C71	C	1.063613	-0.230893	-0.354584
C72	C	1.563613	0.269107	0.145416
C73	C	1.063641	-0.114740	-0.354597
C74	C	1.563641	0.385260	0.145403
C75	C	1.016583	-0.436453	-0.816505
C76	C	1.516583	0.063547	-0.316505
C77	C	1.016596	-0.436432	-0.893364
C78	C	1.516596	0.063568	-0.393364
C79	C	1.110698	-0.570110	-0.893345
C80	C	1.610698	-0.070110	-0.393345
C81	C	1.110681	-0.570136	-0.816488
C82	C	1.610681	-0.070136	-0.316488
C83	C	1.063625	-0.503301	-0.778070
C84	C	1.563625	-0.003301	-0.278070
C85	C	1.063654	-0.503255	-0.931786
C86	C	1.563654	-0.003255	-0.431786
C87	C	1.063669	-0.503232	-1.015120
C88	C	1.563669	-0.003232	-0.515120
C89	C	1.063609	-0.503325	-0.694731
C90	C	1.563609	-0.003325	-0.194731
C91	C	1.063555	-0.503471	-0.163348
C92	C	1.563555	-0.003471	0.336652
C93	C	1.063682	-0.503212	-0.081550
C94	C	1.563682	-0.003212	0.418450
H95	H	0.494162	-0.624583	-0.269032
H96	H	0.994162	-0.124583	0.230968
H97	H	0.978290	-0.381999	-0.924655
H98	H	1.478290	0.118001	-0.424655
C99	C	1.160042	-1.122916	-0.451142
C100	C	1.660042	-0.622916	0.048858
N101	N	1.199002	-1.168148	-0.490151
N102	N	1.699002	-0.668148	0.009849
H103	H	1.025356	-1.070295	-0.316259
H104	H	1.525356	-0.570295	0.183741
H105	H	1.148989	-0.624575	-0.785193
H106	H	1.648989	-0.124575	-0.285193
C107	C	1.162295	-0.643852	-0.935612
C108	C	1.662295	-0.143852	-0.435612
N109	N	1.201101	-0.699479	-0.967446
N110	N	1.701101	-0.199479	-0.467446
C111	C	0.644660	-0.363281	-0.453561
C112	C	1.144660	0.136719	0.046439
N113	N	0.676510	-0.307960	-0.492620
N114	N	1.176510	0.192040	0.007380
H115	H	1.025297	-0.935749	-0.316245
H116	H	1.525297	-0.435749	0.183755
H117	H	0.494246	-0.382381	-0.440096
H118	H	0.994246	0.117619	0.059904
C119	C	1.159942	-0.882536	-0.451100
C120	C	1.659942	-0.382536	0.048900
N121	N	1.198866	-0.837136	-0.490091
N122	N	1.698866	-0.337136	0.009909
C123	C	0.644581	-0.643644	-0.255546
C124	C	1.144581	-0.143644	0.244454
N125	N	0.676404	-0.698943	-0.216480
N126	N	1.176404	-0.198943	0.283520
H127	H	0.978267	-0.382032	-0.785227
H128	H	1.478267	0.117968	-0.285227
