data_functionalizedCrystal
_audit_creation_method	'MofGen! by Chris Wilmer'
_symmetry_space_group_name_H-M	'P1'
_symmetry_Int_Tables_number	1
_symmetry_cell_setting	triclinic
loop_
_symmetry_equiv_pos_as_xyz
  x,y,z
_cell_length_a	21.295418
_cell_length_b	17.077402
_cell_length_c	17.077396
_cell_angle_alpha	90.029784
_cell_angle_beta	89.961209
_cell_angle_gamma	89.961304
loop_
_atom_site_label
_atom_site_type_symbol
_atom_site_fract_x
_atom_site_fract_y
_atom_site_fract_z
Zn1	Zn	0.962358	0.312177	-0.444240
Zn2	Zn	1.462358	0.812177	0.055760
Zn3	Zn	0.962284	0.443452	-0.312971
Zn4	Zn	1.462284	0.943452	0.187029
Zn5	Zn	0.857091	0.312240	-0.312944
Zn6	Zn	1.357091	0.812240	0.187056
Zn7	Zn	0.857065	0.443441	-0.444150
Zn8	Zn	1.357065	0.943441	0.055850
O9	O	0.909699	0.377827	-0.378576
O10	O	1.409699	0.877827	0.121424
O11	O	1.050438	0.329569	-0.426876
O12	O	1.550438	0.829569	0.073124
O13	O	0.948309	0.426077	-0.203120
O14	O	1.448309	0.926077	0.296880
O15	O	0.871097	0.202385	-0.330386
O16	O	1.371097	0.702385	0.169614
O17	O	1.050383	0.426016	-0.330433
O18	O	1.550383	0.926016	0.169567
O19	O	0.948436	0.202338	-0.426849
O20	O	1.448436	0.702338	0.073151
O21	O	0.871024	0.329677	-0.203100
O22	O	1.371024	0.829677	0.296900
O23	O	0.768998	0.329666	-0.330299
O24	O	1.268998	0.829666	0.169701
O25	O	0.871053	0.425997	-0.554009
O26	O	1.371053	0.925997	-0.054009
O27	O	0.768979	0.426059	-0.426696
O28	O	1.268979	0.926059	0.073304
O29	O	0.948411	0.329558	-0.554075
O30	O	1.448411	0.829558	-0.054075
O31	O	0.948284	0.553297	-0.330346
O32	O	1.448284	1.053297	0.169654
O33	O	0.870981	0.553289	-0.426723
O34	O	1.370981	1.053289	0.073277
C35	C	0.746148	0.377869	-0.378486
C36	C	1.246148	0.877869	0.121514
C37	C	0.676180	0.377905	-0.378466
C38	C	1.176180	0.877905	0.121534
C39	C	0.909639	0.581775	-0.378545
C40	C	1.409639	1.081775	0.121455
C41	C	0.909670	0.669025	-0.378558
C42	C	1.409670	1.169025	0.121442
C43	C	0.909738	0.377769	-0.583320
C44	C	1.409738	0.877769	-0.083320
C45	C	0.909754	0.377745	-0.670570
C46	C	1.409754	0.877745	-0.170570
C47	C	0.643320	0.428163	-0.428585
C48	C	1.143320	0.928163	0.071415
C49	C	0.577577	0.428144	-0.428620
C50	C	1.077577	0.928144	0.071380
C51	C	0.544697	0.377875	-0.378522
C52	C	1.044697	0.877875	0.121478
C53	C	0.577565	0.327607	-0.328400
C54	C	1.077565	0.827607	0.171600
C55	C	0.643306	0.327622	-0.328372
C56	C	1.143306	0.827622	0.171628
N57	N	0.441425	0.371744	-0.309865
N58	N	0.941425	0.871744	0.190135
N59	N	0.378974	0.371735	-0.309894
N60	N	0.878974	0.871735	0.190106
C61	C	0.346623	0.377825	-0.378605
C62	C	0.846623	0.877825	0.121395
N63	N	0.379082	0.383940	-0.447288
N64	N	0.879082	0.883940	0.052712
N65	N	0.441539	0.383954	-0.447258
N66	N	0.941539	0.883954	0.052742
C67	C	0.473412	0.377852	-0.378548
C68	C	0.973412	0.877852	0.121452
C69	C	0.242477	0.428064	-0.428767
C70	C	0.742477	0.928064	0.071233
C71	C	0.176733	0.428040	-0.428803
C72	C	0.676733	0.928040	0.071197
C73	C	0.176723	0.327507	-0.328576
C74	C	0.676723	0.827507	0.171424
C75	C	0.242465	0.327527	-0.328547
C76	C	0.742465	0.827527	0.171453
C77	C	0.275338	0.377810	-0.378641
C78	C	0.775338	0.877810	0.121359
C79	C	1.073890	0.377786	-0.378667
C80	C	1.573890	0.877786	0.121333
C81	C	1.143858	0.377769	-0.378706
C82	C	1.643858	0.877769	0.121294
C83	C	0.909778	0.173083	-0.378625
C84	C	1.409778	0.673083	0.121375
C85	C	0.909811	0.085833	-0.378645
C86	C	1.409811	0.585833	0.121355
C87	C	0.949964	0.709993	-0.328428
C88	C	1.449964	1.209993	0.171572
C89	C	0.949994	0.791974	-0.328448
C90	C	1.449994	1.291974	0.171552
C91	C	0.909728	0.832984	-0.378594
C92	C	1.409728	1.332984	0.121406
C93	C	0.869433	0.792010	-0.428729
C94	C	1.369433	1.292010	0.071271
C95	C	0.869406	0.710031	-0.428713
C96	C	1.369406	1.210031	0.071287
C97	C	0.869492	0.962880	-0.428759
C98	C	1.369492	1.462880	0.071241
C99	C	0.869518	1.044865	-0.428775
C100	C	1.369518	1.544865	0.071225
C101	C	0.950080	1.044822	-0.328495
C102	C	1.450080	1.544822	0.171505
C103	C	0.950053	0.962844	-0.328478
C104	C	1.450053	1.462844	0.171522
C105	C	0.909757	0.921875	-0.378612
C106	C	1.409757	1.421875	0.121388
C107	C	0.950036	0.327525	-0.711596
C108	C	1.450036	0.827525	-0.211596
C109	C	0.950043	0.327499	-0.793577
C110	C	1.450043	0.827499	-0.293577
C111	C	0.909772	0.377697	-0.834530
C112	C	1.409772	0.877697	-0.334530
C113	C	0.869485	0.427919	-0.793498
C114	C	1.369485	0.927919	-0.293498
C115	C	0.869475	0.427941	-0.711519
C116	C	1.369475	0.927941	-0.211519
C117	C	0.869510	0.427872	-0.964369
C118	C	1.369510	0.927872	-0.464369
C119	C	0.869521	0.427852	-1.046353
C120	C	1.369521	0.927852	-0.546353
C121	C	0.950079	0.327430	-1.046426
C122	C	1.450079	0.827430	-0.546426
C123	C	0.950069	0.327451	-0.964447
C124	C	1.450069	0.827451	-0.464447
C125	C	0.909783	0.377675	-0.923421
C126	C	1.409783	0.877675	-0.423421
C127	C	0.909698	0.377828	-0.174628
C128	C	1.409698	0.877828	0.325372
C129	C	0.909804	0.377632	-0.087379
C130	C	1.409804	0.877632	0.412621
H131	H	0.550817	0.469070	-0.469436
H132	H	1.050817	0.969070	0.030564
N133	N	0.143146	0.276142	-0.277415
N134	N	0.643146	0.776142	0.222585
N135	N	0.106524	0.226145	-0.305144
N136	N	0.606524	0.726145	0.194856
H137	H	0.082809	0.189863	-0.269013
H138	H	0.582809	0.689863	0.230987
H139	H	0.982865	0.286580	-0.931105
H140	H	1.482865	0.786580	-0.431105
H141	H	0.982880	0.286535	-1.079833
H142	H	1.482880	0.786535	-0.579833
H143	H	0.550790	0.286676	-0.287611
H144	H	1.050790	0.786676	0.212389
N145	N	0.991248	1.086650	-0.277277
N146	N	1.491248	1.586650	0.222723
N147	N	0.987103	1.077550	-0.204836
N148	N	1.487103	1.577550	0.295164
H149	H	1.016177	1.107092	-0.168663
H150	H	1.516177	1.607092	0.331337
H151	H	0.836667	0.468827	-0.678117
H152	H	1.336667	0.968827	-0.178117
N153	N	0.828345	0.479199	-0.835320
N154	N	1.328345	0.979199	-0.335320
N155	N	0.832480	0.551634	-0.826147
N156	N	1.332480	1.051634	-0.326147
H157	H	0.803421	0.587852	-0.855680
H158	H	1.303421	1.087852	-0.355680
N159	N	0.276044	0.276207	-0.277343
N160	N	0.776044	0.776207	0.222657
N161	N	0.334741	0.276229	-0.277322
N162	N	0.834741	0.776229	0.222678
H163	H	0.358458	0.239981	-0.241158
H164	H	0.858458	0.739981	0.258842
H165	H	0.982832	0.286650	-0.678258
H166	H	1.482832	0.786650	-0.178258
N167	N	0.991094	0.668093	-0.277212
N168	N	1.491094	1.168093	0.222788
N169	N	0.991066	0.594899	-0.277202
N170	N	1.491066	1.094899	0.222798
H171	H	1.020116	0.565307	-0.241031
H172	H	1.520116	1.065307	0.258969
H173	H	0.982837	0.929453	-0.287641
H174	H	1.482837	1.429453	0.212359
H175	H	0.982847	0.286606	-0.826976
H176	H	1.482847	0.786606	-0.326976
H177	H	0.982805	0.825326	-0.287627
H178	H	1.482805	1.325326	0.212373
H179	H	0.670061	0.286693	-0.287559
H180	H	1.170061	0.786693	0.212441
N181	N	0.828356	0.479100	-1.088175
N182	N	1.328356	0.979100	-0.588175
N183	N	0.792369	0.523912	-1.051539
N184	N	1.292369	1.023912	-0.551539
H185	H	0.763285	0.560095	-1.081075
H186	H	1.263285	1.060095	-0.581075
H187	H	0.836596	0.676676	-0.469534
H188	H	1.336596	1.176676	0.030466
N189	N	0.276051	0.479430	-0.479938
N190	N	0.776051	0.979430	0.020062
N191	N	0.246701	0.524297	-0.524690
N192	N	0.746701	1.024297	-0.024690
H193	H	0.270410	0.560575	-0.560830
H194	H	0.770410	1.060575	-0.060830
H195	H	0.149980	0.468964	-0.469621
H196	H	0.649980	0.968964	0.030379
N197	N	0.828340	0.921029	-0.479979
N198	N	1.328340	1.421029	0.020021
N199	N	0.832484	0.930124	-0.552421
N200	N	1.332484	1.430124	-0.052421
H201	H	0.803420	0.900565	-0.588593
H202	H	1.303420	1.400565	-0.088593
N203	N	0.828292	0.833901	-0.479940
N204	N	1.328292	1.333901	0.020060
N205	N	0.770206	0.824827	-0.474636
N206	N	1.270206	1.324827	0.025364
H207	H	0.741147	0.854411	-0.510801
H208	H	1.241147	1.354411	-0.010801
N209	N	0.828380	1.086746	-0.479998
N210	N	1.328380	1.586746	0.020002
N211	N	0.792407	1.050160	-0.524757
N212	N	1.292407	1.550160	-0.024757
H213	H	0.763351	1.079738	-0.560933
H214	H	1.263351	1.579738	-0.060933
N215	N	0.828352	0.479162	-0.922459
N216	N	1.328352	0.979162	-0.422459
N217	N	0.770269	0.473967	-0.931575
N218	N	1.270269	0.973967	-0.431575
H219	H	0.741202	0.510191	-0.901975
H220	H	1.241202	1.010191	-0.401975
N221	N	0.676888	0.479528	-0.479758
N222	N	1.176888	0.979528	0.020242
N223	N	0.647535	0.524398	-0.524506
N224	N	1.147535	1.024398	-0.024506
H225	H	0.671244	0.560675	-0.560649
H226	H	1.171244	1.060675	-0.060649
