data_functionalizedCrystal
_audit_creation_method	'MofGen! by Chris Wilmer'
_symmetry_space_group_name_H-M	'P1'
_symmetry_Int_Tables_number	1
_symmetry_cell_setting	triclinic
loop_
_symmetry_equiv_pos_as_xyz
  x,y,z
_cell_length_a	19.188930
_cell_length_b	19.188930
_cell_length_c	18.266242
_cell_angle_alpha	89.988525
_cell_angle_beta	89.977082
_cell_angle_gamma	83.144779
loop_
_atom_site_label
_atom_site_type_symbol
_atom_site_fract_x
_atom_site_fract_y
_atom_site_fract_z
O1	O	0.926149	0.087169	-0.061124
O2	O	0.722838	0.098903	-0.061075
O3	O	0.830361	-0.008620	-0.061087
O4	O	0.818627	0.194691	-0.061113
O5	O	0.830343	-0.008625	0.060675
O6	O	0.722820	0.098897	0.060687
O7	O	0.926131	0.087163	0.060638
Zn8	Zn	0.824473	0.093029	0.079994
Zn9	Zn	0.824497	0.093037	-0.080432
O10	O	0.818608	0.194686	0.060649
C11	C	0.696818	0.098520	-0.000188
C12	C	0.619313	0.097380	-0.000169
C13	C	0.574389	0.160470	-0.000188
C14	C	0.501566	0.159399	-0.000196
C15	C	0.473669	0.095233	-0.000199
C16	C	0.518603	0.032133	-0.000175
C17	C	0.591425	0.033207	-0.000160
N18	N	0.365695	0.046188	-0.041663
N19	N	0.296516	0.045172	-0.041679
C20	C	0.254260	0.091994	-0.000243
N21	N	0.283795	0.139881	0.041200
N22	N	0.352980	0.140899	0.041213
C23	C	0.394707	0.094062	-0.000215
C24	C	0.130372	0.153928	-0.000270
C25	C	0.057547	0.152853	-0.000274
C26	C	0.074586	0.025586	-0.000261
C27	C	0.147409	0.026662	-0.000250
C28	C	0.175298	0.090835	-0.000258
C29	C	0.829972	-0.034634	-0.000204
C30	C	0.828831	-0.112138	-0.000197
C31	C	0.891922	-0.157062	-0.000209
C32	C	0.890850	-0.229886	-0.000220
C33	C	0.826684	-0.257782	-0.000206
C34	C	0.763585	-0.212849	-0.000198
C35	C	0.764658	-0.140026	-0.000194
N36	N	0.777631	-0.365789	0.041244
N37	N	0.776615	-0.434968	0.041242
C38	C	0.823446	-0.477191	-0.000220
N39	N	0.871341	-0.447624	-0.041669
N40	N	0.872359	-0.378439	-0.041664
C41	C	0.825513	-0.336745	-0.000210
C42	C	0.885379	-0.601079	-0.000245
C43	C	0.884305	-0.673904	-0.000261
C44	C	0.757038	-0.656865	-0.000231
C45	C	0.758114	-0.584042	-0.000222
C46	C	0.822287	-0.556154	-0.000226
C47	C	0.952151	0.087546	-0.000252
C48	C	1.029656	0.088687	-0.000276
C49	C	0.818997	0.220700	-0.000236
C50	C	0.820138	0.298204	-0.000247
N51	N	0.824461	0.093024	0.189481
N52	N	0.824513	0.093037	-0.189919
C53	C	0.872088	0.045436	0.227785
C54	C	0.872092	0.045433	0.304430
C55	C	0.824477	0.093030	0.342768
C56	C	0.776841	0.140621	0.304455
C57	C	0.776834	0.140618	0.227812
N58	N	0.815401	0.154837	0.463094
N59	N	0.815413	0.154838	0.535902
C60	C	0.824496	0.093040	0.573691
N61	N	0.833582	0.031239	0.535920
N62	N	0.833574	0.031240	0.463106
C63	C	0.824480	0.093038	0.425875
C64	C	0.872131	0.045444	0.695101
C65	C	0.872130	0.045440	0.771748
C66	C	0.776882	0.140634	0.771772
C67	C	0.776879	0.140632	0.695127
C68	C	0.824507	0.093038	0.656796
H69	H	0.020970	0.204232	-0.000285
O70	O	0.918425	-0.000694	0.809040
C71	C	0.961390	0.036598	0.853331
H72	H	0.933409	0.091301	0.864813
H73	H	0.972530	0.007430	0.907229
H74	H	1.012972	0.041219	0.823768
H75	H	0.738110	0.179386	0.802986
H76	H	0.910868	0.006681	0.196579
H77	H	0.051874	-0.026659	-0.000309
H78	H	0.738100	0.179386	0.663938
H79	H	0.910877	0.006680	0.335623
O80	O	0.157388	0.216304	-0.000367
C81	C	0.134459	0.254752	-0.063442
H82	H	0.084017	0.235885	-0.084474
H83	H	0.124171	0.312925	-0.049262
H84	H	0.176648	0.246538	-0.107593
H85	H	0.935683	-0.710481	-0.000274
O86	O	0.190953	-0.034689	-0.000272
C87	C	0.150718	-0.091556	-0.000257
H88	H	0.096324	-0.073666	-0.023322
H89	H	0.177737	-0.135747	-0.035599
H90	H	0.145560	-0.111238	0.058159
O91	O	0.954238	-0.129937	-0.000092
C92	C	0.958651	-0.088320	0.062959
H93	H	0.922213	-0.105440	0.107045
H94	H	1.014939	-0.095031	0.084112
H95	H	0.942370	-0.030839	0.048706
H96	H	0.597091	0.212725	-0.000196
H97	H	0.495885	-0.020111	-0.000188
O98	O	0.458016	0.220752	-0.000254
C99	C	0.498247	0.277621	-0.000239
H100	H	0.552670	0.259733	-0.023270
H101	H	0.471269	0.321809	-0.035608
H102	H	0.503332	0.297308	0.058173
H103	H	0.942228	-0.266470	-0.000233
H104	H	0.711340	-0.235567	-0.000187
H105	H	0.713281	-0.103448	-0.000184
O106	O	0.634969	-0.028147	-0.000179
C107	C	0.594735	-0.085014	-0.000161
H108	H	0.540339	-0.067126	-0.023222
H109	H	0.621752	-0.129205	-0.035504
H110	H	0.589581	-0.104697	0.058256
O111	O	0.696891	-0.540300	-0.000236
C112	C	0.711597	-0.470044	-0.000217
H113	H	0.766433	-0.467414	-0.023280
H114	H	0.671373	-0.436919	-0.035557
H115	H	0.708876	-0.448987	0.058201
H116	H	0.704792	-0.679578	-0.000222
H117	H	0.937632	-0.578372	-0.000251
H118	H	0.738071	0.179374	0.335674
H119	H	0.738049	0.179371	0.196624
H120	H	0.910910	0.006688	0.663892
