data_functionalizedCrystal
_audit_creation_method	'MofGen! by Chris Wilmer'
_symmetry_space_group_name_H-M	'P1'
_symmetry_Int_Tables_number	1
_symmetry_cell_setting	triclinic
loop_
_symmetry_equiv_pos_as_xyz
  x,y,z
_cell_length_a	18.050589
_cell_length_b	12.759401
_cell_length_c	12.759393
_cell_angle_alpha	90.022497
_cell_angle_beta	89.970454
_cell_angle_gamma	89.970957
loop_
_atom_site_label
_atom_site_type_symbol
_atom_site_fract_x
_atom_site_fract_y
_atom_site_fract_z
Zn1	Zn	-0.295607	-1.606168	-0.594071
Zn2	Zn	0.204393	-1.106168	-0.094071
Zn3	Zn	-0.419815	-1.606017	-0.418394
Zn4	Zn	0.080185	-1.106017	0.081606
Zn5	Zn	-0.295645	-1.430466	-0.418401
Zn6	Zn	0.204355	-0.930466	0.081599
Zn7	Zn	-0.419762	-1.430417	-0.594026
Zn8	Zn	0.080238	-0.930417	-0.094026
O9	O	-0.357707	-1.518267	-0.506223
O10	O	0.142293	-1.018267	-0.006223
O11	O	-0.312090	-1.753169	-0.570782
O12	O	0.187910	-1.253169	-0.070782
O13	O	-0.403382	-1.582688	-0.271374
O14	O	0.096618	-1.082688	0.228626
O15	O	-0.191716	-1.453857	-0.441726
O16	O	0.308284	-0.953857	0.058274
O17	O	-0.403345	-1.753058	-0.441713
O18	O	0.096655	-1.253058	0.058287
O19	O	-0.191688	-1.582944	-0.570789
O20	O	0.308312	-1.082944	-0.070789
O21	O	-0.312155	-1.453711	-0.271379
O22	O	0.187845	-0.953711	0.228621
O23	O	-0.312103	-1.283439	-0.441683
O24	O	0.187897	-0.783439	0.058317
O25	O	-0.403254	-1.453773	-0.741053
O26	O	0.096746	-0.953773	-0.241053
O27	O	-0.403291	-1.283402	-0.570714
O28	O	0.096709	-0.783402	-0.070714
O29	O	-0.312038	-1.582896	-0.741086
O30	O	0.187962	-1.082896	-0.241086
O31	O	-0.523733	-1.582640	-0.441670
O32	O	-0.023733	-1.082640	0.058330
O33	O	-0.523693	-1.453627	-0.570706
O34	O	-0.023693	-0.953627	-0.070706
C35	C	-0.357696	-1.245300	-0.506195
C36	C	0.142304	-0.745300	-0.006195
C37	C	-0.357709	-1.128523	-0.506207
C38	C	0.142291	-0.628523	-0.006207
C39	C	-0.405262	-1.073670	-0.573287
C40	C	0.094738	-0.573670	-0.073287
C41	C	-0.405264	-0.963946	-0.573305
C42	C	0.094736	-0.463946	-0.073305
C43	C	-0.310157	-0.963938	-0.439155
C44	C	0.189843	-0.463938	0.060845
C45	C	-0.310152	-1.073660	-0.439143
C46	C	0.189848	-0.573660	0.060857
C47	C	-0.550659	-1.518140	-0.506205
C48	C	-0.050659	-1.018140	-0.006205
C49	C	-0.633205	-1.518182	-0.506233
C50	C	-0.133205	-1.018182	-0.006233
C51	C	-0.832661	-1.448094	-0.576379
C52	C	-0.332661	-0.948094	-0.076379
C53	C	-0.882109	-1.422478	-0.480509
C54	C	-0.382109	-0.922478	0.019491
C55	C	-0.784336	-1.518285	-0.506247
C56	C	-0.284336	-1.018285	-0.006247
C57	C	-0.881970	-1.543953	-0.602127
C58	C	-0.381970	-1.043953	-0.102127
C59	C	-0.930321	-1.518383	-0.506269
C60	C	-0.430321	-1.018383	-0.006269
C61	C	-0.832696	-1.492619	-0.410326
C62	C	-0.332696	-0.992619	0.089674
C63	C	-0.832552	-1.614139	-0.532010
C64	C	-0.332552	-1.114139	-0.032010
C65	C	-0.881977	-1.588559	-0.436074
C66	C	-0.381977	-1.088559	0.063926
C67	C	-0.700237	-1.518226	-0.506236
C68	C	-0.200237	-1.018226	-0.006236
C69	C	-1.014417	-1.518442	-0.506269
C70	C	-0.514417	-1.018442	-0.006269
C71	C	-0.164002	-1.518423	-0.506263
C72	C	0.335998	-1.018423	-0.006263
C73	C	-0.081456	-1.518489	-0.506281
C74	C	0.418544	-1.018489	-0.006281
C75	C	-0.357636	-1.518346	-0.780256
C76	C	0.142364	-1.018346	-0.280256
C77	C	-0.357606	-1.518379	-0.897033
C78	C	0.142394	-1.018379	-0.397033
C79	C	-0.357717	-0.792300	-0.506245
C80	C	0.142283	-0.292300	-0.006245
C81	C	-0.357716	-0.909077	-0.506237
C82	C	0.142284	-0.409077	-0.006237
C83	C	-0.310102	-1.585619	-0.951914
C84	C	0.189898	-1.085619	-0.451914
C85	C	-0.310070	-1.585637	-1.061638
C86	C	0.189930	-1.085637	-0.561638
C87	C	-0.405052	-1.451172	-1.061591
C88	C	0.094948	-0.951172	-0.561591
C89	C	-0.405079	-1.451150	-0.951869
C90	C	0.094921	-0.951150	-0.451869
C91	C	-0.357725	-1.518249	-0.233256
C92	C	0.142275	-1.018249	0.266744
C93	C	-0.357546	-1.518419	-0.116479
C94	C	0.142454	-1.018419	0.383521
H95	H	-0.271424	-1.118323	-0.384519
H96	H	0.228576	-0.618323	0.115481
H97	H	-0.443986	-0.919289	-0.627929
H98	H	0.056014	-0.419289	-0.127929
H99	H	-0.811007	-1.388648	-0.635603
H100	H	-0.311007	-0.888648	-0.135603
Cl101	Cl	-0.464799	-1.366607	-0.882871
Cl102	Cl	0.035201	-0.866607	-0.382871
H103	H	-0.271439	-0.919255	-0.384552
H104	H	0.228561	-0.419255	0.115448
Cl105	Cl	-0.915715	-1.297393	-0.446868
Cl106	Cl	-0.415715	-0.797393	0.053132
Cl107	Cl	-0.799422	-1.459018	-0.285114
Cl108	Cl	-0.299422	-0.959018	0.214886
Cl109	Cl	-0.915390	-1.577410	-0.727301
Cl110	Cl	-0.415390	-1.077410	-0.227301
Cl111	Cl	-0.465044	-1.142637	-0.657600
Cl112	Cl	0.034956	-0.642637	-0.157600
H113	H	-0.271387	-1.640388	-1.106317
H114	H	0.228613	-1.140388	-0.606317
H115	H	-0.903495	-1.647959	-0.376707
H116	H	-0.403495	-1.147959	0.123293
H117	H	-0.810770	-1.695134	-0.553826
H118	H	-0.310770	-1.195134	-0.053826
H119	H	-0.271444	-1.640358	-0.907270
H120	H	0.228556	-1.140358	-0.407270
Cl121	Cl	-0.464733	-1.366666	-1.130535
Cl122	Cl	0.035267	-0.866666	-0.630535
