data_functionalizedCrystal
_audit_creation_method	'MofGen! by Chris Wilmer'
_symmetry_space_group_name_H-M	'P1'
_symmetry_Int_Tables_number	1
_symmetry_cell_setting	triclinic
loop_
_symmetry_equiv_pos_as_xyz
  x,y,z
_cell_length_a	15.698487
_cell_length_b	23.196402
_cell_length_c	23.196401
_cell_angle_alpha	60.008520
_cell_angle_beta	90.013070
_cell_angle_gamma	59.999321
loop_
_atom_site_label
_atom_site_type_symbol
_atom_site_fract_x
_atom_site_fract_y
_atom_site_fract_z
Zr1	Zr	0.820565	0.631034	-0.075650
O2	O	0.684514	0.751303	-0.167698
O3	O	0.862274	0.510765	-0.047434
O4	O	0.862228	0.631036	-0.167702
O5	O	0.684593	0.631030	0.047442
O6	O	1.002409	0.631039	-0.167703
O7	O	0.684560	0.631032	-0.047430
O8	O	1.002491	0.415895	0.047434
O9	O	0.684511	0.846174	-0.167696
O10	O	0.984675	0.560236	-0.035399
O11	O	0.880084	0.560233	0.035403
O12	O	0.880030	0.701837	-0.106197
O13	O	0.775440	0.701834	-0.035394
Zr14	Zr	1.044191	0.631036	0.075657
Zr15	Zr	1.044137	0.631038	-0.075652
Zr16	Zr	0.820618	0.631032	0.075659
Zr17	Zr	0.820560	0.782342	-0.075647
Zr18	Zr	1.044195	0.479728	0.075654
O19	O	1.002481	0.751305	0.047441
O20	O	1.002405	0.751308	-0.167701
O21	O	0.684590	0.751300	0.047444
O22	O	1.180242	0.510767	0.167704
O23	O	1.180166	0.510770	-0.047437
O24	O	0.862350	0.510762	0.167708
O25	O	1.180162	0.631040	-0.047435
O26	O	1.002527	0.631034	0.167709
O27	O	0.862346	0.631031	0.167710
O28	O	1.180195	0.631038	0.047437
O29	O	0.862221	0.846177	-0.167697
O30	O	1.002534	0.415893	0.167704
O31	O	1.180244	0.415896	0.167702
O32	O	1.180202	0.415898	0.047432
O33	O	0.684553	0.846172	-0.047425
O34	O	0.862264	0.846175	-0.047427
O35	O	0.984725	0.560233	0.106204
O36	O	1.089316	0.560236	0.035401
O37	O	0.984671	0.701837	-0.035396
O38	O	0.880080	0.701835	0.035406
C39	C	0.932383	0.441772	-0.000000
C40	C	0.932385	0.377538	-0.000002
C41	C	0.986975	-0.085304	-0.036942
C42	C	0.986972	-0.024945	-0.036949
C43	C	0.932379	0.005236	0.000010
C44	C	0.877762	-0.024933	0.036962
C45	C	0.877757	-0.085284	0.036962
C46	C	0.940203	0.067262	0.061915
C47	C	0.940215	0.127609	0.061917
C48	C	0.932386	0.191384	0.000010
C49	C	0.924567	0.194796	-0.061899
C50	C	0.924563	0.134444	-0.061900
C51	C	0.932377	0.070678	0.000014
C52	C	0.986991	0.286997	-0.036951
C53	C	0.986981	0.347361	-0.036960
C54	C	0.877777	0.347366	0.036958
C55	C	0.877780	0.287009	0.036960
C56	C	0.932393	0.256826	0.000007
C57	C	0.652722	0.631030	0.000006
C58	C	0.557810	0.631029	0.000007
C59	C	0.384024	0.631043	0.000001
C60	C	0.480728	0.631039	0.000003
C61	C	1.212033	0.631040	0.000001
C62	C	1.306945	0.631041	-0.000000
C63	C	0.932311	0.631038	-0.189261
C64	C	0.932288	0.631039	-0.253496
C65	C	0.932372	0.820298	0.000007
C66	C	0.932370	0.884532	0.000009
C67	C	0.877670	0.704951	-0.320624
C68	C	0.877696	0.704952	-0.380979
C69	C	0.932327	0.631037	-0.374202
C70	C	0.986957	0.557115	-0.307061
C71	C	0.986938	0.557116	-0.246708
C72	C	0.924571	0.574407	-0.441520
C73	C	0.924583	0.574409	-0.501874
C74	C	0.932393	0.631031	-0.560350
C75	C	0.940169	0.687664	-0.558471
C76	C	0.940150	0.687665	-0.498118
C77	C	0.932354	0.631028	-0.439641
C78	C	0.877800	0.704949	-0.692925
C79	C	0.877834	0.704947	-0.753280
C80	C	0.987089	0.557108	-0.679359
C81	C	0.987062	0.557112	-0.619007
C82	C	0.932412	0.631035	-0.625794
C83	C	0.932444	0.631032	0.189268
C84	C	0.932467	0.631031	0.253502
C85	C	1.212039	0.441777	-0.000003
C86	C	1.306953	0.377544	-0.000006
C87	C	0.932450	0.441769	0.189264
C88	C	0.932475	0.377534	0.253497
C89	C	1.212106	0.441774	0.189261
C90	C	1.307043	0.377540	0.253493
C91	C	0.652650	0.820296	-0.189254
C92	C	0.557712	0.884530	-0.253486
C93	C	0.652717	0.820293	0.000010
C94	C	0.557802	0.884526	0.000013
C95	C	0.932305	0.820301	-0.189257
C96	C	0.932280	0.884536	-0.253490
C97	C	1.296905	0.347380	-0.036970
C98	C	1.386078	0.287035	-0.036987
C99	C	1.485299	0.256851	-0.000034
C100	C	1.495346	0.287022	0.036932
C101	C	1.406173	0.347370	0.036944
C102	C	0.987108	0.347369	0.320625
C103	C	0.987127	0.287022	0.380985
C104	C	0.932519	0.256837	0.374215
C105	C	0.877879	0.287008	0.307080
C106	C	0.877854	0.347358	0.246722
C107	C	1.406231	0.347377	0.246699
C108	C	1.495443	0.287031	0.307046
C109	C	1.485465	0.256846	0.374187
C110	C	1.386266	0.287015	0.380980
C111	C	1.297056	0.347364	0.320633
C112	C	0.458524	0.914700	-0.246692
C113	C	0.369312	0.975065	-0.307040
C114	C	0.379291	1.005254	-0.374180
C115	C	0.478489	0.975081	-0.380973
C116	C	0.567699	0.914721	-0.320626
C117	C	0.567851	0.914697	0.036971
C118	C	0.478677	0.975058	0.036970
C119	C	0.379456	1.005244	0.000016
C120	C	0.369409	0.975071	-0.036947
C121	C	0.458582	0.914714	-0.036950
C122	C	0.986899	0.914702	-0.246698
C123	C	0.986896	0.975050	-0.307046
C124	C	0.932268	1.005234	-0.374186
C125	C	0.877648	0.975062	-0.380977
C126	C	0.877657	0.914712	-0.320630
H127	H	1.031456	0.262423	-0.067043
C128	C	1.583382	0.190461	-0.000048
N129	N	1.657255	0.140453	-0.000059
C130	C	1.047249	0.253837	0.454827
N131	N	1.092536	0.228842	0.510443
H132	H	0.932547	0.207696	0.423368
C133	C	1.583609	0.190454	0.440564
N134	N	1.657535	0.140444	0.490556
H135	H	0.833174	0.765145	-0.326157
H136	H	0.918193	0.137227	-0.112308
C137	C	1.375307	0.253795	0.454841
N138	N	1.367056	0.228767	0.510476
H139	H	0.648460	0.890157	-0.326167
C140	C	0.817603	1.008246	-0.454838
N141	N	0.772390	1.033233	-0.510472
H142	H	1.031373	0.999609	-0.301503
C143	C	0.447523	0.881509	-0.172843
N144	N	0.439228	0.856518	-0.117221
C145	C	0.676986	0.881508	0.077623
N146	N	0.759184	0.856518	0.108241
H147	H	1.377878	0.262477	-0.067088
H148	H	0.486877	0.999615	0.067073
H149	H	0.833320	0.371942	0.067047
C150	C	0.932266	1.071624	-0.440564
N151	N	0.932266	1.121629	-0.490557
C152	C	0.817771	0.253786	0.077651
N153	N	0.772586	0.228751	0.108313
H154	H	0.833369	0.371911	0.192065
C155	C	0.817711	0.008266	0.077618
N156	N	0.772477	0.033272	0.108241
H157	H	1.031577	0.371939	0.326151
C158	C	1.417232	0.380574	0.172850
N159	N	1.425528	0.405579	0.117228
C160	C	1.187951	0.380535	0.328119
N161	N	1.105774	0.405518	0.333762
C162	C	0.817552	0.881547	-0.328113
N163	N	0.772275	0.856572	-0.333755
C164	C	0.817820	0.253791	0.299645
N165	N	0.772589	0.228766	0.294047
C166	C	0.916023	0.512114	-0.503935
N167	N	0.909575	0.465192	-0.505485
C168	C	1.047020	-0.118481	-0.077613
N169	N	1.092236	-0.143465	-0.108253
H170	H	0.306854	1.054390	0.000024
H171	H	0.946591	0.124820	0.112329
C172	C	1.604551	0.253849	0.299559
N173	N	1.686729	0.228855	0.293917
C174	C	0.260204	1.008243	-0.299552
N175	N	0.178026	1.033231	-0.293910
C176	C	1.047048	0.475808	-0.299607
N177	N	1.092312	0.414565	-0.293991
C178	C	1.604499	0.253805	0.077583
N179	N	1.686716	0.228780	0.108206
H180	H	0.288612	0.999657	-0.067035
H181	H	0.486601	0.999668	-0.435646
H182	H	1.031416	0.496926	-0.192047
H183	H	1.414369	0.371922	0.067049
C184	C	0.915791	0.265016	-0.130031
N185	N	0.909125	0.317931	-0.181356
H186	H	1.031440	-0.000380	-0.067040
H187	H	0.306642	1.054402	-0.423313
H188	H	1.031442	0.371925	-0.067054
C189	C	0.817609	0.786264	-0.454832
N190	N	0.772350	0.847509	-0.510456
H191	H	0.450386	0.890151	-0.067044
H192	H	1.031384	0.890135	-0.192035
C193	C	0.948718	0.749953	-0.496050
N194	N	0.955178	0.796866	-0.494491
C195	C	0.948765	0.749951	-0.622792
N196	N	0.955237	0.796865	-0.671240
C197	C	0.948801	-0.002883	0.130020
N198	N	0.955271	-0.055712	0.181314
H199	H	0.833302	0.765142	-0.698452
C200	C	0.915976	0.512116	-0.377199
N201	N	0.909501	0.465201	-0.328755
C202	C	1.187769	0.380574	-0.077629
N203	N	1.105571	0.405577	-0.108259
H204	H	0.833290	-0.109844	0.067053
C205	C	1.047135	0.475802	-0.545160
N206	N	1.092385	0.414555	-0.489538
H207	H	0.833361	0.765138	-0.807940
H208	H	1.031571	0.496925	-0.673840
