data_functionalizedCrystal
_audit_creation_method	'MofGen! by Chris Wilmer'
_symmetry_space_group_name_H-M	'P1'
_symmetry_Int_Tables_number	1
_symmetry_cell_setting	triclinic
loop_
_symmetry_equiv_pos_as_xyz
  x,y,z
_cell_length_a	14.519709
_cell_length_b	14.519709
_cell_length_c	14.750778
_cell_angle_alpha	77.364578
_cell_angle_beta	102.684523
_cell_angle_gamma	83.680145
loop_
_atom_site_label
_atom_site_type_symbol
_atom_site_fract_x
_atom_site_fract_y
_atom_site_fract_z
O1	O	1.243840	0.100974	0.079699
O2	O	0.975371	0.115203	0.079728
O3	O	1.116722	-0.026148	0.079704
O4	O	1.102490	0.242324	0.079723
O5	O	1.076702	0.013744	-0.079939
O6	O	0.935351	0.155095	-0.079915
O7	O	1.203821	0.140866	-0.079945
Zn8	Zn	1.063232	0.154314	-0.105277
Zn9	Zn	1.115960	0.101755	0.105060
O10	O	1.062470	0.282216	-0.079920
C11	C	0.921002	0.134484	-0.000090
C12	C	0.818624	0.132494	-0.000079
C13	C	0.443717	0.125185	-0.000123
C14	C	0.548028	0.127215	-0.000110
C15	C	0.631167	0.128839	-0.000100
C16	C	0.735484	0.130869	-0.000089
C17	C	1.096048	-0.040562	-0.000118
C18	C	1.094060	-0.142943	-0.000118
C19	C	1.086747	-0.517845	-0.000092
C20	C	1.088778	-0.413535	-0.000100
C21	C	1.090403	-0.330397	-0.000106
C22	C	1.092435	-0.226081	-0.000112
C23	C	1.258190	0.121584	-0.000125
C24	C	1.360570	0.123573	-0.000129
C25	C	1.083144	0.296630	-0.000097
C26	C	1.085134	0.399009	-0.000090
N27	N	1.151946	0.065877	0.248610
N28	N	1.027253	0.190184	-0.248826
C29	C	0.926708	0.290300	0.600467
C30	C	0.951948	0.265184	0.700961
C31	C	1.077351	0.140275	0.700903
C32	C	1.052123	0.165384	0.600406
C33	C	0.976801	0.240397	0.550196
C34	C	1.102216	0.115481	0.550135
C35	C	1.076987	0.140585	0.449647
C36	C	1.001666	0.215593	0.399430
C37	C	0.951572	0.265501	0.449708
C38	C	1.177534	0.040464	0.600347
C39	C	1.227627	-0.009440	0.550076
C40	C	1.202403	0.015669	0.449586
C41	C	1.127082	0.090676	0.399369
C42	C	1.252497	-0.034240	0.399308
C43	C	1.227268	-0.009135	0.298820
C44	C	1.101853	0.115781	0.298881
H45	H	1.040524	0.176870	0.257998
C46	C	1.276111	-0.163106	0.663128
C47	C	1.310446	-0.091859	0.605295
H48	H	1.327252	-0.213974	0.697226
H49	H	1.227944	-0.186700	0.623961
H50	H	1.249865	-0.136963	0.707430
H51	H	1.336686	-0.118000	0.560989
H52	H	1.358630	-0.068263	0.644466
C53	C	0.857221	0.359457	0.295688
C54	C	0.868781	0.347964	0.394505
H55	H	0.806116	0.410368	0.261611
H56	H	0.843089	0.301970	0.279236
H57	H	0.914617	0.373843	0.279201
H58	H	0.811387	0.333571	0.410994
H59	H	0.882908	0.405464	0.410964
H60	H	0.865379	0.351390	0.559584
C61	C	0.946952	0.164568	0.255492
C62	C	0.973929	0.243191	0.288971
H63	H	0.929833	0.181606	0.187299
H64	H	0.893749	0.146021	0.278256
H65	H	0.998986	0.112759	0.278203
H66	H	0.921891	0.294998	0.266265
H67	H	1.027136	0.261751	0.266196
H68	H	1.138677	0.079196	0.741795
H69	H	0.911149	0.305827	0.741887
H70	H	1.313820	-0.095322	0.440202
C71	C	1.232275	0.091491	0.744276
C72	C	1.205283	0.012868	0.710806
H73	H	1.249414	0.074452	0.812469
H74	H	1.180251	0.143297	0.721578
H75	H	1.285478	0.110035	0.721493
H76	H	1.152076	-0.005672	0.733584
H77	H	1.257313	-0.038954	0.733515
H78	H	1.268059	-0.049773	0.257889
