data_functionalizedCrystal
_audit_creation_method	'MofGen! by Chris Wilmer'
_symmetry_space_group_name_H-M	'P1'
_symmetry_Int_Tables_number	1
_symmetry_cell_setting	triclinic
loop_
_symmetry_equiv_pos_as_xyz
  x,y,z
_cell_length_a	11.792241
_cell_length_b	23.532407
_cell_length_c	10.268362
_cell_angle_alpha	89.990068
_cell_angle_beta	89.999626
_cell_angle_gamma	83.521047
loop_
_atom_site_label
_atom_site_type_symbol
_atom_site_fract_x
_atom_site_fract_y
_atom_site_fract_z
O1	O	1.505071	0.078055	-0.108188
O2	O	1.174541	0.086099	-0.108220
O3	O	1.349773	-0.000795	-0.108179
O4	O	1.329839	0.164950	-0.108229
O5	O	1.349758	-0.000799	0.108421
O6	O	1.174526	0.086096	0.108380
O7	O	1.505056	0.078051	0.108412
Cu8	Cu	1.339790	0.082073	0.128174
Cu9	Cu	1.339808	0.082078	-0.127982
O10	O	1.329824	0.164946	0.108372
C11	C	1.132254	0.085592	0.000076
C12	C	1.006276	0.084080	0.000065
C13	C	1.349258	-0.022016	0.000124
C14	C	1.347732	-0.085242	0.000134
C15	C	0.775630	0.081299	0.000104
C16	C	0.903978	0.082844	0.000082
C17	C	1.441858	-0.483788	0.000072
C18	C	1.440440	-0.543196	0.000062
O19	O	1.527696	-0.579424	0.000022
N20	N	1.336265	-0.566440	0.000053
C21	C	1.233500	-0.530271	0.000040
O22	O	1.144761	-0.555497	0.000030
C23	C	1.234919	-0.470864	0.000041
C24	C	1.339102	-0.447624	0.000063
C25	C	1.546032	-0.460547	0.000093
C26	C	1.547449	-0.401142	0.000105
C27	C	1.444693	-0.364979	0.000097
C28	C	1.340519	-0.388219	0.000076
C29	C	1.132156	-0.434696	0.000019
C30	C	1.133584	-0.375285	0.000019
C31	C	1.237766	-0.352045	0.000041
C32	C	1.239180	-0.292651	0.000080
N33	N	1.343355	-0.269407	0.000089
C34	C	1.446112	-0.305571	0.000097
C35	C	1.230528	-0.655031	0.000036
C36	C	1.229108	-0.714438	0.000045
C37	C	1.436049	-0.727359	0.000064
C38	C	1.437468	-0.667951	0.000065
C39	C	1.334704	-0.631788	0.000046
C40	C	1.449080	-0.180817	0.000125
C41	C	1.450489	-0.121406	0.000142
C42	C	1.243549	-0.108491	0.000117
C43	C	1.242140	-0.167896	0.000106
C44	C	1.344915	-0.204058	0.000105
O45	O	1.151970	-0.256388	0.000114
O46	O	1.534837	-0.280337	0.000090
C47	C	1.547343	0.078558	0.000113
C48	C	1.673321	0.080071	0.000115
C49	C	1.330339	0.186167	0.000065
C50	C	1.331865	0.249393	0.000047
N51	N	1.339786	0.082070	0.308340
N52	N	1.339821	0.082076	-0.308148
C53	C	1.339802	0.082076	0.574010
C54	C	1.339789	0.082074	0.426172
H55	H	1.532770	-0.210254	0.000119
H56	H	1.629714	-0.489986	0.000095
O57	O	1.033786	-0.340133	-0.000227
C58	C	1.028436	-0.305361	-0.112384
H59	H	1.086735	-0.326921	-0.190785
H60	H	1.057299	-0.262075	-0.087009
C61	C	0.833243	-0.270247	-0.066977
C62	C	0.904840	-0.296729	-0.163274
H63	H	0.757004	-0.264919	-0.098366
H64	H	0.836849	-0.293671	0.008589
H65	H	0.857310	-0.234177	-0.045840
H66	H	0.880782	-0.332801	-0.184398
H67	H	0.901228	-0.273310	-0.238845
O68	O	1.143840	-0.073274	0.000049
C69	C	1.167444	-0.015858	0.000090
H70	H	1.256569	-0.013301	-0.040896
H71	H	1.162930	0.001299	0.104005
C72	C	0.969469	0.017089	-0.034531
C73	C	1.078930	0.020230	-0.084881
H74	H	0.914867	0.039351	-0.086940
H75	H	0.953564	-0.021593	-0.034554
H76	H	0.965723	0.031386	0.052064
H77	H	1.082678	0.005927	-0.171467
H78	H	1.094833	0.058911	-0.084875
H79	H	1.157306	-0.186819	0.000124
H80	H	1.144273	-0.733354	0.000049
O81	O	1.130770	-0.619846	0.000210
C82	C	1.125372	-0.585115	0.112407
H83	H	1.215416	-0.581822	0.149813
H84	H	1.073770	-0.604832	0.190955
C85	C	0.956956	-0.529033	0.032389
C86	C	1.067550	-0.524985	0.078325
H87	H	0.921284	-0.491943	0.011369
H88	H	0.960589	-0.552433	-0.043198
H89	H	0.913968	-0.545467	0.097854
H90	H	1.110540	-0.508559	0.012855
H91	H	1.063923	-0.501581	0.153901
H92	H	1.632285	-0.382226	0.000118
O93	O	1.538697	-0.645405	-0.000157
C94	C	1.601310	-0.663862	-0.112313
H95	H	1.540380	-0.676405	-0.190723
H96	H	1.664994	-0.702379	-0.086942
C97	C	1.740821	-0.599645	-0.066877
C98	C	1.665984	-0.615045	-0.163185
H99	H	1.780720	-0.569534	-0.098255
H100	H	1.698640	-0.587211	0.008688
H101	H	1.793880	-0.631747	-0.045743
H102	H	1.612919	-0.582946	-0.184306
H103	H	1.708158	-0.627473	-0.238755
O104	O	1.551796	-0.098926	0.000101
C105	C	1.642184	-0.143589	0.000133
H106	H	1.610836	-0.184037	-0.040884
H107	H	1.673841	-0.151906	0.104049
C108	C	1.779001	-0.076825	-0.034420
C109	C	1.740502	-0.126502	-0.084808
H110	H	1.839651	-0.066285	-0.086810
H111	H	1.718107	-0.046734	-0.034437
H112	H	1.805374	-0.083763	0.052176
H113	H	1.714116	-0.119562	-0.171395
H114	H	1.801395	-0.156592	-0.084808
O115	O	1.535766	-0.762576	-0.000001
C116	C	1.512162	-0.819992	0.000018
H117	H	1.423042	-0.822541	-0.040988
H118	H	1.516662	-0.837170	0.103928
C119	C	1.710142	-0.852932	-0.034570
C120	C	1.600687	-0.856063	-0.084945
H121	H	1.764750	-0.875183	-0.086974
H122	H	1.726046	-0.814250	-0.034578
H123	H	1.713876	-0.867246	0.052021
H124	H	1.596950	-0.841743	-0.171528
H125	H	1.584784	-0.894744	-0.084954
H126	H	1.047320	-0.453608	-0.000007
