data_functionalizedCrystal
_audit_creation_method	'MofGen! by Chris Wilmer'
_symmetry_space_group_name_H-M	'P1'
_symmetry_Int_Tables_number	1
_symmetry_cell_setting	triclinic
loop_
_symmetry_equiv_pos_as_xyz
  x,y,z
_cell_length_a	11.169417
_cell_length_b	8.497374
_cell_length_c	11.169416
_cell_angle_alpha	89.994900
_cell_angle_beta	90.009278
_cell_angle_gamma	89.997930
loop_
_atom_site_label
_atom_site_type_symbol
_atom_site_fract_x
_atom_site_fract_y
_atom_site_fract_z
Zn1	Zn	-1.834730	0.892007	0.478049
Zn2	Zn	-1.834688	0.628226	0.678699
Zn3	Zn	-1.634085	0.628233	0.478025
Zn4	Zn	-1.634023	0.891955	0.678685
O5	O	-1.734381	0.760105	0.578365
O6	O	-2.002674	0.857035	0.504682
O7	O	-1.808086	0.407464	0.652076
O8	O	-1.660744	0.663248	0.310079
O9	O	-2.002643	0.663235	0.652099
O10	O	-1.808157	0.857042	0.310096
O11	O	-1.660703	0.407470	0.504641
O12	O	-1.466127	0.663198	0.504627
O13	O	-1.660639	1.112725	0.652075
O14	O	-1.466082	0.856953	0.652051
O15	O	-1.808098	1.112763	0.504668
O16	O	-1.808026	0.663185	0.846647
O17	O	-1.660599	0.856946	0.846637
C18	C	-1.422557	0.760072	0.578336
C19	C	-1.289157	0.760095	0.578353
C20	C	-1.047424	0.760127	0.578384
C21	C	-1.180824	0.760105	0.578367
C22	C	-1.734373	1.171586	0.578367
C23	C	-1.734375	1.350230	0.578379
C24	C	-1.734334	0.760093	0.890190
C25	C	-1.734423	0.760141	1.023589
C26	C	-1.734462	0.760152	0.265322
C27	C	-1.734496	0.760172	0.131922
