data_functionalizedCrystal
_audit_creation_method	'MofGen! by Chris Wilmer'
_symmetry_space_group_name_H-M	'P1'
_symmetry_Int_Tables_number	1
_symmetry_cell_setting	triclinic
loop_
_symmetry_equiv_pos_as_xyz
  x,y,z
_cell_length_a	19.851628
_cell_length_b	14.560438
_cell_length_c	14.560438
_cell_angle_alpha	90.000977
_cell_angle_beta	59.995672
_cell_angle_gamma	60.005638
loop_
_atom_site_label
_atom_site_type_symbol
_atom_site_fract_x
_atom_site_fract_y
_atom_site_fract_z
Zr1	Zr	0.737344	0.884823	-0.120560
O2	O	0.877876	0.738190	-0.267220
O3	O	0.596812	0.929764	-0.075594
O4	O	0.737346	0.929778	-0.267207
O5	O	0.737340	0.738177	0.075535
O6	O	0.737348	1.080916	-0.267205
O7	O	0.737342	0.738177	-0.075606
O8	O	0.485958	1.080892	0.075556
O9	O	0.988730	0.738201	-0.267227
O10	O	0.654616	1.061735	-0.056423
O11	O	0.654613	0.948943	0.056370
O12	O	0.820074	0.948958	-0.169230
O13	O	0.820072	0.836166	-0.056437
Zr14	Zr	0.737344	1.125871	0.120496
Zr15	Zr	0.737347	1.125871	-0.120556
Zr16	Zr	0.737341	0.884823	0.120493
Zr17	Zr	0.914143	0.884840	-0.120571
Zr18	Zr	0.560545	1.125854	0.120508
O19	O	0.877876	1.080930	0.075531
O20	O	0.877880	1.080929	-0.267214
O21	O	0.877872	0.738190	0.075525
O22	O	0.596812	1.272504	0.267157
O23	O	0.596816	1.272504	-0.075589
O24	O	0.596808	0.929765	0.267151
O25	O	0.737348	1.272517	-0.075598
O26	O	0.737342	1.080916	0.267144
O27	O	0.737340	0.929778	0.267142
O28	O	0.737346	1.272517	0.075543
O29	O	0.988732	0.929802	-0.267224
O30	O	0.485956	1.080892	0.267161
O31	O	0.485958	1.272493	0.267164
O32	O	0.485960	1.272493	0.075559
O33	O	0.988728	0.738201	-0.075622
O34	O	0.988730	0.929802	-0.075619
O35	O	0.654613	1.061736	0.169167
O36	O	0.654616	1.174528	0.056374
O37	O	0.820074	1.061751	-0.056433
O38	O	0.820072	0.948959	0.056360
C39	C	0.737340	0.703833	-0.000036
C40	C	0.737339	0.601501	-0.000038
C41	C	0.516195	1.005326	-0.000017
C42	C	0.441139	1.005319	-0.000012
C43	C	0.650973	0.612291	0.058846
C44	C	0.650978	0.516136	0.058856
C45	C	0.823722	0.398405	-0.058911
C46	C	0.823716	0.494559	-0.058914
C47	C	0.551240	0.680262	0.126834
C48	C	0.551245	0.584107	0.126844
C49	C	0.259778	0.943839	0.061477
C50	C	0.270117	0.899269	-0.044587
C51	C	0.303719	1.005337	-0.000028
C52	C	0.159664	1.049873	0.106010
C53	C	0.170974	1.005354	-0.000034
C54	C	0.315092	0.960705	-0.106155
C55	C	0.204593	1.111368	0.044519
C56	C	0.214966	1.066824	-0.061609
C57	C	0.380190	1.005325	-0.000023
C58	C	0.094509	1.005365	-0.000050
C59	C	0.958493	1.005368	-0.000046
C60	C	1.033549	1.005375	-0.000051
C61	C	0.737348	1.005347	-0.301551
C62	C	0.737349	1.005347	-0.403884
C63	C	0.737348	1.306861	-0.000027
C64	C	0.737349	1.409193	-0.000025
C65	C	0.823715	0.946474	-0.510844
C66	C	0.823710	0.946477	-0.606993
C67	C	0.650966	1.064228	-0.489207
C68	C	0.650972	1.064230	-0.393061
C69	C	0.923447	0.878487	-0.578848
C70	C	0.923443	0.878490	-0.674997
C71	C	0.737340	1.005347	0.301488
C72	C	0.737339	1.005347	0.403821
C73	C	0.516199	1.306840	-0.000012
C74	C	0.441144	1.409164	-0.000006
C75	C	0.516191	1.005326	0.301502
C76	C	0.441134	1.005319	0.403840
C77	C	0.516195	1.306841	0.301507
C78	C	0.441139	1.409165	0.403847
C79	C	0.958493	0.703853	-0.301570
C80	C	1.033549	0.601529	-0.403910
C81	C	0.958489	0.703854	-0.000051
C82	C	1.033544	0.601530	-0.000057
C83	C	0.958497	1.005368	-0.301565
C84	C	1.033554	1.005375	-0.403903
C85	C	0.405897	1.398340	-0.058892
C86	C	0.335385	1.494475	-0.058908
C87	C	0.300116	1.601433	-0.000031
C88	C	0.335370	1.612255	0.058856
C89	C	0.405885	1.516121	0.058865
C90	C	0.405886	1.064192	0.510788
C91	C	0.335372	1.064182	0.606954
C92	C	0.300102	1.005303	0.596171
C93	C	0.335356	0.946423	0.489212
C94	C	0.405874	0.946428	0.393048
C95	C	0.405893	1.516104	0.393030
C96	C	0.335380	1.612258	0.489179
C97	C	0.300109	1.601469	0.596145
C98	C	0.335361	1.494519	0.606960
C99	C	0.405878	1.398368	0.510811
C100	C	1.068803	0.494590	-0.393093
C101	C	1.139338	0.398436	-0.489242
C102	C	1.174613	0.409225	-0.596208
C103	C	1.139356	0.516175	-0.607023
C104	C	1.068827	0.612326	-0.510874
C105	C	1.068798	0.612354	0.058818
C106	C	1.139329	0.516219	0.058808
C107	C	1.174601	0.409261	-0.000072
C108	C	1.139344	0.398438	-0.058954
C109	C	1.068819	0.494573	-0.058950
C110	C	1.068802	1.064265	-0.393083
C111	C	1.139317	1.064293	-0.489231
C112	C	1.174587	1.005425	-0.596198
C113	C	1.139333	0.946533	-0.607016
C114	C	1.068814	0.946512	-0.510869
H115	H	0.894043	0.485764	-0.106858
O116	O	1.177408	0.527801	-0.722397
H117	H	1.118215	0.574476	-0.732182
H118	H	0.580641	1.112169	-0.480409
H119	H	0.306633	1.485752	0.694064
O120	O	0.916884	0.283062	-0.122427
H121	H	0.902380	0.218011	-0.112541
O122	O	0.443921	1.127701	0.522432
H123	H	0.476062	1.093663	0.569102
H124	H	0.520300	0.731167	0.081970
O125	O	1.030791	0.482893	-0.122448
H126	H	0.998666	0.436201	-0.088407
O127	O	0.510247	0.572550	0.242161
H128	H	0.511951	0.495261	0.237410
O129	O	0.974149	0.759251	-0.744148
H130	H	0.998968	0.700874	-0.701745
O131	O	0.224061	1.705118	-0.000049
H132	H	0.159796	1.755892	0.087629
O133	O	0.224041	1.705180	0.699846
H134	H	0.205454	1.781350	0.674342
O135	O	0.443872	1.283025	0.522483
H136	H	0.407482	1.291689	0.613019
H137	H	1.232027	0.330991	-0.000066
H138	H	1.168073	0.311340	-0.106893
O139	O	0.974164	0.928593	-0.578856
H140	H	0.998981	0.953134	-0.655106
O141	O	1.177341	0.283091	-0.477566
H142	H	1.140942	0.291753	-0.387031
O143	O	1.250652	1.005447	-0.699895
H144	H	1.314913	0.917780	-0.750674
H145	H	0.177643	1.201011	0.082232
O146	O	0.297373	1.482780	-0.122424
H147	H	0.242423	1.567591	-0.112561
H148	H	0.306676	1.112133	0.694035
H149	H	1.232042	0.330923	-0.674489
H150	H	0.306629	0.898485	0.480448
O151	O	1.177337	1.127808	-0.477545
H152	H	1.163786	1.192905	-0.518504
O153	O	0.224026	1.005323	0.699895
H154	H	0.205436	1.056171	0.776070
O155	O	1.177336	0.527911	0.122334
H156	H	1.163809	0.486910	0.187403
O157	O	0.403028	0.910685	-0.225013
H158	H	0.464283	0.835504	-0.232048
O159	O	0.071669	1.099759	0.224798
H160	H	0.010555	1.175354	0.232003
H161	H	0.954390	0.923352	-0.725921
O162	O	0.500518	0.749416	0.246082
H163	H	0.475699	0.707009	0.304467
H164	H	0.512961	0.584098	0.089019
H165	H	0.306643	1.699354	0.106791
H166	H	0.434563	0.898490	0.305970
H167	H	1.168061	0.898604	-0.694121
O168	O	0.297354	1.727603	0.477503
H169	H	0.333717	1.718941	0.386968
H170	H	1.040096	1.112202	-0.305994
O171	O	0.305850	0.780491	-0.094503
H172	H	0.249637	0.781631	-0.094804
O173	O	1.030810	0.882975	-0.522544
H174	H	1.067197	0.842038	-0.613080
O175	O	1.030792	0.727669	-0.522546
H176	H	1.067166	0.719005	-0.613082
O177	O	0.443879	1.527811	0.122405
H178	H	0.521673	1.486846	0.062982
O179	O	1.030769	0.482941	-0.277728
H180	H	1.067152	0.392418	-0.286378
H181	H	1.040085	0.699436	0.106773
O182	O	0.285941	0.874870	0.130266
H183	H	0.313869	0.786878	0.093024
O184	O	0.189071	1.135709	-0.130595
H185	H	0.253056	1.098505	-0.218545
O186	O	0.964439	0.763187	-0.567286
H187	H	0.909762	0.765918	-0.487117
H188	H	0.580645	1.112183	-0.305972
H189	H	0.434613	1.311258	-0.106850
H190	H	0.434601	1.524909	0.305941
