data_functionalizedCrystal
_audit_creation_method	'MofGen! by Chris Wilmer'
_symmetry_space_group_name_H-M	'P1'
_symmetry_Int_Tables_number	1
_symmetry_cell_setting	triclinic
loop_
_symmetry_equiv_pos_as_xyz
  x,y,z
_cell_length_a	6.817900
_cell_length_b	11.168121
_cell_length_c	17.110486
_cell_angle_alpha	95.206488
_cell_angle_beta	99.060439
_cell_angle_gamma	108.508496
loop_
_atom_site_label
_atom_site_type_symbol
_atom_site_fract_x
_atom_site_fract_y
_atom_site_fract_z
V1	V	-4.002456	-0.174329	-0.246727
O2	O	-3.964089	0.008764	-0.242023
O3	O	-3.979476	-0.346036	-0.245046
O4	O	-3.931896	-0.171477	-0.354330
O5	O	-4.011998	-0.167003	-0.131983
V6	V	-4.485662	-0.152449	-0.233002
O7	O	-4.264411	-0.222324	-0.276834
O8	O	-4.673904	-0.104453	-0.202895
O9	O	-4.285436	0.019259	-0.234683
O10	O	-4.641426	-0.335541	-0.237705
O11	O	-4.593517	-0.159774	-0.347746
O12	O	-4.333015	-0.155300	-0.125399
C13	C	-3.831377	-0.387900	-0.241155
C14	C	-3.893727	-0.528273	-0.240498
C15	C	-4.094729	-0.596960	-0.243958
C16	C	-4.159175	-0.742042	-0.243279
C17	C	-3.770684	-0.165231	-0.380557
C18	C	-3.794445	-0.164036	-0.468523
C19	C	-3.987827	-0.169777	-0.513881
C20	C	-4.010141	-0.168653	-0.596534
C21	C	-3.839074	-0.161798	-0.633829
C22	C	-3.645674	-0.156053	-0.588464
C23	C	-3.623358	-0.157168	-0.505812
C24	C	-3.897332	-0.158109	-0.883183
C25	C	-3.919665	-0.156998	-0.965842
C26	C	-4.284131	-0.169596	-0.973907
C27	C	-4.261801	-0.170718	-0.891253
C28	C	-4.068401	-0.164966	-0.845895
C29	C	-3.861880	-0.160653	-0.718314
C30	C	-4.045594	-0.166102	-0.761410
C31	C	-4.096877	0.061117	-0.238571
C32	C	-4.013765	0.201488	-0.239233
C33	C	-4.157571	-0.161550	-0.099167
C34	C	-4.113048	-0.162739	-0.011200
H35	H	-3.769354	-0.576877	-0.237038
H36	H	-3.841567	-0.739473	-0.236268
F37	F	-4.169911	-0.177082	-0.474198
F38	F	-4.257308	-0.533441	-0.248493
H39	H	-4.167607	-0.173320	-0.633461
F40	F	-4.227647	-0.173395	-0.721717
F41	F	-4.443880	-0.178018	-0.851568
H42	H	-4.441590	-0.174277	-1.010845
H43	H	-3.780349	-0.151412	-0.996204
F44	F	-3.691514	-0.152014	-0.834923
H45	H	-4.331364	-0.801086	-0.246232
F46	F	-3.417530	-0.151048	-0.457537
H47	H	-3.506386	-0.150464	-0.618835
H48	H	-3.722602	-0.155076	-0.748689
