data_functionalizedCrystal
_audit_creation_method	'MofGen! by Chris Wilmer'
_symmetry_space_group_name_H-M	'P1'
_symmetry_Int_Tables_number	1
_symmetry_cell_setting	triclinic
loop_
_symmetry_equiv_pos_as_xyz
  x,y,z
_cell_length_a	19.805407
_cell_length_b	29.839131
_cell_length_c	19.805399
_cell_angle_alpha	90.025395
_cell_angle_beta	90.020409
_cell_angle_gamma	90.043643
loop_
_atom_site_label
_atom_site_type_symbol
_atom_site_fract_x
_atom_site_fract_y
_atom_site_fract_z
Zn1	Zn	1.034664	-0.178840	0.382745
Zn2	Zn	1.367997	0.154493	0.716078
Zn3	Zn	1.701330	0.487826	1.049412
Zn4	Zn	1.034548	-0.253968	0.269561
Zn5	Zn	1.367882	0.079365	0.602894
Zn6	Zn	1.701215	0.412699	0.936228
Zn7	Zn	0.921478	-0.178855	0.269568
Zn8	Zn	1.254812	0.154478	0.602901
Zn9	Zn	1.588145	0.487811	0.936235
Zn10	Zn	0.921412	-0.253947	0.382706
Zn11	Zn	1.254745	0.079387	0.716040
Zn12	Zn	1.588078	0.412720	1.049373
O13	O	0.978026	-0.216403	0.326145
O14	O	1.311359	0.116931	0.659478
O15	O	1.644692	0.450264	0.992812
O16	O	1.129365	-0.188809	0.367744
O17	O	1.462698	0.144524	0.701078
O18	O	1.796032	0.477858	1.034411
O19	O	1.019529	-0.244019	0.174845
O20	O	1.352862	0.089314	0.508179
O21	O	1.686196	0.422647	0.841512
O22	O	0.936569	-0.115986	0.284600
O23	O	1.269902	0.217347	0.617934
O24	O	1.603236	0.550680	0.951267
O25	O	1.129280	-0.244005	0.284589
O26	O	1.462614	0.089328	0.617922
O27	O	1.795947	0.422662	0.951255
O28	O	1.019726	-0.115975	0.367751
O29	O	1.353059	0.217358	0.701084
O30	O	1.686392	0.550691	1.034418
O31	O	0.936457	-0.188834	0.174850
O32	O	1.269790	0.144499	0.508184
O33	O	1.603124	0.477832	0.841517
O34	O	0.826753	-0.188814	0.284563
O35	O	1.160086	0.144520	0.617896
O36	O	1.493420	0.477853	0.951229
O37	O	0.936455	-0.243969	0.477428
O38	O	1.269789	0.089365	0.810761
O39	O	1.603122	0.422698	1.144095
O40	O	0.826704	-0.243983	0.367685
O41	O	1.160037	0.089350	0.701018
O42	O	1.493371	0.422684	1.034351
O43	O	1.019661	-0.188788	0.477456
O44	O	1.352994	0.144545	0.810790
O45	O	1.686328	0.477878	1.144123
O46	O	1.019464	-0.316832	0.284551
O47	O	1.352798	0.016501	0.617884
O48	O	1.686131	0.349834	0.951218
O49	O	0.936343	-0.316817	0.367678
O50	O	1.269677	0.016517	0.701011
O51	O	1.603010	0.349850	1.034345
C52	C	0.802170	-0.216398	0.326121
C53	C	1.135503	0.116935	0.659454
C54	C	1.468836	0.450269	0.992787
C55	C	0.726938	-0.216407	0.326126
C56	C	1.060271	0.116926	0.659460
C57	C	1.393604	0.450260	0.992793
C58	C	0.265194	-0.187716	0.369537
C59	C	0.598527	0.145617	0.702870
C60	C	0.931861	0.478951	1.036203
C61	C	0.335883	-0.187717	0.369532
C62	C	0.669216	0.145617	0.702865
C63	C	1.002549	0.478950	1.036199
C64	C	0.371176	-0.216409	0.326167
C65	C	0.704509	0.116924	0.659500
C66	C	1.037843	0.450257	0.992834
C67	C	0.335777	-0.245107	0.282809
C68	C	0.669110	0.088227	0.616142
C69	C	1.002444	0.421560	0.949476
C70	C	0.265090	-0.245108	0.282818
C71	C	0.598423	0.088226	0.616151
C72	C	0.931757	0.421559	0.949484
C73	C	0.620850	-0.245103	0.282773
C74	C	0.954184	0.088230	0.616106
C75	C	1.287517	0.421564	0.949440
C76	C	0.691542	-0.245099	0.282766
C77	C	1.024876	0.088235	0.616099
C78	C	1.358209	0.421568	0.949433
C79	C	0.691643	-0.187712	0.369487
C80	C	1.024976	0.145621	0.702821
C81	C	1.358310	0.478955	1.036154
C82	C	0.620956	-0.187713	0.369496
C83	C	0.954289	0.145620	0.702829
C84	C	1.287623	0.478953	1.036163
C85	C	0.585563	-0.216412	0.326141
C86	C	0.918897	0.116922	0.659474
C87	C	1.252230	0.450255	0.992807
C88	C	0.508915	-0.216411	0.326148
C89	C	0.842248	0.116922	0.659481
C90	C	1.175581	0.450256	0.992814
C91	C	0.447823	-0.216408	0.326156
C92	C	0.781156	0.116925	0.659490
C93	C	1.114490	0.450258	0.992823
C94	C	0.977902	-0.333125	0.326124
C95	C	1.311236	0.000208	0.659458
C96	C	1.644569	0.333541	0.992791
C97	C	0.977912	-0.383060	0.326138
C98	C	1.311245	-0.049726	0.659471
C99	C	1.644578	0.283607	0.992805
C100	C	0.934772	-0.739654	0.369426
C101	C	1.268106	-0.406321	0.702760
C102	C	1.601439	-0.072988	1.036093
C103	C	0.934683	-0.551981	0.369405
C104	C	1.268016	-0.218648	0.702739
C105	C	1.601350	0.114685	1.036072
O106	O	0.897857	-0.527723	0.406198
O107	O	1.231190	-0.194390	0.739531
O108	O	1.564523	0.138944	1.072865
N109	N	0.977983	-0.528505	0.326158
N110	N	1.311317	-0.195171	0.659492
N111	N	1.644650	0.138162	0.992825
C112	C	1.021312	-0.551949	0.282917
C113	C	1.354646	-0.218616	0.616250
C114	C	1.687979	0.114717	0.949583
O115	O	1.058145	-0.527675	0.246137
O116	O	1.391478	-0.194342	0.579470
O117	O	1.724812	0.138992	0.912803
C118	C	1.021405	-0.739622	0.282942
C119	C	1.354738	-0.406288	0.616275
C120	C	1.688071	-0.072955	0.949608
C121	C	0.978097	-0.763096	0.326187
C122	C	1.311430	-0.429762	0.659520
C123	C	1.644763	-0.096429	0.992853
C124	C	0.891468	-0.763128	0.412669
C125	C	1.224802	-0.429795	0.746002
C126	C	1.558135	-0.096462	1.079335
C127	C	0.891488	-0.810044	0.412671
C128	C	1.224822	-0.476710	0.746004
C129	C	1.558155	-0.143377	1.079337
C130	C	0.934813	-0.833485	0.369431
C131	C	1.268146	-0.500152	0.702764
C132	C	1.601479	-0.166819	1.036098
C133	C	0.978117	-0.810011	0.326189
C134	C	1.311450	-0.476678	0.659522
C135	C	1.644783	-0.143344	0.992856
C136	C	1.064737	-0.763065	0.239704
C137	C	1.398070	-0.429732	0.573037
C138	C	1.731403	-0.096399	0.906371
C139	C	1.064757	-0.809986	0.239715
C140	C	1.398090	-0.476653	0.573049
C141	C	1.731424	-0.143320	0.906382
C142	C	1.021449	-0.833461	0.282960
C143	C	1.354782	-0.500127	0.616294
C144	C	1.688116	-0.166794	0.949627
C145	C	1.021461	-0.880368	0.282951
C146	C	1.354795	-0.547035	0.616285
C147	C	1.688128	-0.213701	0.949618
N148	N	0.978161	-0.903844	0.326198
N149	N	1.311494	-0.570511	0.659532
N150	N	1.644827	-0.237178	0.992865
C151	C	0.934837	-0.880403	0.369438
C152	C	1.268170	-0.547070	0.702772
C153	C	1.601503	-0.213736	1.036105
C154	C	1.021260	-0.453419	0.282905
C155	C	1.354593	-0.120086	0.616239
C156	C	1.687926	0.213248	0.949572
C157	C	1.021236	-0.406501	0.282898
C158	C	1.354569	-0.073168	0.616232
C159	C	1.687903	0.260166	0.949565
C160	C	0.934607	-0.406536	0.369388
C161	C	1.267941	-0.073203	0.702721
C162	C	1.601274	0.260131	1.036055
C163	C	0.934628	-0.453455	0.369391
C164	C	1.267962	-0.120121	0.702725
C165	C	1.601295	0.213212	1.036058
C166	C	0.977959	-0.476895	0.326153
C167	C	1.311293	-0.143562	0.659486
C168	C	1.644626	0.189771	0.992819
C169	C	0.934882	-0.978929	0.369439
C170	C	1.268215	-0.645596	0.702773
C171	C	1.601548	-0.312262	1.036106
C172	C	0.934904	-1.025848	0.369436
C173	C	1.268237	-0.692515	0.702769
C174	C	1.601571	-0.359182	1.036102
C175	C	1.021535	-1.025809	0.282949
C176	C	1.354868	-0.692476	0.616282
C177	C	1.688201	-0.359143	0.949615
C178	C	1.021511	-0.978894	0.282949
C179	C	1.354844	-0.645561	0.616283
C180	C	1.688177	-0.312227	0.949616
C181	C	0.978182	-0.955455	0.326200
C182	C	1.311515	-0.622121	0.659534
C183	C	1.644848	-0.288788	0.992867
O184	O	1.058273	-0.904655	0.246183
O185	O	1.391607	-0.571322	0.579517
O186	O	1.724940	-0.237988	0.912850
O187	O	0.898020	-0.904686	0.406223
O188	O	1.231353	-0.571352	0.739557
O189	O	1.564687	-0.238019	1.072890
C190	C	0.934752	-0.692739	0.369424
C191	C	1.268085	-0.359406	0.702758
C192	C	1.601419	-0.026072	1.036091
C193	C	0.978056	-0.669265	0.326182
C194	C	1.311390	-0.335931	0.659516
C195	C	1.644723	-0.002598	0.992849
C196	C	1.021380	-0.692706	0.282942
C197	C	1.354714	-0.359373	0.616276
C198	C	1.688047	-0.026039	0.949609
C199	C	0.978032	-0.622347	0.326175
C200	C	1.311366	-0.289014	0.659508
C201	C	1.644699	0.044320	0.992842
C202	C	0.934708	-0.598906	0.369415
C203	C	1.268041	-0.265572	0.702748
C204	C	1.601375	0.067761	1.036081
C205	C	0.891408	-0.622382	0.412662
C206	C	1.224741	-0.289049	0.745995
C207	C	1.558074	0.044285	1.079328
C208	C	0.891428	-0.669297	0.412664
C209	C	1.224761	-0.335964	0.745997
C210	C	1.558095	-0.002631	1.079331
C211	C	1.064681	-0.669230	0.239695
C212	C	1.398014	-0.335896	0.573029
C213	C	1.731348	-0.002563	0.906362
C214	C	1.064657	-0.622314	0.239696
C215	C	1.397990	-0.288981	0.573029
C216	C	1.731323	0.044352	0.906363
C217	C	1.021332	-0.598873	0.282936
C218	C	1.354666	-0.265540	0.616269
C219	C	1.687999	0.067794	0.949603
C220	C	1.154568	-0.216408	0.326170
C221	C	1.487902	0.116926	0.659503
C222	C	1.821235	0.450259	0.992837
C223	C	1.229800	-0.216410	0.326181
C224	C	1.563134	0.116924	0.659514
C225	C	1.896467	0.450257	0.992847
C226	C	0.978168	-0.099224	0.326181
C227	C	1.311501	0.234109	0.659514
C228	C	1.644834	0.567442	0.992847
C229	C	0.978228	-0.049290	0.326196
C230	C	1.311561	0.284043	0.659529
C231	C	1.644895	0.617377	0.992863
C232	C	0.978064	-0.216374	0.502688
C233	C	1.311397	0.116959	0.836021
C234	C	1.644730	0.450292	1.169355
C235	C	0.978080	-0.216362	0.577920
C236	C	1.311413	0.116971	0.911253
C237	C	1.644746	0.450304	1.244587
C238	C	0.978027	-0.216398	0.150289
C239	C	1.311360	0.116935	0.483622
C240	C	1.644693	0.450268	0.816956
C241	C	0.978142	-0.216284	0.075057
C242	C	1.311475	0.117049	0.408391
C243	C	1.644808	0.450383	0.741724
C244	C	1.021406	-0.187629	0.613280
C245	C	1.354739	0.145705	0.946613
C246	C	1.688073	0.479038	1.279947
C247	C	1.021413	-0.187616	0.683968
C248	C	1.354746	0.145718	1.017302
C249	C	1.688080	0.479051	1.350635
C250	C	0.978097	-0.216339	0.719296
C251	C	1.311430	0.116994	1.052629
C252	C	1.644763	0.450328	1.385962
C253	C	0.934766	-0.245074	0.683930
C254	C	1.268099	0.088259	1.017264
C255	C	1.601432	0.421593	1.350597
C256	C	0.934756	-0.245084	0.613243
C257	C	1.268089	0.088249	0.946577
C258	C	1.601422	0.421582	1.279910
C259	C	0.934804	-0.245032	0.969004
C260	C	1.268137	0.088301	1.302337
C261	C	1.601470	0.421635	1.635671
C262	C	0.934818	-0.245020	1.039696
C263	C	1.268152	0.088313	1.373029
C264	C	1.601485	0.421646	1.706363
C265	C	1.021461	-0.187563	1.039729
C266	C	1.354794	0.145770	1.373062
C267	C	1.688128	0.479103	1.706396
C268	C	1.021451	-0.187574	0.969042
C269	C	1.354784	0.145760	1.302375
C270	C	1.688118	0.479093	1.635709
C271	C	0.978118	-0.216307	0.933683
C272	C	1.311451	0.117027	1.267016
C273	C	1.644785	0.450360	1.600350
C274	C	0.978110	-0.216320	0.857035
C275	C	1.311443	0.117013	1.190368
C276	C	1.644777	0.450347	1.523701
C277	C	0.978107	-0.216328	0.795943
C278	C	1.311441	0.117005	1.129276
C279	C	1.644774	0.450338	1.462609
H280	H	0.720468	-0.164346	0.404791
H281	H	1.053802	0.168988	0.738124
H282	H	1.387135	0.502321	1.071458
H283	H	0.856189	-0.744047	0.447883
H284	H	1.189522	-0.410713	0.781216
H285	H	1.522855	-0.077380	1.114549
O286	O	0.844674	-0.597091	0.459292
O287	O	1.178007	-0.263758	0.792626
O288	O	1.511340	0.069575	1.125959
H289	H	0.814556	-0.621293	0.489363
H290	H	1.147889	-0.287960	0.822696
H291	H	1.481223	0.045374	1.156030
O292	O	0.226913	-0.276056	0.236053
O293	O	0.560246	0.057278	0.569386
O294	O	0.893579	0.390611	0.902720
H295	H	0.194709	-0.255919	0.201678
H296	H	0.528042	0.077415	0.535012
H297	H	0.861376	0.410748	0.868345
O298	O	1.068260	-1.051100	0.236314
O299	O	1.401593	-0.717767	0.569648
O300	O	1.734927	-0.384433	0.902981
H301	H	1.098369	-1.026898	0.206237
H302	H	1.431703	-0.693564	0.539570
H303	H	1.765036	-0.360231	0.872903
O304	O	0.374051	-0.156763	0.416294
O305	O	0.707384	0.176570	0.749627
O306	O	1.040717	0.509903	1.082961
H307	H	0.406243	-0.176897	0.450684
H308	H	0.739577	0.156437	0.784017
H309	H	1.072910	0.489770	1.117350
O310	O	0.888015	-0.276071	0.575105
O311	O	1.221348	0.057263	0.908438
O312	O	1.554681	0.390596	1.241772
H313	H	0.899575	-0.311331	0.588654
H314	H	1.232909	0.022003	0.921987
H315	H	1.566242	0.355336	1.255321
H316	H	1.099922	-0.603205	0.204475
H317	H	1.433255	-0.269872	0.537808
H318	H	1.766588	0.063462	0.871141
O319	O	0.888034	-0.275998	0.930870
O320	O	1.221367	0.057335	1.264203
O321	O	1.554701	0.390668	1.597537
H322	H	0.857908	-0.295963	0.967313
H323	H	1.191242	0.037371	1.300646
H324	H	1.524575	0.370704	1.633980
H325	H	0.364518	-0.268470	0.247503
H326	H	0.697852	0.064863	0.580836
H327	H	1.031185	0.398196	0.914170
O328	O	0.888195	-1.051168	0.416083
O329	O	1.221528	-0.717835	0.749416
O330	O	1.554861	-0.384501	1.082750
H331	H	0.858072	-1.026982	0.446154
H332	H	1.191405	-0.693649	0.779487
H333	H	1.524739	-0.360316	1.112821
H334	H	0.899494	-0.268459	0.712699
H335	H	1.232828	0.064874	1.046033
H336	H	1.566161	0.398207	1.379366
O337	O	0.888140	-0.953651	0.416076
O338	O	1.221473	-0.620318	0.749410
O339	O	1.554807	-0.286984	1.082743
H340	H	0.858028	-0.977862	0.446135
H341	H	1.191362	-0.644529	0.779468
H342	H	1.524695	-0.311196	1.112801
H343	H	0.592042	-0.268470	0.247469
H344	H	0.925375	0.064863	0.580802
H345	H	1.258709	0.398197	0.914135
O346	O	1.067999	-0.478699	0.236267
O347	O	1.401333	-0.145366	0.569601
O348	O	1.734666	0.187968	0.902934
H349	H	1.037742	-0.500113	0.201806
H350	H	1.371075	-0.166779	0.535139
H351	H	1.704409	0.166554	0.868472
H352	H	1.056743	-0.164166	1.068527
H353	H	1.390076	0.169168	1.401860
H354	H	1.723409	0.502501	1.735193
O355	O	0.582888	-0.156767	0.416268
O356	O	0.916221	0.176567	0.749601
O357	O	1.249554	0.509900	1.082934
H358	H	0.619376	-0.136816	0.446420
H359	H	0.952709	0.196517	0.779754
H360	H	1.286042	0.529850	1.113087
H361	H	1.056695	-0.164219	0.712756
H362	H	1.390028	0.169115	1.046089
H363	H	1.723362	0.502448	1.379422
H364	H	0.856163	-0.688406	0.447880
H365	H	1.189496	-0.355073	0.781213
H366	H	1.522829	-0.021739	1.114546
O367	O	1.111409	-0.694512	0.193056
O368	O	1.444742	-0.361179	0.526389
O369	O	1.778076	-0.027846	0.859723
H370	H	1.099822	-0.685533	0.139924
H371	H	1.433155	-0.352199	0.473257
H372	H	1.766489	-0.018866	0.806590
H373	H	1.056494	-0.387392	0.247677
H374	H	1.389827	-0.054058	0.581010
H375	H	1.723161	0.279275	0.914343
O376	O	0.844785	-0.835360	0.459320
O377	O	1.178118	-0.502027	0.792654
O378	O	1.511451	-0.168694	1.125987
H379	H	0.814664	-0.811171	0.489388
H380	H	1.147998	-0.477838	0.822722
H381	H	1.481331	-0.144505	1.156055
O382	O	0.887924	-0.478773	0.416039
O383	O	1.221257	-0.145440	0.749372
O384	O	1.554591	0.187894	1.082705
H385	H	0.857799	-0.454586	0.446105
H386	H	1.191133	-0.121252	0.779438
H387	H	1.524466	0.212081	1.112772
O388	O	1.068171	-0.156594	0.930937
O389	O	1.401504	0.176739	1.264270
O390	O	1.734838	0.510072	1.597604
H391	H	1.098297	-0.136609	0.967402
H392	H	1.431630	0.196725	1.300735
H393	H	1.764963	0.530058	1.634068
H394	H	0.720276	-0.268466	0.247452
H395	H	1.053610	0.064867	0.580785
H396	H	1.386943	0.398201	0.914119
O397	O	1.068233	-0.953579	0.236312
O398	O	1.401567	-0.620246	0.569645
O399	O	1.734900	-0.286913	0.902979
H400	H	1.102639	-0.932177	0.266653
H401	H	1.435972	-0.598843	0.599986
H402	H	1.769305	-0.265510	0.933319
O403	O	0.887875	-0.381253	0.416030
O404	O	1.221209	-0.047919	0.749363
O405	O	1.554542	0.285414	1.082697
H406	H	0.918142	-0.359846	0.450493
H407	H	1.251476	-0.026513	0.783827
H408	H	1.584809	0.306821	1.117160
H409	H	1.056681	-0.164240	0.584522
H410	H	1.390015	0.169093	0.917855
H411	H	1.723348	0.502427	1.251188
O412	O	1.111456	-0.737753	0.193068
O413	O	1.444789	-0.404420	0.526402
O414	O	1.778122	-0.071087	0.859735
H415	H	1.141589	-0.761943	0.163015
H416	H	1.474922	-0.428610	0.496349
H417	H	1.808255	-0.095277	0.829682
H418	H	0.899542	-0.268411	1.068457
H419	H	1.232875	0.064922	1.401791
H420	H	1.566209	0.398255	1.735124
H421	H	1.100046	-0.829069	0.204506
H422	H	1.433379	-0.495736	0.537840
H423	H	1.766712	-0.162403	0.871173
H424	H	0.236463	-0.164348	0.404845
H425	H	0.569797	0.168985	0.738179
H426	H	0.903130	0.502319	1.071512
