data_functionalizedCrystal
_audit_creation_method	'MofGen! by Chris Wilmer'
_symmetry_space_group_name_H-M	'P1'
_symmetry_Int_Tables_number	1
_symmetry_cell_setting	triclinic
loop_
_symmetry_equiv_pos_as_xyz
  x,y,z
_cell_length_a	19.805407
_cell_length_b	18.050590
_cell_length_c	19.805399
_cell_angle_alpha	89.972574
_cell_angle_beta	89.979591
_cell_angle_gamma	90.020493
loop_
_atom_site_label
_atom_site_type_symbol
_atom_site_fract_x
_atom_site_fract_y
_atom_site_fract_z
Zn1	Zn	1.034773	-0.295638	-0.382736
Zn2	Zn	1.368106	0.037695	-0.049402
Zn3	Zn	1.701439	0.371028	0.283931
Zn4	Zn	1.034703	-0.419830	-0.269548
Zn5	Zn	1.368036	-0.086497	0.063786
Zn6	Zn	1.701370	0.246836	0.397119
Zn7	Zn	0.921587	-0.295663	-0.269558
Zn8	Zn	1.254921	0.037670	0.063775
Zn9	Zn	1.588254	0.371004	0.397108
Zn10	Zn	0.921566	-0.419795	-0.382693
Zn11	Zn	1.254900	-0.086462	-0.049359
Zn12	Zn	1.588233	0.246872	0.283974
O13	O	0.978157	-0.357732	-0.326134
O14	O	1.311491	-0.024398	0.007200
O15	O	1.644824	0.308935	0.340533
O16	O	1.129480	-0.312117	-0.367734
O17	O	1.462813	0.021216	-0.034401
O18	O	1.796147	0.354550	0.298932
O19	O	1.019678	-0.403384	-0.174832
O20	O	1.353011	-0.070051	0.158501
O21	O	1.686344	0.263282	0.491834
O22	O	0.936639	-0.191735	-0.284594
O23	O	1.269973	0.141598	0.048739
O24	O	1.603306	0.474932	0.382073
O25	O	1.129429	-0.403360	-0.284576
O26	O	1.462762	-0.070027	0.048758
O27	O	1.796095	0.263306	0.382091
O28	O	1.019796	-0.191717	-0.367745
O29	O	1.353130	0.141616	-0.034411
O30	O	1.686463	0.474950	0.298922
O31	O	0.936572	-0.312159	-0.174840
O32	O	1.269905	0.021174	0.158493
O33	O	1.603239	0.354508	0.491826
O34	O	0.826868	-0.312125	-0.284553
O35	O	1.160201	0.021208	0.048781
O36	O	1.493535	0.354542	0.382114
O37	O	0.936604	-0.403300	-0.477415
O38	O	1.269937	-0.069967	-0.144082
O39	O	1.603270	0.263366	0.189252
O40	O	0.826853	-0.403324	-0.367672
O41	O	1.160186	-0.069991	-0.034338
O42	O	1.493519	0.263342	0.298995
O43	O	1.019776	-0.312083	-0.477446
O44	O	1.353109	0.021251	-0.144113
O45	O	1.686443	0.354584	0.189220
O46	O	1.019657	-0.523750	-0.284534
O47	O	1.352991	-0.190417	0.048799
O48	O	1.686324	0.142916	0.382133
O49	O	0.936536	-0.523724	-0.367661
O50	O	1.269870	-0.190391	-0.034328
O51	O	1.603203	0.142942	0.299005
C52	C	0.802301	-0.357724	-0.326109
C53	C	1.135635	-0.024391	0.007224
C54	C	1.468968	0.308943	0.340558
C55	C	0.727069	-0.357739	-0.326115
C56	C	1.060403	-0.024405	0.007219
C57	C	1.393736	0.308928	0.340552
C58	C	0.978105	-0.550684	-0.326107
C59	C	1.311439	-0.217350	0.007227
C60	C	1.644772	0.115983	0.340560
C61	C	0.978145	-0.633230	-0.326118
C62	C	1.311478	-0.299896	0.007216
C63	C	1.644812	0.033437	0.340549
C64	C	0.265308	-0.310310	-0.369527
C65	C	0.598642	0.023023	-0.036193
C66	C	0.931975	0.356357	0.297140
C67	C	0.335997	-0.310311	-0.369522
C68	C	0.669330	0.023022	-0.036189
C69	C	1.002664	0.356355	0.297145
C70	C	0.371308	-0.357743	-0.326155
C71	C	0.704641	-0.024410	0.007178
C72	C	1.037974	0.308924	0.340511
C73	C	0.335926	-0.405181	-0.282796
C74	C	0.669260	-0.071848	0.050538
C75	C	1.002593	0.261485	0.383871
C76	C	0.265239	-0.405183	-0.282805
C77	C	0.598572	-0.071850	0.050529
C78	C	0.931906	0.261483	0.383862
C79	C	0.621000	-0.405176	-0.282760
C80	C	0.954333	-0.071842	0.050573
C81	C	1.287666	0.261491	0.383907
C82	C	0.691692	-0.405169	-0.282753
C83	C	1.025025	-0.071835	0.050580
C84	C	1.358358	0.261498	0.383914
C85	C	0.691757	-0.310304	-0.369477
C86	C	1.025091	0.023030	-0.036144
C87	C	1.358424	0.356363	0.297189
C88	C	0.621070	-0.310306	-0.369486
C89	C	0.954403	0.023028	-0.036153
C90	C	1.287737	0.356361	0.297181
C91	C	0.585695	-0.357747	-0.326129
C92	C	0.919028	-0.024413	0.007204
C93	C	1.252362	0.308920	0.340537
C94	C	0.509047	-0.357746	-0.326136
C95	C	0.842380	-0.024412	0.007197
C96	C	1.175713	0.308921	0.340531
C97	C	0.447955	-0.357741	-0.326145
C98	C	0.781288	-0.024407	0.007189
C99	C	1.114621	0.308926	0.340522
C100	C	1.023440	-0.832667	-0.280976
C101	C	1.356774	-0.499334	0.052357
C102	C	1.690107	-0.166001	0.385691
C103	C	1.039973	-0.882000	-0.342751
C104	C	1.373306	-0.548667	-0.009418
C105	C	1.706640	-0.215334	0.323915
C106	C	0.978183	-0.784360	-0.326145
C107	C	1.311517	-0.451027	0.007189
C108	C	1.644850	-0.117693	0.340522
C109	C	0.961720	-0.882108	-0.264397
C110	C	1.295053	-0.548775	0.068936
C111	C	1.628386	-0.215442	0.402269
C112	C	0.978222	-0.930345	-0.326165
C113	C	1.311555	-0.597012	0.007168
C114	C	1.644888	-0.263678	0.340501
C115	C	0.994748	-0.832606	-0.387952
C116	C	1.328081	-0.499272	-0.054619
C117	C	1.661414	-0.165939	0.278714
C118	C	0.916466	-0.832709	-0.309557
C119	C	1.249799	-0.499376	0.023777
C120	C	1.583132	-0.166043	0.357110
C121	C	0.932975	-0.882020	-0.371374
C122	C	1.266308	-0.548687	-0.038041
C123	C	1.599642	-0.215354	0.295292
C124	C	0.978163	-0.700262	-0.326132
C125	C	1.311496	-0.366928	0.007201
C126	C	1.644830	-0.033595	0.340535
C127	C	0.978242	-1.014441	-0.326185
C128	C	1.311575	-0.681108	0.007148
C129	C	1.644909	-0.347775	0.340482
C130	C	1.154700	-0.357740	-0.326158
C131	C	1.488033	-0.024407	0.007175
C132	C	1.821367	0.308927	0.340508
C133	C	1.229932	-0.357743	-0.326169
C134	C	1.563265	-0.024410	0.007164
C135	C	1.896599	0.308923	0.340498
C136	C	0.978195	-0.357685	-0.502676
C137	C	1.311529	-0.024352	-0.169343
C138	C	1.644862	0.308982	0.163990
C139	C	0.978211	-0.357665	-0.577908
C140	C	1.311545	-0.024332	-0.244575
C141	C	1.644878	0.309002	0.088758
C142	C	0.978228	-0.164026	-0.326175
C143	C	1.311561	0.169307	0.007158
C144	C	1.644895	0.502641	0.340491
C145	C	0.978258	-0.081480	-0.326193
C146	C	1.311591	0.251853	0.007140
C147	C	1.644925	0.585186	0.340473
C148	C	1.021520	-0.310166	-0.613270
C149	C	1.354854	0.023168	-0.279937
C150	C	1.688187	0.356501	0.053397
C151	C	1.021527	-0.310144	-0.683958
C152	C	1.354860	0.023189	-0.350625
C153	C	1.688194	0.356523	-0.017292
C154	C	0.978228	-0.357626	-0.719284
C155	C	1.311562	-0.024293	-0.385951
C156	C	1.644895	0.309041	-0.052617
C157	C	0.934915	-0.405128	-0.683917
C158	C	1.268248	-0.071794	-0.350584
C159	C	1.601581	0.261539	-0.017251
C160	C	0.934905	-0.405145	-0.613230
C161	C	1.268238	-0.071811	-0.279897
C162	C	1.601572	0.261522	0.053436
C163	C	0.934953	-0.405058	-0.968991
C164	C	1.268286	-0.071725	-0.635658
C165	C	1.601620	0.261608	-0.302324
C166	C	0.934968	-0.405039	-1.039683
C167	C	1.268301	-0.071706	-0.706350
C168	C	1.601634	0.261628	-0.373016
C169	C	1.021575	-0.310058	-1.039719
C170	C	1.354909	0.023276	-0.706386
C171	C	1.688242	0.356609	-0.373052
C172	C	1.021565	-0.310075	-0.969032
C173	C	1.354899	0.023259	-0.635699
C174	C	1.688232	0.356592	-0.302365
C175	C	0.978250	-0.357573	-0.933672
C176	C	1.311583	-0.024240	-0.600338
C177	C	1.644916	0.309094	-0.267005
C178	C	0.978242	-0.357595	-0.857023
C179	C	1.311575	-0.024262	-0.523690
C180	C	1.644908	0.309072	-0.190356
C181	C	0.978239	-0.357609	-0.795931
C182	C	1.311572	-0.024275	-0.462598
C183	C	1.644906	0.309058	-0.129265
C184	C	0.978158	-0.357725	-0.150278
C185	C	1.311492	-0.024391	0.183056
C186	C	1.644825	0.308942	0.516389
C187	C	0.978273	-0.357535	-0.075046
C188	C	1.311607	-0.024202	0.258287
C189	C	1.644940	0.309131	0.591621
H190	H	0.236563	-0.271681	-0.404837
H191	H	0.569897	0.061652	-0.071503
H192	H	0.903230	0.394986	0.261830
C193	C	1.075161	-0.803381	-0.229431
C194	C	1.408494	-0.470048	0.103903
C195	C	1.741828	-0.136715	0.437236
N196	N	1.114119	-0.781319	-0.190611
N197	N	1.447452	-0.447986	0.142722
N198	N	1.780785	-0.114653	0.476055
C199	C	1.110505	-0.911259	-0.361722
C200	C	1.443838	-0.577925	-0.028388
C201	C	1.777171	-0.244592	0.304945
N202	N	1.163630	-0.933295	-0.376005
N203	N	1.496963	-0.599961	-0.042671
N204	N	1.830297	-0.266628	0.290662
H205	H	0.720440	-0.443796	-0.247438
H206	H	1.053773	-0.110463	0.085896
H207	H	1.387106	0.222870	0.419229
C208	C	0.374908	-0.258125	-0.417213
C209	C	0.708241	0.075209	-0.083880
C210	C	1.041574	0.408542	0.249453
N211	N	0.404215	-0.218814	-0.453135
N212	N	0.737548	0.114520	-0.119802
N213	N	1.070882	0.447853	0.213532
H214	H	0.592206	-0.443803	-0.247454
H215	H	0.925539	-0.110470	0.085879
H216	H	1.258872	0.222864	0.419212
H217	H	0.720568	-0.271677	-0.404782
H218	H	1.053902	0.061656	-0.071449
H219	H	1.387235	0.394990	0.261884
C220	C	0.887329	-0.457270	-1.078540
C221	C	1.220662	-0.123937	-0.745206
C222	C	1.553995	0.209396	-0.411873
N223	N	0.851448	-0.496609	-1.107807
N224	N	1.184781	-0.163275	-0.774473
N225	N	1.518115	0.170058	-0.441140
H226	H	0.592324	-0.271679	-0.404797
H227	H	0.925657	0.061654	-0.071464
H228	H	1.258990	0.394987	0.261870
C229	C	0.374771	-0.457354	-0.235089
C230	C	0.708104	-0.124020	0.098244
C231	C	1.041437	0.209313	0.431577
N232	N	0.404028	-0.496648	-0.199153
N233	N	0.737361	-0.163314	0.134181
N234	N	1.070694	0.170019	0.467514
C235	C	0.226325	-0.457362	-0.235106
C236	C	0.559659	-0.124028	0.098227
C237	C	0.892992	0.209305	0.431561
N238	N	0.197016	-0.496665	-0.199179
N239	N	0.530350	-0.163332	0.134154
N240	N	0.863683	0.170001	0.467488
H241	H	1.008637	-0.810954	-0.440225
H242	H	1.341970	-0.477621	-0.106891
H243	H	1.675303	-0.144287	0.226442
C244	C	0.887302	-0.457306	-0.930104
C245	C	1.220636	-0.123972	-0.596770
C246	C	1.553969	0.209361	-0.263437
N247	N	0.851408	-0.496660	-0.900811
N248	N	1.184741	-0.163326	-0.567478
N249	N	1.518075	0.170007	-0.234145
C250	C	1.069216	-0.257799	-1.078622
C251	C	1.402549	0.075535	-0.745289
C252	C	1.735882	0.408868	-0.411955
N253	N	1.105097	-0.218438	-1.107922
N254	N	1.438430	0.114895	-0.774589
N255	N	1.771764	0.448229	-0.441256
H256	H	0.894719	-0.903554	-0.409625
H257	H	1.228053	-0.570220	-0.076291
H258	H	1.561386	-0.236887	0.257042
H259	H	0.864271	-0.811040	-0.295495
H260	H	1.197604	-0.477707	0.037839
H261	H	1.530938	-0.144373	0.371172
H262	H	0.899632	-0.443816	-0.584440
H263	H	1.232965	-0.110483	-0.251106
H264	H	1.566298	0.222851	0.082227
H265	H	0.947779	-0.903852	-0.212170
H266	H	1.281112	-0.570519	0.121164
H267	H	1.614445	-0.237185	0.454497
C268	C	1.069153	-0.257930	-0.574418
C269	C	1.402486	0.075403	-0.241085
C270	C	1.735819	0.408737	0.092248
N271	N	1.105028	-0.218582	-0.545157
N272	N	1.438362	0.114752	-0.211824
N273	N	1.771695	0.448085	0.121509
H274	H	1.056795	-0.271467	-0.712747
H275	H	1.390128	0.061866	-0.379413
H276	H	1.723462	0.395200	-0.046080
C277	C	0.887279	-0.457351	-0.722778
C278	C	1.220612	-0.124018	-0.389445
C279	C	1.553946	0.209315	-0.056111
N280	N	0.851398	-0.496687	-0.752047
N281	N	1.184731	-0.163354	-0.418714
N282	N	1.518065	0.169980	-0.085381
C283	C	1.069195	-0.257838	-0.930178
C284	C	1.402528	0.075495	-0.596844
C285	C	1.735861	0.408829	-0.263511
N286	N	1.105067	-0.218489	-0.900914
N287	N	1.438400	0.114845	-0.567580
N288	N	1.771734	0.448178	-0.234247
