data_functionalizedCrystal
_audit_creation_method	'MofGen! by Chris Wilmer'
_symmetry_space_group_name_H-M	'P1'
_symmetry_Int_Tables_number	1
_symmetry_cell_setting	triclinic
loop_
_symmetry_equiv_pos_as_xyz
  x,y,z
_cell_length_a	14.853567
_cell_length_b	10.654550
_cell_length_c	9.130313
_cell_angle_alpha	90.000110
_cell_angle_beta	89.997266
_cell_angle_gamma	84.059917
loop_
_atom_site_label
_atom_site_type_symbol
_atom_site_fract_x
_atom_site_fract_y
_atom_site_fract_z
O1	O	-1.197237	-0.163955	-0.121694
O2	O	-0.934882	-0.183487	-0.121719
O3	O	-1.072092	0.009081	-0.121701
O4	O	-1.060028	-0.356523	-0.121713
O5	O	-1.072090	0.009076	0.121898
O6	O	-0.934881	-0.183492	0.121880
O7	O	-1.197236	-0.163961	0.121904
Cu8	Cu	-1.066058	-0.173727	0.144135
Cu9	Cu	-1.066060	-0.173721	-0.143949
O10	O	-1.060026	-0.356528	0.121886
C11	C	-0.901288	-0.182605	0.000077
C12	C	-0.801190	-0.179953	0.000068
C13	C	-1.071205	0.055867	0.000097
C14	C	-1.068555	0.195283	0.000091
C15	C	-1.230830	-0.164843	0.000105
C16	C	-1.330928	-0.167495	0.000105
C17	C	-0.387984	-0.054353	0.000105
C18	C	-0.367928	-0.283127	0.000096
C19	C	-0.461975	-0.285621	0.000091
C20	C	-0.519031	-0.172479	0.000091
C21	C	-0.482040	-0.056843	0.000095
C22	C	-0.498973	-0.401255	0.000071
C23	C	-0.593025	-0.403753	0.000065
C24	C	-0.650083	-0.290609	0.000075
C25	C	-0.613087	-0.174969	0.000082
C26	C	-0.670143	-0.061826	0.000082
C27	C	-0.633149	0.053816	0.000098
C28	C	-0.539098	0.056301	0.000106
C29	C	-0.744134	-0.293095	0.000068
C30	C	-0.764199	-0.064317	0.000072
C31	C	-1.060913	-0.403314	0.000085
C32	C	-1.063563	-0.542730	0.000081
N33	N	-1.066063	-0.173730	0.346757
C34	C	-1.149342	0.275608	0.000103
C35	C	-1.146846	0.406603	0.000093
C36	C	-0.982770	0.376935	0.000065
C37	C	-0.985267	0.245942	0.000065
C38	C	-1.244070	0.292737	0.000126
C39	C	-1.241574	0.423732	0.000116
N40	N	-1.066062	-0.173707	-0.346572
C41	C	-1.126835	-0.088490	0.423417
C42	C	-1.126833	-0.088475	0.576754
C43	C	-1.005283	-0.258951	0.576757
C44	C	-1.005282	-0.258959	0.423423
C45	C	-1.197014	0.009929	0.423417
C46	C	-1.197011	0.009945	0.576754
H47	H	-0.810649	0.027819	0.000078
H48	H	-1.262469	-0.019979	0.375863
C49	C	-1.284821	0.245021	0.142223
N50	N	-1.315513	0.209080	0.249253
H51	H	-1.181621	0.106302	0.381798
H52	H	-0.679616	0.145936	0.000088
H53	H	-1.175108	0.100940	0.624301
C54	C	-0.498396	0.183496	0.000113
N55	N	-0.467736	0.279298	0.000112
H56	H	-1.281122	0.263766	-0.101809
H57	H	-1.266291	-0.010854	0.618376
C58	C	-0.784824	-0.420293	0.000047
N59	N	-0.815471	-0.516106	0.000036
H60	H	-0.357859	0.039800	0.000124
H61	H	-0.321468	-0.375243	0.000083
C62	C	-1.289783	0.480650	0.137845
N63	N	-1.326090	0.523520	0.241582
H64	H	-0.955789	-0.328358	0.361008
H65	H	-0.452512	-0.493369	0.000056
H66	H	-0.623138	-0.497916	0.000051
C67	C	-0.938426	-0.352697	0.661104
N68	N	-0.888068	-0.423307	0.724633
H69	H	-0.914959	0.418198	0.000042
H70	H	-0.919482	0.180545	0.000034
C71	C	-1.280268	0.485808	-0.141957
N72	N	-1.309416	0.532567	-0.248960
