data_functionalizedCrystal
_audit_creation_method	'MofGen! by Chris Wilmer'
_symmetry_space_group_name_H-M	'P1'
_symmetry_Int_Tables_number	1
_symmetry_cell_setting	triclinic
loop_
_symmetry_equiv_pos_as_xyz
  x,y,z
_cell_length_a	19.805407
_cell_length_b	12.759400
_cell_length_c	19.805399
_cell_angle_alpha	90.023237
_cell_angle_beta	90.019573
_cell_angle_gamma	90.014685
loop_
_atom_site_label
_atom_site_type_symbol
_atom_site_fract_x
_atom_site_fract_y
_atom_site_fract_z
Zn1	Zn	1.034791	-0.418291	0.382740
Zn2	Zn	1.034729	-0.593984	0.269560
Zn3	Zn	0.921605	-0.418320	0.269565
Zn4	Zn	0.921592	-0.593928	0.382707
O5	O	0.978179	-0.506131	0.326143
O6	O	1.129499	-0.441608	0.367739
O7	O	1.019702	-0.570717	0.174844
O8	O	0.936651	-0.271295	0.284593
O9	O	1.129454	-0.570689	0.284586
O10	O	1.019808	-0.271273	0.367743
O11	O	0.936591	-0.441657	0.174848
O12	O	0.826887	-0.441603	0.284561
O13	O	0.936629	-0.570594	0.477428
O14	O	0.826877	-0.570622	0.367687
O15	O	1.019795	-0.441554	0.477452
O16	O	1.019689	-0.740998	0.284554
O17	O	0.936568	-0.740957	0.367682
C18	C	0.802323	-0.506110	0.326121
C19	C	0.727091	-0.506127	0.326128
C20	C	0.691760	-0.573408	0.369341
C21	C	0.621071	-0.573410	0.369351
C22	C	0.585716	-0.506135	0.326143
C23	C	0.621052	-0.438847	0.282928
C24	C	0.691739	-0.438840	0.282922
C25	C	0.335979	-0.438870	0.282950
C26	C	0.265287	-0.438884	0.282958
C27	C	0.265311	-0.573440	0.369379
C28	C	0.335998	-0.573433	0.369373
C29	C	0.371328	-0.506141	0.326161
C30	C	0.447977	-0.506139	0.326152
C31	C	0.509069	-0.506142	0.326148
C32	C	0.978139	-0.779098	0.326129
C33	C	0.978184	-0.895875	0.326146
C34	C	1.021513	-0.950723	0.282908
C35	C	1.021555	-1.060447	0.282929
C36	C	0.934932	-1.060464	0.369426
C37	C	0.934894	-0.950742	0.369408
C38	C	1.064802	-0.895855	0.239646
C39	C	1.108135	-0.950704	0.196404
C40	C	1.108176	-1.060428	0.196425
C41	C	1.064886	-1.115303	0.239687
C42	C	1.154722	-0.506152	0.326165
C43	C	1.229954	-0.506160	0.326175
C44	C	0.978217	-0.506064	0.502686
C45	C	0.978233	-0.506036	0.577918
C46	C	0.978238	-0.232097	0.326172
C47	C	0.978263	-0.115321	0.326184
C48	C	0.978180	-0.506121	0.150287
C49	C	0.978295	-0.505853	0.075055
C50	C	1.021539	-0.438842	0.613276
C51	C	1.021546	-0.438811	0.683964
C52	C	0.978250	-0.505981	0.719294
C53	C	0.934940	-0.573179	0.683931
C54	C	0.934930	-0.573203	0.613244
C55	C	0.934978	-0.573081	0.969004
C56	C	0.934992	-0.573054	1.039696
C57	C	1.021594	-0.438689	1.039725
C58	C	1.021584	-0.438713	0.969038
C59	C	0.978272	-0.505906	0.933681
C60	C	0.978264	-0.505937	0.857033
C61	C	0.978261	-0.505957	0.795941
H62	H	0.592308	-0.628198	0.404539
H63	H	0.236536	-0.628228	0.404567
C64	C	0.800127	-0.633154	0.407706
C65	C	0.730620	-0.647361	0.416836
H66	H	0.824115	-0.678814	0.437027
H67	H	0.811721	-0.562591	0.417690
H68	H	0.811683	-0.648440	0.362209
H69	H	0.719063	-0.632067	0.462332
H70	H	0.719021	-0.717940	0.406857
C71	C	0.901944	-0.750981	0.947227
C72	C	0.887362	-0.646936	0.930153
H73	H	0.872544	-0.796574	0.923239
H74	H	0.895763	-0.760566	0.994378
H75	H	0.947412	-0.766369	0.935633
H76	H	0.841895	-0.631545	0.941752
H77	H	0.893536	-0.637346	0.882992
H78	H	0.720505	-0.384048	0.247737
C79	C	0.925566	-0.714356	1.119167
C80	C	0.887396	-0.646894	1.078530
H81	H	0.896183	-0.759944	1.143137
H82	H	0.951355	-0.674336	1.150338
H83	H	0.955037	-0.754554	1.091582
H84	H	0.857928	-0.606690	1.106116
H85	H	0.861596	-0.686918	1.047355
H86	H	1.064772	-0.806512	0.239622
C87	C	0.843865	-0.587829	0.533738
C88	C	0.887327	-0.647073	0.574381
H89	H	0.814473	-0.633436	0.509752
H90	H	0.869646	-0.547842	0.502581
H91	H	0.817992	-0.542043	0.561321
H92	H	0.913203	-0.692854	0.546797
H93	H	0.861543	-0.687078	0.605542
C94	C	0.185769	-0.424115	0.191923
C95	C	0.226428	-0.364932	0.235453
H96	H	0.161785	-0.378465	0.162593
H97	H	0.154610	-0.464176	0.217659
H98	H	0.213341	-0.469831	0.165988
H99	H	0.198855	-0.319222	0.261392
H100	H	0.257590	-0.324854	0.209715
C101	C	1.146531	-0.782499	0.157961
C102	C	1.155718	-0.890389	0.148853
H103	H	1.175906	-0.745267	0.128601
H104	H	1.156407	-0.764460	0.203438
H105	H	1.101051	-0.764599	0.148010
H106	H	1.201198	-0.908290	0.158809
H107	H	1.145848	-0.908435	0.103366
H108	H	0.364736	-0.384085	0.247759
C109	C	0.512685	-0.379106	0.244563
C110	C	0.582191	-0.364892	0.235435
H111	H	0.488696	-0.333452	0.215238
H112	H	0.501125	-0.363827	0.290053
H113	H	0.501094	-0.449680	0.234575
H114	H	0.593783	-0.294320	0.245428
H115	H	0.593755	-0.380164	0.189934
C116	C	1.193790	-1.049384	0.110922
C117	C	1.155806	-1.120719	0.148897
H118	H	1.223190	-1.086606	0.081575
H119	H	1.219649	-1.006528	0.140427
H120	H	1.164290	-1.006651	0.085001
H121	H	1.185306	-1.163447	0.174822
H122	H	1.129945	-1.163594	0.119389
H123	H	0.899685	-0.627866	0.712702
H124	H	0.364781	-0.628219	0.404555
C125	C	1.112109	-1.272473	0.192628
C126	C	1.064933	-1.235915	0.239713
H127	H	1.112133	-1.346932	0.192640
H128	H	1.155764	-1.247585	0.204371
H129	H	1.100415	-1.247708	0.148936
H130	H	1.076629	-1.260673	0.283405
H131	H	1.021268	-1.260814	0.227973
C132	C	0.896524	-1.228671	0.407853
C133	C	0.887344	-1.120782	0.416971
H134	H	0.867140	-1.265905	0.437203
H135	H	0.941996	-1.246582	0.417807
H136	H	0.886652	-1.246697	0.362367
H137	H	0.897221	-1.102754	0.462457
H138	H	0.841862	-1.102864	0.407023
C139	C	0.849278	-0.961772	0.454912
C140	C	0.887270	-0.890445	0.416938
H141	H	0.819878	-0.924544	0.484255
H142	H	0.878769	-1.004508	0.480830
H143	H	0.823414	-1.004626	0.425401
H144	H	0.913139	-0.847595	0.446449
H145	H	0.857776	-0.847691	0.391018
C146	C	1.107140	-0.306013	0.620412
C147	C	1.069131	-0.365002	0.574445
H148	H	1.136517	-0.260421	0.596439
H149	H	1.133024	-0.351781	0.647980
H150	H	1.077653	-0.265818	0.647983
H151	H	1.098617	-0.405204	0.546877
H152	H	1.043245	-0.319229	0.546865
C153	C	1.030986	-0.297441	0.763456
C154	C	1.069146	-0.364935	0.722823
H155	H	1.060373	-0.251822	0.787440
H156	H	1.005213	-0.337436	0.794615
H157	H	1.001500	-0.257277	0.735866
H158	H	1.098629	-0.405105	0.750413
H159	H	1.094931	-0.324936	0.691660
C160	C	1.107185	-0.305883	0.976168
C161	C	1.069174	-0.364874	0.930204
H162	H	1.136560	-0.260291	0.952193
H163	H	1.133071	-0.351649	1.003735
H164	H	1.077700	-0.265687	1.003740
H165	H	1.098659	-0.405076	0.902636
H166	H	1.043286	-0.319102	0.902625
H167	H	1.056859	-0.383973	1.068521
