data_functionalizedCrystal
_audit_creation_method	'MofGen! by Chris Wilmer'
_symmetry_space_group_name_H-M	'P1'
_symmetry_Int_Tables_number	1
_symmetry_cell_setting	triclinic
loop_
_symmetry_equiv_pos_as_xyz
  x,y,z
_cell_length_a	12.759401
_cell_length_b	19.077068
_cell_length_c	12.759393
_cell_angle_alpha	92.261232
_cell_angle_beta	89.981504
_cell_angle_gamma	92.327081
loop_
_atom_site_label
_atom_site_type_symbol
_atom_site_fract_x
_atom_site_fract_y
_atom_site_fract_z
Zn1	Zn	1.589361	-0.280156	-0.610733
Zn2	Zn	1.582157	-0.397871	-0.442092
Zn3	Zn	1.413661	-0.280192	-0.435075
Zn4	Zn	1.406557	-0.397817	-0.617730
O5	O	1.497934	-0.339009	-0.526408
O6	O	1.735426	-0.295778	-0.588371
O7	O	1.559764	-0.382299	-0.294142
O8	O	1.442956	-0.181697	-0.452511
O9	O	1.730133	-0.382263	-0.464471
O10	O	1.572043	-0.181670	-0.581567
O11	O	1.435971	-0.295841	-0.288987
O12	O	1.265698	-0.295788	-0.459296
O13	O	1.430848	-0.382171	-0.763821
O14	O	1.260479	-0.382207	-0.593492
O15	O	1.565154	-0.295726	-0.758680
O16	O	1.552875	-0.496355	-0.471256
O17	O	1.423862	-0.496315	-0.600297
C18	C	1.224968	-0.338996	-0.526393
C19	C	1.108190	-0.339007	-0.526412
C20	C	1.050634	-0.384078	-0.596181
C21	C	0.940909	-0.384086	-0.596193
C22	C	0.946308	-0.293953	-0.456658
C23	C	1.056030	-0.293941	-0.456652
C24	C	1.047516	-0.436117	-0.676738
C25	C	0.937791	-0.436126	-0.676750
C26	C	1.486845	-0.521872	-0.537320
C27	C	1.482197	-0.600102	-0.542023
C28	C	1.547235	-0.636852	-0.477104
C29	C	1.542870	-0.710357	-0.481534
C30	C	1.473460	-0.747111	-0.550879
C31	C	1.408418	-0.710356	-0.615805
C32	C	1.412790	-0.636852	-0.611380
C33	C	1.453182	-0.966943	-0.571318
C34	C	1.448813	-1.040452	-0.575736
C35	C	1.583267	-1.040448	-0.441466
C36	C	1.587627	-0.966943	-0.437042
C37	C	1.522590	-0.930195	-0.501972
N38	N	1.468994	-0.822245	-0.555406
N39	N	1.527062	-0.855062	-0.497450
C40	C	1.771967	-0.339023	-0.526423
C41	C	1.888743	-0.339028	-0.526430
C42	C	1.498012	-0.338938	-0.800437
C43	C	1.498045	-0.338908	-0.917212
C44	C	1.509096	-0.155432	-0.515476
C45	C	1.513852	-0.077202	-0.510817
C46	C	1.567988	-0.293891	-0.969398
C47	C	1.568014	-0.293866	-1.079121
C48	C	1.428152	-0.383879	-1.084461
C49	C	1.428122	-0.383901	-0.974740
C50	C	1.648739	-0.241925	-0.966316
C51	C	1.648766	-0.241900	-1.076039
C52	C	1.497920	-0.339029	-0.253441
C53	C	1.498102	-0.338861	-0.136655
H54	H	0.904709	-0.490623	-0.658076
C55	C	1.624154	-0.169290	-0.922079
C56	C	1.624217	-0.169498	-0.812359
C57	C	1.601586	-0.102599	-0.771572
H58	H	1.557096	-0.157038	-0.946047
H59	H	1.675836	-0.136020	-0.944860
H60	H	1.572538	-0.202757	-0.789588
H61	H	1.691266	-0.181737	-0.788363
H62	H	1.653268	-0.069329	-0.794353
H63	H	1.534529	-0.090353	-0.795547
H64	H	1.601635	-0.102730	-0.697124
C65	C	1.750300	-0.267957	-0.922681
C66	C	1.817609	-0.285188	-1.005617
C67	C	1.911179	-0.309163	-0.965459
H68	H	1.735492	-0.308355	-0.883190
H69	H	1.782934	-0.232124	-0.878681
H70	H	1.784980	-0.321018	-1.049598
H71	H	1.832446	-0.244801	-1.045115
H72	H	1.943814	-0.273330	-0.921459
H73	H	1.896361	-0.349559	-0.925968
H74	H	1.956864	-0.320851	-1.021724
C75	C	1.613916	-0.172911	-1.117376
C76	C	1.524355	-0.185416	-1.179786
C77	C	1.492205	-0.121883	-1.217870
H78	H	1.668554	-0.152476	-1.158145
H79	H	1.598201	-0.141768	-1.060098
H80	H	1.540074	-0.216547	-1.237056
H81	H	1.469696	-0.205840	-1.139040
H82	H	1.476491	-0.090739	-1.160592
H83	H	1.546850	-0.101452	-1.258634
H84	H	1.431430	-0.130357	-1.260212
C85	C	1.613395	-0.750409	-0.411164
C86	C	1.551551	-0.792768	-0.346339
C87	C	1.616527	-0.829709	-0.281586
H88	H	1.655458	-0.718125	-0.369130
H89	H	1.657349	-0.779031	-0.453254
H90	H	1.507615	-0.764149	-0.304253
H91	H	1.509490	-0.825065	-0.388344
H92	H	1.660481	-0.858330	-0.323676
H93	H	1.658587	-0.797419	-0.239559
H94	H	1.574576	-0.858458	-0.237601
C95	C	1.088239	-0.416685	-0.784173
C96	C	1.003454	-0.404810	-0.849898
C97	C	1.040929	-0.386898	-0.948866
H98	H	1.127331	-0.453972	-0.813475
H99	H	1.132069	-0.375289	-0.777421
H100	H	0.959642	-0.446200	-0.856653
H101	H	0.964354	-0.367519	-0.820629
H102	H	1.084759	-0.345503	-0.942114
H103	H	1.080021	-0.424188	-0.978158
H104	H	0.983409	-0.378833	-0.993470
H105	H	1.636218	-1.070377	-0.388605
H106	H	1.102889	-0.257236	-0.399846
C107	C	1.352361	-0.432705	-1.147111
C108	C	1.367372	-0.423063	-1.254371
C109	C	1.297582	-0.468038	-1.312114
H110	H	1.282347	-0.422449	-1.128641
H111	H	1.364867	-0.480014	-1.132003
H112	H	1.354858	-0.375765	-1.269473
H113	H	1.437372	-0.433323	-1.272873
H114	H	1.310089	-0.515347	-1.297005
H115	H	1.227572	-0.457779	-1.293635
H116	H	1.307764	-0.461507	-1.384896
C117	C	1.373425	-1.080231	-0.651145
C118	C	1.317425	-1.032317	-0.707084
C119	C	1.247983	-1.068936	-0.776565
H120	H	1.325865	-1.108955	-0.612766
H121	H	1.411874	-1.108844	-0.698727
H122	H	1.278978	-1.003717	-0.659509
H123	H	1.364957	-1.003592	-0.745484
H124	H	1.286432	-1.097548	-0.824147
H125	H	1.200430	-1.097658	-0.738177
H126	H	1.209986	-1.036432	-0.814535
C127	C	0.889479	-0.245110	-0.380955
C128	C	0.781068	-0.254778	-0.395873
C129	C	0.728687	-0.209805	-0.326140
H130	H	0.910200	-0.197802	-0.393551
H131	H	0.906755	-0.255364	-0.310928
H132	H	0.763800	-0.244520	-0.465884
H133	H	0.760317	-0.302078	-0.383269
H134	H	0.745963	-0.220059	-0.256114
H135	H	0.749416	-0.162499	-0.338742
H136	H	0.655125	-0.216363	-0.336246
C137	C	1.088514	-0.505186	-0.641846
C138	C	1.003829	-0.550952	-0.618727
C139	C	1.041557	-0.614586	-0.586592
H140	H	1.130883	-0.496865	-0.581075
H141	H	1.129171	-0.525635	-0.696516
H142	H	0.963189	-0.530507	-0.564062
H143	H	0.961452	-0.559293	-0.679483
H144	H	1.082214	-0.635035	-0.641262
H145	H	1.083926	-0.606258	-0.525823
H146	H	0.984105	-0.645648	-0.570911
C147	C	1.622702	-0.597078	-0.401779
C148	C	1.678744	-0.644998	-0.345894
C149	C	1.748285	-0.608387	-0.276505
H150	H	1.584356	-0.568449	-0.354150
H151	H	1.670221	-0.568371	-0.440255
H152	H	1.631231	-0.673693	-0.307420
H153	H	1.717111	-0.673628	-0.393496
H154	H	1.795805	-0.579680	-0.314981
H155	H	1.709932	-0.579760	-0.228883
H156	H	1.786325	-0.640895	-0.238586
C157	C	1.382737	-0.927018	-0.641933
C158	C	1.444691	-0.884765	-0.706810
C159	C	1.379827	-0.847982	-0.771886
H160	H	1.338664	-0.898334	-0.600102
H161	H	1.340793	-0.959418	-0.683917
H162	H	1.486616	-0.852369	-0.664830
H163	H	1.488762	-0.913432	-0.748663
H164	H	1.337884	-0.880382	-0.813870
H165	H	1.335758	-0.819302	-0.730047
H166	H	1.421853	-0.819314	-0.815919
H167	H	1.729256	-0.256498	-1.106690
H168	H	0.904967	-0.416669	-0.752938
C169	C	1.342057	-0.597076	-0.681916
C170	C	1.280317	-0.644994	-0.743575
C171	C	1.215140	-0.608379	-0.808563
H172	H	1.383821	-0.568355	-0.726088
H173	H	1.297945	-0.568462	-0.639994
H174	H	1.324424	-0.673596	-0.785493
H175	H	1.238532	-0.673716	-0.699430
H176	H	1.171028	-0.579765	-0.766641
H177	H	1.256912	-0.579660	-0.852729
H178	H	1.173235	-0.640886	-0.850400
C179	C	1.352288	-0.432885	-0.918147
C180	C	1.370933	-0.502522	-0.948952
C181	C	1.301097	-0.547665	-0.896833
H182	H	1.282293	-0.422658	-0.935481
H183	H	1.362280	-0.426503	-0.844553
H184	H	1.360932	-0.508901	-1.022529
H185	H	1.440915	-0.512771	-0.931616
H186	H	1.311088	-0.541284	-0.823239
H187	H	1.231106	-0.537432	-0.914171
H188	H	1.313743	-0.594919	-0.917719
H189	H	1.644147	-0.937020	-0.380577
H190	H	1.351908	-0.740287	-0.672271
