data_functionalizedCrystal
_audit_creation_method	'MofGen! by Chris Wilmer'
_symmetry_space_group_name_H-M	'P1'
_symmetry_Int_Tables_number	1
_symmetry_cell_setting	triclinic
loop_
_symmetry_equiv_pos_as_xyz
  x,y,z
_cell_length_a	11.792241
_cell_length_b	14.971486
_cell_length_c	14.048226
_cell_angle_alpha	90.006640
_cell_angle_beta	90.002244
_cell_angle_gamma	83.903772
loop_
_atom_site_label
_atom_site_type_symbol
_atom_site_fract_x
_atom_site_fract_y
_atom_site_fract_z
O1	O	-1.506121	-0.122599	-0.079069
O2	O	-1.175698	-0.135234	-0.079091
O3	O	-1.349766	0.001248	-0.079072
O4	O	-1.332053	-0.259081	-0.079087
O5	O	-1.349745	0.001256	0.079249
O6	O	-1.175677	-0.135226	0.079230
O7	O	-1.506100	-0.122591	0.079253
Zn8	Zn	-1.340885	-0.128907	0.104378
Zn9	Zn	-1.340913	-0.128918	-0.104217
O10	O	-1.332032	-0.259073	0.079234
C11	C	-1.133402	-0.134436	0.000067
C12	C	-1.007404	-0.132061	0.000059
C13	C	-1.348963	0.034580	0.000088
C14	C	-1.346589	0.133887	0.000087
C15	C	-1.548396	-0.123389	0.000093
C16	C	-1.674395	-0.125764	0.000095
C17	C	-0.776720	-0.127692	0.000086
C18	C	-0.905089	-0.130120	0.000071
C19	C	-1.332835	-0.292405	0.000072
C20	C	-1.335209	-0.391711	0.000066
N21	N	-1.340875	-0.128899	0.246739
C22	C	-1.448849	0.190702	0.000094
C23	C	-1.446612	0.284011	0.000085
C24	C	-1.342114	0.320502	0.000074
C25	C	-1.239846	0.263679	0.000064
C26	C	-1.242084	0.170372	0.000067
C27	C	-1.235188	0.458160	0.000060
C28	C	-1.232949	0.551473	0.000059
C29	C	-1.439715	0.571798	0.000078
C30	C	-1.441954	0.478492	0.000081
C31	C	-1.339685	0.421675	0.000072
N32	N	-1.340932	-0.128919	-0.246577
C33	C	-1.417976	-0.068490	0.296565
C34	C	-1.417984	-0.068490	0.396223
C35	C	-1.340895	-0.128903	0.446053
C36	C	-1.263785	-0.189315	0.396219
C37	C	-1.263773	-0.189311	0.296564
C38	C	-1.263818	-0.189322	0.603934
C39	C	-1.263831	-0.189328	0.703596
C40	C	-1.418029	-0.068501	0.703593
C41	C	-1.418016	-0.068496	0.603937
C42	C	-1.340908	-0.128910	0.554111
H43	H	-1.529883	0.330267	0.000093
H44	H	-1.480793	-0.019307	0.563366
H45	H	-1.480765	-0.019299	0.436791
O46	O	-1.492887	-0.009690	0.751881
C47	C	-1.559175	0.145486	0.782425
C48	C	-1.474348	0.078991	0.727660
H49	H	-1.544200	0.217199	0.762878
H50	H	-1.650108	0.133412	0.762796
H51	H	-1.545962	0.135067	0.862207
H52	H	-1.487457	0.089370	0.647866
H53	H	-1.383445	0.091081	0.747368
H54	H	-1.527045	0.448784	0.000096
H55	H	-1.201056	-0.238522	0.744163
O56	O	-1.539033	0.627020	-0.000091
C57	C	-1.656495	0.744180	-0.082087
C58	C	-1.543994	0.681677	-0.082028
H59	H	-1.660533	0.788400	-0.148315
H60	H	-1.731608	0.702113	-0.082136
H61	H	-1.660596	0.788344	-0.015804
H62	H	-1.539782	0.637501	-0.148300
H63	H	-1.468935	0.723798	-0.081930
H64	H	-1.147857	0.581181	0.000066
H65	H	-1.151910	0.411902	0.000051
H66	H	-1.154761	0.293397	0.000049
H67	H	-1.201024	-0.238514	0.563368
O68	O	-1.142644	0.115307	0.000102
C69	C	-0.937324	0.104988	0.000018
C70	C	-1.049858	0.167451	0.000008
H71	H	-0.862278	0.147121	-0.000078
H72	H	-0.933109	0.060817	0.066289
H73	H	-0.933281	0.060773	-0.066226
H74	H	-1.053976	0.211722	0.066207
H75	H	-1.054026	0.211561	-0.066307
H76	H	-1.201012	-0.238502	0.436796
H77	H	-1.200988	-0.238501	0.255996
H78	H	-1.480755	-0.019298	0.256001
O79	O	-1.550459	0.155407	0.000060
C80	C	-1.755306	0.185426	0.000122
C81	C	-1.640310	0.225513	0.000144
H82	H	-1.827981	0.242087	0.000210
H83	H	-1.761607	0.142276	-0.066150
H84	H	-1.761458	0.142228	0.066364
H85	H	-1.634080	0.268752	-0.066053
H86	H	-1.634059	0.268612	0.066460
