data_functionalizedCrystal
_audit_creation_method	'MofGen! by Chris Wilmer'
_symmetry_space_group_name_H-M	'P1'
_symmetry_Int_Tables_number	1
_symmetry_cell_setting	triclinic
loop_
_symmetry_equiv_pos_as_xyz
  x,y,z
_cell_length_a	16.625548
_cell_length_b	16.625545
_cell_length_c	11.169409
_cell_angle_alpha	90.036134
_cell_angle_beta	90.023153
_cell_angle_gamma	90.026626
loop_
_atom_site_label
_atom_site_type_symbol
_atom_site_fract_x
_atom_site_fract_y
_atom_site_fract_z
Zn1	Zn	1.232684	-0.320913	0.678618
Zn2	Zn	1.732684	0.179087	1.178618
Zn3	Zn	1.232574	-0.455775	0.477921
Zn4	Zn	1.732574	0.044225	0.977921
Zn5	Zn	1.097839	-0.320963	0.477940
Zn6	Zn	1.597839	0.179037	0.977940
Zn7	Zn	1.097809	-0.455710	0.678554
Zn8	Zn	1.597809	0.044290	1.178554
O9	O	1.165226	-0.388340	0.578258
O10	O	1.665226	0.111660	1.078258
O11	O	1.345502	-0.338810	0.652013
O12	O	1.845502	0.161190	1.152013
O13	O	1.214668	-0.437940	0.309974
O14	O	1.714668	0.062060	0.809974
O15	O	1.115786	-0.208124	0.504595
O16	O	1.615786	0.291876	1.004595
O17	O	1.345421	-0.437892	0.504562
O18	O	1.845421	0.062108	1.004562
O19	O	1.214855	-0.208087	0.652032
O20	O	1.714855	0.291913	1.152032
O21	O	1.115679	-0.338894	0.309988
O22	O	1.615679	0.161106	0.809988
O23	O	0.985003	-0.338831	0.504534
O24	O	1.485003	0.161169	1.004534
O25	O	1.115733	-0.437781	0.846513
O26	O	1.615733	0.062219	1.346513
O27	O	0.984980	-0.437829	0.651924
O28	O	1.484980	0.062171	1.151924
O29	O	1.214826	-0.338746	0.846559
O30	O	1.714826	0.161254	1.346559
O31	O	1.214638	-0.568599	0.504501
O32	O	1.714638	-0.068599	1.004501
O33	O	1.115627	-0.568551	0.651906
O34	O	1.615627	-0.068551	1.151906
C35	C	0.955736	-0.388329	0.578225
C36	C	1.455736	0.111671	1.078225
C37	C	0.866114	-0.388343	0.578239
C38	C	1.366114	0.111657	1.078239
C39	C	0.537939	-0.388349	0.578290
C40	C	1.037939	0.111651	1.078290
C41	C	0.629247	-0.388345	0.578272
C42	C	1.129247	0.111655	1.078272
C43	C	0.702024	-0.388346	0.578264
C44	C	1.202024	0.111654	1.078264
C45	C	0.793338	-0.388342	0.578247
C46	C	1.293338	0.111658	1.078247
C47	C	1.165139	-0.597831	0.578221
C48	C	1.665139	-0.097831	1.078221
C49	C	1.165175	-0.687452	0.578245
C50	C	1.665175	-0.187452	1.078245
C51	C	1.165206	-0.760235	0.578268
C52	C	1.665206	-0.260235	1.078268
C53	C	1.165253	-0.851543	0.578295
C54	C	1.665253	-0.351543	1.078295
C55	C	1.165295	-0.924320	0.578310
C56	C	1.665295	-0.424320	1.078310
C57	C	1.165341	-1.015634	0.578335
C58	C	1.665341	-0.515634	1.078335
C59	C	1.375535	-0.388353	0.578293
C60	C	1.875535	0.111647	1.078293
C61	C	1.465156	-0.388358	0.578307
C62	C	1.965156	0.111642	1.078307
C63	C	1.165288	-0.388251	0.891301
C64	C	1.665288	0.111749	1.391301
C65	C	1.165315	-0.388213	1.024701
C66	C	1.665315	0.111787	1.524701
C67	C	1.165336	-0.178032	0.578323
C68	C	1.665336	0.321968	1.078323
C69	C	1.165383	-0.088410	0.578350
C70	C	1.665383	0.411590	1.078350
C71	C	1.165211	-0.388371	0.266434
C72	C	1.665211	0.111629	0.766434
C73	C	1.165341	-0.388182	0.133034
C74	C	1.665341	0.111818	0.633034
