data_functionalizedCrystal
_audit_creation_method	'MofGen! by Chris Wilmer'
_symmetry_space_group_name_H-M	'P1'
_symmetry_Int_Tables_number	1
_symmetry_cell_setting	triclinic
loop_
_symmetry_equiv_pos_as_xyz
  x,y,z
_cell_length_a	27.731993
_cell_length_b	9.065218
_cell_length_c	8.140239
_cell_angle_alpha	90.001686
_cell_angle_beta	89.991174
_cell_angle_gamma	83.818139
loop_
_atom_site_label
_atom_site_type_symbol
_atom_site_fract_x
_atom_site_fract_y
_atom_site_fract_z
O1	O	-0.642139	-0.175136	-0.136165
O2	O	-0.501524	-0.201909	-0.136264
O3	O	-0.574738	0.026306	-0.136209
O4	O	-0.568925	-0.403352	-0.136220
O5	O	-0.574734	0.026309	0.137018
O6	O	-0.501520	-0.201906	0.136963
O7	O	-0.642135	-0.175134	0.137062
Zn8	Zn	-0.571827	-0.188520	0.180393
Zn9	Zn	-0.571832	-0.188523	-0.179596
O10	O	-0.568921	-0.403349	0.137007
C11	C	-0.483511	-0.201358	0.000336
C12	C	-0.429843	-0.199703	0.000298
C13	C	-0.660148	-0.175685	0.000457
C14	C	-0.713816	-0.177339	0.000485
C15	C	-0.574177	0.081258	0.000401
C16	C	-0.572507	0.244994	0.000392
C17	C	-0.046604	-0.187710	-0.148558
C18	C	-0.248304	-0.194018	-0.148602
O19	O	-0.274384	-0.194775	-0.275270
N20	N	-0.273528	-0.194805	0.000330
C21	C	-0.248323	-0.194007	0.149285
O22	O	-0.274406	-0.194806	0.275960
C23	C	-0.046624	-0.187688	0.149328
C24	C	-0.021403	-0.186915	0.000385
C25	C	-0.021382	-0.186935	-0.297488
C26	C	0.029040	-0.185366	-0.297475
C27	C	0.054241	-0.184572	-0.148532
C28	C	0.029020	-0.185347	0.000398
C29	C	-0.021421	-0.186879	0.298280
C30	C	0.029007	-0.185295	0.298278
C31	C	0.054228	-0.184522	0.149335
C32	C	0.104643	-0.182983	0.149354
N33	N	0.129867	-0.182196	0.000421
C34	C	0.104666	-0.182990	-0.148522
C35	C	-0.354218	-0.197327	0.149252
C36	C	-0.404642	-0.198909	0.149241
C37	C	-0.404620	-0.198917	-0.148647
C38	C	-0.354194	-0.197345	-0.148634
C39	C	-0.328995	-0.196539	0.000319
C40	C	0.210556	-0.179697	-0.148484
C41	C	0.260983	-0.178134	-0.148458
C42	C	0.260956	-0.178118	0.149428
C43	C	0.210534	-0.179689	0.149404
C44	C	0.185335	-0.180473	0.000434
O45	O	0.130754	-0.182208	0.275955
O46	O	0.130756	-0.182157	-0.275179
C47	C	-0.097026	-0.189278	-0.148570
C48	C	-0.122247	-0.190053	0.000360
C49	C	-0.097046	-0.189259	0.149303
C50	C	-0.172672	-0.191635	0.000350
C51	C	-0.197873	-0.192429	-0.148593
C52	C	-0.172649	-0.191642	-0.297526
C53	C	-0.122227	-0.190073	-0.297513
C54	C	-0.122270	-0.190047	0.298236
C55	C	-0.172692	-0.191617	0.298211
C56	C	-0.197893	-0.192411	0.149268
C57	C	-0.569482	-0.458301	0.000393
C58	C	-0.571152	-0.622037	0.000391
N59	N	-0.571827	-0.188517	0.426076
N60	N	-0.571836	-0.188514	-0.425278
H61	H	0.281517	-0.177509	-0.269750
O62	O	0.053613	-0.184664	-0.442012
C63	C	0.131293	-0.182133	-0.574064
C64	C	0.103530	-0.182969	-0.410250
H65	H	0.171654	-0.180731	-0.548441
H66	H	0.125393	-0.285739	-0.647540
H67	H	0.117374	-0.079195	-0.647499
H68	H	0.117431	-0.285838	-0.336683
H69	H	0.109429	-0.079295	-0.336899
H70	H	-0.041896	-0.187577	-0.418782
H71	H	0.190045	-0.180337	-0.269789
H72	H	-0.425147	-0.199569	-0.269922
H73	H	0.189999	-0.180347	0.270685
H74	H	-0.101696	-0.189443	-0.418798
O75	O	0.285454	-0.177081	0.294061
C76	C	0.337483	-0.047478	0.466865
C77	C	0.309752	-0.048463	0.303029
H78	H	0.357143	0.056483	0.474154
H79	H	0.310817	-0.048205	0.573391
H80	H	0.365047	-0.150059	0.474292
H81	H	0.282188	0.054101	0.295442
H82	H	0.336447	-0.047813	0.196581
H83	H	-0.333662	-0.196716	-0.269917
O84	O	-0.429199	-0.199477	0.293820
C85	C	-0.491036	-0.073351	0.466752
C86	C	-0.463273	-0.072555	0.302936
H87	H	-0.518584	0.029270	0.474191
H88	H	-0.510703	-0.177293	0.474235
H89	H	-0.464345	-0.072579	0.573169
H90	H	-0.489931	-0.073274	0.196426
H91	H	-0.443598	0.031378	0.295596
H92	H	-0.333705	-0.196665	0.270554
O93	O	-0.197212	-0.192349	-0.442065
C94	C	-0.274889	-0.194857	-0.574059
C95	C	-0.247130	-0.194033	-0.410265
H96	H	-0.315251	-0.196250	-0.548406
H97	H	-0.268985	-0.091252	-0.647527
H98	H	-0.260971	-0.297797	-0.647515
H99	H	-0.261031	-0.091164	-0.336677
H100	H	-0.253034	-0.297707	-0.336921
H101	H	0.049522	-0.184651	0.419577
H102	H	-0.041948	-0.187503	0.419566
H103	H	-0.193223	-0.192258	0.419507
H104	H	-0.101757	-0.189392	0.419526
