data_functionalizedCrystal
_audit_creation_method	'MofGen! by Chris Wilmer'
_symmetry_space_group_name_H-M	'P1'
_symmetry_Int_Tables_number	1
_symmetry_cell_setting	triclinic
loop_
_symmetry_equiv_pos_as_xyz
  x,y,z
_cell_length_a	12.759401
_cell_length_b	12.759399
_cell_length_c	12.759393
_cell_angle_alpha	89.969094
_cell_angle_beta	89.979062
_cell_angle_gamma	90.016641
loop_
_atom_site_label
_atom_site_type_symbol
_atom_site_fract_x
_atom_site_fract_y
_atom_site_fract_z
Zn1	Zn	1.606263	-0.418173	-0.594017
Zn2	Zn	1.606153	-0.593888	-0.418336
Zn3	Zn	1.430562	-0.418229	-0.418352
Zn4	Zn	1.430553	-0.593815	-0.593973
O5	O	1.518383	-0.506026	-0.506170
O6	O	1.753270	-0.441489	-0.570724
O7	O	1.582818	-0.570641	-0.271317
O8	O	1.453919	-0.271200	-0.441680
O9	O	1.753189	-0.570587	-0.441652
O10	O	1.583006	-0.271159	-0.570740
O11	O	1.453812	-0.441584	-0.271329
O12	O	1.283540	-0.441513	-0.441637
O13	O	1.453903	-0.570461	-0.741000
O14	O	1.283533	-0.570516	-0.570665
O15	O	1.582997	-0.441418	-0.741032
O16	O	1.582809	-0.740900	-0.441609
O17	O	1.453796	-0.740846	-0.570649
C18	C	1.245415	-0.506013	-0.506149
C19	C	1.128639	-0.506033	-0.506165
C20	C	1.518318	-0.778994	-0.506146
C21	C	1.518387	-0.895770	-0.506171
C22	C	1.073801	-0.573307	-0.573244
C23	C	0.964077	-0.573311	-0.573265
C24	C	0.964038	-0.438764	-0.439118
C25	C	1.073760	-0.438756	-0.439104
C26	C	1.585641	-0.950625	-0.439056
C27	C	1.585708	-1.060349	-0.439091
C28	C	1.451259	-1.060353	-0.573359
C29	C	1.451198	-0.950631	-0.573328
C30	C	1.792416	-0.506040	-0.506191
C31	C	1.909193	-0.506046	-0.506200
C32	C	1.518461	-0.505925	-0.780203
C33	C	1.518495	-0.505882	-0.896980
C34	C	1.518476	-0.231993	-0.506217
C35	C	1.518516	-0.115216	-0.506237
C36	C	1.585719	-0.438679	-0.951860
C37	C	1.585737	-0.438633	-1.061584
C38	C	1.451303	-0.573004	-1.061538
C39	C	1.451281	-0.573044	-0.951816
C40	C	1.518365	-0.506051	-0.233202
C41	C	1.518535	-0.505798	-0.116426
H42	H	0.919432	-0.628090	-0.627889
C43	C	0.903665	-0.364771	-0.365349
C44	C	0.828269	-0.282353	-0.411030
C45	C	0.767896	-0.208361	-0.337258
C46	C	0.782919	-0.216786	-0.217805
C47	C	0.858318	-0.299206	-0.172117
C48	C	0.918691	-0.373199	-0.245890
H49	H	0.817144	-0.276114	-0.499462
H50	H	0.712080	-0.147347	-0.371080
H51	H	0.738227	-0.162012	-0.163194
H52	H	0.869442	-0.305446	-0.083685
H53	H	0.974507	-0.434212	-0.212068
C54	C	1.377214	-0.890281	-0.647158
C55	C	1.422662	-0.814745	-0.729658
C56	C	1.348686	-0.754393	-0.803488
C57	C	1.229261	-0.769577	-0.794817
C58	C	1.183807	-0.845116	-0.712313
C59	C	1.257783	-0.905468	-0.638484
H60	H	1.511073	-0.803502	-0.736080
H61	H	1.382335	-0.698474	-0.864562
H62	H	1.174500	-0.724901	-0.849469
H63	H	1.095396	-0.856359	-0.705891
H64	H	1.224133	-0.961387	-0.577409
H65	H	1.640446	-0.383989	-0.907216
H66	H	1.118479	-0.628086	-0.627852
H67	H	1.640474	-1.105007	-0.384441
C68	C	1.377350	-1.120703	-0.647225
C69	C	1.377411	-1.241393	-0.647261
C70	C	1.303499	-1.301741	-0.721129
C71	C	1.229526	-1.241398	-0.794959
C72	C	1.229461	-1.120701	-0.794926
C73	C	1.303373	-1.060354	-0.721058
H74	H	1.432174	-1.286069	-0.592605
H75	H	1.303547	-1.391089	-0.721153
H76	H	1.174812	-1.286071	-0.849640
H77	H	1.174699	-1.076026	-0.849582
H78	H	1.303325	-0.971006	-0.721034
H79	H	1.118411	-0.383967	-0.384480
C80	C	1.377396	-0.646904	-1.121860
C81	C	1.303460	-0.720837	-1.061490
C82	C	1.229560	-0.794749	-1.121809
C83	C	1.229597	-0.794727	-1.242500
C84	C	1.303536	-0.720790	-1.302877
C85	C	1.377435	-0.646879	-1.242557
H86	H	1.303430	-0.720856	-0.972142
H87	H	1.174826	-0.849482	-1.077114
H88	H	1.174893	-0.849441	-1.287152
H89	H	1.303566	-0.720772	-1.392225
H90	H	1.432170	-0.592146	-1.287253
C91	C	1.659555	-0.890276	-0.365194
C92	C	1.651058	-0.905470	-0.245755
C93	C	1.724977	-0.845124	-0.171893
C94	C	1.807393	-0.769583	-0.217472
C95	C	1.815893	-0.754386	-0.336917
C96	C	1.741974	-0.814732	-0.410779
H97	H	1.590045	-0.961392	-0.212009
H98	H	1.718684	-0.856374	-0.083472
H99	H	1.862112	-0.724911	-0.162795
H100	H	1.876906	-0.698463	-0.370663
H101	H	1.748267	-0.803482	-0.499200
H102	H	1.640476	-0.383908	-1.106263
H103	H	1.396532	-0.627768	-0.907131
