data_functionalizedCrystal
_audit_creation_method	'MofGen! by Chris Wilmer'
_symmetry_space_group_name_H-M	'P1'
_symmetry_Int_Tables_number	1
_symmetry_cell_setting	triclinic
loop_
_symmetry_equiv_pos_as_xyz
  x,y,z
_cell_length_a	23.532407
_cell_length_b	10.654562
_cell_length_c	9.730223
_cell_angle_alpha	89.996362
_cell_angle_beta	89.988425
_cell_angle_gamma	83.669390
loop_
_atom_site_label
_atom_site_type_symbol
_atom_site_fract_x
_atom_site_fract_y
_atom_site_fract_z
O1	O	0.080021	1.665289	-0.114396
O2	O	0.087634	1.299572	-0.114380
O3	O	0.000968	1.493459	-0.114363
O4	O	0.166687	1.471402	-0.114413
O5	O	0.000961	1.493457	0.114217
O6	O	0.087627	1.299570	0.114200
O7	O	0.080014	1.665287	0.114184
Zn8	Zn	0.083820	1.482428	0.150484
Zn9	Zn	0.083829	1.482431	-0.150680
O10	O	0.166680	1.471400	0.114167
C11	C	0.087070	1.252791	-0.000088
C12	C	0.085393	1.113401	-0.000081
C13	C	0.084607	1.047894	0.124507
C14	C	0.083036	0.916922	0.124485
C15	C	0.083040	0.916974	-0.124725
C16	C	0.084607	1.047946	-0.124701
C17	C	0.085394	1.113350	0.249128
C18	C	0.084609	1.047843	0.373727
C19	C	0.083038	0.916870	0.373704
C20	C	0.082252	0.851405	0.249083
C21	C	-0.020255	1.492896	-0.000070
C22	C	-0.083483	1.491207	-0.000059
C23	C	-0.481905	1.595354	-0.000139
C24	C	-0.541316	1.593785	-0.000149
O25	O	-0.577430	1.690330	-0.000204
N26	N	-0.564696	1.478520	-0.000143
C27	C	-0.528661	1.364815	-0.000141
O28	O	-0.554002	1.266628	-0.000138
C29	C	-0.469252	1.366385	-0.000141
C30	C	-0.445876	1.481658	-0.000133
C31	C	-0.458529	1.710618	-0.000133
C32	C	-0.399122	1.712186	-0.000120
C33	C	-0.363093	1.598490	-0.000113
C34	C	-0.386469	1.483227	-0.000120
C35	C	-0.433218	1.252682	-0.000148
C36	C	-0.373806	1.254262	-0.000149
C37	C	-0.350430	1.369535	-0.000141
C38	C	-0.291033	1.371099	-0.000100
N39	N	-0.267654	1.486365	-0.000106
C40	C	-0.303683	1.600060	-0.000113
C41	C	-0.653425	1.361527	-0.000145
C42	C	-0.712833	1.359955	-0.000135
C43	C	-0.725484	1.588926	-0.000146
C44	C	-0.666075	1.590496	-0.000146
C45	C	-0.630046	1.476792	-0.000151
C46	C	-0.178925	1.603345	-0.000084
C47	C	-0.119513	1.604903	-0.000066
C48	C	-0.106867	1.375933	-0.000062
C49	C	-0.166274	1.374374	-0.000074
C50	C	-0.202302	1.488091	-0.000089
O51	O	-0.254885	1.274605	-0.000051
O52	O	-0.278334	1.698231	-0.000133
C53	C	0.187904	1.471963	-0.000129
C54	C	0.251132	1.473652	-0.000149
C55	C	0.080578	1.712068	-0.000111
C56	C	0.082255	1.851458	-0.000127
N57	N	0.083831	1.482434	-0.356216
C58	C	0.048882	1.406878	-0.572008
C59	C	0.048893	1.406873	-0.428125
C60	C	0.118766	1.557994	-0.428199
C61	C	0.118758	1.557991	-0.572079
C62	C	0.013938	1.331322	-0.643909
C63	C	-0.020996	1.255759	-0.571937
C64	C	-0.020986	1.255755	-0.428054
C65	C	0.013958	1.331313	-0.356143
N66	N	0.083813	1.482435	0.356020
H67	H	0.082394	0.863539	0.475158
H68	H	-0.624093	1.268929	-0.000137
H69	H	0.013967	1.331296	-0.238983
H70	H	0.085244	1.101154	0.475188
Cl71	Cl	0.162663	1.652998	-0.662565
H72	H	0.080971	0.744759	0.249075
Cl73	Cl	-0.636694	1.735416	-0.000137
Cl74	Cl	-0.064896	1.160752	-0.337578
Cl75	Cl	0.162691	1.652977	-0.337795
H76	H	-0.049443	1.194235	-0.630496
H77	H	0.082401	0.863662	-0.226186
Cl78	Cl	0.087373	1.277999	0.249165
Cl79	Cl	0.085593	1.130304	-0.281330
H80	H	-0.100484	1.698776	-0.000056
H81	H	-0.208253	1.695944	-0.000102
H82	H	-0.754831	1.681503	-0.000157
H83	H	-0.487859	1.803208	-0.000143
Cl84	Cl	-0.369745	1.857109	-0.000149
H85	H	-0.185308	1.280509	-0.000042
H86	H	-0.731860	1.266088	-0.000118
H87	H	-0.452240	1.158814	-0.000163
Cl88	Cl	-0.328515	1.111310	-0.000156
H89	H	-0.077521	1.283365	-0.000052
Cl90	Cl	0.013919	1.331329	-0.824790
