data_functionalizedCrystal
_audit_creation_method	'MofGen! by Chris Wilmer'
_symmetry_space_group_name_H-M	'P1'
_symmetry_Int_Tables_number	1
_symmetry_cell_setting	triclinic
loop_
_symmetry_equiv_pos_as_xyz
  x,y,z
_cell_length_a	15.625950
_cell_length_b	15.538117
_cell_length_c	14.185568
_cell_angle_alpha	97.845572
_cell_angle_beta	85.728946
_cell_angle_gamma	113.257794
loop_
_atom_site_label
_atom_site_type_symbol
_atom_site_fract_x
_atom_site_fract_y
_atom_site_fract_z
O1	O	1.056862	-0.199813	-0.300906
O2	O	0.818177	-0.192287	-0.214111
O3	O	0.983981	-0.063303	-0.274398
O4	O	0.891058	-0.328797	-0.240619
O5	O	0.934965	-0.101332	-0.423410
O6	O	0.769161	-0.230316	-0.363123
O7	O	1.007846	-0.237842	-0.449918
Cu8	Cu	0.884028	-0.237551	-0.420127
Cu9	Cu	0.941995	-0.192577	-0.243902
O10	O	0.842042	-0.366826	-0.389631
C11	C	0.763867	-0.207869	-0.277779
C12	C	0.675070	-0.197633	-0.245489
C13	C	0.249365	-0.267635	-0.545307
C14	C	0.165933	-0.258024	-0.514921
C15	C	0.219409	-0.216571	-0.352489
C16	C	0.302846	-0.226184	-0.382861
C17	C	0.317816	-0.251715	-0.479271
C18	C	0.371297	-0.210263	-0.316825
C19	C	0.454728	-0.219870	-0.347195
C20	C	0.469707	-0.245398	-0.443601
C21	C	0.401247	-0.261322	-0.509641
C22	C	0.356327	-0.184725	-0.220416
C23	C	0.424778	-0.168805	-0.154380
C24	C	0.508209	-0.178418	-0.184749
C25	C	0.523188	-0.203946	-0.281155
C26	C	0.576669	-0.162494	-0.118709
C27	C	0.660100	-0.172101	-0.149079
C28	C	0.606619	-0.213553	-0.311525
C29	C	0.969196	-0.048139	-0.352436
C30	C	0.998157	0.053705	-0.362957
C31	C	0.710441	0.368637	-0.258351
C32	C	0.737671	0.464333	-0.268255
C33	C	0.890846	0.472323	-0.323954
C34	C	0.863630	0.376627	-0.314051
C35	C	0.773426	0.324791	-0.281250
C36	C	0.926615	0.332781	-0.336950
C37	C	0.899399	0.237093	-0.327052
C38	C	0.809198	0.185249	-0.294255
C39	C	0.746210	0.229102	-0.271352
C40	C	1.016816	0.384618	-0.369757
C41	C	1.079801	0.340772	-0.392657
C42	C	1.052588	0.245083	-0.382752
C43	C	0.962388	0.193240	-0.349955
C44	C	1.115577	0.201230	-0.405656
C45	C	1.088361	0.105541	-0.395758
C46	C	0.935172	0.097551	-0.340058
C47	C	1.062157	-0.222259	-0.386247
C48	C	1.150955	-0.232494	-0.418532
C49	C	0.856824	0.618011	-0.311588
C50	C	0.827855	0.516169	-0.301052
N51	N	0.982768	-0.160939	-0.119957
N52	N	0.843264	-0.269183	-0.544075
C53	C	0.723460	-0.362052	0.341979
C54	C	0.754359	-0.338112	0.435766
C55	C	0.901307	-0.224171	0.382296
C56	C	0.870422	-0.248105	0.288502
C57	C	0.781497	-0.317045	0.268352
C58	C	0.928460	-0.203099	0.214875
C59	C	0.897575	-0.227028	0.121090
C60	C	0.808653	-0.295963	0.100932
C61	C	0.750613	-0.340974	0.174567
C62	C	1.017381	-0.134154	0.235027
C63	C	1.075419	-0.089148	0.161401
C64	C	1.044537	-0.113081	0.067613
C65	C	0.955615	-0.182016	0.047455
C66	C	1.102577	-0.068070	-0.006022
C67	C	1.071693	-0.091999	-0.099807
C68	C	0.924730	-0.205945	-0.046330
H69	H	0.537644	-0.253219	-0.468327
O70	O	1.047362	-0.110763	0.326138
C71	C	1.101674	0.012159	0.457120
C72	C	1.067719	-0.014203	0.353941
H73	H	1.118161	0.090233	0.479623
H74	H	1.044929	-0.031791	0.506332
H75	H	1.167139	-0.002442	0.461765
H76	H	1.002271	0.000401	0.349204
H77	H	1.124521	0.029743	0.304776
O78	O	0.204972	-0.191614	-0.258853
C79	C	0.258116	-0.074836	-0.122660
C80	C	0.274558	-0.102967	-0.228713
H81	H	0.314376	-0.003173	-0.098254
H82	H	0.186760	-0.070631	-0.112244
H83	H	0.261071	-0.129924	-0.078949
H84	H	0.271651	-0.047909	-0.272491
H85	H	0.345904	-0.107203	-0.239055
O86	O	0.658572	0.178616	-0.239612
C87	C	0.513527	0.046270	-0.273326
C88	C	0.612755	0.103347	-0.309376
H89	H	0.476449	-0.014585	-0.329720
H90	H	0.517431	0.017116	-0.204971
H91	H	0.473218	0.094076	-0.258616
H92	H	0.653121	0.055602	-0.324141
H93	H	0.608784	0.132513	-0.377699
O94	O	0.847534	0.047064	-0.308317
C95	C	0.702489	-0.085281	-0.342031
C96	C	0.801717	-0.028204	-0.378081
H97	H	0.665411	-0.146137	-0.398425
H98	H	0.706392	-0.114436	-0.273677
H99	H	0.662180	-0.037476	-0.327321
H100	H	0.842083	-0.075949	-0.392847
H101	H	0.797746	0.000962	-0.446405
O102	O	0.987759	-0.157287	0.401718
C103	C	1.153179	-0.109968	0.373623
C104	C	1.055320	-0.185772	0.351545
H105	H	1.207830	-0.132980	0.333086
H106	H	1.158883	-0.040268	0.350888
H107	H	1.165272	-0.100564	0.453305
H108	H	1.043162	-0.195260	0.271873
H109	H	1.049663	-0.255430	0.374346
O110	O	1.161809	-0.022134	0.180819
C111	C	1.304341	0.088310	0.117868
C112	C	1.206516	0.012452	0.095751
H113	H	1.340523	0.116281	0.049102
H114	H	1.297987	0.148717	0.169340
H115	H	1.346963	0.056037	0.151537
H116	H	1.163841	0.044639	0.062047
H117	H	1.212940	-0.047945	0.044317
H118	H	0.787039	0.107332	-0.286202
O119	O	0.622770	0.318405	-0.226504
C120	C	0.473722	0.320586	-0.172222
C121	C	0.572964	0.377577	-0.208298
H122	H	0.433431	0.368407	-0.157473
H123	H	0.436576	0.259685	-0.228549
H124	H	0.477711	0.291481	-0.103865
H125	H	0.569060	0.406745	-0.276638
H126	H	0.610071	0.438429	-0.151911
H127	H	0.288389	-0.176908	-0.195691
H128	H	0.651052	-0.418197	0.325573
H129	H	0.707089	-0.374767	0.495713
O130	O	0.778592	-0.319378	0.009851
C131	C	0.724376	-0.442288	-0.121157
C132	C	0.758383	-0.415904	-0.017997
H133	H	0.708046	-0.520325	-0.143710
H134	H	0.658849	-0.427807	-0.125861
H135	H	0.781126	-0.398236	-0.170297
H136	H	0.701698	-0.459938	0.031206
H137	H	0.823933	-0.430361	-0.013370
O138	O	1.188899	-0.000984	0.013545
C139	C	1.293616	0.161034	0.007584
C140	C	1.195816	0.085159	-0.014610
H141	H	1.299247	0.230694	-0.015188
H142	H	1.305733	0.170479	0.087266
H143	H	1.348298	0.138075	-0.032958
H144	H	1.141073	0.108060	0.025871
H145	H	1.183778	0.075728	-0.094307
H146	H	1.118953	-0.055348	-0.159757
O147	O	1.167381	0.391048	-0.424676
C148	C	1.281276	0.407416	-0.552476
C149	C	1.182060	0.350410	-0.516344
H150	H	1.293181	0.374571	-0.626585
H151	H	1.289946	0.483339	-0.555696
H152	H	1.334179	0.406506	-0.501856
H153	H	1.129095	0.351244	-0.566931
H154	H	1.173468	0.274515	-0.513101
O155	O	0.676462	0.506925	-0.246175
C156	C	0.592928	0.590661	-0.302205
C157	C	0.662239	0.542440	-0.327341
H158	H	0.581422	0.619406	-0.367807
H159	H	0.523745	0.537194	-0.277113
H160	H	0.622359	0.651146	-0.243055
H161	H	0.632894	0.481962	-0.386510
H162	H	0.731411	0.595967	-0.352376
H163	H	0.618802	-0.234357	-0.390030
O164	O	0.264072	-0.292317	-0.638954
C165	C	0.360134	-0.248750	-0.779498
C166	C	0.343595	-0.220694	-0.673450
H167	H	0.424415	-0.190849	-0.807426
H168	H	0.371330	-0.317622	-0.788139
H169	H	0.296850	-0.258525	-0.821460
H170	H	0.406852	-0.210867	-0.631422
H171	H	0.332359	-0.151846	-0.664883
H172	H	0.413430	-0.282126	-0.588146
H173	H	0.412579	-0.148013	-0.075883
H174	H	0.564470	-0.141697	-0.040213
O175	O	0.726480	-0.156653	-0.084802
C176	C	0.770744	-0.114487	0.079520
C177	C	0.695481	-0.131977	0.006830
H178	H	0.745718	-0.094514	0.153617
H179	H	0.784528	-0.181324	0.079094
H180	H	0.837743	-0.054606	0.059642
H181	H	0.628437	-0.191825	0.026656
H182	H	0.681778	-0.065094	0.007268
O183	O	0.099316	-0.273595	-0.578969
C184	C	-0.058825	-0.365306	-0.627027
C185	C	0.016522	-0.347758	-0.554416
H186	H	-0.125776	-0.425279	-0.607214
H187	H	-0.072704	-0.298513	-0.626530
H188	H	-0.033747	-0.385157	-0.701143
H189	H	-0.008495	-0.327932	-0.480265
H190	H	0.030389	-0.414566	-0.554997
O191	O	0.978508	0.522762	-0.355651
C192	C	1.123509	0.655178	-0.321971
C193	C	1.024260	0.598129	-0.285952
H194	H	1.160521	0.716136	-0.265646
H195	H	1.163917	0.607460	-0.336594
H196	H	1.119538	0.684209	-0.390381
H197	H	1.028145	0.569090	-0.217523
H198	H	0.983890	0.645886	-0.271396
O199	O	1.043246	0.477532	-0.379546
C200	C	1.098981	0.597348	-0.486217
C201	C	1.069055	0.492096	-0.475271
H202	H	1.119874	0.609160	-0.563602
H203	H	1.038483	0.619823	-0.464276
H204	H	1.160807	0.640998	-0.438849
H205	H	1.007251	0.448373	-0.522635
H206	H	1.129606	0.469696	-0.497179
H207	H	1.189018	0.243447	-0.432371
H208	H	1.139650	0.069841	-0.414406
H209	H	0.852323	-0.262090	-0.062736
H210	H	0.678205	-0.397119	0.158162
