data_functionalizedCrystal
_audit_creation_method	'MofGen! by Chris Wilmer'
_symmetry_space_group_name_H-M	'P1'
_symmetry_Int_Tables_number	1
_symmetry_cell_setting	triclinic
loop_
_symmetry_equiv_pos_as_xyz
  x,y,z
_cell_length_a	13.635800
_cell_length_b	17.982959
_cell_length_c	17.982968
_cell_angle_alpha	84.073762
_cell_angle_beta	77.548040
_cell_angle_gamma	102.451857
loop_
_atom_site_label
_atom_site_type_symbol
_atom_site_fract_x
_atom_site_fract_y
_atom_site_fract_z
V1	V	2.004968	0.106127	-0.237869
O2	O	2.001517	-0.004365	-0.233013
O3	O	1.978253	0.209726	-0.236557
O4	O	1.978253	0.104817	-0.341468
O5	O	2.001516	0.101270	-0.127376
V6	V	2.247434	0.092873	-0.224615
O7	O	2.134052	0.135201	-0.266943
O8	O	2.343448	0.063799	-0.195541
O9	O	2.162546	-0.010726	-0.225927
O10	O	2.309583	0.203366	-0.229470
O11	O	2.309584	0.097730	-0.335108
O12	O	2.162545	0.094183	-0.121016
V13	V	2.504968	0.106127	-0.237869
O14	O	2.501517	-0.004365	-0.233013
O15	O	2.478253	0.209726	-0.236557
O16	O	2.478253	0.104817	-0.341468
O17	O	2.501516	0.101270	-0.127376
V18	V	2.747434	0.092873	-0.224615
O19	O	2.634052	0.135201	-0.266943
O20	O	2.843448	0.063799	-0.195541
O21	O	2.662546	-0.010726	-0.225927
O22	O	2.809583	0.203366	-0.229470
O23	O	2.809584	0.097730	-0.335108
O24	O	2.662545	0.094183	-0.121016
C25	C	2.400222	0.234971	-0.232886
C26	C	2.419006	0.319667	-0.232503
C27	C	2.518705	0.363337	-0.236142
C28	C	2.536372	0.442920	-0.235795
C29	C	2.454336	0.478830	-0.231803
C30	C	2.354629	0.435154	-0.228166
C31	C	2.336966	0.355574	-0.228519
C32	C	1.900222	0.234971	-0.232886
C33	C	1.919006	0.319667	-0.232503
C34	C	1.900223	0.101148	-0.366709
C35	C	1.919006	0.100762	-0.451404
C36	C	2.072247	-0.035967	-0.229596
C37	C	2.043082	-0.120662	-0.229983
C38	C	2.018697	0.363349	-0.236136
C39	C	2.036341	0.442930	-0.235781
C40	C	1.954292	0.478826	-0.231789
C41	C	1.854594	0.435138	-0.228158
C42	C	1.836952	0.355560	-0.228518
C43	C	1.925740	0.756070	-0.226707
C44	C	1.943389	0.835654	-0.226345
C45	C	2.125128	0.843439	-0.233970
C46	C	2.107486	0.763861	-0.234330
C47	C	2.007792	0.720181	-0.230704
C48	C	1.988661	0.633891	-0.231090
C49	C	1.973420	0.565114	-0.231397
C50	C	2.018698	0.104399	-0.495087
C51	C	2.036340	0.104036	-0.574666
C52	C	1.954291	0.100042	-0.610563
C53	C	1.854591	0.096403	-0.566874
C54	C	1.836948	0.096760	-0.487295
C55	C	1.925740	0.094960	-0.887806
C56	C	1.943391	0.094605	-0.967391
C57	C	2.125132	0.102236	-0.975178
C58	C	2.107489	0.102593	-0.895599
C59	C	2.007790	0.098950	-0.851916
C60	C	1.988660	0.099342	-0.765627
C61	C	1.973421	0.099655	-0.696851
C62	C	2.072246	0.097854	-0.095770
C63	C	2.043083	0.098236	-0.011075
C64	C	2.400223	0.101148	-0.366709
C65	C	2.419006	0.100762	-0.451404
C66	C	2.572247	-0.035967	-0.229596
C67	C	2.543082	-0.120662	-0.229983
C68	C	2.572246	0.097854	-0.095770
C69	C	2.543083	0.098236	-0.011075
C70	C	2.518703	0.104392	-0.495073
C71	C	2.536363	0.104019	-0.574651
C72	C	2.454326	0.100023	-0.610561
C73	C	2.354621	0.096391	-0.566886
C74	C	2.336961	0.096758	-0.487308
C75	C	2.615877	-0.164331	-0.226346
C76	C	2.588482	-0.243914	-0.226697
C77	C	2.488295	-0.279824	-0.230691
C78	C	2.415494	-0.236149	-0.234326
C79	C	2.442887	-0.156569	-0.233969
C80	C	2.442889	0.102224	0.024815
C81	C	2.415469	0.102574	0.104397
C82	C	2.488247	0.098941	0.148086
C83	C	2.588449	0.094951	0.112191
C84	C	2.615865	0.094596	0.032612
H85	H	2.585514	0.334109	-0.239388
H86	H	2.617563	0.478469	-0.238755
H87	H	1.755765	0.093780	-0.451726
H88	H	2.174300	0.734638	-0.237577
C89	C	2.473778	0.566367	-0.231413
H90	H	2.544906	0.587226	-0.234146
H91	H	2.455819	0.590034	-0.274579
H92	H	2.432614	0.575844	-0.185260
C93	C	2.264399	0.474662	-0.223768
H94	H	2.289206	0.528309	-0.224070
H95	H	2.235759	0.467123	-0.266911
H96	H	2.212570	0.452933	-0.177593
H97	H	2.697460	-0.135104	-0.223095
H98	H	2.255778	0.320022	-0.225552
H99	H	2.585514	0.107648	-0.465846
H100	H	2.085511	0.334127	-0.239380
C101	C	2.108955	0.108793	-0.455608
H102	H	2.170852	0.110900	-0.493023
H103	H	2.117457	0.153748	-0.431819
H104	H	2.094244	0.064428	-0.417633
H105	H	1.787791	0.464372	-0.224912
H106	H	2.255776	0.093804	-0.451759
H107	H	2.647773	-0.279463	-0.223738
H108	H	2.466003	-0.344623	-0.230980
C109	C	2.234799	0.106233	-1.023229
H110	H	2.233558	0.105439	-1.075763
H111	H	2.280849	0.152516	-1.018882
H112	H	2.257637	0.063197	-1.004690
H113	H	2.117518	0.478493	-0.238741
C114	C	2.234796	0.891491	-0.237972
H115	H	2.233560	0.944029	-0.237196
H116	H	2.257640	0.872957	-0.194942
H117	H	2.280844	0.887141	-0.284261
C118	C	1.853133	0.875140	-0.221961
H119	H	1.791233	0.837730	-0.219861
H120	H	1.844627	0.898927	-0.177005
H121	H	1.867856	0.913118	-0.266325
C122	C	2.146000	0.108033	-0.622713
H123	H	2.192339	0.110470	-0.589939
H124	H	2.145055	0.063392	-0.646822
H125	H	2.168267	0.152712	-0.661016
H126	H	2.383616	0.105181	-0.010747
C127	C	2.646043	0.108027	-0.622681
H128	H	2.692369	0.110475	-0.589896
H129	H	2.645124	0.063389	-0.646790
H130	H	2.668308	0.152707	-0.660983
H131	H	2.333920	-0.265399	-0.237576
C132	C	2.197742	0.106984	-0.856116
H133	H	2.259642	0.109090	-0.893529
H134	H	2.206244	0.151937	-0.832325
H135	H	2.183026	0.062617	-0.818143
H136	H	2.465913	0.099240	0.212882
C137	C	1.816080	0.708031	-0.222712
H138	H	1.769743	0.740808	-0.220274
H139	H	1.817021	0.683921	-0.267351
H140	H	1.793813	0.669730	-0.178032
C141	C	2.668497	0.090965	0.160255
H142	H	2.637813	0.091758	0.212786
H143	H	2.690714	0.044687	0.155916
H144	H	2.726346	0.134008	0.141721
H145	H	2.468721	0.099725	-0.675359
C146	C	1.727291	0.307509	-0.224516
H147	H	1.680950	0.340282	-0.222078
H148	H	1.728233	0.283396	-0.269153
H149	H	1.705029	0.269209	-0.179834
H150	H	1.876570	0.091351	-0.996615
C151	C	1.816080	0.090962	-0.839767
H152	H	1.769747	0.088542	-0.872547
H153	H	1.793808	0.046287	-0.801467
H154	H	1.817026	0.135606	-0.815657
C155	C	2.726087	0.090223	-0.006861
H156	H	2.765499	0.088120	0.030560
H157	H	2.722572	0.045273	-0.030655
H158	H	2.758199	0.134593	-0.044830
H159	H	1.787785	0.093146	-0.596106
H160	H	2.287832	0.093138	-0.596136
H161	H	2.383606	-0.121017	-0.236937
H162	H	2.333876	0.105822	0.133611
