data_functionalizedCrystal
_audit_creation_method	'MofGen! by Chris Wilmer'
_symmetry_space_group_name_H-M	'P1'
_symmetry_Int_Tables_number	1
_symmetry_cell_setting	triclinic
loop_
_symmetry_equiv_pos_as_xyz
  x,y,z
_cell_length_a	21.295418
_cell_length_b	25.639239
_cell_length_c	21.295411
_cell_angle_alpha	90.019526
_cell_angle_beta	90.043738
_cell_angle_gamma	90.054499
loop_
_atom_site_label
_atom_site_type_symbol
_atom_site_fract_x
_atom_site_fract_y
_atom_site_fract_z
Zn1	Zn	0.962320	-0.207990	0.356243
Zn2	Zn	1.462320	0.292010	0.856243
Zn3	Zn	0.962207	-0.295410	0.250972
Zn4	Zn	1.462207	0.204590	0.750972
Zn5	Zn	0.857043	-0.208014	0.250953
Zn6	Zn	1.357043	0.291986	0.750953
Zn7	Zn	0.856998	-0.295420	0.356169
Zn8	Zn	1.356998	0.204580	0.856169
O9	O	0.909642	-0.251708	0.303584
O10	O	1.409642	0.248292	0.803584
O11	O	1.050395	-0.219572	0.342318
O12	O	1.550395	0.280428	0.842318
O13	O	0.948229	-0.283822	0.162880
O14	O	1.448229	0.216178	0.662880
O15	O	0.871075	-0.134846	0.264943
O16	O	1.371075	0.365154	0.764943
O17	O	1.050312	-0.283799	0.264976
O18	O	1.550312	0.216201	0.764976
O19	O	0.948421	-0.134828	0.342299
O20	O	1.448421	0.365172	0.842299
O21	O	0.870965	-0.219613	0.162866
O22	O	1.370965	0.280387	0.662866
O23	O	0.768948	-0.219623	0.264871
O24	O	1.268948	0.280377	0.764871
O25	O	0.870997	-0.283816	0.444268
O26	O	1.370997	0.216184	0.944268
O27	O	0.768914	-0.283840	0.342172
O28	O	1.268914	0.216160	0.842172
O29	O	0.948377	-0.219582	0.444322
O30	O	1.448377	0.280418	0.944322
O31	O	0.948185	-0.368576	0.264904
O32	O	1.448185	0.131424	0.764904
O33	O	0.870888	-0.368584	0.342191
O34	O	1.370888	0.131416	0.842191
C35	C	0.746090	-0.251736	0.303512
C36	C	1.246090	0.248264	0.803512
C37	C	0.676122	-0.251760	0.303496
C38	C	1.176122	0.248240	0.803496
C39	C	0.909536	-0.387551	0.303555
C40	C	1.409536	0.112449	0.803555
C41	C	0.909548	-0.445665	0.303564
C42	C	1.409548	0.054335	0.803564
C43	C	0.643255	-0.285242	0.343686
C44	C	1.143255	0.214758	0.843686
C45	C	0.577512	-0.285229	0.343715
C46	C	1.077512	0.214771	0.843715
C47	C	0.544640	-0.251740	0.303541
C48	C	1.044640	0.248260	0.803541
C49	C	0.577515	-0.218252	0.263347
C50	C	1.077515	0.281748	0.763347
C51	C	0.643257	-0.218262	0.263325
C52	C	1.143257	0.281738	0.763325
N53	N	0.441365	-0.247648	0.248483
N54	N	0.941365	0.252352	0.748483
N55	N	0.378913	-0.247641	0.248506
N56	N	0.878913	0.252359	0.748506
C57	C	0.346565	-0.251707	0.303608
C58	C	0.846565	0.248293	0.803608
N59	N	0.379028	-0.255789	0.358686
N60	N	0.879028	0.244211	0.858686
N61	N	0.441485	-0.255799	0.358662
N62	N	0.941485	0.244201	0.858662
C63	C	0.473354	-0.251725	0.303561
C64	C	0.973354	0.248275	0.803561
C65	C	0.242412	-0.285176	0.343832
C66	C	0.742412	0.214824	0.843832
C67	C	0.176668	-0.285160	0.343862
C68	C	0.676668	0.214840	0.843862
C69	C	0.176673	-0.218185	0.263489
C70	C	0.676673	0.281815	0.763489
C71	C	0.242415	-0.218199	0.263465
C72	C	0.742415	0.281801	0.763465
C73	C	0.275281	-0.251697	0.303636
C74	C	0.775281	0.248303	0.803636
C75	C	0.949996	-0.806011	0.263409
C76	C	1.449996	-0.306011	0.763409
C77	C	0.950020	-0.860616	0.263418
C78	C	1.450020	-0.360616	0.763418
O79	O	0.984300	-0.888838	0.229245
O80	O	1.484300	-0.388838	0.729245
N81	N	0.909753	-0.887947	0.303626
N82	N	1.409753	-0.387947	0.803626
C83	C	0.869463	-0.860672	0.343833
C84	C	1.369463	-0.360672	0.843833
O85	O	0.835215	-0.888934	0.378034
O86	O	1.335215	-0.388934	0.878034
C87	C	0.869442	-0.806069	0.343827
C88	C	1.369442	-0.306069	0.843827
C89	C	0.909708	-0.778740	0.303612
C90	C	1.409708	-0.278740	0.803612
C91	C	0.990259	-0.778683	0.223198
C92	C	1.490259	-0.278683	0.723198
C93	C	0.990233	-0.724082	0.223188
C94	C	1.490233	-0.224082	0.723188
C95	C	0.949945	-0.696810	0.263391
C96	C	1.449945	-0.196810	0.763391
C97	C	0.909682	-0.724139	0.303603
C98	C	1.409682	-0.224139	0.803603
C99	C	0.829156	-0.778794	0.384037
C100	C	1.329156	-0.278794	0.884037
C101	C	0.829139	-0.724187	0.384028
C102	C	1.329139	-0.224187	0.884028
C103	C	0.869404	-0.696858	0.343812
C104	C	1.369404	-0.196858	0.843812
C105	C	0.869369	-0.642267	0.343796
C106	C	1.369369	-0.142267	0.843796
N107	N	0.909636	-0.614935	0.303588
N108	N	1.409636	-0.114935	0.803588
C109	C	0.949924	-0.642207	0.263385
C110	C	1.449924	-0.142207	0.763385
C111	C	0.869510	-0.975343	0.343842
C112	C	1.369510	-0.475343	0.843842
C113	C	0.869527	-1.029945	0.343845
C114	C	1.369527	-0.529945	0.843845
C115	C	0.950086	-1.029885	0.263431
C116	C	1.450086	-0.529885	0.763431
C117	C	0.950065	-0.975282	0.263425
C118	C	1.450065	-0.475282	0.763425
C119	C	0.909778	-0.948011	0.303634
C120	C	1.409778	-0.448011	0.803634
C121	C	0.949868	-0.527542	0.263369
C122	C	1.449868	-0.027542	0.763369
C123	C	0.949837	-0.472937	0.263361
C124	C	1.449837	0.027063	0.763361
C125	C	0.869281	-0.473001	0.343778
C126	C	1.369281	0.026999	0.843778
C127	C	0.869309	-0.527602	0.343783
C128	C	1.369309	-0.027602	0.843783
C129	C	0.909607	-0.554871	0.303577
C130	C	1.409607	-0.054871	0.803577
O131	O	0.835108	-0.614010	0.377953
O132	O	1.335108	-0.114010	0.877953
O133	O	0.984172	-0.613939	0.229195
O134	O	1.484172	-0.113939	0.729195
C135	C	1.073832	-0.251681	0.303657
C136	C	1.573832	0.248319	0.803657
C137	C	1.143801	-0.251670	0.303688
C138	C	1.643801	0.248330	0.803688
C139	C	0.909694	-0.251697	0.467774
C140	C	1.409694	0.248303	0.967774
C141	C	0.909717	-0.251693	0.537743
C142	C	1.409717	0.248307	1.037743
C143	C	0.909766	-0.115335	0.303627
C144	C	1.409766	0.384665	0.803627
C145	C	0.909818	-0.057221	0.303645
C146	C	1.409818	0.442779	0.803645
C147	C	0.909626	-0.251682	0.140032
C148	C	1.409626	0.248318	0.640032
C149	C	0.909726	-0.251539	0.070065
C150	C	1.409726	0.248461	0.570065
C151	C	0.950007	-0.218244	0.570639
C152	C	1.450007	0.281756	1.070639
C153	C	0.950006	-0.218221	0.636381
C154	C	1.450006	0.281779	1.136381
C155	C	0.909721	-0.251657	0.669225
C156	C	1.409721	0.248343	1.169225
C157	C	0.869424	-0.285108	0.636321
C158	C	1.369424	0.214892	1.136321
C159	C	0.869421	-0.285126	0.570580
C160	C	1.369421	0.214874	1.070580
N161	N	0.904857	-0.297396	0.772441
N162	N	1.404857	0.202604	1.272441
N163	N	0.904863	-0.297377	0.834892
N164	N	1.404863	0.202623	1.334892
C165	C	0.909725	-0.251604	0.867300
C166	C	1.409725	0.248396	1.367300
N167	N	0.914594	-0.205848	0.834897
N168	N	1.414594	0.294152	1.334897
N169	N	0.914591	-0.205867	0.772440
N170	N	1.414591	0.294133	1.272440
C171	C	0.909719	-0.251641	0.740511
C172	C	1.409719	0.248359	1.240511
C173	C	0.950017	-0.218128	0.971482
C174	C	1.450017	0.281872	1.471482
C175	C	0.950011	-0.218104	1.037225
C176	C	1.450011	0.281896	1.537225
C177	C	0.869433	-0.284995	1.037164
C178	C	1.369433	0.215005	1.537164
C179	C	0.869435	-0.285014	0.971422
C180	C	1.369435	0.214986	1.471422
C181	C	0.909730	-0.251581	0.938584
C182	C	1.409730	0.248419	1.438584
H183	H	0.550746	-0.312494	0.376445
H184	H	1.050746	0.187506	0.876445
N185	N	0.825986	-0.321060	1.072581
N186	N	1.325986	0.178940	1.572581
H187	H	0.800463	-0.342254	1.041763
H188	H	1.300463	0.157746	1.541763
H189	H	0.796874	-0.299774	1.099836
H190	H	1.296874	0.200226	1.599836
N191	N	1.033709	-0.808094	0.179827
N192	N	1.533709	-0.308094	0.679827
H193	H	1.062883	-0.830711	0.205439
H194	H	1.562883	-0.330711	0.705439
H195	H	1.059166	-0.782457	0.154364
H196	H	1.559166	-0.282457	0.654364
N197	N	0.678702	-0.321371	0.387012
N198	N	1.178702	0.178629	0.887012
H199	H	0.647901	-0.342580	0.412477
H200	H	1.147901	0.157420	0.912477
H201	H	0.706040	-0.300130	0.416183
H202	H	1.206040	0.199870	0.916183
N203	N	0.542065	-0.182137	0.220008
N204	N	1.042065	0.317863	0.720008
H205	H	0.495430	-0.187215	0.226116
H206	H	0.995430	0.312785	0.726116
H207	H	0.553503	-0.190229	0.175033
H208	H	1.053503	0.309771	0.675033
H209	H	0.836477	-0.450788	0.376509
H210	H	1.336477	0.049212	0.876509
N211	N	0.678711	-0.182144	0.219979
N212	N	1.178711	0.317856	0.719979
H213	H	0.647914	-0.160923	0.194535
H214	H	1.147914	0.339077	0.694535
H215	H	0.705927	-0.203392	0.190789
H216	H	1.205927	0.296608	0.690789
H217	H	0.982893	-1.052099	0.230698
H218	H	1.482893	-0.552099	0.730698
N219	N	0.993465	-0.182185	0.535221
N220	N	1.493465	0.317815	1.035221
H221	H	1.018988	-0.160992	0.566041
H222	H	1.518988	0.339008	1.066041
H223	H	0.967863	-0.157999	0.507927
H224	H	1.467863	0.342001	1.007927
H225	H	0.269173	-0.312450	0.376545
H226	H	0.769173	0.187550	0.876545
N227	N	0.826087	-1.059418	0.387209
N228	N	1.326087	-0.559418	0.887209
H229	H	0.800562	-1.033851	0.412673
H230	H	1.300562	-0.533851	0.912673
H231	H	0.851702	-1.082035	0.416381
H232	H	1.351702	-0.582035	0.916381
N233	N	0.785728	-0.808255	0.427421
N234	N	1.285728	-0.308255	0.927421
H235	H	0.811305	-0.830869	0.456630
H236	H	1.311305	-0.330869	0.956630
H237	H	0.756577	-0.830921	0.401773
H238	H	1.256577	-0.330921	0.901773
N239	N	0.141215	-0.321276	0.387210
N240	N	0.641215	0.178724	0.887210
H241	H	0.172013	-0.342499	0.412650
H242	H	0.672013	0.157501	0.912650
H243	H	0.113877	-0.345432	0.361535
H244	H	0.613877	0.154568	0.861535
N245	N	0.277862	-0.182082	0.220114
N246	N	0.777862	0.317918	0.720114
H247	H	0.266361	-0.190143	0.175122
H248	H	0.766361	0.309857	0.675122
H249	H	0.324486	-0.187182	0.226246
H250	H	0.824486	0.312818	0.726246
H251	H	0.982853	-0.953034	0.230679
H252	H	1.482853	-0.453034	0.730679
H253	H	0.149909	-0.190915	0.230781
H254	H	0.649909	0.309085	0.730781
H255	H	0.982626	-0.450687	0.230611
H256	H	1.482626	0.049313	0.730611
N257	N	0.993462	-0.182143	0.671873
N258	N	1.493462	0.317857	1.171873
H259	H	1.018988	-0.160966	0.641095
H260	H	1.518988	0.339034	1.141095
H261	H	1.022572	-0.203418	0.699169
H262	H	1.522572	0.296582	1.199169
N263	N	0.993331	-0.556949	0.220005
N264	N	1.493331	-0.056949	0.720005
H265	H	1.018830	-0.531344	0.194532
H266	H	1.518830	-0.031344	0.694532
H267	H	0.967733	-0.579643	0.190843
H268	H	1.467733	-0.079643	0.690843
N269	N	1.033672	-0.694610	0.179823
N270	N	1.533672	-0.194610	0.679823
H271	H	1.059198	-0.720179	0.154363
H272	H	1.559198	-0.220179	0.654363
H273	H	1.062781	-0.671918	0.205487
H274	H	1.562781	-0.171918	0.705487
H275	H	0.796333	-0.701986	0.416773
H276	H	1.296333	-0.201986	0.916773
N277	N	0.825979	-0.321174	0.671743
N278	N	1.325979	0.178826	1.171743
H279	H	0.800455	-0.342367	0.640925
H280	H	1.300455	0.157633	1.140925
H281	H	0.796869	-0.299889	0.699001
H282	H	1.296869	0.200111	1.199001
H283	H	0.836609	-0.312363	0.543796
H284	H	1.336609	0.187637	1.043796
N285	N	0.826050	-0.945931	0.387208
N286	N	1.326050	-0.445931	0.887208
H287	H	0.800545	-0.971535	0.412677
H288	H	1.300545	-0.471535	0.912677
H289	H	0.796921	-0.923317	0.361545
H290	H	1.296921	-0.423317	0.861545
H291	H	0.982824	-0.190902	0.944744
H292	H	1.482824	0.309098	1.444744
N293	N	0.825875	-0.557082	0.387150
N294	N	1.325875	-0.057082	0.887150
H295	H	0.800347	-0.531518	0.412614
H296	H	1.300347	-0.031518	0.912614
H297	H	0.851496	-0.579695	0.416319
H298	H	1.351496	-0.079695	0.916319
H299	H	0.982819	-0.190863	1.064008
H300	H	1.482819	0.309137	1.564008
N301	N	0.825969	-0.321082	0.935936
N302	N	1.325969	0.178918	1.435936
H303	H	0.800444	-0.342257	0.966716
H304	H	1.300444	0.157743	1.466716
H305	H	0.851557	-0.345285	0.908670
H306	H	1.351557	0.154715	1.408670
