data_functionalizedCrystal
_audit_creation_method	'MofGen! by Chris Wilmer'
_symmetry_space_group_name_H-M	'P1'
_symmetry_Int_Tables_number	1
_symmetry_cell_setting	triclinic
loop_
_symmetry_equiv_pos_as_xyz
  x,y,z
_cell_length_a	21.295417
_cell_length_b	21.295420
_cell_length_c	19.120904
_cell_angle_alpha	87.578187
_cell_angle_beta	92.408338
_cell_angle_gamma	89.975452
loop_
_atom_site_label
_atom_site_type_symbol
_atom_site_fract_x
_atom_site_fract_y
_atom_site_fract_z
Zn1	Zn	-0.265905	-0.947122	-0.397115
Zn2	Zn	0.067428	-0.613788	-0.063782
Zn3	Zn	0.400761	-0.280455	0.269551
Zn4	Zn	-0.366684	-0.951530	-0.279660
Zn5	Zn	-0.033350	-0.618197	0.053674
Zn6	Zn	0.299983	-0.284863	0.387007
Zn7	Zn	-0.261422	-0.846350	-0.279679
Zn8	Zn	0.071911	-0.513017	0.053654
Zn9	Zn	0.405244	-0.179683	0.386987
Zn10	Zn	-0.371128	-0.841816	-0.397065
Zn11	Zn	-0.037794	-0.508483	-0.063732
Zn12	Zn	0.295539	-0.175150	0.269602
O13	O	-0.316285	-0.896704	-0.338380
O14	O	0.017049	-0.563371	-0.005047
O15	O	0.350382	-0.230038	0.328287
O16	O	-0.279290	-1.035795	-0.381548
O17	O	0.054043	-0.702462	-0.048214
O18	O	0.387377	-0.369129	0.285119
O19	O	-0.348985	-0.941320	-0.181380
O20	O	-0.015651	-0.607986	0.151953
O21	O	0.317682	-0.274653	0.485286
O22	O	-0.173929	-0.859770	-0.295287
O23	O	0.159405	-0.526437	0.038047
O24	O	0.492738	-0.193103	0.371380
O25	O	-0.353332	-1.039034	-0.295253
O26	O	-0.019998	-0.705701	0.038080
O27	O	0.313335	-0.372367	0.371413
O28	O	-0.177222	-0.933807	-0.381566
O29	O	0.156111	-0.600473	-0.048233
O30	O	0.489444	-0.267140	0.285100
O31	O	-0.271649	-0.864044	-0.181395
O32	O	0.061684	-0.530711	0.151939
O33	O	0.395017	-0.197378	0.485272
O34	O	-0.275958	-0.757660	-0.295238
O35	O	0.057375	-0.424326	0.038095
O36	O	0.390708	-0.090993	0.371429
O37	O	-0.360906	-0.852043	-0.495354
O38	O	-0.027572	-0.518710	-0.162021
O39	O	0.305761	-0.185377	0.171313
O40	O	-0.356559	-0.754329	-0.381481
O41	O	-0.023225	-0.420996	-0.048147
O42	O	0.310108	-0.087662	0.285186
O43	O	-0.283599	-0.929411	-0.495391
O44	O	0.049734	-0.596077	-0.162057
O45	O	0.383067	-0.262744	0.171276
O46	O	-0.455362	-0.936924	-0.295205
O47	O	-0.122028	-0.603590	0.038129
O48	O	0.211305	-0.270257	0.371462
O49	O	-0.458626	-0.856318	-0.381462
O50	O	-0.125293	-0.522984	-0.048129
O51	O	0.208040	-0.189651	0.285205
C52	C	-0.316255	-0.733154	-0.338356
C53	C	0.017079	-0.399820	-0.005023
C54	C	0.350412	-0.066487	0.328310
C55	C	-0.316258	-0.663185	-0.338363
C56	C	0.017076	-0.329852	-0.005030
C57	C	0.350409	0.003481	0.328304
C58	C	-0.277806	-0.162037	-0.383380
C59	C	0.055527	0.171296	-0.050047
C60	C	0.388860	0.504629	0.283286
C61	C	-0.277804	-0.227780	-0.383382
C62	C	0.055529	0.105554	-0.050048
C63	C	0.388863	0.438887	0.283285
C64	C	-0.316285	-0.262345	-0.338382
C65	C	0.017049	0.070988	-0.005049
C66	C	0.350382	0.404321	0.328285
C67	C	-0.354783	-0.231163	-0.293390
C68	C	-0.021450	0.102171	0.039943
C69	C	0.311884	0.435504	0.373277
C70	C	-0.354789	-0.165421	-0.293395
C71	C	-0.021456	0.167912	0.039938
C72	C	0.311878	0.501246	0.373272
N73	N	-0.318681	-0.367894	-0.276887
N74	N	0.014652	-0.034561	0.056447
N75	N	0.347985	0.298773	0.389780
N76	N	-0.318672	-0.430346	-0.276884
N77	N	0.014661	-0.097012	0.056449
N78	N	0.347995	0.236321	0.389782
C79	C	-0.316269	-0.460421	-0.338366
C80	C	0.017064	-0.127087	-0.005032
C81	C	0.350397	0.206246	0.328301
N82	N	-0.313864	-0.425685	-0.399851
N83	N	0.019469	-0.092351	-0.066518
N84	N	0.352802	0.240982	0.266815
N85	N	-0.313871	-0.363227	-0.399853
N86	N	0.019463	-0.029894	-0.066520
N87	N	0.352796	0.303439	0.266814
C88	C	-0.316283	-0.333631	-0.338372
C89	C	0.017051	-0.000298	-0.005039
C90	C	0.350384	0.333036	0.328295
C91	C	-0.277774	-0.562881	-0.383360
C92	C	0.055559	-0.229547	-0.050026
C93	C	0.388893	0.103786	0.283307
C94	C	-0.277776	-0.628624	-0.383362
C95	C	0.055558	-0.295291	-0.050029
C96	C	0.388891	0.038042	0.283304
C97	C	-0.354751	-0.632006	-0.293364
C98	C	-0.021418	-0.298673	0.039969
C99	C	0.311915	0.034660	0.373302
C100	C	-0.354753	-0.566264	-0.293368
C101	C	-0.021420	-0.232930	0.039965
C102	C	0.311914	0.100403	0.373299
C103	C	-0.316261	-0.531705	-0.338365
C104	C	0.017072	-0.198372	-0.005031
C105	C	0.350406	0.134962	0.328302
C106	C	-0.479835	-0.896623	-0.338341
C107	C	-0.146502	-0.563290	-0.005008
C108	C	0.186832	-0.229957	0.328326
C109	C	-0.549803	-0.896645	-0.338348
C110	C	-0.216470	-0.563312	-0.005015
C111	C	0.116863	-0.229979	0.328319
C112	C	-0.580951	-0.938651	-0.293480
C113	C	-0.247617	-0.605318	0.039854
C114	C	0.085716	-0.271984	0.373187
C115	C	-0.646694	-0.938680	-0.293496
C116	C	-0.313360	-0.605347	0.039838
C117	C	0.019973	-0.272013	0.373171
C118	C	-0.681287	-0.896692	-0.338372
C119	C	-0.347953	-0.563359	-0.005039
C120	C	-0.014620	-0.230026	0.328295
C121	C	-0.650132	-0.854684	-0.383249
C122	C	-0.316798	-0.521350	-0.049916
C123	C	0.016535	-0.188017	0.283418
C124	C	-0.584390	-0.854660	-0.383237
C125	C	-0.251057	-0.521327	-0.049903
C126	C	0.082277	-0.187993	0.283430
N127	N	-0.784751	-0.841420	-0.343718
N128	N	-0.451418	-0.508087	-0.010385
N129	N	-0.118084	-0.174754	0.322948
N130	N	-0.847203	-0.841444	-0.343726
N131	N	-0.513870	-0.508111	-0.010392
N132	N	-0.180536	-0.174778	0.322941
C133	C	-0.879363	-0.896761	-0.338412
C134	C	-0.546030	-0.563428	-0.005079
C135	C	-0.212696	-0.230095	0.328254
N136	N	-0.846711	-0.952055	-0.333078
N137	N	-0.513378	-0.618721	0.000256
N138	N	-0.180045	-0.285388	0.333589
N139	N	-0.784254	-0.952030	-0.333067
N140	N	-0.450920	-0.618697	0.000267
N141	N	-0.117587	-0.285363	0.333600
C142	C	-0.752573	-0.896713	-0.338391
C143	C	-0.419239	-0.563380	-0.005057
C144	C	-0.085906	-0.230047	0.328276
C145	C	-0.981796	-0.938802	-0.293559
C146	C	-0.648463	-0.605468	0.039774
C147	C	-0.315130	-0.272135	0.373108
C148	C	-1.047541	-0.938831	-0.293580
C149	C	-0.714208	-0.605498	0.039754
C150	C	-0.380874	-0.272165	0.373087
C151	C	-1.050977	-0.854830	-0.383329
C152	C	-0.717644	-0.521496	-0.049996
C153	C	-0.384311	-0.188163	0.283337
C154	C	-0.985234	-0.854805	-0.383312
C155	C	-0.651901	-0.521472	-0.049979
C156	C	-0.318568	-0.188139	0.283354
C157	C	-0.950648	-0.896791	-0.338423
C158	C	-0.617314	-0.563457	-0.005090
C159	C	-0.283981	-0.230124	0.328243
C160	C	-0.152096	-0.896802	-0.338434
C161	C	0.181237	-0.563469	-0.005101
C162	C	0.514570	-0.230136	0.328232
C163	C	-0.082129	-0.896844	-0.338458
C164	C	0.251204	-0.563511	-0.005124
C165	C	0.584537	-0.230177	0.328209
C166	C	-0.323248	-0.889730	-0.521568
C167	C	0.010085	-0.556396	-0.188235
C168	C	0.343418	-0.223063	0.145098
C169	C	-0.326216	-0.886757	-0.599632
C170	C	0.007118	-0.553424	-0.266299
C171	C	0.340451	-0.220091	0.067034
C172	C	-0.316307	-0.060894	-0.338398
C173	C	0.017026	0.272439	-0.005065
C174	C	0.350359	0.605773	0.328268
C175	C	-0.316297	-0.130862	-0.338392
C176	C	0.017036	0.202471	-0.005058
C177	C	0.350370	0.535804	0.328275
C178	C	-0.287362	-0.925640	-0.636327
C179	C	0.045971	-0.592307	-0.302994
C180	C	0.379304	-0.258973	0.030339
C181	C	-0.290148	-0.922839	-0.709677
C182	C	0.043185	-0.589506	-0.376343
C183	C	0.376519	-0.256173	-0.043010
C184	C	-0.331791	-0.881159	-0.746330
C185	C	0.001542	-0.547826	-0.412996
C186	C	0.334876	-0.214492	-0.079663
C187	C	-0.370646	-0.842272	-0.709630
C188	C	-0.037312	-0.508939	-0.376296
C189	C	0.296021	-0.175605	-0.042963
C190	C	-0.367856	-0.845070	-0.636282
C191	C	-0.034523	-0.511737	-0.302948
C192	C	0.298810	-0.178403	0.030385
C193	C	-0.342224	-0.870694	-0.967792
C194	C	-0.008890	-0.537360	-0.634459
C195	C	0.324443	-0.204027	-0.301126
C196	C	-0.345012	-0.867900	-1.041146
C197	C	-0.011678	-0.534567	-0.707812
C198	C	0.321655	-0.201233	-0.374479
C199	C	-0.264513	-0.948467	-1.041188
C200	C	0.068821	-0.615134	-0.707854
C201	C	0.402154	-0.281800	-0.374521
C202	C	-0.261730	-0.951264	-0.967838
C203	C	0.071604	-0.617930	-0.634505
C204	C	0.404937	-0.284597	-0.301172
C205	C	-0.300582	-0.912374	-0.931144
C206	C	0.032751	-0.579041	-0.597811
C207	C	0.366085	-0.245708	-0.264478
C208	C	-0.334641	-0.878297	-0.821305
C209	C	-0.001307	-0.544964	-0.487971
C210	C	0.332026	-0.211630	-0.154638
C211	C	-0.297729	-0.915234	-0.856171
C212	C	0.035605	-0.581900	-0.522838
C213	C	0.368938	-0.248567	-0.189504
C214	C	-0.309303	-0.903688	-0.155904
C215	C	0.024030	-0.570355	0.177429
C216	C	0.357364	-0.237022	0.510762
C217	C	-0.306158	-0.906783	-0.077841
C218	C	0.027175	-0.573449	0.255493
C219	C	0.360509	-0.240116	0.588826
H220	H	-0.552792	-0.972839	-0.256930
H221	H	-0.219459	-0.639506	0.076403
H222	H	0.113875	-0.306173	0.409736
Br223	Br	-0.688975	-0.995692	-0.232599
Br224	Br	-0.355642	-0.662358	0.100734
Br225	Br	-0.022309	-0.329025	0.434068
Br226	Br	-0.225537	-0.515976	-0.444426
Br227	Br	0.107796	-0.182642	-0.111092
Br228	Br	0.441129	0.150691	0.222241
Br229	Br	-0.407028	-0.123109	-0.232332
Br230	Br	-0.073695	0.210224	0.101002
Br231	Br	0.259638	0.543557	0.434335
H232	H	-0.678301	-0.820498	-0.419789
H233	H	-0.344968	-0.487165	-0.086456
H234	H	-0.011635	-0.153831	0.246878
H235	H	-0.386093	-0.540881	-0.256730
H236	H	-0.052760	-0.207548	0.076603
H237	H	0.280573	0.125786	0.409936
H238	H	-0.232880	-0.980127	-1.071072
H239	H	0.100453	-0.646794	-0.737738
H240	H	0.433786	-0.313461	-0.404405
Br241	Br	-0.225572	-0.115139	-0.444451
Br242	Br	0.107761	0.218195	-0.111118
Br243	Br	0.441094	0.551528	0.222215
H244	H	-0.386088	-0.660149	-0.256730
H245	H	-0.052755	-0.326815	0.076603
H246	H	0.280578	0.006518	0.409936
H247	H	-0.373870	-0.839036	-0.937925
H248	H	-0.040536	-0.505703	-0.604592
H249	H	0.292797	-0.172370	-0.271259
Br250	Br	-0.542115	-0.797649	-0.444135
Br251	Br	-0.208782	-0.464316	-0.110802
Br252	Br	0.124551	-0.130982	0.222532
Br253	Br	-0.934853	-0.995778	-0.232638
Br254	Br	-0.601520	-0.662445	0.100696
Br255	Br	-0.268187	-0.329111	0.434029
H256	H	-0.399489	-0.813401	-0.606405
H257	H	-0.066155	-0.480068	-0.273072
H258	H	0.267178	-0.146734	0.060261
Br259	Br	-0.230849	-0.982214	-0.586591
Br260	Br	0.102484	-0.648880	-0.253258
Br261	Br	0.435818	-0.315547	0.080076
H262	H	-1.072900	-0.973041	-0.257044
H263	H	-0.739567	-0.639708	0.076289
H264	H	-0.406233	-0.306375	0.409623
H265	H	-1.079142	-0.820645	-0.419872
H266	H	-0.745809	-0.487312	-0.086539
H267	H	-0.412476	-0.153978	0.246795
Br268	Br	-0.225541	-0.670934	-0.444432
Br269	Br	0.107792	-0.337601	-0.111099
Br270	Br	0.441125	-0.004268	0.222235
Br271	Br	-0.401528	-0.811328	-1.090889
Br272	Br	-0.068195	-0.477995	-0.757556
Br273	Br	0.265138	-0.144661	-0.424223
Br274	Br	-0.407012	-0.278071	-0.232323
Br275	Br	-0.073679	0.055263	0.101010
Br276	Br	0.259655	0.388596	0.434343
H277	H	-0.404550	-0.808333	-0.739478
H278	H	-0.071217	-0.474999	-0.406145
H279	H	0.262117	-0.141666	-0.072812
Br280	Br	-0.942959	-0.797793	-0.444207
Br281	Br	-0.609626	-0.464460	-0.110873
Br282	Br	-0.276293	-0.131126	0.222460
H283	H	-0.258511	-0.954503	-0.739551
H284	H	0.074822	-0.621170	-0.406217
H285	H	0.408156	-0.287837	-0.072884
Br286	Br	-0.205214	-1.007834	-0.918100
Br287	Br	0.128119	-0.674501	-0.584766
Br288	Br	0.461452	-0.341167	-0.251433
H289	H	-0.263821	-0.949167	-0.826325
H290	H	0.069513	-0.615834	-0.492992
H291	H	0.402846	-0.282500	-0.159658
H292	H	-0.368549	-0.844364	-0.851156
H293	H	-0.035216	-0.511030	-0.517822
H294	H	0.298117	-0.177697	-0.184489
H295	H	-0.246457	-0.253167	-0.420016
H296	H	0.086876	0.080166	-0.086683
H297	H	0.420209	0.413499	0.246651
