data_functionalizedCrystal
_audit_creation_method	'MofGen! by Chris Wilmer'
_symmetry_space_group_name_H-M	'P1'
_symmetry_Int_Tables_number	1
_symmetry_cell_setting	triclinic
loop_
_symmetry_equiv_pos_as_xyz
  x,y,z
_cell_length_a	18.050591
_cell_length_b	18.050589
_cell_length_c	18.050582
_cell_angle_alpha	90.018205
_cell_angle_beta	90.010544
_cell_angle_gamma	90.027061
loop_
_atom_site_label
_atom_site_type_symbol
_atom_site_fract_x
_atom_site_fract_y
_atom_site_fract_z
Zn1	Zn	1.135292	-0.295730	0.419848
Zn2	Zn	1.135203	-0.419913	0.295668
Zn3	Zn	1.011112	-0.295739	0.295682
Zn4	Zn	1.011060	-0.419880	0.419826
O5	O	1.073167	-0.357815	0.357756
O6	O	1.239205	-0.312213	0.403379
O7	O	1.118727	-0.403459	0.191745
O8	O	1.027644	-0.191813	0.312168
O9	O	1.239140	-0.403450	0.312144
O10	O	1.118879	-0.191806	0.403393
O11	O	1.027557	-0.312228	0.191755
O12	O	0.907180	-0.312196	0.312146
O13	O	1.027555	-0.403393	0.523753
O14	O	0.907142	-0.403402	0.403354
O15	O	1.118828	-0.312181	0.523770
O16	O	1.118676	-0.523833	0.312122
O17	O	1.027468	-0.523809	0.403341
C18	C	0.880215	-0.357797	0.357750
C19	C	0.797669	-0.357807	0.357765
C20	C	0.548844	-0.407508	0.407296
C21	C	0.598214	-0.425579	0.339512
C22	C	0.500548	-0.357831	0.357764
C23	C	0.598260	-0.339783	0.425545
C24	C	0.646534	-0.357821	0.357768
C25	C	0.548831	-0.375937	0.289943
C26	C	0.548873	-0.290110	0.376022
C27	C	0.598221	-0.308155	0.308191
C28	C	0.416450	-0.357838	0.357762
C29	C	0.730630	-0.357813	0.357762
C30	C	1.073077	-0.550767	0.357744
C31	C	1.073107	-0.633313	0.357763
C32	C	1.023557	-0.832778	0.407350
C33	C	1.005459	-0.882211	0.339584
C34	C	1.073180	-0.784444	0.357773
C35	C	1.091314	-0.882092	0.425547
C36	C	1.073249	-0.930429	0.357788
C37	C	1.055046	-0.832790	0.289971
C38	C	1.140933	-0.832666	0.375979
C39	C	1.122861	-0.882077	0.308166
C40	C	1.073138	-0.700345	0.357765
C41	C	1.073291	-1.014525	0.357788
C42	C	1.266872	-0.357834	0.357763
C43	C	1.349418	-0.357842	0.357765
C44	C	1.073196	-0.357782	0.551462
C45	C	1.073208	-0.357768	0.634007
C46	C	1.073277	-0.164110	0.357785
C47	C	1.073324	-0.081564	0.357797
C48	C	1.073181	-0.357795	0.164804
C49	C	1.073312	-0.357599	0.082258
C50	C	1.023612	-0.407302	0.833449
C51	C	1.091367	-0.425457	0.882837
C52	C	1.073245	-0.357712	0.785138
C53	C	1.005527	-0.339536	0.882832
C54	C	1.073274	-0.357658	0.931123
C55	C	1.141036	-0.375902	0.833438
C56	C	1.055150	-0.289950	0.833429
C57	C	1.122952	-0.308079	0.882794
C58	C	1.073227	-0.357744	0.701040
C59	C	1.073300	-0.357626	1.015220
H60	H	0.527183	-0.232860	0.391488
F61	F	0.626547	-0.500428	0.319322
H62	H	1.039807	-0.232684	0.811711
H63	H	1.198184	-0.810889	0.391396
F64	F	0.626641	-0.319836	0.500465
H65	H	1.106690	-0.482739	0.904539
F66	F	1.215926	-0.396058	0.805201
H67	H	1.106625	-0.903748	0.482856
F68	F	1.034949	-0.804604	0.215042
H69	H	0.527211	-0.391267	0.232607
H70	H	0.619764	-0.266140	0.266256
H71	H	0.981530	-0.811130	0.449217
F72	F	1.177752	-0.910194	0.253314
F73	F	0.930607	-0.910655	0.319458
H74	H	0.981678	-0.449294	0.811783
F75	F	0.520504	-0.462463	0.461977
F76	F	1.177891	-0.253235	0.910940
H77	H	0.948246	-0.324186	0.904529
