data_functionalizedCrystal
_audit_creation_method	'MofGen! by Chris Wilmer'
_symmetry_space_group_name_H-M	'P1'
_symmetry_Int_Tables_number	1
_symmetry_cell_setting	triclinic
loop_
_symmetry_equiv_pos_as_xyz
  x,y,z
_cell_length_a	9.065215
_cell_length_b	14.750522
_cell_length_c	9.065218
_cell_angle_alpha	75.975672
_cell_angle_beta	94.984709
_cell_angle_gamma	104.026326
loop_
_atom_site_label
_atom_site_type_symbol
_atom_site_fract_x
_atom_site_fract_y
_atom_site_fract_z
O1	O	1.989356	0.079813	-0.245286
O2	O	1.560072	0.079817	-0.263039
O3	O	1.783587	0.079813	-0.039519
O4	O	1.765842	0.079817	-0.468806
O5	O	1.725651	-0.079844	0.018399
O6	O	1.502137	-0.079840	-0.205121
O7	O	1.931421	-0.079844	-0.187368
Zn8	Zn	1.707581	-0.105191	-0.187049
Zn9	Zn	1.783913	0.105164	-0.263358
O10	O	1.707906	-0.079840	-0.410888
C11	C	1.476118	-0.000011	-0.232375
C12	C	1.312276	-0.000009	-0.227277
N13	N	1.655497	-0.248754	-0.134969
C14	C	1.981349	-0.600531	-0.460917
C15	C	1.944887	-0.701034	-0.424401
C16	C	1.763543	-0.701020	-0.242932
C17	C	1.799985	-0.600514	-0.279438
C18	C	1.908890	-0.550277	-0.388431
C19	C	1.727526	-0.550261	-0.206952
C20	C	1.763971	-0.449764	-0.243451
C21	C	1.872875	-0.399520	-0.352435
C22	C	1.945335	-0.449780	-0.424929
C23	C	1.618629	-0.600500	-0.097952
C24	C	1.546170	-0.550247	-0.025466
C25	C	1.582607	-0.449748	-0.061972
C26	C	1.691511	-0.399504	-0.170957
C27	C	1.510146	-0.399488	0.010522
C28	C	1.546591	-0.298991	-0.025976
C29	C	1.727956	-0.299007	-0.207455
C30	C	2.015376	-0.000014	-0.218033
C31	C	2.179221	-0.000009	-0.223132
C32	C	1.752914	-0.000014	0.044426
C33	C	1.747816	-0.000009	0.208267
N34	N	1.836008	0.248727	-0.315427
C35	C	1.738580	-0.000011	-0.494833
C36	C	1.743680	-0.000009	-0.658677
H37	H	1.816621	-0.258101	-0.296223
H38	H	1.902549	-0.317689	-0.382148
C39	C	2.127823	-0.690952	-0.607459
C40	C	2.024541	-0.756274	-0.504090
H41	H	2.176991	-0.725056	-0.656655
H42	H	2.201592	-0.651741	-0.554632
H43	H	2.074921	-0.651767	-0.681210
H44	H	2.077444	-0.795454	-0.430331
H45	H	1.950761	-0.795501	-0.556919
H46	H	2.034000	-0.408875	-0.513698
H47	H	2.070014	-0.559625	-0.549686
C48	C	1.373656	-0.553536	0.146965
C49	C	1.390444	-0.454713	0.130329
H50	H	1.299749	-0.587625	0.220923
H51	H	1.468246	-0.570030	0.178908
H52	H	1.341560	-0.569973	0.052345
H53	H	1.422550	-0.438274	0.224946
H54	H	1.295834	-0.438212	0.098392
H55	H	1.674876	-0.741937	-0.154184
H56	H	1.588967	-0.682331	-0.068229
C57	C	1.363646	-0.309061	0.157055
C58	C	1.466939	-0.243745	0.053691
H59	H	1.314469	-0.274952	0.206234
H60	H	1.416529	-0.348242	0.230807
H61	H	1.289871	-0.348276	0.104216
H62	H	1.540721	-0.204535	0.106532
H63	H	1.414053	-0.204547	-0.020072
H64	H	1.457503	-0.591163	0.063281
