data_functionalizedCrystal
_audit_creation_method	'MofGen! by Chris Wilmer'
_symmetry_space_group_name_H-M	'P1'
_symmetry_Int_Tables_number	1
_symmetry_cell_setting	triclinic
loop_
_symmetry_equiv_pos_as_xyz
  x,y,z
_cell_length_a	16.120530
_cell_length_b	19.121063
_cell_length_c	16.120297
_cell_angle_alpha	95.179432
_cell_angle_beta	90.128140
_cell_angle_gamma	89.687057
loop_
_atom_site_label
_atom_site_type_symbol
_atom_site_fract_x
_atom_site_fract_y
_atom_site_fract_z
Zn1	Zn	1.228532	-0.355748	-0.551587
Zn2	Zn	1.728532	0.144252	-0.051587
Zn3	Zn	1.229542	-0.467532	-0.417878
Zn4	Zn	1.729542	0.032468	0.082122
Zn5	Zn	1.097153	-0.343883	-0.404937
Zn6	Zn	1.597153	0.156117	0.095063
Zn7	Zn	1.083532	-0.466885	-0.549816
Zn8	Zn	1.583532	0.033115	-0.049816
O9	O	1.159690	-0.408512	-0.481054
O10	O	1.659690	0.091488	0.018946
O11	O	1.344754	-0.375813	-0.540007
O12	O	1.844754	0.124187	-0.040007
O13	O	1.218103	-0.446434	-0.299571
O14	O	1.718103	0.053566	0.200429
O15	O	1.119859	-0.247198	-0.419716
O16	O	1.619859	0.252802	0.080284
O17	O	1.345496	-0.457940	-0.441771
O18	O	1.845496	0.042060	0.058229
O19	O	1.216382	-0.255916	-0.527458
O20	O	1.716382	0.244084	-0.027458
O21	O	1.120838	-0.355590	-0.290063
O22	O	1.620838	0.144410	0.209937
O23	O	0.979258	-0.354963	-0.417999
O24	O	1.479258	0.145037	0.082001
O25	O	1.096644	-0.456838	-0.666641
O26	O	1.596644	0.043162	-0.166641
O27	O	0.969251	-0.445332	-0.524441
O28	O	1.469251	0.054668	-0.024441
O29	O	1.203175	-0.375186	-0.667942
O30	O	1.703175	0.124814	-0.167942
O31	O	1.204895	-0.565705	-0.440054
O32	O	1.704895	-0.065705	0.059946
O33	O	1.097623	-0.565230	-0.536989
O34	O	1.597623	-0.065230	-0.036989
C35	C	0.944155	-0.398790	-0.469624
C36	C	1.444155	0.101210	0.030376
C37	C	0.851946	-0.394649	-0.464754
C38	C	1.351946	0.105351	0.035246
C39	C	0.683119	-0.387072	-0.455870
C40	C	1.183119	0.112928	0.044130
C41	C	0.637096	-0.430006	-0.506302
C42	C	1.137096	0.069994	-0.006302
C43	C	0.543155	-0.425790	-0.501358
C44	C	1.043155	0.074210	-0.001358
C45	C	0.777068	-0.391287	-0.460812
C46	C	1.277068	0.108713	0.039188
C47	C	1.149912	-0.590946	-0.489753
C48	C	1.649912	-0.090946	0.010247
C49	C	1.145804	-0.668997	-0.493506
C50	C	1.645804	-0.168997	0.006494
C51	C	1.199763	-0.705893	-0.444847
C52	C	1.699763	-0.205893	0.055153
C53	C	1.195904	-0.779230	-0.448382
C54	C	1.695904	-0.279230	0.051618
C55	C	1.138080	-0.815670	-0.500573
C56	C	1.638080	-0.315670	-0.000573
C57	C	1.084118	-0.778769	-0.549237
C58	C	1.584118	-0.278769	-0.049237
C59	C	1.087982	-0.705433	-0.545706
C60	C	1.587982	-0.205433	-0.045706
C61	C	1.123621	-1.037085	-0.513761
C62	C	1.623621	-0.537085	-0.013761
C63	C	1.119760	-1.110426	-0.517287
C64	C	1.619760	-0.610426	-0.017287
C65	C	1.231547	-1.110882	-0.416433
C66	C	1.731547	-0.610882	0.083567
C67	C	1.235403	-1.037545	-0.412903
C68	C	1.735403	-0.537545	0.087097
C69	C	1.181443	-1.000650	-0.461570
C70	C	1.681443	-0.500650	0.038430
C71	C	1.134132	-0.890632	-0.504185
C72	C	1.634132	-0.390632	-0.004185
C73	C	1.185396	-0.925690	-0.457962
C74	C	1.685396	-0.425690	0.042038
C75	C	1.376067	-0.418272	-0.492530
C76	C	1.876067	0.081728	0.007470
C77	C	1.468274	-0.422431	-0.497420
C78	C	1.968274	0.077569	0.002580
C79	C	1.148278	-0.417263	-0.698367
C80	C	1.648278	0.082737	-0.198367
C81	C	1.143414	-0.420993	-0.790973
C82	C	1.643414	0.079007	-0.290973
C83	C	1.169527	-0.225367	-0.472341
C84	C	1.669527	0.274633	0.027659
C85	C	1.173720	-0.147322	-0.468628
C86	C	1.673720	0.352678	0.031372
C87	C	1.134506	-0.427785	-0.960523
C88	C	1.634506	0.072215	-0.460523
C89	C	1.185049	-0.389036	-1.002436
C90	C	1.685049	0.110964	-0.502436
C91	C	1.180092	-0.392815	-1.096780
C92	C	1.680092	0.107185	-0.596780
C93	C	1.139461	-0.424006	-0.866171
C94	C	1.639461	0.075994	-0.366171
C95	C	1.171108	-0.399746	-0.264587
C96	C	1.671108	0.100254	0.235413
C97	C	1.176143	-0.395826	-0.171981
C98	C	1.676143	0.104174	0.328019
H99	H	0.651970	-0.347152	-0.408986
H100	H	1.151970	0.152848	0.091014
O101	O	1.248510	-0.815065	-0.401304
O102	O	1.748510	-0.315065	0.098696
C103	C	1.356910	-0.902262	-0.400315
C104	C	1.856910	-0.402262	0.099685
C105	C	1.297314	-0.861747	-0.453690
C106	C	1.797314	-0.361747	0.046310
H107	H	1.396371	-0.940024	-0.442646
H108	H	1.896371	-0.440024	0.057354
H109	H	1.398949	-0.863597	-0.362502
H110	H	1.898949	-0.363597	0.137498
H111	H	1.319481	-0.933194	-0.356270
H112	H	1.819481	-0.433194	0.143730
H113	H	1.334676	-0.830813	-0.497782
H114	H	1.834676	-0.330813	0.002218
H115	H	1.255273	-0.900447	-0.491447
H116	H	1.755273	-0.400447	0.008553
H117	H	1.087516	-0.463794	-0.995491
H118	H	1.587516	0.036206	-0.495491
H119	H	1.282487	-1.007877	-0.370405
H120	H	1.782487	-0.507877	0.129595
H121	H	1.072682	-1.140094	-0.559802
H122	H	1.572682	-0.640094	-0.059802
O123	O	0.674343	-0.477548	-0.562279
O124	O	1.174343	0.022452	-0.062279
C125	C	0.765878	-0.495990	-0.680290
C126	C	1.265878	0.004010	-0.180290
C127	C	0.723761	-0.442077	-0.616941
C128	C	1.223761	0.057923	-0.116941
H129	H	0.805829	-0.467332	-0.724512
H130	H	1.305829	0.032668	-0.224512
H131	H	0.806541	-0.532888	-0.645852
H132	H	1.306541	-0.032888	-0.145852
H133	H	0.716390	-0.527668	-0.717442
H134	H	1.216390	-0.027668	-0.217442
H135	H	0.773192	-0.410351	-0.579772
H136	H	1.273192	0.089649	-0.079772
H137	H	0.683081	-0.405227	-0.651428
H138	H	1.183081	0.094773	-0.151428
O139	O	1.256006	-0.670609	-0.394129
O140	O	1.756006	-0.170609	0.105871
C141	C	1.366442	-0.678808	-0.294432
C142	C	1.866442	-0.178808	0.205568
C143	C	1.302798	-0.718852	-0.351849
C144	C	1.802798	-0.218852	0.148151
H145	H	1.404278	-0.717794	-0.260220
H146	H	1.904278	-0.217794	0.239780
H147	H	1.409646	-0.647943	-0.333324
H148	H	1.909646	-0.147943	0.166676
H149	H	1.332471	-0.641030	-0.247201
H150	H	1.832471	-0.141030	0.252799
H151	H	1.336699	-0.756666	-0.399090
H152	H	1.836699	-0.256666	0.100910
H153	H	1.259596	-0.749670	-0.312903
H154	H	1.759596	-0.249670	0.187097
O155	O	1.283933	-1.146833	-0.369254
O156	O	1.783933	-0.646833	0.130746
C157	C	1.327510	-1.260011	-0.329972
C158	C	1.827510	-0.760011	0.170028
C159	C	1.268138	-1.219386	-0.383457
C160	C	1.768138	-0.719386	0.116543
H161	H	1.314749	-1.318676	-0.341423
H162	H	1.814749	-0.818676	0.158577
H163	H	1.394393	-1.249193	-0.347522
H164	H	1.894393	-0.749193	0.152478
H165	H	1.317303	-1.242229	-0.261322
H166	H	1.817303	-0.742229	0.238678
H167	H	1.278270	-1.237144	-0.452121
H168	H	1.778270	-0.737144	0.047879
H169	H	1.201276	-1.230205	-0.365836
H170	H	1.701276	-0.730205	0.134164
H171	H	1.037040	-0.808444	-0.591735
H172	H	1.537040	-0.308444	-0.091735
O173	O	1.071111	-1.001357	-0.561050
O174	O	1.571111	-0.501357	-0.061050
C175	C	0.959839	-1.008651	-0.661470
C176	C	1.459839	-0.508651	-0.161470
C177	C	1.019253	-1.049203	-0.607949
C178	C	1.519253	-0.549203	-0.107949
H179	H	0.917909	-1.047318	-0.699415
H180	H	1.417909	-0.547318	-0.199415
H181	H	0.920254	-0.970889	-0.619264
H182	H	1.420254	-0.470889	-0.119264
H183	H	0.997417	-0.977721	-0.705399
H184	H	1.497417	-0.477721	-0.205399
H185	H	0.981741	-1.080173	-0.564014
H186	H	1.481741	-0.580173	-0.064014
H187	H	1.058840	-1.086923	-0.650205
H188	H	1.558840	-0.586923	-0.150205
H189	H	1.044044	-0.675393	-0.585330
H190	H	1.544044	-0.175393	-0.085330
O191	O	1.241523	-0.890366	-0.407149
O192	O	1.741523	-0.390366	0.092851
C193	C	1.290479	-0.864015	-0.266513
C194	C	1.790479	-0.364015	0.233487
C195	C	1.226883	-0.904079	-0.323968
C196	C	1.726883	-0.404079	0.176032
H197	H	1.278653	-0.875076	-0.199247
H198	H	1.778653	-0.375076	0.300753
H199	H	1.355852	-0.881993	-0.285360
H200	H	1.855852	-0.381993	0.214640
H201	H	1.283977	-0.805270	-0.272397
H202	H	1.783977	-0.305270	0.227603
H203	H	1.233309	-0.962832	-0.318113
H204	H	1.733309	-0.462832	0.181887
H205	H	1.161535	-0.886043	-0.305105
H206	H	1.661535	-0.386043	0.194895
H207	H	1.087051	-0.920309	-0.546677
H208	H	1.587051	-0.420309	-0.046677
O209	O	1.241082	-0.346125	-0.960596
O210	O	1.741082	0.153875	-0.460596
C211	C	1.297099	-0.303123	-0.827041
C212	C	1.797099	0.196877	-0.327041
C213	C	1.233626	-0.351764	-0.874326
C214	C	1.733626	0.148236	-0.374326
H215	H	1.291081	-0.307654	-0.757283
H216	H	1.791081	0.192346	-0.257283
H217	H	1.362477	-0.319129	-0.848167
H218	H	1.862477	0.180871	-0.348167
H219	H	1.284688	-0.246530	-0.840671
H220	H	1.784688	0.253470	-0.340671
H221	H	1.245960	-0.408371	-0.860719
H222	H	1.745960	0.091629	-0.360719
H223	H	1.168269	-0.335698	-0.853194
H224	H	1.668269	0.164302	-0.353194
