data_functionalizedCrystal
_audit_creation_method	'MofGen! by Chris Wilmer'
_symmetry_space_group_name_H-M	'P1'
_symmetry_Int_Tables_number	1
_symmetry_cell_setting	triclinic
loop_
_symmetry_equiv_pos_as_xyz
  x,y,z
_cell_length_a	9.065215
_cell_length_b	16.974813
_cell_length_c	7.540329
_cell_angle_alpha	86.341850
_cell_angle_beta	89.997574
_cell_angle_gamma	84.203340
loop_
_atom_site_label
_atom_site_type_symbol
_atom_site_fract_x
_atom_site_fract_y
_atom_site_fract_z
O1	O	1.957275	0.115924	-0.164096
O2	O	1.527733	0.125436	-0.165469
O3	O	1.754479	0.005663	-0.148267
O4	O	1.730529	0.235698	-0.181299
O5	O	1.754465	0.005661	0.146699
O6	O	1.527720	0.125435	0.129496
O7	O	1.957261	0.115923	0.130869
Cu8	Cu	1.742489	0.120678	0.157115
Cu9	Cu	1.742505	0.120680	-0.191716
O10	O	1.730516	0.235696	0.113666
C11	C	1.472764	0.124522	-0.017857
C12	C	1.308995	0.121790	-0.017467
C13	C	1.753561	-0.023803	0.003443
C14	C	1.750829	-0.111600	0.016039
C15	C	1.749556	-0.152841	-0.138828
C16	C	1.746979	-0.235334	-0.126987
C17	C	1.745686	-0.276585	0.039722
C18	C	1.746955	-0.235338	0.194600
C19	C	1.749521	-0.152845	0.182758
C20	C	1.738001	-0.523302	0.092381
C21	C	1.735439	-0.605800	0.104212
C22	C	1.735461	-0.605791	-0.217377
C23	C	1.738036	-0.523297	-0.229205
C24	C	1.739296	-0.482056	-0.074327
N25	N	1.743057	-0.360907	0.051829
N26	N	1.741915	-0.397735	-0.086435
C27	C	2.012230	0.116837	-0.016748
C28	C	2.176000	0.119569	-0.017149
C29	C	1.731434	0.265162	-0.038048
C30	C	1.734166	0.352958	-0.050655
N31	N	1.742489	0.120677	0.402464
N32	N	1.742517	0.120676	-0.437063
H33	H	1.750617	-0.119261	-0.274581
F34	F	1.745626	-0.279223	-0.291819
H35	H	1.734431	-0.639378	-0.343470
H36	H	1.750536	-0.119266	0.308867
H37	H	1.734378	-0.639384	0.239973
H38	H	1.739056	-0.489735	0.218494
F39	F	1.745562	-0.279241	0.372026
F40	F	1.739415	-0.479401	-0.406640
