data_functionalizedCrystal
_audit_creation_method	'MofGen! by Chris Wilmer'
_symmetry_space_group_name_H-M	'P1'
_symmetry_Int_Tables_number	1
_symmetry_cell_setting	triclinic
loop_
_symmetry_equiv_pos_as_xyz
  x,y,z
_cell_length_a	16.109301
_cell_length_b	12.837942
_cell_length_c	15.186229
_cell_angle_alpha	89.996774
_cell_angle_beta	89.999362
_cell_angle_gamma	89.145211
loop_
_atom_site_label
_atom_site_type_symbol
_atom_site_fract_x
_atom_site_fract_y
_atom_site_fract_z
O1	O	1.113716	0.133240	-0.073172
O2	O	0.872971	0.149822	-0.073186
O3	O	0.988005	-0.009370	-0.073174
O4	O	0.998681	0.292432	-0.073184
O5	O	0.987996	-0.009372	0.073283
O6	O	0.872962	0.149820	0.073271
O7	O	1.113707	0.133238	0.073285
Zn8	Zn	0.993333	0.141528	0.096532
Zn9	Zn	0.993345	0.141531	-0.096432
O10	O	0.998673	0.292430	0.073273
C11	C	0.841938	0.149149	0.000041
C12	C	0.749483	0.147135	0.000036
C13	C	0.534343	0.236914	0.000043
C14	C	0.447471	0.235014	0.000049
C15	C	0.452341	0.046138	0.000051
C16	C	0.539211	0.048040	0.000052
C17	C	0.580209	0.143431	0.000043
C18	C	0.406468	0.139629	0.000048
C19	C	0.312278	0.137568	0.000055
C20	C	0.674405	0.145492	0.000039
C21	C	0.984394	-0.047991	0.000054
C22	C	0.973637	-0.163064	0.000052
C23	C	1.102954	-0.404066	0.000041
C24	C	1.092851	-0.512188	0.000039
C25	C	0.943328	-0.487433	0.000040
C26	C	0.953431	-0.379311	0.000042
C27	C	1.033247	-0.337632	0.000044
C28	C	1.043349	-0.229507	0.000052
C29	C	0.893827	-0.204754	0.000046
C30	C	0.883724	-0.312876	0.000044
C31	C	1.144739	0.133911	0.000056
C32	C	1.237195	0.135924	0.000056
C33	C	1.002284	0.331050	0.000043
C34	C	1.013041	0.446124	0.000040
N35	N	0.993331	0.141526	0.228224
N36	N	0.993352	0.141526	-0.228125
C37	C	1.044289	0.071059	0.453952
C38	C	1.044292	0.071057	0.546142
C39	C	0.942388	0.211996	0.546141
C40	C	0.942382	0.211992	0.453953
C41	C	0.993337	0.141525	0.407861
C42	C	0.993346	0.141526	0.592239
C43	C	0.993348	0.141524	0.692195
C44	C	0.993334	0.141526	0.307898
H45	H	0.410130	0.311138	0.000050
O46	O	0.583734	-0.042804	-0.000105
C47	C	0.614448	-0.203676	-0.075950
C48	C	0.563990	-0.100831	-0.075897
H49	H	0.598490	-0.250630	-0.137212
H50	H	0.683590	-0.185991	-0.076005
H51	H	0.598577	-0.250580	-0.014630
H52	H	0.579790	-0.053877	-0.137206
H53	H	0.494862	-0.118589	-0.075796
O54	O	0.574206	0.329547	-0.000115
C55	C	0.669492	0.441294	-0.075965
C56	C	0.624389	0.336359	-0.075908
H57	H	0.710089	0.446826	-0.137227
H58	H	0.621819	0.507823	-0.076020
H59	H	0.710004	0.446889	-0.014646
H60	H	0.583878	0.330662	-0.137217
H61	H	0.672106	0.269880	-0.075807
H62	H	0.900903	0.269370	0.583678
O63	O	0.826044	-0.140325	-0.000069
C64	C	0.701362	-0.086034	-0.075962
C65	C	0.778078	-0.159074	-0.075937
H66	H	0.662569	-0.101152	-0.137304
H67	H	0.662452	-0.101214	-0.014711
H68	H	0.722307	-0.001603	-0.075914
H69	H	0.757206	-0.243531	-0.076016
H70	H	0.816971	-0.143804	-0.137182
H71	H	0.900887	0.269374	0.416422
H72	H	1.108339	-0.195574	0.000057
O73	O	0.412382	-0.046429	0.000014
C74	C	0.280714	-0.133067	0.000062
C75	C	0.325858	-0.028161	0.000087
H76	H	0.210751	-0.118333	0.000141
H77	H	0.298935	-0.179275	-0.061244
H78	H	0.299042	-0.179265	0.061341
H79	H	0.307553	0.018122	-0.061149
H80	H	0.307634	0.017968	0.061434
H81	H	1.167943	-0.370130	0.000051
H82	H	0.878346	-0.521388	0.000028
O83	O	1.160653	-0.576576	0.000078
C84	C	1.310025	-0.589715	0.000022
C85	C	1.233308	-0.516678	0.000001
H86	H	1.368786	-0.541317	-0.000059
H87	H	1.309093	-0.640940	0.061327
H88	H	1.308985	-0.640969	-0.061257
H89	H	1.234298	-0.465358	0.061238
H90	H	1.234268	-0.465523	-0.061345
H91	H	0.818741	-0.346827	0.000039
O92	O	1.093803	0.002504	0.409315
C93	C	1.194909	-0.137251	0.419051
C94	C	1.138863	-0.059681	0.469709
H95	H	1.231367	-0.187534	0.467857
H96	H	1.154947	-0.189121	0.375922
H97	H	1.239950	-0.092466	0.375860
H98	H	1.093812	-0.104381	0.512948
H99	H	1.178877	-0.007812	0.512782
H100	H	1.085781	0.013676	0.583667
