data_functionalizedCrystal
_audit_creation_method	'MofGen! by Chris Wilmer'
_symmetry_space_group_name_H-M	'P1'
_symmetry_Int_Tables_number	1
_symmetry_cell_setting	triclinic
loop_
_symmetry_equiv_pos_as_xyz
  x,y,z
_cell_length_a	16.625546
_cell_length_b	14.908618
_cell_length_c	14.909241
_cell_angle_alpha	96.790851
_cell_angle_beta	86.671627
_cell_angle_gamma	93.283114
loop_
_atom_site_label
_atom_site_type_symbol
_atom_site_fract_x
_atom_site_fract_y
_atom_site_fract_z
Zn1	Zn	-0.363510	-1.413349	-0.591539
Zn2	Zn	-0.030177	-1.080015	-0.258206
Zn3	Zn	0.303156	-0.746682	0.075128
Zn4	Zn	-0.505709	-1.404505	-0.440162
Zn5	Zn	-0.172376	-1.071171	-0.106829
Zn6	Zn	0.160958	-0.737838	0.226505
Zn7	Zn	-0.363526	-1.253245	-0.431466
Zn8	Zn	-0.030193	-0.919911	-0.098133
Zn9	Zn	0.303141	-0.586578	0.235201
Zn10	Zn	-0.490933	-1.261942	-0.582761
Zn11	Zn	-0.157600	-0.928609	-0.249428
Zn12	Zn	0.175734	-0.595276	0.083906
O13	O	-0.430920	-1.333260	-0.511482
O14	O	-0.097586	-0.999927	-0.178149
O15	O	0.235747	-0.666593	0.155185
O16	O	-0.388550	-1.538843	-0.578772
O17	O	-0.055217	-1.205509	-0.245438
O18	O	0.278116	-0.872176	0.087895
O19	O	-0.493039	-1.377099	-0.312339
O20	O	-0.159705	-1.043765	0.020994
O21	O	0.173628	-0.710432	0.354327
O22	O	-0.250693	-1.274544	-0.452735
O23	O	0.082640	-0.941210	-0.119401
O24	O	0.415974	-0.607877	0.213932
O25	O	-0.493023	-1.532345	-0.467555
O26	O	-0.159690	-1.199012	-0.134222
O27	O	0.173643	-0.865678	0.199111
O28	O	-0.250681	-1.392172	-0.570340
O29	O	0.082652	-1.058838	-0.237006
O30	O	0.415985	-0.725505	0.096327
O31	O	-0.388577	-1.265968	-0.305950
O32	O	-0.055244	-0.932635	0.027383
O33	O	0.278089	-0.599302	0.360716
O34	O	-0.374250	-1.127731	-0.444223
O35	O	-0.040916	-0.794398	-0.110889
O36	O	0.292417	-0.461065	0.222444
O37	O	-0.467840	-1.289368	-0.710595
O38	O	-0.134507	-0.956034	-0.377261
O39	O	0.198827	-0.622701	-0.043928
O40	O	-0.467855	-1.134121	-0.555378
O41	O	-0.134522	-0.800788	-0.222045
O42	O	0.198812	-0.467455	0.111288
O43	O	-0.374223	-1.400605	-0.717044
O44	O	-0.040889	-1.067272	-0.383711
O45	O	0.292444	-0.733939	-0.050377
O46	O	-0.616580	-1.385532	-0.459044
O47	O	-0.283247	-1.052199	-0.125710
O48	O	0.050087	-0.718866	0.207623
O49	O	-0.605724	-1.280792	-0.563810
O50	O	-0.272391	-0.947459	-0.230477
O51	O	0.060942	-0.614126	0.102856
C52	C	-0.419451	-1.098083	-0.497905
C53	C	-0.086118	-0.764750	-0.164571
C54	C	0.247215	-0.431416	0.168762
C55	C	-0.414563	-0.997474	-0.492118
C56	C	-0.081230	-0.664141	-0.158785
C57	C	0.252103	-0.330808	0.174549
C58	C	-0.640408	-1.333172	-0.511439
C59	C	-0.307075	-0.999839	-0.178106
C60	C	0.026258	-0.666506	0.155227
C61	C	-0.730031	-1.333219	-0.511456
C62	C	-0.396698	-0.999886	-0.178123
C63	C	-0.063364	-0.666553	0.155211
C64	C	-0.503018	-0.815114	-0.596834
C65	C	-0.169684	-0.481780	-0.263501
C66	C	0.163649	-0.148447	0.069832
C67	C	-0.498427	-0.720583	-0.591400
C68	C	-0.165094	-0.387250	-0.258067
C69	C	0.168239	-0.053916	0.075266
C70	C	-0.400789	-0.713881	-0.475821
C71	C	-0.067456	-0.380548	-0.142487
C72	C	0.265878	-0.047215	0.190846
C73	C	-0.405379	-0.808412	-0.481255
C74	C	-0.072046	-0.475079	-0.147921
C75	C	0.261287	-0.141745	0.185412
C76	C	-0.456496	-0.859025	-0.541763
C77	C	-0.123163	-0.525691	-0.208429
C78	C	0.210170	-0.192358	0.124904
C79	C	-0.461090	-0.953557	-0.547192
C80	C	-0.127757	-0.620223	-0.213858
C81	C	0.205576	-0.286890	0.119475
C82	C	-0.363448	-0.946854	-0.431617
C83	C	-0.030115	-0.613520	-0.098284
C84	C	0.303219	-0.280187	0.235049
C85	C	-0.358858	-0.852323	-0.426183
C86	C	-0.025524	-0.518990	-0.092850
C87	C	0.307809	-0.185656	0.240484
C88	C	-1.058209	-1.333383	-0.511559
C89	C	-0.724876	-1.000049	-0.178226
C90	C	-0.391543	-0.666716	0.155107
C91	C	-0.966900	-1.333334	-0.511533
C92	C	-0.633567	-1.000001	-0.178200
C93	C	-0.300233	-0.666668	0.155134
C94	C	-0.894123	-1.333300	-0.511507
C95	C	-0.560790	-0.999967	-0.178174
C96	C	-0.227456	-0.666633	0.155160
C97	C	-0.802808	-1.333253	-0.511482
C98	C	-0.469474	-0.999920	-0.178148
C99	C	-0.136141	-0.666587	0.155185
C100	C	-0.220613	-1.333374	-0.511546
C101	C	0.112720	-1.000041	-0.178213
C102	C	0.446053	-0.666707	0.155120
C103	C	-0.130993	-1.333423	-0.511574
C104	C	0.202340	-1.000089	-0.178240
C105	C	0.535673	-0.666756	0.155093
C106	C	-0.419381	-1.346943	-0.747581
C107	C	-0.086048	-1.013610	-0.414248
C108	C	0.247285	-0.680277	-0.080915
C109	C	-0.414464	-1.352774	-0.848193
C110	C	-0.081131	-1.019441	-0.514860
C111	C	0.252202	-0.686108	-0.181526
C112	C	-0.442427	-0.569355	-0.525106
C113	C	-0.109094	-0.236022	-0.191773
C114	C	0.224239	0.097312	0.141561
C115	C	-0.447316	-0.669964	-0.530894
C116	C	-0.113982	-0.336630	-0.197561
C117	C	0.219351	-0.003297	0.135772
C118	C	-0.502727	-1.247902	-1.030539
C119	C	-0.169394	-0.914569	-0.697205
C120	C	0.163940	-0.581235	-0.363872
C121	C	-0.498110	-1.253378	-1.125072
C122	C	-0.164776	-0.920044	-0.791739
C123	C	0.168557	-0.586711	-0.458405
C124	C	-0.400617	-1.369206	-1.131795
C125	C	-0.067284	-1.035872	-0.798461
C126	C	0.266049	-0.702539	-0.465128
C127	C	-0.405235	-1.363730	-1.037262
C128	C	-0.071901	-1.030396	-0.703928
C129	C	0.261432	-0.697063	-0.370595
C130	C	-0.456290	-1.303075	-0.986637
C131	C	-0.122957	-0.969742	-0.653303
C132	C	0.210376	-0.636408	-0.319970
C133	C	-0.460903	-1.297595	-0.892101
C134	C	-0.127570	-0.964262	-0.558768
C135	C	0.205764	-0.630929	-0.225435
C136	C	-0.363415	-1.413427	-0.898826
C137	C	-0.030082	-1.080094	-0.565493
C138	C	0.303252	-0.746760	-0.232159
C139	C	-0.358798	-1.418903	-0.993359
C140	C	-0.025464	-1.085570	-0.660026
C141	C	0.307869	-0.752236	-0.326693
C142	C	-0.442357	-1.319682	-0.276304
C143	C	-0.109024	-0.986349	0.057029
C144	C	0.224309	-0.653015	0.390363
C145	C	-0.447056	-1.314026	-0.175703
C146	C	-0.113722	-0.980693	0.157630
C147	C	0.219611	-0.647360	0.490963
H148	H	-0.502714	-0.994765	-0.596459
H149	H	-0.169380	-0.661431	-0.263126
H150	H	0.163953	-0.328098	0.070208
H151	H	-0.325569	-0.982616	-0.386772
H152	H	0.007765	-0.649282	-0.053438
H153	H	0.341098	-0.315949	0.279895
O154	O	-0.303749	-0.797732	-0.360898
O155	O	0.029584	-0.464399	-0.027565
O156	O	0.362917	-0.131065	0.305769
H157	H	-0.308383	-0.724620	-0.366358
H158	H	0.024950	-0.391287	-0.033025
H159	H	0.358283	-0.057954	0.300309
O160	O	-0.557778	-1.182474	-0.975926
O161	O	-0.224445	-0.849140	-0.642593
O162	O	0.108889	-0.515807	-0.309259
H163	H	-0.589292	-1.145025	-1.022337
H164	H	-0.255958	-0.811691	-0.689003
H165	H	0.077375	-0.478358	-0.355670
H166	H	-0.535924	-1.208451	-1.160813
H167	H	-0.202591	-0.875118	-0.827480
H168	H	0.130742	-0.541784	-0.494147
H169	H	-0.544644	-0.856323	-0.646098
H170	H	-0.211310	-0.522990	-0.312764
H171	H	0.122023	-0.189657	0.020569
O172	O	-0.515954	-1.232165	-0.837492
O173	O	-0.182620	-0.898831	-0.504158
O174	O	0.150713	-0.565498	-0.170825
H175	H	-0.547469	-1.194721	-0.883906
H176	H	-0.214135	-0.861388	-0.550573
H177	H	0.119198	-0.528054	-0.217239
H178	H	-0.359167	-0.672657	-0.426564
H179	H	-0.025834	-0.339323	-0.093231
H180	H	0.307500	-0.005990	0.240103
O181	O	-0.345524	-1.434592	-1.186401
O182	O	-0.012191	-1.101258	-0.853068
O183	O	0.321143	-0.767925	-0.519734
H184	H	-0.350105	-1.429113	-1.259510
H185	H	-0.016771	-1.095779	-0.926177
H186	H	0.316562	-0.762446	-0.592843
O187	O	-0.303708	-1.484296	-1.047961
O188	O	0.029625	-1.150963	-0.714627
O189	O	0.362958	-0.817630	-0.381294
H190	H	-0.308287	-1.478824	-1.121071
H191	H	0.025047	-1.145491	-0.787738
H192	H	0.358380	-0.812158	-0.454405
O193	O	-0.313327	-1.472946	-0.851478
O194	O	0.020006	-1.139612	-0.518144
O195	O	0.353339	-0.806279	-0.184811
H196	H	-0.325117	-1.458954	-0.777237
H197	H	0.008217	-1.125621	-0.443904
H198	H	0.341550	-0.792287	-0.110571
H199	H	-0.536308	-0.684835	-0.636247
H200	H	-0.202975	-0.351501	-0.302914
H201	H	0.130358	-0.018168	0.030419
