data_functionalizedCrystal
_audit_creation_method	'MofGen! by Chris Wilmer'
_symmetry_space_group_name_H-M	'P1'
_symmetry_Int_Tables_number	1
_symmetry_cell_setting	triclinic
loop_
_symmetry_equiv_pos_as_xyz
  x,y,z
_cell_length_a	10.654541
_cell_length_b	14.971486
_cell_length_c	13.448316
_cell_angle_alpha	90.001801
_cell_angle_beta	89.993648
_cell_angle_gamma	95.950971
loop_
_atom_site_label
_atom_site_type_symbol
_atom_site_fract_x
_atom_site_fract_y
_atom_site_fract_z
O1	O	0.163659	-1.187837	-0.082577
O2	O	0.183258	-0.927543	-0.082604
O3	O	-0.009345	-1.063676	-0.082584
O4	O	0.356262	-1.051704	-0.082597
O5	O	-0.009357	-1.063659	0.082800
O6	O	0.183246	-0.927526	0.082780
O7	O	0.163648	-1.187820	0.082807
Cu8	Cu	0.173446	-1.057671	0.097894
Cu9	Cu	0.173460	-1.057692	-0.097691
O10	O	0.356251	-1.051687	0.082787
C11	C	-0.056140	-1.062789	0.000107
C12	C	-0.195555	-1.060160	0.000106
C13	C	0.182376	-0.894205	0.000085
C14	C	0.179749	-0.794894	0.000074
C15	C	0.164530	-1.221158	0.000116
C16	C	0.167157	-1.320469	0.000120
C17	C	-0.225272	-1.222944	0.000135
C18	C	-0.305626	-1.303097	0.000152
C19	C	-0.436618	-1.300621	0.000148
C20	C	-0.487256	-1.217984	0.000125
C21	C	-0.406902	-1.137831	0.000109
C22	C	-0.275909	-1.140315	0.000115
C23	C	-0.377185	-0.975050	0.000072
C24	C	-0.246194	-0.977523	0.000083
C25	C	-0.427824	-0.892412	0.000049
C26	C	-0.347470	-0.812257	0.000040
C27	C	-0.216471	-0.814736	0.000044
C28	C	-0.165839	-0.897370	0.000066
C29	C	0.403045	-1.052574	0.000093
C30	C	0.542460	-1.055203	0.000089
N31	N	0.173435	-1.057663	0.235458
C32	C	0.292898	-0.738284	0.000072
C33	C	0.290423	-0.644971	0.000087
C34	C	0.174797	-0.608270	0.000097
C35	C	0.061639	-0.664887	0.000103
C36	C	0.064116	-0.758199	0.000095
C37	C	0.056485	-0.470397	0.000117
C38	C	0.054008	-0.377079	0.000123
C39	C	0.282792	-0.357169	0.000108
C40	C	0.285268	-0.450480	0.000100
C41	C	0.172110	-0.507091	0.000104
N42	N	0.173461	-1.057707	-0.235256
C43	C	0.088186	-1.117962	0.287508
C44	C	0.088185	-1.117968	0.391611
C45	C	0.173440	-1.057678	0.443663
C46	C	0.258694	-0.997373	0.391606
C47	C	0.258688	-0.997364	0.287505
C48	C	0.258702	-0.997398	0.608587
C49	C	0.258710	-0.997408	0.712695
C50	C	0.088199	-1.118002	0.712692
C51	C	0.088193	-1.117992	0.608591
C52	C	0.173449	-1.057688	0.556542
H53	H	-0.118613	-1.224967	0.000151
H54	H	0.328105	-0.948262	0.245128
C55	C	-0.005588	-1.184334	0.769949
N56	N	-0.076223	-1.234295	0.813079
C57	C	-0.005627	-1.184279	0.448861
N58	N	-0.076302	-1.234220	0.491980
C59	C	-0.249914	-1.393994	0.000185
N60	N	-0.207954	-1.462457	0.000212
H61	H	0.379421	-0.480359	0.000082
H62	H	0.374929	-0.311071	0.000109
C63	C	-0.631352	-1.215266	0.000118
N64	N	-0.739886	-1.213218	0.000116
H65	H	0.328133	-0.948313	0.755071
C66	C	0.420097	-0.778645	0.000061
N67	N	0.515908	-0.809042	0.000059
H68	H	0.018766	-1.167060	0.245134
H69	H	0.328106	-0.948280	0.433993
C70	C	-0.571919	-0.889692	0.000052
N71	N	-0.680452	-0.887641	0.000061
H72	H	-0.388711	-0.744981	0.000014
H73	H	0.018778	-1.167089	0.566211
C74	C	0.352475	-0.931050	0.551335
N75	N	0.423103	-0.881078	0.508213
H76	H	-0.151052	-0.749465	0.000026
C77	C	-0.021747	-0.900104	0.000070
N78	N	0.086784	-0.902167	0.000068
C79	C	-0.073186	-0.336711	0.000136
N80	N	-0.168991	-0.306305	0.000146
C81	C	0.414896	-0.582703	0.000101
N82	N	0.508655	-0.535803	0.000120
H83	H	-0.032506	-0.634998	0.000126
H84	H	-0.035661	-0.516488	0.000121
H85	H	-0.502043	-1.365889	0.000154
H86	H	-0.028022	-0.804290	0.000097
