data_functionalizedCrystal
_audit_creation_method	'MofGen! by Chris Wilmer'
_symmetry_space_group_name_H-M	'P1'
_symmetry_Int_Tables_number	1
_symmetry_cell_setting	triclinic
loop_
_symmetry_equiv_pos_as_xyz
  x,y,z
_cell_length_a	17.077404
_cell_length_b	17.077402
_cell_length_c	12.759401
_cell_angle_alpha	90.012105
_cell_angle_beta	90.010592
_cell_angle_gamma	90.021130
loop_
_atom_site_label
_atom_site_type_symbol
_atom_site_fract_x
_atom_site_fract_y
_atom_site_fract_z
Zn1	Zn	1.199971	-0.312682	0.594091
Zn2	Zn	1.199902	-0.443916	0.418399
Zn3	Zn	1.068727	-0.312664	0.418415
Zn4	Zn	1.068670	-0.443906	0.594025
O5	O	1.134318	-0.378292	0.506233
O6	O	1.309808	-0.330102	0.570806
O7	O	1.182497	-0.426502	0.271380
O8	O	1.086189	-0.202820	0.441754
O9	O	1.309758	-0.426519	0.441726
O10	O	1.182613	-0.202833	0.570822
O11	O	1.086123	-0.330072	0.271392
O12	O	0.958873	-0.330062	0.441689
O13	O	1.086092	-0.426501	0.741054
O14	O	0.958831	-0.426484	0.570709
O15	O	1.182558	-0.330092	0.741104
O16	O	1.182442	-0.553762	0.441661
O17	O	1.086026	-0.553754	0.570693
C18	C	0.930370	-0.378271	0.506194
C19	C	0.843120	-0.378281	0.506203
C20	C	0.467329	-0.328199	0.573590
C21	C	0.549309	-0.328194	0.573579
C22	C	0.590271	-0.378309	0.506259
C23	C	0.549248	-0.428438	0.438954
C24	C	0.467269	-0.428447	0.438971
C25	C	0.720118	-0.428414	0.438920
C26	C	0.802103	-0.428404	0.438901
C27	C	0.802158	-0.328161	0.573527
C28	C	0.720179	-0.328170	0.573545
C29	C	0.679162	-0.378299	0.506238
C30	C	1.134242	-0.582240	0.506191
C31	C	1.134281	-0.669490	0.506208
C32	C	1.184536	-0.710458	0.439093
C33	C	1.184575	-0.792438	0.439120
C34	C	1.134353	-0.833449	0.506257
C35	C	1.084096	-0.792475	0.573379
C36	C	1.084063	-0.710496	0.573357
C37	C	1.084169	-0.963345	0.573419
C38	C	1.084202	-1.045330	0.573440
C39	C	1.184681	-1.045287	0.439182
C40	C	1.184647	-0.963308	0.439160
C41	C	1.134389	-0.922340	0.506281
C42	C	1.339062	-0.378314	0.506272
C43	C	1.426312	-0.378323	0.506288
C44	C	1.134326	-0.378297	0.780266
C45	C	1.134330	-0.378300	0.897042
C46	C	1.134415	-0.173548	0.506298
C47	C	1.134457	-0.086298	0.506325
C48	C	1.184553	-0.328107	0.951932
C49	C	1.184547	-0.328106	1.061656
C50	C	1.084091	-0.428496	1.061592
C51	C	1.084094	-0.428493	0.951870
C52	C	1.134308	-0.378304	1.233265
C53	C	1.134320	-0.378301	1.116489
H54	H	0.433874	-0.469264	0.384169
H55	H	1.043193	-0.469363	1.106245
F56	F	1.030633	-0.481913	0.893449
H57	H	1.225456	-0.287235	0.907294
H58	H	1.225497	-0.825791	0.384468
H59	H	1.043209	-0.825873	0.628047
F60	F	0.423741	-0.274855	0.645237
F61	F	0.592959	-0.274848	0.645216
F62	F	1.030680	-0.919746	0.644860
F63	F	1.238007	-0.274689	1.120068
H64	H	0.686830	-0.287359	0.628358
H65	H	0.835558	-0.287343	0.628330
F66	F	1.030576	-0.666895	0.644792
F67	F	1.237984	-0.666818	0.367629
H68	H	1.225537	-0.929917	0.384487
F69	F	1.030744	-1.088975	0.644885
H70	H	0.835452	-0.469214	0.384086
H71	H	0.686725	-0.469238	0.384116
F72	F	0.592845	-0.481778	0.367311
H73	H	1.225606	-1.078647	0.384533
