data_functionalizedCrystal
_audit_creation_method	'MofGen! by Chris Wilmer'
_symmetry_space_group_name_H-M	'P1'
_symmetry_Int_Tables_number	1
_symmetry_cell_setting	triclinic
loop_
_symmetry_equiv_pos_as_xyz
  x,y,z
_cell_length_a	19.188930
_cell_length_b	10.654541
_cell_length_c	17.666332
_cell_angle_alpha	90.004478
_cell_angle_beta	89.990320
_cell_angle_gamma	96.185645
loop_
_atom_site_label
_atom_site_type_symbol
_atom_site_fract_x
_atom_site_fract_y
_atom_site_fract_z
O1	O	0.098054	-1.665772	-0.062935
O2	O	0.598054	-1.165772	0.437065
O3	O	0.107398	-1.300095	-0.062942
O4	O	0.607398	-0.800095	0.437058
O5	O	0.001139	-1.493486	-0.062923
O6	O	0.501139	-0.993486	0.437077
O7	O	0.204312	-1.472381	-0.062953
O8	O	0.704312	-0.972381	0.437047
O9	O	0.001136	-1.493464	0.062973
O10	O	0.501136	-0.993464	0.562973
O11	O	0.107395	-1.300073	0.062955
O12	O	0.607395	-0.800073	0.562955
O13	O	0.098051	-1.665750	0.062962
O14	O	0.598051	-1.165750	0.562962
Cu15	Cu	0.102723	-1.482910	0.074454
Cu16	Cu	0.602723	-0.982910	0.574454
Cu17	Cu	0.102726	-1.482935	-0.074434
Cu18	Cu	0.602726	-0.982935	0.425566
O19	O	0.204310	-1.472359	0.062943
O20	O	0.704310	-0.972359	0.562943
C21	C	0.106711	-1.253300	0.000005
C22	C	0.606711	-0.753300	0.500005
C23	C	0.104659	-1.113900	0.000003
C24	C	0.604659	-0.613900	0.500003
C25	C	-0.024878	-1.492792	0.000027
C26	C	0.475122	-0.992792	0.500027
C27	C	-0.102396	-1.490740	0.000034
C28	C	0.397604	-0.990740	0.500034
N29	N	0.102720	-1.482901	0.179173
N30	N	0.602720	-0.982901	0.679173
C31	C	-0.146578	-1.604215	0.000040
C32	C	0.353422	-1.104215	0.500040
C33	C	-0.219414	-1.602288	0.000027
C34	C	0.280586	-1.102288	0.500027
C35	C	-0.248065	-1.486878	0.000024
C36	C	0.251935	-0.986878	0.500024
C37	C	-0.203873	-1.373388	0.000014
C38	C	0.296127	-0.873388	0.500014
C39	C	-0.131038	-1.375319	0.000019
C40	C	0.368962	-0.875319	0.500019
N41	N	-0.356648	-1.398654	0.042868
N42	N	0.143352	-0.898654	0.542868
N43	N	-0.425838	-1.396828	0.042865
N44	N	0.074162	-0.896828	0.542865
C45	C	-0.467512	-1.481054	0.000009
C46	C	0.032488	-0.981054	0.500009
N47	N	-0.437383	-1.567195	-0.042835
N48	N	0.062617	-1.067195	0.457165
N49	N	-0.368186	-1.569025	-0.042828
N50	N	0.131814	-1.069025	0.457172
C51	C	-0.327041	-1.484772	0.000019
C52	C	0.172959	-0.984772	0.500019
C53	C	-0.590672	-1.592448	0.000001
C54	C	-0.090672	-1.092448	0.500001
C55	C	-0.663510	-1.590515	-0.000016
C56	C	-0.163510	-1.090515	0.499984
C57	C	-0.647967	-1.361612	-0.000022
C58	C	-0.147967	-0.861612	0.499978
C59	C	-0.575131	-1.363548	-0.000012
C60	C	-0.075131	-0.863548	0.499988
C61	C	-0.546488	-1.478969	0.000002
C62	C	-0.046488	-0.978969	0.500002
C63	C	0.230327	-1.473053	-0.000009
C64	C	0.730327	-0.973053	0.499991
C65	C	0.307845	-1.475105	-0.000020
C66	C	0.807845	-0.975105	0.499980
C67	C	0.098738	-1.712544	0.000013
C68	C	0.598738	-1.212544	0.500013
C69	C	0.100790	-1.851944	0.000010
C70	C	0.600790	-1.351944	0.500010
C71	C	0.231721	-1.083241	-0.000025
C72	C	0.731721	-0.583241	0.499975
C73	C	0.294284	-1.002423	-0.000042
C74	C	0.794284	-0.502423	0.499958
C75	C	0.292352	-0.871446	-0.000042
C76	C	0.792352	-0.371446	0.499958
C77	C	0.227849	-0.821285	-0.000024
C78	C	0.727849	-0.321285	0.499976
C79	C	0.165286	-0.902103	-0.000007
C80	C	0.665286	-0.402103	0.499993
C81	C	0.167225	-1.033082	-0.000008
C82	C	0.667225	-0.533082	0.499992
C83	C	0.038226	-0.932762	0.000027
C84	C	0.538226	-0.432762	0.500027
C85	C	0.040156	-1.063740	0.000022
C86	C	0.540156	-0.563740	0.500022
C87	C	-0.026277	-0.882602	0.000046
C88	C	0.473723	-0.382602	0.500046
C89	C	-0.088842	-0.963421	0.000058
C90	C	0.411158	-0.463421	0.500058
C91	C	-0.086908	-1.094405	0.000057
C92	C	0.413092	-0.594405	0.500057
C93	C	-0.022408	-1.144558	0.000039
C94	C	0.477592	-0.644558	0.500039
N95	N	0.102723	-1.482954	-0.179153
N96	N	0.602723	-0.982954	0.320847
C97	C	0.055685	-1.568590	0.781232
C98	C	0.555685	-1.068590	1.281232
C99	C	0.055686	-1.568592	0.701984
C100	C	0.555686	-1.068592	1.201984
C101	C	0.102720	-1.482936	0.662355
C102	C	0.602720	-0.982936	1.162355
C103	C	0.149767	-1.397294	0.701979
C104	C	0.649767	-0.897294	1.201979
C105	C	0.149769	-1.397303	0.781226
C106	C	0.649769	-0.897303	1.281226
N107	N	0.111041	-1.371761	0.537939
N108	N	0.611041	-0.871761	1.037939
N109	N	0.111036	-1.371757	0.462658
N110	N	0.611036	-0.871757	0.962658
C111	C	0.102718	-1.482907	0.423591
C112	C	0.602718	-0.982907	0.923591
N113	N	0.094393	-1.594065	0.462647
N114	N	0.594393	-1.094065	0.962647
N115	N	0.094396	-1.594068	0.537934
N116	N	0.594396	-1.094068	1.037934
C117	C	0.102723	-1.482918	0.576426
C118	C	0.602723	-0.982918	1.076426
C119	C	0.055679	-1.568552	0.298046
C120	C	0.555679	-1.068552	0.798046
C121	C	0.055686	-1.568555	0.218797
C122	C	0.555686	-1.068555	0.718797
C123	C	0.149763	-1.397247	0.218794
C124	C	0.649763	-0.897247	0.718794
C125	C	0.149760	-1.397254	0.298042
C126	C	0.649760	-0.897254	0.798042
C127	C	0.102714	-1.482905	0.337663
C128	C	0.602714	-0.982905	0.837663
H129	H	-0.255395	-1.694696	0.000029
H130	H	0.244605	-1.194696	0.500029
O131	O	-0.083381	-1.252919	0.000027
O132	O	0.416619	-0.752919	0.500027
H133	H	-0.093623	-1.197667	-0.051285
H134	H	0.406377	-0.697667	0.448715
H135	H	0.017379	-1.638334	0.813489
H136	H	0.517379	-1.138334	1.313489
H137	H	-0.027846	-0.775953	0.000050
H138	H	0.472154	-0.275953	0.500050
O139	O	0.200485	-1.304883	0.659243
O140	O	0.700485	-0.804883	1.159243
H141	H	0.192573	-1.319246	0.597482
H142	H	0.692573	-0.819246	1.097482
O143	O	-0.527475	-1.241150	-0.000011
O144	O	-0.027475	-0.741150	0.499989
H145	H	-0.472016	-1.261880	-0.000012
H146	H	0.027984	-0.761880	0.499988
O147	O	-0.020317	-1.285825	0.000044
O148	O	0.479683	-0.785825	0.500044
H149	H	-0.047229	-1.326960	0.051366
H150	H	0.452771	-0.826960	0.551366
O151	O	-0.154392	-1.181564	0.000077
O152	O	0.345608	-0.681564	0.500077
H153	H	-0.156548	-1.241955	0.051395
H154	H	0.343452	-0.741955	0.551395
H155	H	0.226282	-0.714635	-0.000015
H156	H	0.726282	-0.214635	0.499985
H157	H	-0.567350	-1.686430	0.000009
H158	H	-0.067350	-1.186430	0.500009
H159	H	-0.227205	-1.279421	0.000010
H160	H	0.272795	-0.779421	0.500010
H161	H	-0.141356	-0.922569	0.000072
H162	H	0.358644	-0.422569	0.500072
H163	H	0.233300	-1.189888	-0.000041
H164	H	0.733300	-0.689888	0.499959
O165	O	0.200510	-1.304919	0.340778
O166	O	0.700510	-0.804919	0.840778
H167	H	0.233222	-1.245363	0.299910
H168	H	0.733222	-0.745363	0.799910
O169	O	0.004945	-1.660948	0.659241
O170	O	0.504945	-1.160948	1.159241
H171	H	-0.027772	-1.720500	0.700106
H172	H	0.472228	-1.220500	1.200106
O173	O	0.363855	-1.056519	-0.000064
O174	O	0.863855	-0.556519	0.499936
H175	H	0.354691	-1.161173	-0.000068
H176	H	0.854691	-0.661173	0.499932
O177	O	0.200518	-1.304959	0.823961
O178	O	0.700518	-0.804959	1.323961
H179	H	0.233230	-1.245403	0.783094
H180	H	0.733230	-0.745403	1.283094
O181	O	0.200489	-1.304861	0.176055
O182	O	0.700489	-0.804861	0.676055
H183	H	0.255000	-1.320568	0.191245
H184	H	0.755000	-0.820568	0.691245
O185	O	0.004950	-1.660947	0.340786
O186	O	0.504950	-1.160947	0.840786
H187	H	-0.049561	-1.645263	0.325583
H188	H	0.450439	-1.145263	0.825583
O189	O	-0.115682	-1.728699	0.000034
O190	O	0.384318	-1.228699	0.500034
H191	H	-0.158647	-1.807283	0.000025
H192	H	0.341353	-1.307283	0.500025
O193	O	-0.711166	-1.712917	-0.000003
O194	O	-0.211166	-1.212917	0.499997
H195	H	-0.700897	-1.768195	-0.051304
H196	H	-0.200897	-1.268195	0.448696
H197	H	-0.671293	-1.267643	-0.000028
H198	H	-0.171293	-0.767643	0.499972
H199	H	0.017383	-1.638297	0.186542
H200	H	0.517383	-1.138297	0.686542
O201	O	0.359829	-0.784265	-0.000062
O202	O	0.859829	-0.284265	0.499938
H203	H	0.405006	-0.841142	-0.000079
H204	H	0.905006	-0.341142	0.499921
