data_functionalizedCrystal
_audit_creation_method	'MofGen! by Chris Wilmer'
_symmetry_space_group_name_H-M	'P1'
_symmetry_Int_Tables_number	1
_symmetry_cell_setting	triclinic
loop_
_symmetry_equiv_pos_as_xyz
  x,y,z
_cell_length_a	25.639239
_cell_length_b	25.639242
_cell_length_c	25.639234
_cell_angle_alpha	89.969217
_cell_angle_beta	90.024905
_cell_angle_gamma	89.966288
loop_
_atom_site_label
_atom_site_type_symbol
_atom_site_fract_x
_atom_site_fract_y
_atom_site_fract_z
Zn1	Zn	-0.208252	-0.799262	0.295762
Zn2	Zn	0.125081	-0.465929	0.629096
Zn3	Zn	0.458415	-0.132596	0.962429
Zn4	Zn	-0.295680	-0.799175	0.208327
Zn5	Zn	0.037653	-0.465841	0.541660
Zn6	Zn	0.370987	-0.132508	0.874993
Zn7	Zn	-0.208253	-0.711828	0.208324
Zn8	Zn	0.125080	-0.378494	0.541657
Zn9	Zn	0.458414	-0.045161	0.874991
Zn10	Zn	-0.295651	-0.711784	0.295714
Zn11	Zn	0.037683	-0.378450	0.629048
Zn12	Zn	0.371016	-0.045117	0.962381
O13	O	-0.251959	-0.755512	0.252032
O14	O	0.081374	-0.422179	0.585365
O15	O	0.414708	-0.088845	0.918698
O16	O	-0.219861	-0.872416	0.284185
O17	O	0.113472	-0.539082	0.617518
O18	O	0.446805	-0.205749	0.950851
O19	O	-0.284096	-0.787570	0.135161
O20	O	0.049238	-0.454236	0.468494
O21	O	0.382571	-0.120903	0.801828
O22	O	-0.135088	-0.723481	0.219942
O23	O	0.198246	-0.390148	0.553275
O24	O	0.531579	-0.056814	0.886609
O25	O	-0.284095	-0.872351	0.219946
O26	O	0.049239	-0.539018	0.553279
O27	O	0.382572	-0.205685	0.886613
O28	O	-0.135087	-0.787719	0.284182
O29	O	0.198246	-0.454385	0.617516
O30	O	0.531580	-0.121052	0.950849
O31	O	-0.219863	-0.723396	0.135159
O32	O	0.113470	-0.390063	0.468493
O33	O	0.446804	-0.056729	0.801826
O34	O	-0.219835	-0.638656	0.219896
O35	O	0.113499	-0.305323	0.553229
O36	O	0.446832	0.028010	0.886562
O37	O	-0.284044	-0.723406	0.368886
O38	O	0.049289	-0.390073	0.702219
O39	O	0.382622	-0.056739	1.035553
O40	O	-0.284045	-0.638624	0.284101
O41	O	0.049288	-0.305291	0.617434
O42	O	0.382621	0.028042	0.950767
O43	O	-0.219833	-0.787676	0.368921
O44	O	0.113501	-0.454343	0.702254
O45	O	0.446834	-0.121010	1.035588
O46	O	-0.368841	-0.787527	0.219900
O47	O	-0.035508	-0.454194	0.553233
O48	O	0.297825	-0.120860	0.886566
O49	O	-0.368820	-0.723321	0.284103
O50	O	-0.035486	-0.389988	0.617436
O51	O	0.297847	-0.056655	0.950770
C52	C	-0.251937	-0.619669	0.251993
C53	C	0.081396	-0.286336	0.585326
C54	C	0.414730	0.046997	0.918660
C55	C	-0.251940	-0.561555	0.251989
C56	C	0.081393	-0.228222	0.585322
C57	C	0.414726	0.105111	0.918655
C58	C	-0.387801	-0.755424	0.252008
C59	C	-0.054468	-0.422091	0.585341
C60	C	0.278865	-0.088757	0.918674
C61	C	-0.445916	-0.755434	0.252015
C62	C	-0.112582	-0.422101	0.585348
C63	C	0.220751	-0.088768	0.918682
C64	C	-0.285444	-0.201184	0.285418
C65	C	0.047889	0.132149	0.618751
C66	C	0.381222	0.465482	0.952085
C67	C	-0.285447	-0.146580	0.285425
C68	C	0.047886	0.186753	0.618758
C69	C	0.381219	0.520087	0.952091
O70	O	-0.313910	-0.118337	0.313824
O71	O	0.019423	0.214997	0.647158
O72	O	0.352756	0.548330	0.980491
N73	N	-0.251968	-0.119273	0.252050
N74	N	0.081366	0.214060	0.585383
N75	N	0.414699	0.547394	0.918717
C76	C	-0.218480	-0.146573	0.218670
C77	C	0.114854	0.186760	0.552003
C78	C	0.448187	0.520094	0.885337
O79	O	-0.190003	-0.118332	0.190283
O80	O	0.143331	0.215001	0.523616
O81	O	0.476664	0.548335	0.856950
C82	C	-0.218475	-0.201176	0.218666
C83	C	0.114859	0.132157	0.551999
C84	C	0.448192	0.465490	0.885333
C85	C	-0.251960	-0.228481	0.252039
C86	C	0.081373	0.104853	0.585373
C87	C	0.414707	0.438186	0.918706
C88	C	-0.318927	-0.228489	0.318789
C89	C	0.014407	0.104845	0.652122
C90	C	0.347740	0.438178	0.985455
C91	C	-0.318924	-0.283089	0.318781
C92	C	0.014409	0.050244	0.652114
C93	C	0.347742	0.383577	0.985448
C94	C	-0.285440	-0.310385	0.285402
C95	C	0.047893	0.022948	0.618736
C96	C	0.381227	0.356281	0.952069
C97	C	-0.251958	-0.283081	0.252032
C98	C	0.081375	0.050252	0.585365
C99	C	0.414709	0.383586	0.918698
C100	C	-0.184984	-0.228475	0.185289
C101	C	0.148349	0.104858	0.518622
C102	C	0.481682	0.438191	0.851956
C103	C	-0.184982	-0.283082	0.185288
C104	C	0.148351	0.050251	0.518622
C105	C	0.481685	0.383584	0.851955
C106	C	-0.218467	-0.310387	0.218662
C107	C	0.114866	0.022947	0.551995
C108	C	0.448199	0.356280	0.885328
C109	C	-0.218471	-0.364978	0.218645
C110	C	0.114862	-0.031644	0.551979
C111	C	0.448195	0.301689	0.885312
N112	N	-0.251951	-0.392285	0.252020
N113	N	0.081383	-0.058952	0.585353
N114	N	0.414716	0.274382	0.918687
C115	C	-0.285435	-0.364989	0.285399
C116	C	0.047898	-0.031655	0.618732
C117	C	0.381232	0.301678	0.952065
C118	C	-0.218492	-0.031902	0.218681
C119	C	0.114841	0.301431	0.552015
C120	C	0.448175	0.634764	0.885348
C121	C	-0.218499	0.022700	0.218682
C122	C	0.114834	0.356033	0.552015
C123	C	0.448167	0.689367	0.885349
C124	C	-0.285466	0.022689	0.285438
C125	C	0.047867	0.356022	0.618771
C126	C	0.381201	0.689356	0.952104
C127	C	-0.285461	-0.031914	0.285434
C128	C	0.047872	0.301419	0.618767
C129	C	0.381205	0.634752	0.952101
C130	C	-0.251971	-0.059209	0.252056
C131	C	0.081362	0.274124	0.585389
C132	C	0.414695	0.607457	0.918723
C133	C	-0.285428	-0.479654	0.285380
C134	C	0.047905	-0.146321	0.618713
C135	C	0.381238	0.187013	0.952046
C136	C	-0.285425	-0.534259	0.285367
C137	C	0.047909	-0.200926	0.618701
C138	C	0.381242	0.132407	0.952034
C139	C	-0.218456	-0.534244	0.218614
C140	C	0.114877	-0.200910	0.551947
C141	C	0.448211	0.132423	0.885281
C142	C	-0.218461	-0.479643	0.218624
C143	C	0.114872	-0.146310	0.551957
C144	C	0.448205	0.187024	0.885291
C145	C	-0.251949	-0.452349	0.252011
C146	C	0.081384	-0.119016	0.585344
C147	C	0.414717	0.214317	0.918678
O148	O	-0.190021	-0.393256	0.190262
O149	O	0.143312	-0.059923	0.523595
O150	O	0.476645	0.273411	0.856928
O151	O	-0.313902	-0.393236	0.313786
O152	O	0.019431	-0.059903	0.647119
O153	O	0.352764	0.273430	0.980452
C154	C	-0.806277	-0.789031	0.218658
C155	C	-0.472944	-0.455698	0.551991
C156	C	-0.139611	-0.122365	0.885325
C157	C	-0.860882	-0.789051	0.218665
C158	C	-0.527548	-0.455718	0.551998
C159	C	-0.194215	-0.122385	0.885332
O160	O	-0.889117	-0.817526	0.190277
O161	O	-0.555784	-0.484192	0.523611
O162	O	-0.222451	-0.150859	0.856944
N163	N	-0.888198	-0.755604	0.252066
N164	N	-0.554865	-0.422271	0.585400
N165	N	-0.221531	-0.088937	0.918733
C166	C	-0.860907	-0.722138	0.285467
C167	C	-0.527574	-0.388804	0.618800
C168	C	-0.194240	-0.055471	0.952133
O169	O	-0.889156	-0.693690	0.313878
O170	O	-0.555822	-0.360357	0.647212
O171	O	-0.222489	-0.027023	0.980545
C172	C	-0.806304	-0.722120	0.285462
C173	C	-0.472971	-0.388787	0.618795
C174	C	-0.139637	-0.055454	0.952129
C175	C	-0.778990	-0.755566	0.252055
C176	C	-0.445657	-0.422233	0.585388
C177	C	-0.112324	-0.088900	0.918721
C178	C	-0.778964	-0.822475	0.185254
C179	C	-0.445630	-0.489142	0.518587
C180	C	-0.112297	-0.155808	0.851921
C181	C	-0.724363	-0.822454	0.185246
C182	C	-0.391030	-0.489121	0.518580
C183	C	-0.057696	-0.155787	0.851913
C184	C	-0.697076	-0.788989	0.218643
C185	C	-0.363743	-0.455656	0.551976
C186	C	-0.030410	-0.122322	0.885310
C187	C	-0.724390	-0.755545	0.252047
C188	C	-0.391056	-0.422212	0.585380
C189	C	-0.057723	-0.088879	0.918714
C190	C	-0.779014	-0.688657	0.318865
C191	C	-0.445681	-0.355324	0.652198
C192	C	-0.112347	-0.021990	0.985531
C193	C	-0.724407	-0.688643	0.318857
C194	C	-0.391074	-0.355310	0.652191
C195	C	-0.057740	-0.021976	0.985524
C196	C	-0.697094	-0.722089	0.285450
C197	C	-0.363760	-0.388756	0.618783
C198	C	-0.030427	-0.055422	0.952117
C199	C	-0.642502	-0.722059	0.285436
C200	C	-0.309169	-0.388726	0.618770
C201	C	0.024164	-0.055393	0.952103
N202	N	-0.615186	-0.755507	0.252035
N203	N	-0.281853	-0.422174	0.585368
N204	N	0.051481	-0.088840	0.918701
C205	C	-0.642473	-0.788972	0.218638
C206	C	-0.309140	-0.455638	0.551972
C207	C	0.024194	-0.122305	0.885305
C208	C	-0.975578	-0.722177	0.285475
C209	C	-0.642244	-0.388844	0.618808
C210	C	-0.308911	-0.055510	0.952141
C211	C	-1.030180	-0.722191	0.285477
C212	C	-0.696847	-0.388858	0.618811
C213	C	-0.363513	-0.055525	0.952144
C214	C	-1.030151	-0.789106	0.218676
C215	C	-0.696817	-0.455773	0.552010
C216	C	-0.363484	-0.122439	0.885343
C217	C	-0.975547	-0.789089	0.218671
C218	C	-0.642214	-0.455755	0.552005
C219	C	-0.308881	-0.122422	0.885338
C220	C	-0.948261	-0.755625	0.252073
C221	C	-0.614928	-0.422291	0.585407
C222	C	-0.281595	-0.088958	0.918740
C223	C	-0.527808	-0.788925	0.218625
C224	C	-0.194475	-0.455591	0.551958
C225	C	0.138859	-0.122258	0.885291
C226	C	-0.473202	-0.788899	0.218618
C227	C	-0.139869	-0.455566	0.551952
C228	C	0.193464	-0.122232	0.885285
C229	C	-0.473237	-0.721987	0.285421
C230	C	-0.139903	-0.388653	0.618755
C231	C	0.193430	-0.055320	0.952088
C232	C	-0.527837	-0.722010	0.285426
C233	C	-0.194504	-0.388677	0.618759
C234	C	0.138829	-0.055343	0.952092
C235	C	-0.555121	-0.755483	0.252026
C236	C	-0.221788	-0.422150	0.585359
C237	C	0.111545	-0.088817	0.918692
O238	O	-0.614232	-0.693601	0.313811
O239	O	-0.280899	-0.360268	0.647144
O240	O	0.052435	-0.026935	0.980477
O241	O	-0.614218	-0.817419	0.190236
O242	O	-0.280884	-0.484086	0.523570
O243	O	0.052449	-0.150753	0.856903
C244	C	-0.115586	-0.755614	0.252067
C245	C	0.217747	-0.422281	0.585401
C246	C	0.551081	-0.088948	0.918734
C247	C	-0.057472	-0.755658	0.252082
C248	C	0.275862	-0.422325	0.585416
C249	C	0.609195	-0.088992	0.918749
C250	C	-0.251935	-0.755546	0.388405
C251	C	0.081398	-0.422213	0.721738
C252	C	0.414732	-0.088879	1.055071
C253	C	-0.251925	-0.755560	0.446519
C254	C	0.081408	-0.422227	0.779852
C255	C	0.414742	-0.088894	1.113186
C256	C	-0.251979	0.108115	0.252065
C257	C	0.081354	0.441448	0.585398
C258	C	0.414688	0.774782	0.918731
C259	C	-0.251982	0.050001	0.252063
C260	C	0.081351	0.383334	0.585396
C261	C	0.414685	0.716668	0.918730
C262	C	-0.251945	-0.755508	0.116189
C263	C	0.081388	-0.422175	0.449523
C264	C	0.414722	-0.088842	0.782856
C265	C	-0.251808	-0.755595	0.058076
C266	C	0.081526	-0.422262	0.391409
C267	C	0.414859	-0.088928	0.724742
C268	C	-0.218417	-0.722160	0.806887
C269	C	0.114917	-0.388827	1.140220
C270	C	0.448250	-0.055493	1.473553
C271	C	-0.218407	-0.722163	0.861491
C272	C	0.114926	-0.388829	1.194824
C273	C	0.448259	-0.055496	1.528158
O274	O	-0.189975	-0.693738	0.889732
O275	O	0.143358	-0.360405	1.223065
O276	O	0.476692	-0.027071	1.556398
N277	N	-0.251843	-0.755578	0.888802
N278	N	0.081490	-0.422245	1.222135
N279	N	0.414824	-0.088911	1.555468
C280	C	-0.285294	-0.788989	0.861505
C281	C	0.048039	-0.455655	1.194838
C282	C	0.381373	-0.122322	1.528172
O283	O	-0.313733	-0.817411	0.889749
O284	O	0.019600	-0.484077	1.223082
O285	O	0.352934	-0.150744	1.556415
C286	C	-0.285306	-0.788983	0.806902
C287	C	0.048028	-0.455649	1.140235
C288	C	0.381361	-0.122316	1.473568
C289	C	-0.251864	-0.755569	0.779594
C290	C	0.081469	-0.422236	1.112927
C291	C	0.414803	-0.088902	1.446261
C292	C	-0.184978	-0.688749	0.779579
C293	C	0.148355	-0.355415	1.112912
C294	C	0.481688	-0.022082	1.446246
C295	C	-0.184987	-0.688747	0.724978
C296	C	0.148346	-0.355413	1.058312
C297	C	0.481679	-0.022080	1.391645
C298	C	-0.218435	-0.722156	0.697686
C299	C	0.114899	-0.388823	1.031019
C300	C	0.448232	-0.055489	1.364352
C301	C	-0.251873	-0.755567	0.724993
C302	C	0.081460	-0.422234	1.058327
C303	C	0.414794	-0.088900	1.391660
C304	C	-0.318759	-0.822390	0.779606
C305	C	0.014575	-0.489057	1.112939
C306	C	0.347908	-0.155724	1.446273
C307	C	-0.318768	-0.822381	0.724999
C308	C	0.014565	-0.489048	1.058332
C309	C	0.347899	-0.155715	1.391666
C310	C	-0.285326	-0.788968	0.697691
C311	C	0.048007	-0.455634	1.031025
C312	C	0.381340	-0.122301	1.364358
C313	C	-0.285329	-0.788974	0.643100
C314	C	0.048004	-0.455641	0.976433
C315	C	0.381338	-0.122308	1.309767
N316	N	-0.251894	-0.755559	0.615789
N317	N	0.081440	-0.422226	0.949123
N318	N	0.414773	-0.088893	1.282456
C319	C	-0.218446	-0.722150	0.643082
C320	C	0.114887	-0.388817	0.976416
C321	C	0.448220	-0.055483	1.309749
C322	C	-0.285267	-0.788998	0.976176
C323	C	0.048066	-0.455664	1.309509
C324	C	0.381399	-0.122331	1.642842
C325	C	-0.285253	-0.789006	1.030778
C326	C	0.048080	-0.455673	1.364111
C327	C	0.381413	-0.122340	1.697445
C328	C	-0.218367	-0.722180	1.030760
C329	C	0.114966	-0.388847	1.364094
C330	C	0.448299	-0.055513	1.697427
C331	C	-0.218379	-0.722174	0.976157
C332	C	0.114954	-0.388841	1.309490
C333	C	0.448288	-0.055507	1.642824
C334	C	-0.251832	-0.755583	0.948865
C335	C	0.081502	-0.422249	1.282198
C336	C	0.414835	-0.088916	1.615532
C337	C	-0.218467	-0.722149	0.528417
C338	C	0.114866	-0.388815	0.861750
C339	C	0.448199	-0.055482	1.195084
C340	C	-0.218478	-0.722151	0.473812
C341	C	0.114856	-0.388818	0.807145
C342	C	0.448189	-0.055485	1.140478
C343	C	-0.285365	-0.788976	0.473834
C344	C	0.047968	-0.455642	0.807167
C345	C	0.381301	-0.122309	1.140501
C346	C	-0.285353	-0.788975	0.528435
C347	C	0.047980	-0.455642	0.861768
C348	C	0.381313	-0.122309	1.195101
C349	C	-0.251902	-0.755558	0.555725
C350	C	0.081431	-0.422224	0.889058
C351	C	0.414764	-0.088891	1.222392
O352	O	-0.313748	-0.817383	0.614825
O353	O	0.019585	-0.484050	0.948158
O354	O	0.352918	-0.150716	1.281491
O355	O	-0.190017	-0.693728	0.614832
O356	O	0.143316	-0.360395	0.948165
O357	O	0.476650	-0.027061	1.281498
H358	H	-0.312695	-0.556488	0.312544
H359	H	0.020639	-0.223155	0.645878
H360	H	0.353972	0.110179	0.979211
O361	O	-0.697846	-0.656108	0.351232
O362	O	-0.364513	-0.322775	0.684566
O363	O	-0.031179	0.010559	1.017899
C364	C	-0.666320	-0.622331	0.321429
C365	C	-0.332987	-0.288997	0.654762
C366	C	0.000346	0.044336	0.988095
H367	H	-0.658140	-0.640787	0.281824
H368	H	-0.324807	-0.307453	0.615158
H369	H	0.008527	0.025880	0.948491
H370	H	-0.627920	-0.615296	0.342716
H371	H	-0.294587	-0.281963	0.676050
H372	H	0.038746	0.051371	1.009383
H373	H	-0.687407	-0.583597	0.315645
H374	H	-0.354074	-0.250263	0.648978
H375	H	-0.020741	0.083070	0.982312
H376	H	-0.346191	-0.305316	0.345958
H377	H	-0.012857	0.028018	0.679291
H378	H	0.320476	0.361351	1.012625
H379	H	-0.157707	-0.305303	0.158110
H380	H	0.175626	0.028030	0.491444
H381	H	0.508960	0.361364	0.824777
O382	O	-0.152479	-0.202029	0.152791
O383	O	0.180854	0.131305	0.486124
O384	O	0.514187	0.464638	0.819457
C385	C	-0.163848	-0.215341	0.100664
C386	C	0.169486	0.117992	0.433997
C387	C	0.502819	0.451326	0.767331
H388	H	-0.183958	-0.254968	0.099558
H389	H	0.149376	0.078365	0.432891
H390	H	0.482709	0.411699	0.766224
H391	H	-0.126082	-0.217239	0.077288
H392	H	0.207251	0.116095	0.410622
H393	H	0.540584	0.449428	0.743955
H394	H	-0.190695	-0.184582	0.082995
H395	H	0.142639	0.148752	0.416329
H396	H	0.475972	0.482085	0.749662
O397	O	-0.186004	-0.560824	0.186167
O398	O	0.147329	-0.227491	0.519500
O399	O	0.480663	0.105843	0.852833
C400	C	-0.215724	-0.592363	0.152334
C401	C	0.117609	-0.259030	0.485667
C402	C	0.450943	0.074304	0.819000
H403	H	-0.255374	-0.600526	0.170698
H404	H	0.077959	-0.267192	0.504032
H405	H	0.411292	0.066141	0.837365
H406	H	-0.194420	-0.630771	0.145369
H407	H	0.138914	-0.297437	0.478703
H408	H	0.472247	0.035896	0.812036
H409	H	-0.221410	-0.571297	0.113575
H410	H	0.111924	-0.237963	0.446909
H411	H	0.445257	0.095370	0.780242
H412	H	-0.157758	-0.661536	0.702749
H413	H	0.175575	-0.328203	1.036083
H414	H	0.508909	0.005131	1.369416
H415	H	-0.550077	-0.694777	0.312630
H416	H	-0.216744	-0.361444	0.645964
H417	H	0.116590	-0.028110	0.979297
H418	H	-1.052378	-0.816357	0.191485
H419	H	-0.719044	-0.483023	0.524818
H420	H	-0.385711	-0.149690	0.858151
H421	H	-0.801175	-0.849729	0.158058
H422	H	-0.467842	-0.516396	0.491391
H423	H	-0.134508	-0.183062	0.824725
O424	O	-0.351282	-0.854884	0.698569
O425	O	-0.017949	-0.521551	1.031903
O426	O	0.315384	-0.188217	1.365236
C427	C	-0.380803	-0.884362	0.734386
C428	C	-0.047470	-0.551029	1.067719
C429	C	0.285863	-0.217695	1.401052
H430	H	-0.359379	-0.886192	0.773314
H431	H	-0.026045	-0.552859	1.106647
H432	H	0.307288	-0.219525	1.439980
H433	H	-0.386396	-0.925551	0.718629
H434	H	-0.053063	-0.592218	1.051962
H435	H	0.280270	-0.258885	1.385296
H436	H	-0.420505	-0.865181	0.740175
H437	H	-0.087172	-0.531848	1.073509
H438	H	0.246161	-0.198514	1.406842
H439	H	-0.451011	-0.694738	0.312611
H440	H	-0.117678	-0.361405	0.645944
H441	H	0.215656	-0.028072	0.979278
O442	O	-0.185976	-0.689641	0.447366
O443	O	0.147358	-0.356308	0.780700
O444	O	0.480691	-0.022974	1.114033
C445	C	-0.156446	-0.660163	0.483169
C446	C	0.176887	-0.326829	0.816503
C447	C	0.510221	0.006504	1.149836
H448	H	-0.177857	-0.658341	0.522085
H449	H	0.155477	-0.325007	0.855418
H450	H	0.488810	0.008326	1.188752
H451	H	-0.150865	-0.618971	0.467376
H452	H	0.182469	-0.285638	0.800710
H453	H	0.515802	0.047696	1.134043
H454	H	-0.116739	-0.679339	0.488997
H455	H	0.216594	-0.346005	0.822331
H456	H	0.549928	-0.012672	1.155664
H457	H	-0.953312	-0.816324	0.191469
H458	H	-0.619979	-0.482990	0.524802
H459	H	-0.286645	-0.149657	0.858135
H460	H	-0.312729	0.044924	0.312618
H461	H	0.020604	0.378257	0.645951
H462	H	0.353937	0.711590	0.979285
H463	H	-1.052414	-0.694951	0.312676
H464	H	-0.719081	-0.361618	0.646009
H465	H	-0.385748	-0.028284	0.979343
O466	O	-0.185947	-0.689762	0.554980
O467	O	0.147386	-0.356428	0.888313
O468	O	0.480720	-0.023095	1.221646
C469	C	-0.152166	-0.719555	0.586577
C470	C	0.181167	-0.386221	0.919910
C471	C	0.514501	-0.052888	1.253244
H472	H	-0.170612	-0.759162	0.594778
H473	H	0.162721	-0.425829	0.928111
H474	H	0.496054	-0.092495	1.261445
H475	H	-0.145143	-0.698262	0.624962
H476	H	0.188190	-0.364928	0.958296
H477	H	0.521523	-0.031595	1.291629
H478	H	-0.113427	-0.725332	0.565542
H479	H	0.219906	-0.391998	0.898875
H480	H	0.553239	-0.058665	1.232209
O481	O	-0.317911	-0.821351	0.447291
O482	O	0.015422	-0.488017	0.780625
O483	O	0.348755	-0.154684	1.113958
C484	C	-0.351665	-0.791546	0.415676
C485	C	-0.018332	-0.458213	0.749009
C486	C	0.315002	-0.124879	1.082343
H487	H	-0.354881	-0.750368	0.432118
H488	H	-0.021548	-0.417035	0.765451
H489	H	0.311786	-0.083701	1.098785
H490	H	-0.391908	-0.810420	0.415047
H491	H	-0.058575	-0.477087	0.748381
H492	H	0.274759	-0.143753	1.081714
H493	H	-0.335502	-0.789749	0.374298
H494	H	-0.002169	-0.456416	0.707632
H495	H	0.331165	-0.123083	1.040965
O496	O	-0.152434	-0.656277	0.806005
O497	O	0.180899	-0.322944	1.139339
O498	O	0.514232	0.010390	1.472672
C499	C	-0.122938	-0.626781	0.770183
C500	C	0.210395	-0.293448	1.103516
C501	C	0.543728	0.039885	1.436850
H502	H	-0.121150	-0.648199	0.731272
H503	H	0.212184	-0.314865	1.064605
H504	H	0.545517	0.018468	1.397938
H505	H	-0.081736	-0.621239	0.785957
H506	H	0.251597	-0.287905	1.119291
H507	H	0.584931	0.045428	1.452624
H508	H	-0.142077	-0.587056	0.764353
H509	H	0.191257	-0.253723	1.097687
H510	H	0.524590	0.079611	1.431020
O511	O	-0.317930	-0.058412	0.317930
O512	O	0.015404	0.274921	0.651264
O513	O	0.348737	0.608254	0.984597
C514	C	-0.306583	-0.045091	0.370060
C515	C	0.026750	0.288242	0.703393
C516	C	0.360083	0.621576	1.036726
H517	H	-0.264819	-0.030105	0.372774
H518	H	0.068515	0.303229	0.706107
H519	H	0.401848	0.636562	1.039440
H520	H	-0.311121	-0.081011	0.395884
H521	H	0.022213	0.252323	0.729217
H522	H	0.355546	0.585656	1.062551
H523	H	-0.334635	-0.013388	0.383674
H524	H	-0.001301	0.319946	0.717008
H525	H	0.332032	0.653279	1.050341
H526	H	-0.312696	-0.457438	0.312568
H527	H	0.020637	-0.124105	0.645901
H528	H	0.353970	0.209229	0.979234
H529	H	-0.346194	-0.206270	0.345973
H530	H	-0.012861	0.127063	0.679306
H531	H	0.320473	0.460397	1.012639
H532	H	-0.953364	-0.694922	0.312673
H533	H	-0.620031	-0.361589	0.646007
H534	H	-0.286697	-0.028255	0.979340
H535	H	-0.191237	0.044927	0.191501
H536	H	0.142096	0.378260	0.524834
H537	H	0.475429	0.711593	0.858168
H538	H	-0.702128	-0.849690	0.158045
H539	H	-0.368794	-0.516357	0.491378
H540	H	-0.035461	-0.183023	0.824711
O541	O	-0.554245	-0.821514	0.186204
O542	O	-0.220911	-0.488181	0.519537
O543	O	0.112422	-0.154848	0.852871
C544	C	-0.540845	-0.873611	0.197697
C545	C	-0.207512	-0.540277	0.531031
C546	C	0.125822	-0.206944	0.864364
H547	H	-0.501191	-0.874659	0.217801
H548	H	-0.167858	-0.541325	0.551135
H549	H	0.165475	-0.207992	0.884468
H550	H	-0.538961	-0.897074	0.159989
H551	H	-0.205628	-0.563741	0.493322
H552	H	0.127705	-0.230408	0.826656
H553	H	-0.571546	-0.891225	0.224594
H554	H	-0.238213	-0.557891	0.557928
H555	H	0.095120	-0.224558	0.891261
H556	H	-0.191221	-0.054123	0.191497
H557	H	0.142112	0.279211	0.524830
H558	H	0.475446	0.612544	0.858164
O559	O	-0.805457	-0.656152	0.351368
O560	O	-0.472124	-0.322819	0.684702
O561	O	-0.138790	0.010514	1.018035
C562	C	-0.769653	-0.626610	0.380832
C563	C	-0.436320	-0.293277	0.714165
C564	C	-0.102986	0.040057	1.047499
H565	H	-0.730711	-0.648016	0.382652
H566	H	-0.397378	-0.314682	0.715985
H567	H	-0.064045	0.018651	1.049319
H568	H	-0.785404	-0.621018	0.422026
H569	H	-0.452071	-0.287685	0.755359
H570	H	-0.118738	0.045649	1.088692
H571	H	-0.763892	-0.586908	0.361645
H572	H	-0.430559	-0.253575	0.694979
H573	H	-0.097225	0.079759	1.028312
H574	H	-0.312505	-0.816209	0.953958
H575	H	0.020828	-0.482876	1.287291
H576	H	0.354161	-0.149543	1.620625
O577	O	-0.185881	-0.689664	0.949713
O578	O	0.147452	-0.356330	1.283047
O579	O	0.480785	-0.022997	1.616380
C580	C	-0.156350	-0.660190	0.985518
C581	C	0.176984	-0.326857	1.318852
C582	C	0.510317	0.006476	1.652185
H583	H	-0.177758	-0.658374	1.024436
H584	H	0.155575	-0.325040	1.357769
H585	H	0.488909	0.008293	1.691102
H586	H	-0.150770	-0.618996	0.969731
H587	H	0.182564	-0.285663	1.303064
H588	H	0.515897	0.047671	1.636397
H589	H	-0.116642	-0.679367	0.991342
H590	H	0.216691	-0.346033	1.324675
H591	H	0.550024	-0.012700	1.658008
H592	H	-0.312479	-0.816221	1.053007
H593	H	0.020854	-0.482888	1.386341
H594	H	0.354188	-0.149554	1.719674
O595	O	-0.185956	-0.689662	1.057299
O596	O	0.147378	-0.356329	1.390632
O597	O	0.480711	-0.022996	1.723966
C598	C	-0.215720	-0.655886	1.088867
C599	C	0.117613	-0.322553	1.422200
C600	C	0.450947	0.010780	1.755534
H601	H	-0.256900	-0.652632	1.072396
H602	H	0.076433	-0.319298	1.405729
H603	H	0.409766	0.014035	1.739062
H604	H	-0.196810	-0.615660	1.089474
H605	H	0.136523	-0.282327	1.422807
H606	H	0.469856	0.051006	1.756141
H607	H	-0.217517	-0.672053	1.130257
H608	H	0.115816	-0.338720	1.463590
H609	H	0.449149	-0.005387	1.796924
O610	O	-0.351168	-0.854909	0.806143
O611	O	-0.017835	-0.521576	1.139477
O612	O	0.315498	-0.188242	1.472810
C613	C	-0.321407	-0.888703	0.837757
C614	C	0.011927	-0.555369	1.171090
C615	C	0.345260	-0.222036	1.504424
H616	H	-0.280228	-0.891955	0.821321
H617	H	0.053106	-0.558622	1.154654
H618	H	0.386439	-0.225289	1.487988
H619	H	-0.340322	-0.928926	0.838374
H620	H	-0.006988	-0.595593	1.171708
H621	H	0.326345	-0.262260	1.505041
H622	H	-0.319605	-0.872554	0.879138
H623	H	0.013729	-0.539220	1.212471
H624	H	0.347062	-0.205887	1.545805
H625	H	-0.191196	-0.457411	0.191448
H626	H	0.142137	-0.124077	0.524781
H627	H	0.475471	0.209256	0.858114
O628	O	-0.317883	-0.821453	0.554884
O629	O	0.015451	-0.488119	0.888217
O630	O	0.348784	-0.154786	1.221551
C631	C	-0.347393	-0.850952	0.519083
C632	C	-0.014060	-0.517618	0.852416
C633	C	0.319273	-0.184285	1.185749
H634	H	-0.349204	-0.829535	0.480147
H635	H	-0.015870	-0.496201	0.813481
H636	H	0.317463	-0.162868	1.146814
H637	H	-0.388587	-0.856499	0.534848
H638	H	-0.055254	-0.523165	0.868181
H639	H	0.278079	-0.189832	1.201514
H640	H	-0.328254	-0.890675	0.513303
H641	H	0.005080	-0.557342	0.846636
H642	H	0.338413	-0.224008	1.179970
H643	H	-0.450965	-0.816135	0.191412
H644	H	-0.117632	-0.482801	0.524746
H645	H	0.215701	-0.149468	0.858079
