data_functionalizedCrystal
_audit_creation_method	'MofGen! by Chris Wilmer'
_symmetry_space_group_name_H-M	'P1'
_symmetry_Int_Tables_number	1
_symmetry_cell_setting	triclinic
loop_
_symmetry_equiv_pos_as_xyz
  x,y,z
_cell_length_a	21.395362
_cell_length_b	21.295417
_cell_length_c	21.395355
_cell_angle_alpha	90.020404
_cell_angle_beta	90.043940
_cell_angle_gamma	90.045579
loop_
_atom_site_label
_atom_site_type_symbol
_atom_site_fract_x
_atom_site_fract_y
_atom_site_fract_z
Zn1	Zn	0.957864	-0.250415	0.354577
Zn2	Zn	1.291197	0.082918	0.687911
Zn3	Zn	1.624531	0.416251	1.021244
Zn4	Zn	0.957768	-0.355667	0.249796
Zn5	Zn	1.291102	-0.022334	0.583130
Zn6	Zn	1.624435	0.311000	0.916463
Zn7	Zn	0.853079	-0.250445	0.249779
Zn8	Zn	1.186412	0.082889	0.583112
Zn9	Zn	1.519745	0.416222	0.916445
Zn10	Zn	0.853050	-0.355680	0.354501
Zn11	Zn	1.186383	-0.022346	0.687834
Zn12	Zn	1.519716	0.310987	1.021168
O13	O	0.905440	-0.303052	0.302163
O14	O	1.238774	0.030282	0.635497
O15	O	1.572107	0.363615	0.968830
O16	O	1.045529	-0.264359	0.340717
O17	O	1.378862	0.068974	0.674051
O18	O	1.712196	0.402307	1.007384
O19	O	0.943853	-0.341716	0.162116
O20	O	1.277186	-0.008382	0.495449
O21	O	1.610520	0.324951	0.828783
O22	O	0.867031	-0.162351	0.263705
O23	O	1.200364	0.170982	0.597038
O24	O	1.533698	0.504315	0.930372
O25	O	1.045459	-0.341687	0.263735
O26	O	1.378792	-0.008354	0.597069
O27	O	1.712125	0.324979	0.930402
O28	O	0.944016	-0.162330	0.340700
O29	O	1.277349	0.171004	0.674033
O30	O	1.610683	0.504337	1.007367
O31	O	0.866938	-0.264409	0.162103
O32	O	1.200272	0.068924	0.495436
O33	O	1.533605	0.402257	0.828770
O34	O	0.765397	-0.264422	0.263631
O35	O	1.098730	0.068911	0.596964
O36	O	1.432064	0.402245	0.930298
O37	O	0.866982	-0.341709	0.442189
O38	O	1.200315	-0.008376	0.775523
O39	O	1.533648	0.324957	1.108856
O40	O	0.765376	-0.341738	0.340570
O41	O	1.098709	-0.008404	0.673903
O42	O	1.432042	0.324929	1.007237
O43	O	0.943988	-0.264372	0.442245
O44	O	1.277321	0.068961	0.775579
O45	O	1.610655	0.402295	1.108912
O46	O	0.943825	-0.443758	0.263661
O47	O	1.277158	-0.110425	0.596995
O48	O	1.610492	0.222909	0.930328
O49	O	0.866889	-0.443767	0.340587
O50	O	1.200222	-0.110434	0.673921
O51	O	1.533555	0.222899	1.007254
C52	C	0.742652	-0.303085	0.302091
C53	C	1.075986	0.030248	0.635424
C54	C	1.409319	0.363582	0.968757
C55	C	0.673011	-0.303114	0.302074
C56	C	1.006345	0.030219	0.635408
C57	C	1.339678	0.363552	0.968741
C58	C	0.640303	-0.343426	0.342077
C59	C	0.973637	-0.010093	0.675410
C60	C	1.306970	0.323241	1.008743
C61	C	0.574868	-0.343411	0.342105
C62	C	0.908201	-0.010077	0.675438
C63	C	1.241535	0.323256	1.008771
C64	C	0.542143	-0.303090	0.302119
C65	C	0.875476	0.030243	0.635452
C66	C	1.208810	0.363577	0.968786
C67	C	0.574859	-0.262771	0.262114
C68	C	0.908192	0.070563	0.595447
C69	C	1.241525	0.403896	0.928781
C70	C	0.640293	-0.262783	0.262092
C71	C	0.973626	0.070551	0.595425
C72	C	1.306959	0.403884	0.928758
C73	C	0.438418	-0.298019	0.245714
C74	C	0.771751	0.035314	0.579047
C75	C	1.105085	0.368648	0.912381
C76	C	0.372985	-0.298011	0.245735
C77	C	0.706319	0.035322	0.579069
C78	C	1.039652	0.368655	0.912402
C79	C	0.340322	-0.303049	0.302188
C80	C	0.673656	0.030284	0.635522
C81	C	1.006989	0.363618	0.968855
C82	C	0.373100	-0.308108	0.358622
C83	C	0.706434	0.025226	0.691955
C84	C	1.039767	0.358559	1.025288
C85	C	0.438534	-0.308120	0.358599
C86	C	0.771868	0.025213	0.691933
C87	C	1.105201	0.358547	1.025266
C88	C	0.471191	-0.303072	0.302139
C89	C	0.804524	0.030261	0.635472
C90	C	1.137857	0.363595	0.968806
C91	C	0.236662	-0.343346	0.342224
C92	C	0.569995	-0.010013	0.675558
C93	C	0.903329	0.323321	1.008891
C94	C	0.171225	-0.343326	0.342253
C95	C	0.504559	-0.009993	0.675586
C96	C	0.837892	0.323340	1.008920
C97	C	0.171217	-0.262690	0.262257
C98	C	0.504551	0.070644	0.595590
C99	C	0.837884	0.403977	0.928924
C100	C	0.236653	-0.262706	0.262234
C101	C	0.569986	0.070627	0.595567
C102	C	0.903319	0.403961	0.928900
C103	C	0.269371	-0.303038	0.302216
C104	C	0.602704	0.030296	0.635550
C105	C	0.936038	0.363629	0.968883
C106	C	0.905360	-0.466603	0.302132
C107	C	1.238694	-0.133270	0.635465
C108	C	1.572027	0.200063	0.968798
C109	C	0.905383	-0.536571	0.302139
C110	C	1.238717	-0.203238	0.635472
C111	C	1.572050	0.130095	0.968806
C112	C	0.945447	-0.569370	0.342259
C113	C	1.278780	-0.236036	0.675592
C114	C	1.612113	0.097297	1.008926
C115	C	0.945469	-0.635112	0.342275
C116	C	1.278802	-0.301779	0.675608
C117	C	1.612135	0.031555	1.008941
C118	C	0.905434	-0.668054	0.302159
C119	C	1.238768	-0.334721	0.635492
C120	C	1.572101	-0.001387	0.968825
C121	C	0.865363	-0.635248	0.262036
C122	C	1.198697	-0.301914	0.595369
C123	C	1.532030	0.031419	0.928703
C124	C	0.865338	-0.569506	0.262026
C125	C	1.198671	-0.236173	0.595359
C126	C	1.532005	0.097160	0.928693
N127	N	0.900697	-0.771307	0.247324
N128	N	1.234030	-0.437974	0.580657
N129	N	1.567364	-0.104641	0.913990
N130	N	0.900725	-0.833759	0.247335
N131	N	1.234058	-0.500425	0.580668
N132	N	1.567392	-0.167092	0.914001
C133	C	0.905507	-0.866129	0.302187
C134	C	1.238841	-0.532795	0.635520
C135	C	1.572174	-0.199462	0.968854
N136	N	0.910273	-0.833688	0.357029
N137	N	1.243607	-0.500354	0.690363
N138	N	1.576940	-0.167021	1.023696
N139	N	0.910249	-0.771230	0.357017
N140	N	1.243582	-0.437897	0.690351
N141	N	1.576916	-0.104564	1.023684
C142	C	0.905457	-0.739339	0.302165
C143	C	1.238790	-0.406006	0.635499
C144	C	1.572124	-0.072673	0.968832
C145	C	0.945597	-0.970212	0.342327
C146	C	1.278930	-0.636879	0.675661
C147	C	1.612263	-0.303546	1.008994
C148	C	0.945615	-1.035956	0.342344
C149	C	1.278948	-0.702623	0.675677
C150	C	1.612281	-0.369289	1.009010
C151	C	0.865512	-1.036090	0.262100
C152	C	1.198846	-0.702757	0.595433
C153	C	1.532179	-0.369424	0.928766
C154	C	0.865491	-0.970348	0.262089
C155	C	1.198825	-0.637014	0.595422
C156	C	1.532158	-0.303681	0.928755
C157	C	0.905537	-0.937413	0.302202
C158	C	1.238870	-0.604079	0.635535
C159	C	1.572204	-0.270746	0.968868
C160	C	1.068864	-0.303019	0.302237
C161	C	1.402197	0.030315	0.635570
C162	C	1.735530	0.363648	0.968903
C163	C	1.138505	-0.303005	0.302268
C164	C	1.471838	0.030329	0.635601
C165	C	1.805171	0.363662	0.968935
C166	C	0.905492	-0.303039	0.465587
C167	C	1.238826	0.030294	0.798920
C168	C	1.572159	0.363628	1.132253
C169	C	0.905514	-0.303033	0.535228
C170	C	1.238848	0.030300	0.868561
C171	C	1.572181	0.363633	1.201895
C172	C	0.905537	-0.138861	0.302209
C173	C	1.238871	0.194472	0.635542
C174	C	1.572204	0.527805	0.968876
C175	C	0.905579	-0.068893	0.302228
C176	C	1.238912	0.264440	0.635562
C177	C	1.572246	0.597773	0.968895
C178	C	0.905424	-0.303019	0.139376
C179	C	1.238758	0.030314	0.472709
C180	C	1.572091	0.363648	0.806043
C181	C	0.905524	-0.302847	0.069735
C182	C	1.238857	0.030486	0.403068
C183	C	1.572190	0.363820	0.736402
C184	C	0.945610	-0.262762	0.567971
C185	C	1.278943	0.070571	0.901305
C186	C	1.612277	0.403904	1.234638
C187	C	0.945609	-0.262735	0.633407
C188	C	1.278942	0.070598	0.966740
C189	C	1.612276	0.403932	1.300073
C190	C	0.905519	-0.302991	0.666096
C191	C	1.238853	0.030343	0.999430
C192	C	1.572186	0.363676	1.332763
C193	C	0.865416	-0.343265	0.633345
C194	C	1.198749	-0.009931	0.966679
C195	C	1.532083	0.323402	1.300012
C196	C	0.865413	-0.343286	0.567911
C197	C	1.198747	-0.009953	0.901244
C198	C	1.532080	0.323381	1.234578
C199	C	0.900544	-0.359672	0.769758
C200	C	1.233878	-0.026339	1.103092
C201	C	1.567211	0.306995	1.436425
C202	C	0.900551	-0.359652	0.835191
C203	C	1.233884	-0.026318	1.168525
C204	C	1.567218	0.307015	1.501858
C205	C	0.905523	-0.302924	0.867917
C206	C	1.238856	0.030409	1.201251
C207	C	1.572190	0.363743	1.534584
C208	C	0.910501	-0.246215	0.835202
C209	C	1.243835	0.087118	1.168535
C210	C	1.577168	0.420452	1.501869
C211	C	0.910499	-0.246237	0.769768
C212	C	1.243832	0.087097	1.103101
C213	C	1.577166	0.420430	1.436435
C214	C	0.905517	-0.302971	0.737049
C215	C	1.238850	0.030362	1.070382
C216	C	1.572184	0.363695	1.403716
C217	C	0.945620	-0.262620	0.971613
C218	C	1.278953	0.070713	1.304947
C219	C	1.612287	0.404047	1.638280
C220	C	0.945615	-0.262592	1.037050
C221	C	1.278948	0.070741	1.370383
C222	C	1.612281	0.404075	1.703717
C223	C	0.865425	-0.343127	1.036987
C224	C	1.198758	-0.009794	1.370320
C225	C	1.532091	0.323540	1.703654
C226	C	0.865427	-0.343150	0.971552
C227	C	1.198760	-0.009816	1.304885
C228	C	1.532093	0.323517	1.638218
C229	C	0.905528	-0.302897	0.938869
C230	C	1.238861	0.030436	1.272202
C231	C	1.572194	0.363770	1.605535
H232	H	0.144596	-0.376152	0.374832
H233	H	0.477929	-0.042818	0.708165
H234	H	0.811262	0.290515	1.041498
H235	H	0.346508	-0.312209	0.404591
H236	H	0.679841	0.021124	0.737925
H237	H	1.013174	0.354458	1.071258
N238	N	0.822187	-0.386548	1.072238
N239	N	1.155521	-0.053215	1.405571
N240	N	1.488854	0.280118	1.738904
H241	H	0.796788	-0.412066	1.041563
H242	H	1.130121	-0.078733	1.374896
H243	H	1.463454	0.254600	1.708229
H244	H	0.793208	-0.360921	1.099365
H245	H	1.126541	-0.027588	1.432699
H246	H	1.459874	0.305745	1.766032
H247	H	0.263284	-0.229883	0.229656
H248	H	0.596617	0.103450	0.562990
H249	H	0.929950	0.436784	0.896323
H250	H	0.978262	-0.229985	0.541365
H251	H	1.311596	0.103349	0.874698
H252	H	1.644929	0.436682	1.208032
N253	N	0.988684	-0.670494	0.385549
N254	N	1.322017	-0.337161	0.718882
N255	N	1.655351	-0.003827	1.052215
H256	H	1.033450	-0.659005	0.375867
H257	H	1.366783	-0.325672	0.709200
H258	H	1.700117	0.007662	1.042533
H259	H	0.982571	-0.717127	0.379447
H260	H	1.315905	-0.383794	0.712781
H261	H	1.649238	-0.050461	1.046114
H262	H	0.978053	-0.542556	0.374923
H263	H	1.311386	-0.209223	0.708256
H264	H	1.644719	0.124111	1.041590
N265	N	0.915866	-0.185021	0.870483
N266	N	1.249199	0.148312	1.203816
N267	N	1.582532	0.481646	1.537149
H268	H	0.954474	-0.185850	0.897662
H269	H	1.287807	0.147484	1.230996
H270	H	1.621140	0.480817	1.564329
H271	H	0.877671	-0.179146	0.897565
H272	H	1.211004	0.154187	1.230898
H273	H	1.544338	0.487521	1.564231
N274	N	0.895187	-0.420862	0.734465
N275	N	1.228520	-0.087528	1.067798
N276	N	1.561854	0.245805	1.401132
H277	H	0.933353	-0.426759	0.707345
H278	H	1.266687	-0.093426	1.040679
H279	H	1.600020	0.239907	1.374012
H280	H	0.856556	-0.419995	0.707323
H281	H	1.189889	-0.086662	1.040656
H282	H	1.523223	0.246672	1.373989
N283	N	0.915857	-0.185079	0.734477
N284	N	1.249191	0.148254	1.067811
N285	N	1.582524	0.481587	1.401144
H286	H	0.954464	-0.185929	0.707356
H287	H	1.287798	0.147404	1.040689
H288	H	1.621131	0.480738	1.374022
H289	H	0.918981	-0.149168	0.765169
H290	H	1.252314	0.184165	1.098503
H291	H	1.585648	0.517499	1.431836
N292	N	0.473891	-0.313565	0.419460
N293	N	0.807225	0.019768	0.752794
N294	N	1.140558	0.353102	1.086127
H295	H	0.501002	-0.352359	0.418537
H296	H	0.834335	-0.019025	0.751870
H297	H	1.167669	0.314308	1.085204
H298	H	0.443238	-0.316728	0.455197
H299	H	0.776571	0.016605	0.788530
H300	H	1.109904	0.349939	1.121864
N301	N	0.822189	-0.670775	0.218763
N302	N	1.155522	-0.337442	0.552097
N303	N	1.488855	-0.004109	0.885430
H304	H	0.796804	-0.640019	0.193344
H305	H	1.130138	-0.306686	0.526677
H306	H	1.463471	0.026648	0.860011
H307	H	0.793192	-0.698076	0.244233
H308	H	1.126525	-0.364742	0.577567
H309	H	1.459859	-0.031409	0.910900
H310	H	0.832780	-0.375947	0.944892
H311	H	1.166114	-0.042613	1.278225
H312	H	1.499447	0.290720	1.611558
H313	H	0.346302	-0.293896	0.199784
H314	H	0.679636	0.039437	0.533117
H315	H	1.012969	0.372771	0.866450
H316	H	0.144573	-0.229857	0.229703
H317	H	0.477906	0.103476	0.563036
H318	H	0.811240	0.436810	0.896370
N319	N	0.539579	-0.386890	0.385252
N320	N	0.872913	-0.053557	0.718586
N321	N	1.206246	0.279777	1.051919
H322	H	0.570236	-0.412440	0.410578
H323	H	0.903569	-0.079107	0.743912
H324	H	1.236902	0.254227	1.077245
H325	H	0.512374	-0.415975	0.359700
H326	H	0.845708	-0.082642	0.693033
H327	H	1.179041	0.250692	1.026366
H328	H	0.465007	-0.293914	0.199740
H329	H	0.798340	0.039419	0.533073
H330	H	1.131674	0.372753	0.866407
N331	N	0.822165	-0.386674	0.668599
N332	N	1.155499	-0.053340	1.001932
N333	N	1.488832	0.279993	1.335265
H334	H	0.828250	-0.380548	0.715020
H335	H	1.161583	-0.047215	1.048353
H336	H	1.494916	0.286118	1.381687
H337	H	0.831881	-0.431636	0.657170
H338	H	1.165214	-0.098303	0.990503
H339	H	1.498547	0.235031	1.323837
H340	H	0.978258	-0.229938	0.660072
H341	H	1.311592	0.103395	0.993405
H342	H	1.644925	0.436729	1.326738
N343	N	0.895181	-0.420812	0.870475
N344	N	1.228514	-0.087478	1.203808
N345	N	1.561848	0.245855	1.537142
H346	H	0.933349	-0.426703	0.897649
H347	H	1.266682	-0.093370	1.230982
H348	H	1.600015	0.239963	1.564315
H349	H	0.892003	-0.456713	0.839777
H350	H	1.225336	-0.123380	1.173110
H351	H	1.558670	0.209954	1.506443
N352	N	0.822127	-0.534126	0.218751
N353	N	1.155460	-0.200793	0.552084
N354	N	1.488793	0.132540	0.885417
H355	H	0.796766	-0.564968	0.193340
H356	H	1.130099	-0.231635	0.526673
H357	H	1.463433	0.101699	0.860006
H358	H	0.847637	-0.506837	0.189783
H359	H	1.180970	-0.173504	0.523116
H360	H	1.514304	0.159830	0.856450
N361	N	0.988868	-0.219212	0.936351
N362	N	1.322201	0.114121	1.269684
N363	N	1.655535	0.447455	1.603017
H364	H	0.979169	-0.174229	0.947721
H365	H	1.312502	0.159104	1.281054
H366	H	1.645836	0.492437	1.614388
H367	H	0.982761	-0.225402	0.889943
H368	H	1.316094	0.107932	1.223276
H369	H	1.649428	0.441265	1.556609
N370	N	0.539567	-0.219289	0.218979
N371	N	0.872900	0.114044	0.552312
N372	N	1.206234	0.447378	0.885645
H373	H	0.493151	-0.225403	0.225058
H374	H	0.826484	0.107931	0.558391
H375	H	1.159818	0.441264	0.891724
H376	H	0.550953	-0.229031	0.174213
H377	H	0.884286	0.104302	0.507546
H378	H	1.217619	0.437635	0.840880
H379	H	0.832760	-0.376079	0.541252
H380	H	1.166093	-0.042746	0.874585
H381	H	1.499427	0.290588	1.207918
H382	H	0.978202	-0.943396	0.374992
H383	H	1.311536	-0.610062	0.708325
H384	H	1.644869	-0.276729	1.041658
H385	H	0.978239	-1.062659	0.375017
H386	H	1.311572	-0.729326	0.708351
H387	H	1.644905	-0.395993	1.041684
N388	N	0.675575	-0.219297	0.218950
N389	N	1.008909	0.114036	0.552283
N390	N	1.342242	0.447369	0.885616
H391	H	0.644918	-0.193748	0.193625
H392	H	0.978251	0.139586	0.526958
H393	H	1.311584	0.472919	0.860292
H394	H	0.702668	-0.244880	0.189896
H395	H	1.036001	0.088454	0.523229
H396	H	1.369335	0.421787	0.856562
H397	H	0.832871	-0.943642	0.229417
H398	H	1.166204	-0.610308	0.562750
H399	H	1.499537	-0.276975	0.896083
N400	N	0.675592	-0.386924	0.385199
N401	N	1.008926	-0.053591	0.718532
N402	N	1.342259	0.279742	1.051866
H403	H	0.644939	-0.412459	0.410545
H404	H	0.978272	-0.079126	0.743878
H405	H	1.311606	0.254207	1.077212
H406	H	0.702798	-0.361351	0.414234
H407	H	1.036132	-0.028017	0.747567
H408	H	1.369465	0.305316	1.080901
N409	N	0.271957	-0.386842	0.385347
N410	N	0.605290	-0.053508	0.718681
N411	N	0.938624	0.279825	1.052014
H412	H	0.241305	-0.412374	0.410698
H413	H	0.574638	-0.079041	0.744031
H414	H	0.907971	0.254293	1.077364
H415	H	0.299166	-0.361267	0.414378
H416	H	0.632499	-0.027933	0.747712
H417	H	0.965833	0.305400	1.081045
H418	H	0.832911	-1.062911	0.229441
H419	H	1.166245	-0.729577	0.562774
H420	H	1.499578	-0.396244	0.896107
H421	H	0.978264	-0.229795	1.063708
H422	H	1.311598	0.103539	1.397042
H423	H	1.644931	0.436872	1.730375
