data_functionalizedCrystal
_audit_creation_method	'MofGen! by Chris Wilmer'
_symmetry_space_group_name_H-M	'P1'
_symmetry_Int_Tables_number	1
_symmetry_cell_setting	triclinic
loop_
_symmetry_equiv_pos_as_xyz
  x,y,z
_cell_length_a	13.032127
_cell_length_b	13.897449
_cell_length_c	13.032268
_cell_angle_alpha	97.160711
_cell_angle_beta	89.069017
_cell_angle_gamma	97.191079
loop_
_atom_site_label
_atom_site_type_symbol
_atom_site_fract_x
_atom_site_fract_y
_atom_site_fract_z
Zn1	Zn	-0.483304	1.355980	-0.529475
Zn2	Zn	0.016696	1.855980	-0.029475
Zn3	Zn	-0.633490	1.361019	-0.335648
Zn4	Zn	-0.133490	1.861019	0.164352
Zn5	Zn	-0.461511	1.217394	-0.357516
Zn6	Zn	0.038489	1.717394	0.142484
Zn7	Zn	-0.655255	1.177080	-0.507563
Zn8	Zn	-0.155255	1.677080	-0.007563
O9	O	-0.558390	1.277868	-0.432550
O10	O	-0.058390	1.777868	0.067450
O11	O	-0.503238	1.491626	-0.503782
O12	O	-0.003238	1.991626	-0.003782
O13	O	-0.592447	1.360948	-0.194636
O14	O	-0.092447	1.860948	0.305364
O15	O	-0.320466	1.250540	-0.398649
O16	O	0.179534	1.750540	0.101351
O17	O	-0.613579	1.495329	-0.361378
O18	O	-0.113579	1.995329	0.138622
O19	O	-0.336477	1.352359	-0.524987
O20	O	0.163523	1.852359	-0.024987
O21	O	-0.466095	1.255427	-0.210702
O22	O	0.033905	1.755427	0.289298
O23	O	-0.487200	1.077068	-0.377401
O24	O	0.012800	1.577068	0.122599
O25	O	-0.650675	1.181831	-0.654382
O26	O	-0.150675	1.681831	-0.154382
O27	O	-0.629543	1.047449	-0.487640
O28	O	-0.129543	1.547449	0.012360
O29	O	-0.524343	1.313268	-0.670481
O30	O	-0.024343	1.813268	-0.170481
O31	O	-0.780313	1.321857	-0.340131
O32	O	-0.280313	1.821857	0.159869
O33	O	-0.796304	1.186717	-0.466436
O34	O	-0.296304	1.686717	0.033564
C35	C	-0.558370	1.027260	-0.432517
C36	C	-0.058370	1.527260	0.067483
C37	C	-0.558389	0.920043	-0.432523
C38	C	-0.058389	1.420043	0.067477
C39	C	-0.558394	0.832971	-0.432540
C40	C	-0.058394	1.332971	0.067460
C41	C	-0.558406	0.723734	-0.432570
C42	C	-0.058406	1.223734	0.067430
C43	C	-0.825632	1.250483	-0.398555
C44	C	-0.325632	1.750483	0.101445
C45	C	-0.939963	1.238851	-0.384046
C46	C	-0.439963	1.738851	0.115954
C47	C	-1.116955	1.271968	-0.425155
C48	C	-0.616955	1.771968	0.074845
C49	C	-0.998788	1.283998	-0.440153
C50	C	-0.498788	1.783998	0.059847
C51	C	-0.290107	1.305384	-0.466701
C52	C	0.209893	1.805384	0.033299
C53	C	-0.175781	1.317110	-0.481254
C54	C	0.324219	1.817110	0.018746
C55	C	-0.592368	1.242490	-0.700790
C56	C	-0.092368	1.742490	-0.200790
C57	C	-0.606847	1.227414	-0.815098
C58	C	-0.106847	1.727414	-0.315098
C59	C	-0.558411	1.529455	-0.432585
C60	C	-0.058411	2.029455	0.067415
C61	C	-0.558420	1.636666	-0.432600
C62	C	-0.058420	2.136666	0.067400
C63	C	-0.550796	1.285725	-0.874025
C64	C	-0.050796	1.785725	-0.374025
C65	C	-0.565760	1.270145	-0.992168
C66	C	-0.065760	1.770145	-0.492168
C67	C	-0.524470	1.313172	-0.165364
C68	C	-0.024470	1.813172	0.334636
C69	C	-0.509701	1.328464	-0.051094
C70	C	-0.009701	1.828464	0.448906
H71	H	-1.154075	1.224412	-0.366026
H72	H	-0.654075	1.724412	0.133974
H73	H	-1.138663	1.364659	-0.540391
H74	H	-0.638663	1.864659	-0.040391
C75	C	-0.431009	1.410544	-1.001870
C76	C	0.068991	1.910544	-0.501870
C77	C	-0.456665	1.500276	-1.025097
C78	C	0.043335	2.000276	-0.525097
C79	C	-0.384191	1.575903	-0.979777
C80	C	0.115809	2.075903	-0.479777
H81	H	-0.431357	1.410255	-0.929016
H82	H	0.068643	1.910255	-0.429016
H83	H	-0.364092	1.401271	-1.028243
H84	H	0.135908	1.901271	-0.528243
H85	H	-0.523565	1.509547	-0.998720
H86	H	-0.023565	2.009547	-0.498720
H87	H	-0.456310	1.500597	-1.097942
H88	H	0.043690	2.000597	-0.597942
H89	H	-0.317273	1.566631	-1.006149
H90	H	0.182727	2.066631	-0.506149
H91	H	-0.384544	1.575605	-0.906925
H92	H	0.115456	2.075605	-0.406925
H93	H	-0.401583	1.636794	-0.995538
H94	H	0.098417	2.136794	-0.495538
H95	H	-0.491727	1.347179	-0.837010
H96	H	0.008273	1.847179	-0.337010
C97	C	-0.644513	1.188280	-1.041697
C98	C	-0.144513	1.688280	-0.541697
C99	C	-0.643727	1.189124	-1.149027
C100	C	-0.143727	1.689124	-0.649027
C101	C	-0.716270	1.113737	-1.194686
C102	C	-0.216270	1.613737	-0.694686
H103	H	-0.627335	1.127249	-1.026167
H104	H	-0.127335	1.627249	-0.526167
H105	H	-0.711445	1.197612	-1.015403
H106	H	-0.211445	1.697612	-0.515403
H107	H	-0.576810	1.179785	-1.175312
H108	H	-0.076810	1.679785	-0.675312
H109	H	-0.660916	1.250138	-1.164586
H110	H	-0.160916	1.750138	-0.664586
H111	H	-0.783201	1.123069	-1.168392
H112	H	-0.283201	1.623069	-0.668392
H113	H	-0.699085	1.052711	-1.179148
H114	H	-0.199085	1.552711	-0.679148
H115	H	-0.715752	1.114305	-1.267512
H116	H	-0.215752	1.614305	-0.767512
H117	H	-0.961675	1.331551	-0.499294
H118	H	-0.461675	1.831551	0.000706
H119	H	-0.665906	1.165952	-0.852113
H120	H	-0.165906	1.665952	-0.352113
H121	H	-0.977078	1.191287	-0.324915
H122	H	-0.477078	1.691287	0.175085
