data_functionalizedCrystal
_audit_creation_method	'MofGen! by Chris Wilmer'
_symmetry_space_group_name_H-M	'P1'
_symmetry_Int_Tables_number	1
_symmetry_cell_setting	triclinic
loop_
_symmetry_equiv_pos_as_xyz
  x,y,z
_cell_length_a	29.839134
_cell_length_b	29.839125
_cell_length_c	29.839131
_cell_angle_alpha	90.017709
_cell_angle_beta	89.963719
_cell_angle_gamma	89.978020
loop_
_atom_site_label
_atom_site_type_symbol
_atom_site_fract_x
_atom_site_fract_y
_atom_site_fract_z
Zn1	Zn	0.686720	-0.254125	0.178978
Zn2	Zn	0.686652	-0.178995	0.254090
Zn3	Zn	0.611602	-0.178995	0.178968
Zn4	Zn	0.611550	-0.254083	0.254075
O5	O	0.649131	-0.216549	0.216528
O6	O	0.749578	-0.244176	0.188952
O7	O	0.676690	-0.116128	0.244127
O8	O	0.621617	-0.188978	0.116102
O9	O	0.749528	-0.188979	0.244137
O10	O	0.676805	-0.244176	0.116109
O11	O	0.621551	-0.116127	0.188935
O12	O	0.548728	-0.188938	0.188921
O13	O	0.621528	-0.316956	0.244111
O14	O	0.548690	-0.244105	0.244101
O15	O	0.676755	-0.316987	0.188937
O16	O	0.676639	-0.188938	0.316955
O17	O	0.621462	-0.244105	0.316944
C18	C	0.532408	-0.216517	0.216509
C19	C	0.482474	-0.216514	0.216511
C20	C	0.649143	-0.333728	0.216524
C21	C	0.649148	-0.383662	0.216522
C22	C	0.172820	-0.245240	0.245303
C23	C	-0.014853	-0.245260	0.245315
O24	O	-0.039127	-0.269665	0.269774
N25	N	-0.038311	-0.216583	0.216544
C26	C	-0.014848	-0.187902	0.187766
O27	O	-0.039107	-0.163514	0.163291
C28	C	0.172824	-0.187884	0.187751
C29	C	0.196280	-0.216560	0.216527
C30	C	0.196276	-0.273913	0.274076
C31	C	0.243191	-0.273906	0.274075
C32	C	0.266651	-0.245226	0.245299
C33	C	0.243195	-0.216553	0.216526
C34	C	0.196286	-0.159205	0.158971
C35	C	0.243207	-0.159204	0.158969
C36	C	0.266663	-0.187880	0.187745
C37	C	0.313570	-0.187865	0.187749
N38	N	0.337029	-0.216542	0.216520
C39	C	0.313569	-0.245222	0.245295
C40	C	-0.113379	-0.187912	0.187776
C41	C	-0.160297	-0.187916	0.187780
C42	C	-0.160298	-0.245275	0.245329
C43	C	-0.113380	-0.245269	0.245327
C44	C	-0.089921	-0.216589	0.216547
C45	C	0.412095	-0.245205	0.245290
C46	C	0.459014	-0.245194	0.245287
C47	C	0.459012	-0.187837	0.187736
C48	C	0.412096	-0.187846	0.187740
C49	C	0.388639	-0.216534	0.216519
O50	O	0.337873	-0.163477	0.163299
O51	O	0.337836	-0.269613	0.269759
C52	C	0.125905	-0.245247	0.245304
C53	C	0.102449	-0.216574	0.216531
C54	C	0.125909	-0.187893	0.187755
C55	C	0.055531	-0.216577	0.216535
C56	C	0.032071	-0.245258	0.245310
C57	C	0.055529	-0.273934	0.274082
C58	C	0.102445	-0.273927	0.274080
C59	C	0.102451	-0.159217	0.158984
C60	C	0.055535	-0.159226	0.158989
C61	C	0.032075	-0.187906	0.187764
C62	C	0.677935	-0.693325	0.187718
C63	C	0.677957	-0.880998	0.187680
O64	O	0.702399	-0.905279	0.163232
N65	N	0.649208	-0.904448	0.216402
C66	C	0.620449	-0.880976	0.245133
O67	O	0.595993	-0.905228	0.269559
C68	C	0.620424	-0.693304	0.245169
C69	C	0.649179	-0.669857	0.216448
C70	C	0.706687	-0.669877	0.158999
C71	C	0.706683	-0.622962	0.159011
C72	C	0.677927	-0.599494	0.187741
C73	C	0.649175	-0.622941	0.216460
C74	C	0.591663	-0.669833	0.273898
C75	C	0.591659	-0.622912	0.273903
C76	C	0.620414	-0.599465	0.245183
C77	C	0.620415	-0.552558	0.245202
N78	N	0.649164	-0.529108	0.216480
C79	C	0.677920	-0.552576	0.187749
C80	C	0.620464	-0.979507	0.245113
C81	C	0.620471	-1.026425	0.245105
C82	C	0.677979	-1.026443	0.187650
C83	C	0.677974	-0.979524	0.187661
C84	C	0.649214	-0.956057	0.216391
C85	C	0.677910	-0.454050	0.187776
C86	C	0.677904	-0.407130	0.187792
C87	C	0.620395	-0.407116	0.245244
C88	C	0.620401	-0.454032	0.245230
C89	C	0.649161	-0.477497	0.216493
O90	O	0.595982	-0.528248	0.269633
O91	O	0.702366	-0.528316	0.163320
C92	C	0.677939	-0.740240	0.187706
C93	C	0.649187	-0.763688	0.216425
C94	C	0.620431	-0.740219	0.245155
C95	C	0.649194	-0.810605	0.216417
C96	C	0.677950	-0.834074	0.187686
C97	C	0.706699	-0.810624	0.158964
C98	C	0.706695	-0.763708	0.158976
C99	C	0.591682	-0.763669	0.273877
C100	C	0.591689	-0.810585	0.273864
C101	C	0.620445	-0.834053	0.245133
C102	C	0.766309	-0.216582	0.216547
C103	C	0.816244	-0.216596	0.216555
C104	C	0.649050	-0.216527	0.333250
C105	C	0.649056	-0.216533	0.383185
C106	C	0.649145	-0.099827	0.216499
C107	C	0.649227	-0.049893	0.216374
C108	C	0.649225	-0.216582	0.099349
C109	C	0.649265	-0.216595	0.049415
C110	C	0.677914	-0.187866	0.692821
C111	C	0.677969	-0.187883	0.880494
O112	O	0.702441	-0.163493	0.904753
N113	N	0.649224	-0.216583	0.903970
C114	C	0.620465	-0.245283	0.880524
O115	O	0.596020	-0.269698	0.904798
C116	C	0.620412	-0.245268	0.692852
C117	C	0.649156	-0.216563	0.669379
C118	C	0.706656	-0.159164	0.669348
C119	C	0.706640	-0.159158	0.622433
C120	C	0.677882	-0.187854	0.598990
C121	C	0.649140	-0.216557	0.622463
C122	C	0.591656	-0.273969	0.669407
C123	C	0.591646	-0.273964	0.622486
C124	C	0.620390	-0.245259	0.599013
C125	C	0.620367	-0.245248	0.552106
N126	N	0.649112	-0.216548	0.528630
C127	C	0.677869	-0.187851	0.552072
C128	C	0.620494	-0.245289	0.979055
C129	C	0.620507	-0.245292	1.025973
C130	C	0.678012	-0.187893	1.025939
C131	C	0.677996	-0.187887	0.979021
C132	C	0.649239	-0.216589	0.955579
C133	C	0.677834	-0.187841	0.453547
C134	C	0.677814	-0.187836	0.406627
C135	C	0.620311	-0.245237	0.406664
C136	C	0.620329	-0.245240	0.453580
C137	C	0.649094	-0.216540	0.477020
O138	O	0.595912	-0.269629	0.527818
O139	O	0.702318	-0.163447	0.527791
C140	C	0.677930	-0.187872	0.739737
C141	C	0.649188	-0.216574	0.763210
C142	C	0.620430	-0.245271	0.739767
C143	C	0.649200	-0.216578	0.810128
C144	C	0.677958	-0.187881	0.833570
C145	C	0.706703	-0.159181	0.810094
C146	C	0.706687	-0.159175	0.763179
C147	C	0.591685	-0.273971	0.763243
C148	C	0.591703	-0.273974	0.810158
C149	C	0.620461	-0.245277	0.833601
H150	H	0.478110	-0.268545	0.268721
C151	C	0.737872	-0.127956	0.835535
C152	C	0.728121	-0.083488	0.824172
C153	C	0.756820	-0.054718	0.847609
H154	H	0.768067	-0.134506	0.827838
H155	H	0.733754	-0.132049	0.866842
H156	H	0.732243	-0.079397	0.792873
H157	H	0.697931	-0.076924	0.831871
H158	H	0.752702	-0.058811	0.878916
H159	H	0.787013	-0.061272	0.839910
H160	H	0.750205	-0.024543	0.839906
H161	H	0.596991	-0.473123	0.268621
H162	H	0.393001	-0.268566	0.268723
H163	H	0.262285	-0.297258	0.297506
C164	C	0.560566	-0.305169	0.835697
C165	C	0.585994	-0.333988	0.862601
C166	C	0.557331	-0.362730	0.886136
H167	H	0.543429	-0.322301	0.815063
H168	H	0.541014	-0.287982	0.854054
H169	H	0.605538	-0.351173	0.844246
H170	H	0.603130	-0.316869	0.883243
H171	H	0.537778	-0.345543	0.904492
H172	H	0.540195	-0.379858	0.865498
H173	H	0.574579	-0.382284	0.904396
C174	C	0.386708	-0.156694	0.156452
C175	C	0.417298	-0.131582	0.131246
C176	C	0.393931	-0.102886	0.102410
H177	H	0.368381	-0.137051	0.173556
H178	H	0.368439	-0.173909	0.136878
H179	H	0.435560	-0.114368	0.150817
H180	H	0.435626	-0.151212	0.114132
H181	H	0.375661	-0.120101	0.082837
H182	H	0.375604	-0.083247	0.119518
H183	H	0.414682	-0.085847	0.085302
C184	C	0.560408	-0.305143	0.737877
C185	C	0.535232	-0.330267	0.768482
C186	C	0.506406	-0.358982	0.745134
H187	H	0.577517	-0.324777	0.719546
H188	H	0.540815	-0.287942	0.719612
H189	H	0.554823	-0.347466	0.786739
H190	H	0.518114	-0.310644	0.786814
H191	H	0.486813	-0.341782	0.726869
H192	H	0.523520	-0.378614	0.726804
H193	H	0.489319	-0.376029	0.765896
C194	C	0.737844	-0.836132	0.127713
C195	C	0.712426	-0.863053	0.098905
C196	C	0.741097	-0.886555	0.070106
H197	H	0.757415	-0.854477	0.144845
H198	H	0.754961	-0.815465	0.110581
H199	H	0.695317	-0.883718	0.116036
H200	H	0.692856	-0.844719	0.081764
H201	H	0.758213	-0.865888	0.052973
H202	H	0.760666	-0.904898	0.087241
H203	H	0.723855	-0.904820	0.050554
H204	H	0.121538	-0.297278	0.297512
C205	C	0.170891	-0.305070	0.305372
C206	C	0.201484	-0.330168	0.330574
C207	C	0.178120	-0.358870	0.359417
H208	H	0.152604	-0.324721	0.288274
H209	H	0.152582	-0.287861	0.324948
H210	H	0.219786	-0.347377	0.311000
H211	H	0.219772	-0.310529	0.347681
H212	H	0.159811	-0.341660	0.378993
H213	H	0.159834	-0.378518	0.342316
H214	H	0.198874	-0.375899	0.376523
C215	C	0.589191	-0.381550	0.276385
C216	C	0.595335	-0.335444	0.270234
C217	C	0.566591	-0.311877	0.298907
H218	H	0.595709	-0.389180	0.306590
H219	H	0.559002	-0.389204	0.269796
H220	H	0.625516	-0.327792	0.276827
H221	H	0.588813	-0.327800	0.240036
H222	H	0.536402	-0.319531	0.292318
H223	H	0.573111	-0.319511	0.329110
H224	H	0.570752	-0.280592	0.294735
H225	H	-0.094285	-0.268619	0.268759
C226	C	0.589063	-0.276328	0.479090
C227	C	0.560287	-0.250865	0.506059
C228	C	0.531477	-0.279491	0.529556
H229	H	0.606188	-0.295934	0.497402
H230	H	0.571907	-0.293407	0.458420
H231	H	0.577441	-0.233793	0.526726
H232	H	0.543152	-0.231260	0.487758
H233	H	0.514322	-0.296571	0.508886
H234	H	0.548606	-0.299096	0.547865
H235	H	0.511947	-0.262219	0.547854
H236	H	-0.179407	-0.268628	0.268759
H237	H	-0.094283	-0.164556	0.164339
C238	C	-0.185679	-0.156762	0.156491
C239	C	-0.155086	-0.131655	0.131284
C240	C	-0.178449	-0.102957	0.102449
H241	H	-0.204002	-0.137116	0.173596
H242	H	-0.203952	-0.173974	0.136919
H243	H	-0.136820	-0.114444	0.150853
H244	H	-0.136761	-0.151289	0.114170
H245	H	-0.196722	-0.120169	0.082876
H246	H	-0.196772	-0.083314	0.119557
H247	H	-0.157695	-0.085921	0.085339
H248	H	0.262305	-0.135852	0.135529
C249	C	0.170909	-0.128057	0.127675
C250	C	0.201506	-0.102955	0.102467
C251	C	0.178146	-0.074260	0.073625
H252	H	0.152584	-0.108409	0.144774
H253	H	0.152638	-0.145272	0.108102
H254	H	0.219769	-0.085741	0.122036
H255	H	0.219832	-0.122591	0.085358
H256	H	0.159875	-0.091475	0.054053
H257	H	0.159822	-0.054614	0.090728
H258	H	0.198902	-0.057227	0.056515
C259	C	0.589331	-1.051901	0.276350
C260	C	0.614748	-1.078828	0.305154
C261	C	0.586076	-1.102296	0.333948
H262	H	0.569761	-1.070238	0.259214
H263	H	0.572214	-1.031213	0.293486
H264	H	0.631857	-1.099514	0.288020
H265	H	0.634317	-1.060502	0.322300
H266	H	0.568960	-1.081608	0.351084
H267	H	0.566508	-1.120631	0.316809
H268	H	0.603318	-1.120566	0.353498
C269	C	0.589046	-0.276415	0.381288
C270	C	0.563869	-0.301550	0.411883
C271	C	0.535064	-0.330276	0.388522
H272	H	0.606170	-0.296041	0.362962
H273	H	0.569453	-0.259221	0.363017
H274	H	0.583460	-0.318743	0.430146
H275	H	0.546736	-0.281936	0.430210
H276	H	0.515470	-0.313082	0.370251
H277	H	0.552191	-0.349899	0.370197
H278	H	0.517975	-0.347331	0.409277
C279	C	0.737930	-0.738336	0.127741
C280	C	0.763102	-0.768939	0.102573
C281	C	0.791876	-0.745586	0.073788
H282	H	0.757531	-0.720035	0.144880
H283	H	0.720769	-0.720042	0.108141
H284	H	0.780261	-0.787226	0.122170
H285	H	0.743513	-0.787241	0.085425
H286	H	0.774716	-0.727291	0.054188
H287	H	0.811474	-0.727286	0.090931
H288	H	0.808956	-0.766346	0.056705
C289	C	0.484569	-0.156750	0.156511
C290	C	0.530677	-0.162895	0.162662
C291	C	0.554235	-0.134273	0.133898
H292	H	0.476919	-0.126534	0.163007
H293	H	0.476928	-0.163389	0.126327
H294	H	0.538315	-0.156254	0.192839
H295	H	0.538341	-0.193106	0.156162
H296	H	0.546594	-0.140912	0.103714
H297	H	0.546581	-0.104059	0.140397
H298	H	0.585522	-0.138442	0.138064
C299	C	0.029972	-0.305057	0.305274
C300	C	-0.016136	-0.298929	0.299104
C301	C	-0.039695	-0.327596	0.327823
H302	H	0.037582	-0.298458	0.335469
H303	H	0.037653	-0.335263	0.298739
H304	H	-0.023813	-0.268730	0.305643
H305	H	-0.023759	-0.305532	0.268916
H306	H	-0.032014	-0.357802	0.321287
H307	H	-0.032081	-0.320994	0.358015
H308	H	-0.070981	-0.323445	0.323637
H309	H	0.036441	-0.135871	0.135556
C310	C	0.709141	-0.381755	0.156557
C311	C	0.734315	-0.412353	0.131385
C312	C	0.763088	-0.388996	0.102604
H313	H	0.728741	-0.363455	0.173698
H314	H	0.691980	-0.363459	0.136959
H315	H	0.751475	-0.430642	0.150981
H316	H	0.714726	-0.430654	0.114235
H317	H	0.745927	-0.370700	0.083006
H318	H	0.782686	-0.370697	0.119749
H319	H	0.780169	-0.409753	0.085519
C320	C	0.737924	-0.128084	0.737640
C321	C	0.766687	-0.153547	0.710659
C322	C	0.795466	-0.124920	0.687125
H323	H	0.755094	-0.110986	0.758275
H324	H	0.720761	-0.108494	0.719336
H325	H	0.783848	-0.173129	0.728962
H326	H	0.749530	-0.170643	0.690016
H327	H	0.778304	-0.105329	0.668821
H328	H	0.812633	-0.107823	0.707763
H329	H	0.814983	-0.142191	0.668813
C330	C	0.709060	-0.479546	0.156522
C331	C	0.683654	-0.506468	0.127704
C332	C	0.712336	-0.529956	0.098905
H333	H	0.728633	-0.497889	0.173653
H334	H	0.726174	-0.458871	0.139396
H335	H	0.666549	-0.527141	0.144827
H336	H	0.664082	-0.488136	0.110563
H337	H	0.729449	-0.509281	0.081779
H338	H	0.731908	-0.548297	0.116039
H339	H	0.695102	-0.548222	0.079345
H340	H	0.568274	-0.829671	0.297256
C341	C	0.737916	-0.597590	0.127774
C342	C	0.763087	-0.628192	0.102605
C343	C	0.791859	-0.604840	0.073818
H344	H	0.757517	-0.579288	0.144911
H345	H	0.720753	-0.579296	0.108175
H346	H	0.780248	-0.646478	0.122202
H347	H	0.743497	-0.646495	0.085459
H348	H	0.774696	-0.586546	0.054219
H349	H	0.811457	-0.586538	0.090959
H350	H	0.808938	-0.625600	0.056734
C351	C	0.560509	-0.597374	0.305124
C352	C	0.585921	-0.570436	0.333922
C353	C	0.557243	-0.546899	0.362685
H354	H	0.543375	-0.618006	0.322271
H355	H	0.540954	-0.579040	0.287952
H356	H	0.605468	-0.588768	0.351092
H357	H	0.603053	-0.549795	0.316788
H358	H	0.537688	-0.528565	0.345513
H359	H	0.540111	-0.567535	0.379829
H360	H	0.574481	-0.528616	0.382225
H361	H	0.730104	-0.688980	0.135601
H362	H	0.121547	-0.135861	0.135551
H363	H	0.701388	-0.960437	0.164274
H364	H	0.701393	-1.045559	0.164257
H365	H	0.597097	-0.268662	1.045080
H366	H	0.568265	-0.744566	0.297274
C367	C	0.737802	-0.128012	0.596870
C368	C	0.731634	-0.134136	0.550763
C369	C	0.760332	-0.105447	0.527204
H370	H	0.768002	-0.134594	0.604478
H371	H	0.731247	-0.097811	0.604554
H372	H	0.738192	-0.164330	0.543082
H373	H	0.701440	-0.127550	0.543141
H374	H	0.753776	-0.075247	0.534888
H375	H	0.790529	-0.112032	0.534816
H376	H	0.756147	-0.109596	0.495918
H377	H	0.597044	-0.960404	0.268511
H378	H	0.568248	-0.688916	0.297285
C379	C	0.709073	-0.156653	0.381224
C380	C	0.734270	-0.131533	0.411799
C381	C	0.763074	-0.102809	0.388416
H382	H	0.691947	-0.137016	0.362944
H383	H	0.728654	-0.173847	0.362904
H384	H	0.714691	-0.114340	0.430111
H385	H	0.751405	-0.151158	0.430080
H386	H	0.782655	-0.120003	0.370097
H387	H	0.745944	-0.083175	0.370138
H388	H	0.780176	-0.085765	0.409158
C389	C	0.709255	-0.156707	0.953619
C390	C	0.734447	-0.131585	0.984197
C391	C	0.763252	-0.102860	0.960816
H392	H	0.692130	-0.137072	0.935337
H393	H	0.728839	-0.173901	0.935303
H394	H	0.714865	-0.114392	1.002505
H395	H	0.751581	-0.151208	1.002480
H396	H	0.782836	-0.120054	0.942499
H397	H	0.746124	-0.083228	0.942534
H398	H	0.780351	-0.085814	0.981559
C399	C	0.709250	-0.156817	1.051477
C400	C	0.703127	-0.162990	1.097589
C401	C	0.731915	-0.134394	1.121130
H402	H	0.702759	-0.126594	1.043880
H403	H	0.739427	-0.163463	1.043769
H404	H	0.672957	-0.156342	1.105294
H405	H	0.709623	-0.193208	1.105200
H406	H	0.762092	-0.141039	1.113422
H407	H	0.725421	-0.104172	1.113529
H408	H	0.727768	-0.138581	1.152419
H409	H	0.730076	-0.135795	0.688430
C410	C	0.589216	-0.276465	0.953689
C411	C	0.564039	-0.301587	0.984295
C412	C	0.535215	-0.330304	0.960947
H413	H	0.606327	-0.296101	0.935360
H414	H	0.569624	-0.259266	0.935422
H415	H	0.583629	-0.318784	1.002554
H416	H	0.546919	-0.281963	1.002624
H417	H	0.515623	-0.313105	0.942680
H418	H	0.552329	-0.349937	0.942619
H419	H	0.518126	-0.347350	0.981710
H420	H	0.701258	-0.164472	0.472626
H421	H	0.568248	-0.297342	0.688511
H422	H	0.568229	-0.297337	0.603402
