data_functionalizedCrystal
_audit_creation_method	'MofGen! by Chris Wilmer'
_symmetry_space_group_name_H-M	'P1'
_symmetry_Int_Tables_number	1
_symmetry_cell_setting	triclinic
loop_
_symmetry_equiv_pos_as_xyz
  x,y,z
_cell_length_a	6.817900
_cell_length_b	11.102210
_cell_length_c	10.943624
_cell_angle_alpha	91.861509
_cell_angle_beta	108.838799
_cell_angle_gamma	108.604261
loop_
_atom_site_label
_atom_site_type_symbol
_atom_site_fract_x
_atom_site_fract_y
_atom_site_fract_z
V1	V	-4.114273	-0.175805	-0.402548
O2	O	-4.073263	0.008482	-0.394888
O3	O	-4.091022	-0.348625	-0.399792
O4	O	-4.092255	-0.173086	-0.578115
O5	O	-4.072022	-0.168272	-0.215331
V6	V	-4.591224	-0.153764	-0.380156
O7	O	-4.389948	-0.224154	-0.451668
O8	O	-4.765746	-0.105415	-0.331037
O9	O	-4.391268	0.019056	-0.382912
O10	O	-4.749631	-0.338051	-0.387816
O11	O	-4.750872	-0.161297	-0.567373
O12	O	-4.390036	-0.156483	-0.204589
C13	C	-3.941288	-0.390755	-0.393441
C14	C	-4.003740	-0.532038	-0.392358
C15	C	-4.030815	-0.713041	-0.272617
C16	C	-3.972110	-0.580289	-0.273620
C17	C	-4.094060	-0.616546	-0.510101
C18	C	-4.152749	-0.749296	-0.509096
C19	C	-3.942858	-0.166836	-0.620908
C20	C	-4.006305	-0.165756	-0.764434
C21	C	-3.851186	-0.158485	-0.841582
C22	C	-4.039794	-0.266415	-0.947570
C23	C	-3.930776	-0.055914	-0.914187
C24	C	-4.194124	-0.273788	-0.868546
C25	C	-4.085026	-0.063191	-0.835139
C26	C	-4.273770	-0.171152	-0.941097
C27	C	-4.204345	0.061179	-0.389260
C28	C	-4.121133	0.202460	-0.390351
C29	C	-4.202774	-0.162737	-0.161790
C30	C	-4.118564	-0.163811	-0.018262
H31	H	-3.672021	-0.153273	-0.798133
H32	H	-4.304866	-0.365969	-0.848000
H33	H	-4.021335	-0.352331	-0.996517
F34	F	-4.508095	-0.178182	-0.997623
H35	H	-4.005061	-0.752316	-0.175927
F36	F	-4.248838	-0.839230	-0.634410
F37	F	-4.109041	0.049112	-0.771110
H38	H	-3.898566	-0.511494	-0.177749
F39	F	-4.127700	-0.565190	-0.636471
H40	H	-3.820067	0.036144	-0.934950
