data_functionalizedCrystal
_audit_creation_method	'MofGen! by Chris Wilmer'
_symmetry_space_group_name_H-M	'P1'
_symmetry_Int_Tables_number	1
_symmetry_cell_setting	triclinic
loop_
_symmetry_equiv_pos_as_xyz
  x,y,z
_cell_length_a	14.446369
_cell_length_b	18.426585
_cell_length_c	18.426585
_cell_angle_alpha	90.000127
_cell_angle_beta	60.002464
_cell_angle_gamma	59.999190
loop_
_atom_site_label
_atom_site_type_symbol
_atom_site_fract_x
_atom_site_fract_y
_atom_site_fract_z
Zr1	Zr	1.013274	-0.095289	0.699119
O2	O	1.206381	-0.211170	0.583246
O3	O	0.820159	-0.059761	0.734640
O4	O	1.013270	-0.211167	0.734643
O5	O	1.013276	0.059662	0.583241
O6	O	1.013276	-0.211170	0.854069
O7	O	1.013270	-0.059764	0.583242
O8	O	0.667836	0.059667	0.854063
O9	O	1.358717	-0.211175	0.583247
O10	O	0.899598	-0.044617	0.838916
O11	O	0.899598	0.044512	0.749789
O12	O	1.126961	-0.133749	0.749793
O13	O	1.126961	-0.044620	0.660665
Zr14	Zr	1.013295	0.095176	0.889587
Zr15	Zr	1.013285	-0.095294	0.889590
Zr16	Zr	1.013285	0.095181	0.699116
Zr17	Zr	1.256232	-0.095298	0.699121
Zr18	Zr	0.770337	0.095185	0.889585
O19	O	1.206410	0.059648	0.854066
O20	O	1.206396	-0.211177	0.854070
O21	O	1.206396	0.059655	0.583242
O22	O	0.820188	0.211057	1.005460
O23	O	0.820174	-0.059768	1.005464
O24	O	0.820174	0.211063	0.734636
O25	O	1.013293	-0.059775	1.005466
O26	O	1.013299	0.211053	0.854063
O27	O	1.013293	0.211056	0.734637
O28	O	1.013299	0.059651	1.005464
O29	O	1.358725	-0.211179	0.734646
O30	O	0.667844	0.211066	0.854060
O31	O	0.667853	0.211062	1.005459
O32	O	0.667844	0.059663	1.005461
O33	O	1.358725	-0.059777	0.583245
O34	O	1.358733	-0.059781	0.734643
O35	O	0.899608	0.133636	0.838913
O36	O	0.899608	0.044507	0.928041
O37	O	1.126971	-0.044625	0.838918
O38	O	1.126971	0.044503	0.749790
C39	C	0.709381	-0.000046	0.794351
C40	C	0.606239	-0.000042	0.794350
C41	C	1.013272	-0.238306	0.794357
C42	C	1.013267	-0.319166	0.794358
C43	C	1.013272	-0.000051	0.556104
C44	C	1.013267	-0.000049	0.475244
C45	C	0.459230	0.056429	0.738407
C46	C	0.566849	0.056200	0.738103
C47	C	0.655228	-0.096892	0.753346
C48	C	0.547995	-0.096599	0.752925
C49	C	0.372789	0.039504	0.891338
C50	C	0.478940	0.041480	0.891195
C51	C	1.317188	-0.000068	0.794355
C52	C	1.420330	-0.000071	0.794356
C53	C	1.013263	-0.384833	0.794358
C54	C	1.013268	-0.467219	0.794358
C55	C	1.013282	-0.532887	0.794354
C56	C	1.013288	-0.615279	0.794352
C57	C	1.013297	0.238193	0.794350
C58	C	1.013302	0.319053	0.794348
C59	C	1.013307	-0.000064	0.179129
C60	C	1.013301	-0.000062	0.261515
C61	C	1.013287	-0.000057	0.327184
C62	C	1.013281	-0.000054	0.409575
C63	C	1.013297	-0.000063	1.032603
C64	C	1.013302	-0.000065	1.113462
C65	C	0.709394	-0.000052	1.032600
C66	C	0.606257	-0.000050	1.113459
C67	C	0.709394	0.238204	0.794347
C68	C	0.606257	0.319067	0.794346
C69	C	0.709407	0.238198	1.032597
C70	C	0.606274	0.319059	1.113455
C71	C	1.317162	-0.238311	0.556109
C72	C	1.420295	-0.319172	0.475251
C73	C	1.317175	-0.000062	0.556106
C74	C	1.420313	-0.000063	0.475247
C75	C	1.317175	-0.238317	0.794359
C76	C	1.420313	-0.319181	0.794361
C77	C	0.557817	-0.046579	1.104909
C78	C	0.460922	-0.046595	1.180878
C79	C	0.412461	-0.000077	1.265395
C80	C	0.460910	0.046453	1.273944
C81	C	0.557810	0.046464	1.197976
C82	C	0.557827	0.403571	0.840867
C83	C	0.460932	0.479558	0.840862
C84	C	0.412461	0.471039	0.794340
C85	C	0.460900	0.386526	0.747813
C86	C	0.557800	0.310541	0.747813
C87	C	0.557841	0.310508	1.197958
C88	C	0.460950	0.386479	1.273940
C89	C	0.412487	0.470999	1.265416
C90	C	0.460929	0.479548	1.180904
C91	C	0.557825	0.403579	1.104924
C92	C	1.468740	-0.310622	0.390748
C93	C	1.565661	-0.386592	0.314766
C94	C	1.614130	-0.471113	0.323290
C95	C	1.565681	-0.479662	0.407802
C96	C	1.468769	-0.403692	0.483782
C97	C	1.468762	0.046458	0.483797
C98	C	1.565685	0.046453	0.407828
C99	C	1.614149	-0.000068	0.323311
C100	C	1.565695	-0.046595	0.314763
C101	C	1.468781	-0.046595	0.390730
C102	C	1.468753	-0.310633	0.840892
C103	C	1.565648	-0.386606	0.840911
C104	C	1.614109	-0.471125	0.794393
C105	C	1.565660	-0.479670	0.747861
C106	C	1.468759	-0.403699	0.747847
H107	H	0.530145	0.127518	0.765608
Cl108	Cl	0.400066	0.375711	1.380173
Cl109	Cl	1.626572	0.104953	0.418595
Cl110	Cl	0.514060	-0.165113	0.811786
H111	H	0.494987	0.029222	0.667292
H112	H	1.693062	-0.000061	0.261460
Cl113	Cl	1.626629	-0.105070	0.208505
H114	H	0.421421	0.379603	0.709936
Cl115	Cl	0.618691	0.414344	0.998694
H116	H	0.597219	0.241737	0.709933
H117	H	0.684013	-0.140809	0.792139
H118	H	1.693013	-0.532979	0.794411
Cl119	Cl	0.399968	0.104934	1.380201
Cl120	Cl	0.618755	0.204263	1.208697
H121	H	0.597281	0.410525	0.878751
Cl122	Cl	1.626609	-0.585930	0.689376
H123	H	0.588688	-0.128281	0.681560
Cl124	Cl	0.797733	-0.146144	0.644215
Cl125	Cl	1.407849	-0.204390	0.899380
H126	H	1.429336	-0.084475	0.383756
Cl127	Cl	0.228105	0.147939	0.944213
H128	H	0.333559	0.532919	0.794347
Cl129	Cl	1.626542	-0.375824	0.208534
H130	H	1.429330	-0.410671	0.709953
Cl131	Cl	0.618685	0.104971	1.208740
H132	H	0.370367	0.127923	0.765766
Cl133	Cl	0.290670	0.566497	1.360944
Cl134	Cl	0.399987	0.585810	1.170204
H135	H	0.421504	0.548365	0.878753
H136	H	1.605086	-0.379630	0.878801
H137	H	0.421486	-0.084486	1.173900
Cl138	Cl	0.512131	-0.015447	0.960981
Cl139	Cl	1.407827	-0.204376	0.380009
H140	H	0.655645	0.028764	0.666566
H141	H	1.693042	-0.532965	0.261415
H142	H	1.605157	-0.548487	0.414731
Cl143	Cl	1.407870	-0.414457	0.590012
H144	H	0.439344	0.112831	0.921829
H145	H	0.333557	-0.000092	1.327246
H146	H	0.346814	-0.001452	0.933220
H147	H	1.429310	0.084347	0.552608
Cl148	Cl	0.618724	-0.105071	0.998668
