data_functionalizedCrystal
_audit_creation_method	'MofGen! by Chris Wilmer'
_symmetry_space_group_name_H-M	'P1'
_symmetry_Int_Tables_number	1
_symmetry_cell_setting	triclinic
loop_
_symmetry_equiv_pos_as_xyz
  x,y,z
_cell_length_a	14.853567
_cell_length_b	15.995350
_cell_length_c	13.330367
_cell_angle_alpha	89.997588
_cell_angle_beta	89.995418
_cell_angle_gamma	83.563653
loop_
_atom_site_label
_atom_site_type_symbol
_atom_site_fract_x
_atom_site_fract_y
_atom_site_fract_z
O1	O	1.196221	0.109317	-0.083349
O2	O	1.696221	0.609317	0.416651
O3	O	0.933744	0.122339	-0.083366
O4	O	1.433744	0.622339	0.416634
O5	O	1.072158	-0.006051	-0.083356
O6	O	1.572158	0.493949	0.416644
O7	O	1.057808	0.237707	-0.083359
O8	O	1.557808	0.737707	0.416641
O9	O	1.072138	-0.006054	0.083491
O10	O	1.572138	0.493946	0.583491
O11	O	0.933724	0.122336	0.083481
O12	O	1.433724	0.622336	0.583481
O13	O	1.196201	0.109314	0.083498
O14	O	1.696201	0.609314	0.583498
Cu15	Cu	1.064961	0.115825	0.098724
Cu16	Cu	1.564961	0.615825	0.598724
Cu17	Cu	1.064985	0.115828	-0.098592
Cu18	Cu	1.564985	0.615828	0.401408
O19	O	1.057788	0.237704	0.083488
O20	O	1.557788	0.737704	0.583488
C21	C	0.900146	0.121748	0.000056
C22	C	1.400146	0.621748	0.500056
C23	C	0.800065	0.119980	0.000049
C24	C	1.300065	0.619980	0.500049
C25	C	0.387644	0.036238	0.000072
C26	C	0.887644	0.536238	0.500072
C27	C	0.366158	0.188769	0.000070
C28	C	0.866158	0.688769	0.500070
C29	C	0.460189	0.190432	0.000067
C30	C	0.960189	0.690432	0.500067
C31	C	0.517953	0.114996	0.000065
C32	C	1.017953	0.614996	0.500065
C33	C	0.481685	0.037899	0.000066
C34	C	0.981685	0.537899	0.500066
C35	C	0.496464	0.267528	0.000055
C36	C	0.996464	0.767528	0.500055
C37	C	0.590501	0.269194	0.000051
C38	C	1.090501	0.769194	0.500051
C39	C	0.648266	0.193758	0.000056
C40	C	1.148266	0.693758	0.500056
C41	C	0.611993	0.116657	0.000059
C42	C	1.111993	0.616657	0.500059
C43	C	0.669757	0.041221	0.000057
C44	C	1.169757	0.541221	0.500057
C45	C	0.633485	-0.035880	0.000067
C46	C	1.133485	0.464120	0.500067
C47	C	0.539450	-0.037538	0.000072
C48	C	1.039450	0.462462	0.500072
C49	C	0.742302	0.195415	0.000051
C50	C	1.242302	0.695415	0.500051
C51	C	0.763797	0.042882	0.000051
C52	C	1.263797	0.542882	0.500051
C53	C	1.071555	-0.037248	0.000065
C54	C	1.571555	0.462752	0.500065
C55	C	1.069776	-0.130201	0.000060
C56	C	1.569776	0.369799	0.500060
C57	C	1.063389	-0.467956	0.000063
C58	C	1.563389	0.032044	0.500063
C59	C	0.964813	-0.420636	-0.000318
C60	C	1.464813	0.079364	0.499682
C61	C	0.966592	-0.323944	0.000058
C62	C	1.466592	0.176056	0.500058
C63	C	1.066557	-0.300391	0.000061
C64	C	1.566557	0.199609	0.500061
C65	C	1.115167	-0.341414	0.095340
C66	C	1.615167	0.158586	0.595340
C67	C	1.112690	-0.438053	0.095419
C68	C	1.612690	0.061947	0.595419
C69	C	1.114749	-0.438405	-0.094317
C70	C	1.614749	0.061595	0.405683
C71	C	1.114726	-0.341460	-0.095576
C72	C	1.614726	0.158540	0.404424
C73	C	1.068353	-0.205692	0.000063
C74	C	1.568353	0.294308	0.500063
C75	C	1.061596	-0.562655	0.000067
C76	C	1.561596	-0.062655	0.500067
C77	C	1.229799	0.109906	0.000074
C78	C	1.729799	0.609906	0.500074
C79	C	1.329881	0.111674	0.000074
C80	C	1.829881	0.611674	0.500074
C81	C	1.058391	0.268901	0.000064
C82	C	1.558391	0.768901	0.500064
C83	C	1.060170	0.361854	0.000064
C84	C	1.560170	0.861854	0.500064
N85	N	1.064951	0.115822	0.237506
N86	N	1.564951	0.615822	0.737506
N87	N	1.065002	0.115825	-0.237374
N88	N	1.565002	0.615825	0.262626
C89	C	1.003693	0.172657	0.710124
C90	C	1.503693	0.672657	1.210124
C91	C	1.126301	0.058993	0.710101
C92	C	1.626301	0.558993	1.210101
C93	C	1.126291	0.058990	0.605082
C94	C	1.626291	0.558990	1.105082
C95	C	1.064982	0.115823	0.552580
C96	C	1.564982	0.615823	1.052580
C97	C	1.003682	0.172658	0.605096
C98	C	1.503682	0.672658	1.105096
C99	C	1.187595	0.002162	0.552559
C100	C	1.687595	0.502162	1.052559
C101	C	1.187588	0.002158	0.447534
C102	C	1.687588	0.502158	0.947534
C103	C	1.126274	0.058987	0.395030
C104	C	1.626274	0.558987	0.895030
C105	C	1.064971	0.115824	0.447552
C106	C	1.564971	0.615824	0.947552
C107	C	1.003662	0.172656	0.395050
C108	C	1.503662	0.672656	0.895050
C109	C	0.942354	0.229490	0.447570
C110	C	1.442354	0.729490	0.947570
C111	C	0.942368	0.229487	0.552592
C112	C	1.442368	0.729487	1.052592
C113	C	1.126260	0.058989	0.290008
C114	C	1.626260	0.558989	0.790008
C115	C	1.003652	0.172657	0.290022
C116	C	1.503652	0.672657	0.790022
H117	H	0.810823	-0.018548	0.000053
H118	H	1.310823	0.481452	0.500053
Cl119	Cl	1.063017	-0.297663	0.204810
Cl120	Cl	1.563017	0.202337	0.704810
Cl121	Cl	0.342048	-0.060685	0.000090
Cl122	Cl	0.842048	0.439315	0.500090
H123	H	1.188608	-0.327203	0.098885
H124	H	1.688608	0.172797	0.598885
Cl125	Cl	1.203379	-0.012446	0.776101
Cl126	Cl	1.703379	0.487554	1.276101
H127	H	1.079186	-0.314251	-0.166061
H128	H	1.579186	0.185749	0.333939
Cl129	Cl	1.203332	-0.012448	0.223989
Cl130	Cl	1.703332	0.487552	0.723989
H131	H	1.077227	-0.456396	0.166640
H132	H	1.577227	0.043604	0.666640
Cl133	Cl	0.926620	0.244099	0.776144
Cl134	Cl	1.426620	0.744099	1.276144
H135	H	0.953723	0.218935	0.247280
H136	H	1.453723	0.718935	0.747280
H137	H	0.928381	-0.295565	-0.068242
H138	H	1.428381	0.204435	0.431758
H139	H	1.187625	-0.326013	-0.101327
H140	H	1.687625	0.173987	0.398673
H141	H	0.925422	-0.439212	-0.068644
H142	H	1.425422	0.060788	0.431356
Cl143	Cl	0.865305	0.300932	0.618620
Cl144	Cl	1.365305	0.800932	1.118620
Cl145	Cl	1.264673	-0.069277	0.618559
Cl146	Cl	1.764673	0.430723	1.118559
H147	H	1.237507	-0.044120	0.404778
H148	H	1.737507	0.455880	0.904778
H149	H	1.082529	-0.458981	-0.166533
H150	H	1.582529	0.041019	0.333467
H151	H	0.620025	0.331975	0.000042
H152	H	1.120025	0.831975	0.500042
Cl153	Cl	0.706113	-0.130709	0.000057
Cl154	Cl	1.206113	0.369291	0.500057
H155	H	0.509909	-0.100310	0.000103
H156	H	1.009909	0.399690	0.500103
H157	H	0.892440	0.275767	0.404811
H158	H	1.392440	0.775767	0.904811
Cl159	Cl	0.293541	0.283597	0.000058
Cl160	Cl	0.793541	0.783597	0.500058
H161	H	0.449427	0.328943	0.000046
H162	H	0.949427	0.828943	0.500046
Cl163	Cl	0.787897	0.292334	0.000031
Cl164	Cl	1.287897	0.792334	0.500031
H165	H	0.925580	-0.440277	0.067623
H166	H	1.425580	0.059723	0.567623
Cl167	Cl	1.224423	-0.487715	0.102111
Cl168	Cl	1.724423	0.012285	0.602111
Cl169	Cl	0.907172	-0.280987	0.105679
Cl170	Cl	1.407172	0.219013	0.605679
Cl171	Cl	1.226959	-0.487312	-0.095306
Cl172	Cl	1.726959	0.012688	0.404694
