data_functionalizedCrystal
_audit_creation_method	'MofGen! by Chris Wilmer'
_symmetry_space_group_name_H-M	'P1'
_symmetry_Int_Tables_number	1
_symmetry_cell_setting	triclinic
loop_
_symmetry_equiv_pos_as_xyz
  x,y,z
_cell_length_a	10.654550
_cell_length_b	10.654554
_cell_length_c	12.503552
_cell_angle_alpha	93.554333
_cell_angle_beta	86.442940
_cell_angle_gamma	84.485824
loop_
_atom_site_label
_atom_site_type_symbol
_atom_site_fract_x
_atom_site_fract_y
_atom_site_fract_z
O1	O	1.675031	0.169202	-0.089313
O2	O	1.309553	0.186008	-0.089316
O3	O	1.500691	-0.005133	-0.089309
O4	O	1.483892	0.360343	-0.089321
O5	O	1.486300	0.009254	0.089333
O6	O	1.295161	0.200395	0.089325
O7	O	1.660639	0.183590	0.089329
Cu8	Cu	1.476586	0.193306	0.105639
Cu9	Cu	1.493606	0.176291	-0.105626
O10	O	1.469501	0.374731	0.089321
C11	C	1.255559	0.191968	0.000004
C12	C	1.116116	0.188276	0.000003
C13	C	1.492261	-0.044738	0.000011
C14	C	1.488567	-0.184181	0.000009
C15	C	1.597641	-0.394690	-0.000004
C16	C	1.601112	-0.263668	0.000007
C17	C	1.372542	-0.235721	0.000010
C18	C	1.369072	-0.366740	0.000007
C19	C	1.729605	-0.410825	-0.000010
C20	C	1.733076	-0.279802	0.000001
C21	C	1.714633	0.177630	0.000006
C22	C	1.854077	0.181321	0.000000
C23	C	1.933561	0.068780	-0.000000
C24	C	2.064581	0.072257	0.000005
C25	C	2.036621	0.300826	0.000007
C26	C	1.905603	0.297348	0.000009
C27	C	1.949705	-0.063183	-0.000006
C28	C	2.080725	-0.059706	-0.000001
C29	C	1.477931	0.414335	-0.000001
C30	C	1.481626	0.553778	-0.000006
N31	N	1.464625	0.205273	0.254231
N32	N	1.505577	0.164315	-0.254218
C33	C	1.523166	0.146707	0.526666
C34	C	1.447040	0.222876	0.473339
C35	C	1.456827	0.213079	0.351416
C36	C	1.513381	0.156503	0.648601
H37	H	1.274601	-0.408691	0.000015
F38	F	1.352248	0.317731	0.533349
F39	F	1.786729	-0.457540	0.097699
H40	H	1.768894	-0.237969	0.077137
F41	F	1.911245	-0.126224	-0.100822
H42	H	1.280906	-0.170991	0.000022
F43	F	1.789838	-0.478604	-0.100828
H44	H	2.078590	0.395292	0.000015
H45	H	1.914328	-0.108777	0.074753
H46	H	1.790704	-0.256452	-0.074758
H47	H	2.128502	-0.115440	-0.074764
H48	H	1.840890	0.388992	0.000022
H49	H	1.595686	0.074145	0.480759
F50	F	2.132273	-0.103702	0.100819
