data_functionalizedCrystal
_audit_creation_method	'MofGen! by Chris Wilmer'
_symmetry_space_group_name_H-M	'P1'
_symmetry_Int_Tables_number	1
_symmetry_cell_setting	triclinic
loop_
_symmetry_equiv_pos_as_xyz
  x,y,z
_cell_length_a	14.971486
_cell_length_b	23.532407
_cell_length_c	13.448316
_cell_angle_alpha	89.988737
_cell_angle_beta	89.998199
_cell_angle_gamma	83.231404
loop_
_atom_site_label
_atom_site_type_symbol
_atom_site_fract_x
_atom_site_fract_y
_atom_site_fract_z
O1	O	1.186163	0.074216	-0.082588
O2	O	0.925669	0.083104	-0.082616
O3	O	1.063771	-0.004238	-0.082583
O4	O	1.048061	0.161558	-0.082621
O5	O	1.063754	-0.004243	0.082801
O6	O	0.925652	0.083099	0.082767
O7	O	1.186146	0.074211	0.082796
Cu8	Cu	1.055897	0.078654	0.097882
Cu9	Cu	1.055918	0.078661	-0.097703
O10	O	1.048044	0.161553	0.082763
C11	C	0.892340	0.082704	0.000072
C12	C	0.793056	0.081513	0.000062
C13	C	0.735288	0.132824	0.000052
C14	C	0.642001	0.131701	0.000067
C15	C	0.606482	0.079267	0.000085
C16	C	0.664257	0.027952	0.000099
C17	C	0.757543	0.029075	0.000091
C18	C	0.469819	0.025615	0.000113
C19	C	0.376527	0.024491	0.000119
C20	C	0.354277	0.128241	0.000089
C21	C	0.447563	0.129364	0.000081
C22	C	0.505331	0.078049	0.000093
C23	C	1.063363	-0.025458	0.000111
C24	C	1.062160	-0.088680	0.000119
C25	C	1.136342	-0.487466	0.000072
C26	C	1.135224	-0.546871	0.000065
O27	O	1.203992	-0.583321	0.000035
N28	N	1.053123	-0.569849	0.000056
C29	C	0.972133	-0.533418	0.000046
O30	O	0.902196	-0.558417	0.000037
C31	C	0.973251	-0.474014	0.000046
C32	C	1.055358	-0.451040	0.000065
C33	C	1.218442	-0.464491	0.000090
C34	C	1.219559	-0.405090	0.000099
C35	C	1.138576	-0.368664	0.000091
C36	C	1.056475	-0.391639	0.000074
C37	C	0.892263	-0.437584	0.000029
C38	C	0.893388	-0.378177	0.000028
C39	C	0.975495	-0.355203	0.000047
C40	C	0.976609	-0.295812	0.000076
N41	N	1.058711	-0.272834	0.000084
C42	C	1.139694	-0.309260	0.000092
C43	C	0.969791	-0.658170	0.000043
C44	C	0.968671	-0.717573	0.000049
C45	C	1.131763	-0.731022	0.000066
C46	C	1.132882	-0.671618	0.000067
C47	C	1.051892	-0.635193	0.000051
C48	C	1.142034	-0.184513	0.000113
C49	C	1.143143	-0.125106	0.000126
C50	C	0.980052	-0.111663	0.000104
C51	C	0.978942	-0.171064	0.000096
C52	C	1.059940	-0.207489	0.000097
O53	O	0.907878	-0.259327	0.000101
O54	O	1.209619	-0.284253	0.000087
C55	C	1.219475	0.074611	0.000105
C56	C	1.318760	0.075802	0.000109
C57	C	1.048453	0.182773	0.000066
C58	C	1.049655	0.245996	0.000052
N59	N	1.055890	0.078650	0.235447
N60	N	1.055933	0.078661	-0.235267
C61	C	1.117060	0.039991	0.287502
C62	C	1.117066	0.039990	0.391605
C63	C	1.055904	0.078652	0.443651
C64	C	0.994728	0.117313	0.391589
C65	C	0.994718	0.117310	0.287488
C66	C	0.994752	0.117317	0.608569
C67	C	0.994762	0.117320	0.712678
C68	C	1.117100	0.039997	0.712686
C69	C	1.117090	0.039994	0.608585
C70	C	1.055914	0.078656	0.556530
H71	H	0.347612	-0.018205	0.000135
H72	H	0.944906	0.148789	0.245105
O73	O	1.176525	0.002518	0.442286
C74	C	1.231440	0.033083	0.502464
H75	H	1.195412	0.077609	0.518041
H76	H	1.245808	0.009331	0.575679
H77	H	1.297505	0.037025	0.462337
O78	O	0.525901	-0.024247	-0.000057
C79	C	0.509855	-0.056079	-0.085692
H80	H	0.477693	-0.026032	-0.145559
H81	H	0.576249	-0.078867	-0.114448
H82	H	0.462649	-0.089079	-0.066317
O83	O	0.769638	0.183809	0.000077
C84	C	0.698642	0.228856	0.000047
H85	H	0.635409	0.212845	0.031368
H86	H	0.717813	0.265459	0.048052
H87	H	0.685294	0.244689	-0.079298
H88	H	0.476478	0.172060	0.000057
H89	H	1.166897	0.008515	0.566209
O90	O	0.629907	-0.023032	0.000157
C91	C	0.700901	-0.068080	0.000139
H92	H	0.764136	-0.052074	0.031446
H93	H	0.681731	-0.104688	0.048161
H94	H	0.714244	-0.083906	-0.079201
O95	O	0.899164	-0.193360	-0.000093
C96	C	0.849833	-0.174723	-0.085738
H97	H	0.897862	-0.162314	-0.145591
H98	H	0.812116	-0.210732	-0.114510
H99	H	0.799633	-0.136052	-0.066370
O100	O	0.935279	0.154790	0.442256
C101	C	0.880368	0.124232	0.502478
H102	H	0.916393	0.079706	0.518085
H103	H	0.866015	0.147990	0.575675
H104	H	0.814295	0.120292	0.462373
O105	O	0.812424	-0.459798	-0.000038
C106	C	0.741198	-0.414898	-0.000026
H107	H	0.765922	-0.374525	-0.031325
H108	H	0.683848	-0.427343	-0.048058
H109	H	0.716229	-0.406520	0.079311
H110	H	0.901812	-0.736273	0.000052
H111	H	0.804577	-0.012707	0.000098
H112	H	0.594969	0.173484	0.000057
H113	H	0.307237	0.170023	0.000084
H114	H	1.166911	0.008517	0.755076
H115	H	1.207990	-0.214164	0.000110
O116	O	1.222985	-0.102885	0.000096
C117	C	1.294220	-0.147778	0.000122
H118	H	1.269516	-0.188146	-0.031197
H119	H	1.351580	-0.135314	-0.047886
H120	H	1.319167	-0.156177	0.079466
H121	H	0.944958	0.148802	0.755048
H122	H	1.286419	-0.386390	0.000110
H123	H	1.284392	-0.494144	0.000092
H124	H	0.827435	-0.348522	0.000014
H125	H	0.944933	0.148797	0.566189
H126	H	1.199740	-0.652917	0.000081
H127	H	1.197704	-0.760691	0.000069
H128	H	0.903835	-0.628515	0.000038
O129	O	0.901471	-0.076192	0.000051
C130	C	0.920073	-0.018836	0.000083
H131	H	0.990315	-0.016506	-0.031211
H132	H	0.868435	0.008046	-0.047943
H133	H	0.916513	-0.001668	0.079426
H134	H	1.166868	0.008510	0.245133
