data_functionalizedCrystal
_audit_creation_method	'MofGen! by Chris Wilmer'
_symmetry_space_group_name_H-M	'P1'
_symmetry_Int_Tables_number	1
_symmetry_cell_setting	triclinic
loop_
_symmetry_equiv_pos_as_xyz
  x,y,z
_cell_length_a	19.288864
_cell_length_b	10.723024
_cell_length_c	18.366186
_cell_angle_alpha	89.994974
_cell_angle_beta	89.977106
_cell_angle_gamma	83.802058
loop_
_atom_site_label
_atom_site_type_symbol
_atom_site_fract_x
_atom_site_fract_y
_atom_site_fract_z
O1	O	0.922366	0.155659	-0.060782
O2	O	0.720242	0.176657	-0.060732
O3	O	0.825966	-0.015516	-0.060755
O4	O	0.816641	0.347832	-0.060758
O5	O	0.825948	-0.015526	0.060344
O6	O	0.720223	0.176647	0.060368
O7	O	0.922347	0.155649	0.060318
Zn8	Zn	0.821282	0.166147	0.079570
Zn9	Zn	0.821306	0.166159	-0.079984
O10	O	0.816623	0.347822	0.060341
C11	C	0.694352	0.175976	-0.000176
C12	C	0.617235	0.173948	-0.000156
C13	C	0.573272	0.286707	-0.000169
C14	C	0.500813	0.284801	-0.000177
C15	C	0.472319	0.170131	-0.000187
C16	C	0.516291	0.057358	-0.000171
C17	C	0.588749	0.059266	-0.000155
C18	C	0.363477	0.079991	-0.042637
C19	C	0.291020	0.078087	-0.042657
C20	C	0.248835	0.164239	-0.000231
C21	C	0.279115	0.252317	0.042205
C22	C	0.351573	0.254226	0.042221
C23	C	0.393752	0.168049	-0.000203
C24	C	0.126303	0.274939	-0.000251
C25	C	0.053843	0.273029	-0.000255
C26	C	0.069323	0.045582	-0.000256
C27	C	0.141782	0.047496	-0.000245
C28	C	0.170267	0.162178	-0.000246
C29	C	0.825278	-0.062006	-0.000206
C30	C	0.823248	-0.200518	-0.000208
C31	C	0.882406	-0.276743	-0.000224
C32	C	0.880309	-0.419902	-0.000226
C33	C	0.948237	0.156330	-0.000240
C34	C	1.025354	0.158358	-0.000264
C35	C	0.817311	0.394313	-0.000209
C36	C	0.819341	0.532824	-0.000212
N37	N	0.821271	0.166138	0.188461
N38	N	0.821323	0.166159	-0.188875
C39	C	0.868102	0.081085	0.226551
C40	C	0.868106	0.081079	0.302779
C41	C	0.821287	0.166148	0.340914
C42	C	0.774447	0.251207	0.302815
C43	C	0.774440	0.251202	0.226588
C44	C	0.812728	0.279840	0.461675
C45	C	0.812741	0.279847	0.537899
C46	C	0.821307	0.166164	0.576021
C47	C	0.829874	0.052468	0.537909
C48	C	0.829867	0.052463	0.461682
C49	C	0.821290	0.166162	0.423569
C50	C	0.868144	0.081098	0.696766
C51	C	0.868144	0.081091	0.772995
C52	C	0.774489	0.251229	0.773030
C53	C	0.774486	0.251225	0.696802
C54	C	0.821317	0.166161	0.658675
H55	H	0.244769	0.322470	0.076753
H56	H	0.376223	0.325938	0.076776
H57	H	0.934605	-0.236017	-0.000232
Cl58	Cl	0.609079	0.430878	-0.000167
H59	H	0.930952	-0.485398	-0.000236
Cl60	Cl	0.033509	-0.098577	-0.000260
Cl61	Cl	0.926970	-0.025857	0.178620
Cl62	Cl	0.480472	-0.086800	-0.000179
Cl63	Cl	0.445535	0.426566	-0.000191
H64	H	0.768695	-0.401687	-0.000194
Cl65	Cl	0.644020	-0.082499	-0.000140
H66	H	0.771048	-0.241244	-0.000200
Cl67	Cl	0.926985	-0.025853	0.350672
H68	H	0.836841	-0.040112	0.430654
Cl69	Cl	0.840649	-0.090459	0.585824
Cl70	Cl	0.927014	-0.025846	0.648834
Cl71	Cl	0.715563	0.358135	0.178700
H72	H	0.906277	0.011824	0.804009
H73	H	0.736365	0.320489	0.804079
Cl74	Cl	0.715614	0.358160	0.648913
Cl75	Cl	0.801975	0.422776	0.585805
Cl76	Cl	0.802024	0.422775	0.413758
H77	H	0.149497	0.368320	-0.000241
H78	H	0.018048	0.364855	-0.000261
Cl79	Cl	0.197052	-0.094266	-0.000234
Cl80	Cl	0.715586	0.358146	0.350754
H81	H	0.266372	0.006374	-0.077214
H82	H	0.397819	0.009832	-0.077190
