data_functionalizedCrystal
_audit_creation_method	'MofGen! by Chris Wilmer'
_symmetry_space_group_name_H-M	'P1'
_symmetry_Int_Tables_number	1
_symmetry_cell_setting	triclinic
loop_
_symmetry_equiv_pos_as_xyz
  x,y,z
_cell_length_a	10.654541
_cell_length_b	14.853559
_cell_length_c	9.130307
_cell_angle_alpha	89.998895
_cell_angle_beta	89.999822
_cell_angle_gamma	84.057691
loop_
_atom_site_label
_atom_site_type_symbol
_atom_site_fract_x
_atom_site_fract_y
_atom_site_fract_z
O1	O	1.666518	0.126615	-0.121747
O2	O	1.300913	0.138681	-0.121759
O3	O	1.493487	0.001470	-0.121751
O4	O	1.473944	0.263826	-0.121755
O5	O	1.493481	0.001469	0.121848
O6	O	1.300907	0.138680	0.121840
O7	O	1.666512	0.126613	0.121852
Cu8	Cu	1.483709	0.132646	0.144089
Cu9	Cu	1.483716	0.132648	-0.143995
O10	O	1.473938	0.263825	0.121844
C11	C	1.254121	0.137795	0.000039
C12	C	1.114705	0.135146	0.000034
C13	C	1.492600	-0.032124	0.000046
C14	C	1.489952	-0.132223	0.000038
C15	C	1.085023	0.299219	0.000014
C16	C	1.004686	0.380007	-0.000003
C17	C	0.873694	0.377512	-0.000004
C18	C	0.823037	0.294220	0.000015
C19	C	0.903374	0.213432	0.000032
C20	C	1.034368	0.215936	0.000029
C21	C	0.933056	0.049361	0.000063
C22	C	1.064049	0.051854	0.000053
C23	C	0.882400	-0.033931	0.000082
C24	C	0.962737	-0.114722	0.000088
C25	C	1.093737	-0.112223	0.000087
C26	C	1.144386	-0.028935	0.000070
C27	C	1.478723	-0.555457	-0.132749
C28	C	1.478716	-0.555453	0.132832
C29	C	1.481214	-0.461407	0.132834
C30	C	1.482465	-0.414381	0.000042
C31	C	1.481218	-0.461401	-0.132752
C32	C	1.482449	-0.414378	0.265624
C33	C	1.484946	-0.320325	0.265631
C34	C	1.486206	-0.273298	0.132837
C35	C	1.484960	-0.320325	0.000039
C36	C	1.486210	-0.273299	-0.132753
C37	C	1.484973	-0.320325	-0.265553
C38	C	1.482477	-0.414375	-0.265545
C39	C	1.488702	-0.179249	0.132829
C40	C	1.488705	-0.179243	-0.132756
C41	C	1.713304	0.127500	0.000051
C42	C	1.852719	0.130149	0.000046
C43	C	1.474824	0.297419	0.000044
C44	C	1.477472	0.397517	0.000043
N45	N	1.483713	0.132645	0.346712
N46	N	1.483722	0.132643	-0.346618
C47	C	1.654306	0.011180	0.346709
C48	C	1.739611	-0.049550	0.423374
C49	C	1.739624	-0.049550	0.576707
C50	C	1.654320	0.011184	0.653379
C51	C	1.569014	0.071913	0.576714
C52	C	1.569014	0.071909	0.423377
C53	C	1.398417	0.193372	0.576717
C54	C	1.398408	0.193379	0.423383
C55	C	1.313113	0.254106	0.653388
C56	C	1.227812	0.314842	0.576723
C57	C	1.227804	0.314841	0.423381
C58	C	1.313103	0.254109	0.346718
H59	H	1.191682	0.301258	-0.000018
H60	H	0.921482	-0.182531	0.000102
Cl61	Cl	1.477122	-0.614570	0.299761
Cl62	Cl	1.480848	-0.473497	0.432551
H63	H	0.808282	0.443297	-0.000007
H64	H	1.654325	0.011172	0.778231
H65	H	1.045945	0.447822	-0.000014
H66	H	1.489680	-0.140962	0.240953
Cl67	Cl	1.313120	0.254103	0.846152
Cl68	Cl	0.658360	0.291086	0.000039
H69	H	1.477721	-0.593750	-0.240871
Cl70	Cl	1.654315	0.011186	0.153945
Cl71	Cl	1.313106	0.254105	0.153955
H72	H	1.485958	-0.282045	0.373765
Cl73	Cl	1.194722	-0.213792	0.000119
Cl74	Cl	0.717723	-0.037068	0.000087
H75	H	1.809063	-0.099001	0.360934
Cl76	Cl	1.490287	-0.120133	-0.299705
H77	H	1.251044	-0.026893	0.000052
Cl78	Cl	1.480927	-0.473498	-0.432477
H79	H	1.809082	-0.099005	0.639128
H80	H	1.158358	0.364283	0.639159
H81	H	1.485983	-0.282023	-0.373672
Cl82	Cl	1.120549	0.391187	0.327015
