data_functionalizedCrystal
_audit_creation_method	'MofGen! by Chris Wilmer'
_symmetry_space_group_name_H-M	'P1'
_symmetry_Int_Tables_number	1
_symmetry_cell_setting	triclinic
loop_
_symmetry_equiv_pos_as_xyz
  x,y,z
_cell_length_a	12.759401
_cell_length_b	12.594516
_cell_length_c	12.759393
_cell_angle_alpha	90.029472
_cell_angle_beta	89.981433
_cell_angle_gamma	89.974225
loop_
_atom_site_label
_atom_site_type_symbol
_atom_site_fract_x
_atom_site_fract_y
_atom_site_fract_z
Zn1	Zn	1.606168	0.423707	-0.593999
Zn2	Zn	1.606025	0.601726	-0.418325
Zn3	Zn	1.430470	0.423759	-0.418338
Zn4	Zn	1.430421	0.601640	-0.593966
O5	O	1.518271	0.512708	-0.506157
O6	O	1.753170	0.447335	-0.570703
O7	O	1.582698	0.578176	-0.271306
O8	O	1.453856	0.274806	-0.441658
O9	O	1.753065	0.578125	-0.441637
O10	O	1.582941	0.274768	-0.570716
O11	O	1.453718	0.447424	-0.271315
O12	O	1.283442	0.447341	-0.441627
O13	O	1.453774	0.577980	-0.740992
O14	O	1.283407	0.578030	-0.570661
O15	O	1.582894	0.447252	-0.741015
O16	O	1.582651	0.750660	-0.441606
O17	O	1.453636	0.750598	-0.570648
C18	C	1.245303	0.512683	-0.506142
C19	C	1.128527	0.512698	-0.506161
C20	C	1.073712	0.444724	-0.573470
C21	C	0.963988	0.444744	-0.573477
C22	C	0.963903	0.580722	-0.438862
C23	C	1.073625	0.580695	-0.438851
C24	C	1.073761	0.366222	-0.651192
C25	C	0.964037	0.366242	-0.651199
C26	C	1.518151	0.789249	-0.506145
C27	C	1.518196	0.907554	-0.506175
C28	C	1.448005	0.976812	-0.576312
C29	C	1.422393	1.047682	-0.480445
C30	C	1.543865	1.047483	-0.602057
C31	C	1.492533	0.976866	-0.410257
C32	C	1.614051	0.976661	-0.531934
C33	C	1.588475	1.047499	-0.436001
C34	C	1.792304	0.512734	-0.506172
C35	C	1.909081	0.512745	-0.506179
C36	C	1.518344	0.512601	-0.780190
C37	C	1.518376	0.512555	-0.896967
C38	C	1.518373	1.235087	-0.506190
C39	C	1.518299	1.116782	-0.506201
C40	C	1.585618	0.444479	-0.951843
C41	C	1.585643	0.444440	-1.061567
C42	C	1.451181	0.580563	-1.061530
C43	C	1.451151	0.580595	-0.951808
C44	C	1.663252	0.365892	-0.951866
C45	C	1.663277	0.365854	-1.061590
C46	C	1.518258	0.512738	-0.233190
C47	C	1.518430	0.512484	-0.116413
H48	H	1.103545	0.283753	-0.629535
H49	H	0.930011	0.287902	-0.622196
H50	H	1.118251	0.636036	-0.384032
C51	C	1.367708	0.934873	-0.656325
H52	H	1.402724	0.893304	-0.707694
H53	H	1.317143	0.892403	-0.621307
H54	H	1.333729	0.993049	-0.689348
C55	C	1.312950	1.089829	-0.451017
H56	H	1.263121	1.065634	-0.500908
H57	H	1.294268	1.064611	-0.383395
H58	H	1.313941	1.165251	-0.450619
C59	C	1.463121	0.935143	-0.300703
H60	H	1.463225	0.859713	-0.301373
H61	H	1.512701	0.959909	-0.250849
H62	H	1.395272	0.960053	-0.282313
C63	C	0.903508	0.655520	-0.364835
H64	H	0.830310	0.645806	-0.374485
H65	H	0.921464	0.639858	-0.294269
H66	H	0.921480	0.727052	-0.380099
H67	H	1.107820	0.395837	-0.728431
C68	C	0.923839	0.396243	-0.761061
H69	H	0.981766	0.408576	-0.806236
H70	H	0.882498	0.339881	-0.788212
H71	H	0.882467	0.458808	-0.756506
C72	C	1.668718	1.089177	-0.355804
H73	H	1.650348	1.064867	-0.287764
H74	H	1.736569	1.063785	-0.373512
H75	H	1.668722	1.164601	-0.356647
H76	H	1.695045	0.945445	-0.553746
C77	C	1.573146	1.089387	-0.711580
H78	H	1.523169	1.065170	-0.761313
H79	H	1.573603	1.164804	-0.710654
H80	H	1.640724	1.064014	-0.730349
H81	H	1.396393	0.636026	-0.907132
C82	C	1.377248	0.655410	-1.121857
H83	H	1.386899	0.645646	-1.195064
H84	H	1.306661	0.639835	-1.103874
H85	H	1.392590	0.726935	-1.103862
C86	C	1.767621	0.405819	-0.905874
H87	H	1.764037	0.404493	-0.831514
H88	H	1.823096	0.361192	-0.928871
H89	H	1.780105	0.476427	-0.928852
H90	H	1.641500	0.283462	-0.922107
C91	C	1.623989	0.260047	-1.107591
H92	H	1.606481	0.212953	-1.052150
H93	H	1.563735	0.272668	-1.149489
H94	H	1.677527	0.229238	-1.149502
H95	H	1.744643	0.387933	-1.091369
