data_functionalizedCrystal
_audit_creation_method	'MofGen! by Chris Wilmer'
_symmetry_space_group_name_H-M	'P1'
_symmetry_Int_Tables_number	1
_symmetry_cell_setting	triclinic
loop_
_symmetry_equiv_pos_as_xyz
  x,y,z
_cell_length_a	19.805407
_cell_length_b	21.295417
_cell_length_c	19.805399
_cell_angle_alpha	90.030843
_cell_angle_beta	90.019573
_cell_angle_gamma	90.030507
loop_
_atom_site_label
_atom_site_type_symbol
_atom_site_fract_x
_atom_site_fract_y
_atom_site_fract_z
Zn1	Zn	1.034716	-0.250624	0.382704
Zn2	Zn	1.534716	0.249376	0.882704
Zn3	Zn	1.034623	-0.355893	0.269510
Zn4	Zn	1.534623	0.144107	0.769510
Zn5	Zn	0.921531	-0.250641	0.269529
Zn6	Zn	1.421531	0.249359	0.769529
Zn7	Zn	0.921486	-0.355859	0.382656
Zn8	Zn	1.421486	0.144141	0.882656
O9	O	0.978089	-0.303254	0.326100
O10	O	1.478089	0.196746	0.826100
O11	O	1.129421	-0.264595	0.367701
O12	O	1.629421	0.235405	0.867701
O13	O	1.019601	-0.341952	0.174796
O14	O	1.519601	0.158048	0.674796
O15	O	0.936603	-0.162549	0.284570
O16	O	1.436603	0.337451	0.784570
O17	O	1.129352	-0.341935	0.284537
O18	O	1.629352	0.158065	0.784537
O19	O	1.019760	-0.162537	0.367719
O20	O	1.519760	0.337463	0.867719
O21	O	0.936513	-0.264624	0.174810
O22	O	1.436513	0.235376	0.674810
O23	O	0.826809	-0.264592	0.284523
O24	O	1.326809	0.235408	0.784523
O25	O	0.936527	-0.341878	0.477379
O26	O	1.436527	0.158122	0.977379
O27	O	0.826776	-0.341895	0.367638
O28	O	1.326776	0.158105	0.867638
O29	O	1.019717	-0.264562	0.477415
O30	O	1.519717	0.235438	0.977415
O31	O	1.019558	-0.443977	0.284491
O32	O	1.519558	0.056023	0.784491
O33	O	0.936437	-0.443953	0.367619
O34	O	1.436437	0.056047	0.867619
C35	C	0.802233	-0.303242	0.326078
C36	C	1.302233	0.196758	0.826078
C37	C	0.727001	-0.303252	0.326085
C38	C	1.227001	0.196748	0.826085
C39	C	0.978001	-0.466806	0.326062
C40	C	1.478001	0.033194	0.826062
C41	C	0.978024	-0.536774	0.326069
C42	C	1.478024	-0.036774	0.826069
C43	C	0.691658	-0.343564	0.369292
C44	C	1.191658	0.156436	0.869292
C45	C	0.620969	-0.343566	0.369302
C46	C	1.120969	0.156434	0.869302
C47	C	0.585626	-0.303257	0.326100
C48	C	1.085626	0.196743	0.826100
C49	C	0.620974	-0.262940	0.282890
C50	C	1.120974	0.237060	0.782890
C51	C	0.691661	-0.262936	0.282885
C52	C	1.191661	0.237064	0.782885
C53	C	0.335901	-0.262954	0.282913
C54	C	0.835901	0.237046	0.782913
C55	C	0.265209	-0.262962	0.282920
C56	C	0.765209	0.237038	0.782920
C57	C	0.265209	-0.343583	0.369330
C58	C	0.765209	0.156417	0.869330
C59	C	0.335896	-0.343579	0.369324
C60	C	0.835896	0.156421	0.869324
C61	C	0.371238	-0.303261	0.326117
C62	C	0.871238	0.196739	0.826117
C63	C	0.447887	-0.303259	0.326109
C64	C	0.947887	0.196741	0.826109
C65	C	0.508979	-0.303261	0.326105
C66	C	1.008979	0.196739	0.826105
C67	C	1.021344	-0.569632	0.282828
C68	C	1.521344	-0.069632	0.782828
C69	C	1.021376	-0.635375	0.282844
C70	C	1.521376	-0.135375	0.782844
C71	C	0.978076	-0.668256	0.326092
C72	C	1.478076	-0.168256	0.826092
C73	C	0.934753	-0.635390	0.369341
C74	C	1.434753	-0.135390	0.869341
C75	C	0.934728	-0.569649	0.369330
C76	C	1.434728	-0.069649	0.869330
N77	N	0.918865	-0.771522	0.331245
N78	N	1.418865	-0.271522	0.831245
N79	N	0.918892	-0.833974	0.331252
N80	N	1.418892	-0.333974	0.831252
C81	C	0.978152	-0.866331	0.326131
C82	C	1.478152	-0.366331	0.826131
N83	N	1.037386	-0.833878	0.320989
N84	N	1.537386	-0.333878	0.820989
N85	N	1.037358	-0.771421	0.320979
N86	N	1.537358	-0.271421	0.820979
C87	C	0.978099	-0.739542	0.326110
C88	C	1.478099	-0.239542	0.826110
C89	C	1.021509	-0.970475	0.282905
C90	C	1.521509	-0.470475	0.782905
C91	C	1.021542	-1.036219	0.282925
C92	C	1.521542	-0.536219	0.782925
C93	C	0.934914	-1.036233	0.369419
C94	C	1.434914	-0.536233	0.869419
C95	C	0.934887	-0.970490	0.369402
C96	C	1.434887	-0.470490	0.869402
C97	C	0.978184	-0.937615	0.326142
C98	C	1.478184	-0.437615	0.826142
C99	C	1.154632	-0.303267	0.326122
C100	C	1.654632	0.196733	0.826122
C101	C	1.229864	-0.303272	0.326132
C102	C	1.729864	0.196728	0.826132
C103	C	0.978127	-0.303214	0.502643
C104	C	1.478127	0.196786	1.002643
C105	C	0.978143	-0.303198	0.577875
C106	C	1.478143	0.196802	1.077875
C107	C	0.978197	-0.139064	0.326152
C108	C	1.478197	0.360936	0.826152
C109	C	0.978243	-0.069096	0.326175
C110	C	1.478243	0.430904	0.826175
C111	C	0.978090	-0.303248	0.150244
C112	C	1.478090	0.196752	0.650244
C113	C	0.978205	-0.303088	0.075012
C114	C	1.478205	0.196912	0.575012
C115	C	1.021461	-0.262937	0.613238
C116	C	1.521461	0.237063	1.113238
C117	C	1.021468	-0.262919	0.683927
C118	C	1.521468	0.237081	1.183927
C119	C	0.978160	-0.303165	0.719250
C120	C	1.478160	0.196835	1.219250
C121	C	0.934838	-0.343427	0.683882
C122	C	1.434838	0.156573	1.183882
C123	C	0.934828	-0.343442	0.613195
C124	C	1.434828	0.156558	1.113195
C125	C	0.934876	-0.343368	0.968955
C126	C	1.434876	0.156632	1.468955
C127	C	0.934891	-0.343352	1.039647
C128	C	1.434891	0.156648	1.539647
C129	C	1.021516	-0.262846	1.039687
C130	C	1.521516	0.237154	1.539687
C131	C	1.021506	-0.262860	0.969000
C132	C	1.521506	0.237140	1.469000
C133	C	0.978182	-0.303120	0.933638
C134	C	1.478182	0.196880	1.433638
C135	C	0.978174	-0.303138	0.856989
C136	C	1.478174	0.196862	1.356989
C137	C	0.978171	-0.303150	0.795897
C138	C	1.478171	0.196850	1.295897
H139	H	0.592196	-0.376393	0.404485
H140	H	1.092196	0.123607	0.904485
H141	H	0.899573	-0.376193	0.712648
H142	H	1.399573	0.123807	1.212648
H143	H	0.899621	-0.376126	1.068406
H144	H	1.399621	0.123874	1.568406
C145	C	0.374771	-0.387917	0.416848
C146	C	0.874771	0.112083	0.916848
H147	H	0.343596	-0.411922	0.442588
H148	H	0.843596	0.088078	0.942588
H149	H	0.402323	-0.415311	0.390903
H150	H	0.902323	0.084689	0.890903
H151	H	0.402368	-0.363864	0.446386
H152	H	0.902368	0.136136	0.946386
H153	H	0.899661	-1.063004	0.404636
H154	H	1.399661	-0.563004	0.904636
H155	H	1.056822	-1.062971	0.247714
H156	H	1.556822	-0.562971	0.747714
C157	C	1.069027	-0.671530	0.235278
C158	C	1.569027	-0.171530	0.735278
H159	H	1.062843	-0.715391	0.241484
H160	H	1.562843	-0.215391	0.741484
H161	H	1.059143	-0.660795	0.189789
H162	H	1.559143	-0.160795	0.689789
H163	H	1.114498	-0.660714	0.245225
H164	H	1.614498	-0.160714	0.745225
H165	H	0.899609	-0.943735	0.404610
H166	H	1.399609	-0.443735	0.904610
C167	C	0.226331	-0.387928	0.416864
C168	C	0.726331	0.112072	0.916864
H169	H	0.179170	-0.382154	0.410688
H170	H	0.679170	0.117846	0.910688
H171	H	0.237889	-0.430210	0.406873
H172	H	0.737889	0.069790	0.906873
H173	H	0.237943	-0.378766	0.462360
H174	H	0.737943	0.121234	0.962360
C175	C	0.887123	-0.671557	0.416912
C176	C	1.387123	-0.171557	0.916912
H177	H	0.893338	-0.715416	0.410722
H178	H	1.393338	-0.215416	0.910722
H179	H	0.896997	-0.660746	0.462397
H180	H	1.396997	-0.160746	0.962397
H181	H	0.841646	-0.660825	0.406958
H182	H	1.341646	-0.160825	0.906958
H183	H	0.364668	-0.230129	0.247726
H184	H	0.864668	0.269871	0.747726
C185	C	0.887070	-0.533503	0.416893
C186	C	1.387070	-0.033503	0.916893
H187	H	0.861284	-0.562499	0.442651
H188	H	1.361284	-0.062499	0.942651
H189	H	0.912933	-0.507813	0.446401
H190	H	1.412933	-0.007813	0.946401
H191	H	0.857581	-0.507902	0.390962
H192	H	1.357581	-0.007902	0.890962
C193	C	0.887195	-0.387743	0.574295
C194	C	1.387195	0.112257	1.074295
H195	H	0.861412	-0.411719	0.605455
H196	H	1.361412	0.088281	1.105455
H197	H	0.857711	-0.363680	0.546714
H198	H	1.357711	0.136320	1.046714
H199	H	0.913083	-0.415177	0.546724
H200	H	1.413083	0.084823	1.046724
H201	H	1.056730	-0.230166	0.584483
H202	H	1.556730	0.269834	1.084483
C203	C	0.226332	-0.218616	0.235401
C204	C	0.726332	0.281384	0.735401
H205	H	0.257504	-0.194598	0.209673
H206	H	0.757504	0.305402	0.709673
H207	H	0.198732	-0.242659	0.205863
H208	H	0.698732	0.257341	0.705863
H209	H	0.198782	-0.191224	0.261360
H210	H	0.698782	0.308776	0.761360
H211	H	0.592192	-0.230118	0.247718
H212	H	1.092192	0.269882	0.747718
H213	H	1.056774	-0.230090	0.940243
H214	H	1.556774	0.269910	1.440243
H215	H	1.056743	-0.230136	0.712717
H216	H	1.556743	0.269864	1.212717
C217	C	1.069169	-0.218556	1.078588
C218	C	1.569169	0.281444	1.578588
H219	H	1.062970	-0.224304	1.125746
H220	H	1.562970	0.275696	1.625746
H221	H	1.114637	-0.227777	1.067009
H222	H	1.614637	0.272223	1.567009
H223	H	1.059287	-0.176260	1.067013
H224	H	1.559287	0.323740	1.567013
C225	C	0.730539	-0.218592	0.235358
C226	C	1.230539	0.281408	0.735358
H227	H	0.699367	-0.194589	0.209625
H228	H	1.199367	0.305411	0.709625
H229	H	0.758138	-0.191196	0.261305
H230	H	1.258138	0.308804	0.761305
H231	H	0.758090	-0.242635	0.205813
H232	H	1.258090	0.257365	0.705813
C233	C	0.887227	-0.387655	0.930062
C234	C	1.387227	0.112345	1.430062
H235	H	0.893415	-0.381898	0.882904
H236	H	1.393415	0.118102	1.382904
H237	H	0.897107	-0.429948	0.941635
H238	H	1.397107	0.070052	1.441635
H239	H	0.841756	-0.378433	0.941644
H240	H	1.341756	0.121567	1.441644
C241	C	0.730530	-0.387904	0.416816
C242	C	1.230530	0.112096	0.916816
H243	H	0.699354	-0.411908	0.442554
H244	H	1.199354	0.088092	0.942554
H245	H	0.758081	-0.415299	0.390871
H246	H	1.258081	0.084701	0.890871
H247	H	0.758128	-0.363853	0.446355
H248	H	1.258128	0.136147	0.946355
H249	H	1.056601	-0.542868	0.247605
H250	H	1.556601	-0.042868	0.747605
H251	H	1.056767	-0.943707	0.247681
H252	H	1.556767	-0.443707	0.747681
