data_functionalizedCrystal
_audit_creation_method	'MofGen! by Chris Wilmer'
_symmetry_space_group_name_H-M	'P1'
_symmetry_Int_Tables_number	1
_symmetry_cell_setting	triclinic
loop_
_symmetry_equiv_pos_as_xyz
  x,y,z
_cell_length_a	14.853566
_cell_length_b	13.330367
_cell_length_c	14.853567
_cell_angle_alpha	90.008763
_cell_angle_beta	96.365328
_cell_angle_gamma	90.004068
loop_
_atom_site_label
_atom_site_type_symbol
_atom_site_fract_x
_atom_site_fract_y
_atom_site_fract_z
O1	O	1.196370	0.083349	-0.117686
O2	O	1.696370	0.583349	0.382314
O3	O	0.933910	0.083364	-0.131708
O4	O	1.433910	0.583364	0.368292
O5	O	1.072151	0.083359	0.006533
O6	O	1.572151	0.583359	0.506533
O7	O	1.058130	0.083354	-0.255927
O8	O	1.558130	0.583354	0.244073
O9	O	1.072130	-0.083488	0.006511
O10	O	1.572130	0.416512	0.506511
O11	O	0.933889	-0.083483	-0.131730
O12	O	1.433889	0.416517	0.368270
O13	O	1.196349	-0.083499	-0.117708
O14	O	1.696349	0.416501	0.382292
Cu15	Cu	1.065117	-0.098725	-0.124721
Cu16	Cu	1.565117	0.401275	0.375279
Cu17	Cu	1.065142	0.098591	-0.124695
Cu18	Cu	1.565142	0.598591	0.375305
O19	O	1.058108	-0.083493	-0.255949
O20	O	1.558108	0.416507	0.244051
C21	C	0.900311	-0.000057	-0.131084
C22	C	1.400311	0.499943	0.368916
C23	C	0.800227	-0.000051	-0.129181
C24	C	1.300227	0.499949	0.370819
C25	C	0.377054	0.090880	-0.121118
C26	C	0.877054	0.590880	0.378882
C27	C	0.377052	-0.091023	-0.121143
C28	C	0.877052	0.408977	0.378857
C29	C	0.471086	-0.091020	-0.122930
C30	C	0.971086	0.408980	0.377070
C31	C	0.518108	-0.000066	-0.123813
C32	C	1.018108	0.499934	0.376187
C33	C	0.471096	0.090886	-0.122908
C34	C	0.971096	0.590886	0.377092
C35	C	0.518104	-0.181970	-0.123844
C36	C	1.018104	0.318030	0.376156
C37	C	0.612144	-0.181971	-0.125632
C38	C	1.112144	0.318029	0.374368
C39	C	0.659168	-0.091015	-0.126509
C40	C	1.159168	0.408985	0.373491
C41	C	0.612151	-0.000060	-0.125603
C42	C	1.112151	0.499940	0.374397
C43	C	0.659173	0.090895	-0.126486
C44	C	1.159173	0.590895	0.373514
C45	C	0.612158	0.181851	-0.125574
C46	C	1.112158	0.681851	0.374426
C47	C	0.518121	0.181841	-0.123785
C48	C	1.018121	0.681841	0.376215
C49	C	0.753205	-0.091006	-0.128298
C50	C	1.253205	0.408994	0.371702
C51	C	0.753215	0.090900	-0.128276
C52	C	1.253215	0.590900	0.371724
N53	N	1.065106	-0.237507	-0.124739
N54	N	1.565106	0.262493	0.375261
C55	C	1.119898	-0.710124	-0.179458
C56	C	1.619898	-0.210124	0.320542
C57	C	1.010414	-0.710104	-0.069896
C58	C	1.510414	-0.210104	0.430104
C59	C	1.010401	-0.605085	-0.069910
C60	C	1.510401	-0.105085	0.430090
C61	C	1.065138	-0.552581	-0.124698
C62	C	1.565138	-0.052581	0.375302
C63	C	1.119888	-0.605096	-0.179471
C64	C	1.619888	-0.105096	0.320529
C65	C	0.955658	-0.552563	-0.015130
C66	C	1.455658	-0.052563	0.484870
C67	C	0.955644	-0.447538	-0.015141
C68	C	1.455644	0.052462	0.484859
C69	C	1.010377	-0.395032	-0.069934
C70	C	1.510377	0.104968	0.430066
C71	C	1.065129	-0.447553	-0.124711
C72	C	1.565129	0.052447	0.375289
C73	C	1.119866	-0.395049	-0.179499
C74	C	1.619866	0.104951	0.320501
C75	C	1.174613	-0.447568	-0.234282
C76	C	1.674613	0.052432	0.265718
C77	C	1.174621	-0.552590	-0.234265
C78	C	1.674621	-0.052590	0.265735
C79	C	1.010369	-0.290011	-0.069951
C80	C	1.510369	0.209989	0.430049
C81	C	1.119856	-0.290021	-0.179513
C82	C	1.619856	0.209979	0.320487
C83	C	1.229948	-0.000075	-0.118332
C84	C	1.729948	0.499925	0.381668
C85	C	1.330032	-0.000075	-0.120235
C86	C	1.830032	0.499925	0.379765
C87	C	1.071505	-0.000062	0.040111
C88	C	1.571505	0.499938	0.540111
C89	C	1.069601	-0.000053	0.140194
C90	C	1.569601	0.499947	0.640194
N91	N	1.065160	0.237372	-0.124670
N92	N	1.565160	0.737372	0.375330
C93	C	1.058754	-0.000071	-0.289526
C94	C	1.558754	0.499929	0.210474
C95	C	1.060658	-0.000073	-0.389610
C96	C	1.560658	0.499927	0.110390
C97	C	0.979435	-0.000067	0.552728
C98	C	1.479435	0.499933	1.052728
C99	C	1.143668	-0.000076	0.574009
C100	C	1.643668	0.499924	1.074009
C101	C	1.145458	-0.000070	0.479976
C102	C	1.645458	0.499930	0.979976
C103	C	1.064236	-0.000064	0.422313
C104	C	1.564236	0.499936	0.922313
C105	C	0.981223	-0.000064	0.458685
C106	C	1.481223	0.499936	0.958685
C107	C	1.228470	-0.000081	0.443597
C108	C	1.728470	0.499919	0.943597
C109	C	1.230263	-0.000076	0.349558
C110	C	1.730263	0.499924	0.849558
C111	C	1.149040	-0.000063	0.291894
C112	C	1.649040	0.499937	0.791894
C113	C	1.066023	-0.000061	0.328271
C114	C	1.566023	0.499939	0.828271
C115	C	0.984801	-0.000055	0.270608
C116	C	1.484801	0.499945	0.770608
C117	C	0.901784	-0.000047	0.306983
C118	C	1.401784	0.499953	0.806983
C119	C	0.899999	-0.000050	0.401021
C120	C	1.399999	0.499950	0.901021
C121	C	1.150824	-0.000059	0.197856
C122	C	1.650824	0.499941	0.697856
C123	C	0.986588	-0.000052	0.176566
C124	C	1.486588	0.499948	0.676566
H125	H	0.650455	0.255906	-0.126299
H126	H	1.150455	0.755906	0.373701
H127	H	1.218415	-0.000073	0.168244
H128	H	1.718415	0.499927	0.668244
C129	C	1.234845	-0.610368	-0.294513
C130	C	1.734845	-0.110368	0.205487
N131	N	1.280208	-0.653891	-0.339889
N132	N	1.780208	-0.153891	0.160111
H133	H	0.965797	-0.247255	-0.025345
H134	H	1.465797	0.252745	0.474655
H135	H	1.164469	-0.752889	-0.224063
H136	H	1.664469	-0.252889	0.275937
H137	H	1.219184	-0.404806	-0.278886
H138	H	1.719184	0.095194	0.221114
H139	H	0.479833	0.255893	-0.123041
H140	H	0.979833	0.755893	0.376959
H141	H	0.338771	0.164934	-0.120372
H142	H	0.838771	0.664934	0.379628
H143	H	0.479811	-0.256020	-0.123131
H144	H	0.979811	0.243980	0.376869
H145	H	0.832411	-0.000044	0.430646
H146	H	1.332411	0.499956	0.930646
C147	C	0.325324	-0.191068	-0.120175
C148	C	0.825324	0.308932	0.379825
N149	N	0.286359	-0.266425	-0.119444
N150	N	0.786359	0.233575	0.380556
H151	H	0.650416	-0.256033	-0.126373
H152	H	1.150416	0.243967	0.373627
H153	H	1.164426	-0.247280	-0.224133
H154	H	1.664426	0.252720	0.275867
C155	C	0.804917	-0.191051	-0.129302
C156	C	1.304917	0.308949	0.370698
N157	N	0.843866	-0.266411	-0.130055
N158	N	1.343866	0.233589	0.369945
C159	C	0.897235	-0.000042	0.113144
C160	C	1.397235	0.499958	0.613144
N161	N	0.829933	-0.000036	0.065375
N162	N	1.329933	0.499964	0.565375
H163	H	0.911064	-0.404786	0.029466
H164	H	1.411064	0.095214	0.529466
H165	H	0.965855	-0.752859	-0.025284
H166	H	1.465855	-0.252859	0.474716
H167	H	0.911102	-0.595320	0.029483
H168	H	1.411102	-0.095320	0.529483
H169	H	1.209796	-0.000089	0.620963
H170	H	1.709796	0.499911	1.120963
H171	H	0.835653	-0.000048	0.260023
H172	H	1.335653	0.499952	0.760023
C173	C	0.888121	-0.000066	0.592741
C174	C	1.388121	0.499934	1.092741
N175	N	0.819342	-0.000070	0.622880
N176	N	1.319342	0.499930	1.122880
H177	H	0.791495	0.164968	-0.128992
H178	H	1.291495	0.664968	0.371008
H179	H	1.294597	-0.000095	0.490552
H180	H	1.794597	0.499905	0.990552
H181	H	1.297861	-0.000082	0.319950
H182	H	1.797861	0.499918	0.819950
