data_functionalizedCrystal
_audit_creation_method	'MofGen! by Chris Wilmer'
_symmetry_space_group_name_H-M	'P1'
_symmetry_Int_Tables_number	1
_symmetry_cell_setting	triclinic
loop_
_symmetry_equiv_pos_as_xyz
  x,y,z
_cell_length_a	17.638686
_cell_length_b	17.640280
_cell_length_c	12.759393
_cell_angle_alpha	78.768122
_cell_angle_beta	78.783988
_cell_angle_gamma	65.687361
loop_
_atom_site_label
_atom_site_type_symbol
_atom_site_fract_x
_atom_site_fract_y
_atom_site_fract_z
Zn1	Zn	1.326461	-0.583188	-0.793319
Zn2	Zn	1.826461	-0.083188	-0.293319
Zn3	Zn	1.354252	-0.721012	-0.588094
Zn4	Zn	1.854252	-0.221012	-0.088094
Zn5	Zn	1.188633	-0.555324	-0.588158
Zn6	Zn	1.688633	-0.055324	-0.088158
Zn7	Zn	1.216476	-0.693056	-0.734274
Zn8	Zn	1.716476	-0.193056	-0.234274
O9	O	1.271455	-0.638145	-0.675961
O10	O	1.771455	-0.138145	-0.175961
O11	O	1.445488	-0.624832	-0.790779
O12	O	1.945488	-0.124832	-0.290779
O13	O	1.332260	-0.699071	-0.441065
O14	O	1.832260	-0.199071	0.058935
O15	O	1.183633	-0.443699	-0.640110
O16	O	1.683633	0.056301	-0.140110
O17	O	1.465906	-0.726091	-0.640001
O18	O	1.965906	-0.226091	-0.140001
O19	O	1.284894	-0.464171	-0.790841
O20	O	1.784894	0.035829	-0.290841
O21	O	1.210580	-0.577341	-0.441112
O22	O	1.710580	-0.077341	0.058888
O23	O	1.076985	-0.550233	-0.582857
O24	O	1.576985	-0.050233	-0.082857
O25	O	1.231088	-0.678443	-0.889143
O26	O	1.731088	-0.178443	-0.389143
O27	O	1.097441	-0.651424	-0.690207
O28	O	1.597441	-0.151424	-0.190207
O29	O	1.311893	-0.597724	-0.932523
O30	O	1.811893	-0.097724	-0.432523
O31	O	1.359258	-0.832625	-0.582747
O32	O	1.859258	-0.332625	-0.082747
O33	O	1.258035	-0.812085	-0.690145
O34	O	1.758035	-0.312085	-0.190145
C35	C	1.057307	-0.594772	-0.630132
C36	C	1.557307	-0.094772	-0.130132
C37	C	0.965697	-0.576236	-0.610547
C38	C	1.465697	-0.076236	-0.110547
C39	C	0.717855	-0.779136	-0.824972
C40	C	1.217855	-0.279136	-0.324972
C41	C	0.631772	-0.761712	-0.806544
C42	C	1.131772	-0.261712	-0.306544
C43	C	0.610404	-0.656178	-0.695003
C44	C	1.110404	-0.156178	-0.195003
C45	C	0.696487	-0.673596	-0.713417
C46	C	1.196487	-0.173596	-0.213417
C47	C	0.750206	-0.735075	-0.778404
C48	C	1.250206	-0.235075	-0.278404
C49	C	0.728839	-0.629535	-0.666849
C50	C	1.228839	-0.129535	-0.166849
C51	C	0.814914	-0.646949	-0.685267
C52	C	1.314914	-0.146949	-0.185267
C53	C	0.868638	-0.708423	-0.750253
C54	C	1.368638	-0.208423	-0.250253
C55	C	0.836281	-0.752489	-0.796821
C56	C	1.336281	-0.252489	-0.296821
C57	C	0.675118	-0.568052	-0.601869
C58	C	1.175118	-0.068052	-0.101869
C59	C	0.707469	-0.523991	-0.555301
C60	C	1.207469	-0.023991	-0.055301
C61	C	0.793547	-0.541409	-0.573712
C62	C	1.293547	-0.041409	-0.073712
C63	C	0.847270	-0.602883	-0.638698
C64	C	1.347270	-0.102883	-0.138698
C65	C	0.825903	-0.497343	-0.527143
C66	C	1.325903	0.002657	-0.027143
C67	C	0.911978	-0.514757	-0.545561
C68	C	1.411978	-0.014757	-0.045561
C69	C	0.933345	-0.620297	-0.657116
C70	C	1.433345	-0.120297	-0.157116
C71	C	1.314706	-0.852261	-0.630060
C72	C	1.814706	-0.352261	-0.130060
C73	C	1.333285	-0.943876	-0.610475
C74	C	1.833285	-0.443876	-0.110475
C75	C	1.130655	-1.191810	-0.825203
C76	C	1.630655	-0.691810	-0.325203
C77	C	1.148114	-1.277896	-0.806767
C78	C	1.648114	-0.777896	-0.306767
C79	C	1.253583	-1.299232	-0.695083
C80	C	1.753583	-0.799232	-0.195083
C81	C	1.236136	-1.213146	-0.713515
C82	C	1.736136	-0.713146	-0.213515
C83	C	1.174670	-1.159441	-0.778575
C84	C	1.674670	-0.659441	-0.278575
C85	C	1.280151	-1.180777	-0.666886
C86	C	1.780151	-0.680777	-0.166886
C87	C	1.262702	-1.094698	-0.685312
C88	C	1.762702	-0.594698	-0.185312
C89	C	1.201238	-1.040988	-0.750366
C90	C	1.701238	-0.540988	-0.250366
C91	C	1.157221	-1.073362	-0.797000
C92	C	1.657221	-0.573362	-0.297000
C93	C	1.341612	-1.234482	-0.601820
C94	C	1.841612	-0.734482	-0.101820
C95	C	1.385628	-1.202114	-0.555192
C96	C	1.885628	-0.702114	-0.055192
C97	C	1.368183	-1.116034	-0.573623
C98	C	1.868183	-0.616034	-0.073623
C99	C	1.306718	-1.062324	-0.638678
C100	C	1.806718	-0.562324	-0.138678
C101	C	1.412199	-1.083660	-0.526989
C102	C	1.912199	-0.583660	-0.026989
C103	C	1.394750	-0.997581	-0.545415
C104	C	1.894750	-0.497581	-0.045415
C105	C	1.289269	-0.976245	-0.657103
C106	C	1.789269	-0.476245	-0.157103
C107	C	1.486440	-0.681688	-0.721969
C108	C	1.986440	-0.181688	-0.221969
C109	C	1.578054	-0.700244	-0.741575
C110	C	2.078054	-0.200244	-0.241575
C111	C	1.271496	-0.638073	-0.950025
C112	C	1.771496	-0.138073	-0.450025
C113	C	1.271513	-0.638043	-1.066814
C114	C	1.771513	-0.138043	-0.566814
C115	C	1.228058	-0.423197	-0.722069
C116	C	1.728058	0.076803	-0.222069
C117	C	1.209564	-0.331600	-0.741717
C118	C	1.709564	0.168400	-0.241717
C119	C	1.313595	-0.596009	-1.144269
C120	C	1.813595	-0.096009	-0.644269
C121	C	1.313609	-0.595983	-1.254003
C122	C	1.813609	-0.095983	-0.754003
C123	C	1.229458	-0.680032	-1.208818
C124	C	1.729458	-0.180032	-0.708818
C125	C	1.229440	-0.680052	-1.099085
C126	C	1.729440	-0.180052	-0.599085
C127	C	1.355668	-0.554000	-1.111998
C128	C	1.855668	-0.054000	-0.611998
C129	C	1.397754	-0.511963	-1.189454
C130	C	1.897754	-0.011963	-0.689454
C131	C	1.397768	-0.511937	-1.299189
C132	C	1.897768	-0.011937	-0.799189
C133	C	1.355696	-0.553948	-1.331467
C134	C	1.855696	-0.053948	-0.831467
C135	C	1.271450	-0.638166	-0.402986
C136	C	1.771450	-0.138166	0.097014
C137	C	1.271545	-0.637997	-0.286281
C138	C	1.771545	-0.137997	0.213719
H139	H	0.566655	-0.606119	-0.642094
H140	H	1.066655	-0.106119	-0.142094
H141	H	0.605436	-0.797593	-0.844475
H142	H	1.105436	-0.297593	-0.344475
Br143	Br	0.558299	-0.544413	-0.576881
Br144	Br	1.058299	-0.044413	-0.076881
Br145	Br	1.047247	-1.118918	-0.913516
Br146	Br	1.547247	-0.618918	-0.413516
Br147	Br	1.205861	-0.903354	-0.745416
Br148	Br	1.705861	-0.403354	-0.245416
Br149	Br	1.454884	-0.454890	-1.404305
Br150	Br	1.954884	0.045110	-0.904305
Br151	Br	1.454474	-0.953644	-0.482117
Br152	Br	1.954474	-0.453644	0.017883
H153	H	1.355664	-0.554018	-1.022649
H154	H	1.855664	-0.054018	-0.522649
Br155	Br	0.909196	-0.835937	-0.885002
Br156	Br	1.409196	-0.335937	-0.385002
H157	H	1.432002	-0.477753	-1.163165
H158	H	1.932002	0.022247	-0.663165
Br159	Br	0.634558	-0.440553	-0.467116
Br160	Br	1.134558	0.059447	0.032884
H161	H	1.107176	-1.029634	-0.849988
H162	H	1.607176	-0.529634	-0.349988
H163	H	0.761597	-0.829203	-0.877884
H164	H	1.261597	-0.329203	-0.377884
Br165	Br	1.355698	-0.553895	-1.480395
Br166	Br	1.855698	-0.053895	-0.980395
H167	H	1.355819	-1.304573	-0.586824
H168	H	1.855819	-0.804573	-0.086824
Br169	Br	1.006260	-0.703745	-0.745296
Br170	Br	1.506260	-0.203745	-0.245296
H171	H	1.435670	-1.245851	-0.502216
H172	H	1.935670	-0.745851	-0.002216
H173	H	1.195205	-0.714235	-1.235108
H174	H	1.695205	-0.214235	-0.735108
H175	H	1.112277	-1.304248	-0.844757
H176	H	1.612277	-0.804248	-0.344757
Br177	Br	0.955889	-0.454958	-0.482364
Br178	Br	1.455889	0.045042	0.017636
Br179	Br	1.336998	-1.372123	-0.606792
Br180	Br	1.836998	-0.872123	-0.106792
Br181	Br	1.495606	-1.156552	-0.438686
Br182	Br	1.995606	-0.656552	0.061314
Br183	Br	1.172324	-0.737095	-0.993961
Br184	Br	1.672324	-0.237095	-0.493961
H185	H	0.782152	-0.447282	-0.474240
H186	H	1.282152	0.052718	0.025760
H187	H	0.938724	-0.722596	-0.765253
H188	H	1.438724	-0.222596	-0.265253
H189	H	1.187026	-0.970896	-0.765358
H190	H	1.687026	-0.470896	-0.265358
