data_functionalizedCrystal
_audit_creation_method	'MofGen! by Chris Wilmer'
_symmetry_space_group_name_H-M	'P1'
_symmetry_Int_Tables_number	1
_symmetry_cell_setting	triclinic
loop_
_symmetry_equiv_pos_as_xyz
  x,y,z
_cell_length_a	17.019383
_cell_length_b	17.038272
_cell_length_c	16.098524
_cell_angle_alpha	92.876406
_cell_angle_beta	96.939080
_cell_angle_gamma	87.246883
loop_
_atom_site_label
_atom_site_type_symbol
_atom_site_fract_x
_atom_site_fract_y
_atom_site_fract_z
O1	O	1.060396	0.106195	0.145233
O2	O	0.830788	0.118143	0.128783
O3	O	0.944227	-0.001650	0.136904
O4	O	0.946957	0.225988	0.137112
O5	O	0.937477	-0.007909	-0.002094
O6	O	0.824038	0.111884	-0.010214
O7	O	1.053646	0.099936	0.006235
Zn8	Zn	0.937770	0.104916	-0.024058
Zn9	Zn	0.946664	0.113163	0.159077
O10	O	0.940207	0.219729	-0.001885
C11	C	0.797889	0.114435	0.057170
C12	C	0.709917	0.112702	0.050867
C13	C	0.672259	0.115302	0.123668
C14	C	0.589599	0.113686	0.117733
C15	C	0.544598	0.109464	0.038998
C16	C	0.582261	0.106867	-0.033808
C17	C	0.664919	0.108489	-0.027873
C18	C	0.294838	0.104402	0.017288
C19	C	0.212174	0.102778	0.011358
C20	C	0.219518	0.109598	0.162900
C21	C	0.302178	0.111215	0.168828
C22	C	0.339834	0.108621	0.096022
C23	C	0.460106	0.107810	0.032931
C24	C	0.424324	0.110282	0.102091
C25	C	0.938369	-0.033914	0.067227
C26	C	0.930963	-0.120725	0.066697
C27	C	0.998959	-0.170674	0.071567
C28	C	0.991996	-0.252241	0.071076
C29	C	0.917036	-0.283857	0.065709
C30	C	0.849036	-0.233901	0.060841
C31	C	0.856000	-0.152336	0.061338
C32	C	0.892434	-0.529674	0.063958
C33	C	0.885475	-0.611247	0.063459
C34	C	1.028436	-0.629581	0.073696
C35	C	1.035393	-0.548013	0.074187
C36	C	0.967393	-0.498064	0.069324
C37	C	0.909917	-0.367232	0.065204
C38	C	0.974513	-0.414690	0.069834
C39	C	1.086545	0.103644	0.077851
C40	C	1.174517	0.105377	0.084159
C41	C	0.946064	0.251993	0.067793
C42	C	0.953470	0.338804	0.068329
N43	N	0.931706	0.099287	-0.149043
C44	C	0.980783	0.144878	-0.189105
C45	C	0.976551	0.140936	-0.276598
C46	C	0.923238	0.091405	-0.324027
C47	C	0.874159	0.045809	-0.283958
C48	C	0.878396	0.049748	-0.196466
C49	C	0.907890	0.077129	-0.588378
C50	C	0.903656	0.073195	-0.675875
C51	C	1.006050	0.168321	-0.668510
C52	C	1.010278	0.172259	-0.581017
C53	C	0.961202	0.126659	-0.540956
C54	C	0.918910	0.087376	-0.413458
C55	C	0.965535	0.130685	-0.451525
N56	N	0.952733	0.118786	0.284062
H57	H	0.460967	0.113723	0.166197
H58	H	1.096433	-0.522277	0.078558
N59	N	0.768186	-0.268001	0.055044
H60	H	0.726168	-0.223978	0.052035
H61	H	0.764683	-0.299122	0.106140
N62	N	0.819093	-0.475808	0.058707
H63	H	0.789136	-0.483678	0.107907
H64	H	0.784190	-0.488347	0.004825
N65	N	1.029520	0.190070	-0.319807
H66	H	1.063945	0.222036	-0.276485
H67	H	0.995858	0.226576	-0.358420
N68	N	1.065333	-0.306117	0.076322
H69	H	1.100303	-0.293605	0.130168
H70	H	1.095221	-0.298229	0.027076
H71	H	0.545614	0.103434	-0.097916
H72	H	1.053693	0.212589	-0.542406
H73	H	0.558942	0.115802	0.177015
N74	N	0.825466	0.000570	-0.153254
H75	H	0.768175	0.015148	-0.172534
H76	H	0.836309	0.010599	-0.090642
N77	N	0.804622	-0.645350	0.057671
H78	H	0.762600	-0.601331	0.054667
H79	H	0.801129	-0.676472	0.108769
N80	N	0.782663	-0.098457	0.056090
H81	H	0.734119	-0.130861	0.052613
H82	H	0.779933	-0.066537	0.004547
N83	N	0.705542	0.105681	-0.106391
H84	H	0.736521	0.154633	-0.107526
H85	H	0.664449	0.102730	-0.157127
H86	H	0.423457	0.104370	-0.031176
N87	N	0.846159	0.019760	-0.727030
H88	H	0.850923	0.024188	-0.788534
H89	H	0.790371	0.035732	-0.715796
N90	N	1.058980	0.217499	-0.711718
H91	H	1.048210	0.207490	-0.774340
H92	H	1.116247	0.202895	-0.692366
N93	N	0.854961	0.027948	-0.545175
H94	H	0.820544	-0.004023	-0.588499
H95	H	0.820317	0.063568	-0.511483
H96	H	0.848884	-0.392983	0.060833
N97	N	1.055361	-0.380596	0.075616
H98	H	1.063943	-0.344837	0.127574
H99	H	1.058868	-0.349529	0.024482
H100	H	1.008945	0.171010	-0.412905
N101	N	0.720791	0.119860	0.208591
H102	H	0.778870	0.120492	0.201307
H103	H	0.711093	0.072636	0.240865
H104	H	0.830754	0.005476	-0.322581
N105	N	0.861403	0.033968	-0.464625
H106	H	0.805588	0.049925	-0.453463
H107	H	0.873985	-0.022184	-0.448542
N108	N	0.178901	0.112409	0.241420
H109	H	0.219952	0.115331	0.292198
H110	H	0.147915	0.063454	0.242486
N111	N	1.038282	0.198304	-0.137954
H112	H	1.068731	0.226586	-0.176613
H113	H	1.076440	0.165949	-0.099042
H114	H	0.338814	0.114647	0.232943
H115	H	1.059999	-0.144939	0.075933
N116	N	1.101771	-0.683459	0.078943
H117	H	1.104572	-0.715385	0.130491
H118	H	1.150273	-0.651002	0.082383
N119	N	0.335446	0.101608	-0.061235
H120	H	0.294393	0.098686	-0.112011
H121	H	0.372736	0.053704	-0.061856
H122	H	0.175535	0.099362	-0.052761
