data_functionalizedCrystal
_audit_creation_method	'MofGen! by Chris Wilmer'
_symmetry_space_group_name_H-M	'P1'
_symmetry_Int_Tables_number	1
_symmetry_cell_setting	triclinic
loop_
_symmetry_equiv_pos_as_xyz
  x,y,z
_cell_length_a	14.971486
_cell_length_b	9.065218
_cell_length_c	14.048226
_cell_angle_alpha	89.995444
_cell_angle_beta	89.998499
_cell_angle_gamma	84.315007
loop_
_atom_site_label
_atom_site_type_symbol
_atom_site_fract_x
_atom_site_fract_y
_atom_site_fract_z
O1	O	1.188380	0.192261	-0.079047
O2	O	0.928151	0.215285	-0.079073
O3	O	1.063645	-0.010979	-0.079057
O4	O	1.052887	0.418524	-0.079062
O5	O	1.063628	-0.010992	0.079264
O6	O	0.928135	0.215271	0.079249
O7	O	1.188363	0.192248	0.079274
Zn8	Zn	1.058246	0.203758	0.104398
Zn9	Zn	1.058268	0.203775	-0.104197
O10	O	1.052870	0.418511	0.079259
C11	C	0.894811	0.214248	0.000085
C12	C	0.795491	0.211163	0.000075
C13	C	1.062602	-0.065951	0.000102
C14	C	1.059511	-0.229731	0.000097
C15	C	0.739256	0.344086	0.000075
C16	C	0.645935	0.341178	0.000089
C17	C	0.608850	0.205345	0.000097
C18	C	0.665092	0.072412	0.000100
C19	C	0.758411	0.075321	0.000092
C20	C	0.470584	0.066357	0.000113
C21	C	0.377259	0.063446	0.000118
C22	C	0.358108	0.332214	0.000110
C23	C	0.451427	0.335123	0.000102
C24	C	0.507663	0.202189	0.000103
C25	C	1.221704	0.193284	0.000115
C26	C	1.321024	0.196370	0.000118
C27	C	1.053912	0.473483	0.000098
C28	C	1.057004	0.637264	0.000097
N29	N	1.058238	0.203745	0.246759
N30	N	1.058284	0.203776	-0.246557
C31	C	1.118254	0.103597	0.296584
C32	C	1.118260	0.103596	0.396242
C33	C	1.058254	0.203751	0.446073
C34	C	0.998231	0.303904	0.396241
C35	C	0.998222	0.303896	0.296585
C36	C	0.998257	0.303915	0.603955
C37	C	0.998268	0.303924	0.703618
C38	C	1.118295	0.103614	0.703612
C39	C	1.118286	0.103607	0.603956
C40	C	1.058264	0.203762	0.554131
H41	H	0.600152	0.449418	0.000088
O42	O	1.176599	0.006477	0.248118
C43	C	1.232402	0.085575	0.190409
H44	H	1.234913	0.201920	0.220429
H45	H	1.204429	0.093259	0.114901
C46	C	1.324669	-0.138463	0.151949
C47	C	1.327759	0.004430	0.188824
H48	H	1.383489	-0.188518	0.150967
H49	H	1.287072	-0.191754	0.190825
H50	H	1.301354	-0.132039	0.089028
H51	H	1.351063	-0.001995	0.251747
H52	H	1.365362	0.057719	0.149958
O53	O	0.341085	-0.068371	0.000097
C54	C	0.246661	-0.042426	0.000126
H55	H	0.225688	0.072661	-0.029864
H56	H	0.220635	-0.049598	0.076084
C57	C	0.232762	-0.301209	-0.025105
C58	C	0.207003	-0.159863	-0.061947
H59	H	0.208298	-0.373653	-0.063391
H60	H	0.296378	-0.318691	-0.025121
H61	H	0.211073	-0.307165	0.038193
H62	H	0.228702	-0.153903	-0.125239
H63	H	0.143390	-0.142383	-0.061943
O64	O	1.176655	0.006273	0.444493
C65	C	1.229609	-0.082138	0.379142
H66	H	1.231087	-0.021653	0.308097
H67	H	1.199698	-0.191831	0.368561
C68	C	1.324044	-0.186529	0.505277
C69	C	1.325866	-0.112235	0.418020
H70	H	1.383420	-0.205101	0.529260
H71	H	1.288367	-0.126970	0.549306
H72	H	1.299115	-0.277932	0.496448
H73	H	1.350785	-0.020826	0.426853
H74	H	1.361550	-0.171780	0.373993
H75	H	0.516370	-0.041893	0.000115
H76	H	0.949404	0.385480	0.744185
O77	O	0.629219	-0.059667	0.000146
C78	C	0.698867	-0.176365	0.000120
H79	H	0.762581	-0.134900	0.030093
H80	H	0.711738	-0.217363	-0.075835
C81	C	0.593243	-0.355399	0.025394
C82	C	0.671495	-0.304474	0.062215
H83	H	0.576358	-0.434427	0.063693
H84	H	0.546318	-0.276779	0.025408
H85	H	0.603979	-0.389554	-0.037902
H86	H	0.660755	-0.270304	0.125504
H87	H	0.718417	-0.383092	0.062213
O88	O	1.176563	0.006117	0.751898
C89	C	1.160839	-0.139975	0.727575
H90	H	1.126353	-0.139892	0.655225
H91	H	1.115961	-0.185731	0.783674
C92	C	1.293225	-0.237959	0.811819
C93	C	1.250875	-0.237859	0.722954
H94	H	1.348762	-0.298342	0.808973
H95	H	1.303817	-0.139536	0.828210
H96	H	1.255817	-0.276087	0.858559
H97	H	1.288277	-0.199715	0.676219
H98	H	1.240291	-0.336279	0.706555
O99	O	0.940048	0.401246	0.248077
C100	C	0.988675	0.492416	0.190433
H101	H	1.058190	0.433849	0.175499
H102	H	0.995633	0.601475	0.228827
C103	C	0.853111	0.595731	0.114117
C104	C	0.938488	0.523792	0.095768
H105	H	0.822153	0.615092	0.055725
H106	H	0.820349	0.534312	0.152955
H107	H	0.858922	0.686605	0.146115
H108	H	0.932676	0.432911	0.063782
H109	H	0.971248	0.585196	0.056922
O110	O	0.939922	0.401350	0.555701
C111	C	0.886949	0.489733	0.621050
H112	H	0.923638	0.491499	0.692084
H113	H	0.820117	0.441654	0.631661
C114	C	0.824737	0.646667	0.494902
C115	C	0.869804	0.648847	0.582144
H116	H	0.814157	0.744815	0.470902
H117	H	0.860424	0.587119	0.450874
H118	H	0.769049	0.606595	0.503755
H119	H	0.925495	0.688902	0.573288
H120	H	0.834126	0.708406	0.626170
H121	H	0.949369	0.385447	0.436819
H122	H	0.769442	0.454697	0.000068
H123	H	1.167151	0.022060	0.563383
H124	H	0.312316	0.440454	0.000113
H125	H	0.481618	0.445730	0.000087
H126	H	0.804197	-0.032919	0.000092
