data_functionalizedCrystal
_audit_creation_method	'MofGen! by Chris Wilmer'
_symmetry_space_group_name_H-M	'P1'
_symmetry_Int_Tables_number	1
_symmetry_cell_setting	triclinic
loop_
_symmetry_equiv_pos_as_xyz
  x,y,z
_cell_length_a	23.196402
_cell_length_b	14.560438
_cell_length_c	14.560438
_cell_angle_alpha	60.000069
_cell_angle_beta	89.998023
_cell_angle_gamma	59.999402
loop_
_atom_site_label
_atom_site_type_symbol
_atom_site_fract_x
_atom_site_fract_y
_atom_site_fract_z
Zr1	Zr	0.555363	1.005291	-0.120538
O2	O	0.463313	1.196892	-0.267178
O3	O	0.583581	0.813690	-0.075588
O4	O	0.583581	1.005294	-0.267188
O5	O	0.463313	1.005285	0.075564
O6	O	0.678451	1.005296	-0.267194
O7	O	0.463313	1.005288	-0.075577
O8	O	0.678451	0.662552	0.075545
O9	O	0.463313	1.348030	-0.267175
O10	O	0.666416	0.892500	-0.056418
O11	O	0.595616	0.892496	0.056381
O12	O	0.595616	1.118085	-0.169204
O13	O	0.524816	1.118081	-0.056405
Zr14	Zr	0.706670	1.005290	0.120506
Zr15	Zr	0.706670	1.005294	-0.120546
Zr16	Zr	0.555363	1.005286	0.120514
Zr17	Zr	0.555363	1.246338	-0.120534
Zr18	Zr	0.706669	0.764242	0.120501
O19	O	0.678452	1.196891	0.075555
O20	O	0.678451	1.196897	-0.267190
O21	O	0.463313	1.196886	0.075567
O22	O	0.798720	0.813689	0.267146
O23	O	0.798720	0.813695	-0.075599
O24	O	0.583581	0.813684	0.267158
O25	O	0.798720	1.005296	-0.075596
O26	O	0.678452	1.005287	0.267156
O27	O	0.583582	1.005284	0.267161
O28	O	0.798720	1.005293	0.075545
O29	O	0.583582	1.348033	-0.267182
O30	O	0.678451	0.662548	0.267150
O31	O	0.798720	0.662551	0.267143
O32	O	0.798719	0.662554	0.075539
O33	O	0.463313	1.348026	-0.075571
O34	O	0.583582	1.348029	-0.075577
O35	O	0.666417	0.892496	0.169172
O36	O	0.737217	0.892499	0.056373
O37	O	0.666417	1.118085	-0.056413
O38	O	0.595616	1.118081	0.056385
C39	C	0.631016	0.703777	-0.000022
C40	C	0.631016	0.601446	-0.000024
C41	C	0.667971	0.553371	-0.058904
C42	C	0.667974	0.457212	-0.058893
C43	C	0.594060	0.457213	0.058879
C44	C	0.594062	0.553364	0.058874
C45	C	0.441755	1.005286	-0.000006
C46	C	0.377521	1.005284	-0.000002
C47	C	0.384303	0.887534	0.058861
C48	C	0.323949	0.887533	0.058865
C49	C	0.256813	1.005287	-0.000015
C50	C	0.250034	1.123053	-0.058880
C51	C	0.310388	1.123051	-0.058874
C52	C	0.132884	1.095505	-0.098644
C53	C	0.072532	1.095501	-0.098654
C54	C	0.070659	1.005297	-0.000032
C55	C	0.129151	0.915075	0.098598
C56	C	0.189506	0.915073	0.098604
C57	C	0.191365	1.005302	-0.000027
C58	C	0.012000	0.887538	0.058841
C59	C	-0.048357	0.887541	0.058849
C60	C	-0.122272	1.123064	-0.058907
C61	C	-0.061915	1.123057	-0.058904
C62	C	0.005219	1.005291	-0.000033
C63	C	0.820278	1.005295	-0.000027
C64	C	0.884511	1.005297	-0.000030
C65	C	0.631016	1.005296	-0.301536
C66	C	0.631016	1.005297	-0.403869
C67	C	0.631017	1.306804	-0.000010
C68	C	0.631017	1.409135	-0.000009
C69	C	0.683280	1.005300	-0.451948
C70	C	0.683283	1.005288	-0.548094
C71	C	0.578749	1.005277	-0.548076
C72	C	0.578751	1.005279	-0.451927
C73	C	0.631017	1.005285	0.301503
C74	C	0.631017	1.005283	0.403836
C75	C	0.820277	0.703781	-0.000032
C76	C	0.884511	0.601452	-0.000038
C77	C	0.631016	0.703771	0.301498
C78	C	0.631016	0.601438	0.403829
C79	C	0.820278	0.703776	0.301487
C80	C	0.884511	0.601445	0.403815
C81	C	0.441755	1.306805	-0.301520
C82	C	0.377521	1.409136	-0.403847
C83	C	0.441755	1.306799	0.000000
C84	C	0.377522	1.409129	0.000006
C85	C	0.631016	1.306809	-0.301530
C86	C	0.631016	1.409142	-0.403861
C87	C	0.877719	0.553397	-0.058926
C88	C	0.938067	0.457261	-0.058954
C89	C	1.005207	0.409175	-0.000086
C90	C	1.011998	0.457239	0.058804
C91	C	0.951650	0.553380	0.058825
C92	C	0.951639	0.553391	0.392989
C93	C	1.011999	0.457253	0.489128
C94	C	1.005230	0.409164	0.596090
C95	C	0.938095	0.457228	0.606914
C96	C	0.877736	0.553370	0.510777
C97	C	0.310393	1.457202	-0.393021
C98	C	0.250033	1.553369	-0.489160
C99	C	0.256803	1.601463	-0.596123
C100	C	0.323938	1.553393	-0.606946
C101	C	0.384297	1.457234	-0.510809
C102	C	0.384314	1.457194	0.058884
C103	C	0.323966	1.553356	0.058885
C104	C	0.256826	1.601446	0.000014
C105	C	0.250035	1.553377	-0.058872
C106	C	0.310382	1.457223	-0.058879
C107	C	0.667973	0.553360	0.510780
C108	C	0.667965	0.457217	0.606927
C109	C	0.594043	0.457234	0.489158
C110	C	0.594047	0.553383	0.393014
H111	H	0.563968	0.592505	0.106826
Br112	Br	0.507820	1.005261	-0.386662
H113	H	0.698057	0.418077	0.694008
H114	H	1.066658	0.418130	0.480295
H115	H	0.725842	1.005288	-0.587236
Br116	Br	0.158910	1.618652	-0.138760
Br117	Br	0.174880	1.731967	-0.726585
H118	H	0.304842	1.418091	-0.106822
H119	H	0.329471	0.791644	0.106799
Br120	Br	-0.213379	1.282877	-0.138805
H121	H	0.698063	0.592515	-0.106860
H122	H	0.932524	0.418139	-0.106909
Br123	Br	0.718144	0.618577	0.525460
H124	H	0.207692	1.679741	0.000029
H125	H	0.329442	1.592564	-0.694047
H126	H	-0.067440	1.218942	-0.106845
Br127	Br	0.543874	0.392009	0.474490
H128	H	0.698068	0.418071	-0.106837
Br129	Br	0.475425	1.391955	0.138786
H130	H	0.932593	0.418060	0.694016
H131	H	0.957191	0.592494	0.106785
Br132	Br	0.543917	0.391945	0.138817
Br133	Br	0.960846	0.618640	0.247837
H134	H	0.823055	0.592548	-0.106877
H135	H	0.725839	1.005312	-0.412819
Br136	Br	1.087153	0.278684	0.726553
Br137	Br	1.087101	0.278696	-0.000125
Br138	Br	0.786636	0.618569	0.525489
Br139	Br	1.103123	0.391962	0.138695
H140	H	0.304868	1.418049	-0.305935
H141	H	0.134395	1.168979	-0.178954
Br142	Br	0.158931	1.618583	-0.474444
H143	H	0.438954	1.418100	-0.519637
Br144	Br	0.543881	0.618649	0.247854
Br145	Br	0.475410	0.727709	0.138762
Br146	Br	0.268883	0.792640	0.232453
Br147	Br	0.103112	0.727716	0.138740
H148	H	0.536195	1.005265	-0.587216
H149	H	0.127637	0.841601	0.178898
Br150	Br	-0.006846	1.217952	-0.232503
Br151	Br	-0.039150	0.727723	0.138759
Br152	Br	0.158922	1.282864	-0.138779
Br153	Br	0.333199	1.618569	0.138810
H154	H	0.304860	1.218940	-0.106804
