data_functionalizedCrystal
_audit_creation_method	'MofGen! by Chris Wilmer'
_symmetry_space_group_name_H-M	'P1'
_symmetry_Int_Tables_number	1
_symmetry_cell_setting	triclinic
loop_
_symmetry_equiv_pos_as_xyz
  x,y,z
_cell_length_a	16.959455
_cell_length_b	25.639239
_cell_length_c	16.959447
_cell_angle_alpha	90.033631
_cell_angle_beta	90.020374
_cell_angle_gamma	90.036304
loop_
_atom_site_label
_atom_site_type_symbol
_atom_site_fract_x
_atom_site_fract_y
_atom_site_fract_z
Zn1	Zn	1.208278	-0.208182	0.447018
Zn2	Zn	1.208156	-0.295623	0.314832
Zn3	Zn	1.076107	-0.208199	0.314842
Zn4	Zn	1.076027	-0.295584	0.446957
O5	O	1.142142	-0.251897	0.380912
O6	O	1.318873	-0.219791	0.429505
O7	O	1.190622	-0.284049	0.204222
O8	O	1.093724	-0.135031	0.332405
O9	O	1.318784	-0.284033	0.332388
O10	O	1.190830	-0.135019	0.429514
O11	O	1.093606	-0.219819	0.204229
O12	O	0.965485	-0.219781	0.332345
O13	O	1.093588	-0.283966	0.557576
O14	O	0.965427	-0.283982	0.429410
O15	O	1.190753	-0.219753	0.557621
O16	O	1.190545	-0.368783	0.332329
O17	O	1.093470	-0.368754	0.429400
C18	C	0.936776	-0.251880	0.380872
C19	C	0.848919	-0.251885	0.380874
C20	C	0.477386	-0.285315	0.330318
C21	C	0.477501	-0.218522	0.431603
C22	C	0.560047	-0.218514	0.431583
C23	C	0.601266	-0.251907	0.380931
C24	C	0.559940	-0.285308	0.330299
C25	C	0.601379	-0.185117	0.482221
C26	C	0.683930	-0.185107	0.482204
C27	C	0.725151	-0.218498	0.431548
C28	C	0.683820	-0.251900	0.380912
C29	C	0.725039	-0.285293	0.330260
C30	C	0.683709	-0.318693	0.279620
C31	C	0.601161	-0.318699	0.279642
C32	C	0.807700	-0.218492	0.431526
C33	C	0.807593	-0.285286	0.330241
C34	C	1.142007	-0.387739	0.380874
C35	C	1.142022	-0.445853	0.380884
C36	C	1.091586	-0.697044	0.431441
C37	C	1.091556	-0.642440	0.431432
O38	O	1.048544	-0.614201	0.474391
N39	N	1.142121	-0.615127	0.380925
C40	C	1.192724	-0.642422	0.330430
O41	O	1.235731	-0.614176	0.287470
C42	C	1.192757	-0.697025	0.330444
C43	C	1.142183	-0.724335	0.380948
C44	C	1.041017	-0.724354	0.481942
C45	C	1.041045	-0.778955	0.481950
C46	C	1.091643	-0.806245	0.431457
C47	C	1.142211	-0.778935	0.380956
C48	C	1.243363	-0.724318	0.279954
C49	C	1.243392	-0.778925	0.279972
C50	C	1.192818	-0.806235	0.330476
C51	C	1.192837	-0.860826	0.330471
N52	N	1.142273	-0.888139	0.380978
C53	C	1.091675	-0.860849	0.431471
C54	C	1.192652	-0.527751	0.330406
C55	C	1.192616	-0.473149	0.330388
C56	C	1.091450	-0.473171	0.431391
C57	C	1.091482	-0.527774	0.431404
C58	C	1.142088	-0.555064	0.380913
C59	C	1.091738	-0.975514	0.431483
C60	C	1.091769	-1.030119	0.431484
C61	C	1.192938	-1.030092	0.330485
C62	C	1.192905	-0.975492	0.330480
C63	C	1.142302	-0.948204	0.380986
O64	O	1.235830	-0.889100	0.287536
O65	O	1.048683	-0.889101	0.474431
C66	C	1.348310	-0.251914	0.380952
C67	C	1.436167	-0.251922	0.380970
C68	C	1.142175	-0.251853	0.587080
C69	C	1.142189	-0.251835	0.674937
C70	C	1.142299	-0.115524	0.380968
C71	C	1.142366	-0.057410	0.380991
C72	C	1.142155	-0.251902	0.175546
C73	C	1.142294	-0.251773	0.087690
C74	C	1.091694	-0.285213	1.046392
C75	C	1.192873	-0.218347	1.046434
C76	C	1.192852	-0.218358	0.963888
C77	C	1.142252	-0.251798	0.922590
C78	C	1.091674	-0.285226	0.963838
C79	C	1.243435	-0.184934	0.922634
C80	C	1.243416	-0.184944	0.840083
C81	C	1.192812	-0.218381	0.798783
C82	C	1.142231	-0.251811	0.840037
C83	C	1.091632	-0.285250	0.798739
C84	C	1.041046	-0.318678	0.839990
C85	C	1.041069	-0.318664	0.922539
C86	C	1.192789	-0.218395	0.716235
C87	C	1.091611	-0.285264	0.716185
H88	H	0.841148	-0.312478	0.288991
N89	N	1.247439	-0.946027	0.276005
H90	H	1.235203	-0.955561	0.219517
H91	H	1.303891	-0.955500	0.288404
H92	H	1.284606	-0.157725	0.806503
H93	H	1.234130	-1.052322	0.289372
H94	H	1.050305	-0.550006	0.472534
H95	H	0.999888	-0.345880	0.956133
H96	H	1.050399	-0.312490	0.682566
H97	H	0.717574	-0.157910	0.523438
H98	H	0.999862	-0.801186	0.523074
N99	N	1.298008	-0.148870	0.967174
H100	H	1.354471	-0.157001	0.952815
H101	H	1.290274	-0.153951	1.025713
H102	H	0.567812	-0.157933	0.523464
N103	N	0.852278	-0.182477	0.486143
H104	H	0.813639	-0.161326	0.518237
H105	H	0.886527	-0.158249	0.454030
N106	N	1.037143	-0.321269	1.090880
H107	H	1.005089	-0.342454	1.052189
H108	H	1.000594	-0.299978	1.125136
N109	N	0.986437	-0.694922	0.536401
H110	H	0.998677	-0.704391	0.592892
H111	H	0.930001	-0.704487	0.523994
H112	H	0.567503	-0.345891	0.238413
H113	H	0.443935	-0.191338	0.472846
N114	N	0.432817	-0.321333	0.275694
H115	H	0.374267	-0.316271	0.283385
H116	H	0.447221	-0.358684	0.287887
N117	N	1.036875	-0.443731	0.485853
H118	H	1.044534	-0.404997	0.478178
H119	H	1.049147	-0.453238	0.542320
H120	H	0.717281	-0.345884	0.238383
H121	H	1.050584	-1.052352	0.472613
H122	H	1.284604	-0.801142	0.238857
H123	H	1.234073	-0.191125	1.080064
H124	H	0.999851	-0.345907	0.806355
H125	H	1.050534	-0.953302	0.472610
H126	H	1.233789	-0.450917	0.289254
H127	H	1.233860	-0.549967	0.289283
N128	N	1.297920	-0.694871	0.225490
H129	H	1.329980	-0.720453	0.193517
H130	H	1.334464	-0.672181	0.257708
N131	N	1.247347	-0.182351	0.671741
H132	H	1.279408	-0.161167	0.710429
H133	H	1.215195	-0.158155	0.637501
