data_functionalizedCrystal
_audit_creation_method	'MofGen! by Chris Wilmer'
_symmetry_space_group_name_H-M	'P1'
_symmetry_Int_Tables_number	1
_symmetry_cell_setting	triclinic
loop_
_symmetry_equiv_pos_as_xyz
  x,y,z
_cell_length_a	12.837943
_cell_length_b	17.666332
_cell_length_c	12.837942
_cell_angle_alpha	90.005376
_cell_angle_beta	94.828940
_cell_angle_gamma	90.008016
loop_
_atom_site_label
_atom_site_type_symbol
_atom_site_fract_x
_atom_site_fract_y
_atom_site_fract_z
O1	O	1.402343	0.062934	0.272143
O2	O	1.099210	0.062939	0.258700
O3	O	1.244055	0.062932	0.113854
O4	O	1.257498	0.062941	0.416988
O5	O	1.244026	-0.062965	0.113843
O6	O	1.099181	-0.062958	0.258688
O7	O	1.402314	-0.062963	0.272132
Cu8	Cu	1.250745	-0.074456	0.265409
Cu9	Cu	1.250779	0.074432	0.265422
O10	O	1.257469	-0.062956	0.416977
C11	C	1.060126	-0.000009	0.254153
C12	C	0.943711	-0.000008	0.240608
N13	N	1.250728	-0.179175	0.265399
C14	C	0.718837	-0.000014	0.403437
C15	C	0.609454	-0.000013	0.390716
C16	C	0.615562	-0.000010	0.202445
C17	C	0.724944	-0.000011	0.215166
C18	C	0.776578	-0.000012	0.315666
C19	C	0.885962	-0.000007	0.328386
C20	C	0.892067	-0.000010	0.140116
C21	C	0.782685	-0.000009	0.127395
C22	C	1.314892	-0.218788	0.201299
C23	C	1.314898	-0.298036	0.201295
C24	C	1.250751	-0.337667	0.265410
C25	C	1.186574	-0.298045	0.329514
C26	C	1.186563	-0.218799	0.329509
N27	N	1.246575	-0.462083	0.356722
N28	N	1.246592	-0.537364	0.356724
C29	C	1.250780	-0.576431	0.265427
N30	N	1.254971	-0.537375	0.174127
N31	N	1.254959	-0.462087	0.174126
C32	C	1.250756	-0.423596	0.265422
C33	C	1.314953	-0.701973	0.201316
C34	C	1.314952	-0.781222	0.201310
C35	C	1.186634	-0.781230	0.329539
C36	C	1.186630	-0.701983	0.329536
C37	C	1.250795	-0.662359	0.265426
C38	C	1.441398	-0.000013	0.276679
C39	C	1.557813	-0.000010	0.290223
C40	C	1.239499	-0.000016	0.074780
C41	C	1.225954	-0.000015	-0.041635
N42	N	1.250803	0.179151	0.265424
C43	C	1.388784	-0.000001	-0.266510
C44	C	1.376062	0.000000	-0.375892
C45	C	1.187791	-0.000005	-0.369785
C46	C	1.200513	-0.000006	-0.260402
C47	C	1.301012	-0.000006	-0.208769
C48	C	1.313732	-0.000013	-0.099384
C49	C	1.125462	-0.000012	-0.093279
C50	C	1.112741	-0.000011	-0.202661
C51	C	1.262025	-0.000006	0.456051
C52	C	1.275569	-0.000003	0.572467
H53	H	0.760878	-0.000013	0.485268
O54	O	0.553523	0.000022	0.476089
C55	C	0.622557	0.000002	0.567514
H56	H	0.701430	0.023835	0.548989
H57	H	0.588827	0.036553	0.629682
H58	H	0.633237	-0.060398	0.597801
O59	O	1.377168	-0.336447	0.138877
C60	C	1.349905	-0.317117	0.033551
H61	H	1.309567	-0.259583	0.029659
H62	H	1.423505	-0.314407	-0.010183
H63	H	1.294601	-0.361728	-0.003992
H64	H	1.395564	-0.000015	-0.057346
O65	O	1.486349	0.000097	-0.216227
C66	C	1.499363	0.065309	-0.153147
H67	H	1.419542	0.087049	-0.134111
H68	H	1.548140	0.050642	-0.077521
H69	H	1.540929	0.110965	-0.196799
O70	O	1.377161	-0.663369	0.139042
C71	C	1.314771	-0.617522	0.068872
H72	H	1.236935	-0.605683	0.102369
H73	H	1.356837	-0.561780	0.056750
H74	H	1.300091	-0.648026	-0.009245
H75	H	1.367198	-0.813476	0.149106
H76	H	1.105969	0.000003	-0.411844
H77	H	1.447536	0.000006	-0.422901
O78	O	0.565230	0.000015	0.104902
C79	C	0.456305	-0.000011	0.112502
H80	H	0.438750	0.023828	0.191667
H81	H	0.416681	0.036532	0.047552
H82	H	0.425407	-0.060413	0.104433
O83	O	0.732475	0.000127	0.029797
C84	C	0.669378	0.065320	0.016832
H85	H	0.700618	0.110891	0.074095
H86	H	0.670840	0.087212	-0.066563
H87	H	0.585657	0.050577	0.032479
O88	O	0.948317	-0.000039	0.054959
C89	C	1.055933	-0.000016	0.087733
H90	H	1.068248	-0.023856	0.170364
H91	H	1.099451	-0.036560	0.032438
H92	H	1.087124	0.060386	0.086897
O93	O	1.376892	-0.180331	0.138666
C94	C	1.314186	-0.134691	0.068493
H95	H	1.236551	-0.122717	0.102316
H96	H	1.356180	-0.079004	0.055816
H97	H	1.299123	-0.165444	-0.009393
O98	O	1.124206	-0.336624	0.391648
C99	C	1.054083	-0.382469	0.329167
H100	H	1.087694	-0.394342	0.251395
H101	H	1.041846	-0.438194	0.371220
H102	H	0.976006	-0.351946	0.314363
O103	O	1.015175	0.000088	-0.252942
C104	C	1.002180	0.065302	-0.315997
H105	H	1.082006	0.087046	-0.335028
H106	H	0.953394	0.050636	-0.391626
H107	H	0.960631	0.110955	-0.272326
H108	H	1.134312	-0.186546	0.381708
O109	O	1.124261	-0.819802	0.391672
C110	C	1.054131	-0.865642	0.329190
H111	H	1.087740	-0.877516	0.251418
H112	H	1.041887	-0.921366	0.371242
H113	H	0.976058	-0.835113	0.314387
H114	H	0.928000	-0.000009	0.410218
O115	O	1.040113	0.000085	-0.037304
C116	C	0.979759	0.065295	-0.062140
H117	H	0.997295	0.087040	-0.142420
H118	H	0.893206	0.050626	-0.063097
H119	H	0.999970	0.110950	-0.000989
O120	O	1.124280	-0.663616	0.391910
C121	C	1.067642	-0.715586	0.448481
H122	H	1.110685	-0.772068	0.453931
H123	H	1.059923	-0.692683	0.530495
H124	H	0.986521	-0.724031	0.406764
