data_functionalizedCrystal
_audit_creation_method	'MofGen! by Chris Wilmer'
_symmetry_space_group_name_H-M	'P1'
_symmetry_Int_Tables_number	1
_symmetry_cell_setting	triclinic
loop_
_symmetry_equiv_pos_as_xyz
  x,y,z
_cell_length_a	29.019771
_cell_length_b	29.019011
_cell_length_c	29.015668
_cell_angle_alpha	60.004890
_cell_angle_beta	60.009825
_cell_angle_gamma	59.993818
loop_
_atom_site_label
_atom_site_type_symbol
_atom_site_fract_x
_atom_site_fract_y
_atom_site_fract_z
O1	O	0.063866	-0.673289	0.563007
O2	O	0.563866	-0.173289	1.063007
O3	O	0.024059	-0.524205	0.453633
O4	O	0.524059	-0.024205	0.953633
O5	O	0.118464	-0.618532	0.453552
O6	O	0.618464	-0.118532	0.953552
O7	O	-0.030540	-0.578962	0.563088
O8	O	0.469460	-0.078962	1.063088
O9	O	0.149785	-0.587215	0.484789
O10	O	0.649785	-0.087215	0.984789
O11	O	0.055379	-0.492888	0.484869
O12	O	0.555379	0.007112	0.984869
O13	O	0.095186	-0.641972	0.594244
O14	O	0.595186	-0.141972	1.094244
Cu15	Cu	0.078143	-0.564571	0.542409
Cu16	Cu	0.578143	-0.064571	1.042409
Cu17	Cu	0.041102	-0.601606	0.505468
Cu18	Cu	0.541102	-0.101606	1.005468
O19	O	0.000781	-0.547645	0.594325
O20	O	0.500781	-0.047645	1.094325
N21	N	0.104196	-0.538525	0.568394
N22	N	0.604196	-0.038525	1.068394
N23	N	0.015054	-0.627656	0.479483
N24	N	0.515054	-0.127656	0.979483
C25	C	0.143783	-0.499167	0.850823
C26	C	0.643783	0.000833	1.350823
C27	C	0.386758	-0.499111	0.607645
C28	C	0.886758	0.000889	1.107645
C29	C	0.143618	-0.499136	0.607763
C30	C	0.643618	0.000864	1.107763
C31	C	0.143598	-0.256029	0.607770
C32	C	0.643598	0.243971	1.107770
C33	C	0.182748	-0.373362	0.646852
C34	C	0.682748	0.126638	1.146852
C35	C	0.182758	-0.460025	0.646847
C36	C	0.682758	0.039975	1.146847
C37	C	0.204440	-0.438361	0.668500
C38	C	0.704440	0.061639	1.168500
C39	C	0.298958	-0.422064	0.618723
C40	C	0.798958	0.077936	1.118723
C41	C	0.358043	-0.441753	0.599006
C42	C	0.858043	0.058247	1.099006
C43	C	0.358069	-0.537354	0.635461
C44	C	0.858069	-0.037354	1.135461
C45	C	0.298985	-0.517664	0.655180
C46	C	0.798985	-0.017664	1.155180
C47	C	0.196983	-0.343808	0.588767
C48	C	0.696983	0.156192	1.088767
C49	C	0.177262	-0.284720	0.569090
C50	C	0.677262	0.215280	1.069090
C51	C	0.129075	-0.284743	0.665586
C52	C	0.629075	0.215257	1.165586
C53	C	0.148797	-0.343831	0.685263
C54	C	0.648797	0.156169	1.185263
C55	C	0.124666	-0.445760	0.661149
C56	C	0.624666	0.054240	1.161149
C57	C	0.104961	-0.465454	0.641458
C58	C	0.604961	0.034546	1.141458
C59	C	0.201435	-0.513678	0.593176
C60	C	0.701435	-0.013678	1.093176
C61	C	0.221143	-0.493984	0.612860
C62	C	0.721143	0.006016	1.112860
C63	C	0.124738	-0.445777	0.763064
C64	C	0.624738	0.054223	1.263064
C65	C	0.105085	-0.465488	0.822151
C66	C	0.605085	0.034512	1.322151
C67	C	0.201594	-0.513722	0.822097
C68	C	0.701594	-0.013722	1.322097
C69	C	0.221247	-0.494012	0.763009
C70	C	0.721247	0.005988	1.263009
C71	C	0.182817	-0.460038	0.733494
C72	C	0.682817	0.039962	1.233494
C73	C	0.269432	-0.460018	0.646809
C74	C	0.769432	0.039982	1.146809
C75	C	0.121399	-0.520450	0.915812
C76	C	0.621399	-0.020450	1.415812
C77	C	0.451745	-0.520012	0.585655
C78	C	0.951745	-0.020012	1.085655
C79	C	0.121177	-0.520429	0.586502
C80	C	0.621177	-0.020429	1.086502
C81	C	0.121544	-0.191035	0.586883
C82	C	0.621544	0.308965	1.086883
C83	C	-0.110592	-0.666601	0.440035
C84	C	0.389408	-0.166601	0.940035
C85	C	-0.023978	-0.666709	0.440231
C86	C	0.476022	-0.166709	0.940231
C87	C	-0.045598	-0.688342	0.418486
C88	C	0.454402	-0.188342	0.918486
C89	C	-0.061967	-0.782825	0.468184
C90	C	0.438033	-0.282825	0.968184
C91	C	-0.042323	-0.841914	0.487907
C92	C	0.457677	-0.341914	0.987907
C93	C	0.053280	-0.842025	0.451623
C94	C	0.553280	-0.342025	0.951623
C95	C	0.033634	-0.782937	0.431899
C96	C	0.533634	-0.282937	0.931899
C97	C	-0.140218	-0.680832	0.498102
C98	C	0.359782	-0.180832	0.998102
C99	C	-0.199302	-0.661065	0.517690
C100	C	0.300698	-0.161065	1.017690
C101	C	-0.199129	-0.612843	0.421140
C102	C	0.300871	-0.112843	0.921140
C103	C	-0.140045	-0.632610	0.401552
C104	C	0.359955	-0.132610	0.901552
C105	C	-0.038209	-0.608622	0.425941
C106	C	0.461791	-0.108622	0.925941
C107	C	-0.018555	-0.588961	0.445716
C108	C	0.481445	-0.088961	0.945716
C109	C	0.029562	-0.685470	0.494059
C110	C	0.529562	-0.185470	0.994059
C111	C	0.009908	-0.705133	0.474291
C112	C	0.509908	-0.205133	0.974291
C113	C	-0.038037	-0.608631	0.323917
C114	C	0.461963	-0.108631	0.823917
C115	C	-0.018247	-0.588973	0.264830
C116	C	0.481753	-0.088973	0.764830
C117	C	0.029955	-0.685489	0.264893
C118	C	0.529955	-0.185489	0.764893
C119	C	0.010165	-0.705145	0.323981
C120	C	0.510165	-0.205145	0.823981
C121	C	-0.023833	-0.666715	0.353492
C122	C	0.476167	-0.166715	0.853492
C123	C	-0.023990	-0.753339	0.440182
C124	C	0.476010	-0.253339	0.940182
N125	N	0.504925	-0.538487	0.568205
N126	N	1.004925	-0.038487	1.068205
O127	O	0.685342	-0.543679	0.433426
O128	O	1.185342	-0.043679	0.933426
O129	O	0.685533	-0.653395	0.582361
O130	O	1.185533	-0.153395	1.082361
O131	O	0.685457	-0.653145	0.487904
O132	O	1.185457	-0.153145	0.987904
O133	O	0.685418	-0.543929	0.527882
O134	O	1.185418	-0.043929	1.027882
O135	O	0.591592	-0.621921	0.519268
O136	O	1.091592	-0.121921	1.019268
O137	O	0.591667	-0.622171	0.613725
O138	O	1.091667	-0.122171	1.113725
O139	O	0.591477	-0.512455	0.464790
O140	O	1.091477	-0.012455	0.964790
Cu141	Cu	0.583001	-0.564462	0.542121
Cu142	Cu	1.083001	-0.064462	1.042121
Cu143	Cu	0.694008	-0.601388	0.505029
Cu144	Cu	1.194008	-0.101388	1.005029
O145	O	0.591553	-0.512705	0.559246
O146	O	1.091553	-0.012705	1.059246
N147	N	0.772084	-0.627363	0.478939
N148	N	1.272084	-0.127363	0.978939
N149	N	0.104168	-0.137853	0.568408
N150	N	0.604168	0.362147	1.068408
O151	O	-0.030538	0.042663	0.563097
O152	O	0.469462	0.542663	1.063097
O153	O	0.118403	0.042683	0.453379
O154	O	0.618403	0.542683	0.953379
O155	O	0.023918	0.042657	0.453664
O156	O	0.523918	0.542657	0.953664
O157	O	0.063947	0.042689	0.562813
O158	O	0.563947	0.542689	1.062813
O159	O	0.055242	-0.051215	0.484950
O160	O	0.555242	0.448785	0.984950
O161	O	0.149727	-0.051189	0.484666
O162	O	0.649727	0.448811	0.984666
O163	O	0.000787	-0.051210	0.594384
O164	O	0.500787	0.448790	1.094384
Cu165	Cu	0.078117	-0.059771	0.542381
Cu166	Cu	0.578117	0.440229	1.042381
Cu167	Cu	0.041072	0.051244	0.505382
Cu168	Cu	0.541072	0.551244	1.005382
O169	O	0.095272	-0.051184	0.594099
O170	O	0.595272	0.448816	1.094099
N171	N	0.015015	0.129326	0.479356
N172	N	0.515015	0.629326	0.979356
N173	N	0.104469	-0.538576	0.968995
N174	N	0.604469	-0.038576	1.468995
O175	O	0.099171	-0.673268	1.149499
O176	O	0.599171	-0.173268	1.649499
O177	O	-0.010519	-0.524279	1.149527
O178	O	0.489481	-0.024279	1.649527
O179	O	-0.010265	-0.618748	1.149494
O180	O	0.489735	-0.118748	1.649494
O181	O	0.098916	-0.578799	1.149533
O182	O	0.598916	-0.078799	1.649533
O183	O	0.021008	-0.587443	1.055625
O184	O	0.521008	-0.087443	1.555625
O185	O	0.020753	-0.492974	1.055659
O186	O	0.520753	0.007026	1.555659
O187	O	0.130444	-0.641963	1.055630
O188	O	0.630444	-0.141963	1.555630
Cu189	Cu	0.078454	-0.564610	1.047074
Cu190	Cu	0.578454	-0.064610	1.547074
Cu191	Cu	0.041470	-0.601632	1.158084
Cu192	Cu	0.541470	-0.101632	1.658084
O193	O	0.130189	-0.547494	1.055664
O194	O	0.630189	-0.047494	1.555664
N195	N	0.015455	-0.627672	1.236163
N196	N	0.515455	-0.127672	1.736163
C197	C	0.035988	-0.489761	0.454182
C198	C	0.535988	0.010239	0.954182
C199	C	0.152897	-0.606574	0.454082
C200	C	0.652897	-0.106574	0.954082
C201	C	0.083257	-0.676417	0.593694
C202	C	0.583257	-0.176417	1.093694
C203	C	-0.033653	-0.559604	0.593794
C204	C	0.466347	-0.059604	1.093794
C205	C	0.638623	-0.652892	0.616806
C206	C	1.138623	-0.152892	1.116806
C207	C	0.638531	-0.652583	0.499833
C208	C	1.138531	-0.152583	0.999833
C209	C	0.638384	-0.512957	0.430345
C210	C	1.138384	-0.012957	0.930345
C211	C	0.638480	-0.513267	0.547317
C212	C	1.138480	-0.013267	1.047317
C213	C	0.152789	-0.004135	0.453875
C214	C	0.652789	0.495865	0.953875
C215	C	0.035820	-0.004282	0.454266
C216	C	0.535820	0.495718	0.954266
C217	C	-0.033639	-0.004275	0.593849
C218	C	0.466361	0.495725	1.093849
C219	C	0.083370	-0.004245	0.593498
C220	C	0.583370	0.495755	1.093498
C221	C	-0.009989	-0.489856	1.102597
C222	C	0.490011	0.010144	1.602597
C223	C	-0.009667	-0.606839	1.102536
C224	C	0.490333	-0.106839	1.602536
C225	C	0.129914	-0.676386	1.102561
C226	C	0.629914	-0.176386	1.602561
C227	C	0.129599	-0.559396	1.102601
C228	C	0.629599	-0.059396	1.602601
H229	H	0.093440	-0.418108	0.739036
H230	H	0.593440	0.081892	1.239036
O231	O	0.638687	-0.698520	0.673466
O232	O	1.138687	-0.198520	1.173466
H233	H	0.676960	-0.708850	0.681452
H234	H	1.176960	-0.208850	1.181452
O235	O	0.175528	-0.733067	1.102554
O236	O	0.675528	-0.233067	1.602554
H237	H	0.212981	-0.727258	1.064297
H238	H	0.712981	-0.227258	1.564297
H239	H	-0.043953	-0.615372	1.102487
H240	H	0.456047	-0.115372	1.602487
H241	H	0.163899	-0.550848	1.102605
H242	H	0.663899	-0.050848	1.602605
H243	H	-0.029822	-0.541673	0.240758
H244	H	0.470178	-0.041673	0.740758
H245	H	0.091941	-0.004235	0.627787
H246	H	0.591941	0.495765	1.127787
O247	O	-0.090341	-0.548440	0.639360
O248	O	0.409659	-0.048440	1.139360
H249	H	-0.084539	-0.553412	0.676813
H250	H	0.415461	-0.053412	1.176813
H251	H	0.027247	-0.004286	0.419974
H252	H	0.527247	0.495714	0.919974
H253	H	-0.044426	-0.447066	1.102605
H254	H	0.455574	0.052934	1.602605
O255	O	0.638478	-0.467824	0.558641
O256	O	1.138478	0.032176	1.058641
H257	H	0.638432	-0.429455	0.520516
H258	H	1.138432	0.070545	1.020516
H259	H	0.057789	-0.453866	0.846219
H260	H	0.557789	0.046134	1.346219
O261	O	0.209365	-0.003882	0.408166
O262	O	0.709365	0.496118	0.908166
H263	H	0.209359	-0.003845	0.369898
H264	H	0.709359	0.496155	0.869898
H265	H	-0.076413	-0.004282	0.628294
H266	H	0.423587	0.495718	1.128294
O267	O	0.243043	-0.550405	0.853929
O268	O	0.743043	-0.050405	1.353929
H269	H	0.286730	-0.557027	0.823438
H270	H	0.786730	-0.057027	1.323438
O271	O	0.283893	-0.509393	0.731114
O272	O	0.783893	-0.009393	1.231114
H273	H	0.307311	-0.536321	0.761567
H274	H	0.807311	-0.036321	1.261567
O275	O	-0.124119	-0.750905	0.477119
O276	O	0.375881	-0.250905	0.977119
H277	H	-0.140302	-0.723979	0.502422
H278	H	0.359698	-0.223979	1.002422
O279	O	0.083268	-0.409142	0.697813
O280	O	0.583268	0.090858	1.197813
H281	H	0.039563	-0.402530	0.704446
H282	H	0.539563	0.097470	1.204446
O283	O	0.024727	-0.433032	0.408679
O284	O	0.524727	0.066968	0.908679
H285	H	0.062883	-0.432885	0.370345
H286	H	0.562883	0.067115	0.870345
O287	O	0.042305	-0.450077	0.656883
O288	O	0.542305	0.049923	1.156883
H289	H	0.018923	-0.423162	0.683830
H290	H	0.518923	0.076838	1.183830
O291	O	0.209585	-0.617736	0.408515
O292	O	0.709585	-0.117736	0.908515
H293	H	0.237229	-0.661388	0.424541
H294	H	0.737229	-0.161388	0.924541
O295	O	0.094519	-0.733142	0.639200
O296	O	0.594519	-0.233142	1.139200
H297	H	0.064051	-0.752913	0.651203
H298	H	0.564051	-0.252913	1.151203
O299	O	0.638553	-0.698037	0.488509
O300	O	1.138553	-0.198037	0.988509
H301	H	0.600273	-0.682795	0.478082
H302	H	1.100273	-0.182795	0.978082
O303	O	0.242835	-0.550305	0.556522
O304	O	0.742835	-0.050305	1.056522
H305	H	0.286540	-0.556911	0.549885
H306	H	0.786540	-0.056911	1.049885
O307	O	0.638317	-0.467328	0.373687
O308	O	1.138317	0.032672	0.873687
H309	H	0.638312	-0.483291	0.346004
H310	H	1.138312	0.016709	0.846004
H311	H	0.274946	-0.548573	0.678050
H312	H	0.774946	-0.048573	1.178050
O313	O	0.283799	-0.509368	0.597442
O314	O	0.783799	-0.009368	1.097442
H315	H	0.307181	-0.536294	0.570506
H316	H	0.807181	-0.036294	1.070506
H317	H	0.382132	-0.584293	0.642268
H318	H	0.882132	-0.084293	1.142268
H319	H	0.274901	-0.375125	0.611905
H320	H	0.774901	0.124875	1.111905
O321	O	0.389894	-0.400819	0.568713
O322	O	0.889894	0.099181	1.068713
H323	H	0.359417	-0.357426	0.566201
H324	H	0.859417	0.142574	1.066201
H325	H	0.188851	-0.260656	0.521790
H326	H	0.688851	0.239344	1.021790
O327	O	0.233599	-0.375664	0.547343
O328	O	0.733599	0.124336	1.047343
H329	H	0.240175	-0.345184	0.503646
H330	H	0.740175	0.154816	1.003646
H331	H	-0.115923	-0.621016	0.354266
H332	H	0.384077	-0.121016	0.854266
O333	O	0.092457	-0.252885	0.707010
O334	O	0.592457	0.247115	1.207010
H335	H	0.085875	-0.283363	0.750708
H336	H	0.585875	0.216637	1.250708
H337	H	-0.065723	-0.577332	0.347941
H338	H	0.434277	-0.077332	0.847941
O339	O	0.133416	-0.375701	0.747918
O340	O	0.633416	0.124299	1.247918
H341	H	0.149309	-0.364370	0.767282
H342	H	0.649309	0.135630	1.267282
O343	O	0.066619	-0.726937	0.233066
O344	O	0.566619	-0.226937	0.733066
H345	H	0.073173	-0.770629	0.263561
H346	H	0.573173	-0.270629	0.763561
H347	H	-0.065797	-0.577331	0.398207
H348	H	0.434203	-0.077331	0.898207
O349	O	0.025487	-0.767797	0.355881
O350	O	0.525487	-0.267797	0.855881
H351	H	0.052446	-0.791214	0.325432
H352	H	0.552446	-0.291214	0.825432
H353	H	0.057158	-0.716762	0.521784
H354	H	0.557158	-0.216762	1.021784
O355	O	-0.033802	-0.526319	0.430264
O356	O	0.466198	-0.026319	0.930264
H357	H	-0.017781	-0.507050	0.383678
H358	H	0.482219	-0.007050	0.883678
O359	O	0.025261	-0.767784	0.489687
O360	O	0.525261	-0.267784	0.989687
H361	H	0.009302	-0.787121	0.536268
H362	H	0.509302	-0.287121	1.036268
O363	O	0.074595	-0.751131	0.401701
O364	O	0.574595	-0.251131	0.901701
H365	H	0.117964	-0.781641	0.399265
H366	H	0.617964	-0.281641	0.899265
H367	H	-0.073247	-0.865920	0.510699
H368	H	0.426753	-0.365920	1.010699
O369	O	0.115432	-0.873958	0.442699
O370	O	0.615432	-0.373958	0.942699
H371	H	0.139530	-0.862658	0.396798
H372	H	0.639530	-0.362658	0.896798
O373	O	-0.108446	-0.717490	0.539604
O374	O	0.391554	-0.217490	1.039604
H375	H	-0.138975	-0.724055	0.583274
H376	H	0.361025	-0.224055	1.083274
H377	H	-0.223112	-0.585171	0.389803
H378	H	0.276888	-0.085171	0.889803
O379	O	-0.231263	-0.676412	0.580324
O380	O	0.268737	-0.176412	1.080324
H381	H	-0.200855	-0.703374	0.603792
H382	H	0.299145	-0.203374	1.103792
