data_functionalizedCrystal
_audit_creation_method	'MofGen! by Chris Wilmer'
_symmetry_space_group_name_H-M	'P1'
_symmetry_Int_Tables_number	1
_symmetry_cell_setting	triclinic
loop_
_symmetry_equiv_pos_as_xyz
  x,y,z
_cell_length_a	10.489746
_cell_length_b	10.489741
_cell_length_c	14.586319
_cell_angle_alpha	89.996488
_cell_angle_beta	89.999417
_cell_angle_gamma	84.540238
loop_
_atom_site_label
_atom_site_type_symbol
_atom_site_fract_x
_atom_site_fract_y
_atom_site_fract_z
O1	O	1.694048	0.179998	-0.076178
O2	O	1.322853	0.196884	-0.076193
O3	O	1.516897	0.002843	-0.076180
O4	O	1.500004	0.374039	-0.076192
O5	O	1.516884	0.002840	0.076301
O6	O	1.322840	0.196881	0.076287
O7	O	1.694035	0.179995	0.076303
Cu8	Cu	1.508436	0.188438	0.090218
Cu9	Cu	1.508452	0.188441	-0.090109
O10	O	1.499991	0.374036	0.076289
C11	C	1.275315	0.195606	0.000045
C12	C	1.133686	0.191786	0.000039
C13	C	0.980828	0.066062	0.000056
C14	C	1.058215	0.128917	0.075233
C15	C	1.058184	0.128950	-0.075102
C16	C	0.958724	0.247899	0.075300
C17	C	0.958687	0.247914	-0.075101
C18	C	1.036025	0.310856	0.000094
C19	C	1.515614	-0.044690	0.000060
C20	C	1.511797	-0.186320	0.000058
C21	C	1.388333	-0.254462	0.000046
C22	C	1.446650	-0.346585	0.075230
C23	C	1.446692	-0.346557	-0.075105
C24	C	1.570165	-0.276577	0.075303
C25	C	1.570190	-0.276539	-0.075098
C26	C	1.628597	-0.368635	0.000103
C27	C	1.741573	0.181273	0.000062
C28	C	1.883202	0.185093	0.000062
C29	C	1.501273	0.421569	0.000047
C30	C	1.505091	0.563198	0.000043
N31	N	1.508434	0.188434	0.217049
N32	N	1.508464	0.188434	-0.216940
C33	C	1.594385	0.102542	0.452062
C34	C	1.594389	0.102539	0.548043
C35	C	1.422503	0.274330	0.548041
C36	C	1.422494	0.274326	0.452061
C37	C	1.508443	0.188434	0.404074
C38	C	1.508455	0.188435	0.596035
C39	C	1.508459	0.188432	0.700102
C40	C	1.508438	0.188435	0.300000
H41	H	1.101686	0.078668	0.138794
O42	O	1.253883	-0.188665	0.000142
H43	H	1.202186	-0.217882	-0.061647
H44	H	1.101633	0.078680	-0.138659
O45	O	1.377452	-0.387676	0.159420
H46	H	1.427805	-0.358275	0.221760
H47	H	1.664370	0.032598	0.587112
O48	O	1.763172	-0.434122	0.000158
H49	H	1.814091	-0.406091	0.062628
H50	H	1.622354	-0.245745	0.138936
H51	H	1.622392	-0.245492	-0.138660
H52	H	0.915438	0.298112	0.138930
O53	O	1.377489	-0.387595	-0.159303
H54	H	1.277786	-0.341429	-0.159142
H55	H	1.352528	0.344264	0.587121
O56	O	1.687067	0.009893	0.400300
H57	H	1.746818	-0.049843	0.449798
H58	H	1.352503	0.344270	0.412987
H59	H	0.956107	-0.037439	0.000135
H60	H	1.060501	0.414436	0.000132
O61	O	0.901040	0.314408	-0.159292
H62	H	0.941048	0.264774	-0.221612
