data_functionalizedCrystal
_audit_creation_method	'MofGen! by Chris Wilmer'
_symmetry_space_group_name_H-M	'P1'
_symmetry_Int_Tables_number	1
_symmetry_cell_setting	triclinic
loop_
_symmetry_equiv_pos_as_xyz
  x,y,z
_cell_length_a	10.654550
_cell_length_b	12.837942
_cell_length_c	9.730223
_cell_angle_alpha	89.998888
_cell_angle_beta	89.996251
_cell_angle_gamma	89.656921
loop_
_atom_site_label
_atom_site_type_symbol
_atom_site_fract_x
_atom_site_fract_y
_atom_site_fract_z
O1	O	1.683735	0.145718	-0.114403
O2	O	1.319772	0.159602	-0.114381
O3	O	1.493683	0.001699	-0.114383
O4	O	1.509824	0.303621	-0.114401
O5	O	1.493681	0.001703	0.114196
O6	O	1.319770	0.159606	0.114199
O7	O	1.683734	0.145722	0.114177
Zn8	Zn	1.501752	0.152665	0.150480
Zn9	Zn	1.501754	0.152659	-0.150684
O10	O	1.509822	0.303625	0.114179
C11	C	1.272862	0.158585	-0.000089
C12	C	1.133086	0.155535	-0.000080
C13	C	1.063745	0.248505	-0.000105
C14	C	0.932411	0.245633	-0.000129
C15	C	0.939770	0.056812	-0.000107
C16	C	1.071101	0.059685	-0.000074
C17	C	1.059496	0.357520	-0.000124
C18	C	0.928162	0.354648	-0.000148
C19	C	1.488230	-0.036959	-0.000094
C20	C	1.471967	-0.152153	-0.000095
C21	C	1.667472	-0.391705	-0.000136
C22	C	1.652197	-0.499941	-0.000137
C23	C	1.426146	-0.476862	-0.000109
C24	C	1.441420	-0.368626	-0.000108
C25	C	1.562087	-0.326052	-0.000119
C26	C	1.577360	-0.217814	-0.000108
C27	C	1.351309	-0.194737	-0.000090
C28	C	1.336035	-0.302973	-0.000091
C29	C	1.730644	0.146740	-0.000119
C30	C	1.870420	0.149790	-0.000137
C31	C	1.515276	0.342283	-0.000114
C32	C	1.531538	0.457477	-0.000122
N33	N	1.501759	0.152668	0.356016
N34	N	1.501755	0.152648	-0.356221
C35	C	1.578792	0.082772	0.427941
C36	C	1.578787	0.082760	0.571824
C37	C	1.424714	0.222547	0.571844
C38	C	1.424713	0.222554	0.427964
C39	C	1.667748	0.002070	0.427931
C40	C	1.667744	0.002058	0.571814
H41	H	1.127554	-0.016021	-0.000033
H42	H	1.098940	0.392230	-0.098814
C43	C	1.272409	0.360712	0.557411
C44	C	1.340027	0.299363	0.650932
H45	H	1.220120	0.408130	0.606238
H46	H	1.329190	0.398443	0.501301
H47	H	1.222043	0.317166	0.501284
H48	H	1.390400	0.342908	0.707053
H49	H	1.283238	0.261629	0.707066
H50	H	1.637603	-0.077675	0.388883
C51	C	1.228758	-0.490525	0.117391
C52	C	1.293513	-0.523663	-0.000115
H53	H	1.146872	-0.519413	0.117377
H54	H	1.272686	-0.513020	0.197084
H55	H	1.222782	-0.416667	0.117390
H56	H	1.299496	-0.597522	-0.000108
H57	H	1.249574	-0.501174	-0.079828
H58	H	1.361976	0.279459	0.369403
C59	C	1.844193	-0.057351	0.704466
C60	C	1.800642	0.026052	0.624540
H61	H	1.926238	-0.042538	0.737010
H62	H	1.789497	-0.067230	0.780381
H63	H	1.846401	-0.118846	0.650201
H64	H	1.798426	0.087546	0.678808
H65	H	1.855352	0.035944	0.548614
C66	C	1.237324	-0.059629	-0.117579
C67	C	1.235455	-0.122572	-0.000078
H68	H	1.165797	-0.015084	-0.117570
H69	H	1.311358	-0.018781	-0.117574
H70	H	1.236064	-0.102340	-0.197284
H71	H	1.236725	-0.079861	0.079627
H72	H	1.161402	-0.163424	-0.000071
H73	H	0.886085	0.387595	0.098535
H74	H	0.890912	0.395721	-0.095818
H75	H	1.629007	-0.073301	0.616436
H76	H	1.675613	-0.183153	-0.000112
H77	H	1.765723	-0.357041	-0.000131
H78	H	1.738013	-0.553393	-0.000155
C79	C	1.821774	0.137296	0.412182
C80	C	1.794569	0.036192	0.367695
H81	H	1.900073	0.158363	0.375008
H82	H	1.757658	0.183657	0.382026
H83	H	1.826062	0.138429	0.509685
H84	H	1.790272	0.035060	0.270192
H85	H	1.858702	-0.010182	0.397843
C86	C	1.138653	-0.316628	-0.117575
C87	C	1.203405	-0.349780	-0.000081
H88	H	1.056775	-0.345530	-0.117569
H89	H	1.132666	-0.242780	-0.117557
H90	H	1.182599	-0.339108	-0.197285
H91	H	1.159464	-0.327293	0.079628
H92	H	1.209387	-0.423644	-0.000087
H93	H	1.093479	0.400157	0.095539
C94	C	0.741713	-0.031434	-0.000148
C95	C	0.871631	-0.048542	-0.000115
H96	H	0.699653	-0.096478	-0.000163
H97	H	0.718667	0.006880	0.079551
H98	H	0.718711	0.006886	-0.079872
H99	H	0.894635	-0.086856	0.079615
H100	H	0.894687	-0.086873	-0.079822
