data_functionalizedCrystal
_audit_creation_method	'MofGen! by Chris Wilmer'
_symmetry_space_group_name_H-M	'P1'
_symmetry_Int_Tables_number	1
_symmetry_cell_setting	triclinic
loop_
_symmetry_equiv_pos_as_xyz
  x,y,z
_cell_length_a	17.077402
_cell_length_b	21.295418
_cell_length_c	17.077396
_cell_angle_alpha	90.040468
_cell_angle_beta	89.969358
_cell_angle_gamma	89.956563
loop_
_atom_site_label
_atom_site_type_symbol
_atom_site_fract_x
_atom_site_fract_y
_atom_site_fract_z
Zn1	Zn	-0.312114	-0.962333	-0.444330
Zn2	Zn	0.021219	-0.629000	-0.110997
Zn3	Zn	0.354553	-0.295666	0.222337
Zn4	Zn	-0.443393	-0.962259	-0.313063
Zn5	Zn	-0.110059	-0.628925	0.020271
Zn6	Zn	0.223274	-0.295592	0.353604
Zn7	Zn	-0.312187	-0.857070	-0.313024
Zn8	Zn	0.021147	-0.523736	0.020309
Zn9	Zn	0.354480	-0.190403	0.353642
Zn10	Zn	-0.443384	-0.857035	-0.444233
Zn11	Zn	-0.110050	-0.523702	-0.110899
Zn12	Zn	0.223283	-0.190369	0.222434
O13	O	-0.377769	-0.909674	-0.378663
O14	O	-0.044436	-0.576341	-0.045329
O15	O	0.288897	-0.243008	0.288004
O16	O	-0.329502	-1.050413	-0.426974
O17	O	0.003831	-0.717079	-0.093641
O18	O	0.337165	-0.383746	0.239693
O19	O	-0.426022	-0.948289	-0.203211
O20	O	-0.092689	-0.614955	0.130123
O21	O	0.240645	-0.281622	0.463456
O22	O	-0.202330	-0.871079	-0.330467
O23	O	0.131003	-0.537745	0.002866
O24	O	0.464337	-0.204412	0.336200
O25	O	-0.425952	-1.050358	-0.330533
O26	O	-0.092618	-0.717025	0.002801
O27	O	0.240715	-0.383691	0.336134
O28	O	-0.202277	-0.948415	-0.426937
O29	O	0.131057	-0.615082	-0.093604
O30	O	0.464390	-0.281749	0.239730
O31	O	-0.329625	-0.871007	-0.203183
O32	O	0.003708	-0.537673	0.130151
O33	O	0.337041	-0.204340	0.463484
O34	O	-0.329617	-0.768976	-0.330373
O35	O	0.003717	-0.435642	0.002961
O36	O	0.337050	-0.102309	0.336294
O37	O	-0.425936	-0.871020	-0.554093
O38	O	-0.092603	-0.537687	-0.220759
O39	O	0.240730	-0.204353	0.112574
O40	O	-0.426007	-0.768950	-0.426771
O41	O	-0.092673	-0.435617	-0.093438
O42	O	0.240660	-0.102284	0.239896
O43	O	-0.329493	-0.948382	-0.554164
O44	O	0.003840	-0.615048	-0.220831
O45	O	0.337173	-0.281715	0.112502
O46	O	-0.553238	-0.948255	-0.330438
O47	O	-0.219905	-0.614922	0.002895
O48	O	0.113428	-0.281588	0.336229
O49	O	-0.553232	-0.870948	-0.426808
O50	O	-0.219898	-0.537615	-0.093475
O51	O	0.113435	-0.204281	0.239859
C52	C	-0.581717	-0.909607	-0.378634
C53	C	-0.248384	-0.576273	-0.045301
C54	C	0.084950	-0.242940	0.288033
C55	C	-0.668967	-0.909636	-0.378648
C56	C	-0.335634	-0.576302	-0.045314
C57	C	-0.002300	-0.242969	0.288019
C58	C	-0.377819	-0.746123	-0.378558
C59	C	-0.044486	-0.412789	-0.045224
C60	C	0.288848	-0.079456	0.288109
C61	C	-0.377859	-0.676154	-0.378531
C62	C	-0.044526	-0.342821	-0.045198
C63	C	0.288807	-0.009488	0.288135
C64	C	-1.044690	-0.950012	-0.428986
C65	C	-0.711357	-0.616679	-0.095653
C66	C	-0.378023	-0.283346	0.237681
C67	C	-0.962709	-0.949984	-0.428967
C68	C	-0.629376	-0.616651	-0.095634
C69	C	-0.296043	-0.283317	0.237699
C70	C	-0.921816	-0.909735	-0.378694
C71	C	-0.588482	-0.576402	-0.045361
C72	C	-0.255149	-0.243068	0.287972
C73	C	-0.962907	-0.869516	-0.328431
C74	C	-0.629573	-0.536183	0.004902
C75	C	-0.296240	-0.202849	0.338236
C76	C	-1.044886	-0.869548	-0.328446
C77	C	-0.711552	-0.536215	0.004887
C78	C	-0.378219	-0.202881	0.338220
C79	C	-0.792037	-0.869451	-0.328404
C80	C	-0.458703	-0.536118	0.004929
C81	C	-0.125370	-0.202785	0.338262
C82	C	-0.710052	-0.869418	-0.328390
C83	C	-0.376719	-0.536085	0.004943
C84	C	-0.043385	-0.202752	0.338277
C85	C	-0.709861	-0.949887	-0.428926
C86	C	-0.376527	-0.616554	-0.095592
C87	C	-0.043194	-0.283221	0.237741
C88	C	-0.791839	-0.949919	-0.428941
C89	C	-0.458506	-0.616586	-0.095607
C90	C	-0.125173	-0.283253	0.237726
C91	C	-0.832925	-0.909699	-0.378678
C92	C	-0.499591	-0.576366	-0.045345
C93	C	-0.166258	-0.243033	0.287988
C94	C	-0.428118	-0.643291	-0.428648
C95	C	-0.094784	-0.309958	-0.095314
C96	C	0.238549	0.023376	0.238019
C97	C	-0.428102	-0.577549	-0.428677
C98	C	-0.094768	-0.244215	-0.095344
C99	C	0.238565	0.089118	0.237990
C100	C	-0.377836	-0.544672	-0.378576
C101	C	-0.044502	-0.211339	-0.045243
C102	C	0.288831	0.121995	0.288091
C103	C	-0.327568	-0.577543	-0.328456
C104	C	0.005766	-0.244210	0.004878
C105	C	0.339099	0.089123	0.338211
C106	C	-0.327579	-0.643284	-0.328433
C107	C	0.005754	-0.309951	0.004900
C108	C	0.339087	0.023382	0.338233
N109	N	-0.371713	-0.441403	-0.309910
N110	N	-0.038379	-0.108069	0.023424
N111	N	0.294954	0.225264	0.356757
N112	N	-0.371706	-0.378951	-0.309933
N113	N	-0.038373	-0.045618	0.023400
N114	N	0.294960	0.287716	0.356734
C115	C	-0.377796	-0.346597	-0.378641
C116	C	-0.044463	-0.013264	-0.045308
C117	C	0.288871	0.320069	0.288025
N118	N	-0.383908	-0.379054	-0.447327
N119	N	-0.050575	-0.045721	-0.113993
N120	N	0.282759	0.287613	0.219340
N121	N	-0.383919	-0.441511	-0.447302
N122	N	-0.050585	-0.108178	-0.113969
N123	N	0.282748	0.225155	0.219364
C124	C	-0.377817	-0.473387	-0.378595
C125	C	-0.044484	-0.140053	-0.045262
C126	C	0.288850	0.193280	0.288072
C127	C	-0.428040	-0.242448	-0.428794
C128	C	-0.094706	0.090885	-0.095461
C129	C	0.238627	0.424218	0.237873
C130	C	-0.428018	-0.176705	-0.428825
C131	C	-0.094685	0.156629	-0.095491
C132	C	0.238648	0.489962	0.237842
C133	C	-0.327488	-0.176701	-0.328596
C134	C	0.005845	0.156633	0.004737
C135	C	0.339178	0.489966	0.338070
C136	C	-0.327506	-0.242443	-0.328573
C137	C	0.005828	0.090890	0.004761
C138	C	0.339161	0.424224	0.338094
C139	C	-0.377786	-0.275313	-0.378670
C140	C	-0.044452	0.058020	-0.045337
C141	C	0.288881	0.391354	0.287996
C142	C	-0.173025	-0.909759	-0.378709
C143	C	0.160308	-0.576426	-0.045375
C144	C	0.493642	-0.243092	0.287958
C145	C	-0.085775	-0.909795	-0.378728
C146	C	0.247558	-0.576462	-0.045395
C147	C	0.580892	-0.243129	0.287939
C148	C	-0.377706	-0.909705	-0.583407
C149	C	-0.044372	-0.576372	-0.250074
C150	C	0.288961	-0.243039	0.083260
C151	C	-0.377679	-0.909719	-0.670657
C152	C	-0.044345	-0.576385	-0.337323
C153	C	0.288988	-0.243052	-0.003990
C154	C	-0.377733	-0.073865	-0.378746
C155	C	-0.044400	0.259469	-0.045413
C156	C	0.288934	0.592802	0.287921
C157	C	-0.377751	-0.143833	-0.378724
C158	C	-0.044418	0.189501	-0.045391
C159	C	0.288916	0.522834	0.287943
C160	C	-0.427781	-0.950016	-1.046489
C161	C	-0.094447	-0.616683	-0.713155
C162	C	0.238886	-0.283350	-0.379822
C163	C	-0.427804	-0.950001	-0.964508
C164	C	-0.094470	-0.616667	-0.631175
C165	C	0.238863	-0.283334	-0.297841
C166	C	-0.377623	-0.909759	-0.923506
C167	C	-0.044290	-0.576426	-0.590173
C168	C	0.289044	-0.243092	-0.256839
C169	C	-0.327422	-0.869526	-0.964489
C170	C	0.005911	-0.536193	-0.631155
C171	C	0.339245	-0.202860	-0.297822
C172	C	-0.327404	-0.869540	-1.046468
C173	C	0.005930	-0.536206	-0.713134
C174	C	0.339263	-0.202873	-0.379801
C175	C	-0.327462	-0.869503	-0.793618
C176	C	0.005871	-0.536170	-0.460285
C177	C	0.339204	-0.202836	-0.126952
C178	C	-0.327480	-0.869490	-0.711634
C179	C	0.005854	-0.536157	-0.378300
C180	C	0.339187	-0.202824	-0.044967
C181	C	-0.427863	-0.949964	-0.711659
C182	C	-0.094529	-0.616630	-0.378325
C183	C	0.238804	-0.283297	-0.044992
C184	C	-0.427844	-0.949977	-0.793638
C185	C	-0.094511	-0.616644	-0.460305
C186	C	0.238822	-0.283310	-0.126971
C187	C	-0.377642	-0.909745	-0.834615
C188	C	-0.044308	-0.576412	-0.501281
C189	C	0.289025	-0.243078	-0.167948
C190	C	-0.377776	-0.909679	-0.174715
C191	C	-0.044443	-0.576346	0.158619
C192	C	0.288891	-0.243013	0.491952
C193	C	-0.377582	-0.909788	-0.087465
C194	C	-0.044248	-0.576455	0.245868
C195	C	0.289085	-0.243122	0.579201
H196	H	-1.077980	-0.982782	-0.469932
H197	H	-0.744646	-0.649448	-0.136599
H198	H	-0.411313	-0.316115	0.196735
H199	H	-0.286584	-0.269201	-0.287758
H200	H	0.046750	0.064133	0.045575
H201	H	0.380083	0.397466	0.378908
F202	F	-0.481628	-0.678270	-0.481969
F203	F	-0.148295	-0.344937	-0.148636
F204	F	0.185039	-0.011603	0.184698
F205	F	-0.835761	-0.826647	-0.274906
F206	F	-0.502427	-0.493314	0.058428
F207	F	-0.169094	-0.159980	0.391761
H208	H	-0.286568	-0.836758	-0.931098
H209	H	0.046766	-0.503425	-0.597765
H210	H	0.380099	-0.170092	-0.264431
H211	H	-0.468739	-0.982722	-0.678291
H212	H	-0.135406	-0.649389	-0.344958
H213	H	0.197928	-0.316056	-0.011625
F214	F	-0.666531	-0.826589	-0.274874
F215	F	-0.333198	-0.493255	0.058459
F216	F	0.000135	-0.159922	0.391792
H217	H	-0.929606	-0.836747	-0.287494
H218	H	-0.596273	-0.503413	0.045840
H219	H	-0.262940	-0.170080	0.379173
H220	H	-0.286557	-0.149933	-0.287807
H221	H	0.046776	0.183400	0.045527
H222	H	0.380110	0.516734	0.378860
F223	F	-0.273972	-0.826726	-1.090078
F224	F	0.059362	-0.493392	-0.756744
F225	F	0.392695	-0.160059	-0.423411
H226	H	-1.078336	-0.836799	-0.287521
H227	H	-0.745003	-0.503466	0.045812
H228	H	-0.411669	-0.170133	0.379146
F229	F	-0.274068	-0.542553	-0.275138
F230	F	0.059266	-0.209219	0.058196
F231	F	0.392599	0.124114	0.391529
H232	H	-0.286650	-0.670041	-0.287622
H233	H	0.046683	-0.336708	0.045711
H234	H	0.380016	-0.003375	0.379044
F235	F	-0.481548	-0.277433	-0.482115
F236	F	-0.148214	0.055900	-0.148782
F237	F	0.185119	0.389233	0.184551
H238	H	-0.286616	-0.836724	-0.678252
H239	H	0.046718	-0.503391	-0.344919
H240	H	0.380051	-0.170057	-0.011585
H241	H	-0.469028	-0.550786	-0.469491
H242	H	-0.135695	-0.217453	-0.136158
H243	H	0.197639	0.115881	0.197176
H244	H	-0.286582	-0.836742	-0.826979
H245	H	0.046751	-0.503408	-0.493646
H246	H	0.380084	-0.170075	-0.160313
H247	H	-0.468943	-0.149948	-0.469641
H248	H	-0.135610	0.183385	-0.136307
H249	H	0.197723	0.516718	0.197026
H250	H	-0.929258	-0.982732	-0.469891
H251	H	-0.595925	-0.649399	-0.136557
H252	H	-0.262592	-0.316066	0.196776
F253	F	-0.481186	-0.992851	-1.090119
F254	F	-0.147853	-0.659518	-0.756785
F255	F	0.185480	-0.326185	-0.423452
F256	F	-0.481250	-0.992808	-0.837274
F257	F	-0.147916	-0.659475	-0.503940
F258	F	0.185417	-0.326141	-0.170607
F259	F	-0.835360	-0.992750	-0.482455
F260	F	-0.502027	-0.659417	-0.149122
F261	F	-0.168693	-0.326083	0.184211
F262	F	-0.481231	-0.992818	-0.920901
F263	F	-0.147898	-0.659485	-0.587568
F264	F	0.185435	-0.326151	-0.254234
F265	F	-0.666134	-0.992696	-0.482415
F266	F	-0.332801	-0.659363	-0.149082
F267	F	0.000533	-0.326029	0.184252
