data_functionalizedCrystal
_audit_creation_method	'MofGen! by Chris Wilmer'
_symmetry_space_group_name_H-M	'P1'
_symmetry_Int_Tables_number	1
_symmetry_cell_setting	triclinic
loop_
_symmetry_equiv_pos_as_xyz
  x,y,z
_cell_length_a	21.395361
_cell_length_b	21.295418
_cell_length_c	21.395356
_cell_angle_alpha	90.046899
_cell_angle_beta	89.969319
_cell_angle_gamma	89.951085
loop_
_atom_site_label
_atom_site_type_symbol
_atom_site_fract_x
_atom_site_fract_y
_atom_site_fract_z
Zn1	Zn	-0.249150	-0.962349	-0.354638
Zn2	Zn	-0.353926	-0.962253	-0.249855
Zn3	Zn	-0.249200	-0.857074	-0.249832
Zn4	Zn	-0.353927	-0.857041	-0.354553
O5	O	-0.301551	-0.909679	-0.302220
O6	O	-0.263027	-1.050426	-0.340784
O7	O	-0.340055	-0.948274	-0.162174
O8	O	-0.161515	-0.871093	-0.263761
O9	O	-0.340006	-1.050355	-0.263800
O10	O	-0.161479	-0.948438	-0.340762
O11	O	-0.263113	-0.871000	-0.162157
O12	O	-0.263113	-0.768980	-0.263678
O13	O	-0.340007	-0.871037	-0.442242
O14	O	-0.340056	-0.768956	-0.340616
O15	O	-0.263028	-0.948406	-0.442305
O16	O	-0.441604	-0.948242	-0.263717
O17	O	-0.441605	-0.870944	-0.340638
C18	C	-0.301591	-0.746128	-0.302136
C19	C	-0.301623	-0.676159	-0.302115
C20	C	-0.341741	-0.643297	-0.342114
C21	C	-0.341728	-0.577554	-0.342137
C22	C	-0.301604	-0.544677	-0.302150
C23	C	-0.261478	-0.577548	-0.262148
C24	C	-0.261487	-0.643289	-0.262131
N25	N	-0.296713	-0.441402	-0.247343
N26	N	-0.296707	-0.378951	-0.247361
C27	C	-0.301572	-0.346602	-0.302203
N28	N	-0.306455	-0.379065	-0.357026
N29	N	-0.306463	-0.441522	-0.357006
C30	C	-0.301589	-0.473392	-0.302166
C31	C	-0.341679	-0.242454	-0.342231
C32	C	-0.341662	-0.176710	-0.342255
C33	C	-0.261414	-0.176705	-0.262261
C34	C	-0.261428	-0.242447	-0.262242
C35	C	-0.301564	-0.275318	-0.302226
C36	C	-0.464338	-0.909596	-0.302185
C37	C	-0.533980	-0.909618	-0.302191
C38	C	-0.566672	-0.949903	-0.262179
C39	C	-0.632107	-0.949933	-0.262193
C40	C	-0.664848	-0.909666	-0.302212
C41	C	-0.632148	-0.869378	-0.342232
C42	C	-0.566714	-0.869354	-0.342221
C43	C	-0.768580	-0.852986	-0.307099
C44	C	-0.834013	-0.853009	-0.307106
C45	C	-0.866669	-0.909739	-0.302249
C46	C	-0.833883	-0.966448	-0.297373
C47	C	-0.768449	-0.966425	-0.297362
C48	C	-0.735800	-0.909687	-0.302229
C49	C	-0.970313	-0.950059	-0.262250
C50	C	-1.035750	-0.950089	-0.262269
C51	C	-1.035789	-0.869529	-0.342304
C52	C	-0.970354	-0.869504	-0.342289
C53	C	-0.937620	-0.909768	-0.302259
C54	C	-0.138127	-0.909780	-0.302268
C55	C	-0.068486	-0.909823	-0.302289
C56	C	-0.301512	-0.909729	-0.465643
C57	C	-0.301495	-0.909750	-0.535284
C58	C	-0.301522	-0.073870	-0.302286
C59	C	-0.301536	-0.143838	-0.302269
C60	C	-0.261427	-0.869524	-0.567979
C61	C	-0.261416	-0.869522	-0.633414
C62	C	-0.301466	-0.909757	-0.666153
C63	C	-0.341542	-0.949986	-0.633450
C64	C	-0.341557	-0.949982	-0.568016
C65	C	-0.306374	-0.966474	-0.769862
C66	C	-0.306354	-0.966478	-0.835295
C67	C	-0.301423	-0.909767	-0.867974
C68	C	-0.296498	-0.853050	-0.835211
C69	C	-0.296513	-0.853046	-0.769777
C70	C	-0.301454	-0.909765	-0.737105
C71	C	-0.261340	-0.869535	-0.971621
C72	C	-0.261333	-0.869532	-1.037057
C73	C	-0.341456	-0.950002	-1.037092
C74	C	-0.341466	-0.950000	-0.971657
C75	C	-0.301405	-0.909767	-0.938925
C76	C	-0.301544	-0.909666	-0.139432
C77	C	-0.301384	-0.909767	-0.069791
H78	H	-0.374330	-0.149955	-0.374831
H79	H	-0.741999	-0.806786	-0.311056
H80	H	-0.943734	-0.836698	-0.374868
O81	O	-1.067557	-0.830480	-0.381270
C82	C	-1.051492	-0.844190	-0.443730
H83	H	-1.033441	-0.894471	-0.446956
H84	H	-1.094507	-0.838768	-0.474687
H85	H	-1.013539	-0.810419	-0.460055
O86	O	-0.380668	-0.545689	-0.381081
C87	C	-0.367052	-0.561819	-0.443551
H88	H	-0.342981	-0.609580	-0.444887
H89	H	-0.412309	-0.564045	-0.471561
H90	H	-0.334858	-0.524876	-0.464721
O91	O	-0.311054	-1.021622	-0.867041
C92	C	-0.260414	-1.060864	-0.851098
H93	H	-0.241145	-1.046309	-0.803585
H94	H	-0.276986	-1.111677	-0.848884
H95	H	-0.222163	-1.056337	-0.887932
H96	H	-0.741757	-1.012599	-0.293394
O97	O	-0.222456	-0.830535	-0.665251
C98	C	-0.181967	-0.866412	-0.703125
H99	H	-0.204059	-0.914101	-0.712954
H100	H	-0.173560	-0.840784	-0.749123
H101	H	-0.135541	-0.873361	-0.677925
O102	O	-0.380448	-0.989019	-1.068861
C103	C	-0.442902	-0.975237	-1.052833
H104	H	-0.446085	-0.924946	-1.034803
H105	H	-0.473843	-0.980641	-1.095862
H106	H	-0.459281	-1.008977	-1.014875
H107	H	-0.310384	-1.012659	-0.743260
O108	O	-0.380572	-0.274460	-0.381105
C109	C	-0.344957	-0.312559	-0.421635
H110	H	-0.297449	-0.322430	-0.399620
H111	H	-0.370497	-0.358772	-0.429969
H112	H	-0.338129	-0.287283	-0.468087
H113	H	-0.292505	-0.806865	-0.743105
O114	O	-0.663811	-0.989145	-0.223352
C115	C	-0.647764	-1.051881	-0.237118
H116	H	-0.600233	-1.053175	-0.261192
H117	H	-0.645535	-1.080119	-0.191929
H118	H	-0.684545	-1.073077	-0.269364
O119	O	-0.865761	-0.797871	-0.311872
C120	C	-0.822910	-0.747793	-0.316150
H121	H	-0.776232	-0.766120	-0.334325
H122	H	-0.841838	-0.710762	-0.349627
H123	H	-0.816008	-0.726004	-0.267959
H124	H	-0.292479	-0.806871	-0.861817
O125	O	-0.222585	-0.675187	-0.223180
C126	C	-0.236182	-0.659026	-0.160714
H127	H	-0.286228	-0.640896	-0.157464
H128	H	-0.230754	-0.702231	-0.129757
H129	H	-0.202561	-0.620884	-0.144410
H130	H	-0.228741	-0.149937	-0.229705
H131	H	-0.228721	-0.836775	-0.944969
H132	H	-0.374422	-0.670056	-0.374673
O133	O	-0.222441	-0.274277	-0.223322
C134	C	-0.187011	-0.231164	-0.188044
H135	H	-0.212664	-0.184273	-0.185840
H136	H	-0.180265	-0.250111	-0.138686
H137	H	-0.139455	-0.224245	-0.211079
H138	H	-0.374151	-0.982745	-0.660110
H139	H	-0.860470	-1.012644	-0.293419
H140	H	-0.228807	-0.550775	-0.229592
H141	H	-0.374184	-0.982742	-0.541397
H142	H	-0.540022	-0.982690	-0.229586
H143	H	-0.658810	-0.836593	-0.374817
H144	H	-0.228809	-0.836761	-0.541333
O145	O	-0.938608	-0.989231	-0.223350
C146	C	-0.981498	-1.024788	-0.188028
H147	H	-1.028119	-1.026976	-0.213705
H148	H	-0.962534	-1.074380	-0.181404
H149	H	-0.988523	-1.001761	-0.140415
O150	O	-0.222350	-0.830434	-1.068722
C151	C	-0.187008	-0.794915	-1.025797
H152	H	-0.184843	-0.820700	-0.979175
H153	H	-0.137640	-0.788236	-1.044715
H154	H	-0.209960	-0.747090	-1.018792
H155	H	-1.062367	-0.982898	-0.229688
O156	O	-0.380451	-0.988991	-0.939866
C157	C	-0.420926	-0.953128	-0.901964
H158	H	-0.424805	-0.903547	-0.921643
H159	H	-0.469138	-0.975866	-0.901224
H160	H	-0.401565	-0.950969	-0.852377
H161	H	-0.540095	-0.836549	-0.374804
