data_functionalizedCrystal
_audit_creation_method	'MofGen! by Chris Wilmer'
_symmetry_space_group_name_H-M	'P1'
_symmetry_Int_Tables_number	1
_symmetry_cell_setting	triclinic
loop_
_symmetry_equiv_pos_as_xyz
  x,y,z
_cell_length_a	19.188930
_cell_length_b	10.268362
_cell_length_c	11.792241
_cell_angle_alpha	89.994572
_cell_angle_beta	83.669098
_cell_angle_gamma	89.981535
loop_
_atom_site_label
_atom_site_type_symbol
_atom_site_fract_x
_atom_site_fract_y
_atom_site_fract_z
O1	O	0.926947	-0.108720	0.141694
O2	O	1.176947	0.141280	0.391694
O3	O	1.426947	0.391280	0.641694
O4	O	1.676947	0.641280	0.891694
O5	O	0.723744	-0.108631	0.160769
O6	O	0.973744	0.141369	0.410769
O7	O	1.223744	0.391369	0.660769
O8	O	1.473744	0.641369	0.910769
O9	O	0.830277	-0.108668	-0.014013
O10	O	1.080277	0.141332	0.235987
O11	O	1.330277	0.391332	0.485987
O12	O	1.580277	0.641332	0.735987
O13	O	0.820415	-0.108682	0.316476
O14	O	1.070415	0.141318	0.566476
O15	O	1.320415	0.391318	0.816476
O16	O	1.570415	0.641318	1.066476
O17	O	0.830268	0.107932	-0.014020
O18	O	1.080268	0.357932	0.235980
O19	O	1.330268	0.607932	0.485980
O20	O	1.580268	0.857932	0.735980
O21	O	0.723735	0.107970	0.160762
O22	O	0.973735	0.357970	0.410762
O23	O	1.223735	0.607970	0.660762
O24	O	1.473735	0.857970	0.910762
O25	O	0.926938	0.107881	0.141687
O26	O	1.176938	0.357881	0.391687
O27	O	1.426938	0.607881	0.641687
O28	O	1.676938	0.857881	0.891687
Cu29	Cu	0.825336	0.127703	0.151224
Cu30	Cu	1.075336	0.377703	0.401224
Cu31	Cu	1.325336	0.627703	0.651224
Cu32	Cu	1.575336	0.877703	0.901224
Cu33	Cu	0.825347	-0.128453	0.151232
Cu34	Cu	1.075347	0.121547	0.401232
Cu35	Cu	1.325347	0.371547	0.651232
Cu36	Cu	1.575347	0.621547	0.901232
O37	O	0.820405	0.107919	0.316469
O38	O	1.070405	0.357919	0.566469
O39	O	1.320405	0.607919	0.816469
O40	O	1.570405	0.857919	1.066469
C41	C	0.697725	-0.000319	0.160148
C42	C	0.947725	0.249681	0.410148
C43	C	1.197725	0.499681	0.660148
C44	C	1.447725	0.749681	0.910148
C45	C	0.620210	-0.000285	0.158293
C46	C	0.870210	0.249715	0.408293
C47	C	1.120210	0.499715	0.658293
C48	C	1.370210	0.749715	0.908293
N49	N	0.825333	0.307869	0.151217
N50	N	1.075333	0.557869	0.401217
N51	N	1.325333	0.807869	0.651217
N52	N	1.575333	1.057869	0.901217
C53	C	0.829653	-0.000368	-0.056298
C54	C	1.079653	0.249632	0.193702
C55	C	1.329653	0.499632	0.443702
C56	C	1.579653	0.749632	0.693702
C57	C	0.827799	-0.000368	-0.182284
C58	C	1.077799	0.249632	0.067716
C59	C	1.327799	0.499632	0.317716
C60	C	1.577799	0.749632	0.567716
C61	C	0.575867	-0.000309	0.260849
C62	C	0.825867	0.249691	0.510849
C63	C	1.075867	0.499691	0.760849
C64	C	1.325867	0.749691	1.010849
C65	C	0.503033	-0.000324	0.259107
C66	C	0.753033	0.249676	0.509107
C67	C	1.003033	0.499676	0.759107
C68	C	1.253033	0.749676	1.009107
C69	C	0.474546	-0.000339	0.154803
C70	C	0.724546	0.249661	0.404803
C71	C	0.974546	0.499661	0.654803
C72	C	1.224546	0.749661	0.904803
C73	C	0.518899	-0.000307	0.052234
C74	C	0.768899	0.249693	0.302234
C75	C	1.018899	0.499693	0.552234
C76	C	1.268899	0.749693	0.802234
C77	C	0.591731	-0.000280	0.053979
C78	C	0.841731	0.249720	0.303979
C79	C	1.091731	0.499720	0.553979
C80	C	1.341731	0.749720	0.803979
N81	N	0.366117	-0.074107	0.075079
N82	N	0.616117	0.175893	0.325079
N83	N	0.866117	0.425893	0.575079
N84	N	1.116117	0.675893	0.825079
N85	N	0.296929	-0.074136	0.073428
N86	N	0.546929	0.175864	0.323428
N87	N	0.796929	0.425864	0.573428
N88	N	1.046929	0.675864	0.823428
C89	C	0.255107	-0.000419	0.149540
C90	C	0.505107	0.249581	0.399540
C91	C	0.755107	0.499581	0.649540
C92	C	1.005107	0.749581	0.899540
N93	N	0.285086	0.073312	0.227382
N94	N	0.535086	0.323312	0.477382
N95	N	0.785086	0.573312	0.727382
N96	N	1.035086	0.823312	0.977382
N97	N	0.354280	0.073335	0.229036
N98	N	0.604280	0.323335	0.479036
N99	N	0.854280	0.573335	0.729036
N100	N	1.104280	0.823335	0.979036
C101	C	0.395573	-0.000368	0.152900
C102	C	0.645573	0.249632	0.402900
C103	C	0.895573	0.499632	0.652900
C104	C	1.145573	0.749632	0.902900
C105	C	0.131789	-0.000457	0.250214
C106	C	0.381789	0.249543	0.500214
C107	C	0.631789	0.499543	0.750214
C108	C	0.881789	0.749543	1.000214
C109	C	0.058955	-0.000463	0.248468
C110	C	0.308955	0.249537	0.498468
C111	C	0.558955	0.499537	0.748468
C112	C	0.808955	0.749537	0.998468
C113	C	0.074822	-0.000460	0.041591
C114	C	0.324822	0.249540	0.291591
C115	C	0.574822	0.499540	0.541591
C116	C	0.824822	0.749540	0.791591
C117	C	0.147655	-0.000440	0.043341
C118	C	0.397655	0.249560	0.293341
C119	C	0.647655	0.499560	0.543341
C120	C	0.897655	0.749560	0.793341
C121	C	0.176134	-0.000445	0.147655
C122	C	0.426134	0.249555	0.397655
C123	C	0.676134	0.499555	0.647655
C124	C	0.926134	0.749555	0.897655
C125	C	0.952957	-0.000434	0.142309
C126	C	1.202957	0.249566	0.392309
C127	C	1.452957	0.499566	0.642309
C128	C	1.702957	0.749566	0.892309
C129	C	1.030472	-0.000477	0.144163
C130	C	1.280472	0.249523	0.394163
C131	C	1.530472	0.499523	0.644163
C132	C	1.780472	0.749523	0.894163
N133	N	0.825355	-0.308618	0.151230
N134	N	1.075355	-0.058618	0.401230
N135	N	1.325355	0.191382	0.651230
N136	N	1.575355	0.441382	0.901230
C137	C	0.825343	0.573539	0.151230
C138	C	1.075343	0.823539	0.401230
C139	C	1.325343	1.073539	0.651230
C140	C	1.575343	1.323539	0.901230
C141	C	0.825335	0.425701	0.151226
C142	C	1.075335	0.675701	0.401226
C143	C	1.325335	0.925701	0.651226
C144	C	1.575335	1.175701	0.901226
C145	C	0.824389	-0.000389	-0.412945
C146	C	1.074389	0.249611	-0.162945
C147	C	1.324389	0.499611	0.087055
C148	C	1.574389	0.749611	0.337055
C149	C	0.826283	-0.000378	-0.284588
C150	C	1.076283	0.249622	-0.034588
C151	C	1.326283	0.499622	0.215412
C152	C	1.576283	0.749622	0.465412
C153	C	0.821029	-0.000385	0.358754
C154	C	1.071029	0.249615	0.608754
C155	C	1.321029	0.499615	0.858754
C156	C	1.571029	0.749615	1.108754
C157	C	0.822884	-0.000393	0.484740
C158	C	1.072884	0.249607	0.734740
C159	C	1.322884	0.499607	0.984740
C160	C	1.572884	0.749607	1.234740
H161	H	0.599050	-0.000316	0.345790
H162	H	0.849050	0.249684	0.595790
H163	H	1.099050	0.499684	0.845790
H164	H	1.349050	0.749684	1.095790
H165	H	0.183760	-0.000427	-0.040172
H166	H	0.433760	0.249573	0.209828
H167	H	0.683760	0.499573	0.459828
H168	H	0.933760	0.749573	0.709828
H169	H	0.495700	-0.000338	-0.032691
H170	H	0.745700	0.249662	0.217309
H171	H	0.995700	0.499662	0.467309
H172	H	1.245700	0.749662	0.717309
H173	H	0.466922	-0.000340	0.342624
H174	H	0.716922	0.249660	0.592624
H175	H	0.966922	0.499660	0.842624
H176	H	1.216922	0.749660	1.092624
H177	H	0.154978	-0.000442	0.335153
H178	H	0.404978	0.249558	0.585153
H179	H	0.654978	0.499558	0.835153
H180	H	0.904978	0.749558	1.085153
H181	H	0.627836	-0.000260	-0.029537
H182	H	0.877836	0.249740	0.220463
H183	H	1.127836	0.499740	0.470463
H184	H	1.377836	0.749740	0.720463
H185	H	0.022850	-0.000476	0.331985
H186	H	0.272850	0.249524	0.581985
H187	H	0.522850	0.499524	0.831985
H188	H	0.772850	0.749524	1.081985
H189	H	0.051628	-0.000553	-0.043335
H190	H	0.301628	0.249447	0.206665
H191	H	0.551628	0.499447	0.456665
H192	H	0.801628	0.749447	0.706665
