data_functionalizedCrystal
_audit_creation_method	'MofGen! by Chris Wilmer'
_symmetry_space_group_name_H-M	'P1'
_symmetry_Int_Tables_number	1
_symmetry_cell_setting	triclinic
loop_
_symmetry_equiv_pos_as_xyz
  x,y,z
_cell_length_a	14.853567
_cell_length_b	18.266242
_cell_length_c	14.853567
_cell_angle_alpha	90.002461
_cell_angle_beta	96.365070
_cell_angle_gamma	89.993618
loop_
_atom_site_label
_atom_site_type_symbol
_atom_site_fract_x
_atom_site_fract_y
_atom_site_fract_z
O1	O	1.196371	-0.060824	-0.117705
O2	O	0.933911	-0.060836	-0.131727
O3	O	1.072152	-0.060832	0.006514
O4	O	1.058131	-0.060828	-0.255946
O5	O	1.072128	0.060930	0.006520
O6	O	0.933887	0.060926	-0.131720
O7	O	1.196347	0.060938	-0.117699
Zn8	Zn	1.065113	0.080264	-0.124708
Zn9	Zn	1.065145	-0.080162	-0.124717
O10	O	1.058106	0.060934	-0.255939
C11	C	0.900311	0.000043	-0.131088
C12	C	0.800227	0.000039	-0.129184
C13	C	0.387693	0.000054	-0.039019
C14	C	0.366412	0.000055	-0.203251
C15	C	0.460446	0.000053	-0.205041
C16	C	0.518108	0.000050	-0.123819
C17	C	0.481736	0.000049	-0.040806
C18	C	0.496825	0.000046	-0.288053
C19	C	0.590864	0.000043	-0.289846
C20	C	0.648528	0.000045	-0.208623
C21	C	0.612150	0.000045	-0.125607
C22	C	0.669812	0.000042	-0.044384
C23	C	0.633437	0.000048	0.038633
C24	C	0.539399	0.000051	0.040417
C25	C	0.742565	0.000042	-0.210407
C26	C	0.763855	0.000038	-0.046172
N27	N	1.065098	0.189751	-0.124701
C28	C	1.126330	0.228062	-0.063519
C29	C	1.126336	0.304707	-0.063515
C30	C	1.065117	0.343038	-0.124709
C31	C	1.003872	0.304718	-0.185896
C32	C	1.003863	0.228075	-0.185893
N33	N	1.053741	0.463371	-0.204468
N34	N	1.053755	0.536179	-0.204468
C35	C	1.065140	0.573960	-0.124723
N36	N	1.076528	0.536183	-0.044974
N37	N	1.076519	0.463368	-0.044974
C38	C	1.065120	0.426145	-0.124720
C39	C	1.126382	0.695378	-0.063531
C40	C	1.126381	0.772025	-0.063526
C41	C	1.003922	0.772035	-0.185915
C42	C	1.003919	0.695390	-0.185912
C43	C	1.065154	0.657066	-0.124721
C44	C	1.229947	0.000057	-0.118337
C45	C	1.330031	0.000057	-0.120241
C46	C	1.071504	0.000047	0.040106
C47	C	1.069601	0.000040	0.140189
N48	N	1.065160	0.810351	-0.124719
C49	C	1.058754	0.000053	-0.289531
C50	C	1.060657	0.000055	-0.389615
C51	C	0.979435	0.000050	0.552723
C52	C	1.143668	0.000058	0.574004
C53	C	1.145458	0.000053	0.479971
C54	C	1.064235	0.000049	0.422309
C55	C	0.981223	0.000048	0.458680
C56	C	1.228469	0.000061	0.443591
C57	C	1.230262	0.000058	0.349552
C58	C	1.149039	0.000048	0.291889
C59	C	1.066023	0.000047	0.328266
C60	C	0.984800	0.000042	0.270604
C61	C	0.901783	0.000036	0.306979
C62	C	0.899999	0.000038	0.401017
C63	C	1.150823	0.000045	0.197851
C64	C	0.986588	0.000040	0.176561
H65	H	0.509774	0.000073	0.108005
H66	H	0.954073	0.803243	-0.235737
C67	C	0.302988	0.000060	-0.292588
H68	H	0.241773	0.000067	-0.279634
H69	H	0.314029	-0.042398	-0.326629
H70	H	0.314022	0.042529	-0.326614
C71	C	0.347690	0.000058	0.052295
H72	H	0.395502	0.000059	0.100409
H73	H	0.311447	-0.042399	0.056407
H74	H	0.311451	0.042528	0.056410
H75	H	0.449870	0.000041	-0.354180
H76	H	1.297860	0.000062	0.319944
C77	C	1.193742	0.814167	0.003777
H78	H	1.230213	0.780363	0.040212
H79	H	1.161278	0.844073	0.041371
H80	H	1.231309	0.844056	-0.028736
H81	H	0.953999	0.196882	-0.235716
C82	C	0.936572	0.653246	-0.253224
H83	H	0.900117	0.687050	-0.289675
H84	H	0.899003	0.623354	-0.220725
H85	H	0.969051	0.623342	-0.290814
C86	C	0.782580	0.000034	-0.301711
H87	H	0.846844	0.000027	-0.291144
H88	H	0.762791	0.042492	-0.335162
H89	H	0.762801	-0.042436	-0.335152
H90	H	1.209795	0.000067	0.620958
C91	C	0.630869	0.000047	-0.381159
H92	H	0.583059	0.000056	-0.429274
H93	H	0.667119	-0.042411	-0.385278
H94	H	0.667102	0.042516	-0.385263
H95	H	0.810798	0.000038	0.019971
H96	H	0.832411	0.000034	0.430643
H97	H	0.680397	0.000040	0.104764
H98	H	1.176189	0.196861	-0.013691
C99	C	1.193696	0.346857	0.003787
H100	H	1.230165	0.313056	0.040227
H101	H	1.161229	0.376767	0.041375
H102	H	1.231263	0.376745	-0.028727
H103	H	0.954025	0.335931	-0.235720
H104	H	1.176241	0.664174	-0.013702
C105	C	0.897241	0.000035	0.113140
H106	H	0.847548	0.000037	0.148274
H107	H	0.894533	-0.042424	0.076009
H108	H	0.894515	0.042503	0.076018
C109	C	0.812442	0.000031	0.243550
H110	H	0.762743	0.000032	0.278676
H111	H	0.809739	-0.042427	0.206418
H112	H	0.809721	0.042500	0.206430
H113	H	1.218414	0.000055	0.168238
H114	H	0.911844	0.000042	0.582344
C115	C	1.317805	0.000072	0.507017
H116	H	1.304848	0.000064	0.568232
H117	H	1.351827	0.042536	0.495982
H118	H	1.351850	-0.042392	0.495980
