data_functionalizedCrystal
_audit_creation_method	'MofGen! by Chris Wilmer'
_symmetry_space_group_name_H-M	'P1'
_symmetry_Int_Tables_number	1
_symmetry_cell_setting	triclinic
loop_
_symmetry_equiv_pos_as_xyz
  x,y,z
_cell_length_a	21.295418
_cell_length_b	16.994747
_cell_length_c	21.295411
_cell_angle_alpha	89.994024
_cell_angle_beta	90.043738
_cell_angle_gamma	90.026880
loop_
_atom_site_label
_atom_site_type_symbol
_atom_site_fract_x
_atom_site_fract_y
_atom_site_fract_z
Zn1	Zn	0.962441	-0.313785	0.356354
Zn2	Zn	0.962379	-0.445672	0.251131
Zn3	Zn	0.857164	-0.313822	0.251064
Zn4	Zn	0.857169	-0.445687	0.356327
O5	O	0.909788	-0.379741	0.303719
O6	O	1.050522	-0.331258	0.342435
O7	O	0.948394	-0.428190	0.163032
O8	O	0.871153	-0.203436	0.265015
O9	O	1.050477	-0.428155	0.265128
O10	O	0.948499	-0.203409	0.342371
O11	O	0.871093	-0.331321	0.162984
O12	O	0.769075	-0.331336	0.264988
O13	O	0.871162	-0.428181	0.444420
O14	O	0.769079	-0.428217	0.342324
O15	O	0.948504	-0.331273	0.444440
O16	O	0.948399	-0.556055	0.265101
O17	O	0.871102	-0.556066	0.342389
C18	C	0.746237	-0.379783	0.303647
C19	C	0.676268	-0.379820	0.303631
C20	C	0.909752	-0.584681	0.303747
C21	C	0.909756	-0.674003	0.303746
Zn22	Zn	0.857182	-0.944908	0.251047
Zn23	Zn	0.962469	-0.944850	0.356327
Zn24	Zn	0.857191	-0.813080	0.356316
Zn25	Zn	0.962390	-0.812927	0.251110
O26	O	0.909808	-0.878941	0.303700
O27	O	0.871178	-1.055282	0.264990
O28	O	0.948540	-0.927410	0.444415
O29	O	0.769100	-0.830655	0.342321
O30	O	0.948532	-1.055239	0.342339
O31	O	0.769094	-0.927510	0.264980
O32	O	0.871192	-0.830599	0.444407
O33	O	0.871116	-0.702678	0.342383
O34	O	0.948398	-0.830395	0.163012
O35	O	0.948406	-0.702566	0.265088
O36	O	0.871102	-0.927361	0.162966
O37	O	1.050548	-0.927262	0.342400
O38	O	1.050490	-0.830338	0.265098
C39	C	0.643420	-0.430332	0.343839
C40	C	0.577678	-0.430313	0.343868
C41	C	0.544786	-0.379789	0.303676
C42	C	0.577642	-0.329267	0.263464
C43	C	0.643383	-0.329282	0.263442
N44	N	0.441508	-0.373615	0.248616
N45	N	0.379057	-0.373605	0.248639
C46	C	0.346711	-0.379739	0.303743
N47	N	0.379176	-0.385898	0.358823
N48	N	0.441634	-0.385912	0.358799
C49	C	0.473501	-0.379767	0.303696
C50	C	0.242578	-0.430233	0.343985
C51	C	0.176834	-0.430208	0.344015
C52	C	0.176800	-0.329166	0.263606
C53	C	0.242542	-0.329187	0.263582
C54	C	0.275427	-0.379725	0.303771
C55	C	1.073979	-0.379700	0.303792
C56	C	1.143947	-0.379683	0.303823
C57	C	0.909840	-0.379725	0.467909
C58	C	0.909863	-0.379718	0.537878
C59	C	0.909828	-0.174001	0.303687
C60	C	0.909847	-0.084679	0.303674
C61	C	0.909772	-0.379701	0.140167
C62	C	0.909872	-0.379486	0.070200
C63	C	0.950133	-0.329255	0.570756
C64	C	0.950132	-0.329221	0.636498
C65	C	0.909868	-0.379663	0.669360
C66	C	0.869589	-0.430129	0.636474
C67	C	0.869587	-0.430156	0.570733
N68	N	0.905030	-0.448668	0.772600
N69	N	0.905036	-0.448640	0.835052
C70	C	0.909872	-0.379583	0.867435
N71	N	0.914714	-0.310554	0.835007
N72	N	0.914711	-0.310583	0.772550
C73	C	0.909866	-0.379639	0.740645
C74	C	0.950143	-0.329080	0.971599
C75	C	0.950138	-0.329044	1.037342
C76	C	0.869598	-0.429959	1.037317
C77	C	0.869600	-0.429988	0.971574
C78	C	0.909876	-0.379549	0.938719
C79	C	1.073360	-0.878779	0.303759
C80	C	1.143328	-0.878733	0.303802
C81	C	0.909740	-0.878868	0.139510
C82	C	0.909711	-0.878836	0.069541
C83	C	0.745618	-0.879106	0.303642
C84	C	0.675650	-0.879176	0.303618
C85	C	0.909831	-0.879059	0.467251
C86	C	0.909684	-0.879241	0.537219
C87	C	1.176197	-0.929221	0.344037
C88	C	1.241940	-0.929193	0.344079
C89	C	1.274812	-0.878672	0.303887
C90	C	1.241938	-0.828182	0.263648
C91	C	1.176196	-0.828214	0.263604
C92	C	0.869449	-0.929307	0.036656
C93	C	0.869409	-0.929278	-0.029087
C94	C	0.909636	-0.878781	-0.061942
C95	C	0.949900	-0.828305	-0.029052
C96	C	0.949936	-0.828331	0.036689
C97	C	0.642792	-0.828777	0.343874
C98	C	0.577049	-0.828827	0.343851
C99	C	0.544166	-0.879282	0.303575
C100	C	0.577028	-0.929684	0.263314
C101	C	0.642770	-0.929629	0.263334
C102	C	0.869633	-0.828557	0.570046
C103	C	0.869483	-0.828727	0.635788
C104	C	0.909387	-0.879579	0.668702
C105	C	0.949440	-0.930269	0.635871
C106	C	0.949587	-0.930102	0.570130
H107	H	0.670191	-0.471483	0.376565
H108	H	0.669518	-0.970675	0.230554
C109	C	0.541208	-0.984435	0.219660
C110	C	0.476603	-0.973705	0.228280
C111	C	0.443584	-1.024139	0.188086
H112	H	0.551877	-0.972922	0.177341
H113	H	0.551957	-1.037445	0.228875
H114	H	0.465858	-0.920707	0.219060
H115	H	0.465915	-0.985224	0.270590
H116	H	0.454333	-1.077149	0.197301
H117	H	0.454259	-1.012622	0.145770
H118	H	0.399746	-1.016870	0.193933
H119	H	1.149439	-0.787096	0.230842
C120	C	0.541299	-0.774237	0.387608
C121	C	0.503570	-0.818952	0.427921
C122	C	0.470625	-0.768692	0.468233
H123	H	0.570230	-0.744171	0.411660
H124	H	0.515601	-0.739883	0.363551
H125	H	0.529266	-0.853292	0.451976
H126	H	0.474628	-0.849015	0.403886
H127	H	0.444927	-0.734338	0.444176
H128	H	0.499561	-0.738629	0.492281
H129	H	0.445018	-0.799023	0.495586
C130	C	0.140983	-0.274418	0.219974
C131	C	0.076378	-0.285238	0.228580
C132	C	0.043362	-0.234832	0.188384
H133	H	0.151710	-0.221400	0.229182
H134	H	0.151677	-0.285918	0.177655
H135	H	0.065689	-0.273732	0.270890
H136	H	0.065632	-0.338246	0.219367
H137	H	0.054056	-0.246332	0.146065
H138	H	0.054094	-0.181816	0.197596
H139	H	-0.000476	-0.242171	0.194214
C140	C	0.825976	-0.773596	0.671311
C141	C	0.791083	-0.729009	0.628410
C142	C	0.751005	-0.678207	0.661108
H143	H	0.798264	-0.803516	0.696829
H144	H	0.850177	-0.739448	0.697068
H145	H	0.766884	-0.763153	0.602664
H146	H	0.818779	-0.699073	0.602890
H147	H	0.775206	-0.644058	0.686865
H148	H	0.723297	-0.708133	0.686626
H149	H	0.727329	-0.647943	0.632005
H150	H	0.836691	-0.970430	0.063399
H151	H	0.982725	-0.787233	0.063459
H152	H	0.982928	-0.288183	0.544009
C153	C	0.278176	-0.274447	0.219814
C154	C	0.262118	-0.291518	0.157518
C155	C	0.294937	-0.241110	0.117181
H156	H	0.267467	-0.221434	0.229005
H157	H	0.322045	-0.281698	0.225514
H158	H	0.218258	-0.284261	0.151822
H159	H	0.272829	-0.344521	0.148308
H160	H	0.338807	-0.248361	0.122881
H161	H	0.284226	-0.188101	0.126377
H162	H	0.284051	-0.252691	0.074909
H163	H	0.982924	-0.288124	0.663273
H164	H	0.670128	-0.288146	0.230699
C165	C	0.909364	-0.879743	0.740079
C166	C	0.969360	-0.860172	0.762037
C167	C	0.969364	-0.860318	0.827785
H168	H	0.879844	-0.842272	0.754992
H169	H	0.898199	-0.930598	0.754873
H170	H	0.980518	-0.809325	0.747249
H171	H	0.998891	-0.897636	0.747142
H172	H	0.958198	-0.911173	0.842579
H173	H	0.939841	-0.822847	0.842691
H174	H	1.010071	-0.847047	0.842691
H175	H	1.268696	-0.970308	0.376849
C176	C	0.825943	-0.484869	0.672263
C177	C	0.834578	-0.474062	0.736874
C178	C	0.794385	-0.524481	0.769862
H179	H	0.783624	-0.473390	0.661533
H180	H	0.835151	-0.537886	0.661548
H181	H	0.825366	-0.421057	0.747585
H182	H	0.876889	-0.485546	0.747623
H183	H	0.803593	-0.577498	0.759147
H184	H	0.752068	-0.512999	0.759126
H185	H	0.800242	-0.517161	0.813704
C186	C	0.826264	-0.773474	0.534238
C187	C	0.785766	-0.817716	0.496297
C188	C	0.745806	-0.767001	0.463300
H189	H	0.802330	-0.743300	0.563138
H190	H	0.850566	-0.739241	0.508679
H191	H	0.761466	-0.851935	0.521853
H192	H	0.809682	-0.847888	0.467385
H193	H	0.770108	-0.732769	0.437741
H194	H	0.721877	-0.736830	0.492204
H195	H	0.718328	-0.797012	0.437549
H196	H	0.982930	-0.287947	1.064111
H197	H	0.550928	-0.471446	0.376613
H198	H	0.981928	-0.971673	0.662680
H199	H	0.982205	-0.971373	0.543408
H200	H	1.149441	-0.970361	0.376769
H201	H	0.836791	-0.471248	0.543964
H202	H	0.490635	-0.879316	0.303562
H203	H	0.550857	-0.288128	0.230741
H204	H	0.269354	-0.471380	0.376713
H205	H	0.150090	-0.471340	0.376761
C206	C	0.993476	-0.773447	-0.064813
C207	C	0.957807	-0.722926	-0.102574
C208	C	0.997933	-0.672395	-0.135534
H209	H	1.017482	-0.743313	-0.035890
H210	H	1.020881	-0.803579	-0.090489
H211	H	0.930414	-0.692798	-0.076899
H212	H	0.933803	-0.753039	-0.131508
H213	H	1.025337	-0.702527	-0.161211
H214	H	1.021936	-0.642267	-0.106607
H215	H	0.973737	-0.638116	-0.161163
H216	H	0.982935	-0.288005	0.944846
C217	C	0.825955	-0.484704	1.073101
C218	C	0.834588	-0.473896	1.137712
C219	C	0.794401	-0.524323	1.170699
H220	H	0.783634	-0.473233	1.062370
H221	H	0.835169	-0.537719	1.062386
H222	H	0.825370	-0.420893	1.148423
H223	H	0.876900	-0.485373	1.148462
H224	H	0.803615	-0.577339	1.159984
H225	H	0.752083	-0.512848	1.159963
H226	H	0.800257	-0.517003	1.214541
C227	C	0.825958	-0.484915	0.935908
C228	C	0.839658	-0.562950	0.951925
C229	C	0.799470	-0.613570	0.919077
H230	H	0.783644	-0.473480	0.946622
H231	H	0.831727	-0.477761	0.892043
H232	H	0.833884	-0.570100	0.995780
H233	H	0.881966	-0.574409	0.941210
H234	H	0.805239	-0.606417	0.875211
H235	H	0.757158	-0.602129	0.929792
H236	H	0.808764	-0.666523	0.929935
C237	C	1.346189	-0.878727	0.304057
C238	C	1.367932	-0.933744	0.347911
C239	C	1.433680	-0.933811	0.348094
H240	H	1.361141	-0.892329	0.263472
H241	H	1.361088	-0.827848	0.315030
H242	H	1.353040	-0.984612	0.336934
H243	H	1.352997	-0.920155	0.388501
H244	H	1.448579	-0.882932	0.359068
H245	H	1.448626	-0.947411	0.307508
H246	H	1.448442	-0.971134	0.377853
H247	H	1.268712	-0.787049	0.230925
H248	H	0.836620	-0.970383	-0.055856
H249	H	0.909601	-0.878769	-0.115473
H250	H	0.669557	-0.787687	0.376673
