data_functionalizedCrystal
_audit_creation_method	'MofGen! by Chris Wilmer'
_symmetry_space_group_name_H-M	'P1'
_symmetry_Int_Tables_number	1
_symmetry_cell_setting	triclinic
loop_
_symmetry_equiv_pos_as_xyz
  x,y,z
_cell_length_a	11.169417
_cell_length_b	12.594516
_cell_length_c	11.169409
_cell_angle_alpha	89.968298
_cell_angle_beta	90.019824
_cell_angle_gamma	89.972390
loop_
_atom_site_label
_atom_site_type_symbol
_atom_site_fract_x
_atom_site_fract_y
_atom_site_fract_z
Zn1	Zn	1.834826	0.423631	0.678548
Zn2	Zn	2.334826	0.923631	1.178548
Zn3	Zn	1.834658	0.601657	0.477867
Zn4	Zn	2.334658	1.101657	0.977867
Zn5	Zn	1.634112	0.423696	0.477882
Zn6	Zn	2.134112	0.923696	0.977882
Zn7	Zn	1.634062	0.601571	0.678512
Zn8	Zn	2.134062	1.101571	1.178512
O9	O	1.734414	0.512639	0.578202
O10	O	2.234414	1.012639	1.078202
O11	O	2.002753	0.447256	0.651936
O12	O	2.502753	0.947256	1.151936
O13	O	1.808005	0.578114	0.309919
O14	O	2.308005	1.078114	0.809919
O15	O	1.660828	0.274741	0.504523
O16	O	2.160828	0.774741	1.004523
O17	O	2.002630	0.578051	0.504497
O18	O	2.502630	1.078051	1.004497
O19	O	1.808292	0.274694	0.651951
O20	O	2.308292	0.774694	1.151951
O21	O	1.660665	0.447366	0.309931
O22	O	2.160665	0.947366	0.809931
O23	O	1.466155	0.447282	0.504488
O24	O	1.966155	0.947282	1.004488
O25	O	1.660743	0.577903	0.846467
O26	O	2.160743	1.077903	1.346467
O27	O	1.466119	0.577966	0.651889
O28	O	1.966119	1.077966	1.151889
O29	O	1.808243	0.447172	0.846493
O30	O	2.308243	0.947172	1.346493
O31	O	1.807957	0.750592	0.504462
O32	O	2.307957	1.250592	1.004462
O33	O	1.660580	0.750528	0.651875
O34	O	2.160580	1.250528	1.151875
C35	C	1.422589	0.512623	0.578187
C36	C	1.922589	1.012623	1.078187
C37	C	1.289189	0.512641	0.578209
C38	C	1.789189	1.012641	1.078209
C39	C	1.734277	0.789180	0.578189
C40	C	2.234277	1.289180	1.078189
C41	C	1.734329	0.907485	0.578223
C42	C	2.234329	1.407485	1.078223
C43	C	1.654148	0.976742	0.658344
C44	C	2.154148	1.476742	1.158344
C45	C	1.624887	1.047617	0.548830
C46	C	2.124887	1.547617	1.048830
C47	C	1.763655	1.047410	0.687754
C48	C	2.263655	1.547410	1.187754
C49	C	1.705010	0.976801	0.468651
C50	C	2.205010	1.476801	0.968651
C51	C	1.843829	0.976588	0.607649
C52	C	2.343829	1.476588	1.107649
C53	C	1.814609	1.047431	0.498060
C54	C	2.314609	1.547431	0.998060
C55	C	2.047456	0.512656	0.578219
C56	C	2.547456	1.012656	1.078219
C57	C	2.180856	0.512663	0.578225
C58	C	2.680856	1.012663	1.078225
C59	C	1.734506	0.512521	0.891245
C60	C	2.234506	1.012521	1.391245
C61	C	1.734546	0.512470	1.024645
C62	C	2.234546	1.012470	1.524645
C63	C	1.734531	1.235018	0.578241
C64	C	2.234531	1.735018	1.078241
C65	C	1.734446	1.116712	0.578252
C66	C	2.234446	1.616712	1.078252
C67	C	1.734391	0.512680	0.266378
C68	C	2.234391	1.012680	0.766378
C69	C	1.734585	0.512430	0.132978
C70	C	2.234585	1.012430	0.632978
H71	H	1.586239	0.945703	0.726002
H72	H	2.086239	1.445703	1.226002
Br73	Br	1.663573	0.925328	0.314237
Br74	Br	2.163573	1.425328	0.814237
H75	H	1.788412	1.078426	0.780371
H76	H	2.288412	1.578426	1.280371
H77	H	1.532341	1.078839	0.523966
H78	H	2.032341	1.578839	1.023966
Br79	Br	1.927715	1.098838	0.385028
Br80	Br	2.427715	1.598838	0.885028
H81	H	1.936354	0.945368	0.632565
H82	H	2.436354	1.445368	1.132565
