data_functionalizedCrystal
_audit_creation_method	'MofGen! by Chris Wilmer'
_symmetry_space_group_name_H-M	'P1'
_symmetry_Int_Tables_number	1
_symmetry_cell_setting	triclinic
loop_
_symmetry_equiv_pos_as_xyz
  x,y,z
_cell_length_a	23.532407
_cell_length_b	23.532407
_cell_length_c	22.610064
_cell_angle_alpha	89.990850
_cell_angle_beta	89.990066
_cell_angle_gamma	82.848678
loop_
_atom_site_label
_atom_site_type_symbol
_atom_site_fract_x
_atom_site_fract_y
_atom_site_fract_z
O1	O	-0.755269	-0.069133	0.049117
O2	O	-0.255269	0.430867	0.549117
O3	O	-0.589405	-0.079137	0.049135
O4	O	-0.089405	0.420863	0.549135
O5	O	-0.677338	0.008797	0.049114
O6	O	-0.177338	0.508797	0.549114
O7	O	-0.667335	-0.157067	0.049137
O8	O	-0.167335	0.342933	0.549137
O9	O	-0.677313	0.008797	-0.049255
O10	O	-0.177313	0.508797	0.450745
O11	O	-0.589380	-0.079137	-0.049234
O12	O	-0.089380	0.420863	0.450766
O13	O	-0.755243	-0.069133	-0.049252
O14	O	-0.255243	0.430867	0.450748
Zn15	Zn	-0.672307	-0.074135	-0.064862
Zn16	Zn	-0.172307	0.425865	0.435138
Zn17	Zn	-0.672341	-0.074135	0.064744
Zn18	Zn	-0.172341	0.425865	0.564744
O19	O	-0.667310	-0.157067	-0.049232
O20	O	-0.167310	0.342933	0.450768
C21	C	-0.568176	-0.078882	-0.000048
C22	C	-0.068176	0.421118	0.499952
C23	C	-0.504959	-0.078116	-0.000041
C24	C	-0.004959	0.421884	0.499959
C25	C	-0.677071	0.030013	-0.000072
C26	C	-0.177071	0.530013	0.499928
C27	C	-0.676305	0.093230	-0.000076
C28	C	-0.176305	0.593230	0.499924
C29	C	-0.776472	-0.069388	-0.000069
C30	C	-0.276472	0.430612	0.499931
C31	C	-0.839689	-0.070154	-0.000071
C32	C	-0.339689	0.429846	0.499929
C33	C	-0.105856	-0.125350	-0.000061
C34	C	0.394144	0.374650	0.499939
C35	C	-0.046456	-0.124638	-0.000065
C36	C	0.453544	0.375362	0.499935
O37	O	-0.009711	-0.168424	-0.000081
O38	O	0.490289	0.331576	0.499919
N39	N	-0.023830	-0.072362	-0.000071
N40	N	0.476170	0.427638	0.499929
C41	C	-0.060607	-0.020794	-0.000080
C42	C	0.439393	0.479206	0.499920
O43	O	-0.035908	0.023737	-0.000086
O44	O	0.464092	0.523737	0.499914
C45	C	-0.120006	-0.021506	-0.000080
C46	C	0.379994	0.478494	0.499920
C47	C	-0.142629	-0.073785	-0.000068
C48	C	0.357371	0.426215	0.499932
C49	C	-0.128479	-0.177625	-0.000050
C50	C	0.371521	0.322375	0.499950
C51	C	-0.187876	-0.178336	-0.000045
C52	C	0.312124	0.321664	0.499955
C53	C	-0.224649	-0.126772	-0.000052
C54	C	0.275351	0.373228	0.499948
C55	C	-0.202025	-0.074497	-0.000063
C56	C	0.297975	0.425503	0.499937
C57	C	-0.156783	0.030062	-0.000093
C58	C	0.343217	0.530062	0.499907
C59	C	-0.216185	0.029345	-0.000094
C60	C	0.283815	0.529345	0.499906
C61	C	-0.238808	-0.022934	-0.000082
C62	C	0.261192	0.477066	0.499918
C63	C	-0.298194	-0.023643	-0.000065
C64	C	0.201806	0.476357	0.499935
N65	N	-0.320820	-0.075920	-0.000059
N66	N	0.179180	0.424080	0.499941
C67	C	-0.284048	-0.127484	-0.000052
C68	C	0.215952	0.372516	0.499948
C69	C	0.064135	-0.019302	-0.000080
C70	C	0.564135	0.480698	0.499920
C71	C	0.123533	-0.018589	-0.000075
C72	C	0.623533	0.481411	0.499925
C73	C	0.137680	-0.122434	-0.000061
C74	C	0.637680	0.377566	0.499939
C75	C	0.078281	-0.123146	-0.000062
C76	C	0.578281	0.376854	0.499938
C77	C	0.041509	-0.071578	-0.000074
C78	C	0.541509	0.428422	0.499926
C79	C	-0.408784	-0.128974	-0.000042
C80	C	0.091216	0.371026	0.499958
C81	C	-0.468186	-0.129680	-0.000034
C82	C	0.031814	0.370320	0.499966
C83	C	-0.482329	-0.025836	-0.000051
C84	C	0.017671	0.474164	0.499949
C85	C	-0.422932	-0.025129	-0.000055
C86	C	0.077068	0.474871	0.499945
C87	C	-0.386160	-0.076702	-0.000052
C88	C	0.113840	0.423298	0.499948
O89	O	-0.334974	0.020119	-0.000052
O90	O	0.165026	0.520119	0.499948
O91	O	-0.308755	-0.172007	-0.000054
O92	O	0.191245	0.327993	0.499946
C93	C	-0.667577	-0.178283	-0.000045
C94	C	-0.167577	0.321717	0.499955
C95	C	-0.668343	-0.241500	-0.000036
C96	C	-0.168343	0.258500	0.499964
N97	N	-0.672288	-0.074135	-0.153314
N98	N	-0.172288	0.425865	0.346686
C99	C	-0.723539	0.492333	-0.000049
C100	C	-0.223539	0.992333	0.499951
C101	C	-0.722827	0.551733	-0.000044
C102	C	-0.222827	1.051733	0.499956
O103	O	-0.766613	0.588478	-0.000027
O104	O	-0.266613	1.088478	0.499973
N105	N	-0.670551	0.574359	-0.000039
N106	N	-0.170551	1.074359	0.499961
C107	C	-0.618983	0.537582	-0.000032
C108	C	-0.118983	1.037582	0.499968
O109	O	-0.574452	0.562281	-0.000027
O110	O	-0.074452	1.062281	0.499973
C111	C	-0.619695	0.478182	-0.000033
C112	C	-0.119695	0.978182	0.499967
C113	C	-0.671974	0.455560	-0.000044
C114	C	-0.171974	0.955560	0.499956
C115	C	-0.775814	0.469710	-0.000060
C116	C	-0.275814	0.969710	0.499940
C117	C	-0.776525	0.410313	-0.000065
C118	C	-0.276525	0.910313	0.499935
C119	C	-0.724961	0.373540	-0.000060
C120	C	-0.224961	0.873540	0.499940
C121	C	-0.672685	0.396164	-0.000050
C122	C	-0.172685	0.896164	0.499950
C123	C	-0.568127	0.441406	-0.000022
C124	C	-0.068127	0.941406	0.499978
C125	C	-0.568844	0.382004	-0.000021
C126	C	-0.068844	0.882004	0.499979
C127	C	-0.621123	0.359381	-0.000033
C128	C	-0.121123	0.859381	0.499967
C129	C	-0.621832	0.299995	-0.000050
C130	C	-0.121832	0.799995	0.499950
N131	N	-0.674109	0.277368	-0.000056
N132	N	-0.174109	0.777368	0.499944
C133	C	-0.725673	0.314141	-0.000061
C134	C	-0.225673	0.814141	0.499939
C135	C	-0.617491	0.662324	-0.000031
C136	C	-0.117491	1.162324	0.499969
C137	C	-0.616778	0.721722	-0.000034
C138	C	-0.116778	1.221722	0.499966
C139	C	-0.720623	0.735869	-0.000045
C140	C	-0.220623	1.235869	0.499955
C141	C	-0.721335	0.676470	-0.000046
C142	C	-0.221335	1.176470	0.499954
C143	C	-0.669767	0.639698	-0.000036
C144	C	-0.169767	1.139698	0.499964
C145	C	-0.727163	0.189405	-0.000073
C146	C	-0.227163	0.689405	0.499927
C147	C	-0.727869	0.130003	-0.000081
C148	C	-0.227869	0.630003	0.499919
C149	C	-0.624025	0.115860	-0.000067
C150	C	-0.124025	0.615860	0.499933
C151	C	-0.623318	0.175257	-0.000062
C152	C	-0.123318	0.675257	0.499938
C153	C	-0.674891	0.212029	-0.000063
C154	C	-0.174891	0.712029	0.499937
O155	O	-0.578070	0.263215	-0.000065
O156	O	-0.078070	0.763215	0.499935
O157	O	-0.770196	0.289433	-0.000058
O158	O	-0.270196	0.789433	0.499942
C159	C	-0.706686	-0.108496	-0.561955
C160	C	-0.206686	0.391504	-0.061955
C161	C	-0.706693	-0.108494	-0.623874
C162	C	-0.206693	0.391506	-0.123874
O163	O	-0.735916	-0.137705	-0.655892
O164	O	-0.235916	0.362295	-0.155892
N165	N	-0.672352	-0.074128	-0.654851
N166	N	-0.172352	0.425872	-0.154851
C167	C	-0.638006	-0.039758	-0.623905
C168	C	-0.138006	0.460242	-0.123905
O169	O	-0.608797	-0.010527	-0.655939
O170	O	-0.108797	0.489473	-0.155939
C171	C	-0.638002	-0.039757	-0.561986
C172	C	-0.138002	0.460243	-0.061986
C173	C	-0.672341	-0.074129	-0.531013
C174	C	-0.172341	0.425871	-0.031013
C175	C	-0.741022	-0.142864	-0.530981
C176	C	-0.241022	0.357136	-0.030981
C177	C	-0.741014	-0.142867	-0.469065
C178	C	-0.241014	0.357133	0.030935
C179	C	-0.706669	-0.108500	-0.438123
C180	C	-0.206669	0.391500	0.061877
C181	C	-0.672333	-0.074131	-0.469097
C182	C	-0.172333	0.425869	0.030903
C183	C	-0.603660	-0.005383	-0.531041
C184	C	-0.103660	0.494617	-0.031041
C185	C	-0.603659	-0.005384	-0.469118
C186	C	-0.103659	0.494616	0.030882
C187	C	-0.637998	-0.039757	-0.438144
C188	C	-0.137998	0.460243	0.061856
C189	C	-0.637980	-0.039766	-0.376239
C190	C	-0.137980	0.460234	0.123761
N191	N	-0.672321	-0.074132	-0.345262
N192	N	-0.172321	0.425868	0.154738
C193	C	-0.706666	-0.108498	-0.376204
C194	C	-0.206666	0.391502	0.123796
C195	C	-0.638017	-0.039762	-0.753938
C196	C	-0.138017	0.460238	-0.253938
C197	C	-0.638017	-0.039766	-0.815856
C198	C	-0.138017	0.460234	-0.315856
C199	C	-0.706705	-0.108502	-0.815821
C200	C	-0.206705	0.391498	-0.315821
C201	C	-0.706701	-0.108501	-0.753903
C202	C	-0.206701	0.391499	-0.253903
C203	C	-0.672358	-0.074128	-0.722962
C204	C	-0.172358	0.425872	-0.222962
C205	C	-0.706646	-0.108501	-0.246177
C206	C	-0.206646	0.391499	0.253823
C207	C	-0.706633	-0.108502	-0.184256
C208	C	-0.206633	0.391498	0.315744
C209	C	-0.637948	-0.039764	-0.184296
C210	C	-0.137948	0.460236	0.315704
C211	C	-0.637958	-0.039765	-0.246212
C212	C	-0.137958	0.460235	0.253788
C213	C	-0.672312	-0.074135	-0.277151
C214	C	-0.172312	0.425865	0.222849
O215	O	-0.608774	-0.010568	-0.344182
O216	O	-0.108774	0.489432	0.155818
O217	O	-0.735875	-0.137719	-0.344163
O218	O	-0.235875	0.362281	0.155837
N219	N	-0.672364	-0.074131	0.153196
N220	N	-0.172364	0.425869	0.653196
H221	H	-0.486602	-0.172255	-0.000024
H222	H	0.013398	0.327745	0.499976
F223	F	-0.601396	-0.003192	-0.151355
F224	F	-0.101396	0.496808	0.348645
F225	F	-0.089351	-0.232512	-0.000043
F226	F	0.410649	0.267488	0.499957
H227	H	-0.734663	-0.136490	-0.728688
H228	H	-0.234663	0.363510	-0.228688
F229	F	-0.830701	0.508838	-0.000064
F230	F	-0.330701	1.008838	0.499936
F231	F	-0.513956	0.342871	-0.000010
F232	F	-0.013956	0.842871	0.499990
F233	F	-0.832169	0.386245	-0.000064
F234	F	-0.332169	0.886245	0.499936
F235	F	-0.743260	-0.145076	-0.848763
F236	F	-0.243260	0.354924	-0.348763
H237	H	-0.575693	0.022607	-0.443929
H238	H	-0.075693	0.522607	0.056071
F239	F	-0.775503	0.775016	-0.000048
F240	F	-0.275503	1.275016	0.499952
H241	H	-0.768992	-0.170850	-0.556167
H242	H	-0.268992	0.329150	-0.056167
H243	H	-0.769159	0.219337	-0.000071
H244	H	-0.269159	0.719337	0.499929
H245	H	-0.525555	0.459814	-0.000009
H246	H	-0.025555	0.959814	0.499991
H247	H	-0.610048	-0.011784	-0.841070
H248	H	-0.110048	0.488216	-0.341070
F249	F	-0.601456	-0.003181	-0.721014
F250	F	-0.101456	0.496819	-0.221014
H251	H	-0.734595	-0.136494	-0.159040
H252	H	-0.234595	0.363506	0.340960
H253	H	-0.246123	0.071339	-0.000104
H254	H	0.253877	0.571339	0.499896
H255	H	-0.580748	0.193677	-0.000069
H256	H	-0.080748	0.693677	0.499931
F257	F	-0.783515	0.105930	-0.000093
F258	F	-0.283515	0.605930	0.499907
H259	H	-0.404512	0.017441	-0.000056
H260	H	0.095488	0.517441	0.499944
F261	F	0.176828	-0.177314	-0.000057
F262	F	0.676828	0.322686	0.499943
H263	H	-0.378851	-0.170970	-0.000041
H264	H	0.121149	0.329030	0.499959
H265	H	-0.206289	-0.220908	-0.000035
H266	H	0.293711	0.279092	0.499965
H267	H	0.141947	0.023982	-0.000076
H268	H	0.641947	0.523982	0.499924
F269	F	0.054210	-0.178789	-0.000050
F270	F	0.554210	0.321211	0.499950
H271	H	-0.512280	0.016146	-0.000054
H272	H	-0.012280	0.516146	0.499946
F273	F	0.025003	0.035587	-0.000086
F274	F	0.525003	0.535587	0.499914
H275	H	-0.138375	0.072634	-0.000103
H276	H	0.361625	0.572634	0.499897
F277	F	-0.776978	0.652399	-0.000058
F278	F	-0.276978	1.152399	0.499942
H279	H	-0.574207	0.740136	-0.000035
H280	H	-0.074207	1.240136	0.499965
H281	H	-0.734620	-0.136488	-0.271360
H282	H	-0.234620	0.363512	0.228640
F283	F	-0.562602	0.623192	-0.000025
F284	F	-0.062602	1.123192	0.499975
F285	F	-0.567111	0.031201	-0.563992
F286	F	-0.067111	0.531201	-0.063992
H287	H	-0.582043	0.085909	-0.000065
H288	H	-0.082043	0.585909	0.499935
H289	H	-0.768979	-0.170854	-0.443852
H290	H	-0.268979	0.329146	0.056148
H291	H	-0.609989	-0.011784	-0.271432
H292	H	-0.109989	0.488216	0.228568
