data_functionalizedCrystal
_audit_creation_method	'MofGen! by Chris Wilmer'
_symmetry_space_group_name_H-M	'P1'
_symmetry_Int_Tables_number	1
_symmetry_cell_setting	triclinic
loop_
_symmetry_equiv_pos_as_xyz
  x,y,z
_cell_length_a	6.817900
_cell_length_b	11.102188
_cell_length_c	16.305550
_cell_angle_alpha	93.872451
_cell_angle_beta	103.455250
_cell_angle_gamma	108.603875
loop_
_atom_site_label
_atom_site_type_symbol
_atom_site_fract_x
_atom_site_fract_y
_atom_site_fract_z
V1	V	-4.052576	-0.176911	-0.263031
O2	O	-4.012740	0.007398	-0.258024
O3	O	-4.029746	-0.349724	-0.261233
O4	O	-4.003649	-0.174674	-0.377748
O5	O	-4.039018	-0.168864	-0.140702
V6	V	-4.532958	-0.154809	-0.248400
O7	O	-4.320722	-0.225395	-0.295127
O8	O	-4.715009	-0.106325	-0.216304
O9	O	-4.332581	0.018004	-0.250199
O10	O	-4.690191	-0.339118	-0.253407
O11	O	-4.663912	-0.162856	-0.370729
O12	O	-4.358679	-0.157046	-0.133683
C13	C	-3.880985	-0.391837	-0.257083
C14	C	-3.943603	-0.533117	-0.256377
C15	C	-3.930165	-0.581026	-0.178790
C16	C	-3.989024	-0.713775	-0.178130
C17	C	-4.074749	-0.750694	-0.332650
C18	C	-4.015905	-0.617948	-0.333310
C19	C	-3.847693	-0.168542	-0.405710
C20	C	-3.889143	-0.167857	-0.499492
C21	C	-4.039835	-0.165200	-0.840237
C22	C	-3.802613	-0.157314	-0.799308
C23	C	-3.759604	-0.158553	-0.701814
C24	C	-3.965073	-0.166517	-0.671189
C25	C	-4.150787	-0.292033	-0.721816
C26	C	-4.192545	-0.291323	-0.819365
C27	C	-4.077232	-0.048574	-0.794394
C28	C	-4.029155	-0.047580	-0.696551
C29	C	-3.922835	-0.167266	-0.575651
C30	C	-4.082084	-0.164460	-0.935776
C31	C	-4.144685	0.060110	-0.254346
C32	C	-4.061306	0.201389	-0.255057
C33	C	-4.177977	-0.163182	-0.105717
C34	C	-4.115765	-0.163861	-0.011935
H35	H	-3.619675	-0.068308	-0.666790
N36	N	-3.975299	-0.762691	-0.098870
N37	N	-3.910753	-0.686931	-0.030191
H38	H	-3.901061	-0.721476	0.025791
N39	N	-4.163627	-0.402058	-0.857481
N40	N	-4.024341	-0.388739	-0.897539
H41	H	-4.003906	-0.466946	-0.924455
N42	N	-4.148543	-0.837330	-0.411237
N43	N	-4.160515	-0.794532	-0.480506
H44	H	-4.212619	-0.855715	-0.536011
H45	H	-4.026862	-0.578943	-0.396494
N46	N	-4.412666	-0.305111	-0.854472
N47	N	-4.534991	-0.315236	-0.806914
H48	H	-4.690452	-0.324979	-0.831704
N49	N	-3.652546	-0.043562	-0.814820
N50	N	-3.718668	0.033023	-0.856224
H51	H	-3.612684	0.113366	-0.867183
H52	H	-4.305486	-0.302400	-0.702903
N53	N	-3.856373	-0.494375	-0.100210
N54	N	-3.955549	-0.421202	-0.086595
H55	H	-3.903442	-0.360007	-0.031095
N56	N	-4.293930	-0.054378	-0.828033
N57	N	-4.356755	0.030104	-0.799952
H58	H	-4.509797	0.026000	-0.823715
H59	H	-3.769993	-0.241106	-0.830821
H60	H	-4.176210	-0.046019	-0.675203
N61	N	-3.692092	-0.264882	-0.681379
N62	N	-3.676647	-0.338412	-0.739166
H63	H	-3.628971	-0.413514	-0.724737
N64	N	-4.097723	-0.402814	-0.700718
N65	N	-3.923318	-0.389644	-0.648440
H66	H	-3.885828	-0.467880	-0.633539
H67	H	-3.971677	0.046528	-0.807761
N68	N	-3.859961	0.068878	-0.653420
N69	N	-3.692754	0.064399	-0.604172
H70	H	-3.573259	0.146646	-0.573702
