data_functionalizedCrystal
_audit_creation_method	'MofGen! by Chris Wilmer'
_symmetry_space_group_name_H-M	'P1'
_symmetry_Int_Tables_number	1
_symmetry_cell_setting	triclinic
loop_
_symmetry_equiv_pos_as_xyz
  x,y,z
_cell_length_a	21.295417
_cell_length_b	12.759401
_cell_length_c	21.295396
_cell_angle_alpha	89.933068
_cell_angle_beta	89.893877
_cell_angle_gamma	90.029551
loop_
_atom_site_label
_atom_site_type_symbol
_atom_site_fract_x
_atom_site_fract_y
_atom_site_fract_z
Zn1	Zn	-0.250172	1.606642	-0.355860
Zn2	Zn	-0.355579	1.606339	-0.250585
Zn3	Zn	-0.250326	1.430795	-0.250610
Zn4	Zn	-0.355406	1.430884	-0.355823
O5	O	-0.302871	1.518665	-0.303219
O6	O	-0.264163	1.753623	-0.341900
O7	O	-0.341754	1.582889	-0.162499
O8	O	-0.162216	1.454211	-0.264598
O9	O	-0.341605	1.753400	-0.264555
O10	O	-0.162103	1.583405	-0.341924
O11	O	-0.264425	1.453918	-0.162517
O12	O	-0.264257	1.283786	-0.264562
O13	O	-0.341309	1.454362	-0.443917
O14	O	-0.341458	1.283851	-0.341861
O15	O	-0.263995	1.583491	-0.443944
O16	O	-0.443646	1.582975	-0.264519
O17	O	-0.443518	1.454069	-0.341836
C18	C	-0.302856	1.245698	-0.303211
C19	C	-0.302865	1.128921	-0.303222
C20	C	-0.262617	1.074168	-0.343558
C21	C	-0.262629	0.964444	-0.343562
C22	C	-0.343143	0.964236	-0.262892
C23	C	-0.343127	1.073958	-0.262885
C24	C	-0.222355	1.129131	-0.383894
C25	C	-0.182104	1.074378	-0.424234
C26	C	-0.182116	0.964654	-0.424238
C27	C	-0.222379	0.909683	-0.383902
C28	C	-0.466423	1.518527	-0.303184
C29	C	-0.536391	1.518564	-0.303191
C30	C	-0.569303	1.585746	-0.262973
C31	C	-0.635045	1.585795	-0.262987
C32	C	-0.667873	1.518644	-0.303212
C33	C	-0.634953	1.451458	-0.343438
C34	C	-0.569212	1.451418	-0.343427
N35	N	-0.771132	1.426744	-0.308008
N36	N	-0.833583	1.426785	-0.308015
C37	C	-0.865948	1.518762	-0.303248
N38	N	-0.833502	1.610699	-0.298463
N39	N	-0.771044	1.610657	-0.298453
C40	C	-0.739158	1.518680	-0.303229
C41	C	-0.970145	1.586002	-0.263044
C42	C	-1.035889	1.586053	-0.263062
C43	C	-1.035796	1.451707	-0.343510
C44	C	-0.970053	1.451666	-0.343495
C45	C	-0.937232	1.518812	-0.303258
C46	C	-0.138680	1.518832	-0.303268
C47	C	-0.068712	1.518903	-0.303289
C48	C	-0.302615	1.518970	-0.467410
C49	C	-0.302507	1.519100	-0.537378
C50	C	-0.302886	1.792698	-0.303228
C51	C	-0.302893	1.909475	-0.303232
C52	C	-0.303080	1.518422	-0.139667
C53	C	-0.303011	1.518495	-0.069699
C54	C	-0.262566	1.451440	0.429718
C55	C	-0.262631	1.451358	0.363976
C56	C	-0.302629	1.518954	0.331139
C57	C	-0.342577	1.586620	0.364050
C58	C	-0.342515	1.586692	0.429792
N59	N	-0.307159	1.610857	0.227831
N60	N	-0.307213	1.610785	0.165380
C61	C	-0.302816	1.518738	0.133065
N62	N	-0.298350	1.426763	0.165561
N63	N	-0.298293	1.426837	0.228018
C64	C	-0.302700	1.518883	0.259854
C65	C	-0.262944	1.450983	0.028876
C66	C	-0.263012	1.450899	-0.036867
C67	C	-0.342955	1.586170	-0.036791
C68	C	-0.342889	1.586245	0.028951
C69	C	-0.302880	1.518652	0.061781
H70	H	-0.375924	0.919470	-0.230054
C71	C	-0.387406	1.134190	-0.218524
H72	H	-0.411395	1.085743	-0.194510
H73	H	-0.363324	1.176952	-0.191139
H74	H	-0.414828	1.177025	-0.242560
H75	H	-0.230104	1.396262	0.337181
H76	H	-0.542582	1.640422	-0.230211
C77	C	-0.386571	1.660978	0.327933
H78	H	-0.380882	1.651253	0.284067
H79	H	-0.428921	1.646083	0.338839
H80	H	-0.377042	1.731480	0.338605
H81	H	-0.230366	1.395944	0.055608
C82	C	-0.671256	1.659689	-0.218740
H83	H	-0.642293	1.699666	-0.194773
H84	H	-0.696833	1.705496	-0.242843
H85	H	-0.696975	1.619481	-0.191297
C86	C	-0.222338	1.249823	-0.383890
H87	H	-0.192593	1.274717	-0.413686
H88	H	-0.262958	1.274646	-0.394694
H89	H	-0.211441	1.274564	-0.343285
H90	H	-1.062685	1.640767	-0.230313
H91	H	-0.149319	1.119142	-0.457070
H92	H	-0.230490	1.395794	-0.063656
C93	C	-0.218565	1.377084	0.465831
H94	H	-0.224245	1.386820	0.509697
H95	H	-0.228088	1.306585	0.455158
H96	H	-0.176213	1.391990	0.454923
H97	H	-0.661686	1.396785	-0.376191
C98	C	-0.386448	1.661128	0.465987
H99	H	-0.410277	1.701380	0.437017
H100	H	-0.414020	1.621273	0.491756
H101	H	-0.362143	1.706672	0.491511
C102	C	-0.533004	1.377514	-0.387666
H103	H	-0.489150	1.387112	-0.381900
H104	H	-0.543835	1.306925	-0.378422
H105	H	-0.543682	1.392929	-0.429974
C106	C	-0.222393	0.788989	-0.383908
H107	H	-0.192658	0.764250	-0.413711
H108	H	-0.211512	0.764082	-0.343309
H109	H	-0.263022	0.764176	-0.394725
C110	C	-0.386819	1.660677	0.065149
H111	H	-0.381058	1.651033	0.109005
H112	H	-0.377317	1.731153	0.054272
H113	H	-0.429190	1.645747	0.054509
C114	C	-0.934039	1.659869	-0.218793
H115	H	-0.963059	1.699900	-0.194848
H116	H	-0.908471	1.619653	-0.191338
H117	H	-0.908321	1.705643	-0.242898
C118	C	-1.071898	1.377847	-0.387761
H119	H	-1.115766	1.387489	-0.382007
H120	H	-1.061028	1.393239	-0.430061
H121	H	-1.061182	1.307240	-0.378507
H122	H	-0.375521	1.641211	-0.063526
C123	C	-0.137842	0.904428	-0.468608
H124	H	-0.113867	0.952880	-0.492631
H125	H	-0.110417	0.861587	-0.444585
H126	H	-0.161935	0.861673	-0.495994
C127	C	-0.933848	1.377752	-0.387728
H128	H	-0.962813	1.337758	-0.411683
H129	H	-0.908123	1.417934	-0.415172
H130	H	-0.908278	1.331945	-0.363612
