data_functionalizedCrystal
_audit_creation_method	'MofGen! by Chris Wilmer'
_symmetry_space_group_name_H-M	'P1'
_symmetry_Int_Tables_number	1
_symmetry_cell_setting	triclinic
loop_
_symmetry_equiv_pos_as_xyz
  x,y,z
_cell_length_a	10.540539
_cell_length_b	11.026607
_cell_length_c	9.483290
_cell_angle_alpha	98.124220
_cell_angle_beta	100.382227
_cell_angle_gamma	96.555754
loop_
_atom_site_label
_atom_site_type_symbol
_atom_site_fract_x
_atom_site_fract_y
_atom_site_fract_z
O1	O	-1.701791	-0.154306	0.120814
O2	O	-1.201791	0.345694	0.620814
O3	O	-1.335912	-0.170448	0.120831
O4	O	-0.835912	0.329552	0.620831
O5	O	-1.488529	0.014538	0.120819
O6	O	-0.988529	0.514538	0.620819
O7	O	-1.549174	-0.339293	0.120826
O8	O	-1.049174	0.160707	0.620826
O9	O	-1.531796	-0.019574	-0.120958
O10	O	-1.031796	0.480426	0.379042
O11	O	-1.379179	-0.204561	-0.120946
O12	O	-0.879179	0.295439	0.379054
O13	O	-1.745058	-0.188419	-0.120963
O14	O	-1.245058	0.311581	0.379037
Cu15	Cu	-1.566069	-0.199605	-0.143030
Cu16	Cu	-1.066069	0.300395	0.356970
Cu17	Cu	-1.514901	-0.159262	0.142899
Cu18	Cu	-1.014901	0.340738	0.642899
O19	O	-1.592441	-0.373405	-0.120950
O20	O	-1.092441	0.126595	0.379050
C21	C	-1.309976	-0.186294	-0.000055
C22	C	-0.809976	0.313706	0.499945
C23	C	-1.168234	-0.182670	-0.000048
C24	C	-0.668234	0.317330	0.499952
C25	C	-1.498973	0.042790	-0.000067
C26	C	-0.998973	0.542790	0.499933
C27	C	-1.465619	0.177794	-0.000061
C28	C	-0.965619	0.677794	0.499939
C29	C	-1.770993	-0.172573	-0.000074
C30	C	-1.270993	0.327427	0.499926
C31	C	-1.912734	-0.176195	-0.000071
C32	C	-1.412734	0.323805	0.499929
C33	C	-0.954505	-0.043946	-0.000616
C34	C	-0.454505	0.456054	0.499384
C35	C	-1.101827	-0.047539	-0.000056
C36	C	-0.601827	0.452461	0.499944
C37	C	-1.096099	-0.228222	0.138014
C38	C	-0.596099	0.271778	0.638014
C39	C	-0.948526	-0.223596	0.138115
C40	C	-0.448526	0.276404	0.638115
C41	C	-0.997842	-0.265138	-0.136831
C42	C	-0.497842	0.234862	0.363169
C43	C	-1.145421	-0.266638	-0.138640
C44	C	-0.645421	0.233362	0.361360
C45	C	-1.581996	-0.401657	-0.000061
C46	C	-1.081996	0.098343	0.499939
C47	C	-1.615348	-0.536659	-0.000058
C48	C	-1.115348	-0.036659	0.499942
N49	N	-1.602067	-0.227978	-0.344137
N50	N	-1.102067	0.272022	0.155863
C51	C	-1.557712	0.250801	-0.000063
C52	C	-1.057712	0.750801	0.499937
C53	C	-1.523242	0.390335	-0.000056
C54	C	-1.023242	0.890335	0.499944
C55	C	-1.525503	-0.167625	-0.416364
C56	C	-1.025503	0.332375	0.083636
C57	C	-1.555487	-0.191241	-0.583771
C58	C	-1.055487	0.308759	-0.083771
N59	N	-1.478911	-0.130879	0.344006
N60	N	-0.978911	0.369121	0.844006
H61	H	-1.150944	-0.010333	-0.099025
H62	H	-0.650944	0.489667	0.400975
Br63	Br	-1.701741	-0.306522	-0.687254
Br64	Br	-1.201741	0.193478	-0.187254
H65	H	-0.975445	-0.236171	-0.241481
H66	H	-0.475445	0.263829	0.258519
Br67	Br	-1.119937	-0.128770	0.309273
Br68	Br	-0.619937	0.371230	0.809273
Br69	Br	-1.226605	-0.211336	-0.308879
Br70	Br	-0.726605	0.288664	0.191121
H71	H	-1.719699	0.422567	0.000046
H72	H	-1.219699	0.922567	0.500046
Br73	Br	-1.349279	0.458315	-0.000027
Br74	Br	-0.849279	0.958315	0.499973
Br75	Br	-0.916898	0.021752	-0.165646
Br76	Br	-0.416898	0.521752	0.334354
Br77	Br	-0.855375	0.067822	0.163475
Br78	Br	-0.355375	0.567822	0.663475
H79	H	-1.391151	-0.061727	-0.593902
H80	H	-0.891151	0.438273	-0.093902
H81	H	-1.689809	-0.297139	-0.406237
H82	H	-1.189809	0.202861	0.093763
H83	H	-0.891320	-0.160971	0.241316
H84	H	-0.391320	0.339029	0.741316
Br85	Br	-1.123018	0.061319	0.165469
Br86	Br	-0.623018	0.561319	0.665469
Br87	Br	-1.291663	0.245780	-0.000031
Br88	Br	-0.791663	0.745780	0.499969
Br89	Br	-1.731662	0.182820	-0.000056
Br90	Br	-1.231662	0.682820	0.499944
Br91	Br	-0.902176	-0.384098	0.148562
Br92	Br	-0.402176	0.115902	0.648562
H93	H	-1.139269	-0.326735	0.143153
H94	H	-0.639269	0.173265	0.643153
H95	H	-1.192718	-0.366334	-0.146974
H96	H	-0.692718	0.133666	0.353026
H97	H	-0.972161	-0.362875	-0.137761
H98	H	-0.472161	0.137125	0.362239
H99	H	-1.437751	-0.098476	-0.354265
H100	H	-0.937751	0.401524	0.145735
