data_functionalizedCrystal
_audit_creation_method	'MofGen! by Chris Wilmer'
_symmetry_space_group_name_H-M	'P1'
_symmetry_Int_Tables_number	1
_symmetry_cell_setting	triclinic
loop_
_symmetry_equiv_pos_as_xyz
  x,y,z
_cell_length_a	10.654543
_cell_length_b	10.654550
_cell_length_c	9.130313
_cell_angle_alpha	90.004369
_cell_angle_beta	89.998857
_cell_angle_gamma	84.483552
loop_
_atom_site_label
_atom_site_type_symbol
_atom_site_fract_x
_atom_site_fract_y
_atom_site_fract_z
O1	O	-1.667844	-0.176358	-0.121641
O2	O	-1.302365	-0.193173	-0.121679
O3	O	-1.493508	-0.002026	-0.121650
O4	O	-1.476702	-0.367505	-0.121670
O5	O	-1.493494	-0.002021	0.121949
O6	O	-1.302352	-0.193168	0.121920
O7	O	-1.667831	-0.176353	0.121957
Cu8	Cu	-1.485090	-0.184760	0.144181
Cu9	Cu	-1.485106	-0.184766	-0.143903
O10	O	-1.476688	-0.367500	0.121929
C11	C	-1.255560	-0.191938	0.000116
C12	C	-1.116116	-0.188249	0.000102
C13	C	-1.036631	-0.300793	0.000098
C14	C	-0.905609	-0.297319	0.000120
C15	C	-0.933573	-0.068749	0.000144
C16	C	-1.064591	-0.072224	0.000132
C17	C	-0.714635	-0.177595	0.000152
C18	C	-0.854077	-0.181301	0.000135
N19	N	-1.485088	-0.184754	0.346804
C20	C	-1.492267	0.044774	0.000148
C21	C	-1.488575	0.184217	0.000146
C22	C	-1.477929	-0.414300	0.000127
C23	C	-1.481621	-0.553744	0.000120
C24	C	-1.601117	0.263706	0.000157
C25	C	-1.597641	0.394726	0.000139
C26	C	-1.369070	0.366758	0.000105
C27	C	-1.372548	0.235740	0.000112
N28	N	-1.485117	-0.184762	-0.346525
C29	C	-1.569755	-0.100150	0.423468
C30	C	-1.569767	-0.100151	0.576805
C31	C	-1.400442	-0.269370	0.576799
C32	C	-1.400424	-0.269363	0.423465
H33	H	-1.695593	0.221761	0.000181
O34	O	-1.652136	-0.017923	0.651050
C35	C	-1.820034	0.149968	0.634863
C36	C	-1.726837	0.056886	0.550601
H37	H	-1.880436	0.210493	0.553688
H38	H	-1.883332	0.095222	0.706598
H39	H	-1.765258	0.213159	0.706703
H40	H	-1.781511	-0.006328	0.478682
H41	H	-1.663540	0.111710	0.478960
H42	H	-0.840896	-0.388964	0.000119
O43	O	-1.318035	-0.351431	0.651210
C44	C	-1.100306	-0.423039	0.698085
C45	C	-1.193492	-0.330012	0.613753
H46	H	-0.999594	-0.405772	0.667809
H47	H	-1.114756	-0.408512	0.820863
H48	H	-1.117597	-0.523775	0.667937
H49	H	-1.176258	-0.229239	0.643779
H50	H	-1.179021	-0.344649	0.490996
O51	O	-1.318301	-0.351730	0.349052
C52	C	-1.246539	-0.569425	0.302167
C53	C	-1.339632	-0.476294	0.386504
H54	H	-1.263735	-0.670155	0.332439
H55	H	-1.261066	-0.554992	0.179390
H56	H	-1.145824	-0.552059	0.332314
H57	H	-1.440383	-0.493603	0.356479
H58	H	-1.324995	-0.490748	0.509261
H59	H	-0.891604	0.025715	0.000177
O60	O	-1.141633	0.037226	0.000069
C61	C	-1.155554	0.264303	0.000185
C62	C	-1.068161	0.140456	0.000214
H63	H	-1.096187	0.347797	0.000332
H64	H	-1.217563	0.268476	-0.101788
H65	H	-1.217624	0.268314	0.102104
H66	H	-1.006012	0.136362	-0.101636
H67	H	-1.006238	0.136334	0.102254
H68	H	-1.638692	-0.031256	0.361054
O69	O	-1.707082	0.471761	0.000219
C70	C	-1.934159	0.485666	0.000173
C71	C	-1.810307	0.398281	0.000119
H72	H	-2.017648	0.426294	0.000061
H73	H	-1.938323	0.547695	0.102136
H74	H	-1.938187	0.547717	-0.101755
H75	H	-1.806195	0.336152	0.101978
H76	H	-1.806193	0.336338	-0.101912
H77	H	-1.274605	0.408724	0.000080
H78	H	-1.078578	-0.395268	0.000084
H79	H	-1.280897	0.171016	0.000099
