data_functionalizedCrystal
_audit_creation_method	'MofGen! by Chris Wilmer'
_symmetry_space_group_name_H-M	'P1'
_symmetry_Int_Tables_number	1
_symmetry_cell_setting	triclinic
loop_
_symmetry_equiv_pos_as_xyz
  x,y,z
_cell_length_a	10.654550
_cell_length_b	9.065218
_cell_length_c	9.130313
_cell_angle_alpha	89.997322
_cell_angle_beta	89.999724
_cell_angle_gamma	84.750408
loop_
_atom_site_label
_atom_site_type_symbol
_atom_site_fract_x
_atom_site_fract_y
_atom_site_fract_z
O1	O	1.668660	0.207235	-0.121684
O2	O	1.303260	0.226979	-0.121710
O3	O	1.493513	0.002423	-0.121693
O4	O	1.478407	0.431791	-0.121700
O5	O	1.493500	0.002417	0.121906
O6	O	1.303247	0.226972	0.121889
O7	O	1.668647	0.207228	0.121915
Cu8	Cu	1.485946	0.217100	0.144145
Cu9	Cu	1.485961	0.217107	-0.143939
O10	O	1.478394	0.431784	0.121899
C11	C	1.256450	0.225526	0.000086
C12	C	1.116989	0.221188	0.000076
C13	C	1.492055	-0.052559	0.000104
C14	C	1.487714	-0.216378	0.000096
C15	C	1.038027	0.353403	0.000078
C16	C	0.906990	0.349319	0.000104
C17	C	0.933890	0.080794	0.000119
C18	C	1.064924	0.084879	0.000104
C19	C	1.715457	0.208681	0.000116
C20	C	1.854918	0.213019	0.000117
C21	C	1.479852	0.486766	0.000098
C22	C	1.484193	0.650585	0.000096
N23	N	1.485944	0.217093	0.346767
N24	N	1.485973	0.217102	-0.346562
C25	C	1.570217	0.117702	0.423427
C26	C	1.570229	0.117703	0.576763
C27	C	1.401691	0.316498	0.576768
C28	C	1.401674	0.316489	0.423434
H29	H	0.842704	0.456982	0.000108
O30	O	1.088754	0.485717	0.000255
C31	C	1.221034	0.646209	0.126473
C32	C	1.163699	0.496297	0.126434
H33	H	1.281618	0.654825	0.228493
H34	H	1.281781	0.654860	0.024587
H35	H	1.142064	0.739980	0.126409
H36	H	1.242587	0.402439	0.126549
H37	H	1.102920	0.487775	0.228311
H38	H	1.333043	0.397426	0.361014
O39	O	0.883104	-0.051484	0.000069
C40	C	0.693161	-0.176787	0.000179
C41	C	0.750504	-0.026880	0.000207
H42	H	0.585947	-0.156947	0.000322
H43	H	0.725459	-0.242215	-0.101790
H44	H	0.725638	-0.242190	0.102102
H45	H	0.718054	0.038643	-0.101647
H46	H	0.718211	0.038435	0.102243
O47	O	1.141584	-0.043603	-0.000160
C48	C	1.204617	-0.271900	-0.126307
C49	C	1.117749	-0.126445	-0.126215
H50	H	1.185358	-0.338932	-0.228195
H51	H	1.307236	-0.245650	-0.126411
H52	H	1.185503	-0.338848	-0.024309
H53	H	1.136751	-0.059425	-0.228196
H54	H	1.015157	-0.152798	-0.126035
O55	O	1.319666	0.412901	0.651184
C56	C	1.102272	0.497021	0.698068
C57	C	1.195024	0.387735	0.613730
H58	H	1.001479	0.476733	0.667794
H59	H	1.116653	0.479955	0.820845
H60	H	1.120031	0.615367	0.667922
H61	H	1.177321	0.269346	0.643752
H62	H	1.180621	0.404930	0.490973
H63	H	1.638833	0.036766	0.361008
H64	H	1.638850	0.036768	0.639175
