data_functionalizedCrystal
_audit_creation_method	'MofGen! by Chris Wilmer'
_symmetry_space_group_name_H-M	'P1'
_symmetry_Int_Tables_number	1
_symmetry_cell_setting	triclinic
loop_
_symmetry_equiv_pos_as_xyz
  x,y,z
_cell_length_a	14.971475
_cell_length_b	23.532407
_cell_length_c	13.448316
_cell_angle_alpha	89.988737
_cell_angle_beta	90.005879
_cell_angle_gamma	96.770822
loop_
_atom_site_label
_atom_site_type_symbol
_atom_site_fract_x
_atom_site_fract_y
_atom_site_fract_z
O1	O	-1.186170	0.074187	-0.082682
O2	O	-0.925674	0.083081	-0.082690
O3	O	-1.063777	-0.004264	-0.082667
O4	O	-1.048067	0.161532	-0.082704
O5	O	-1.063760	-0.004270	0.082716
O6	O	-0.925657	0.083076	0.082694
O7	O	-1.186152	0.074182	0.082702
Cu8	Cu	-1.055903	0.078628	0.097799
Cu9	Cu	-1.055923	0.078634	-0.097787
O10	O	-1.048049	0.161527	0.082679
C11	C	-0.892345	0.082682	0.000001
C12	C	-0.793060	0.081493	-0.000001
C13	C	-0.746412	0.080930	0.090151
C14	C	-0.653125	0.079804	0.090152
C15	C	-0.606487	0.079245	-0.000000
C16	C	-0.653142	0.079806	-0.090159
C17	C	-0.746428	0.080928	-0.090159
C18	C	-0.458704	0.077470	-0.090153
C19	C	-0.365411	0.076349	-0.090154
C20	C	-0.365401	0.076346	0.090157
C21	C	-0.458687	0.077467	0.090157
C22	C	-0.505335	0.078030	-0.000002
C23	C	-1.063368	-0.025485	0.000027
C24	C	-1.062166	-0.088707	0.000035
C25	C	-1.136348	-0.487494	-0.000018
C26	C	-1.135230	-0.546899	-0.000025
O27	O	-1.203998	-0.583351	-0.000060
N28	N	-1.053128	-0.569875	-0.000027
C29	C	-0.972138	-0.533442	-0.000031
O30	O	-0.902201	-0.558440	-0.000034
C31	C	-0.973257	-0.474038	-0.000031
C32	C	-1.055364	-0.451066	-0.000019
C33	C	-1.218449	-0.464521	-0.000007
C34	C	-1.219566	-0.405120	0.000002
C35	C	-1.138582	-0.368692	0.000001
C36	C	-1.056481	-0.391665	-0.000010
C37	C	-0.892267	-0.437607	-0.000042
C38	C	-0.893393	-0.378199	-0.000042
C39	C	-0.975500	-0.355227	-0.000031
C40	C	-0.976614	-0.295836	-0.000001
N41	N	-1.058716	-0.272860	0.000000
C42	C	-1.139700	-0.309288	0.000002
C43	C	-0.969796	-0.658195	-0.000034
C44	C	-0.968677	-0.717597	-0.000027
C45	C	-1.131769	-0.731050	-0.000023
C46	C	-1.132888	-0.671646	-0.000023
C47	C	-1.051898	-0.635219	-0.000032
C48	C	-1.142040	-0.184542	0.000022
C49	C	-1.143150	-0.125135	0.000036
C50	C	-0.980057	-0.111687	0.000027
C51	C	-0.978947	-0.171089	0.000018
C52	C	-1.059946	-0.207515	0.000013
O53	O	-0.907883	-0.259350	0.000029
O54	O	-1.209625	-0.284283	-0.000008
C55	C	-0.219481	0.074585	0.000007
C56	C	-0.318763	0.075786	-0.000002
C57	C	-1.048458	0.182747	-0.000017
C58	C	-1.049661	0.245969	-0.000031
N59	N	-1.055895	0.078623	0.235363
N60	N	-1.055938	0.078635	-0.235351
C61	C	-1.117066	0.039963	0.287413
C62	C	-1.117072	0.039962	0.391517
C63	C	-1.055910	0.078626	0.443568
C64	C	-0.994733	0.117288	0.391510
C65	C	-0.994724	0.117285	0.287409
C66	C	-0.994758	0.117292	0.608490
C67	C	-0.994768	0.117295	0.712599
C68	C	-1.117106	0.039969	0.712598
C69	C	-1.117096	0.039966	0.608497
C70	C	-1.055920	0.078629	0.556446
H71	H	-0.784408	0.081388	-0.163569
Br72	Br	-1.241677	-0.780500	-0.000026
Br73	Br	-0.870156	-0.062238	0.000025
Br74	Br	-0.589817	0.079050	0.212506
H75	H	-1.166881	0.008482	0.433895
H76	H	-1.199747	-0.652947	-0.000014
H77	H	-1.207997	-0.214194	0.000014
H78	H	-0.496656	0.077926	0.163567
Br79	Br	-0.522013	0.078229	-0.212513
H80	H	-1.284399	-0.494176	-0.000010
H81	H	-1.166917	0.008488	0.754983
H82	H	-0.944963	0.148778	0.754974
Br83	Br	-0.302093	0.075585	0.212516
Br84	Br	-1.200109	-0.012500	0.537852
H85	H	-1.210014	-0.106435	0.000048
Br86	Br	-0.911727	0.169762	0.537854
Br87	Br	-1.331003	-0.373953	-0.000010
Br88	Br	-0.589854	0.079023	-0.212510
Br89	Br	-0.857241	-0.748766	-0.000020
Br90	Br	-0.911697	0.169752	0.216769
H91	H	-0.944929	0.148766	0.433896
Br92	Br	-0.859871	-0.608762	-0.000038
H93	H	-0.784376	0.081390	0.163563
Br94	Br	-0.302117	0.075590	-0.212504
H95	H	-0.825407	-0.456300	-0.000058
Br96	Br	-0.783472	-0.328765	-0.000060
H97	H	-0.912089	-0.189793	0.000036
H98	H	-1.166874	0.008481	0.245040
