data_functionalizedCrystal
_audit_creation_method	'MofGen! by Chris Wilmer'
_symmetry_space_group_name_H-M	'P1'
_symmetry_Int_Tables_number	1
_symmetry_cell_setting	triclinic
loop_
_symmetry_equiv_pos_as_xyz
  x,y,z
_cell_length_a	9.065218
_cell_length_b	16.176319
_cell_length_c	9.065215
_cell_angle_alpha	90.005797
_cell_angle_beta	85.015291
_cell_angle_gamma	90.007458
loop_
_atom_site_label
_atom_site_type_symbol
_atom_site_fract_x
_atom_site_fract_y
_atom_site_fract_z
O1	O	1.960405	0.068747	0.216361
O2	O	1.531120	0.068748	0.234107
O3	O	1.754638	0.068744	0.010591
O4	O	1.736887	0.068751	0.439877
O5	O	1.754607	-0.068749	0.010577
O6	O	1.531089	-0.068745	0.234093
O7	O	1.960374	-0.068746	0.216346
Cu8	Cu	1.745728	-0.081300	0.225218
Cu9	Cu	1.745766	0.081302	0.225236
O10	O	1.736856	-0.068742	0.439862
C11	C	1.476118	0.000001	0.232394
C12	C	1.312275	0.000002	0.227295
N13	N	1.745713	-0.195665	0.225205
C14	C	1.844718	-0.238931	0.126273
C15	C	1.844725	-0.325478	0.126272
C16	C	1.745734	-0.368758	0.225210
C17	C	1.646719	-0.325486	0.324146
C18	C	1.646705	-0.238940	0.324139
C19	C	1.646770	-0.674514	0.324175
C20	C	1.646794	-0.761066	0.324177
C21	C	1.844789	-0.761052	0.126307
C22	C	1.844776	-0.674507	0.126300
C23	C	1.745756	-0.631242	0.225230
C24	C	1.745747	-0.537398	0.225229
C25	C	1.745749	-0.462600	0.225220
C26	C	2.015376	0.000002	0.218059
C27	C	2.179219	0.000007	0.223159
C28	C	1.752917	-0.000002	-0.044403
C29	C	1.747819	0.000001	-0.208246
N30	N	1.745792	0.195667	0.225237
C31	C	1.738576	0.000005	0.494856
C32	C	1.743674	0.000008	0.658699
H33	H	1.925334	-0.203699	0.045713
O34	O	1.940866	-0.632361	0.030282
C35	C	2.141507	-0.534364	0.001263
C36	C	2.032941	-0.582100	0.110248
H37	H	2.215957	-0.493704	0.065872
H38	H	2.212393	-0.580038	-0.069593
H39	H	2.076460	-0.493967	-0.073191
H40	H	2.097869	-0.622499	0.184797
H41	H	1.962054	-0.536381	0.181000
H42	H	1.925341	-0.360705	0.045714
O43	O	1.940899	-0.802992	0.029985
C44	C	2.023886	-0.829515	-0.225388
C45	C	1.914985	-0.781955	-0.116474
H46	H	2.002952	-0.812538	-0.343824
H47	H	2.142349	-0.812470	-0.204636
H48	H	2.006909	-0.898801	-0.208322
H49	H	1.931827	-0.712658	-0.133476
H50	H	1.796561	-0.799069	-0.137253
H51	H	1.566178	-0.796302	0.404747
O52	O	1.550805	-0.632408	0.420358
C53	C	1.522074	-0.534740	0.621525
C54	C	1.630917	-0.582360	0.512644
H55	H	1.586803	-0.494278	0.696187
H56	H	1.447514	-0.494178	0.556890
H57	H	1.451315	-0.580563	0.692172
H58	H	1.701774	-0.536596	0.441970
H59	H	1.705376	-0.622934	0.577368
H60	H	1.566111	-0.360729	0.404699
O61	O	1.550483	-0.197037	0.420387
C62	C	1.354032	-0.206179	0.616594
C63	C	1.462956	-0.253735	0.507700
H64	H	1.283217	-0.251998	0.687194
H65	H	1.418630	-0.165667	0.691296
H66	H	1.279536	-0.165654	0.551825
H67	H	1.537478	-0.294305	0.572349
H68	H	1.398265	-0.294194	0.432997
