data_functionalizedCrystal
_audit_creation_method	'MofGen! by Chris Wilmer'
_symmetry_space_group_name_H-M	'P1'
_symmetry_Int_Tables_number	1
_symmetry_cell_setting	triclinic
loop_
_symmetry_equiv_pos_as_xyz
  x,y,z
_cell_length_a	16.109318
_cell_length_b	23.532407
_cell_length_c	15.186229
_cell_angle_alpha	89.991614
_cell_angle_beta	90.000224
_cell_angle_gamma	83.158621
loop_
_atom_site_label
_atom_site_type_symbol
_atom_site_fract_x
_atom_site_fract_y
_atom_site_fract_z
O1	O	1.102546	0.073249	-0.073165
O2	O	0.860414	0.082348	-0.073184
O3	O	0.988781	-0.005106	-0.073157
O4	O	0.974178	0.160703	-0.073191
O5	O	0.988773	-0.005107	0.073300
O6	O	0.860406	0.082347	0.073274
O7	O	1.102537	0.073248	0.073293
Zn8	Zn	0.981470	0.077797	0.096537
Zn9	Zn	0.981481	0.077799	-0.096427
O10	O	0.974170	0.160702	0.073267
C11	C	0.829438	0.081978	0.000043
C12	C	0.737152	0.080867	0.000036
C13	C	0.438111	0.077282	-0.079781
C14	C	0.524825	0.078321	-0.079787
C15	C	0.524834	0.078312	0.079889
C16	C	0.438123	0.077269	0.079894
C17	C	0.394764	0.076757	0.000056
C18	C	0.568188	0.078840	0.000046
C19	C	0.662206	0.079967	0.000040
C20	C	0.300740	0.075629	0.000061
C21	C	0.988405	-0.026324	0.000074
C22	C	0.987287	-0.089545	0.000080
C23	C	1.056240	-0.488391	0.000037
C24	C	1.055201	-0.547795	0.000031
O25	O	1.119121	-0.584301	0.000003
N26	N	0.978887	-0.570706	0.000025
C27	C	0.903606	-0.534209	0.000018
O28	O	0.838600	-0.559151	0.000012
C29	C	0.904646	-0.474806	0.000018
C30	C	0.980965	-0.451899	0.000032
C31	C	1.132553	-0.465483	0.000051
C32	C	1.133591	-0.406083	0.000059
C33	C	1.058316	-0.369591	0.000054
C34	C	0.982003	-0.392499	0.000041
C35	C	0.829366	-0.438311	0.000004
C36	C	0.830412	-0.378904	0.000004
C37	C	0.906731	-0.355997	0.000018
C38	C	0.907767	-0.296607	0.000044
N39	N	0.984081	-0.273696	0.000050
C40	C	1.059356	-0.310188	0.000055
C41	C	0.901429	-0.658960	0.000015
C42	C	0.900389	-0.718362	0.000021
C43	C	1.051984	-0.731943	0.000032
C44	C	1.053024	-0.672540	0.000033
C45	C	0.977743	-0.636049	0.000021
C46	C	1.061530	-0.185443	0.000073
C47	C	1.062562	-0.126037	0.000085
C48	C	0.910967	-0.112461	0.000069
C49	C	0.909935	-0.171861	0.000062
C50	C	0.985224	-0.208352	0.000061
O51	O	0.843881	-0.260066	0.000068
O52	O	1.124352	-0.285237	0.000049
C53	C	1.133513	0.073619	0.000064
C54	C	1.225799	0.074729	0.000065
C55	C	0.974546	0.181920	0.000034
C56	C	0.975664	0.245141	0.000021
N57	N	0.981468	0.077796	0.228229
N58	N	0.981489	0.077796	-0.228120
C59	C	1.038329	0.039084	0.453964
C60	C	1.038331	0.039083	0.546153
C61	C	0.924623	0.116509	0.546139
C62	C	0.924617	0.116508	0.453951
C63	C	0.981475	0.077796	0.407866
C64	C	0.981483	0.077796	0.592243
C65	C	0.981486	0.077795	0.692200
C66	C	0.981471	0.077796	0.307903
H67	H	1.124713	-0.107389	0.000099
O68	O	0.396067	0.076858	-0.157387
C69	C	0.407415	0.126414	-0.205954
H70	H	0.467099	0.143604	-0.183259
H71	H	0.412586	0.115367	-0.278989
H72	H	0.351736	0.160344	-0.194889
O73	O	1.093641	0.001458	0.590796
C74	C	1.143805	-0.032718	0.530347
H75	H	1.144546	-0.009368	0.464628
H76	H	1.210271	-0.041390	0.556982
H77	H	1.117163	-0.075032	0.520553
H78	H	0.767219	-0.456951	-0.000013
O79	O	0.395995	0.076655	0.157431
C80	C	0.355649	0.026763	0.162200
H81	H	0.388646	-0.007370	0.116894
H82	H	0.357967	0.010198	0.232811
H83	H	0.287710	0.037116	0.140754
O84	O	0.869481	0.154094	0.591045
C85	C	0.881664	0.145788	0.682298
H86	H	0.947937	0.124517	0.694890
H87	H	0.872061	0.188916	0.717321
H88	H	0.834845	0.117215	0.708473
H89	H	1.195738	-0.387437	0.000067
O90	O	1.134741	-0.220803	0.000114
C91	C	1.202311	-0.187835	0.000106
H92	H	1.180816	-0.143504	0.027834
H93	H	1.255021	-0.209748	0.042633
H94	H	1.225733	-0.183594	-0.070152
O95	O	0.567078	0.078842	0.157360
C96	C	0.652909	0.079864	0.140239
H97	H	0.661157	0.098028	0.071623
H98	H	0.680358	0.107892	0.191221
H99	H	0.686617	0.034499	0.144029
O100	O	1.205758	-0.500845	0.000098
C101	C	1.273325	-0.467875	0.000086
H102	H	1.251827	-0.423542	0.027806
H103	H	1.326036	-0.489783	0.042618
H104	H	1.296750	-0.463638	-0.070173
H105	H	0.560115	0.078749	-0.144798
H106	H	1.084624	0.007562	0.416443
O107	O	0.828351	-0.623456	0.000133
C108	C	0.824398	-0.588706	0.075997
H109	H	0.890360	-0.585701	0.101288
H110	H	0.793041	-0.544060	0.058938
H111	H	0.786597	-0.608258	0.129108
O112	O	0.869355	0.154170	0.409302
C113	C	0.819163	0.188332	0.469744
H114	H	0.853245	0.188988	0.535458
H115	H	0.806101	0.233809	0.443092
H116	H	0.757559	0.169825	0.479559
H117	H	1.115169	-0.653894	0.000044
O118	O	0.757305	-0.343433	-0.000161
C119	C	0.753384	-0.308646	-0.075998
H120	H	0.796090	-0.330393	-0.129010
H121	H	0.686361	-0.301964	-0.101468
H122	H	0.774528	-0.265451	-0.058840
O123	O	1.125032	-0.767479	-0.000013
C124	C	1.107741	-0.824820	0.000000
H125	H	1.042456	-0.827085	-0.027726
H126	H	1.155746	-0.851731	-0.042525
H127	H	1.111039	-0.842011	0.070261
O128	O	0.826179	-0.740516	-0.000022
C129	C	0.759969	-0.695562	-0.000001
H130	H	0.782939	-0.655207	-0.027720
H131	H	0.706656	-0.707964	-0.042528
H132	H	0.736771	-0.687164	0.070261
H133	H	0.849681	-0.082738	0.000068
O134	O	0.835728	-0.194023	0.000012
C135	C	0.769512	-0.149072	0.000035
H136	H	0.792479	-0.108713	-0.027674
H137	H	0.716206	-0.161474	-0.042501
H138	H	0.746307	-0.140682	0.070296
