data_functionalizedCrystal
_audit_creation_method	'MofGen! by Chris Wilmer'
_symmetry_space_group_name_H-M	'P1'
_symmetry_Int_Tables_number	1
_symmetry_cell_setting	triclinic
loop_
_symmetry_equiv_pos_as_xyz
  x,y,z
_cell_length_a	14.519709
_cell_length_b	10.654550
_cell_length_c	9.130313
_cell_angle_alpha	89.998690
_cell_angle_beta	89.997414
_cell_angle_gamma	84.082524
loop_
_atom_site_label
_atom_site_type_symbol
_atom_site_fract_x
_atom_site_fract_y
_atom_site_fract_z
O1	O	1.224720	0.164614	0.121605
O2	O	0.956343	0.184001	0.121649
O3	O	1.096702	-0.008491	0.121620
O4	O	1.084361	0.357106	0.121633
O5	O	1.096692	-0.008480	-0.121978
O6	O	0.956334	0.184012	-0.121950
O7	O	1.224710	0.164626	-0.121994
Cu8	Cu	1.090521	0.174320	-0.144215
Cu9	Cu	1.090532	0.174307	0.143869
O10	O	1.084351	0.357118	-0.121966
C11	C	1.095791	-0.055275	-0.000177
C12	C	1.093080	-0.194692	-0.000172
C13	C	0.921974	0.183103	-0.000145
C14	C	0.819579	0.180396	-0.000128
C15	C	1.175721	-0.274972	-0.000190
C16	C	1.173168	-0.405968	-0.000179
C17	C	1.005326	-0.376391	-0.000138
C18	C	1.007880	-0.245397	-0.000138
C19	C	1.260921	-0.224266	-0.000223
C20	C	1.343569	-0.304548	-0.000242
C21	C	1.341016	-0.435544	-0.000232
C22	C	1.255815	-0.486259	-0.000201
C23	C	0.444631	0.170428	-0.000195
C24	C	0.548954	0.173196	-0.000176
C25	C	0.632102	0.175412	-0.000160
C26	C	0.736431	0.178180	-0.000144
C27	C	1.259079	0.165524	-0.000197
C28	C	1.361475	0.168231	-0.000205
C29	C	1.085262	0.403901	-0.000165
C30	C	1.087973	0.543318	-0.000161
N31	N	1.090520	0.174329	-0.346837
C32	C	1.146937	0.250661	-0.423510
C33	C	1.146950	0.250638	-0.576847
C34	C	1.034122	0.097947	-0.576824
C35	C	1.034114	0.097964	-0.423490
C36	C	1.203343	0.327026	-0.346857
C37	C	1.259763	0.403365	-0.423530
C38	C	1.259777	0.403342	-0.576867
C39	C	1.203369	0.326979	-0.653531
N40	N	1.090541	0.174288	0.346492
H41	H	1.263009	-0.117604	-0.000236
N42	N	1.435460	-0.249858	-0.000274
H43	H	1.424539	-0.154692	-0.000285
H44	H	1.471648	-0.279220	-0.090590
N45	N	0.918749	-0.158798	-0.000111
H46	H	0.864387	-0.210795	-0.000100
H47	H	0.916148	-0.103798	-0.090413
N48	N	1.203330	0.327041	-0.181475
H49	H	1.183197	0.414960	-0.144555
H50	H	1.267770	0.299027	-0.144650
H51	H	1.408312	-0.500907	-0.000233
H52	H	1.253743	-0.592926	-0.000177
H53	H	0.935960	-0.417694	-0.000116
N54	N	1.203800	0.326384	-0.818912
H55	H	1.159643	0.266242	-0.855837
H56	H	1.268396	0.298256	-0.854988
H57	H	1.305693	0.465530	-0.361100
H58	H	1.305724	0.465492	-0.639290
H59	H	0.988196	0.035778	-0.639256
N60	N	0.973270	0.015632	-0.340780
H61	H	0.937533	-0.032741	-0.412604
H62	H	0.928533	0.070256	-0.277168
