data_functionalizedCrystal
_audit_creation_method	'MofGen! by Chris Wilmer'
_symmetry_space_group_name_H-M	'P1'
_symmetry_Int_Tables_number	1
_symmetry_cell_setting	triclinic
loop_
_symmetry_equiv_pos_as_xyz
  x,y,z
_cell_length_a	16.992694
_cell_length_b	15.455313
_cell_length_c	16.992695
_cell_angle_alpha	92.847427
_cell_angle_beta	90.668223
_cell_angle_gamma	87.142206
loop_
_atom_site_label
_atom_site_type_symbol
_atom_site_fract_x
_atom_site_fract_y
_atom_site_fract_z
O1	O	1.054080	-0.072023	0.163694
O2	O	1.387414	0.261311	0.497028
O3	O	1.720747	0.594644	0.830361
O4	O	0.825681	-0.072048	0.161862
O5	O	1.159015	0.261285	0.495195
O6	O	1.492348	0.594619	0.828529
O7	O	0.938965	-0.072029	0.048579
O8	O	1.272298	0.261305	0.381912
O9	O	1.605632	0.594638	0.715245
O10	O	0.940797	-0.072042	0.276978
O11	O	1.274130	0.261291	0.610311
O12	O	1.607463	0.594625	0.943645
O13	O	0.932485	0.072232	0.055028
O14	O	1.265818	0.405566	0.388361
O15	O	1.599152	0.738899	0.721695
O16	O	0.819202	0.072213	0.168312
O17	O	1.152535	0.405546	0.501645
O18	O	1.485868	0.738880	0.834978
O19	O	1.047601	0.072238	0.170144
O20	O	1.380934	0.405572	0.503477
O21	O	1.714267	0.738905	0.836811
Cu22	Cu	0.932809	0.085398	0.169817
Cu23	Cu	1.266143	0.418731	0.503150
Cu24	Cu	1.599476	0.752065	0.836483
Cu25	Cu	0.940473	-0.085207	0.162189
Cu26	Cu	1.273806	0.248126	0.495523
Cu27	Cu	1.607139	0.581459	0.828856
O28	O	0.934317	0.072219	0.283428
O29	O	1.267650	0.405552	0.616761
O30	O	1.600984	0.738886	0.950094
C31	C	0.793081	0.000079	0.162731
C32	C	1.126415	0.333413	0.496064
C33	C	1.459748	0.666746	0.829398
C34	C	0.705597	0.000070	0.155702
C35	C	1.038931	0.333403	0.489035
C36	C	1.372264	0.666736	0.822368
C37	C	0.933369	0.000102	0.022443
C38	C	1.266703	0.333435	0.355776
C39	C	1.600036	0.666768	0.689110
C40	C	0.926341	0.000101	-0.065041
C41	C	1.259674	0.333434	0.268292
C42	C	1.593007	0.666767	0.601625
N43	N	0.927425	0.205392	0.175181
N44	N	1.260759	0.538726	0.508515
N45	N	1.594092	0.872059	0.841848
C46	C	0.659607	0.000066	0.223520
C47	C	0.992940	0.333400	0.556853
C48	C	1.326273	0.666733	0.890186
C49	C	0.577405	0.000079	0.216911
C50	C	0.910739	0.333412	0.550245
C51	C	1.244072	0.666745	0.883578
C52	C	0.541197	0.000088	0.142484
C53	C	0.874530	0.333421	0.475817
C54	C	1.207863	0.666755	0.809151
C55	C	0.587193	0.000094	0.074661
C56	C	0.920527	0.333427	0.407995
C57	C	1.253860	0.666761	0.741328
C58	C	0.669393	0.000088	0.081271
C59	C	1.002726	0.333421	0.414604
C60	C	1.336059	0.666755	0.747937
C61	C	0.295881	0.000113	0.115091
C62	C	0.629214	0.333446	0.448424
C63	C	0.962548	0.666780	0.781757
C64	C	0.213676	0.000116	0.108486
C65	C	0.547009	0.333450	0.441819
C66	C	0.880342	0.666783	0.775153
C67	C	0.203893	0.000103	0.250737
C68	C	0.537227	0.333436	0.584070
C69	C	0.870560	0.666769	0.917404
C70	C	0.286095	0.000091	0.257340
C71	C	0.619428	0.333425	0.590673
C72	C	0.952762	0.666758	0.924006
C73	C	0.332084	0.000102	0.189517
C74	C	0.665418	0.333435	0.522850
C75	C	0.998751	0.666768	0.856184
N76	N	0.457174	0.000098	0.135727
N77	N	0.790507	0.333431	0.469061
N78	N	1.123841	0.666765	0.802394
N79	N	0.416105	0.000098	0.196275
N80	N	0.749438	0.333431	0.529608
N81	N	1.082772	0.666765	0.862941
C82	C	1.080201	0.000109	0.169275
C83	C	1.413534	0.333443	0.502608
C84	C	1.746867	0.666776	0.835942
C85	C	1.167685	0.000113	0.176304
C86	C	1.501018	0.333446	0.509637
C87	C	1.834352	0.666780	0.842971
N88	N	0.945863	-0.205202	0.156819
N89	N	1.279196	0.128131	0.490152
N90	N	1.612529	0.461465	0.823486
C91	C	0.975571	0.250795	0.127074
C92	C	1.308904	0.584128	0.460408
C93	C	1.642238	0.917462	0.793741
C94	C	0.971507	0.341602	0.131139
C95	C	1.304840	0.674935	0.464473
C96	C	1.638174	1.008269	0.797806
C97	C	0.919301	0.387005	0.183315
C98	C	1.252634	0.720339	0.516649
C99	C	1.585967	1.053672	0.849982
C100	C	0.871149	0.341596	0.231424
C101	C	1.204483	0.674930	0.564757
C102	C	1.537816	1.008263	0.898091
C103	C	0.875210	0.250791	0.227355
C104	C	1.208543	0.584124	0.560688
C105	C	1.541877	0.917458	0.894021
C106	C	0.901772	0.658584	0.200858
C107	C	1.235105	0.991917	0.534192
C108	C	1.568439	1.325250	0.867525
C109	C	0.897717	0.749395	0.204926
C110	C	1.231050	1.082729	0.538259
C111	C	1.564383	1.416062	0.871592
C112	C	0.998074	0.749395	0.104639
C113	C	1.331407	1.082728	0.437973
C114	C	1.664740	1.416062	0.771306
C115	C	1.002133	0.658588	0.100578
C116	C	1.335466	0.991921	0.433911
C117	C	1.668800	1.325254	0.767245
C118	C	0.953979	0.613187	0.148684
C119	C	1.287312	0.946520	0.482017
C120	C	1.620646	1.279853	0.815351
N121	N	0.915147	0.479825	0.187473
N122	N	1.248480	0.813158	0.520806
N123	N	1.581814	1.146491	0.854140
N124	N	0.958129	0.520369	0.144522
N125	N	1.291463	0.853702	0.477855
N126	N	1.624796	1.187036	0.811188
C127	C	0.994158	0.000109	-0.111032
C128	C	1.327492	0.333442	0.222301
C129	C	1.660825	0.666776	0.555635
C130	C	0.987550	0.000100	-0.193233
C131	C	1.320883	0.333433	0.140100
C132	C	1.654216	0.666767	0.473434
C133	C	0.913123	0.000089	-0.229442
C134	C	1.246456	0.333422	0.103891
C135	C	1.579789	0.666756	0.437225
C136	C	0.845300	0.000078	-0.183445
C137	C	1.178633	0.333411	0.149888
C138	C	1.511967	0.666744	0.483221
C139	C	0.851910	0.000081	-0.101246
C140	C	1.185243	0.333414	0.232087
C141	C	1.518576	0.666747	0.565421
C142	C	0.885729	0.000074	-0.474757
C143	C	1.219062	0.333407	-0.141424
C144	C	1.552395	0.666741	0.191910
C145	C	0.879124	0.000074	-0.556962
C146	C	1.212457	0.333407	-0.223629
C147	C	1.545791	0.666740	0.109704
C148	C	1.021375	0.000094	-0.566744
C149	C	1.354708	0.333428	-0.233411
C150	C	1.688041	0.666761	0.099922
C151	C	1.027977	0.000102	-0.484543
C152	C	1.361311	0.333436	-0.151209
C153	C	1.694644	0.666769	0.182124
C154	C	0.960155	0.000087	-0.438554
C155	C	1.293488	0.333420	-0.105220
C156	C	1.626822	0.666753	0.228113
N157	N	0.906366	0.000082	-0.313464
N158	N	1.239699	0.333416	0.019869
N159	N	1.573032	0.666749	0.353202
N160	N	0.966913	0.000087	-0.354533
N161	N	1.300246	0.333420	-0.021200
N162	N	1.633580	0.666754	0.312134
C163	C	0.939913	0.000087	0.309563
C164	C	1.273246	0.333420	0.642896
C165	C	1.606579	0.666754	0.976230
C166	C	0.946942	0.000082	0.397047
C167	C	1.280275	0.333416	0.730381
C168	C	1.613608	0.666749	1.063714
H169	H	0.689081	0.000058	0.284126
H170	H	1.022415	0.333391	0.617459
H171	H	1.355748	0.666725	0.950793
H172	H	1.042774	0.000109	-0.230675
H173	H	1.376107	0.333442	0.102658
H174	H	1.709441	0.666776	0.435991
H175	H	0.315570	0.000074	0.317946
H176	H	0.648904	0.333407	0.651279
H177	H	0.982237	0.666740	0.984612
Cl178	Cl	0.832080	0.806468	0.270526
Cl179	Cl	1.165414	1.139801	0.603860
Cl180	Cl	1.498747	1.473134	0.937193
H181	H	0.796685	0.000073	-0.063801
H182	H	1.130018	0.333407	0.269532
H183	H	1.463352	0.666740	0.602865
H184	H	0.836004	0.213825	0.266527
H185	H	1.169337	0.547158	0.599861
H186	H	1.502670	0.880492	0.933194
Cl187	Cl	0.805513	0.398673	0.297014
Cl188	Cl	1.138847	0.732006	0.630347
Cl189	Cl	1.472180	1.065339	0.963681
H190	H	0.539963	0.000075	0.272136
H191	H	0.873296	0.333408	0.605469
H192	H	1.206630	0.666742	0.938803
H193	H	1.018087	0.213834	0.084591
H194	H	1.351420	0.547167	0.417924
H195	H	1.684753	0.880500	0.751257
Cl196	Cl	0.146074	0.000093	0.335994
Cl197	Cl	0.479407	0.333426	0.669327
Cl198	Cl	0.812740	0.666760	1.002661
H199	H	0.184198	0.000123	0.047876
H200	H	0.517531	0.333457	0.381209
H201	H	0.850864	0.666790	0.714542
Cl202	Cl	0.800465	0.000052	-0.416953
Cl203	Cl	1.133799	0.333385	-0.083620
Cl204	Cl	1.467132	0.666719	0.249714
Cl205	Cl	1.087728	0.000132	-0.065520
Cl206	Cl	1.421062	0.333465	0.267813
Cl207	Cl	1.754395	0.666799	0.601146
Cl208	Cl	0.353686	0.000125	0.029827
Cl209	Cl	0.687019	0.333459	0.363160
Cl210	Cl	1.020352	0.666792	0.696493
H211	H	0.557705	0.000114	0.014061
H212	H	0.891038	0.333448	0.347395
H213	H	1.224372	0.666781	0.680728
Cl214	Cl	0.727210	0.000096	-0.003990
Cl215	Cl	1.060543	0.333429	0.329344
Cl216	Cl	1.393877	0.666763	0.662677
Cl217	Cl	1.121548	0.000088	-0.439031
Cl218	Cl	1.454881	0.333422	-0.105697
Cl219	Cl	1.788215	0.666755	0.227636
H220	H	1.010711	0.378568	0.091966
H221	H	1.344044	0.711902	0.425300
H222	H	1.677377	1.045235	0.758633
H223	H	1.076591	0.000106	-0.604197
H224	H	1.409925	0.333439	-0.270864
H225	H	1.743258	0.666772	0.062469
H226	H	1.044644	0.621622	0.058092
H227	H	1.377977	0.954956	0.391426
H228	H	1.711310	1.288289	0.724759
H229	H	0.784700	0.000063	-0.212933
H230	H	1.118033	0.333396	0.120400
H231	H	1.451367	0.666730	0.453733
Cl232	Cl	0.785551	0.000065	-0.602480
Cl233	Cl	1.118885	0.333398	-0.269147
Cl234	Cl	1.452218	0.666731	0.064186
H235	H	0.862564	0.621625	0.240030
H236	H	1.195898	0.954959	0.573363
H237	H	1.529231	1.288292	0.906696
H238	H	1.037278	0.786369	0.065473
H239	H	1.370611	1.119702	0.398806
H240	H	1.703944	1.453035	0.732140
