data_functionalizedCrystal
_audit_creation_method	'MofGen! by Chris Wilmer'
_symmetry_space_group_name_H-M	'P1'
_symmetry_Int_Tables_number	1
_symmetry_cell_setting	triclinic
loop_
_symmetry_equiv_pos_as_xyz
  x,y,z
_cell_length_a	19.288864
_cell_length_b	15.944551
_cell_length_c	18.366186
_cell_angle_alpha	89.992809
_cell_angle_beta	89.977106
_cell_angle_gamma	83.317492
loop_
_atom_site_label
_atom_site_type_symbol
_atom_site_fract_x
_atom_site_fract_y
_atom_site_fract_z
O1	O	0.921629	0.104784	-0.060785
O2	O	1.421629	0.604784	0.439215
O3	O	0.719405	0.118919	-0.060735
O4	O	1.219405	0.618919	0.439265
O5	O	0.826039	-0.010445	-0.060755
O6	O	1.326039	0.489555	0.439245
O7	O	0.814995	0.234147	-0.060765
O8	O	1.314995	0.734147	0.439235
O9	O	0.826021	-0.010451	0.060345
O10	O	1.326021	0.489549	0.560345
O11	O	0.719387	0.118912	0.060364
O12	O	1.219387	0.618912	0.560364
O13	O	0.921611	0.104777	0.060315
O14	O	1.421611	0.604777	0.560315
Zn15	Zn	0.820496	0.111844	0.079567
Zn16	Zn	1.320496	0.611844	0.579567
Zn17	Zn	0.820520	0.111852	-0.079987
Zn18	Zn	1.320520	0.611852	0.420013
O19	O	0.814977	0.234141	0.060334
O20	O	1.314977	0.734141	0.560334
C21	C	0.693519	0.118461	-0.000179
C22	C	1.193519	0.618461	0.499821
C23	C	0.616411	0.117095	-0.000160
C24	C	1.116411	0.617095	0.499840
C25	C	0.571915	0.193000	-0.000175
C26	C	1.071915	0.693000	0.499825
C27	C	0.499465	0.191717	-0.000183
C28	C	0.999465	0.691717	0.499817
C29	C	0.471514	0.114526	-0.000191
C30	C	0.971514	0.614526	0.499809
C31	C	0.516020	0.038611	-0.000172
C32	C	1.016020	0.538611	0.499828
C33	C	0.588469	0.039896	-0.000156
C34	C	1.088469	0.539896	0.499844
C35	C	0.363098	0.053847	-0.042639
C36	C	0.863098	0.553847	0.457361
C37	C	0.290650	0.052565	-0.042659
C38	C	0.790650	0.552565	0.457341
C39	C	0.248058	0.110560	-0.000234
C40	C	0.748058	0.610560	0.499766
C41	C	0.277920	0.169850	0.042200
C42	C	0.777920	0.669850	0.542200
C43	C	0.350369	0.171135	0.042216
C44	C	0.850369	0.671135	0.542216
C45	C	0.392956	0.113124	-0.000207
C46	C	0.892956	0.613124	0.499793
C47	C	0.125002	0.185079	-0.000257
C48	C	0.625002	0.685079	0.499743
C49	C	0.052550	0.183793	-0.000260
C50	C	0.552550	0.683793	0.499740
C51	C	0.069107	0.030684	-0.000257
C52	C	0.569107	0.530684	0.499743
C53	C	0.141557	0.031972	-0.000246
C54	C	0.641557	0.531972	0.499754
C55	C	0.169500	0.109172	-0.000249
C56	C	0.669500	0.609172	0.499751
C57	C	0.825572	-0.041740	-0.000205
C58	C	1.325572	0.458260	0.499795
C59	C	0.824197	-0.134981	-0.000204
C60	C	1.324197	0.365019	0.499796
C61	C	0.754815	-0.349571	-0.000197
C62	C	1.254815	0.150429	0.499803
C63	C	0.787025	-0.410715	0.059504
C64	C	1.287025	0.089285	0.559504
C65	C	0.821710	-0.305697	-0.000209
C66	C	1.321710	0.194303	0.499791
C67	C	0.787058	-0.410692	-0.059890
C68	C	1.287058	0.089308	0.440110
C69	C	0.819303	-0.470601	-0.000217
C70	C	1.319303	0.029399	0.499783
C71	C	0.853939	-0.365614	0.059542
C72	C	1.353939	0.134386	0.559542
C73	C	0.853963	-0.365585	-0.059906
C74	C	1.353963	0.134415	0.440094
C75	C	0.886222	-0.426712	-0.000190
C76	C	1.386222	0.073288	0.499810
C77	C	0.823095	-0.210700	-0.000204
C78	C	1.323095	0.289300	0.499796
C79	C	0.817924	-0.565597	-0.000217
C80	C	1.317924	-0.065597	0.499783
C81	C	0.947497	0.105235	-0.000243
C82	C	1.447497	0.605235	0.499757
C83	C	1.024605	0.106600	-0.000267
C84	C	1.524605	0.606600	0.499733
C85	C	0.815444	0.265436	-0.000217
C86	C	1.315444	0.765436	0.499783
C87	C	0.816819	0.358677	-0.000223
C88	C	1.316819	0.858677	0.499777
N89	N	0.820485	0.111838	0.188458
N90	N	1.320485	0.611838	0.688458
N91	N	0.820537	0.111852	-0.188878
N92	N	1.320537	0.611852	0.311122
C93	C	0.867718	0.054583	0.226549
C94	C	1.367718	0.554583	0.726549
C95	C	0.867722	0.054580	0.302777
C96	C	1.367722	0.554580	0.802777
C97	C	0.820500	0.111844	0.340910
C98	C	1.320500	0.611844	0.840910
C99	C	0.773258	0.169103	0.302810
C100	C	1.273258	0.669103	0.802810
C101	C	0.773251	0.169100	0.226583
C102	C	1.273251	0.669100	0.726583
C103	C	0.811404	0.188378	0.461669
C104	C	1.311404	0.688378	0.961669
C105	C	0.811416	0.188383	0.537894
C106	C	1.311416	0.688383	1.037894
C107	C	0.820520	0.111855	0.576018
C108	C	1.320520	0.611855	1.076018
C109	C	0.829626	0.035320	0.537908
C110	C	1.329626	0.535320	1.037908
C111	C	0.829618	0.035316	0.461681
C112	C	1.329618	0.535316	0.961681
C113	C	0.820503	0.111854	0.423565
C114	C	1.320503	0.611854	0.923565
C115	C	0.867760	0.054592	0.696765
C116	C	1.367760	0.554592	1.196765
C117	C	0.867760	0.054587	0.772994
C118	C	1.367760	0.554587	1.272994
C119	C	0.773299	0.169118	0.773025
C120	C	1.273299	0.669118	1.273025
C121	C	0.773296	0.169115	0.696797
C122	C	1.273296	0.669115	1.196797
C123	C	0.820531	0.111853	0.658671
C124	C	1.320531	0.611853	1.158671
H125	H	0.016321	0.245606	-0.000268
H126	H	0.516321	0.745606	0.499732
C127	C	0.257804	-0.012644	-0.089337
C128	C	0.757804	0.487356	0.410663
H129	H	0.208556	-0.005097	-0.083279
H130	H	0.708556	0.494903	0.416721
H131	H	0.275674	-0.068008	-0.074416
H132	H	0.775674	0.431992	0.425584
H133	H	0.268910	-0.005045	-0.139123
H134	H	0.768910	0.494955	0.360877
H135	H	0.734808	0.215728	0.333861
H136	H	1.234808	0.715728	0.833861
C137	C	0.801401	0.272564	0.579812
C138	C	1.301401	0.772564	1.079812
H139	H	0.802718	0.261607	0.630669
H140	H	1.302718	0.761607	1.130669
H141	H	0.757593	0.302647	0.567340
H142	H	1.257593	0.802647	1.067340
H143	H	0.837725	0.305369	0.567293
H144	H	1.337725	0.805369	1.067293
H145	H	0.941797	-0.460084	-0.000170
H146	H	1.441797	0.039916	0.499830
C147	C	0.801394	0.272564	0.419740
C148	C	1.301394	0.772564	0.919740
H149	H	0.795984	0.318144	0.453352
H150	H	1.295984	0.818144	0.953352
H151	H	0.760950	0.274393	0.390022
H152	H	1.260950	0.774393	0.890022
H153	H	0.841085	0.277095	0.389985
H154	H	1.341085	0.777095	0.889985
C155	C	0.721297	0.232088	0.184681
C156	C	1.221297	0.732088	0.684681
H157	H	0.693175	0.266197	0.218306
H158	H	1.193175	0.766197	0.718306
H159	H	0.692384	0.201962	0.154960
H160	H	1.192384	0.701962	0.654960
H161	H	0.746286	0.266979	0.154931
H162	H	1.246286	0.766979	0.654931
C163	C	0.721356	0.232108	0.814962
C164	C	1.221356	0.732108	1.314962
H165	H	0.728127	0.223914	0.865816
H166	H	1.228127	0.723914	1.365816
H167	H	0.675001	0.223130	0.802495
H168	H	1.175001	0.723130	1.302495
H169	H	0.728903	0.288147	0.802458
H170	H	1.228903	0.788147	1.302458
H171	H	0.243242	0.217075	0.076747
H172	H	0.743242	0.717075	0.576747
H173	H	0.493258	-0.024239	-0.000188
H174	H	0.993258	0.475761	0.499812
H175	H	0.882240	-0.345560	-0.110395
H176	H	1.382240	0.154440	0.389605
C177	C	0.155746	0.269990	-0.000252
C178	C	0.655746	0.769990	0.499748
H179	H	0.205267	0.259885	-0.000251
H180	H	0.705267	0.759885	0.499749
H181	H	0.140450	0.301231	0.041976
H182	H	0.640450	0.801231	0.541976
H183	H	0.140493	0.301235	-0.042490
H184	H	0.640493	0.801235	0.457510
C185	C	0.721354	0.232109	0.654891
C186	C	1.221354	0.732109	1.154891
H187	H	0.728111	0.223905	0.604032
H188	H	1.228111	0.723905	1.104032
H189	H	0.728904	0.288144	0.667374
H190	H	1.228904	0.788144	1.167374
H191	H	0.674996	0.223133	0.667404
H192	H	1.174996	0.723133	1.167404
C193	C	0.748835	-0.437674	-0.128074
C194	C	1.248835	0.062326	0.371926
H195	H	0.702160	-0.410977	-0.127984
H196	H	1.202160	0.089023	0.372016
H197	H	0.748605	-0.497218	-0.127824
H198	H	1.248605	0.002782	0.372176
H199	H	0.772153	-0.421453	-0.170479
H200	H	1.272153	0.078547	0.329521
H201	H	0.906177	0.007955	0.195510
H202	H	1.406177	0.507955	0.695510
C203	C	0.038373	-0.054227	-0.000262
C204	C	0.538373	0.445773	0.499738
H205	H	0.075254	-0.099251	-0.000248
H206	H	0.575254	0.400749	0.499752
H207	H	0.010476	-0.057912	-0.042495
H208	H	0.510476	0.442088	0.457505
H209	H	0.010435	-0.057911	0.041970
H210	H	0.510435	0.442089	0.541970
C211	C	0.602649	0.277916	-0.000165
C212	C	1.102649	0.777916	0.499835
H213	H	0.565767	0.322939	-0.000167
H214	H	1.065767	0.822939	0.499833
H215	H	0.630594	0.281607	-0.042386
H216	H	1.130594	0.781607	0.457614
H217	H	0.630539	0.281594	0.042079
H218	H	1.130539	0.781594	0.542079
H219	H	0.837039	-0.026997	0.568947
H220	H	1.337039	0.473003	1.068947
C221	C	0.919682	-0.008401	0.344687
C222	C	1.419682	0.491599	0.844687
H223	H	0.947813	-0.042501	0.311063
H224	H	1.447813	0.457499	0.811063
H225	H	0.894703	-0.043289	0.374444
H226	H	1.394703	0.456711	0.874444
H227	H	0.948596	0.021739	0.374401
H228	H	1.448596	0.521739	0.874401
H229	H	0.837031	-0.027002	0.430655
H230	H	1.337031	0.472998	0.930655
C231	C	0.637417	-0.043603	-0.000149
C232	C	1.137417	0.456397	0.499851
H233	H	0.610397	-0.089761	-0.000159
H234	H	1.110397	0.410239	0.499841
H235	H	0.666004	-0.046288	0.042084
H236	H	1.166004	0.453712	0.542084
H237	H	0.666042	-0.046278	-0.042382
H238	H	1.166042	0.453722	0.457618
C239	C	0.190505	-0.051524	-0.000241
C240	C	0.690505	0.448476	0.499759
H241	H	0.163484	-0.097682	-0.000253
H242	H	0.663484	0.402318	0.499747
H243	H	0.219090	-0.054210	0.041993
H244	H	0.719090	0.445790	0.541993
H245	H	0.219133	-0.054199	-0.042472
H246	H	0.719133	0.445801	0.457528
H247	H	0.463229	0.253530	-0.000193
H248	H	0.963229	0.753530	0.499807
H249	H	0.374680	0.219409	0.076770
H250	H	0.874680	0.719409	0.576770
H251	H	0.906219	0.007963	0.665722
H252	H	1.406219	0.507963	1.165722
H253	H	0.699288	-0.316049	-0.000124
H254	H	1.199288	0.183951	0.499876
C255	C	0.409943	-0.009945	-0.089315
C256	C	0.909943	0.490055	0.410685
H257	H	0.381783	-0.045429	-0.114599
H258	H	0.881783	0.454571	0.385401
H259	H	0.441860	-0.043365	-0.058729
H260	H	0.941860	0.456635	0.441271
H261	H	0.435079	0.019611	-0.123426
H262	H	0.935079	0.519611	0.376574
C263	C	0.748795	-0.437742	0.127705
C264	C	1.248795	0.062258	0.627705
H265	H	0.702114	-0.411062	0.127645
H266	H	1.202114	0.088938	0.627645
H267	H	0.772103	-0.421551	0.170099
H268	H	1.272103	0.078449	0.670099
H269	H	0.748568	-0.497290	0.127434
H270	H	1.248568	0.002710	0.627434
C271	C	0.892113	-0.338765	0.127804
C272	C	1.392113	0.161235	0.627804
H273	H	0.892728	-0.279274	0.127404
H274	H	1.392728	0.220726	0.627404
H275	H	0.938652	-0.365873	0.127969
H276	H	1.438652	0.134127	0.627969
H277	H	0.868496	-0.354571	0.170157
H278	H	1.368496	0.145429	0.670157
H279	H	0.906221	0.007959	0.804009
H280	H	1.406221	0.507959	1.304009
