data_functionalizedCrystal
_audit_creation_method	'MofGen! by Chris Wilmer'
_symmetry_space_group_name_H-M	'P1'
_symmetry_Int_Tables_number	1
_symmetry_cell_setting	triclinic
loop_
_symmetry_equiv_pos_as_xyz
  x,y,z
_cell_length_a	16.120490
_cell_length_b	18.215405
_cell_length_c	18.215399
_cell_angle_alpha	90.030875
_cell_angle_beta	87.087627
_cell_angle_gamma	92.879060
loop_
_atom_site_label
_atom_site_type_symbol
_atom_site_fract_x
_atom_site_fract_y
_atom_site_fract_z
Zn1	Zn	1.274488	0.350159	-0.473060
Zn2	Zn	1.607821	0.683492	-0.139726
Zn3	Zn	1.941154	1.016825	0.193607
Zn4	Zn	1.274382	0.473230	-0.349988
Zn5	Zn	1.607715	0.806564	-0.016654
Zn6	Zn	1.941049	1.139897	0.316679
Zn7	Zn	1.135078	0.343932	-0.343778
Zn8	Zn	1.468412	0.677265	-0.010445
Zn9	Zn	1.801745	1.010599	0.322889
Zn10	Zn	1.135023	0.466931	-0.466786
Zn11	Zn	1.468357	0.800264	-0.133452
Zn12	Zn	1.801690	1.133597	0.199881
O13	O	1.204743	0.408563	-0.408403
O14	O	1.538076	0.741896	-0.075069
O15	O	1.871410	1.075230	0.258264
O16	O	1.391139	0.371727	-0.461958
O17	O	1.724472	0.705060	-0.128625
O18	O	2.057806	1.038394	0.204708
O19	O	1.255882	0.456109	-0.246179
O20	O	1.589215	0.789443	0.087155
O21	O	1.922549	1.122776	0.420488
O22	O	1.153639	0.241777	-0.360954
O23	O	1.486972	0.575110	-0.027621
O24	O	1.820305	0.908443	0.305712
O25	O	1.391062	0.462147	-0.371538
O26	O	1.724395	0.795481	-0.038204
O27	O	2.057728	1.128814	0.295129
O28	O	1.256062	0.246351	-0.455937
O29	O	1.589395	0.579685	-0.122604
O30	O	1.922729	0.913018	0.210729
O31	O	1.153536	0.361114	-0.241616
O32	O	1.486870	0.694448	0.091717
O33	O	1.820203	1.027781	0.425050
O34	O	1.018406	0.355005	-0.354871
O35	O	1.351739	0.688339	-0.021537
O36	O	1.685072	1.021672	0.311796
O37	O	1.153545	0.451410	-0.570603
O38	O	1.486878	0.784743	-0.237270
O39	O	1.820211	1.118077	0.096063
O40	O	1.018365	0.445372	-0.445244
O41	O	1.351699	0.778705	-0.111911
O42	O	1.685032	1.112039	0.221423
O43	O	1.256009	0.365618	-0.575213
O44	O	1.589342	0.698951	-0.241879
O45	O	1.922675	1.032285	0.091454
O46	O	1.255829	0.575376	-0.365454
O47	O	1.589162	0.908709	-0.032121
O48	O	1.922495	1.242043	0.301213
O49	O	1.153442	0.570747	-0.451265
O50	O	1.486776	0.904081	-0.117932
O51	O	1.820109	1.237414	0.215401
C52	C	0.988136	0.398830	-0.398703
C53	C	1.321469	0.732163	-0.065370
C54	C	1.654802	1.065497	0.267963
C55	C	0.895470	0.394684	-0.394571
C56	C	1.228803	0.728017	-0.061238
C57	C	1.562137	1.061351	0.272096
C58	C	0.684523	0.430064	-0.429838
C59	C	1.017856	0.763397	-0.096504
C60	C	1.351190	1.096730	0.236829
C61	C	0.725814	0.387121	-0.387026
C62	C	1.059147	0.720454	-0.053693
C63	C	1.392481	1.053788	0.279641
C64	C	0.820219	0.391330	-0.391225
C65	C	1.153553	0.724664	-0.057892
C66	C	1.486886	1.057997	0.275441
C67	C	0.590109	0.425855	-0.425639
C68	C	0.923442	0.759189	-0.092306
C69	C	1.256776	1.092522	0.241027
C70	C	1.204641	0.599765	-0.408370
C71	C	1.537974	0.933098	-0.075036
C72	C	1.871307	1.266431	0.258297
C73	C	1.204673	0.681565	-0.408384
C74	C	1.538007	1.014898	-0.075050
C75	C	1.871340	1.348232	0.258283
C76	C	1.258008	0.872080	-0.457902
C77	C	1.591342	1.205413	-0.124569
C78	C	1.924675	1.538747	0.208765
C79	C	1.258030	0.948940	-0.457915
C80	C	1.591363	1.282273	-0.124582
C81	C	1.924696	1.615606	0.208751
C82	C	1.151464	0.944293	-0.358932
C83	C	1.484797	1.277626	-0.025599
C84	C	1.818130	1.610960	0.307734
C85	C	1.151439	0.867435	-0.358923
C86	C	1.484772	1.200768	-0.025590
C87	C	1.818106	1.534101	0.307744
C88	C	1.204716	0.831330	-0.408407
C89	C	1.538049	1.164664	-0.075074
C90	C	1.871383	1.497997	0.258260
C91	C	1.204762	0.985048	-0.408430
C92	C	1.538095	1.318382	-0.075096
C93	C	1.871429	1.651715	0.258237
C94	C	1.204785	1.068383	-0.408444
C95	C	1.538118	1.401716	-0.075111
C96	C	1.871451	1.735050	0.258223
C97	C	1.204692	0.747990	-0.408394
C98	C	1.538026	1.081324	-0.075060
C99	C	1.871359	1.414657	0.258273
C100	C	1.422196	0.418334	-0.418141
C101	C	1.755529	0.751668	-0.084807
C102	C	2.088863	1.085001	0.248526
C103	C	1.514862	0.422498	-0.422290
C104	C	1.848195	0.755832	-0.088957
C105	C	2.181528	1.089165	0.244376
C106	C	1.204782	0.408506	-0.600358
C107	C	1.538116	0.741839	-0.267024
C108	C	1.871449	1.075173	0.066309
C109	C	1.204799	0.408482	-0.682157
C110	C	1.538132	0.741815	-0.348824
C111	C	1.871466	1.075148	-0.015491
C112	C	1.204839	1.216614	-0.408448
C113	C	1.538172	1.549948	-0.075114
C114	C	1.871506	1.883281	0.258219
C115	C	1.204805	1.134814	-0.408453
C116	C	1.538138	1.468147	-0.075120
C117	C	1.871471	1.801481	0.258214
C118	C	1.151553	0.358988	-0.867979
C119	C	1.484886	0.692321	-0.534645
C120	C	1.818219	1.025655	-0.201312
C121	C	1.151567	0.358974	-0.944838
C122	C	1.484901	0.692307	-0.611505
C123	C	1.818234	1.025640	-0.278171
C124	C	1.258145	0.457892	-0.949578
C125	C	1.591479	0.791225	-0.616245
C126	C	1.924812	1.124559	-0.282911
C127	C	1.258126	0.457909	-0.872720
C128	C	1.591459	0.791242	-0.539387
C129	C	1.924793	1.124576	-0.206053
C130	C	1.204831	0.408453	-0.831922
C131	C	1.538164	0.741786	-0.498589
C132	C	1.871498	1.075120	-0.165256
C133	C	1.204865	0.408422	-0.985640
C134	C	1.538198	0.741755	-0.652307
C135	C	1.871531	1.075088	-0.318973
C136	C	1.204881	0.408407	-1.068974
C137	C	1.538214	0.741740	-0.735641
C138	C	1.871547	1.075073	-0.402308
C139	C	1.204813	0.408469	-0.748582
C140	C	1.538147	0.741802	-0.415249
C141	C	1.871480	1.075135	-0.081916
C142	C	1.204752	0.408569	-0.217197
C143	C	1.538085	0.741902	0.116136
C144	C	1.871418	1.075235	0.449470
C145	C	1.204896	0.408393	-0.135405
C146	C	1.538230	0.741726	0.197928
C147	C	1.871563	1.075060	0.531262
H148	H	0.690264	0.347195	-0.347220
H149	H	1.023597	0.680529	-0.013887
H150	H	1.356931	1.013862	0.319447
F151	F	1.314747	0.992305	-0.510598
F152	F	1.648081	1.325639	-0.177265
F153	F	1.981414	1.658972	0.156069
H154	H	1.108089	0.973699	-0.318643
H155	H	1.441422	1.307032	0.014690
H156	H	1.774756	1.640365	0.348024
H157	H	1.108038	0.834254	-0.318618
H158	H	1.441371	1.167587	0.014716
H159	H	1.774704	1.500920	0.348049
H160	H	0.720071	0.469986	-0.469640
H161	H	1.053404	0.803320	-0.136306
H162	H	1.386738	1.136653	0.197027
H163	H	1.301389	0.842686	-0.498196
H164	H	1.634722	1.176019	-0.164862
H165	H	1.968055	1.509353	0.168471
H166	H	1.108182	0.318695	-0.974192
H167	H	1.441515	0.652028	-0.640858
H168	H	1.774849	0.985362	-0.307525
F169	F	1.094829	0.306354	-0.824561
F170	F	1.428163	0.639688	-0.491228
F171	F	1.761496	0.973021	-0.157894
F172	F	1.314864	0.510523	-0.993004
F173	F	1.648197	0.843856	-0.659671
F174	F	1.981530	1.177189	-0.326338
F175	F	1.314832	0.510562	-0.834344
F176	F	1.648165	0.843895	-0.501010
F177	F	1.981499	1.177229	-0.167677
