data_functionalizedCrystal
_audit_creation_method	'MofGen! by Chris Wilmer'
_symmetry_space_group_name_H-M	'P1'
_symmetry_Int_Tables_number	1
_symmetry_cell_setting	triclinic
loop_
_symmetry_equiv_pos_as_xyz
  x,y,z
_cell_length_a	19.188928
_cell_length_b	14.519709
_cell_length_c	12.996460
_cell_angle_alpha	89.998766
_cell_angle_beta	89.977105
_cell_angle_gamma	83.411978
loop_
_atom_site_label
_atom_site_type_symbol
_atom_site_fract_x
_atom_site_fract_y
_atom_site_fract_z
O1	O	-0.926558	-0.115119	0.085967
O2	O	-0.723302	-0.130620	0.085882
O3	O	-0.830319	0.011403	0.085918
O4	O	-0.819541	-0.257141	0.085932
O5	O	-0.830305	0.011394	-0.085216
O6	O	-0.723288	-0.130628	-0.085252
O7	O	-0.926544	-0.115127	-0.085167
Cu8	Cu	-0.824915	-0.122878	-0.100835
Cu9	Cu	-0.824931	-0.122869	0.101551
O10	O	-0.819527	-0.257150	-0.085202
C11	C	-0.697282	-0.130123	0.000304
C12	C	-0.619772	-0.128617	0.000272
C13	C	-0.829810	0.045755	0.000350
C14	C	-0.828305	0.148127	0.000349
C15	C	-0.575145	-0.211951	0.000289
C16	C	-0.502316	-0.210536	0.000295
C17	C	-0.474117	-0.125783	0.000304
C18	C	-0.518755	-0.042438	0.000281
C19	C	-0.591582	-0.043855	0.000265
N20	N	-0.365911	-0.060997	0.058578
N21	N	-0.296728	-0.059657	0.058596
C22	C	-0.254693	-0.121508	0.000351
N23	N	-0.284455	-0.184764	-0.057900
N24	N	-0.353644	-0.186108	-0.057913
C25	C	-0.395149	-0.124237	0.000321
C26	C	-0.131096	-0.203314	0.000373
C27	C	-0.058266	-0.201896	0.000373
C28	C	-0.074707	-0.033795	0.000369
C29	C	-0.147535	-0.035215	0.000359
C30	C	-0.175725	-0.119978	0.000366
N31	N	-0.824908	-0.122885	-0.243182
C32	C	0.047436	-0.115627	0.000395
C33	C	-0.030073	-0.117141	0.000380
C34	C	-0.820036	-0.291502	0.000368
C35	C	-0.821541	-0.393874	0.000375
C36	C	-0.822763	0.522988	0.000374
C37	C	-0.824302	0.418690	0.000367
C38	C	-0.825534	0.335561	0.000360
C39	C	-0.827073	0.231256	0.000355
C40	C	-0.824912	-0.122887	-0.336288
C41	C	-0.824918	-0.122881	-0.453093
C42	C	-0.824927	-0.122871	-0.546191
C43	C	-0.824934	-0.122865	-0.663004
N44	N	-0.824943	-0.122855	0.243898
H45	H	-0.598092	-0.280971	0.000297
H46	H	-0.465973	-0.278399	0.000306
H47	H	-0.154050	-0.272332	0.000364
H48	H	-0.627918	0.024008	0.000251
O49	O	-0.491332	0.039868	0.000475
C50	C	-0.449720	0.045712	0.089106
H51	H	-0.467029	-0.002406	0.151050
H52	H	-0.392309	0.024204	0.069084
C53	C	-0.437177	0.205249	0.053209
C54	C	-0.458440	0.146155	0.129294
H55	H	-0.442553	0.267206	0.077997
H56	H	-0.465210	0.201311	-0.006505
H57	H	-0.389336	0.187314	0.036531
H58	H	-0.506282	0.164083	0.145961
H59	H	-0.430415	0.150098	0.189012
H60	H	-0.021931	-0.269759	0.000381
H61	H	-0.051748	0.035213	0.000440
H62	H	-0.183872	0.032644	0.000351
