data_functionalizedCrystal
_audit_creation_method	'MofGen! by Chris Wilmer'
_symmetry_space_group_name_H-M	'P1'
_symmetry_Int_Tables_number	1
_symmetry_cell_setting	triclinic
loop_
_symmetry_equiv_pos_as_xyz
  x,y,z
_cell_length_a	23.532355
_cell_length_b	23.532357
_cell_length_c	13.330367
_cell_angle_alpha	89.989812
_cell_angle_beta	89.998270
_cell_angle_gamma	82.827896
loop_
_atom_site_label
_atom_site_type_symbol
_atom_site_fract_x
_atom_site_fract_y
_atom_site_fract_z
O1	O	0.755269	0.068995	-0.083299
O2	O	0.589399	0.079030	-0.083333
O3	O	0.677351	-0.008922	-0.083294
O4	O	0.667318	0.156947	-0.083337
O5	O	0.677338	-0.008924	0.083553
O6	O	0.589387	0.079028	0.083514
O7	O	0.755256	0.068994	0.083548
Cu8	Cu	0.672320	0.074011	0.098766
Cu9	Cu	0.672335	0.074013	-0.098550
O10	O	0.667305	0.156945	0.083510
C11	C	0.568177	0.078778	0.000087
C12	C	0.504958	0.078024	0.000075
C13	C	0.112938	0.073285	0.091067
C14	C	0.053539	0.072567	0.091071
O15	O	0.022815	0.072176	0.168418
N16	N	0.023837	0.072212	0.000123
C17	C	0.053539	0.072569	-0.090835
O18	O	0.022821	0.072201	-0.168193
C19	C	0.112938	0.073283	-0.090838
C20	C	0.142636	0.073643	0.000116
C21	C	0.142636	0.073645	0.182013
C22	C	0.202031	0.074363	0.182009
C23	C	0.231728	0.074722	0.091058
C24	C	0.202031	0.074362	0.000111
C25	C	0.142639	0.073636	-0.181795
C26	C	0.202042	0.074349	-0.181790
C27	C	0.231739	0.074709	-0.090836
C28	C	0.291123	0.075439	-0.090844
N29	N	0.320824	0.075794	0.000104
C30	C	0.291127	0.075435	0.091055
C31	C	-0.071202	0.071070	-0.090822
C32	C	-0.130600	0.070361	-0.090820
C33	C	-0.130596	0.070358	0.091086
C34	C	-0.071198	0.071071	0.091083
C35	C	-0.041501	0.071425	0.000126
C36	C	0.415861	0.076944	0.091039
C37	C	0.475261	0.077665	0.091026
C38	C	0.475252	0.077665	-0.090880
C39	C	0.415857	0.076948	-0.090868
C40	C	0.386163	0.076585	0.000099
O41	O	0.321885	0.075828	-0.168152
O42	O	0.321853	0.075796	0.168400
C43	C	0.677094	-0.030140	0.000132
C44	C	0.676339	-0.093358	0.000142
C45	C	0.671609	-0.485367	-0.090862
C46	C	0.670892	-0.544767	-0.090868
O47	O	0.670507	-0.575482	-0.168216
N48	N	0.670529	-0.574479	0.000079
C49	C	0.670878	-0.544788	0.091038
O50	O	0.670503	-0.575514	0.168395
C51	C	0.671591	-0.485389	0.091043
C52	C	0.671960	-0.455681	0.000090
C53	C	0.671977	-0.455659	-0.181807
C54	C	0.672695	-0.396264	-0.181801
C55	C	0.673046	-0.366577	-0.090849
C56	C	0.672678	-0.396286	0.000096
C57	C	0.671936	-0.455698	0.182001
C58	C	0.672649	-0.396296	0.181998
C59	C	0.673017	-0.366587	0.091045
C60	C	0.673747	-0.307204	0.091054
N61	N	0.674109	-0.277492	0.000107
C62	C	0.673759	-0.307178	-0.090844
C63	C	0.669379	-0.669529	0.091021
C64	C	0.668670	-0.728927	0.091017
C65	C	0.668683	-0.728902	-0.090889
C66	C	0.669396	-0.669503	-0.090884
C67	C	0.669742	-0.639817	0.000074
C68	C	0.675268	-0.182445	-0.090824
C69	C	0.675988	-0.123045	-0.090810
C70	C	0.675973	-0.123075	0.091095
C71	C	0.675255	-0.182470	0.091082
C72	C	0.674901	-0.212153	0.000114
O73	O	0.674129	-0.276451	0.168363
O74	O	0.674126	-0.276443	-0.168188
C75	C	0.776479	0.069245	0.000126
C76	C	0.839698	0.069999	0.000132
C77	C	0.667562	0.178163	0.000081
C78	C	0.668317	0.241381	0.000065
N79	N	0.672314	0.074009	0.237547
N80	N	0.672346	0.074010	-0.237332
C81	C	0.633389	0.112943	0.710153
C82	C	0.711297	0.035078	0.710155
C83	C	0.711291	0.035077	0.605137
C84	C	0.672333	0.074009	0.552622
C85	C	0.633382	0.112943	0.605125
C86	C	0.750245	-0.003853	0.552626
C87	C	0.750240	-0.003856	0.447601
C88	C	0.711280	0.035074	0.395084
C89	C	0.672327	0.074010	0.447594
C90	C	0.633370	0.112942	0.395079
C91	C	0.594413	0.151875	0.447586
C92	C	0.594422	0.151873	0.552608
C93	C	0.711271	0.035076	0.290062
C94	C	0.633363	0.112943	0.290051
H95	H	-0.154786	0.070065	0.165144
H96	H	0.601670	0.144640	0.752908
N97	N	-0.040865	0.071424	0.183992
N98	N	-0.002238	0.031668	0.204307
H99	H	0.019181	0.031915	0.269929
H100	H	0.668396	-0.753083	-0.164947
H101	H	0.672922	-0.372127	0.256069
N102	N	0.673069	-0.365931	-0.274717
N103	N	0.672754	-0.392453	-0.355910
H104	H	0.673016	-0.371034	-0.421538
N105	N	0.593560	0.152712	0.236427
N106	N	0.558783	0.187466	0.283323
H107	H	0.530672	0.215554	0.245453
H108	H	0.743018	0.003383	0.752916
H109	H	0.676290	-0.098859	-0.164878
H110	H	0.499442	0.077960	-0.164930
H111	H	0.671689	-0.479823	-0.255875
N112	N	0.554629	0.191652	0.393939
N113	N	0.572493	0.226910	0.335327
H114	H	0.544397	0.255003	0.297434
N115	N	0.385544	0.076572	0.183966
N116	N	0.412077	0.076893	0.265155
H117	H	0.390666	0.076633	0.330787
N118	N	0.790019	-0.043627	0.393955
N119	N	0.790005	-0.043627	0.300186
H120	H	0.818097	-0.071717	0.262295
H121	H	0.391674	0.076663	-0.164930
N122	N	0.790055	-0.043592	0.606282
N123	N	0.790064	-0.043574	0.700051
H124	H	0.818188	-0.071635	0.737951
H125	H	0.674976	-0.206605	-0.164899
N126	N	0.232377	0.074700	-0.274704
N127	N	0.231231	0.034465	-0.335583
H128	H	0.252654	0.034712	-0.401203
N129	N	0.751058	-0.004708	0.236467
N130	N	0.786322	0.013134	0.177845
H131	H	0.814424	-0.014975	0.140014
H132	H	0.499438	0.077961	0.165095
H133	H	0.669695	-0.645319	-0.164946
N134	N	0.554628	0.191633	0.606247
N135	N	0.519391	0.173745	0.664868
H136	H	0.491287	0.201824	0.702756
N137	N	0.676323	-0.092733	0.183986
N138	N	0.636567	-0.054100	0.204251
H139	H	0.636810	-0.032668	0.269855
H140	H	-0.154776	0.070077	-0.164884
N141	N	0.232354	0.074722	0.274926
N142	N	0.205823	0.074395	0.356118
H143	H	0.227235	0.074644	0.421747
N144	N	0.112297	0.073291	0.274917
N145	N	0.059261	0.072662	0.274930
H146	H	0.037836	0.072419	0.340548
H147	H	-0.047027	0.071364	-0.164895
H148	H	0.668379	-0.753112	0.165081
H149	H	0.118469	0.073341	-0.255860
H150	H	0.669663	-0.645362	0.165095
N151	N	0.671565	-0.486027	0.274918
N152	N	0.671876	-0.459502	0.356109
H153	H	0.671615	-0.480920	0.421739
H154	H	0.674960	-0.206660	0.165143
