data_functionalizedCrystal
_audit_creation_method	'MofGen! by Chris Wilmer'
_symmetry_space_group_name_H-M	'P1'
_symmetry_Int_Tables_number	1
_symmetry_cell_setting	triclinic
loop_
_symmetry_equiv_pos_as_xyz
  x,y,z
_cell_length_a	13.032721
_cell_length_b	10.686220
_cell_length_c	10.685986
_cell_angle_alpha	99.031303
_cell_angle_beta	92.237678
_cell_angle_gamma	100.973619
loop_
_atom_site_label
_atom_site_type_symbol
_atom_site_fract_x
_atom_site_fract_y
_atom_site_fract_z
Zn1	Zn	-0.259867	1.842335	-0.612164
Zn2	Zn	0.240133	2.342335	-0.112164
Zn3	Zn	-0.447119	1.827348	-0.431010
Zn4	Zn	0.052881	2.327348	0.068990
Zn5	Zn	-0.284848	1.642183	-0.420340
Zn6	Zn	0.215152	2.142183	0.079660
Zn7	Zn	-0.447044	1.598957	-0.659442
Zn8	Zn	0.052956	2.098957	-0.159442
O9	O	-0.359719	1.727706	-0.530739
O10	O	0.140281	2.227706	-0.030739
O11	O	-0.274284	2.019693	-0.572812
O12	O	0.225716	2.519693	-0.072812
O13	O	-0.436078	1.814604	-0.253716
O14	O	0.063922	2.314604	0.246284
O15	O	-0.135289	1.693096	-0.421535
O16	O	0.364711	2.193096	0.078465
O17	O	-0.411856	2.008682	-0.439719
O18	O	0.088144	2.508682	0.060281
O19	O	-0.116936	1.840147	-0.562467
O20	O	0.383064	2.340147	-0.062467
O21	O	-0.316859	1.678564	-0.245877
O22	O	0.183141	2.178564	0.254123
O23	O	-0.316787	1.457103	-0.467378
O24	O	0.183213	1.957103	0.032622
O25	O	-0.411730	1.619424	-0.829048
O26	O	0.088270	2.119424	-0.329048
O27	O	-0.435952	1.425345	-0.643045
O28	O	0.064048	1.925345	-0.143045
O29	O	-0.274212	1.798232	-0.794313
O30	O	0.225788	2.298232	-0.294313
O31	O	-0.593354	1.772689	-0.485563
O32	O	-0.093354	2.272689	0.014437
O33	O	-0.593299	1.604892	-0.653391
O34	O	-0.093299	2.104892	-0.153391
C35	C	-0.379072	1.394721	-0.559185
C36	C	0.120928	1.894721	-0.059185
C37	C	-0.387375	1.252263	-0.571388
C38	C	0.112625	1.752263	-0.071388
C39	C	-0.631243	1.682506	-0.575789
C40	C	-0.131243	2.182506	-0.075789
C41	C	-0.747392	1.663284	-0.595094
C42	C	-0.247392	2.163284	-0.095094
C43	C	-0.799160	1.737802	-0.520714
C44	C	-0.299160	2.237802	-0.020714
C45	C	-0.919207	1.717937	-0.540665
C46	C	-0.419207	2.217937	-0.040665
C47	C	-0.087132	1.773115	-0.485537
C48	C	0.412868	2.273115	0.014463
C49	C	0.029028	1.792466	-0.466274
C50	C	0.529028	2.292466	0.033726
C51	C	-0.340176	1.705678	-0.858559
C52	C	0.159824	2.205678	-0.358559
C53	C	-0.331847	1.696291	-0.998257
C54	C	0.168153	2.196291	-0.498257
C55	C	-0.340292	2.061991	-0.502182
C56	C	0.159708	2.561991	-0.002182
C57	C	-0.332013	2.204443	-0.490013
C58	C	0.167987	2.704443	0.009987
C59	C	-0.379107	1.749734	-0.204175
C60	C	0.120893	2.249734	0.295825
C61	C	-0.387127	1.759418	-0.064408
C62	C	0.112873	2.259418	0.435592
H63	H	-0.963755	1.639432	-0.619124
H64	H	-0.463755	2.139432	-0.119124
N65	N	-0.458584	1.162127	-0.676040
N66	N	0.041416	1.662127	-0.176040
H67	H	-0.435777	1.182012	-0.761233
H68	H	0.064223	1.682012	-0.261233
H69	H	-0.533036	1.174303	-0.666673
H70	H	-0.033036	1.674303	-0.166673
H71	H	-0.754609	1.816312	-0.442268
H72	H	-0.254609	2.316312	0.057732
N73	N	-0.260805	1.294578	-0.385373
N74	N	0.239195	1.794578	0.114627
H75	H	-0.186328	1.282447	-0.394627
H76	H	0.313672	1.782447	0.105373
H77	H	-0.283697	1.274654	-0.300228
H78	H	0.216303	1.774654	0.199772
H79	H	-0.926423	1.870981	-0.387824
H80	H	-0.426423	2.370981	0.112176
N81	N	-0.806393	1.559298	-0.699019
N82	N	-0.306393	2.059298	-0.199019
H83	H	-0.883787	1.559848	-0.698542
H84	H	-0.383787	2.059848	-0.198542
H85	H	-0.793937	1.472214	-0.684075
H86	H	-0.293937	1.972214	-0.184075
H87	H	-0.278149	1.635070	-1.048494
H88	H	0.221851	2.135070	-0.548494
H89	H	-0.440820	1.820655	-1.014162
H90	H	0.059180	2.320655	-0.514162
