data_functionalizedCrystal
_audit_creation_method	'MofGen! by Chris Wilmer'
_symmetry_space_group_name_H-M	'P1'
_symmetry_Int_Tables_number	1
_symmetry_cell_setting	triclinic
loop_
_symmetry_equiv_pos_as_xyz
  x,y,z
_cell_length_a	10.540514
_cell_length_b	10.540510
_cell_length_c	11.295483
_cell_angle_alpha	94.138442
_cell_angle_beta	85.853195
_cell_angle_gamma	84.514235
loop_
_atom_site_label
_atom_site_type_symbol
_atom_site_fract_x
_atom_site_fract_y
_atom_site_fract_z
O1	O	1.694362	0.170277	-0.099033
O2	O	1.324943	0.187167	-0.099032
O3	O	1.518100	-0.005988	-0.099032
O4	O	1.501205	0.363431	-0.099033
O5	O	1.501134	0.010951	0.099019
O6	O	1.307977	0.204105	0.099019
O7	O	1.677396	0.187216	0.099018
Cu8	Cu	1.491138	0.197207	0.117102
Cu9	Cu	1.511201	0.177175	-0.117116
O10	O	1.484239	0.380370	0.099018
C11	C	1.269157	0.194376	-0.000006
C12	C	1.128207	0.190607	-0.000006
C13	C	1.057487	0.328749	-0.000008
C14	C	0.910913	0.324835	-0.000464
C15	C	0.945548	0.105824	-0.112889
C16	C	1.092094	0.110671	-0.112978
C17	C	1.073203	0.127890	0.112251
C18	C	0.926098	0.126683	0.113728
C19	C	1.508358	-0.044822	-0.000009
C20	C	1.504592	-0.185772	-0.000016
C21	C	1.638739	-0.403201	0.000437
C22	C	1.642796	-0.256645	-0.000016
C23	C	1.443533	-0.240197	-0.113110
C24	C	1.440502	-0.386966	-0.113199
C25	C	1.418330	-0.367511	0.112022
C26	C	1.424758	-0.221043	0.113511
C27	C	1.733183	0.180006	-0.000011
C28	C	1.874133	0.183774	-0.000019
C29	C	1.493981	0.419204	-0.000008
C30	C	1.497748	0.560154	-0.000008
N31	N	1.477035	0.211296	0.281838
N32	N	1.525314	0.163076	-0.281852
C33	C	1.626832	0.061586	0.531128
C34	C	1.616183	0.072242	0.655791
C35	C	1.445085	0.243257	0.655832
C36	C	1.455733	0.232601	0.531168
C37	C	1.546611	0.141764	0.468820
C38	C	1.557264	0.131115	0.344154
C39	C	1.386160	0.302123	0.344197
C40	C	1.375512	0.312779	0.468861
H41	H	1.094632	0.377055	-0.080830
H42	H	1.320843	0.367413	0.293452
F43	F	1.465756	-0.413484	0.224066
H44	H	1.342150	-0.193159	-0.117315
F45	F	0.846079	0.404099	0.105262
H46	H	1.705429	-0.235190	-0.081226
F47	F	1.348360	0.339916	0.722200
F48	F	1.278794	0.409447	0.535226
F49	F	0.893693	-0.006944	0.123085
H50	H	1.499874	-0.216544	-0.197275
H51	H	1.685634	-0.438224	0.081542
H52	H	1.120377	0.026088	0.113341
F53	F	1.706044	-0.209225	0.105962
H54	H	1.323274	-0.171383	0.120340
F55	F	1.086383	0.411287	0.105360
H56	H	0.876148	0.371363	-0.081851
F57	F	0.863158	0.201252	0.222876
F58	F	1.482667	-0.174290	0.222871
H59	H	1.127568	0.153309	-0.197673
H60	H	1.681505	0.006952	0.706518
F61	F	1.717743	-0.469085	-0.104974
F62	F	1.104779	0.197560	0.224110
F63	F	1.282619	-0.396366	0.113021
H64	H	1.496092	-0.434416	-0.197739
H65	H	0.923576	0.001859	-0.116767
H66	H	1.700836	-0.012368	0.480363
H67	H	1.140524	0.008784	-0.117797
F68	F	0.899394	0.157673	-0.223103
H69	H	1.337572	-0.410389	-0.118322
F70	F	1.653987	0.034443	0.277802
