data_functionalizedCrystal
_audit_creation_method	'MofGen! by Chris Wilmer'
_symmetry_space_group_name_H-M	'P1'
_symmetry_Int_Tables_number	1
_symmetry_cell_setting	triclinic
loop_
_symmetry_equiv_pos_as_xyz
  x,y,z
_cell_length_a	19.121063
_cell_length_b	17.639504
_cell_length_c	17.640968
_cell_angle_alpha	109.667320
_cell_angle_beta	81.648500
_cell_angle_gamma	75.919471
loop_
_atom_site_label
_atom_site_type_symbol
_atom_site_fract_x
_atom_site_fract_y
_atom_site_fract_z
Zn1	Zn	0.092852	-1.358111	-0.717567
Zn2	Zn	-0.054391	-1.324240	-0.585580
Zn3	Zn	0.033334	-1.190014	-0.554203
Zn4	Zn	-0.054319	-1.214332	-0.695458
O5	O	0.004369	-1.271674	-0.638202
O6	O	0.098198	-1.469963	-0.722443
O7	O	-0.067693	-1.282083	-0.467065
O8	O	0.139534	-1.216310	-0.571995
O9	O	-0.009981	-1.445079	-0.625472
O10	O	0.183262	-1.339810	-0.692018
O11	O	-0.003242	-1.183467	-0.444012
O12	O	-0.003172	-1.076894	-0.550557
O13	O	-0.009857	-1.257757	-0.812744
O14	O	-0.067570	-1.094761	-0.654337
O15	O	0.098269	-1.363390	-0.828987
O16	O	-0.152686	-1.305663	-0.604034
O17	O	-0.152633	-1.224914	-0.684761
C18	C	-0.041822	-1.055660	-0.596643
C19	C	-0.061595	-0.963252	-0.578885
C20	C	0.154691	-0.724147	-0.773300
C21	C	0.136090	-0.637311	-0.756597
C22	C	0.023559	-0.611395	-0.655465
C23	C	0.042149	-0.698231	-0.672162
C24	C	0.107717	-0.754601	-0.731080
C25	C	-0.004825	-0.728685	-0.629942
C26	C	0.013765	-0.815512	-0.646636
C27	C	0.079331	-0.871887	-0.705549
C28	C	0.126307	-0.841429	-0.747773
C29	C	-0.070389	-0.672313	-0.571021
C30	C	-0.117364	-0.702766	-0.528801
C31	C	-0.098776	-0.789596	-0.545498
C32	C	-0.033211	-0.845971	-0.604411
C33	C	-0.145753	-0.820054	-0.503274
C34	C	-0.127162	-0.906882	-0.519967
C35	C	-0.014620	-0.932799	-0.621104
C36	C	-0.178140	-1.264279	-0.645425
C37	C	-0.256196	-1.261197	-0.648557
C38	C	-0.292853	-1.301841	-0.608050
C39	C	-0.366193	-1.298948	-0.611001
C40	C	-0.402876	-1.255406	-0.654456
C41	C	-0.366213	-1.214761	-0.694968
C42	C	-0.292873	-1.217659	-0.692021
C43	C	-0.624315	-1.244554	-0.665458
C44	C	-0.697661	-1.241656	-0.668400
C45	C	-0.697636	-1.325846	-0.584434
C46	C	-0.624296	-1.328736	-0.581486
C47	C	-0.587638	-1.288094	-0.622003
C48	C	-0.477842	-1.252446	-0.657471
C49	C	-0.512671	-1.291060	-0.618992
C50	C	0.187600	-1.279125	-0.630973
C51	C	0.265682	-1.282301	-0.627892
C52	C	0.050853	-1.317064	-0.851345
C53	C	0.070662	-1.336407	-0.942174
C54	C	0.050749	-0.488532	-0.679920
C55	C	0.070538	-0.580943	-0.697689
C56	C	-0.145665	-1.125066	-1.198620
C57	C	-0.127039	-1.143259	-1.283970
C58	C	-0.014458	-1.253245	-1.300872
C59	C	-0.033072	-1.235059	-1.215521
C60	C	-0.098678	-1.170969	-1.164401
C61	C	0.013915	-1.280962	-1.181303
C62	C	-0.004700	-1.262779	-1.095959
C63	C	-0.070303	-1.198694	-1.044834
C64	C	-0.117293	-1.152786	-1.079058
C65	C	0.079517	-1.345055	-1.232425
C66	C	0.126505	-1.390958	-1.198206
C67	C	0.107893	-1.372772	-1.112861
C68	C	0.042289	-1.308687	-1.061736
C69	C	0.154882	-1.418680	-1.078637
C70	C	0.136267	-1.400497	-0.993294
C71	C	0.023674	-1.290504	-0.976392
C72	C	-0.041873	-1.226511	-0.425895
C73	C	-0.061450	-1.207337	-0.335090
H74	H	-0.085512	-0.601610	-0.557412
Cl75	Cl	0.068013	-1.333815	-1.365145
Cl76	Cl	-0.246788	-1.166564	-0.742951
H77	H	0.038769	-0.978699	-0.669084
H78	H	-0.396036	-1.332044	-0.578015
H79	H	-0.029824	-0.565487	-0.607491
H80	H	-0.170703	-1.100578	-1.037428
H81	H	0.179697	-0.887329	-0.795753
Cl82	Cl	-0.199787	-0.631894	-0.454733
H83	H	-0.199075	-1.072858	-1.156990
H84	H	-0.727522	-1.206212	-0.703802
H85	H	0.174530	-1.437875	-0.965433
H86	H	-0.727490	-1.358935	-0.551449
H87	H	0.174350	-0.612521	-0.790977
Cl88	Cl	-0.228171	-0.749179	-0.429200
Cl89	Cl	-0.186222	-0.945172	-0.466898
Cl90	Cl	0.237116	-0.795020	-0.847376
H91	H	-0.482801	-1.326516	-0.583614
H92	H	-0.507718	-1.216991	-0.692850
H93	H	0.094671	-1.359859	-1.301917
H94	H	-0.262992	-1.337293	-0.572660
Cl95	Cl	-0.578180	-1.383491	-0.526869
Cl96	Cl	-0.578241	-1.193459	-0.716392
Cl97	Cl	0.102708	-0.981043	-0.726530
H98	H	-0.396085	-1.179312	-0.730354
H99	H	-0.029736	-1.238296	-0.934763
H100	H	-0.085461	-1.183894	-0.975343
H101	H	-0.165308	-1.105874	-1.311826
H102	H	0.179920	-1.443143	-1.239840
H103	H	0.208294	-1.470867	-1.120273
