data_functionalizedCrystal
_audit_creation_method	'MofGen! by Chris Wilmer'
_symmetry_space_group_name_H-M	'P1'
_symmetry_Int_Tables_number	1
_symmetry_cell_setting	triclinic
loop_
_symmetry_equiv_pos_as_xyz
  x,y,z
_cell_length_a	6.817900
_cell_length_b	11.102210
_cell_length_c	19.453114
_cell_angle_alpha	94.505050
_cell_angle_beta	101.709288
_cell_angle_gamma	108.604261
loop_
_atom_site_label
_atom_site_type_symbol
_atom_site_fract_x
_atom_site_fract_y
_atom_site_fract_z
V1	V	-4.033145	-0.177162	-0.218997
O2	O	-3.993679	0.007152	-0.214830
O3	O	-4.010450	-0.349972	-0.217498
O4	O	-3.975744	-0.175034	-0.314510
O5	O	-4.028625	-0.168998	-0.117146
V6	V	-4.514609	-0.155045	-0.206815
O7	O	-4.298921	-0.225676	-0.245720
O8	O	-4.699030	-0.106530	-0.180093
O9	O	-4.314098	0.017765	-0.208315
O10	O	-4.671472	-0.339358	-0.210983
O11	O	-4.636526	-0.163209	-0.308667
O12	O	-4.348804	-0.157173	-0.111302
C13	C	-3.861995	-0.392081	-0.214043
C14	C	-3.924666	-0.533360	-0.213454
C15	C	-3.975873	-0.713960	-0.148311
C16	C	-3.916966	-0.581211	-0.148857
C17	C	-3.991257	-0.618265	-0.277509
C18	C	-4.050148	-0.751011	-0.276962
C19	C	-3.817723	-0.168928	-0.337791
C20	C	-3.852245	-0.168332	-0.415873
C21	C	-4.051194	-0.174431	-0.456130
C22	C	-4.083631	-0.173871	-0.529497
C23	C	-3.917120	-0.167238	-0.562606
C24	C	-3.718139	-0.161130	-0.522339
C25	C	-3.685702	-0.161678	-0.448973
N26	N	-3.867360	-0.234354	-0.681395
N27	N	-3.898188	-0.233838	-0.751090
C28	C	-4.014841	-0.165586	-0.783654
N29	N	-4.099539	-0.097887	-0.743892
N30	N	-4.068716	-0.098410	-0.674191
C31	C	-3.952273	-0.166643	-0.642159
C32	C	-4.248974	-0.171076	-0.903464
C33	C	-4.281400	-0.170508	-0.976831
C34	C	-3.915908	-0.157780	-0.969673
C35	C	-3.883482	-0.158335	-0.896306
C36	C	-4.050025	-0.164990	-0.863207
C37	C	-4.125896	0.059868	-0.211768
C38	C	-4.042463	0.201145	-0.212362
C39	C	-4.170168	-0.163282	-0.088018
C40	C	-4.114884	-0.163872	-0.009935
H41	H	-3.862743	-0.512093	-0.096700
H42	H	-3.997509	-0.579294	-0.330105
H43	H	-4.186807	-0.179845	-0.429185
H44	H	-4.104365	-0.820137	-0.329123
H45	H	-3.523686	-0.156701	-0.416194
Br46	Br	-4.353650	-0.182137	-0.584142
Br47	Br	-3.492152	-0.152118	-0.567269
Br48	Br	-4.474983	-0.180099	-0.858538
H49	H	-3.780326	-0.152367	-0.996628
H50	H	-3.721484	-0.153382	-0.863529
Br51	Br	-4.551423	-0.178780	-1.031468
Br52	Br	-3.965434	-0.778887	-0.060639
