data_functionalizedCrystal
_audit_creation_method	'MofGen! by Chris Wilmer'
_symmetry_space_group_name_H-M	'P1'
_symmetry_Int_Tables_number	1
_symmetry_cell_setting	triclinic
loop_
_symmetry_equiv_pos_as_xyz
  x,y,z
_cell_length_a	21.295419
_cell_length_b	21.295412
_cell_length_c	21.295417
_cell_angle_alpha	89.969332
_cell_angle_beta	90.045308
_cell_angle_gamma	89.976510
loop_
_atom_site_label
_atom_site_type_symbol
_atom_site_fract_x
_atom_site_fract_y
_atom_site_fract_z
Zn1	Zn	0.962349	-0.355911	-0.250376
Zn2	Zn	1.462349	0.144089	0.249624
Zn3	Zn	0.962253	-0.250637	-0.355645
Zn4	Zn	1.462253	0.249363	0.144355
Zn5	Zn	0.857074	-0.250656	-0.250421
Zn6	Zn	1.357074	0.249344	0.249579
Zn7	Zn	0.857042	-0.355868	-0.355639
Zn8	Zn	1.357042	0.144132	0.144361
O9	O	0.909680	-0.303268	-0.303020
O10	O	1.409680	0.196732	0.196980
O11	O	1.050426	-0.341956	-0.264324
O12	O	1.550426	0.158044	0.235676
O13	O	0.948275	-0.162550	-0.341708
O14	O	1.448275	0.337450	0.158292
O15	O	0.871093	-0.264645	-0.162325
O16	O	1.371093	0.235355	0.337675
O17	O	1.050355	-0.264611	-0.341665
O18	O	1.550355	0.235389	0.158335
O19	O	0.948438	-0.341975	-0.162293
O20	O	1.448438	0.158025	0.337707
O21	O	0.871000	-0.162564	-0.264400
O22	O	1.371000	0.337436	0.235600
O23	O	0.768980	-0.264603	-0.264394
O24	O	1.268980	0.235397	0.235606
O25	O	0.871037	-0.443963	-0.341654
O26	O	1.371037	0.056037	0.158346
O27	O	0.768957	-0.341902	-0.341697
O28	O	1.268957	0.158098	0.158303
O29	O	0.948406	-0.443995	-0.264319
O30	O	1.448406	0.056005	0.235681
O31	O	0.948243	-0.264570	-0.443733
O32	O	1.448243	0.235430	0.056267
O33	O	0.870945	-0.341883	-0.443729
O34	O	1.370945	0.158117	0.056271
C35	C	0.746128	-0.303250	-0.303050
C36	C	1.246128	0.196750	0.196950
C37	C	0.676160	-0.303258	-0.303078
C38	C	1.176160	0.196742	0.196922
C39	C	0.643352	-0.343593	-0.262873
C40	C	1.143352	0.156407	0.237127
C41	C	0.577610	-0.343596	-0.262856
C42	C	1.077610	0.156404	0.237144
C43	C	0.544677	-0.303269	-0.303056
C44	C	1.044677	0.196731	0.196944
C45	C	0.577493	-0.262926	-0.343264
C46	C	1.077493	0.237074	0.156736
C47	C	0.643234	-0.262920	-0.343275
C48	C	1.143234	0.237080	0.156725
N49	N	0.441402	-0.298349	-0.358134
N50	N	0.941402	0.201651	0.141866
N51	N	0.378951	-0.298359	-0.358121
N52	N	0.878951	0.201641	0.141879
C53	C	0.346603	-0.303283	-0.303023
C54	C	0.846603	0.196717	0.196977
N55	N	0.379065	-0.308210	-0.247937
N56	N	0.879065	0.191790	0.252063
N57	N	0.441523	-0.308205	-0.247950
N58	N	0.941523	0.191795	0.252050
C59	C	0.473392	-0.303271	-0.303048
C60	C	0.973392	0.196729	0.196952
C61	C	0.242510	-0.343624	-0.262796
C62	C	0.742510	0.156376	0.237204
C63	C	0.176766	-0.343622	-0.262778
C64	C	0.676766	0.156378	0.237222
C65	C	0.176650	-0.262955	-0.343192
C66	C	0.676650	0.237045	0.156808
C67	C	0.242393	-0.262953	-0.343204
C68	C	0.742393	0.237047	0.156796
C69	C	0.275318	-0.303291	-0.303007
C70	C	0.775318	0.196709	0.196993
C71	C	0.909729	-0.467458	-0.302981
C72	C	1.409729	0.032542	0.197019
C73	C	0.909750	-0.537427	-0.302964
C74	C	1.409750	-0.037427	0.197036
C75	C	0.869524	-0.570291	-0.262706
C76	C	1.369524	-0.070291	0.237294
C77	C	0.869521	-0.636033	-0.262694
C78	C	1.369521	-0.136033	0.237306
C79	C	0.909757	-0.668909	-0.302934
C80	C	1.409757	-0.168909	0.197066
C81	C	0.949986	-0.636037	-0.343201
C82	C	1.449986	-0.136037	0.156799
C83	C	0.949982	-0.570296	-0.343216
C84	C	1.449982	-0.070296	0.156784
N85	N	0.964861	-0.772147	-0.307728
N86	N	1.464861	-0.272147	0.192272
N87	N	0.964862	-0.834599	-0.307710
N88	N	1.464862	-0.334599	0.192290
C89	C	0.909768	-0.866984	-0.302892
C90	C	1.409768	-0.366984	0.197108
N91	N	0.854671	-0.834558	-0.298081
N92	N	1.354671	-0.334558	0.201919
N93	N	0.854671	-0.772101	-0.298096
N94	N	1.354671	-0.272101	0.201904
C95	C	0.909764	-0.740194	-0.302923
C96	C	1.409764	-0.240194	0.197077
C97	C	0.869536	-0.971134	-0.262619
C98	C	1.369536	-0.471134	0.237381
C99	C	0.869533	-1.036878	-0.262611
C100	C	1.369533	-0.536878	0.237389
C101	C	0.950003	-1.036880	-0.343115
C102	C	1.450003	-0.536880	0.156885
C103	C	0.950000	-0.971137	-0.343126
C104	C	1.450000	-0.471137	0.156874
C105	C	0.909768	-0.938268	-0.302874
C106	C	1.409768	-0.438268	0.197126
C107	C	1.073870	-0.303286	-0.302990
C108	C	1.573870	0.196714	0.197010
C109	C	1.143838	-0.303294	-0.302977
C110	C	1.643838	0.196706	0.197023
C111	C	0.909597	-0.303233	-0.466572
C112	C	1.409597	0.196767	0.033428
C113	C	0.909619	-0.303239	-0.536540
C114	C	1.409619	0.196761	-0.036540
C115	C	0.909667	-0.139716	-0.303014
C116	C	1.409667	0.360284	0.196986
C117	C	0.909768	-0.069749	-0.302853
C118	C	1.409768	0.430251	0.197147
C119	C	0.949904	-0.263024	-0.569388
C120	C	1.449904	0.236976	-0.069388
C121	C	0.949934	-0.263038	-0.635130
C122	C	1.449934	0.236962	-0.135130
C123	C	0.909667	-0.303261	-0.668022
C124	C	1.409667	0.196739	-0.168022
C125	C	0.869379	-0.343485	-0.635166
C126	C	1.369379	0.156515	-0.135166
C127	C	0.869355	-0.343474	-0.569425
C128	C	1.369355	0.156526	-0.069425
N129	N	0.854600	-0.308054	-0.771302
N130	N	1.354600	0.191946	-0.271302
N131	N	0.854624	-0.308061	-0.833754
N132	N	1.354624	0.191939	-0.333754
C133	C	0.909738	-0.303297	-0.866097
C134	C	1.409738	0.196703	-0.366097
N135	N	0.964827	-0.298514	-0.833629
N136	N	1.464827	0.201486	-0.333629
N137	N	0.964801	-0.298505	-0.771172
N138	N	1.464801	0.201495	-0.271172
C139	C	0.909689	-0.303278	-0.739308
C140	C	1.409689	0.196722	-0.239308
C141	C	0.950058	-0.263095	-0.970230
C142	C	1.450058	0.236905	-0.470230
C143	C	0.950089	-0.263113	-1.035974
C144	C	1.450089	0.236887	-0.535974
C145	C	0.869528	-0.343557	-1.036009
C146	C	1.369528	0.156443	-0.536009
C147	C	0.869503	-0.343541	-0.970267
C148	C	1.369503	0.156459	-0.470267
C149	C	0.909767	-0.303307	-0.937381
C150	C	1.409767	0.196693	-0.437381
C151	C	0.909780	-0.303317	-0.138830
C152	C	1.409780	0.196683	0.361170
C153	C	0.909822	-0.303338	-0.068862
C154	C	1.409822	0.196662	0.431138
H155	H	0.669946	-0.230073	-0.376016
H156	H	1.169946	0.269927	0.123984
H157	H	0.982759	-0.944379	-0.375907
H158	H	1.482759	-0.444379	0.124093
H159	H	0.982745	-0.662809	-0.375965
H160	H	1.482745	-0.162809	0.124035
C161	C	0.278730	-0.387987	-0.218578
C162	C	0.778730	0.112013	0.281422
H163	H	0.249773	-0.412004	-0.194623
H164	H	0.749773	0.087996	0.305377
H165	H	0.304365	-0.415369	-0.242698
H166	H	0.804365	0.084631	0.257302
H167	H	0.304392	-0.363952	-0.191122
H168	H	0.804392	0.136048	0.308878
H169	H	0.269105	-0.230110	-0.375946
H170	H	0.769105	0.269890	0.124054
C171	C	0.825039	-0.387710	-0.533288
C172	C	1.325039	0.112290	-0.033288
H173	H	0.830794	-0.381944	-0.489425
H174	H	1.330794	0.118056	0.010575
H175	H	0.782752	-0.378463	-0.544118
H176	H	1.282752	0.121537	-0.044118
H177	H	0.834240	-0.430018	-0.544019
H178	H	1.334240	0.069982	-0.044019
C179	C	0.825267	-0.534138	-0.218434
C180	C	1.325267	-0.034138	0.281566
H181	H	0.801306	-0.563131	-0.194458
H182	H	1.301306	-0.063131	0.305542
H183	H	0.849363	-0.508509	-0.191009
H184	H	1.349363	-0.008509	0.308991
H185	H	0.797818	-0.508477	-0.242526
H186	H	1.297818	-0.008477	0.257474
C187	C	0.140677	-0.387993	-0.218550
C188	C	0.640677	0.112007	0.281450
H189	H	0.169705	-0.412018	-0.194618
H190	H	0.669705	0.087982	0.305382
H191	H	0.115047	-0.363969	-0.191083
H192	H	0.615047	0.136031	0.308917
H193	H	0.115021	-0.415378	-0.242668
H194	H	0.615021	0.084622	0.257332
H195	H	0.982742	-0.543538	-0.375999
H196	H	1.482742	-0.043538	0.124001
H197	H	0.982691	-0.230264	-0.542615
H198	H	1.482691	0.269736	-0.042615
C199	C	0.825277	-0.672195	-0.218404
C200	C	1.325277	-0.172195	0.281596
H201	H	0.831040	-0.716055	-0.224163
H202	H	1.331040	-0.216055	0.275837
H203	H	0.834520	-0.661436	-0.176111
H204	H	1.334520	-0.161436	0.323889
H205	H	0.782970	-0.661407	-0.227624
H206	H	1.282970	-0.161407	0.272376
C207	C	0.140433	-0.218599	-0.387413
C208	C	0.640433	0.281401	0.112587
H209	H	0.096580	-0.224382	-0.381652
H210	H	0.596580	0.275618	0.118348
H211	H	0.151194	-0.176319	-0.378152
H212	H	0.651194	0.323681	0.121848
H213	H	0.151171	-0.227741	-0.429724
H214	H	0.651171	0.272259	0.070276
C215	C	0.825269	-0.934975	-0.218360
C216	C	1.325269	-0.434975	0.281640
H217	H	0.801301	-0.963966	-0.194390
H218	H	1.301301	-0.463966	0.305610
H219	H	0.849355	-0.909343	-0.190929
H220	H	1.349355	-0.409343	0.309071
H221	H	0.797827	-0.909316	-0.242463
H222	H	1.297827	-0.409316	0.257537
C223	C	0.994396	-0.218867	-1.072110
C224	C	1.494396	0.281133	-0.572110
H225	H	0.988648	-0.224638	-1.115974
H226	H	1.488648	0.275362	-0.615974
H227	H	0.985190	-0.176565	-1.061375
H228	H	1.485190	0.323435	-0.561375
H229	H	1.036688	-0.228109	-1.061283
H230	H	1.536688	0.271891	-0.561283
C231	C	0.541511	-0.387968	-0.218632
C232	C	1.041511	0.112032	0.281368
H233	H	0.497642	-0.382190	-0.224381
H234	H	0.997642	0.117810	0.275619
H235	H	0.552296	-0.430244	-0.227905
H236	H	1.052296	0.069756	0.272095
H237	H	0.552318	-0.378833	-0.176323
H238	H	1.052318	0.121167	0.323677
H239	H	0.836595	-0.376236	-0.661951
H240	H	1.336595	0.123764	-0.161951
H241	H	0.836771	-1.063635	-0.229830
H242	H	1.336771	-0.563635	0.270170
C243	C	0.994262	-1.073035	-0.387378
C244	C	1.494262	-0.573035	0.112622
H245	H	0.988506	-1.116896	-0.381601
H246	H	1.488506	-0.616896	0.118399
H247	H	0.985025	-1.062244	-0.429677
H248	H	1.485025	-0.562244	0.070323
H249	H	1.036564	-1.062279	-0.378154
H250	H	1.536564	-0.562279	0.121846
C251	C	0.994352	-0.218846	-0.934054
C252	C	1.494352	0.281154	-0.434054
H253	H	1.018357	-0.194903	-0.963036
H254	H	1.518357	0.305097	-0.463036
H255	H	0.970279	-0.191390	-0.908456
H256	H	1.470279	0.308610	-0.408456
H257	H	1.021759	-0.242952	-0.908360
H258	H	1.521759	0.257048	-0.408360
C259	C	0.825236	-0.387805	-1.072179
C260	C	1.325236	0.112195	-0.572179
H261	H	0.801241	-0.411757	-1.043197
H262	H	1.301241	0.088243	-0.543197
H263	H	0.797830	-0.363707	-1.097876
H264	H	1.297830	0.136293	-0.597876
H265	H	0.849317	-0.415262	-1.097775
H266	H	1.349317	0.084738	-0.597775
H267	H	0.836697	-0.376286	-0.943520
H268	H	1.336697	0.123714	-0.443520
H269	H	0.670156	-0.376439	-0.230141
H270	H	1.170156	0.123561	0.269859
C271	C	0.541270	-0.218570	-0.387485
C272	C	1.041270	0.281430	0.112515
H273	H	0.497418	-0.224355	-0.381725
H274	H	0.997418	0.275645	0.118275
H275	H	0.552029	-0.176291	-0.378220
H276	H	1.052029	0.323709	0.121780
H277	H	0.552010	-0.227709	-0.429795
H278	H	1.052010	0.272291	0.070205
C279	C	0.994244	-0.218794	-0.671271
C280	C	1.494244	0.281206	-0.171271
H281	H	1.018217	-0.194828	-0.642270
H282	H	1.518217	0.305172	-0.142270
H283	H	1.021670	-0.242898	-0.696872
H284	H	1.521670	0.257102	-0.196872
H285	H	0.970176	-0.191350	-0.696960
H286	H	1.470176	0.308650	-0.196960
