data_functionalizedCrystal
_audit_creation_method	'MofGen! by Chris Wilmer'
_symmetry_space_group_name_H-M	'P1'
_symmetry_Int_Tables_number	1
_symmetry_cell_setting	triclinic
loop_
_symmetry_equiv_pos_as_xyz
  x,y,z
_cell_length_a	10.723023
_cell_length_b	10.654551
_cell_length_c	9.798715
_cell_angle_alpha	89.999445
_cell_angle_beta	89.996685
_cell_angle_gamma	84.476455
loop_
_atom_site_label
_atom_site_type_symbol
_atom_site_fract_x
_atom_site_fract_y
_atom_site_fract_z
O1	O	1.657214	0.176142	-0.113478
O2	O	1.294064	0.193004	-0.113481
O3	O	1.483988	0.001833	-0.113480
O4	O	1.467290	0.367314	-0.113479
O5	O	1.483975	0.001831	0.113502
O6	O	1.294051	0.193003	0.113502
O7	O	1.657201	0.176141	0.113504
Zn8	Zn	1.475624	0.184572	0.149541
Zn9	Zn	1.475641	0.184574	-0.149518
O10	O	1.467277	0.367312	0.113504
C11	C	1.247558	0.191777	0.000010
C12	C	1.109003	0.188106	0.000009
C13	C	0.904027	0.182675	0.117587
C14	C	1.047231	0.186469	0.117591
C15	C	1.482755	-0.044966	0.000008
C16	C	1.479086	-0.184408	-0.000001
C17	C	1.477372	-0.249919	-0.123727
C18	C	1.473914	-0.380939	-0.123721
C19	C	1.473889	-0.380926	0.123748
C20	C	1.477339	-0.249908	0.123740
C21	C	1.479120	-0.184420	-0.247468
C22	C	1.477408	-0.249931	-0.371204
C23	C	1.473949	-0.380951	-0.371198
C24	C	1.472204	-0.446459	-0.247456
C25	C	1.703707	0.177369	0.000011
C26	C	1.842262	0.181039	0.000003
C27	C	1.468510	0.414111	0.000013
C28	C	1.472179	0.553553	0.000013
N29	N	1.475621	0.184570	0.353641
N30	N	1.475654	0.184566	-0.353617
C31	C	1.555562	0.104128	0.578573
C32	C	1.555545	0.104130	0.421410
H33	H	0.850888	0.181273	0.218252
H34	H	1.055895	0.186696	-0.100665
H35	H	1.478707	-0.196564	0.224489
H36	H	1.472542	-0.434285	-0.471949
H37	H	1.407200	0.253435	0.411946
H38	H	1.623993	0.035265	0.636867
H39	H	1.623954	0.035259	0.363097
H40	H	1.407233	0.253437	0.588086
H41	H	0.895400	0.182455	-0.100662
H42	H	1.469370	-0.553142	-0.247461
H43	H	1.100348	0.187870	0.218259
H44	H	1.481939	-0.077737	-0.247487
H45	H	1.472469	-0.434274	0.224493
H46	H	1.478817	-0.196584	-0.471950
