data_functionalizedCrystal
_audit_creation_method	'MofGen! by Chris Wilmer'
_symmetry_space_group_name_H-M	'P1'
_symmetry_Int_Tables_number	1
_symmetry_cell_setting	triclinic
loop_
_symmetry_equiv_pos_as_xyz
  x,y,z
_cell_length_a	8.597340
_cell_length_b	14.853568
_cell_length_c	7.681481
_cell_angle_alpha	95.726050
_cell_angle_beta	88.189042
_cell_angle_gamma	95.511164
loop_
_atom_site_label
_atom_site_type_symbol
_atom_site_fract_x
_atom_site_fract_y
_atom_site_fract_z
O1	O	2.065759	-0.144119	-0.167004
O2	O	1.615779	-0.150535	-0.098732
O3	O	1.852789	-0.016300	-0.134683
O4	O	1.828749	-0.278354	-0.131053
O5	O	1.823522	-0.032803	-0.423101
O6	O	1.586512	-0.167038	-0.387151
O7	O	2.036492	-0.160622	-0.455423
Zn8	Zn	1.806855	-0.166450	-0.467079
Zn9	Zn	1.845416	-0.144706	-0.087076
O10	O	1.799482	-0.294857	-0.419472
C11	C	1.543558	-0.157178	-0.234204
C12	C	1.371968	-0.152373	-0.208169
C13	C	1.837067	0.009056	-0.278721
C14	C	1.833804	0.109196	-0.278208
C15	C	1.679213	0.524341	-0.254776
C16	C	1.960786	0.540863	-0.297496
C17	C	1.963856	0.446778	-0.297954
C18	C	1.824603	0.391470	-0.276825
C19	C	1.682279	0.430247	-0.255238
C20	C	2.106176	0.407993	-0.319558
C21	C	2.109252	0.313902	-0.320019
C22	C	1.969998	0.258593	-0.298877
C23	C	1.827668	0.297376	-0.277288
C24	C	1.688415	0.242068	-0.256159
C25	C	1.546085	0.280849	-0.234556
C26	C	1.543025	0.374938	-0.234097
C27	C	1.973058	0.164504	-0.299337
C28	C	1.691480	0.147973	-0.256621
C29	C	2.108713	-0.153979	-0.319947
C30	C	2.280305	-0.158782	-0.345971
C31	C	1.815204	0.679788	-0.275423
C32	C	1.818467	0.579650	-0.275905
N33	N	1.871734	-0.129860	0.172267
N34	N	1.780549	-0.181289	-0.726423
H35	H	1.333101	-0.167938	-0.483873
Br36	Br	1.283977	-0.137094	0.021697
H37	H	1.578082	0.102947	-0.239408
Br38	Br	2.026853	-0.042340	0.274073
H39	H	2.074159	0.585900	-0.314712
Br40	Br	1.357103	0.205776	-0.205905
Br41	Br	1.486063	0.576971	-0.225435
Br42	Br	1.349882	0.427576	-0.204771
H43	H	2.088939	0.132932	-0.316937
Br44	Br	2.295146	0.483054	-0.348278
H45	H	1.687477	-0.233788	0.212497
H46	H	2.225145	0.282335	-0.337606
