data_functionalizedCrystal
_audit_creation_method	'MofGen! by Chris Wilmer'
_symmetry_space_group_name_H-M	'P1'
_symmetry_Int_Tables_number	1
_symmetry_cell_setting	triclinic
loop_
_symmetry_equiv_pos_as_xyz
  x,y,z
_cell_length_a	23.532407
_cell_length_b	23.532407
_cell_length_c	22.610064
_cell_angle_alpha	89.994501
_cell_angle_beta	89.988412
_cell_angle_gamma	97.151289
loop_
_atom_site_label
_atom_site_type_symbol
_atom_site_fract_x
_atom_site_fract_y
_atom_site_fract_z
O1	O	-0.069127	0.755263	-0.049138
O2	O	0.180873	1.005263	0.200862
O3	O	0.430873	1.255263	0.450862
O4	O	0.680873	1.505263	0.700862
O5	O	-0.079131	0.589400	-0.049146
O6	O	0.170869	0.839400	0.200854
O7	O	0.420869	1.089400	0.450854
O8	O	0.670869	1.339400	0.700854
O9	O	0.008803	0.677333	-0.049149
O10	O	0.258803	0.927333	0.200851
O11	O	0.508803	1.177333	0.450851
O12	O	0.758803	1.427333	0.700851
O13	O	-0.157061	0.667330	-0.049135
O14	O	0.092939	0.917330	0.200865
O15	O	0.342939	1.167330	0.450865
O16	O	0.592939	1.417330	0.700865
O17	O	0.008790	0.677318	0.049220
O18	O	0.258790	0.927318	0.299220
O19	O	0.508790	1.177318	0.549220
O20	O	0.758790	1.427318	0.799220
O21	O	-0.079143	0.589385	0.049223
O22	O	0.170857	0.839385	0.299223
O23	O	0.420857	1.089385	0.549223
O24	O	0.670857	1.339385	0.799223
O25	O	-0.069140	0.755248	0.049231
O26	O	0.180860	1.005248	0.299231
O27	O	0.430860	1.255248	0.549231
O28	O	0.680860	1.505248	0.799231
Zn29	Zn	-0.074144	0.672314	0.064846
Zn30	Zn	0.175856	0.922314	0.314846
Zn31	Zn	0.425856	1.172314	0.564846
Zn32	Zn	0.675856	1.422314	0.814846
Zn33	Zn	-0.074127	0.672334	-0.064760
Zn34	Zn	0.175873	0.922334	0.185240
Zn35	Zn	0.425873	1.172334	0.435240
Zn36	Zn	0.675873	1.422334	0.685240
O37	O	-0.157074	0.667315	0.049235
O38	O	0.092926	0.917315	0.299235
O39	O	0.342926	1.167315	0.549235
O40	O	0.592926	1.417315	0.799235
C41	C	-0.078882	0.568176	0.000038
C42	C	0.171118	0.818176	0.250038
C43	C	0.421118	1.068176	0.500038
C44	C	0.671118	1.318176	0.750038
C45	C	-0.078116	0.504959	0.000034
C46	C	0.171884	0.754959	0.250034
C47	C	0.421884	1.004959	0.500034
C48	C	0.671884	1.254959	0.750034
C49	C	-0.022921	0.238792	0.000045
C50	C	0.227079	0.488792	0.250045
C51	C	0.477079	0.738792	0.500045
C52	C	0.727079	0.988792	0.750045
C53	C	-0.023632	0.298192	0.000045
C54	C	0.226368	0.548192	0.250045
C55	C	0.476368	0.798192	0.500045
C56	C	0.726368	1.048192	0.750045
O57	O	0.020153	0.334937	0.000062
O58	O	0.270153	0.584937	0.250062
O59	O	0.520153	0.834937	0.500062
O60	O	0.770153	1.084937	0.750062
N61	N	-0.075909	0.320818	0.000046
N62	N	0.174091	0.570818	0.250046
N63	N	0.424091	0.820818	0.500046
N64	N	0.674091	1.070818	0.750046
C65	C	-0.127477	0.284041	0.000052
C66	C	0.122523	0.534041	0.250052
C67	C	0.372523	0.784041	0.500052
C68	C	0.622523	1.034041	0.750052
O69	O	-0.172007	0.308740	0.000053
O70	O	0.077993	0.558740	0.250053
O71	O	0.327993	0.808740	0.500053
O72	O	0.577993	1.058740	0.750053
C73	C	-0.126765	0.224642	0.000057
C74	C	0.123235	0.474642	0.250057
C75	C	0.373235	0.724642	0.500057
C76	C	0.623235	0.974642	0.750057
C77	C	-0.074485	0.202019	0.000050
C78	C	0.175515	0.452019	0.250050
C79	C	0.425515	0.702019	0.500050
C80	C	0.675515	0.952019	0.750050
C81	C	0.029354	0.216168	0.000039
C82	C	0.279354	0.466168	0.250039
C83	C	0.529354	0.716168	0.500039
C84	C	0.779354	0.966168	0.750039
C85	C	0.030066	0.156772	0.000038
C86	C	0.280066	0.406772	0.250038
C87	C	0.530066	0.656772	0.500038
C88	C	0.780066	0.906772	0.750038
C89	C	-0.021499	0.119999	0.000043
C90	C	0.228501	0.369999	0.250043
C91	C	0.478501	0.619999	0.500043
C92	C	0.728501	0.869999	0.750043
C93	C	-0.073774	0.142623	0.000049
C94	C	0.176226	0.392623	0.250049
C95	C	0.426226	0.642623	0.500049
C96	C	0.676226	0.892623	0.750049
C97	C	-0.178333	0.187865	0.000068
C98	C	0.071667	0.437865	0.250068
C99	C	0.321667	0.687865	0.500068
C100	C	0.571667	0.937865	0.750068
C101	C	-0.177616	0.128463	0.000072
C102	C	0.072384	0.378463	0.250072
C103	C	0.322384	0.628463	0.500072
C104	C	0.572384	0.878463	0.750072
C105	C	-0.125336	0.105840	0.000066
C106	C	0.124664	0.355840	0.250066
C107	C	0.374664	0.605840	0.500066
C108	C	0.624664	0.855840	0.750066
C109	C	-0.124627	0.046454	0.000053
C110	C	0.125373	0.296454	0.250053
C111	C	0.375373	0.546454	0.500053
C112	C	0.625373	0.796454	0.750053
N113	N	-0.072351	0.023828	0.000052
N114	N	0.177649	0.273828	0.250052
N115	N	0.427649	0.523828	0.500052
N116	N	0.677649	0.773828	0.750052
C117	C	-0.020787	0.060600	0.000048
C118	C	0.229213	0.310600	0.250048
C119	C	0.479213	0.560600	0.500048
C120	C	0.729213	0.810600	0.750048
C121	C	-0.128968	0.408783	0.000044
C122	C	0.121032	0.658783	0.250044
C123	C	0.371032	0.908783	0.500044
C124	C	0.621032	1.158783	0.750044
C125	C	-0.129681	0.468181	0.000036
C126	C	0.120319	0.718181	0.250036
C127	C	0.370319	0.968181	0.500036
C128	C	0.620319	1.218181	0.750036
C129	C	-0.025836	0.482328	0.000030
C130	C	0.224164	0.732328	0.250030
C131	C	0.474164	0.982328	0.500030
C132	C	0.724164	1.232328	0.750030
C133	C	-0.025124	0.422929	0.000034
C134	C	0.224876	0.672929	0.250034
C135	C	0.474876	0.922929	0.500034
C136	C	0.724876	1.172929	0.750034
C137	C	-0.076692	0.386157	0.000044
C138	C	0.173308	0.636157	0.250044
C139	C	0.423308	0.886157	0.500044
C140	C	0.673308	1.136157	0.750044
C141	C	-0.019297	-0.064136	0.000045
C142	C	0.230703	0.185864	0.250045
C143	C	0.480703	0.435864	0.500045
C144	C	0.730703	0.685864	0.750045
C145	C	-0.018590	-0.123538	0.000041
C146	C	0.231410	0.126462	0.250041
C147	C	0.481410	0.376462	0.500041
C148	C	0.731410	0.626462	0.750041
C149	C	-0.122435	-0.137680	0.000051
C150	C	0.127565	0.112320	0.250051
C151	C	0.377565	0.362320	0.500051
C152	C	0.627565	0.612320	0.750051
C153	C	-0.123142	-0.078284	0.000051
C154	C	0.126858	0.171716	0.250051
C155	C	0.376858	0.421716	0.500051
C156	C	0.626858	0.671716	0.750051
C157	C	-0.071568	-0.041512	0.000050
C158	C	0.178432	0.208488	0.250050
C159	C	0.428432	0.458488	0.500050
C160	C	0.678432	0.708488	0.750050
O161	O	-0.168390	0.009675	0.000039
O162	O	0.081610	0.259675	0.250039
O163	O	0.331610	0.509675	0.500039
O164	O	0.581610	0.759675	0.750039
O165	O	0.023737	0.035892	0.000054
O166	O	0.273737	0.285892	0.250054
O167	O	0.523737	0.535892	0.500054
O168	O	0.773737	0.785892	0.750054
C169	C	-0.178283	0.667577	0.000052
C170	C	0.071717	0.917577	0.250052
C171	C	0.321717	1.167577	0.500052
C172	C	0.571717	1.417577	0.750052
C173	C	-0.241500	0.668343	0.000057
C174	C	0.008500	0.918343	0.250057
C175	C	0.258500	1.168343	0.500057
C176	C	0.508500	1.418343	0.750057
C177	C	-0.640603	0.621110	0.000025
C178	C	-0.390603	0.871110	0.250025
C179	C	-0.140603	1.121110	0.500025
C180	C	0.109397	1.371110	0.750025
C181	C	-0.700004	0.621821	0.000021
C182	C	-0.450004	0.871821	0.250021
C183	C	-0.200004	1.121821	0.500021
C184	C	0.049996	1.371821	0.750021
O185	O	-0.736748	0.578035	-0.000003
O186	O	-0.486748	0.828035	0.249997
O187	O	-0.236748	1.078035	0.499997
O188	O	0.013252	1.328035	0.749997
N189	N	-0.722630	0.674097	0.000024
N190	N	-0.472630	0.924097	0.250024
N191	N	-0.222630	1.174097	0.500024
N192	N	0.027370	1.424097	0.750024
C193	C	-0.685852	0.725666	0.000025
C194	C	-0.435852	0.975666	0.250025
C195	C	-0.185852	1.225666	0.500025
C196	C	0.064148	1.475666	0.750025
O197	O	-0.710552	0.770196	0.000027
O198	O	-0.460552	1.020196	0.250027
O199	O	-0.210552	1.270196	0.500027
O200	O	0.039448	1.520196	0.750027
C201	C	-0.626453	0.724953	0.000025
C202	C	-0.376453	0.974953	0.250025
C203	C	-0.126453	1.224953	0.500025
C204	C	0.123547	1.474953	0.750025
C205	C	-0.603830	0.672674	0.000028
C206	C	-0.353830	0.922674	0.250028
C207	C	-0.103830	1.172674	0.500028
C208	C	0.146170	1.422674	0.750028
C209	C	-0.617980	0.568834	0.000027
C210	C	-0.367980	0.818834	0.250027
C211	C	-0.117980	1.068834	0.500027
C212	C	0.132020	1.318834	0.750027
C213	C	-0.558584	0.568123	0.000032
C214	C	-0.308584	0.818123	0.250032
C215	C	-0.058584	1.068123	0.500032
C216	C	0.191416	1.318123	0.750032
C217	C	-0.521811	0.619687	0.000035
C218	C	-0.271811	0.869687	0.250035
C219	C	-0.021811	1.119687	0.500035
C220	C	0.228189	1.369687	0.750035
C221	C	-0.544434	0.671963	0.000033
C222	C	-0.294434	0.921963	0.250033
C223	C	-0.044434	1.171963	0.500033
C224	C	0.205566	1.421963	0.750033
C225	C	-0.589677	0.776521	0.000022
C226	C	-0.339677	1.026521	0.250022
C227	C	-0.089677	1.276521	0.500022
C228	C	0.160323	1.526521	0.750022
C229	C	-0.530274	0.775804	0.000022
C230	C	-0.280274	1.025804	0.250022
C231	C	-0.030274	1.275804	0.500022
C232	C	0.219726	1.525804	0.750022
C233	C	-0.507652	0.723525	0.000025
C234	C	-0.257652	0.973525	0.250025
C235	C	-0.007652	1.223525	0.500025
C236	C	0.242348	1.473525	0.750025
C237	C	-0.448265	0.722816	0.000042
C238	C	-0.198265	0.972816	0.250042
C239	C	0.051735	1.222816	0.500042
C240	C	0.301735	1.472816	0.750042
N241	N	-0.425639	0.670539	0.000038
N242	N	-0.175639	0.920539	0.250038
N243	N	0.074361	1.170539	0.500038
N244	N	0.324361	1.420539	0.750038
C245	C	-0.462412	0.618975	0.000035
C246	C	-0.212412	0.868975	0.250035
C247	C	0.037588	1.118975	0.500035
C248	C	0.287588	1.368975	0.750035
C249	C	-0.810595	0.727157	0.000025
C250	C	-0.560595	0.977157	0.250025
C251	C	-0.310595	1.227157	0.500025
C252	C	-0.060595	1.477157	0.750025
C253	C	-0.869993	0.727870	0.000029
C254	C	-0.619993	0.977870	0.250029
C255	C	-0.369993	1.227870	0.500029
C256	C	-0.119993	1.477870	0.750029
C257	C	-0.884140	0.624025	0.000023
C258	C	-0.634140	0.874025	0.250023
C259	C	-0.384140	1.124025	0.500023
C260	C	-0.134140	1.374025	0.750023
C261	C	-0.824741	0.623313	0.000023
C262	C	-0.574741	0.873313	0.250023
C263	C	-0.324741	1.123313	0.500023
C264	C	-0.074741	1.373313	0.750023
C265	C	-0.787969	0.674881	0.000021
C266	C	-0.537969	0.924881	0.250021
C267	C	-0.287969	1.174881	0.500021
C268	C	-0.037969	1.424881	0.750021
C269	C	-0.337675	0.617485	0.000047
C270	C	-0.087675	0.867485	0.250047
C271	C	0.162325	1.117485	0.500047
C272	C	0.412325	1.367485	0.750047
C273	C	-0.278273	0.616779	0.000054
C274	C	-0.028273	0.866779	0.250054
C275	C	0.221727	1.116779	0.500054
C276	C	0.471727	1.366779	0.750054
C277	C	-0.264131	0.720623	0.000057
C278	C	-0.014131	0.970623	0.250057
C279	C	0.235869	1.220623	0.500057
C280	C	0.485869	1.470623	0.750057
C281	C	-0.323528	0.721330	0.000052
C282	C	-0.073528	0.971330	0.250052
C283	C	0.176472	1.221330	0.500052
C284	C	0.426472	1.471330	0.750052
C285	C	-0.360299	0.669757	0.000045
C286	C	-0.110299	0.919757	0.250045
C287	C	0.139701	1.169757	0.500045
C288	C	0.389701	1.419757	0.750045
O289	O	-0.411486	0.766578	0.000063
O290	O	-0.161486	1.016578	0.250063
O291	O	0.088514	1.266578	0.500063
O292	O	0.338514	1.516578	0.750063
O293	O	-0.437704	0.574452	0.000026
O294	O	-0.187704	0.824452	0.250026
O295	O	0.062296	1.074452	0.500026
O296	O	0.312296	1.324452	0.750026
C297	C	0.030012	0.677071	0.000032
C298	C	0.280012	0.927071	0.250032
C299	C	0.530012	1.177071	0.500032
C300	C	0.780012	1.427071	0.750032
C301	C	0.093229	0.676305	0.000023
C302	C	0.343229	0.926305	0.250023
C303	C	0.593229	1.176305	0.500023
C304	C	0.843229	1.426305	0.750023
C305	C	-0.069389	0.776472	0.000047
C306	C	0.180611	1.026472	0.250047
C307	C	0.430611	1.276472	0.500047
C308	C	0.680611	1.526472	0.750047
C309	C	-0.070155	0.839689	0.000046
C310	C	0.179845	1.089689	0.250046
C311	C	0.429845	1.339689	0.500046
C312	C	0.679845	1.589689	0.750046
N313	N	-0.074155	0.672304	0.153298
N314	N	0.175845	0.922304	0.403298
N315	N	0.425845	1.172304	0.653298
N316	N	0.675845	1.422304	0.903298
N317	N	-0.074111	0.672349	-0.153213
N318	N	0.175889	0.922349	0.096787
N319	N	0.425889	1.172349	0.346787
N320	N	0.675889	1.422349	0.596787
C321	C	-0.035196	0.711273	0.561938
C322	C	0.214804	0.961273	0.811938
C323	C	0.464804	1.211273	1.061938
C324	C	0.714804	1.461273	1.311938
C325	C	-0.035192	0.711276	0.623858
C326	C	0.214808	0.961276	0.873858
C327	C	0.464808	1.211276	1.123858
C328	C	0.714808	1.461276	1.373858
O329	O	-0.002076	0.744384	0.655875
O330	O	0.247924	0.994384	0.905875
O331	O	0.497924	1.244384	1.155875
O332	O	0.747924	1.494384	1.405875
N333	N	-0.074115	0.672334	0.654835
N334	N	0.175885	0.922334	0.904835
N335	N	0.425885	1.172334	1.154835
N336	N	0.675885	1.422334	1.404835
C337	C	-0.113041	0.633383	0.623889
C338	C	0.136959	0.883383	0.873889
C339	C	0.386959	1.133383	1.123889
C340	C	0.636959	1.383383	1.373889
O341	O	-0.146148	0.600259	0.655924
O342	O	0.103852	0.850259	0.905924
O343	O	0.353852	1.100259	1.155924
O344	O	0.603852	1.350259	1.405924
C345	C	-0.113042	0.633377	0.561971
C346	C	0.136958	0.883377	0.811971
C347	C	0.386958	1.133377	1.061971
C348	C	0.636958	1.383377	1.311971
C349	C	-0.074120	0.672326	0.530996
C350	C	0.175880	0.922326	0.780996
C351	C	0.425880	1.172326	1.030996
C352	C	0.675880	1.422326	1.280996
C353	C	0.003723	0.750217	0.530964
C354	C	0.253723	1.000217	0.780964
C355	C	0.503723	1.250217	1.030964
C356	C	0.753723	1.500217	1.280964
C357	C	0.003718	0.750215	0.469048
C358	C	0.253718	1.000215	0.719048
C359	C	0.503718	1.250215	0.969048
C360	C	0.753718	1.500215	1.219048
C361	C	-0.035206	0.711268	0.438107
C362	C	0.214794	0.961268	0.688107
C363	C	0.464794	1.211268	0.938107
C364	C	0.714794	1.461268	1.188107
C365	C	-0.074125	0.672323	0.469081
C366	C	0.175875	0.922323	0.719081
C367	C	0.425875	1.172323	0.969081
C368	C	0.675875	1.422323	1.219081
C369	C	-0.151965	0.594424	0.531026
C370	C	0.098035	0.844424	0.781026
C371	C	0.348035	1.094424	1.031026
C372	C	0.598035	1.344424	1.281026
C373	C	-0.151963	0.594422	0.469103
C374	C	0.098037	0.844422	0.719103
C375	C	0.348037	1.094422	0.969103
C376	C	0.598037	1.344422	1.219103
C377	C	-0.113041	0.633370	0.438129
C378	C	0.136959	0.883370	0.688129
C379	C	0.386959	1.133370	0.938129
C380	C	0.636959	1.383370	1.188129
C381	C	-0.113055	0.633374	0.376224
C382	C	0.136945	0.883374	0.626224
C383	C	0.386945	1.133374	0.876224
C384	C	0.636945	1.383374	1.126224
N385	N	-0.074131	0.672316	0.345246
N386	N	0.175869	0.922316	0.595246
N387	N	0.425869	1.172316	0.845246
N388	N	0.675869	1.422316	1.095246
C389	C	-0.035207	0.711263	0.376188
C390	C	0.214793	0.961263	0.626188
C391	C	0.464793	1.211263	0.876188
C392	C	0.714793	1.461263	1.126188
C393	C	-0.113036	0.633396	0.753923
C394	C	0.136964	0.883396	1.003923
C395	C	0.386964	1.133396	1.253923
C396	C	0.636964	1.383396	1.503923
C397	C	-0.113038	0.633403	0.815841
C398	C	0.136962	0.883403	1.065841
C399	C	0.386962	1.133403	1.315841
C400	C	0.636962	1.383403	1.565841
C401	C	-0.035188	0.711296	0.815805
C402	C	0.214812	0.961296	1.065805
C403	C	0.464812	1.211296	1.315805
C404	C	0.714812	1.461296	1.565805
C405	C	-0.035189	0.711291	0.753886
C406	C	0.214811	0.961291	1.003886
C407	C	0.464811	1.211291	1.253886
C408	C	0.714811	1.461291	1.503886
C409	C	-0.074112	0.672338	0.722946
C410	C	0.175888	0.922338	0.972946
C411	C	0.425888	1.172338	1.222946
C412	C	0.675888	1.422338	1.472946
C413	C	-0.035221	0.711255	0.246161
C414	C	0.214779	0.961255	0.496161
C415	C	0.464779	1.211255	0.746161
C416	C	0.714779	1.461255	0.996161
C417	C	-0.035231	0.711251	0.184239
C418	C	0.214769	0.961251	0.434239
C419	C	0.464769	1.211251	0.684239
C420	C	0.714769	1.461251	0.934239
C421	C	-0.113079	0.633357	0.184281
C422	C	0.136921	0.883357	0.434281
C423	C	0.386921	1.133357	0.684281
C424	C	0.636921	1.383357	0.934281
C425	C	-0.113071	0.633363	0.246196
C426	C	0.136929	0.883363	0.496196
C427	C	0.386929	1.133363	0.746196
C428	C	0.636929	1.383363	0.996196
C429	C	-0.074137	0.672314	0.277135
C430	C	0.175863	0.922314	0.527135
C431	C	0.425863	1.172314	0.777135
C432	C	0.675863	1.422314	1.027135
O433	O	-0.146152	0.600281	0.344167
O434	O	0.103848	0.850281	0.594167
O435	O	0.353848	1.100281	0.844167
O436	O	0.603848	1.350281	1.094167
O437	O	-0.002101	0.744376	0.344146
O438	O	0.247899	0.994376	0.594146
O439	O	0.497899	1.244376	0.844146
O440	O	0.747899	1.494376	1.094146
H441	H	-0.172252	0.486595	0.000033
H442	H	0.077748	0.736595	0.250033
H443	H	0.327748	0.986595	0.500033
H444	H	0.577748	1.236595	0.750033
F445	F	-0.534515	0.512479	0.000030
F446	F	-0.284515	0.762479	0.250030
F447	F	-0.034515	1.012479	0.500030
F448	F	0.215485	1.262479	0.750030
H449	H	-0.164417	-0.167631	0.000052
H450	H	0.085583	0.082369	0.250052
H451	H	0.335583	0.332369	0.500052
H452	H	0.585583	0.582369	0.750052
H453	H	-0.165712	-0.059864	0.000056
H454	H	0.084288	0.190136	0.250056
H455	H	0.334288	0.440136	0.500056
H456	H	0.584288	0.690136	0.750056
H457	H	-0.259858	0.574205	0.000059
H458	H	-0.009858	0.824205	0.250059
H459	H	0.240142	1.074205	0.500059
H460	H	0.490142	1.324205	0.750059
H461	H	-0.367608	0.575489	0.000041
H462	H	-0.117608	0.825489	0.250041
H463	H	0.132392	1.075489	0.500041
H464	H	0.382392	1.325489	0.750041
F465	F	-0.232503	0.089330	0.000085
F466	F	0.017497	0.339330	0.250085
F467	F	0.267497	0.589330	0.500085
F468	F	0.517497	0.839330	0.750085
F469	F	0.029043	0.521475	0.000024
F470	F	0.279043	0.771475	0.250024
F471	F	0.529043	1.021475	0.500024
F472	F	0.779043	1.271475	0.750024
F473	F	0.006240	0.752746	0.848747
F474	F	0.256240	1.002746	1.098747
F475	F	0.506240	1.252746	1.348747
F476	F	0.756240	1.502746	1.598747
H477	H	-0.647915	0.526842	0.000022
H478	H	-0.397915	0.776842	0.250022
H479	H	-0.147915	1.026842	0.500022
H480	H	0.102085	1.276842	0.750022
F481	F	0.037055	-0.147611	0.000031
F482	F	0.287055	0.102389	0.250031
F483	F	0.537055	0.352389	0.500031
F484	F	0.787055	0.602389	0.750031
F485	F	0.045156	0.791673	0.563886
F486	F	0.295156	1.041673	0.813886
F487	F	0.545156	1.291673	1.063886
F488	F	0.795156	1.541673	1.313886
F489	F	0.006196	0.752708	0.151278
F490	F	0.256196	1.002708	0.401278
F491	F	0.506196	1.252708	0.651278
F492	F	0.756196	1.502708	0.901278
F493	F	0.085709	0.132703	0.000027
F494	F	0.335709	0.382703	0.250027
F495	F	0.585709	0.632703	0.500027
F496	F	0.835709	0.882703	0.750027
F497	F	-0.183858	0.369651	0.000048
F498	F	0.066142	0.619651	0.250048
F499	F	0.316142	0.869651	0.500048
F500	F	0.566142	1.119651	0.750048
F501	F	-0.193390	0.552969	0.563980
F502	F	0.056610	0.802969	0.813980
F503	F	0.306610	1.052969	1.063980
F504	F	0.556610	1.302969	1.313980
F505	F	-0.800670	0.567670	0.000025
F506	F	-0.550670	0.817670	0.250025
F507	F	-0.300670	1.067670	0.500025
F508	F	-0.050670	1.317670	0.750025
H509	H	-0.144737	0.601677	0.728734
H510	H	0.105263	0.851677	0.978734
H511	H	0.355263	1.101677	1.228734
H512	H	0.605263	1.351677	1.478734
H513	H	-0.003517	0.742972	0.271344
H514	H	0.246483	0.992972	0.521344
H515	H	0.496483	1.242972	0.771344
H516	H	0.746483	1.492972	1.021344
H517	H	-0.003495	0.743005	0.728671
H518	H	0.246505	0.993005	0.978671
H519	H	0.496505	1.243005	1.228671
H520	H	0.746505	1.493005	1.478671
H521	H	-0.144772	0.601648	0.159078
H522	H	0.105228	0.851648	0.409078
H523	H	0.355228	1.101648	0.659078
H524	H	0.605228	1.351648	0.909078
F525	F	-0.923287	0.569145	0.000020
F526	F	-0.673287	0.819145	0.250020
F527	F	-0.423287	1.069145	0.500020
F528	F	-0.173287	1.319145	0.750020
F529	F	-0.193391	0.552960	0.436178
F530	F	0.056609	0.802960	0.686178
F531	F	0.306609	1.052960	0.936178
F532	F	0.556609	1.302960	1.186178
H533	H	-0.144770	0.601653	0.271416
H534	H	0.105230	0.851653	0.521416
H535	H	0.355230	1.101653	0.771416
H536	H	0.605230	1.351653	1.021416
F537	F	0.035594	-0.025010	0.000044
F538	F	0.285594	0.224990	0.250044
F539	F	0.535594	0.474990	0.500044
F540	F	0.785594	0.724990	0.750044
H541	H	0.071347	0.246104	0.000037
H542	H	0.321347	0.496104	0.250037
H543	H	0.571347	0.746104	0.500037
H544	H	0.821347	0.996104	0.750037
F545	F	0.030518	0.398858	0.000029
F546	F	0.280518	0.648858	0.250029
F547	F	0.530518	0.898858	0.500029
F548	F	0.780518	1.148858	0.750029
H549	H	-0.780657	0.769152	0.000027
H550	H	-0.530657	1.019152	0.250027
H551	H	-0.280657	1.269152	0.500027
H552	H	-0.030657	1.519152	0.750027
H553	H	0.035413	0.781929	0.443833
H554	H	0.285413	1.031929	0.693833
H555	H	0.535413	1.281929	0.943833
H556	H	0.785413	1.531929	1.193833
F557	F	-0.233977	0.211929	0.000074
F558	F	0.016023	0.461929	0.250074
F559	F	0.266023	0.711929	0.500074
F560	F	0.516023	0.961929	0.750074
F561	F	-0.613740	0.832165	0.000009
F562	F	-0.363740	1.082165	0.250009
F563	F	-0.113740	1.332165	0.500009
F564	F	0.136260	1.582165	0.750009
F565	F	-0.894062	0.783513	0.000035
F566	F	-0.644062	1.033513	0.250035
F567	F	-0.394062	1.283513	0.500035
F568	F	-0.144062	1.533513	0.750035
H569	H	-0.500336	0.817798	0.000017
H570	H	-0.250336	1.067798	0.250017
H571	H	-0.000336	1.317798	0.500017
H572	H	0.249664	1.567798	0.750017
F573	F	-0.347605	0.776972	0.000068
F574	F	-0.097605	1.026972	0.250068
F575	F	0.152395	1.276972	0.500068
F576	F	0.402395	1.526972	0.750068
H577	H	-0.234180	0.762605	0.000062
H578	H	0.015820	1.012605	0.250062
H579	H	0.265820	1.262605	0.500062
H580	H	0.515820	1.512605	0.750062
F581	F	-0.154471	0.591956	0.848799
F582	F	0.095529	0.841956	1.098799
F583	F	0.345529	1.091956	1.348799
F584	F	0.595529	1.341956	1.598799
