data_functionalizedCrystal
_audit_creation_method	'MofGen! by Chris Wilmer'
_symmetry_space_group_name_H-M	'P1'
_symmetry_Int_Tables_number	1
_symmetry_cell_setting	triclinic
loop_
_symmetry_equiv_pos_as_xyz
  x,y,z
_cell_length_a	16.109302
_cell_length_b	9.016244
_cell_length_c	16.109301
_cell_angle_alpha	89.996338
_cell_angle_beta	96.538369
_cell_angle_gamma	90.009280
loop_
_atom_site_label
_atom_site_type_symbol
_atom_site_fract_x
_atom_site_fract_y
_atom_site_fract_z
O1	O	1.103135	0.123412	-0.106867
O2	O	1.436469	0.456745	0.226467
O3	O	1.769802	0.790078	0.559800
O4	O	0.861073	0.123401	-0.120165
O5	O	1.194407	0.456734	0.213168
O6	O	1.527740	0.790067	0.546501
O7	O	0.988754	0.123391	0.007515
O8	O	1.322087	0.456725	0.340848
O9	O	1.655421	0.790058	0.674182
O10	O	0.975455	0.123421	-0.234547
O11	O	1.308788	0.456754	0.098786
O12	O	1.642121	0.790088	0.432120
O13	O	0.988735	-0.123289	0.007512
O14	O	1.322069	0.210044	0.340845
O15	O	1.655402	0.543377	0.674179
O16	O	0.861055	-0.123280	-0.120168
O17	O	1.194388	0.210053	0.213165
O18	O	1.527721	0.543386	0.546498
O19	O	1.103117	-0.123269	-0.106870
O20	O	1.436450	0.210064	0.226464
O21	O	1.769783	0.543398	0.559797
Cu22	Cu	0.982084	-0.145799	-0.113519
Cu23	Cu	1.315417	0.187535	0.219814
Cu24	Cu	1.648751	0.520868	0.553148
Cu25	Cu	0.982106	0.145930	-0.113516
Cu26	Cu	1.315439	0.479263	0.219818
Cu27	Cu	1.648773	0.812597	0.553151
O28	O	0.975436	-0.123260	-0.234550
O29	O	1.308769	0.210073	0.098783
O30	O	1.642103	0.543407	0.432117
C31	C	0.830089	0.000059	-0.119628
C32	C	1.163423	0.333392	0.213705
C33	C	1.496756	0.666725	0.547039
C34	C	0.737794	0.000054	-0.118013
C35	C	1.071127	0.333387	0.215321
C36	C	1.404461	0.666721	0.548654
C37	C	0.525443	-0.134398	-0.114279
C38	C	0.858776	0.198936	0.219054
C39	C	1.192110	0.532269	0.552388
C40	C	0.438723	-0.134393	-0.112752
C41	C	0.772056	0.198941	0.220581
C42	C	1.105389	0.532274	0.553914
C43	C	0.438754	0.134552	-0.112753
C44	C	0.772087	0.467886	0.220580
C45	C	1.105420	0.801219	0.553913
C46	C	0.525473	0.134546	-0.114274
C47	C	0.858806	0.467879	0.219059
C48	C	1.192140	0.801212	0.552393
C49	C	0.568815	0.000066	-0.115041
C50	C	0.902148	0.333400	0.218292
C51	C	1.235481	0.666733	0.551626
C52	C	0.395375	0.000078	-0.111994
C53	C	0.728709	0.333411	0.221340
C54	C	1.062042	0.666745	0.554673
C55	C	0.301350	0.000084	-0.110338
C56	C	0.634683	0.333418	0.222995
C57	C	0.968016	0.666751	0.556328
C58	C	0.662847	0.000059	-0.116695
C59	C	0.996180	0.333393	0.216638
C60	C	1.329513	0.666726	0.549972
N61	N	0.982075	-0.350985	-0.113521
N62	N	1.315408	-0.017651	0.219812
N63	N	1.648741	0.315682	0.553146
C64	C	0.913568	-0.586012	-0.181597
C65	C	1.246902	-0.252679	0.151737
C66	C	1.580235	0.080654	0.485070
C67	C	0.913716	-0.414121	-0.181848
C68	C	1.247049	-0.080788	0.151486
C69	C	1.580383	0.252545	0.484819
C70	C	1.068821	-0.413316	-0.132447
C71	C	1.402155	-0.079983	0.200887
C72	C	1.735488	0.253350	0.534220
C73	C	1.068446	-0.585261	-0.132928
C74	C	1.401780	-0.251928	0.200406
C75	C	1.735113	0.081406	0.533739
C76	C	0.964699	-0.585540	-0.026291
C77	C	1.298033	-0.252207	0.307042
C78	C	1.631366	0.081127	0.640376
C79	C	0.962699	-0.413586	-0.026876
C80	C	1.296033	-0.080253	0.306457
C81	C	1.629366	0.253081	0.639791
C82	C	1.134101	0.000076	-0.107407
C83	C	1.467434	0.333409	0.225926
C84	C	1.800768	0.666743	0.559260
C85	C	1.226396	0.000091	-0.109022
C86	C	1.559729	0.333424	0.224311
C87	C	1.893063	0.666757	0.557644
C88	C	0.988206	0.000050	0.038488
C89	C	1.321539	0.333383	0.371822
C90	C	1.654873	0.666717	0.705155
C91	C	0.986591	0.000048	0.130784
C92	C	1.319924	0.333381	0.464117
C93	C	1.653258	0.666715	0.797450
N94	N	0.982122	0.351116	-0.113507
N95	N	1.315455	0.684449	0.219826
N96	N	1.648789	1.017783	0.553160
C97	C	0.975984	0.000085	-0.265523
C98	C	1.309317	0.333418	0.067810
C99	C	1.642651	0.666751	0.401143
C100	C	0.977599	0.000096	-0.357819
C101	C	1.310933	0.333430	-0.024485
C102	C	1.644266	0.666763	0.308848
C103	C	1.058599	0.000075	0.353056
C104	C	1.391932	0.333408	0.686389
C105	C	1.725265	0.666741	1.019723
C106	C	1.057074	0.000087	0.439776
C107	C	1.390408	0.333420	0.773110
C108	C	1.723741	0.666754	1.106443
C109	C	0.905586	0.000074	0.419902
C110	C	1.238919	0.333407	0.753236
C111	C	1.572252	0.666741	1.086569
C112	C	0.907111	0.000073	0.333184
C113	C	1.240444	0.333406	0.666517
C114	C	1.573777	0.666739	0.999850
C115	C	0.983620	0.000065	0.299763
C116	C	1.316953	0.333399	0.633096
C117	C	1.650286	0.666732	0.966430
C118	C	0.980571	0.000079	0.473202
C119	C	1.313904	0.333412	0.806535
C120	C	1.647237	0.666746	1.139869
C121	C	0.978918	0.000092	0.567228
C122	C	1.312251	0.333425	0.900562
C123	C	1.645584	0.666759	1.233895
C124	C	0.985273	0.000055	0.205731
C125	C	1.318606	0.333388	0.539064
C126	C	1.651940	0.666722	0.872398
H127	H	0.849235	-0.371982	-0.170575
H128	H	1.182568	-0.038649	0.162758
H129	H	1.515902	0.294685	0.496092
H130	H	0.560729	-0.243899	-0.114904
H131	H	0.894063	0.089434	0.218430
H132	H	1.227396	0.422767	0.551763
H133	H	0.403454	0.244041	-0.112130
H134	H	0.736787	0.577374	0.221204
H135	H	1.070121	0.910707	0.554537
H136	H	0.843295	0.000077	0.447124
H137	H	1.176628	0.333410	0.780458
H138	H	1.509962	0.666744	1.113791
H139	H	0.846050	0.000069	0.289790
H140	H	1.179383	0.333403	0.623123
H141	H	1.512717	0.666736	0.956457
H142	H	0.924835	-0.372966	-0.246571
H143	H	1.258168	-0.039633	0.086762
H144	H	1.591501	0.293701	0.420096
H145	H	0.403413	-0.243887	-0.112132
H146	H	0.736747	0.089447	0.221201
H147	H	1.070080	0.422780	0.554535
H148	H	0.848883	-0.627411	-0.170508
H149	H	1.182216	-0.294077	0.162825
H150	H	1.515550	0.039256	0.496158
H151	H	1.121047	-0.372415	-0.084174
H152	H	1.454381	-0.039082	0.249160
H153	H	1.787714	0.294251	0.582493
H154	H	1.121051	-0.626847	-0.085289
H155	H	1.454384	-0.293513	0.248044
H156	H	1.787717	0.039820	0.581378
H157	H	0.560787	0.244049	-0.114892
H158	H	0.894121	0.577383	0.218441
H159	H	1.227454	0.910716	0.551774
H160	H	1.084541	-0.370230	-0.195328
H161	H	1.417874	-0.036896	0.138005
H162	H	1.751207	0.296437	0.471338
H163	H	0.924538	-0.629197	-0.245954
H164	H	1.257871	-0.295864	0.087379
H165	H	1.591205	0.037470	0.420712
H166	H	1.083803	-0.625341	-0.196533
H167	H	1.417136	-0.292008	0.136800
H168	H	1.750469	0.041325	0.470133
H169	H	0.902823	-0.628993	-0.008086
H170	H	1.236157	-0.295660	0.325248
H171	H	1.569490	0.037673	0.658581
H172	H	1.120897	0.000072	0.325848
H173	H	1.454230	0.333405	0.659181
H174	H	1.787564	0.666739	0.992515
H175	H	0.898888	-0.372849	-0.012513
H176	H	1.232221	-0.039516	0.320820
H177	H	1.565554	0.293818	0.654154
H178	H	1.009384	-0.370614	0.026164
H179	H	1.342718	-0.037281	0.359497
H180	H	1.676051	0.296052	0.692830
H181	H	1.014692	-0.626196	0.024378
H182	H	1.348026	-0.292863	0.357712
H183	H	1.681359	0.040471	0.691045
H184	H	1.118130	0.000098	0.483165
H185	H	1.451463	0.333431	0.816498
H186	H	1.784797	0.666764	1.149831
