data_functionalizedCrystal
_audit_creation_method	'MofGen! by Chris Wilmer'
_symmetry_space_group_name_H-M	'P1'
_symmetry_Int_Tables_number	1
_symmetry_cell_setting	triclinic
loop_
_symmetry_equiv_pos_as_xyz
  x,y,z
_cell_length_a	15.944551
_cell_length_b	22.610064
_cell_length_c	15.944551
_cell_angle_alpha	90.003119
_cell_angle_beta	96.501262
_cell_angle_gamma	90.003741
loop_
_atom_site_label
_atom_site_type_symbol
_atom_site_fract_x
_atom_site_fract_y
_atom_site_fract_z
O1	O	1.114530	0.049124	-0.108321
O2	O	0.869980	0.049139	-0.121677
O3	O	0.998933	0.049126	0.007276
O4	O	0.985577	0.049137	-0.237274
O5	O	0.998910	-0.049243	0.007257
O6	O	0.869958	-0.049230	-0.121696
O7	O	1.114507	-0.049245	-0.108339
Zn8	Zn	0.992229	-0.064856	-0.115021
Zn9	Zn	0.992259	0.064750	-0.114996
O10	O	0.985554	-0.049232	-0.237292
C11	C	0.838675	-0.000044	-0.121132
C12	C	0.745429	-0.000038	-0.119470
N13	N	0.992214	-0.153308	-0.115037
C14	C	0.530572	-0.000054	-0.035565
C15	C	0.469563	0.048449	-0.074518
C16	C	0.574703	-0.000045	-0.116462
C17	C	0.469563	-0.048535	-0.074556
C18	C	0.409790	-0.000055	-0.113551
C19	C	0.514922	0.048498	-0.155438
C20	C	0.514929	-0.048530	-0.155464
C21	C	0.453937	-0.000015	-0.194476
C22	C	0.669705	-0.000039	-0.118137
C23	C	0.314789	-0.000057	-0.111883
C24	C	1.049362	-0.561956	-0.057904
C25	C	1.049366	-0.623875	-0.057898
O26	O	1.097919	-0.655899	-0.009334
N27	N	0.992258	-0.654845	-0.114978
C28	C	0.935136	-0.623892	-0.172063
O29	O	0.886562	-0.655920	-0.220613
C30	C	0.935129	-0.561974	-0.172064
C31	C	0.992246	-0.531007	-0.114986
C32	C	1.106474	-0.530989	-0.000830
C33	C	1.106470	-0.469073	-0.000837
C34	C	1.049355	-0.438124	-0.057919
C35	C	0.992243	-0.469091	-0.114993
C36	C	0.878004	-0.531022	-0.229144
C37	C	0.878001	-0.469099	-0.229140
C38	C	0.935118	-0.438132	-0.172062
C39	C	0.935124	-0.376227	-0.172082
N40	N	0.992232	-0.345257	-0.115002
C41	C	1.049347	-0.376205	-0.057920
C42	C	0.935156	-0.753926	-0.172054
C43	C	0.935167	-0.815844	-0.172058
C44	C	1.049396	-0.815822	-0.057892
C45	C	1.049388	-0.753904	-0.057893
C46	C	0.992264	-0.722956	-0.114974
C47	C	1.049336	-0.246178	-0.057941
C48	C	1.049330	-0.184257	-0.057955
C49	C	0.935099	-0.184284	-0.172118
C50	C	0.935107	-0.246199	-0.172106
C51	C	0.992229	-0.277145	-0.115011
O52	O	0.886593	-0.344164	-0.220619
O53	O	1.097906	-0.344170	-0.009371
C54	C	1.145813	-0.000061	-0.108885
C55	C	1.239059	-0.000063	-0.110547
C56	C	0.998367	-0.000059	0.038561
C57	C	0.996705	-0.000059	0.131807
N58	N	0.992280	0.153202	-0.114973
C59	C	0.986120	-0.000046	-0.268577
C60	C	0.987782	-0.000042	-0.361823
C61	C	0.912801	-0.000046	0.346663
C62	C	0.951752	-0.048550	0.407671
C63	C	0.993698	-0.000054	0.302533
C64	C	0.951793	0.048434	0.407673
C65	C	0.990787	-0.000047	0.467445
C66	C	1.032671	-0.048599	0.362312
C67	C	1.032701	0.048429	0.362308
C68	C	1.071711	-0.000087	0.423298
C69	C	0.995372	-0.000059	0.207530
C70	C	0.989119	-0.000047	0.562446
H71	H	0.563905	0.000003	0.031573
O72	O	0.414276	0.000097	-0.274611
C73	C	0.362909	0.050812	-0.286919
H74	H	0.346552	0.067509	-0.223295
H75	H	0.398250	0.086779	-0.318669
C76	C	0.301247	0.014561	-0.421565
C77	C	0.281151	0.035067	-0.343421
H78	H	0.250816	0.004851	-0.456421
H79	H	0.335856	-0.019606	-0.413275
H80	H	0.330699	0.044538	-0.448012
H81	H	0.251709	0.005088	-0.316970
H82	H	0.246535	0.069229	-0.351708
O83	O	0.538922	-0.097507	-0.196135
C84	C	0.516058	-0.148548	-0.153285
H85	H	0.509294	-0.136930	-0.084803
H86	H	0.453416	-0.166244	-0.185059
C87	C	0.593149	-0.210359	-0.240177
C88	C	0.584848	-0.196091	-0.156064
H89	H	0.635579	-0.239688	-0.241893
H90	H	0.608550	-0.175972	-0.269049
H91	H	0.540943	-0.225102	-0.266646
H92	H	0.637051	-0.181342	-0.129600
H93	H	0.569457	-0.230477	-0.127188
H94	H	1.095849	-0.271367	-0.011447
O95	O	1.104793	-0.845984	-0.002467
C96	C	1.092557	-0.907274	-0.014723
H97	H	1.025782	-0.915732	-0.046080
H98	H	1.140100	-0.924846	-0.056880
C99	C	1.187187	-0.928674	0.109706
C100	C	1.105169	-0.939063	0.071200
H101	H	1.194970	-0.948284	0.162707
H102	H	1.195434	-0.887382	0.117963
H103	H	1.226797	-0.943318	0.074567
H104	H	1.065562	-0.924413	0.106334
H105	H	1.096916	-0.980353	0.062952
O106	O	1.161928	-0.560981	0.054737
C107	C	1.148263	-0.545855	0.137896
H108	H	1.115869	-0.500906	0.137807
H109	H	1.106473	-0.580711	0.163911
C110	C	1.273336	-0.598174	0.193823
C111	C	1.233555	-0.542964	0.193714
H112	H	1.325947	-0.596393	0.228256
H113	H	1.282541	-0.608367	0.137797
H114	H	1.238502	-0.627215	0.215500
H115	H	1.268384	-0.513926	0.172027
H116	H	1.224358	-0.532766	0.249737
H117	H	0.449467	-0.089539	-0.040333
H118	H	1.066849	-0.089650	0.342314
H119	H	0.449463	0.089452	-0.040294
H120	H	0.534920	0.089548	-0.189620
H121	H	1.095897	-0.728694	-0.011415
O122	O	0.879608	-0.845829	-0.227541
C123	C	0.829215	-0.805228	-0.277935
H124	H	0.828270	-0.761089	-0.243495
H125	H	0.856488	-0.798644	-0.340352
C126	C	0.739766	-0.883607	-0.337490
C127	C	0.738599	-0.829396	-0.295187
H128	H	0.683870	-0.898515	-0.348135
H129	H	0.773717	-0.910961	-0.303541
H130	H	0.762497	-0.878113	-0.389499
H131	H	0.715878	-0.834891	-0.243174
H132	H	0.704641	-0.802042	-0.329127
O133	O	1.104846	-0.154268	-0.002424
C134	C	1.155268	-0.194867	0.047945
H135	H	1.120832	-0.239006	0.048917
H136	H	1.217663	-0.201452	0.020632
C137	C	1.214876	-0.116484	0.137354
C138	C	1.172577	-0.170695	0.138554
H139	H	1.225556	-0.101572	0.193245
H140	H	1.180908	-0.089131	0.103418
H141	H	1.266867	-0.121978	0.114589
H142	H	1.120582	-0.165198	0.161309
H143	H	1.206536	-0.198046	0.172496
H144	H	0.888641	-0.728731	-0.218543
O145	O	0.822400	-0.561065	-0.284505
C146	C	0.739261	-0.545919	-0.270798
H147	H	0.738863	-0.528901	-0.203542
H148	H	0.714594	-0.509975	-0.317331
C149	C	0.682794	-0.621823	-0.366421
C150	C	0.682304	-0.600925	-0.283814
H151	H	0.647659	-0.655751	-0.374453
H152	H	0.738806	-0.632026	-0.375659
H153	H	0.662240	-0.591864	-0.405189
H154	H	0.702868	-0.630881	-0.245048
H155	H	0.626294	-0.590728	-0.274569
H156	H	1.066898	0.089434	0.342185
H157	H	1.138919	-0.000118	0.456457
O158	O	1.161726	-0.439014	0.054858
C159	C	1.116548	-0.403331	0.106700
H160	H	1.050930	-0.393976	0.073094
H161	H	1.110583	-0.427341	0.168617
C162	C	1.244484	-0.356048	0.166361
C163	C	1.163894	-0.344553	0.125083
H164	H	1.273691	-0.319792	0.177705
H165	H	1.274923	-0.380090	0.131437
H166	H	1.239502	-0.376058	0.217954
H167	H	1.168877	-0.324551	0.073486
H168	H	1.133457	-0.320507	0.159999
O169	O	0.822594	-0.439063	-0.284708
C170	C	0.836233	-0.454214	-0.367866
H171	H	0.903481	-0.471229	-0.368319
H172	H	0.789682	-0.490163	-0.392499
C173	C	0.740576	-0.378321	-0.424258
C174	C	0.823174	-0.399214	-0.424816
H175	H	0.732518	-0.344395	-0.459390
H176	H	0.731384	-0.368114	-0.368234
H177	H	0.701793	-0.408283	-0.444784
H178	H	0.861955	-0.369254	-0.404281
H179	H	0.832372	-0.409413	-0.480839
O180	O	0.879544	-0.276192	-0.227582
C181	C	0.829147	-0.235595	-0.277980
H182	H	0.828210	-0.191452	-0.243550
H183	H	0.856411	-0.229021	-0.340403
C184	C	0.739686	-0.313978	-0.337503
C185	C	0.738529	-0.259761	-0.295213
H186	H	0.683789	-0.328885	-0.348137
H187	H	0.773641	-0.341330	-0.303552
H188	H	0.762410	-0.308492	-0.389518
H189	H	0.715815	-0.265249	-0.243195
H190	H	0.704568	-0.232411	-0.329156
H191	H	0.888598	-0.159075	-0.218596
O192	O	0.832682	-0.000200	0.306959
C193	C	0.790323	-0.051425	0.329948
H194	H	0.838534	-0.086992	0.351931
H195	H	0.751071	-0.040356	0.383339
C196	C	0.672740	-0.030601	0.226238
C197	C	0.731953	-0.074288	0.253232
H198	H	0.636731	-0.044703	0.178918
H199	H	0.701276	0.003912	0.210752
H200	H	0.640039	-0.021381	0.270738
H201	H	0.764659	-0.083501	0.208736
H202	H	0.703421	-0.108802	0.268709
H203	H	0.917576	0.089444	0.427758
O204	O	0.910845	-0.097403	0.431748
C205	C	0.840803	-0.079989	0.472465
H206	H	0.851378	-0.033257	0.498366
H207	H	0.781433	-0.080916	0.425359
C208	C	0.817222	-0.180239	0.513778
C209	C	0.830213	-0.122844	0.545596
H210	H	0.810686	-0.206675	0.558886
H211	H	0.864409	-0.191972	0.486344
H212	H	0.767748	-0.181003	0.474523
H213	H	0.879692	-0.122079	0.584842
H214	H	0.783035	-0.111112	0.573038
