data_functionalizedCrystal
_audit_creation_method	'MofGen! by Chris Wilmer'
_symmetry_space_group_name_H-M	'P1'
_symmetry_Int_Tables_number	1
_symmetry_cell_setting	triclinic
loop_
_symmetry_equiv_pos_as_xyz
  x,y,z
_cell_length_a	19.121102
_cell_length_b	21.295417
_cell_length_c	19.120904
_cell_angle_alpha	87.591662
_cell_angle_beta	89.911827
_cell_angle_gamma	87.584620
loop_
_atom_site_label
_atom_site_type_symbol
_atom_site_fract_x
_atom_site_fract_y
_atom_site_fract_z
Zn1	Zn	1.054814	-0.307921	0.442032
Zn2	Zn	1.059724	-0.408895	0.324785
Zn3	Zn	0.942584	-0.298967	0.319816
Zn4	Zn	0.937535	-0.408472	0.436987
O5	O	0.998664	-0.356064	0.380905
O6	O	1.153571	-0.325239	0.430669
O7	O	1.048352	-0.390743	0.226021
O8	O	0.957530	-0.212069	0.336060
O9	O	1.157177	-0.399425	0.344528
O10	O	1.039985	-0.218647	0.425851
O11	O	0.962291	-0.309980	0.222371
O12	O	0.843809	-0.309569	0.331169
O13	O	0.948925	-0.398703	0.535761
O14	O	0.840100	-0.390022	0.417254
O15	O	1.035089	-0.324829	0.539467
O16	O	1.043456	-0.496925	0.339637
O17	O	0.953685	-0.496614	0.422072
C18	C	0.816517	-0.348778	0.373125
C19	C	0.738593	-0.345677	0.369814
C20	C	0.700074	-0.386166	0.413007
C21	C	0.626856	-0.383244	0.409899
C22	C	0.592158	-0.339836	0.363593
C23	C	0.630682	-0.299344	0.320398
C24	C	0.703899	-0.302263	0.323510
C25	C	0.371187	-0.328921	0.351961
C26	C	0.297965	-0.326006	0.348850
C27	C	0.294144	-0.409906	0.438353
C28	C	0.367362	-0.412824	0.441458
C29	C	0.405880	-0.372329	0.398265
C30	C	0.517318	-0.336850	0.360413
C31	C	0.480719	-0.375313	0.401449
C32	C	0.998574	-0.519610	0.380862
C33	C	0.998599	-0.589580	0.380870
C34	C	1.045380	-0.622590	0.337994
C35	C	1.045413	-0.688335	0.338011
C36	C	0.998651	-0.721065	0.380897
C37	C	0.951865	-0.688046	0.423781
C38	C	0.951839	-0.622304	0.423768
N39	N	0.937094	-0.822078	0.383622
N40	N	0.937121	-0.884530	0.383630
C41	C	0.998728	-0.919144	0.380940
N42	N	1.060308	-0.888946	0.378228
N43	N	1.060281	-0.826487	0.378215
C44	C	0.998674	-0.792352	0.380916
C45	C	1.045548	-1.023443	0.338080
C46	C	1.045581	-1.089189	0.338103
C47	C	0.952028	-1.088899	0.423869
C48	C	0.952001	-1.023154	0.423850
C49	C	0.998760	-0.990430	0.380953
C50	C	1.181523	-0.363378	0.388716
C51	C	1.259446	-0.366495	0.392044
C52	C	0.990896	-0.362718	0.563763
C53	C	0.987586	-0.365553	0.641686
C54	C	0.998773	-0.191880	0.380964
C55	C	0.998820	-0.121914	0.380989
C56	C	1.006442	-0.349392	0.198761
C57	C	1.009889	-0.346384	0.120844
C58	C	1.030890	-0.328425	0.680225
C59	C	1.027771	-0.331086	0.753441
C60	C	0.981351	-0.370880	0.788118
C61	C	0.938043	-0.408010	0.749573
C62	C	0.941159	-0.405345	0.676358
C63	C	0.969696	-0.380849	1.009084
C64	C	0.966585	-0.383513	1.082305
C65	C	1.056312	-0.306588	1.086168
C66	C	1.059427	-0.303929	1.012951
C67	C	1.016116	-0.341056	0.974413
C68	C	0.978164	-0.373603	0.862957
C69	C	1.019300	-0.338330	0.899575
H70	H	0.595497	-0.416215	0.445071
H71	H	0.269716	-0.290651	0.311147
F72	F	1.068696	-0.295973	0.862668
H73	H	0.602426	-0.263997	0.282698
F74	F	1.095153	-0.587767	0.292346
F75	F	0.412171	-0.285821	0.305993
H76	H	0.928782	-0.415919	1.110536
F77	F	0.253145	-0.453002	0.484317
F78	F	0.928764	-0.415956	0.899868
F79	F	0.404284	-0.459026	0.490742
F80	F	0.480383	-0.290653	0.311133
H81	H	0.913743	-0.595426	0.458684
H82	H	0.934439	-0.411090	0.977716
F83	F	0.744893	-0.259168	0.277539
F84	F	0.517648	-0.421508	0.450730
H85	H	1.091573	-0.276360	1.117553
H86	H	1.083625	-0.996798	0.303153
H87	H	0.913904	-0.996275	0.458761
F88	F	1.095206	-0.723475	0.292374
F89	F	1.095380	-1.124322	0.292470
H90	H	0.905889	-0.435572	0.644980
F91	F	1.073885	-0.291591	0.794455
H92	H	0.728320	-0.421515	0.450712
F93	F	0.902101	-0.722881	0.469426
F94	F	0.902264	-1.123728	0.469515
F95	F	1.080300	-0.286074	0.643326
F96	F	1.108834	-0.261575	0.976051
H97	H	0.900244	-0.440409	0.777813
