data_functionalizedCrystal
_audit_creation_method	'MofGen! by Chris Wilmer'
_symmetry_space_group_name_H-M	'P1'
_symmetry_Int_Tables_number	1
_symmetry_cell_setting	triclinic
loop_
_symmetry_equiv_pos_as_xyz
  x,y,z
_cell_length_a	19.805407
_cell_length_b	16.959453
_cell_length_c	19.805399
_cell_angle_alpha	90.026715
_cell_angle_beta	90.019573
_cell_angle_gamma	90.019988
loop_
_atom_site_label
_atom_site_type_symbol
_atom_site_fract_x
_atom_site_fract_y
_atom_site_fract_z
Zn1	Zn	1.034766	-0.314700	0.382724
Zn2	Zn	1.034693	-0.446882	0.269537
Zn3	Zn	0.921581	-0.314722	0.269548
Zn4	Zn	0.921557	-0.446840	0.382684
O5	O	0.978149	-0.380786	0.326123
O6	O	1.129473	-0.332243	0.367721
O7	O	1.019668	-0.429378	0.174822
O8	O	0.936635	-0.204108	0.284583
O9	O	1.129420	-0.429356	0.284564
O10	O	1.019792	-0.204092	0.367732
O11	O	0.936565	-0.332280	0.174830
O12	O	0.826861	-0.332239	0.284544
O13	O	0.936595	-0.429285	0.477406
O14	O	0.826843	-0.429306	0.367664
O15	O	1.019769	-0.332202	0.477435
O16	O	1.019645	-0.557488	0.284525
O17	O	0.936524	-0.557457	0.367653
C18	C	0.802293	-0.380771	0.326101
C19	C	0.727061	-0.380783	0.326108
C20	C	0.978093	-0.586152	0.326098
C21	C	0.978130	-0.674009	0.326111
C22	C	0.691726	-0.431402	0.369319
C23	C	0.621037	-0.431404	0.369328
C24	C	0.585686	-0.380790	0.326123
C25	C	0.621026	-0.330165	0.282911
C26	C	0.691713	-0.330160	0.282905
C27	C	0.335953	-0.330183	0.282933
C28	C	0.265261	-0.330193	0.282941
C29	C	0.265277	-0.431426	0.369356
C30	C	0.335964	-0.431421	0.369351
C31	C	0.371298	-0.380794	0.326141
C32	C	0.447947	-0.380792	0.326132
C33	C	0.509038	-0.380795	0.326128
C34	C	1.021504	-1.045418	0.369501
C35	C	0.934983	-1.045551	0.282846
C36	C	0.934958	-0.963005	0.282831
C37	C	0.978206	-0.921662	0.326152
C38	C	1.021479	-0.962864	0.369488
C39	C	0.891681	-0.921797	0.239500
C40	C	0.891653	-0.839246	0.239483
C41	C	0.934905	-0.797901	0.282801
C42	C	0.978181	-0.839108	0.326139
C43	C	1.021429	-0.797765	0.369460
C44	C	1.064708	-0.838971	0.412795
C45	C	1.064731	-0.921519	0.412806
C46	C	0.934882	-0.715352	0.282790
C47	C	1.021404	-0.715211	0.369447
C48	C	1.154692	-0.380802	0.326146
C49	C	1.229924	-0.380808	0.326155
C50	C	0.978187	-0.380736	0.502666
C51	C	0.978203	-0.380715	0.577898
C52	C	0.978224	-0.174618	0.326163
C53	C	0.978256	-0.086761	0.326180
C54	C	0.978150	-0.380779	0.150267
C55	C	0.978265	-0.380577	0.075036
C56	C	1.021513	-0.330161	0.613259
C57	C	1.021520	-0.330138	0.683947
C58	C	0.978220	-0.380674	0.719274
C59	C	0.934905	-0.431230	0.683908
C60	C	0.934896	-0.431248	0.613221
C61	C	0.934944	-0.431156	0.968982
C62	C	0.934958	-0.431135	1.039674
C63	C	1.021568	-0.330046	1.039708
C64	C	1.021558	-0.330065	0.969021
C65	C	0.978241	-0.380617	0.933661
C66	C	0.978234	-0.380641	0.857013
C67	C	0.978231	-0.380655	0.795921
H68	H	0.592270	-0.472623	0.404514
H69	H	1.056820	-0.288916	0.940261
H70	H	1.099918	-0.805299	0.448070
H71	H	0.236499	-0.472646	0.404542
H72	H	0.236479	-0.288972	0.247758
C73	C	0.730585	-0.274481	0.235375
H74	H	0.777747	-0.281721	0.241564
H75	H	0.718981	-0.285976	0.189880
H76	H	0.719017	-0.221387	0.245369
H77	H	1.056836	-0.288881	1.068506
H78	H	1.099966	-0.955076	0.448088
H79	H	0.592237	-0.288951	0.247735
H80	H	0.899695	-0.472289	1.068435
H81	H	1.056743	-1.078971	0.404781
H82	H	0.720504	-0.472621	0.404499
C83	C	0.374812	-0.274509	0.235393
H84	H	0.343632	-0.244377	0.209656
H85	H	0.402410	-0.240101	0.261325
H86	H	0.402363	-0.304710	0.205852
H87	H	0.899621	-0.472406	0.584432
C88	C	1.068971	-0.669739	0.417107
H89	H	1.094743	-0.706104	0.442920
H90	H	1.098468	-0.637525	0.391245
H91	H	1.043042	-0.637544	0.446572
C92	C	0.887416	-1.091027	0.235196
H93	H	0.893632	-1.146091	0.241407
H94	H	0.841928	-1.077528	0.245050
H95	H	0.897354	-1.077526	0.189724
C96	C	0.844117	-0.967274	0.191847
H97	H	0.850339	-1.022338	0.198055
H98	H	0.798627	-0.953784	0.201703
H99	H	0.854053	-0.953768	0.146376
C100	C	0.374850	-0.487107	0.416864
H101	H	0.422010	-0.479862	0.410665
H102	H	0.363294	-0.475622	0.462363
H103	H	0.363244	-0.540200	0.406865
H104	H	0.899642	-0.681806	0.247510
C105	C	0.844056	-0.793927	0.191811
H106	H	0.818307	-0.830373	0.166010
H107	H	0.814539	-0.761723	0.217665
H108	H	0.869964	-0.761732	0.162336
C109	C	0.887284	-0.486745	0.930095
H110	H	0.861499	-0.516837	0.961261
H111	H	0.857804	-0.456495	0.902531
H112	H	0.913144	-0.521206	0.902509
H113	H	1.056775	-0.289012	0.584501
H114	H	1.056789	-0.288975	0.712734
C115	C	0.887277	-0.486818	0.722766
H116	H	0.893490	-0.479574	0.769929
H117	H	0.841802	-0.475251	0.711176
H118	H	0.897167	-0.539933	0.711170
