data_functionalizedCrystal
_audit_creation_method	'MofGen! by Chris Wilmer'
_symmetry_space_group_name_H-M	'P1'
_symmetry_Int_Tables_number	1
_symmetry_cell_setting	triclinic
loop_
_symmetry_equiv_pos_as_xyz
  x,y,z
_cell_length_a	18.760492
_cell_length_b	14.809374
_cell_length_c	14.809374
_cell_angle_alpha	60.797835
_cell_angle_beta	67.424168
_cell_angle_gamma	89.997254
loop_
_atom_site_label
_atom_site_type_symbol
_atom_site_fract_x
_atom_site_fract_y
_atom_site_fract_z
Zr1	Zr	-0.052333	0.676958	1.151389
O2	O	-0.168809	0.716345	1.160164
O3	O	-0.008770	0.548493	1.122769
O4	O	-0.139651	0.529804	1.309311
O5	O	0.056375	0.882175	0.855971
O6	O	-0.125589	0.515055	1.456457
O7	O	-0.037928	0.735034	0.973622
O8	O	0.108533	0.548487	1.122768
O9	O	-0.177747	0.848744	1.189660
O10	O	0.010810	0.623318	1.251704
O11	O	0.070693	0.744134	1.054089
O12	O	-0.083402	0.722130	1.273718
O13	O	-0.023519	0.842946	1.076102
Zr14	Zr	0.120497	0.888109	1.198429
Zr15	Zr	-0.029906	0.653436	1.386069
Zr16	Zr	0.098069	0.911631	0.963748
Zr17	Zr	-0.066589	0.888119	1.198431
Zr18	Zr	0.134752	0.676948	1.151386
O19	O	0.076933	1.016574	1.227048
O20	O	-0.136920	0.682900	1.493849
O21	O	0.045044	1.050020	0.893363
O22	O	0.236972	0.848721	1.189654
O23	O	0.023119	0.515047	1.456455
O24	O	0.205083	0.882167	0.855968
O25	O	0.011788	0.682892	1.493847
O26	O	0.207814	1.035263	1.040507
O27	O	0.193752	1.050012	0.893361
O28	O	0.106091	0.830032	1.376196
O29	O	-0.159920	0.830047	1.376199
O30	O	0.228083	0.735020	0.973618
O31	O	0.245910	0.716323	1.160158
O32	O	0.126360	0.529789	1.309307
O33	O	-0.058197	1.035277	1.040510
O34	O	-0.040370	1.016580	1.227050
O35	O	0.151565	0.842937	1.076100
O36	O	0.091682	0.722121	1.273715
O37	O	-0.002530	0.820933	1.295729
O38	O	0.057353	0.941749	1.098114
C39	C	0.051913	0.518404	1.116066
C40	C	0.057964	0.428761	1.096095
C41	C	-0.199933	0.782546	1.174912
C42	C	-0.279356	0.782550	1.174913
C43	C	0.030956	0.328862	1.185222
C44	C	0.037210	0.236210	1.164583
C45	C	-0.646429	0.719452	1.278063
C46	C	-0.583905	0.845586	1.071749
C47	C	-0.509284	0.845595	1.071749
C48	C	-0.503232	0.782531	1.174907
C49	C	-0.571801	0.719457	1.278066
C50	C	-0.440709	0.908660	0.968591
C51	C	-0.366082	0.908671	0.968587
C52	C	-0.360030	0.845612	1.071748
C53	C	-0.428605	0.782536	1.174910
C54	C	-0.422553	0.719471	1.278069
C55	C	-0.491127	0.656401	1.381234
C56	C	-0.565749	0.656397	1.381227
C57	C	-0.285408	0.845615	1.071755
C58	C	-0.347925	0.719476	1.278071
C59	C	0.268097	0.782521	1.174906
C60	C	0.347519	0.782516	1.174905
C61	C	0.006028	0.811956	0.881359
C62	C	-0.003493	0.821942	0.781731
C63	C	0.016250	1.046663	1.233752
C64	C	0.010199	1.136306	1.253723
C65	C	0.038998	0.777377	0.726394
C66	C	0.029159	0.787696	0.623423
C67	C	0.062135	0.753111	1.468458
C68	C	0.071656	0.743125	1.568086
C69	C	-0.154049	0.488994	1.409619
C70	C	-0.217899	0.389369	1.489277
C71	C	0.079966	0.488981	1.409615
C72	C	0.095539	0.389352	1.489273
C73	C	0.240043	0.811944	0.881356
C74	C	0.309945	0.821925	0.781727
C75	C	-0.011803	1.076086	0.940202
C76	C	-0.027375	1.175715	0.860545
C77	C	0.222212	1.076073	0.940199
C78	C	0.286062	1.175698	0.860541
C79	C	-0.171880	0.753123	1.468462
C80	C	-0.241782	0.743142	1.568091
C81	C	-0.297068	0.394162	1.538186
C82	C	-0.357069	0.300561	1.613049
C83	C	-0.337898	0.202168	1.638994
C84	C	-0.258721	0.197377	1.590082
C85	C	-0.198721	0.290977	1.515227
C86	C	0.060631	0.290981	1.515199
C87	C	0.075248	0.197360	1.590056
C88	C	0.124776	0.202112	1.638980
C89	C	0.159684	0.300493	1.613052
C90	C	0.145063	0.394112	1.538202
C91	C	0.384992	0.878197	0.746422
C92	C	0.450676	0.887597	0.652801
C93	C	0.441313	0.840718	0.594492
C94	C	0.366258	0.784445	0.629801
C95	C	0.300574	0.775052	0.723415
C96	C	0.007525	1.274084	0.834629
C97	C	-0.007110	1.367703	0.759797
C98	C	-0.056641	1.362951	0.710876
C99	C	-0.091545	1.264570	0.736800
C100	C	-0.076915	1.170953	0.811637
C101	C	0.266867	1.274071	0.834615
C102	C	0.326852	1.367689	0.759756
C103	C	0.406032	1.362930	0.710831
C104	C	0.425226	1.264546	0.736758
C105	C	0.365241	1.170931	0.811609
C106	C	-0.232393	0.790028	1.626377
C107	C	-0.298065	0.780644	1.720001
C108	C	-0.373125	0.724381	1.755331
C109	C	-0.382512	0.677489	1.697040
C110	C	-0.316840	0.686867	1.603423
H111	H	0.003207	0.311925	1.276807
H112	H	-0.014505	0.833496	0.594569
Br113	Br	0.300784	1.501195	0.724582
H114	H	0.454867	1.439165	0.649883
H115	H	-0.131874	1.260716	0.696958
Br116	Br	0.040270	1.501205	0.724630
H117	H	-0.243123	0.117253	1.611219
Br118	Br	-0.076488	1.490015	0.609313
Br119	Br	-0.462244	0.711667	1.882386
Br120	Br	0.192449	0.527611	1.503022
H121	H	0.200011	0.304347	1.652898
Br122	Br	0.111794	0.701075	0.774455
Br123	Br	0.144432	0.666783	0.616170
H124	H	0.085719	0.445695	1.004511
H125	H	0.392630	0.916376	0.793885
Br126	Br	-0.285308	0.844296	1.799087
Br127	Br	-0.484387	0.601146	1.744995
H128	H	0.489702	1.260687	0.696912
Br129	Br	0.391306	1.037428	0.846787
Br130	Br	-0.482903	0.570803	1.521226
H131	H	0.064967	0.253151	1.072993
Br132	Br	0.074747	1.280564	0.901010
Br133	Br	-0.739489	0.633867	1.418068
H134	H	-0.105335	1.090860	0.832726
H135	H	-0.621586	0.605046	1.465220
H136	H	-0.324496	0.648687	1.555969
H137	H	0.511784	0.933418	0.624069
H138	H	0.202399	1.277967	0.874443
Br139	Br	-0.076263	0.898283	0.733638
Br140	Br	0.144611	0.075047	1.740561
Br141	Br	-0.273025	0.994270	0.828582
Br142	Br	0.198727	0.698672	0.771319
H143	H	0.494804	0.848374	0.518267
Br144	Br	-0.323106	0.527681	1.503004
H145	H	-0.421534	0.304483	1.652862
H146	H	-0.588839	0.896926	0.987761
H147	H	-0.445644	0.960003	0.884605
Br148	Br	-0.419336	0.075149	1.740586
H149	H	0.020292	0.287091	1.475384
Br150	Br	-0.192348	0.931189	0.931755
H151	H	-0.017552	0.119363	1.345314
H152	H	-0.134260	0.287060	1.475404
H153	H	0.046819	0.117264	1.611153
H154	H	0.358646	0.746279	0.582312
H155	H	-0.343007	0.668125	1.362077
Br156	Br	-0.130534	0.866391	1.578450
