data_functionalizedCrystal
_audit_creation_method	'MofGen! by Chris Wilmer'
_symmetry_space_group_name_H-M	'P1'
_symmetry_Int_Tables_number	1
_symmetry_cell_setting	triclinic
loop_
_symmetry_equiv_pos_as_xyz
  x,y,z
_cell_length_a	12.759401
_cell_length_b	19.076808
_cell_length_c	12.759393
_cell_angle_alpha	87.664746
_cell_angle_beta	89.981504
_cell_angle_gamma	92.323712
loop_
_atom_site_label
_atom_site_type_symbol
_atom_site_fract_x
_atom_site_fract_y
_atom_site_fract_z
Zn1	Zn	1.589374	-0.280174	-0.577138
Zn2	Zn	1.582176	-0.397897	-0.394381
Zn3	Zn	1.413674	-0.280210	-0.401475
Zn4	Zn	1.406575	-0.397843	-0.570025
O5	O	1.497950	-0.339031	-0.485755
O6	O	1.735440	-0.295797	-0.552902
O7	O	1.559782	-0.382323	-0.248298
O8	O	1.442965	-0.181709	-0.430723
O9	O	1.730151	-0.382288	-0.418631
O10	O	1.572051	-0.181682	-0.559781
O11	O	1.435984	-0.295860	-0.253511
O12	O	1.265712	-0.295807	-0.423826
O13	O	1.430866	-0.382195	-0.717992
O14	O	1.260496	-0.382231	-0.547659
O15	O	1.565167	-0.295745	-0.723218
O16	O	1.552898	-0.496387	-0.411735
O17	O	1.423885	-0.496347	-0.540780
C18	C	1.224983	-0.339018	-0.485741
C19	C	1.108206	-0.339029	-0.485759
C20	C	1.486869	-0.521906	-0.474739
C21	C	1.482224	-0.600140	-0.470061
C22	C	1.050651	-0.384102	-0.550124
C23	C	0.940927	-0.384111	-0.550135
C24	C	0.946321	-0.293972	-0.421408
C25	C	1.056044	-0.293960	-0.421403
C26	C	1.047536	-0.436145	-0.624440
C27	C	0.937811	-0.436154	-0.624451
C28	C	1.547200	-0.636821	-0.535112
C29	C	1.542832	-0.710330	-0.530719
C30	C	1.473493	-0.747159	-0.461269
C31	C	1.408509	-0.710473	-0.396215
C32	C	1.412873	-0.636965	-0.400614
C33	C	1.453236	-0.967013	-0.440905
C34	C	1.448879	-1.040527	-0.436508
C35	C	1.583201	-1.040379	-0.571014
C36	C	1.587563	-0.966869	-0.575403
C37	C	1.522576	-0.930190	-0.510353
N38	N	1.469028	-0.822297	-0.456774
N39	N	1.527036	-0.855053	-0.514854
C40	C	1.771982	-0.339044	-0.485769
C41	C	1.888758	-0.339050	-0.485775
C42	C	1.498028	-0.338960	-0.759792
C43	C	1.498061	-0.338930	-0.876571
C44	C	1.509103	-0.155442	-0.496837
C45	C	1.513855	-0.077207	-0.501559
C46	C	1.568001	-0.293910	-0.934156
C47	C	1.568028	-0.293885	-1.043882
C48	C	1.428170	-0.383904	-1.038427
C49	C	1.428139	-0.383925	-0.928704
C50	C	1.648750	-0.241941	-0.937306
C51	C	1.648777	-0.241915	-1.047031
C52	C	1.497936	-0.339051	-0.212786
C53	C	1.498118	-0.338883	-0.096020
H54	H	1.102901	-0.257253	-0.368999
H55	H	1.729268	-0.256515	-1.075932
F56	F	0.890797	-0.246009	-0.352920
H57	H	1.078220	-0.421608	-0.706721
H58	H	1.392410	-1.070510	-0.379953
F59	F	1.334703	-0.749671	-0.322310
F60	F	1.087923	-0.503812	-0.582174
H61	H	0.904986	-0.416696	-0.702973
F62	F	0.894569	-0.507383	-0.591475
H63	H	1.603669	-0.606840	-0.591661
F64	F	1.748211	-0.267479	-0.891277
F65	F	1.611978	-0.749365	-0.599966
F66	F	1.661363	-0.927679	-0.649322
H67	H	1.359961	-0.607101	-0.347645
F68	F	1.652357	-1.079420	-0.640242
H69	H	1.400323	-0.937155	-0.387937
H70	H	1.630266	-0.187430	-0.910827
H71	H	1.371183	-0.420582	-0.881822
F72	F	1.353758	-0.431789	-1.093920
H73	H	1.622784	-0.190122	-1.084193
