data_functionalizedCrystal
_audit_creation_method	'MofGen! by Chris Wilmer'
_symmetry_space_group_name_H-M	'P1'
_symmetry_Int_Tables_number	1
_symmetry_cell_setting	triclinic
loop_
_symmetry_equiv_pos_as_xyz
  x,y,z
_cell_length_a	8.634740
_cell_length_b	14.853567
_cell_length_c	7.681481
_cell_angle_alpha	95.752199
_cell_angle_beta	96.618670
_cell_angle_gamma	87.897381
loop_
_atom_site_label
_atom_site_type_symbol
_atom_site_fract_x
_atom_site_fract_y
_atom_site_fract_z
O1	O	2.032123	-0.301261	-0.146460
O2	O	1.583118	-0.276609	-0.146460
O3	O	1.819616	-0.158737	-0.146439
O4	O	1.795625	-0.419133	-0.146480
O5	O	1.848725	-0.144191	0.146421
O6	O	1.612227	-0.262062	0.146401
O7	O	2.061232	-0.286715	0.146400
Zn8	Zn	1.841351	-0.272079	0.192898
Zn9	Zn	1.802999	-0.291245	-0.192958
O10	O	1.824734	-0.404586	0.146380
C11	C	1.540211	-0.263751	-0.000029
C12	C	1.368992	-0.247100	-0.000028
C13	C	1.811266	-0.445542	-0.000056
C14	C	1.814521	-0.545907	-0.000072
C15	C	1.968779	-0.971724	-0.000008
C16	C	1.687816	-0.968805	-0.000010
C17	C	1.684752	-0.874508	-0.000027
C18	C	1.823704	-0.828815	-0.000032
C19	C	1.965720	-0.877418	-0.000020
C20	C	1.542741	-0.825897	-0.000021
C21	C	1.539671	-0.731595	-0.000035
C22	C	1.678623	-0.685900	-0.000053
C23	C	1.820645	-0.734509	-0.000043
C24	C	1.959596	-0.688816	-0.000048
C25	C	2.101618	-0.737424	-0.000051
C26	C	2.104672	-0.831724	-0.000038
C27	C	1.675569	-0.591601	-0.000067
C28	C	1.956537	-0.594510	-0.000060
C29	C	2.104139	-0.299573	-0.000034
C30	C	2.275357	-0.316225	-0.000047
C31	C	1.833084	-0.117782	-0.000008
C32	C	1.829827	-0.017417	-0.000003
N33	N	1.867537	-0.258999	0.456235
N34	N	1.776825	-0.304318	-0.456294
H35	H	1.318157	-0.175178	-0.000067
H36	H	1.960152	-0.212747	0.531449
H37	H	2.069689	-0.557314	-0.000076
H38	H	2.214753	-0.700208	-0.000045
H39	H	1.326182	-0.388143	-0.000042
C40	C	2.234112	-0.977572	0.000016
C41	C	2.260774	-0.885154	-0.000015
H42	H	2.330485	-1.010557	0.000046
H43	H	2.166759	-0.997505	-0.102106
H44	H	2.187033	-0.987330	0.102149
H45	H	2.307843	-0.875395	-0.102156
H46	H	2.328152	-0.865215	0.102117
H47	H	2.084409	-1.011305	-0.000018
H48	H	1.574689	-1.006014	0.000005
C49	C	1.410215	-0.585749	-0.000073
C50	C	1.383565	-0.678169	-0.000053
H51	H	1.313840	-0.552767	-0.000079
H52	H	1.457279	-0.575983	-0.102194
H53	H	1.477582	-0.565817	0.102061
H54	H	1.316208	-0.698103	-0.102194
H55	H	1.336478	-0.687940	0.102078
H56	H	1.429615	-0.863107	-0.000009
H57	H	1.559940	-0.552027	-0.000038
C58	C	1.681309	-0.455416	0.486602
C59	C	1.651813	-0.366763	0.442191
H60	H	1.604134	-0.493967	0.423914
H61	H	1.678464	-0.456834	0.609537
H62	H	1.781325	-0.475575	0.456445
H63	H	1.551801	-0.346600	0.472361
H64	H	1.654642	-0.365342	0.319229
