data_functionalizedCrystal
_audit_creation_method	'MofGen! by Chris Wilmer'
_symmetry_space_group_name_H-M	'P1'
_symmetry_Int_Tables_number	1
_symmetry_cell_setting	triclinic
loop_
_symmetry_equiv_pos_as_xyz
  x,y,z
_cell_length_a	12.759401
_cell_length_b	16.625546
_cell_length_c	12.759393
_cell_angle_alpha	90.036194
_cell_angle_beta	90.018496
_cell_angle_gamma	90.022629
loop_
_atom_site_label
_atom_site_type_symbol
_atom_site_fract_x
_atom_site_fract_y
_atom_site_fract_z
Zn1	Zn	1.606199	-0.320951	0.593948
Zn2	Zn	1.606069	-0.455807	0.418253
Zn3	Zn	1.430501	-0.320993	0.418287
Zn4	Zn	1.430465	-0.455745	0.593895
O5	O	1.518308	-0.388374	0.506096
O6	O	1.753203	-0.338848	0.570649
O7	O	1.582740	-0.437968	0.271237
O8	O	1.453876	-0.208155	0.441625
O9	O	1.753107	-0.437927	0.441568
O10	O	1.582961	-0.208124	0.570682
O11	O	1.453751	-0.338920	0.271261
O12	O	1.283475	-0.338860	0.441574
O13	O	1.453816	-0.437821	0.740923
O14	O	1.283449	-0.437862	0.570592
O15	O	1.582927	-0.338788	0.740962
O16	O	1.582706	-0.568632	0.441517
O17	O	1.453691	-0.568586	0.570560
C18	C	1.245341	-0.388359	0.506081
C19	C	1.128564	-0.388372	0.506100
C20	C	1.073717	-0.440005	0.573169
C21	C	0.963992	-0.440015	0.573180
C22	C	0.963974	-0.336758	0.439045
C23	C	1.073696	-0.336744	0.439040
C24	C	1.073726	-0.499623	0.650608
C25	C	0.964002	-0.499633	0.650619
C26	C	1.518209	-0.597865	0.506052
C27	C	1.518263	-0.687486	0.506068
C28	C	1.518446	-1.015662	0.506177
C29	C	1.518392	-0.924353	0.506150
C30	C	1.518353	-0.851577	0.506122
C31	C	1.518301	-0.760262	0.506096
C32	C	1.792342	-0.388390	0.506111
C33	C	1.909118	-0.388396	0.506117
C34	C	1.518382	-0.388293	0.780129
C35	C	1.518413	-0.388258	0.896906
C36	C	1.518437	-0.178065	0.506163
C37	C	1.518492	-0.088444	0.506191
C38	C	1.518296	-0.388397	0.233128
C39	C	1.518468	-0.388204	0.116352
C40	C	1.585650	-0.336687	0.951790
C41	C	1.585675	-0.336657	1.061514
C42	C	1.451223	-0.439778	1.061461
C43	C	1.451194	-0.439803	0.951739
C44	C	1.663279	-0.277153	0.951821
C45	C	1.663304	-0.277124	1.061546
H46	H	0.934196	-0.562065	0.628680
C47	C	1.318276	-0.541712	0.962712
C48	C	1.377268	-0.496479	0.891409
H49	H	1.272638	-0.576703	0.925465
H50	H	1.278140	-0.506563	1.005524
H51	H	1.364047	-0.572558	1.005493
H52	H	1.331498	-0.465628	0.848633
H53	H	1.417408	-0.531632	0.848579
H54	H	1.107730	-0.558911	0.621317
C55	C	1.716002	-0.162311	0.850708
C56	C	1.633900	-0.192862	0.911651
H57	H	1.697865	-0.110273	0.825915
H58	H	1.728068	-0.197016	0.792799
H59	H	1.777753	-0.158913	0.892088
H60	H	1.572151	-0.196265	0.870269
H61	H	1.621822	-0.158148	0.969568
H62	H	1.744671	-0.293849	1.091322
C63	C	1.241882	-0.290867	0.379482
C64	C	1.133988	-0.279982	0.365325
H65	H	1.279101	-0.255819	0.333975
H66	H	1.259836	-0.345018	0.363966
H67	H	1.259882	-0.279133	0.450104
H68	H	1.115986	-0.291721	0.294704
H69	H	1.116026	-0.225818	0.380833
C70	C	0.795769	-0.290935	0.379486
C71	C	0.903659	-0.280019	0.365322
H72	H	0.758537	-0.255911	0.333963
H73	H	0.777822	-0.279194	0.450095
H74	H	0.777776	-0.345102	0.363988
H75	H	0.921652	-0.225853	0.380828
H76	H	0.921613	-0.291755	0.294697
C77	C	1.521304	-0.182854	1.073607
C78	C	1.624028	-0.197026	1.107519
H79	H	1.497059	-0.133405	1.101984
H80	H	1.477227	-0.225380	1.096583
H81	H	1.519967	-0.180154	0.999253
H82	H	1.625364	-0.199732	1.181873
H83	H	1.668117	-0.154490	1.084549
C84	C	1.174983	-0.407286	0.754122
C85	C	1.113989	-0.477144	0.760499
H86	H	1.199845	-0.393415	0.821962
H87	H	1.133626	-0.364531	0.727207
H88	H	1.232857	-0.416542	0.708883
H89	H	1.056111	-0.467886	0.805733
H90	H	1.155348	-0.519909	0.787428
H91	H	1.396493	-0.481742	1.106119
H92	H	0.930008	-0.477343	0.727974
H93	H	1.740546	-0.299539	0.917783
