data_functionalizedCrystal
_audit_creation_method	'MofGen! by Chris Wilmer'
_symmetry_space_group_name_H-M	'P1'
_symmetry_Int_Tables_number	1
_symmetry_cell_setting	triclinic
loop_
_symmetry_equiv_pos_as_xyz
  x,y,z
_cell_length_a	12.759394
_cell_length_b	12.759401
_cell_length_c	12.759393
_cell_angle_alpha	89.979527
_cell_angle_beta	90.024271
_cell_angle_gamma	89.995455
loop_
_atom_site_label
_atom_site_type_symbol
_atom_site_fract_x
_atom_site_fract_y
_atom_site_fract_z
Zn1	Zn	0.418167	1.606347	-0.594070
Zn2	Zn	0.593884	1.606275	-0.418411
Zn3	Zn	0.418225	1.430647	-0.418405
Zn4	Zn	0.593809	1.430673	-0.594048
O5	O	0.506021	1.518486	-0.506233
O6	O	0.441484	1.753358	-0.570780
O7	O	0.570638	1.582937	-0.271389
O8	O	0.271196	1.453973	-0.441714
O9	O	0.570582	1.753306	-0.441724
O10	O	0.271154	1.583059	-0.570774
O11	O	0.441582	1.453903	-0.271384
O12	O	0.441509	1.283629	-0.441693
O13	O	0.570454	1.454018	-0.741072
O14	O	0.570510	1.283649	-0.570737
O15	O	0.441411	1.583084	-0.741088
O16	O	0.740896	1.582962	-0.441702
O17	O	0.740840	1.453948	-0.570742
C18	C	0.506009	1.245518	-0.506212
C19	C	0.506028	1.128742	-0.506228
C20	C	0.231988	1.518521	-0.506246
C21	C	0.115211	1.518536	-0.506251
C22	C	0.573302	1.073917	-0.573316
C23	C	0.573306	0.964193	-0.573337
C24	C	0.438760	0.964127	-0.439173
C25	C	0.438752	1.073850	-0.439159
C26	C	0.115236	1.384128	-0.371852
C27	C	0.060387	1.316936	-0.304655
C28	C	-0.049335	1.316955	-0.304664
C29	C	-0.104210	1.384171	-0.371880
C30	C	-0.049362	1.451362	-0.439077
C31	C	0.060363	1.451338	-0.439058
C32	C	-0.049386	1.585763	-0.573480
C33	C	0.060336	1.585751	-0.573467
C34	C	-0.104261	1.652979	-0.640696
C35	C	-0.049413	1.720177	-0.707889
C36	C	0.060316	1.720156	-0.707876
C37	C	0.115184	1.652943	-0.640664
C38	C	0.778989	1.518479	-0.506244
C39	C	0.895765	1.518572	-0.506283
C40	C	0.505918	1.518562	-0.780267
C41	C	0.505874	1.518594	-0.897043
C42	C	0.506035	1.792519	-0.506255
C43	C	0.506041	1.909295	-0.506264
C44	C	0.438630	1.585826	-1.061647
C45	C	0.438671	1.585806	-0.951922
C46	C	0.573048	1.451406	-0.951894
C47	C	0.573011	1.451432	-1.061616
C48	C	0.506049	1.518470	-0.233266
C49	C	0.505797	1.518641	-0.116490
H50	H	0.628080	1.118607	-0.627931
H51	H	0.383988	0.919421	-0.384566
F52	F	0.367141	1.132201	-0.367757
F53	F	0.644573	1.379877	-0.893485
H54	H	0.204577	1.384114	-0.371829
F55	F	0.367093	1.657353	-1.120043
H56	H	-0.094099	1.774894	-0.762616
H57	H	0.627712	1.396721	-1.106271
H58	H	0.383978	1.640516	-0.907274
F59	F	0.118796	1.245397	-0.233130
F60	F	-0.107710	1.245441	-0.233149
H61	H	-0.193551	1.384171	-0.371891
F62	F	-0.221037	1.652825	-0.640876
F63	F	0.118681	1.791667	-0.779402
F64	F	0.231960	1.652998	-0.640561
F65	F	0.644905	0.905850	-0.644743
