data_functionalizedCrystal
_audit_creation_method	'MofGen! by Chris Wilmer'
_symmetry_space_group_name_H-M	'P1'
_symmetry_Int_Tables_number	1
_symmetry_cell_setting	triclinic
loop_
_symmetry_equiv_pos_as_xyz
  x,y,z
_cell_length_a	14.395555
_cell_length_b	17.052862
_cell_length_c	17.052862
_cell_angle_alpha	61.493325
_cell_angle_beta	90.001611
_cell_angle_gamma	70.264223
loop_
_atom_site_label
_atom_site_type_symbol
_atom_site_fract_x
_atom_site_fract_y
_atom_site_fract_z
Zr1	Zr	1.076622	0.816657	-0.200418
O2	O	0.974034	0.944554	-0.328549
O3	O	1.085483	0.665935	-0.146226
O4	O	1.135261	0.783737	-0.307037
O5	O	0.910684	0.860680	-0.057852
O6	O	1.288134	0.783733	-0.307030
O7	O	0.924256	0.826752	-0.167739
O8	O	1.199090	0.573007	-0.019369
O9	O	0.999727	1.071405	-0.345513
O10	O	1.230639	0.736380	-0.141126
O11	O	1.106423	0.761703	-0.059123
O12	O	1.165030	0.900399	-0.248457
O13	O	1.040814	0.925721	-0.166454
Zr14	Zr	1.298789	0.870761	-0.025150
Zr15	Zr	1.320435	0.816651	-0.200407
Zr16	Zr	1.054975	0.870767	-0.025160
Zr17	Zr	1.117599	1.018970	-0.227472
Zr18	Zr	1.257811	0.668448	0.001905
O19	O	1.289927	1.021483	-0.079341
O20	O	1.320705	0.944545	-0.328534
O21	O	0.943255	1.021492	-0.079356
O22	O	1.401376	0.742864	0.102982
O23	O	1.432155	0.665926	-0.146211
O24	O	1.054705	0.742873	0.102967
O25	O	1.464727	0.826738	-0.167715
O26	O	1.240149	0.903681	0.081470
O27	O	1.087277	0.903685	0.081463
O28	O	1.451154	0.860666	-0.057828
O29	O	1.193526	1.071400	-0.345504
O30	O	1.181884	0.616018	0.119937
O31	O	1.375683	0.616013	0.119945
O32	O	1.392889	0.573002	-0.019361
O33	O	0.982521	1.114416	-0.206206
O34	O	1.176320	1.114411	-0.206198
O35	O	1.210381	0.787019	0.022890
O36	O	1.334596	0.761697	-0.059113
O37	O	1.268988	0.925716	-0.166444
O38	O	1.144772	0.951038	-0.084442
C39	C	1.136448	0.590646	-0.078943
C40	C	1.119052	0.504759	-0.067458
C41	C	1.329372	0.209789	-0.206314
C42	C	1.345715	0.290488	-0.217111
C43	C	1.289051	0.344059	-0.179698
C44	C	1.216041	0.316925	-0.131487
C45	C	1.199691	0.236223	-0.120695
C46	C	1.159370	0.370493	-0.094080
C47	C	1.086360	0.343359	-0.045869
C48	C	1.070013	0.262665	-0.035079
C49	C	1.126677	0.209093	-0.072491
C50	C	1.175720	0.451195	-0.104872
C51	C	1.046039	0.477629	-0.019253
C52	C	1.029696	0.396930	-0.008457
C53	C	0.882732	0.843717	-0.112797
C54	C	0.779226	0.843720	-0.112801
C55	C	0.682864	0.933152	-0.171316
C56	C	0.645577	0.871540	-0.196816
C57	C	0.632090	0.905325	-0.087306
C58	C	0.743309	0.782093	-0.138346
C59	C	0.729815	0.815907	-0.028796
C60	C	0.692585	0.754225	-0.054267
C61	C	1.492679	0.843701	-0.112770
C62	C	1.596184	0.843699	-0.112766
C63	C	1.214782	0.776026	-0.332004
C64	C	1.223971	0.753055	-0.406405
C65	C	1.238962	1.096772	-0.146624
C66	C	1.256358	1.182659	-0.158109
C67	C	1.112871	1.030776	-0.840239
C68	C	1.104231	1.052361	-0.770337
C69	C	1.134166	0.977537	-0.679351
C70	C	1.172741	0.881122	-0.658273
C71	C	1.181375	0.859535	-0.728182
C72	C	1.202669	0.806296	-0.567294
C73	C	1.241245	0.709881	-0.546216
C74	C	1.249877	0.688298	-0.616119
C75	C	1.219943	0.763122	-0.707104
C76	C	1.194036	0.827883	-0.497385
C77	C	1.262539	0.656642	-0.385328
C78	C	1.271179	0.635057	-0.455230
C79	C	1.160629	0.911392	0.106437
C80	C	1.151439	0.934363	0.180838
C81	C	1.441422	0.590638	-0.078930
C82	C	1.527531	0.504748	-0.067440
C83	C	1.109372	0.658329	0.140277
C84	C	1.082786	0.595413	0.226164
C85	C	1.414345	0.658322	0.140291
C86	C	1.491265	0.595403	0.226182
C87	C	0.961065	1.029096	-0.365858
C88	C	0.884145	1.092015	-0.451749
C89	C	0.933989	1.096780	-0.146637
C90	C	0.847879	1.182670	-0.158127
C91	C	1.266039	1.029089	-0.365844
C92	C	1.292624	1.092005	-0.451731
C93	C	1.513705	0.451196	-0.104862
C94	C	1.594608	0.370500	-0.094084
C95	C	1.689336	0.343353	-0.045879
C96	C	1.703161	0.396913	-0.008457
C97	C	1.622260	0.477612	-0.019241
C98	C	1.124565	0.579085	0.309314
C99	C	1.099582	0.519981	0.390019
C100	C	1.032826	0.477203	0.387572
C101	C	0.991042	0.493537	0.304413
C102	C	1.016019	0.552644	0.223709
C103	C	1.592237	0.552637	0.223712
C104	C	1.664523	0.493528	0.304408
C105	C	1.635835	0.477179	0.387572
C106	C	1.534853	0.519952	0.390039
C107	C	1.462570	0.579066	0.309344
C108	C	0.783176	1.134790	-0.449281
C109	C	0.710894	1.193925	-0.529980
C110	C	0.739583	1.210278	-0.613145
C111	C	0.840564	1.167500	-0.615610
C112	C	0.912844	1.108372	-0.534913
C113	C	0.861708	1.236228	-0.120714
C114	C	0.780812	1.316941	-0.131514
C115	C	0.686085	1.344090	-0.179722
C116	C	0.672258	1.290527	-0.217140
C117	C	0.753156	1.209819	-0.206345
C118	C	1.359384	1.134766	-0.449254
C119	C	1.384383	1.193874	-0.529946
C120	C	1.342616	1.210225	-0.613113
C121	C	1.275853	1.167456	-0.615587
C122	C	1.250860	1.108344	-0.534896
H123	H	1.113380	0.143377	-0.063698
H124	H	1.226977	0.745553	-0.764029
C125	C	0.567206	0.975707	-0.058181
H126	H	0.562994	1.039221	-0.099829
H127	H	0.501599	0.974771	-0.057830
H128	H	0.597018	0.956560	0.001084
H129	H	1.302362	0.409766	-0.188492
H130	H	0.936686	0.458698	0.302434
H131	H	0.759796	1.121480	-0.381571
H132	H	1.127128	0.995118	-0.622437
H133	H	0.695876	0.678533	-0.004770
C134	C	0.949409	0.367064	0.044595
H135	H	0.918012	0.410512	0.065347
H136	H	0.900286	0.368870	0.005897
H137	H	0.980413	0.303378	0.095294
C138	C	0.678711	1.035281	-0.238232
H139	H	0.706070	1.057676	-0.206098
H140	H	0.716704	1.033322	-0.283272
H141	H	0.610787	1.077857	-0.266598
C142	C	1.295470	0.574328	-0.285252
H143	H	1.319666	0.513816	-0.282710
H144	H	1.347404	0.579188	-0.255650
H145	H	1.239639	0.579194	-0.255657
H146	H	1.615614	0.565937	0.156004
H147	H	0.791228	0.730014	-0.159976
C148	C	1.351502	0.626090	0.312073
H149	H	1.344776	0.607874	0.373163
H150	H	1.329645	0.694412	0.276395
H151	H	1.311562	0.604976	0.288360
H152	H	0.608949	0.895044	-0.267843
C153	C	1.197993	0.626138	0.312018
H154	H	1.206899	0.663676	0.252050
H155	H	1.171366	0.666592	0.336849
H156	H	1.261023	0.577166	0.348820
C157	C	1.426021	0.320328	-0.270134
H158	H	1.457433	0.276863	-0.290863
H159	H	1.395053	0.384011	-0.320833
H160	H	1.475140	0.318502	-0.231409
C161	C	1.256028	0.481034	-0.157894
H162	H	1.257648	0.536770	-0.158971
H163	H	1.320030	0.429624	-0.129006
H164	H	1.239940	0.495134	-0.218428
C165	C	0.660064	1.275304	-0.701902
H166	H	0.595820	1.298424	-0.688512
H167	H	0.676700	1.328511	-0.741959
H168	H	0.658599	1.239079	-0.729982
H169	H	0.766450	0.792436	0.042212
C170	C	1.775587	0.446454	0.301687
H171	H	1.814537	0.408906	0.361653
H172	H	1.781295	0.406005	0.276856
H173	H	1.799452	0.495412	0.264883
H174	H	0.938831	1.214133	-0.081453
C175	C	1.313589	0.529006	-0.432049
H176	H	1.330184	0.487531	-0.367852
H177	H	1.264495	0.517039	-0.456995
H178	H	1.372265	0.517021	-0.456988
C179	C	0.989700	0.232820	0.017943
H180	H	0.988072	0.177093	0.019005
H181	H	1.005775	0.218723	0.078473
H182	H	0.925693	0.284234	-0.010953
C183	C	1.151613	0.933929	-0.520571
H184	H	1.150749	0.936074	-0.465911
H185	H	1.192831	0.965571	-0.555051
H186	H	1.085070	0.965567	-0.555048
C187	C	0.599824	1.240961	-0.527249
H188	H	0.593095	1.222736	-0.466158
H189	H	0.577980	1.309282	-0.562916
H190	H	0.559877	1.219864	-0.550976
H191	H	0.792088	1.360541	-0.101039
H192	H	1.072824	1.130862	-0.787505
H193	H	1.633530	0.521207	0.011239
C194	C	0.872107	1.185486	-0.707094
H195	H	0.814590	1.226818	-0.754793
H196	H	0.919652	1.215072	-0.717450
H197	H	0.901523	1.125655	-0.705482
C198	C	1.023905	1.061311	-0.537637
H199	H	1.030628	1.079515	-0.598726
H200	H	1.063872	1.082391	-0.513914
H201	H	1.045728	0.992987	-0.501966
H202	H	0.620221	1.409809	-0.188505
H203	H	0.981997	0.565929	0.156009
H204	H	1.088497	1.091687	-0.914320
H205	H	0.999896	0.521249	0.011208
C206	C	1.457812	1.240920	-0.527214
H207	H	1.466730	1.278459	-0.587177
H208	H	1.431180	1.281371	-0.502382
H209	H	1.520837	1.191943	-0.490406
H210	H	1.281278	0.609791	-0.598950
C211	C	1.405341	1.116788	-0.357781
H212	H	1.448688	1.150718	-0.367874
H213	H	1.353035	1.138988	-0.330498
H214	H	1.442677	1.049561	-0.318542
C215	C	1.579380	0.311589	-0.135240
H216	H	1.511371	0.339309	-0.165476
H217	H	1.622509	0.312308	-0.177527
H218	H	1.594847	0.246804	-0.088095
C219	C	1.145554	0.502017	0.481484
H220	H	1.121113	0.460698	0.529203
H221	H	1.216767	0.472422	0.491825
H222	H	1.127123	0.561855	0.479855
H223	H	0.595122	1.312644	-0.256391
C224	C	1.391688	0.150866	-0.247464
H225	H	1.371495	0.098919	-0.234128
H226	H	1.380968	0.191412	-0.311531
H227	H	1.461055	0.125898	-0.222108
C228	C	1.778315	0.254577	-0.034014
H229	H	1.756502	0.226570	-0.063199
H230	H	1.830507	0.273937	-0.060465
H231	H	1.802815	0.208442	0.028951
H232	H	1.436583	0.473294	-0.144125
C233	C	1.807360	0.367036	0.044574
H234	H	1.853551	0.311298	0.045642
H235	H	1.830256	0.418431	0.015703
H236	H	1.802559	0.352925	0.105111
H237	H	1.012496	0.429076	0.453293
C238	C	1.715353	0.412145	0.476331
H239	H	1.779593	0.389012	0.462942
H240	H	1.716823	0.448349	0.504428
H241	H	1.698707	0.358934	0.516374
H242	H	1.511508	0.506632	0.457762
H243	H	0.741881	1.166214	-0.236810
C244	C	1.370107	1.275256	-0.701867
H245	H	1.415842	1.298386	-0.688474
H246	H	1.400543	1.239051	-0.729963
H247	H	1.310891	1.328469	-0.741914
H248	H	1.241851	1.180778	-0.683313
H249	H	1.196495	1.073533	-0.536925
