data_functionalizedCrystal
_audit_creation_method	'MofGen! by Chris Wilmer'
_symmetry_space_group_name_H-M	'P1'
_symmetry_Int_Tables_number	1
_symmetry_cell_setting	triclinic
loop_
_symmetry_equiv_pos_as_xyz
  x,y,z
_cell_length_a	16.992694
_cell_length_b	14.044220
_cell_length_c	15.455313
_cell_angle_alpha	92.908275
_cell_angle_beta	87.142206
_cell_angle_gamma	91.928550
loop_
_atom_site_label
_atom_site_type_symbol
_atom_site_fract_x
_atom_site_fract_y
_atom_site_fract_z
O1	O	1.057683	0.198159	-0.072025
O2	O	0.829244	0.195941	-0.072050
O3	O	0.940034	0.058806	-0.072029
O4	O	0.946893	0.335294	-0.072046
O5	O	0.933696	0.066614	0.072232
O6	O	0.822906	0.203749	0.072211
O7	O	1.051345	0.205967	0.072236
Cu8	Cu	0.936547	0.205571	0.085396
Cu9	Cu	0.944042	0.196337	-0.085210
O10	O	0.940555	0.343102	0.072215
C11	C	0.796663	0.196993	0.000077
C12	C	0.709024	0.188484	0.000068
C13	C	0.664526	0.270581	0.000063
C14	C	0.582179	0.262581	0.000076
C15	C	0.544332	0.172483	0.000086
C16	C	0.588836	0.090381	0.000093
C17	C	0.671181	0.098382	0.000087
C18	C	0.298414	0.139322	0.000112
C19	C	0.216063	0.131327	0.000115
C20	C	0.209411	0.303528	0.000100
C21	C	0.291759	0.311521	0.000088
C22	C	0.336255	0.229419	0.000099
N23	N	0.460161	0.164304	0.000096
N24	N	0.420425	0.237599	0.000096
C25	C	0.933863	0.027168	0.000101
C26	C	0.924909	-0.078736	0.000101
C27	C	0.908540	-0.272638	0.000087
C28	C	0.972046	-0.325460	0.000092
C29	C	0.962938	-0.433354	0.000084
C30	C	0.917647	-0.164734	0.000095
C31	C	1.083926	0.204915	0.000107
C32	C	1.171565	0.213424	0.000111
C33	C	0.946726	0.374740	0.000083
C34	C	0.955680	0.480644	0.000077
N35	N	0.931281	0.212065	0.205390
N36	N	0.949314	0.189836	-0.205204
C37	C	0.978368	0.153829	0.250793
C38	C	0.974393	0.158750	0.341600
C39	C	0.923335	0.221911	0.387003
C40	C	0.876243	0.280149	0.341594
C41	C	0.880214	0.275223	0.250788
C42	C	0.906193	0.243148	0.658581
C43	C	0.902227	0.248072	0.749393
C44	C	1.000377	0.126671	0.749394
C45	C	1.004347	0.121754	0.658586
C46	C	0.957251	0.179989	0.613185
N47	N	0.919273	0.226945	0.479822
N48	N	0.961310	0.174950	0.520367
H49	H	0.322568	0.384887	0.000070
H50	H	0.847335	-0.308444	0.000078
O51	O	1.020173	0.102325	0.385805
C52	C	1.070081	0.159934	0.438300
H53	H	1.043296	0.232837	0.451892
H54	H	1.076978	0.124580	0.502162
H55	H	1.130324	0.168970	0.403299
H56	H	0.695334	0.343947	0.000054
O57	O	0.826687	0.341630	0.385597
C58	C	0.847073	0.435741	0.363404
H59	H	0.880335	0.434370	0.297470
H60	H	0.791235	0.477967	0.360294
H61	H	0.886132	0.470987	0.414501
H62	H	0.841869	0.322643	0.213822
H63	H	0.173174	0.370371	0.000092
O64	O	0.552168	0.002802	-0.000014
C65	C	0.577573	-0.051657	-0.074736
H66	H	0.637507	-0.022715	-0.099648
H67	H	0.582698	-0.129239	-0.057929
H68	H	0.533060	-0.047054	-0.127053
O69	O	0.539074	0.342424	0.000032
C70	C	0.590136	0.423662	0.000038
H71	H	0.651004	0.402643	-0.027279
H72	H	0.565848	0.479299	-0.041847
H73	H	0.594844	0.454736	0.069244
H74	H	1.019948	0.102401	0.213833
O75	O	0.179421	0.043730	0.000163
C76	C	0.236353	-0.027022	0.000149
H77	H	0.292879	0.005395	0.027461
H78	H	0.213047	-0.087282	0.042035
H79	H	0.249168	-0.056392	-0.069058
H80	H	1.045922	0.070323	0.621622
H81	H	0.334634	0.072468	0.000121
H82	H	0.860647	0.299509	0.786355
O83	O	1.046075	0.069959	0.793404
C84	C	1.027615	-0.026555	0.771246
H85	H	1.000124	-0.032330	0.705317
H86	H	1.083718	-0.069131	0.768141
H87	H	0.984076	-0.056247	0.822360
O88	O	0.714500	0.018696	-0.000028
C89	C	0.765590	0.014114	-0.074755
H90	H	0.776125	0.088718	-0.099671
H91	H	0.824168	-0.015787	-0.057951
H92	H	0.737790	-0.034292	-0.127067
O93	O	1.045011	-0.282594	0.000147
C94	C	1.037983	-0.182849	0.000131
H95	H	0.976870	-0.162813	0.027431
H96	H	1.084649	-0.146461	0.042028
H97	H	1.046748	-0.158615	-0.069074
H98	H	0.867847	0.290567	0.621622
