data_functionalizedCrystal
_audit_creation_method	'MofGen! by Chris Wilmer'
_symmetry_space_group_name_H-M	'P1'
_symmetry_Int_Tables_number	1
_symmetry_cell_setting	triclinic
loop_
_symmetry_equiv_pos_as_xyz
  x,y,z
_cell_length_a	14.519709
_cell_length_b	27.732048
_cell_length_c	12.996460
_cell_angle_alpha	89.988908
_cell_angle_beta	90.000034
_cell_angle_gamma	83.161400
loop_
_atom_site_label
_atom_site_type_symbol
_atom_site_fract_x
_atom_site_fract_y
_atom_site_fract_z
O1	O	1.222766	0.063362	-0.085445
O2	O	1.722766	0.563362	0.414555
O3	O	0.954160	0.070824	-0.085477
O4	O	1.454160	0.570824	0.414523
O5	O	1.096805	-0.003264	-0.085440
O6	O	1.596805	0.496736	0.414560
O7	O	1.080121	0.137450	-0.085482
O8	O	1.580121	0.637450	0.414518
O9	O	1.096791	-0.003268	0.085693
O10	O	1.596791	0.496732	0.585693
O11	O	0.954145	0.070820	0.085656
O12	O	1.454145	0.570820	0.585656
O13	O	1.222752	0.063358	0.085689
O14	O	1.722752	0.563358	0.585689
Cu15	Cu	1.088447	0.067089	0.101299
Cu16	Cu	1.588447	0.567089	0.601299
Cu17	Cu	1.088464	0.067093	-0.101087
Cu18	Cu	1.588464	0.567093	0.398913
O19	O	1.080106	0.137446	0.085652
O20	O	1.580106	0.637446	0.585652
C21	C	0.919799	0.070474	0.000086
C22	C	1.419799	0.570474	0.500086
C23	C	0.817435	0.069432	0.000074
C24	C	1.317435	0.569432	0.500074
C25	C	0.442606	0.065596	0.000122
C26	C	0.942606	0.565596	0.500122
C27	C	0.546896	0.066661	0.000108
C28	C	1.046896	0.566661	0.500108
C29	C	0.630018	0.067514	0.000097
C30	C	1.130018	0.567514	0.500097
C31	C	0.734314	0.068579	0.000085
C32	C	1.234314	0.568579	0.500085
C33	C	1.096448	-0.021274	0.000129
C34	C	1.596448	0.478726	0.500129
C35	C	1.095393	-0.074934	0.000138
C36	C	1.595393	0.425066	0.500138
C37	C	1.173048	-0.413378	0.000094
C38	C	1.673048	0.086622	0.500094
C39	C	1.169135	-0.615057	0.000080
C40	C	1.669135	-0.115057	0.500080
O41	O	1.240145	-0.645973	0.000043
O42	O	1.740145	-0.145973	0.500043
N43	N	1.084552	-0.634585	0.000070
N44	N	1.584552	-0.134585	0.500070
C45	C	1.000941	-0.603690	0.000058
C46	C	1.500941	-0.103690	0.500058
O47	O	0.928909	-0.624927	0.000039
O48	O	1.428909	-0.124927	0.500039
C49	C	1.004855	-0.402012	0.000065
C50	C	1.504855	0.097988	0.500065
C51	C	1.089444	-0.382487	0.000085
C52	C	1.589444	0.117513	0.500085
C53	C	1.257630	-0.393853	0.000113
C54	C	1.757630	0.106147	0.500113
C55	C	1.258607	-0.343436	0.000122
C56	C	1.758607	0.156564	0.500122
C57	C	1.175003	-0.312545	0.000113
C58	C	1.675003	0.187455	0.500113
C59	C	1.090421	-0.332071	0.000094
C60	C	1.590421	0.167929	0.500094
C61	C	0.921246	-0.371118	0.000045
C62	C	1.421246	0.128882	0.500045
C63	C	0.922232	-0.320696	0.000045
C64	C	1.422232	0.179304	0.500045
C65	C	1.006820	-0.301171	0.000064
C66	C	1.506820	0.198829	0.500064
C67	C	1.007794	-0.250763	0.000094
C68	C	1.507794	0.249237	0.500094
N69	N	1.092377	-0.231235	0.000104
N70	N	1.592377	0.268765	0.500104
C71	C	1.175981	-0.262126	0.000113
C72	C	1.675981	0.237874	0.500113
C73	C	0.998893	-0.709574	0.000056
C74	C	1.498893	-0.209574	0.500056
C75	C	0.997914	-0.759993	0.000056
C76	C	1.497914	-0.259993	0.500056
C77	C	1.166108	-0.771356	0.000076
C78	C	1.666108	-0.271356	0.500076
C79	C	1.167086	-0.720936	0.000083
C80	C	1.667086	-0.220936	0.500083
C81	C	1.083476	-0.690045	0.000065
C82	C	1.583476	-0.190045	0.500065
C83	C	1.178028	-0.156247	0.000133
C84	C	1.678028	0.343753	0.500133
C85	C	1.178998	-0.105825	0.000147
C86	C	1.678998	0.394175	0.500147
C87	C	1.010804	-0.094466	0.000122
C88	C	1.510804	0.405534	0.500122
C89	C	1.009833	-0.144883	0.000114
C90	C	1.509833	0.355117	0.500114
C91	C	1.093453	-0.175773	0.000116
C92	C	1.593453	0.324227	0.500116
O93	O	0.936822	-0.219818	0.000119
O94	O	1.436822	0.280182	0.500119
O95	O	1.248004	-0.240879	0.000109
O96	O	1.748004	0.259121	0.500109
C97	C	1.172071	-0.463795	0.000085
C98	C	1.672071	0.036205	0.500085
C99	C	1.087489	-0.483320	0.000066
C100	C	1.587489	0.016680	0.500066
C101	C	1.003885	-0.452429	0.000057
C102	C	1.503885	0.047571	0.500057
C103	C	1.086510	-0.533740	0.000066
C104	C	1.586510	-0.033740	0.500066
C105	C	1.170115	-0.564631	0.000076
C106	C	1.670115	-0.064631	0.500076
C107	C	1.254698	-0.545103	0.000085
C108	C	1.754698	-0.045103	0.500085
C109	C	1.255675	-0.494686	0.000094
C110	C	1.755675	0.005314	0.500094
C111	C	0.919302	-0.471957	0.000048
C112	C	1.419302	0.028043	0.500048
C113	C	0.918331	-0.522375	0.000039
C114	C	1.418331	-0.022375	0.500039
C115	C	1.001936	-0.553266	0.000049
C116	C	1.501936	-0.053266	0.500049
C117	C	1.257113	0.063708	0.000124
C118	C	1.757113	0.563708	0.500124
C119	C	1.359476	0.064750	0.000129
C120	C	1.859476	0.564750	0.500129
C121	C	1.080464	0.155456	0.000080
C122	C	1.580464	0.655456	0.500080
C123	C	1.081518	0.209116	0.000065
C124	C	1.581518	0.709116	0.500065
N125	N	1.088442	0.067085	0.243646
N126	N	1.588442	0.567085	0.743646
N127	N	1.088477	0.067093	-0.243434
N128	N	1.588477	0.567093	0.256566
C129	C	1.088463	0.067094	0.663460
C130	C	1.588463	0.567094	1.163460
C131	C	1.088454	0.067093	0.546655
C132	C	1.588454	0.567093	1.046655
C133	C	1.088453	0.067090	0.453557
C134	C	1.588453	0.567090	0.953557
C135	C	1.088443	0.067088	0.336744
C136	C	1.588443	0.567088	0.836744
H137	H	1.247882	-0.089931	0.000166
H138	H	1.747882	0.410069	0.500166
N139	N	1.251501	-0.802923	0.000093
N140	N	1.751501	-0.302923	0.500093
N141	N	1.250604	-0.847938	0.000094
N142	N	1.750604	-0.347938	0.500094
H143	H	1.310908	-0.870234	0.000102
H144	H	1.810908	-0.370234	0.500102
H145	H	1.235965	-0.705043	0.000098
H146	H	1.735965	-0.205043	0.500098
N147	N	0.913472	-0.678030	0.000038
N148	N	1.413472	-0.178030	0.500038
N149	N	0.837965	-0.695478	0.000032
N150	N	1.337965	-0.195478	0.500032
H151	H	0.777635	-0.673203	0.000023
H152	H	1.277635	-0.173203	0.500023
N153	N	0.834831	-0.391046	0.000023
N154	N	1.334831	0.108954	0.500023
N155	N	0.760199	-0.363450	0.000003
N156	N	1.260199	0.136550	0.500003
H157	H	0.699162	-0.377522	-0.000016
H158	H	1.199162	0.122478	0.499984
H159	H	0.854144	-0.295547	0.000029
H160	H	1.354144	0.204453	0.500029
N161	N	0.925410	-0.062905	0.000081
N162	N	1.425410	0.437095	0.500081
N163	N	0.869013	-0.064721	-0.072079
N164	N	1.369013	0.435279	0.427921
H165	H	0.808703	-0.042428	-0.072119
H166	H	1.308703	0.457572	0.427881
N167	N	0.911501	-0.779926	0.000060
N168	N	1.411501	-0.279926	0.500060
N169	N	0.836865	-0.752333	0.000052
N170	N	1.336865	-0.252333	0.500052
H171	H	0.775831	-0.766408	0.000051
H172	H	1.275831	-0.266408	0.500051
N173	N	0.923423	-0.164823	0.000125
N174	N	1.423423	0.335177	0.500125
N175	N	0.848783	-0.137233	0.000133
N176	N	1.348783	0.362767	0.500133
H177	H	0.787752	-0.151312	0.000138
H178	H	1.287752	0.348688	0.500138
H179	H	1.246119	-0.181392	0.000131
H180	H	1.746119	0.318608	0.500131
H181	H	0.849444	-0.538266	0.000032
H182	H	1.349444	-0.038266	0.500032
H183	H	1.324556	-0.478794	0.000110
H184	H	1.824556	0.021206	0.500110
H185	H	1.322771	-0.570263	0.000097
H186	H	1.822771	-0.070263	0.500097
H187	H	0.851220	-0.446810	0.000038
H188	H	1.351220	0.053190	0.500038
H189	H	1.325714	-0.419000	0.000117
H190	H	1.825714	0.081000	0.500117
N191	N	1.345021	-0.323504	0.000138
N192	N	1.845021	0.176496	0.500138
N193	N	1.419654	-0.351099	0.000143
N194	N	1.919654	0.148901	0.500143
H195	H	1.480690	-0.337025	0.000151
H196	H	1.980690	0.162975	0.500151
