data_functionalizedCrystal
_audit_creation_method	'MofGen! by Chris Wilmer'
_symmetry_space_group_name_H-M	'P1'
_symmetry_Int_Tables_number	1
_symmetry_cell_setting	triclinic
loop_
_symmetry_equiv_pos_as_xyz
  x,y,z
_cell_length_a	19.121102
_cell_length_b	12.759394
_cell_length_c	12.759387
_cell_angle_alpha	89.968340
_cell_angle_beta	87.538126
_cell_angle_gamma	87.569258
loop_
_atom_site_label
_atom_site_type_symbol
_atom_site_fract_x
_atom_site_fract_y
_atom_site_fract_z
Zn1	Zn	1.073810	-0.486838	-0.662508
Zn2	Zn	1.073736	-0.662550	-0.486822
Zn3	Zn	0.956351	-0.479384	-0.479351
Zn4	Zn	0.956345	-0.654969	-0.654971
O5	O	1.015061	-0.570935	-0.570913
O6	O	1.172085	-0.516439	-0.645484
O7	O	1.058136	-0.638306	-0.338808
O8	O	0.971965	-0.333354	-0.503676
O9	O	1.172031	-0.645535	-0.516408
O10	O	1.058261	-0.338830	-0.638240
O11	O	0.971894	-0.503735	-0.333319
O12	O	0.858065	-0.496383	-0.496367
O13	O	0.971956	-0.632612	-0.802994
O14	O	0.858061	-0.625384	-0.625394
O15	O	1.058256	-0.509088	-0.808532
O16	O	1.058131	-0.808564	-0.509099
O17	O	0.971885	-0.802993	-0.632638
C18	C	1.015018	-0.843900	-0.570885
C19	C	1.015065	-0.960680	-0.570912
C20	C	0.832578	-0.559253	-0.559253
C21	C	0.754512	-0.554280	-0.554289
C22	C	1.104941	-0.966431	-0.442376
C23	C	1.149897	-1.024169	-0.378122
C24	C	1.149938	-1.133893	-0.378153
C25	C	1.105019	-1.185882	-0.442448
C26	C	1.060063	-1.128144	-0.506702
C27	C	1.060025	-1.018418	-0.506662
C28	C	0.970192	-1.122393	-0.635242
C29	C	0.970146	-1.012669	-0.635207
C30	C	0.925274	-1.174382	-0.699537
C31	C	0.880313	-1.116644	-0.763788
C32	C	0.880273	-1.006913	-0.763753
C33	C	0.925190	-0.954931	-0.699462
C34	C	0.717852	-0.619210	-0.619029
C35	C	0.644500	-0.614524	-0.614370
C36	C	0.607809	-0.544913	-0.544966
C37	C	0.644474	-0.479976	-0.480223
C38	C	0.717825	-0.484658	-0.484888
C39	C	0.386337	-0.527407	-0.527531
C40	C	0.312981	-0.522733	-0.522869
C41	C	0.313013	-0.657280	-0.657018
C42	C	0.386365	-0.661959	-0.661672
C43	C	0.423023	-0.597019	-0.596933
C44	C	0.532832	-0.540123	-0.540200
C45	C	0.497999	-0.601804	-0.601705
C46	C	1.198255	-0.582664	-0.582620
C47	C	1.276322	-0.587662	-0.587609
C48	C	1.015114	-0.570836	-0.844950
C49	C	1.015136	-0.570793	-0.961728
C50	C	1.015122	-0.296906	-0.570966
C51	C	1.015148	-0.180131	-0.570988
C52	C	1.105007	-0.442176	-0.967515
C53	C	1.149952	-0.377853	-1.025270
C54	C	1.149969	-0.377815	-1.134992
C55	C	1.105035	-0.442106	-1.186963
C56	C	1.060090	-0.506430	-1.129208
C57	C	1.060079	-0.506463	-1.019483
C58	C	0.970216	-0.635040	-1.123421
C59	C	0.970202	-0.635084	-1.013699
C60	C	0.925282	-0.699331	-1.175391
C61	C	0.880339	-0.763662	-1.117637
C62	C	0.880325	-0.763697	-1.007907
C63	C	0.925257	-0.699408	-0.955944
C64	C	1.015048	-0.570961	-0.297945
C65	C	1.015162	-0.570716	-0.181176
H66	H	1.186470	-0.981830	-0.325776
O67	O	0.925301	-0.699490	-1.281975
C68	C	0.943329	-0.801323	-1.319760
H69	H	0.931300	-0.861084	-1.255743
H70	H	1.001608	-0.807287	-1.342956
C71	C	0.915319	-0.750374	-1.494800
C72	C	0.900540	-0.823775	-1.416177
H73	H	0.888927	-0.764224	-1.554277
H74	H	0.903175	-0.681766	-1.469346
H75	H	0.963886	-0.755352	-1.514117
H76	H	0.851975	-0.818788	-1.396851
H77	H	0.912674	-0.892383	-1.441630
H78	H	0.843667	-0.959909	-0.816081
H79	H	0.843754	-0.815996	-1.159960
O80	O	0.925378	-1.280971	-0.699745
C81	C	0.943385	-1.318671	-0.801624
H82	H	0.973969	-1.257320	-0.847025
H83	H	0.893655	-1.334984	-0.843917
C84	C	0.951353	-1.496044	-0.738692
C85	C	0.988922	-1.420695	-0.794450
H86	H	0.979440	-1.558979	-0.734268
H87	H	0.939219	-1.470646	-0.670054
H88	H	0.909913	-1.509625	-0.773943
H89	H	1.030356	-1.407105	-0.759192
H90	H	1.001065	-1.446093	-0.863082
H91	H	1.186563	-0.325431	-1.182016
H92	H	0.614594	-0.423293	-0.423717
H93	H	1.105047	-0.442061	-1.276305
H94	H	0.925157	-0.865588	-0.699420
O95	O	0.753468	-0.421478	-0.422147
C96	C	0.795938	-0.356417	-0.484779
H97	H	0.773862	-0.348617	-0.566133
H98	H	0.851527	-0.392451	-0.491875
C99	C	0.824174	-0.256790	-0.333790
C100	C	0.797056	-0.247202	-0.433708
H101	H	0.824867	-0.189422	-0.302286
H102	H	0.795563	-0.300625	-0.291593
H103	H	0.870495	-0.286821	-0.339717
H104	H	0.750733	-0.217183	-0.427779
H105	H	0.825660	-0.203360	-0.475904
O106	O	0.836647	-0.826289	-0.951969
C107	C	0.796984	-0.883002	-1.021372
H108	H	0.825759	-0.888445	-1.101430
H109	H	0.743651	-0.841110	-1.029625
C110	C	0.751491	-0.987504	-0.879560
C111	C	0.786836	-0.994197	-0.977886
H112	H	0.745227	-1.056093	-0.852735
H113	H	0.778210	-0.949293	-0.832800
H114	H	0.707050	-0.952589	-0.886451
H115	H	0.831278	-1.029100	-0.970992
H116	H	0.760124	-1.032417	-1.024644
H117	H	0.283110	-0.466035	-0.466357
O118	O	1.193630	-1.189824	-0.315641
C119	C	1.233282	-1.120417	-0.258909
H120	H	1.204491	-1.040397	-0.253373
H121	H	1.286610	-1.112064	-0.300845
C122	C	1.278813	-1.262259	-0.154565
C123	C	1.243448	-1.163980	-0.147759
H124	H	1.285088	-1.289131	-0.086004
H125	H	1.252101	-1.309021	-0.192789
H126	H	1.323249	-1.255285	-0.189516
H127	H	1.199010	-1.170957	-0.112821
H128	H	1.270154	-1.117220	-0.109527
O129	O	1.105194	-1.292476	-0.442497
C130	C	1.172511	-1.333320	-0.473895
H131	H	1.212945	-1.272635	-0.458554
H132	H	1.173980	-1.352803	-0.561171
C133	C	1.139777	-1.508129	-0.429861
C134	C	1.189440	-1.433598	-0.411010
H135	H	1.150219	-1.569987	-0.391075
H136	H	1.094424	-1.480613	-0.408712
H137	H	1.141007	-1.524352	-0.502593
H138	H	1.188203	-1.417366	-0.338282
H139	H	1.234794	-1.461114	-0.432146
H140	H	0.925252	-0.699435	-0.866602
O141	O	0.836587	-1.167022	-0.826181
C142	C	0.766580	-1.135873	-0.798645
H143	H	0.765101	-1.056151	-0.758135
H144	H	0.742966	-1.196197	-0.743117
C145	C	0.725821	-1.225965	-0.948056
C146	C	0.724004	-1.128045	-0.898308
H147	H	0.699557	-1.221141	-1.009531
H148	H	0.772986	-1.246955	-0.966606
H149	H	0.706145	-1.276225	-0.901772
H150	H	0.743689	-1.077790	-0.944588
H151	H	0.676841	-1.107046	-0.879768
H152	H	0.614655	-0.667397	-0.667088
O153	O	0.421896	-0.729606	-0.729185
C154	C	0.373809	-0.785931	-0.785309
H155	H	0.321529	-0.739566	-0.785703
H156	H	0.365983	-0.865177	-0.746196
C157	C	0.466685	-0.859988	-0.898437
C158	C	0.402476	-0.803037	-0.898928
H159	H	0.484369	-0.870545	-0.968521
H160	H	0.499083	-0.822044	-0.860623
H161	H	0.460155	-0.926020	-0.865837
H162	H	0.409009	-0.737002	-0.931516
H163	H	0.370080	-0.840971	-0.936751
O164	O	0.497261	-0.472567	-0.472640
C165	C	0.515120	-0.496559	-0.369017
H166	H	0.568374	-0.540332	-0.370138
H167	H	0.473818	-0.547905	-0.330925
C168	C	0.453074	-0.340513	-0.304389
C169	C	0.518485	-0.394268	-0.305765
H170	H	0.455147	-0.277417	-0.265370
H171	H	0.441040	-0.324351	-0.374201
H172	H	0.418663	-0.383313	-0.272648
H173	H	0.552893	-0.351474	-0.337518
H174	H	0.530526	-0.410421	-0.235957
O175	O	1.193581	-0.315507	-0.974622
C176	C	1.183922	-0.329312	-0.865392
H177	H	1.160888	-0.408916	-0.848914
H178	H	1.146539	-0.264600	-0.831871
C179	C	1.283274	-0.226505	-0.833855
C180	C	1.254989	-0.324280	-0.813617
H181	H	1.327110	-0.223396	-0.801916
H182	H	1.289780	-0.217200	-0.907445
H183	H	1.252114	-0.172590	-0.805920
H184	H	1.286144	-0.378192	-0.841563
H185	H	1.248490	-0.333593	-0.740030
H186	H	0.747721	-0.675898	-0.675543
H187	H	0.283158	-0.710149	-0.709726
O188	O	0.533715	-0.669281	-0.669180
C189	C	0.576160	-0.612252	-0.739857
H190	H	0.587140	-0.533285	-0.703644
H191	H	0.547922	-0.599009	-0.815944
C192	C	0.632354	-0.771507	-0.807676
C193	C	0.645844	-0.674522	-0.763194
H194	H	0.675337	-0.809919	-0.822076
H195	H	0.603756	-0.809929	-0.760062
H196	H	0.608820	-0.760457	-0.871076
H197	H	0.669369	-0.685573	-0.699789
H198	H	0.674448	-0.636103	-0.810798
H199	H	1.105004	-0.442210	-0.878174
H200	H	1.104902	-0.877088	-0.442330
H201	H	0.416176	-0.474536	-0.474808
