data_functionalizedCrystal
_audit_creation_method	'MofGen! by Chris Wilmer'
_symmetry_space_group_name_H-M	'P1'
_symmetry_Int_Tables_number	1
_symmetry_cell_setting	triclinic
loop_
_symmetry_equiv_pos_as_xyz
  x,y,z
_cell_length_a	15.944551
_cell_length_b	15.944551
_cell_length_c	14.421503
_cell_angle_alpha	90.003340
_cell_angle_beta	89.996859
_cell_angle_gamma	83.498738
loop_
_atom_site_label
_atom_site_type_symbol
_atom_site_fract_x
_atom_site_fract_y
_atom_site_fract_z
O1	O	1.114529	0.108320	-0.077017
O2	O	0.869980	0.121677	-0.077040
O3	O	0.998933	-0.007276	-0.077020
O4	O	0.985576	0.237273	-0.077038
O5	O	0.998911	-0.007257	0.077204
O6	O	0.869958	0.121696	0.077183
O7	O	1.114508	0.108340	0.077206
Cu8	Cu	0.992231	0.115020	0.091277
Cu9	Cu	0.992256	0.114997	-0.091110
O10	O	0.985555	0.237293	0.077186
C11	C	0.838675	0.121132	0.000069
C12	C	0.745429	0.119470	0.000060
C13	C	0.530572	0.035565	0.000084
C14	C	0.469563	0.074518	-0.075959
C15	C	0.574703	0.116462	0.000071
C16	C	0.469564	0.074556	0.076093
C17	C	0.409790	0.113551	0.000086
C18	C	0.514922	0.155437	-0.076035
C19	C	0.514929	0.155464	0.076086
C20	C	0.453937	0.194476	0.000024
C21	C	0.669705	0.118137	0.000062
C22	C	0.314789	0.111883	0.000089
C23	C	0.998367	-0.038561	0.000092
C24	C	0.996705	-0.131807	0.000093
C25	C	0.912801	-0.346663	0.000072
C26	C	0.951753	-0.407671	0.076117
C27	C	0.993698	-0.302533	0.000085
C28	C	0.951793	-0.407674	-0.075935
C29	C	0.990787	-0.467445	0.000074
C30	C	1.032672	-0.362312	0.076193
C31	C	1.032701	-0.362308	-0.075927
C32	C	1.071711	-0.423298	0.000136
C33	C	0.995372	-0.207530	0.000092
C34	C	0.989119	-0.562446	0.000073
C35	C	1.145813	0.108885	0.000096
C36	C	1.239059	0.110547	0.000098
C37	C	0.986120	0.268577	0.000072
C38	C	0.987782	0.361823	0.000066
N39	N	0.992219	0.115035	0.219558
N40	N	0.992275	0.114975	-0.219392
C41	C	0.932581	0.174636	0.469202
C42	C	1.008481	0.190943	0.531011
C43	C	0.992240	0.115015	0.408719
C44	C	0.916359	0.098727	0.531005
C45	C	0.992253	0.114997	0.591441
C46	C	1.068178	0.131360	0.469167
C47	C	0.976007	0.039111	0.469156
C48	C	1.051961	0.055386	0.530936
C49	C	0.992231	0.115027	0.303458
C50	C	0.992270	0.114985	0.696700
H51	H	0.420779	0.261683	-0.000023
O52	O	1.073390	-0.338314	0.152950
C53	C	1.074450	-0.250016	0.152036
H54	H	1.020536	-0.219826	0.106965
H55	H	1.137171	-0.234266	0.122645
C56	C	1.129927	-0.252704	0.306983
C57	C	1.063705	-0.215623	0.251632
H58	H	1.123303	-0.231488	0.368417
H59	H	1.129216	-0.312192	0.307597
H60	H	1.182188	-0.239576	0.282479
H61	H	1.011446	-0.228760	0.276129
H62	H	1.064407	-0.156136	0.251023
H63	H	1.102474	0.004956	0.557872
H64	H	0.449461	0.040294	-0.140243
H65	H	0.534918	0.189620	-0.140394
H66	H	0.535052	0.189660	0.140373
O67	O	0.445702	0.033620	0.152761
C68	C	0.485095	-0.050134	0.152461
H69	H	0.544501	-0.054165	0.107948
H70	H	0.439847	-0.093699	0.122780
C71	C	0.436036	-0.072375	0.307027
C72	C	0.509003	-0.077325	0.252362
H73	H	0.450781	-0.089151	0.368651
H74	H	0.409493	-0.015950	0.307229
H75	H	0.398336	-0.108680	0.282283
H76	H	0.546697	-0.041014	0.277100
H77	H	0.535553	-0.133745	0.252167
O78	O	0.959438	-0.037399	0.436752
C79	C	0.879339	-0.054325	0.468223
H80	H	0.839473	0.007599	0.485603
H81	H	0.887016	-0.095620	0.532876
C82	C	0.884287	-0.176737	0.370440
C83	C	0.835321	-0.100680	0.391779
H84	H	0.857135	-0.205335	0.323289
H85	H	0.938253	-0.165337	0.349240
H86	H	0.890681	-0.211139	0.424324
H87	H	0.828936	-0.066275	0.337899
H88	H	0.781353	-0.112076	0.412969
H89	H	1.138919	-0.456457	0.000186
H90	H	0.845652	-0.313356	0.000141
H91	H	0.917527	-0.427771	0.140401
H92	H	0.852183	0.084959	0.558170
O93	O	1.073374	-0.338317	-0.152713
C94	C	1.030526	-0.361182	-0.232735
H95	H	0.962043	-0.367945	-0.214523
H96	H	1.062300	-0.423825	-0.260476
C97	C	1.117421	-0.284095	-0.329644
C98	C	1.033307	-0.292394	-0.307277
H99	H	1.119139	-0.241666	-0.375627
H100	H	1.146291	-0.268693	-0.275732
H101	H	1.143890	-0.336302	-0.352756
H102	H	1.006843	-0.240191	-0.284155
H103	H	1.004432	-0.307786	-0.361187
O104	O	0.872469	0.234765	0.436697
C105	C	0.872788	0.233477	0.338941
H106	H	0.901511	0.168785	0.313662
H107	H	0.911818	0.283914	0.311876
C108	C	0.746335	0.330781	0.333916
C109	C	0.781607	0.251323	0.302868
H110	H	0.690092	0.341793	0.311663
H111	H	0.746122	0.331652	0.399776
H112	H	0.778869	0.372803	0.311359
H113	H	0.749080	0.209303	0.325435
H114	H	0.781813	0.250446	0.237010
H115	H	0.917575	-0.427758	-0.140230
O116	O	1.024735	0.267569	0.563388
C117	C	0.961697	0.330259	0.531923
H118	H	0.902100	0.300138	0.514578
H119	H	0.984944	0.361642	0.467249
C120	C	1.015137	0.434032	0.629648
C121	C	0.941937	0.397037	0.608352
H122	H	1.002951	0.475226	0.676790
H123	H	1.057610	0.391798	0.650845
H124	H	1.034503	0.460178	0.575747
H125	H	0.922579	0.370883	0.662249
H126	H	0.899461	0.439269	0.587166
O127	O	1.144691	0.148067	0.436888
C128	C	1.134505	0.222007	0.382515
H129	H	1.073518	0.261996	0.403071
H130	H	1.131509	0.204206	0.306120
C131	C	1.284717	0.223688	0.373302
C132	C	1.209815	0.272807	0.398555
H133	H	1.331173	0.255022	0.383193
H134	H	1.291580	0.173871	0.409931
H135	H	1.282208	0.208857	0.309641
H136	H	1.212321	0.287628	0.462218
H137	H	1.202954	0.322627	0.361937
O138	O	0.570282	-0.044551	-0.000164
C139	C	0.547296	-0.086907	-0.080477
H140	H	0.525303	-0.038694	-0.136235
H141	H	0.493911	-0.126168	-0.063124
C142	C	0.651020	-0.204481	-0.047845
C143	C	0.624016	-0.145266	-0.116330
H144	H	0.698343	-0.240483	-0.069960
H145	H	0.666505	-0.175948	0.006266
H146	H	0.606526	-0.237190	-0.033390
H147	H	0.668506	-0.112551	-0.130775
H148	H	0.608540	-0.173795	-0.170444
