data_functionalizedCrystal
_audit_creation_method	'MofGen! by Chris Wilmer'
_symmetry_space_group_name_H-M	'P1'
_symmetry_Int_Tables_number	1
_symmetry_cell_setting	triclinic
loop_
_symmetry_equiv_pos_as_xyz
  x,y,z
_cell_length_a	18.101398
_cell_length_b	25.639239
_cell_length_c	18.101389
_cell_angle_alpha	89.978997
_cell_angle_beta	89.975673
_cell_angle_gamma	90.034550
loop_
_atom_site_label
_atom_site_type_symbol
_atom_site_fract_x
_atom_site_fract_y
_atom_site_fract_z
Zn1	Zn	1.132079	-0.208272	-0.418825
Zn2	Zn	1.632079	0.291728	0.081175
Zn3	Zn	1.131957	-0.295693	-0.294978
Zn4	Zn	1.631957	0.204307	0.205022
Zn5	Zn	1.008238	-0.208266	-0.294987
Zn6	Zn	1.508238	0.291734	0.205013
Zn7	Zn	1.008171	-0.295671	-0.418767
Zn8	Zn	1.508171	0.204329	0.081233
O9	O	1.070111	-0.251975	-0.356889
O10	O	1.570111	0.248025	0.143111
O11	O	1.235696	-0.219880	-0.402418
O12	O	1.735696	0.280120	0.097582
O13	O	1.115522	-0.284103	-0.191346
O14	O	1.615522	0.215897	0.308654
O15	O	1.024745	-0.135102	-0.311442
O16	O	1.524745	0.364898	0.188558
O17	O	1.235606	-0.284108	-0.311428
O18	O	1.735606	0.215892	0.188572
O19	O	1.115730	-0.135106	-0.402426
O20	O	1.615730	0.364894	0.097574
O21	O	1.024626	-0.219871	-0.191353
O22	O	1.524626	0.280129	0.308647
O23	O	0.904596	-0.219849	-0.311385
O24	O	1.404596	0.280151	0.188615
O25	O	1.024630	-0.284070	-0.522408
O26	O	1.524630	0.215930	-0.022408
O27	O	0.904547	-0.284065	-0.402326
O28	O	1.404547	0.215935	0.097674
O29	O	1.115665	-0.219858	-0.522451
O30	O	1.615665	0.280142	-0.022451
O31	O	1.115458	-0.368855	-0.311371
O32	O	1.615458	0.131145	0.188629
O33	O	1.024512	-0.368839	-0.402318
O34	O	1.524512	0.131161	0.097682
C35	C	0.877701	-0.251954	-0.356851
C36	C	1.377701	0.248046	0.143149
C37	C	0.795387	-0.251958	-0.356852
C38	C	1.295387	0.248042	0.143148
C39	C	1.069985	-0.387818	-0.356853
C40	C	1.569985	0.112182	0.143147
C41	C	1.069998	-0.445932	-0.356863
C42	C	1.569998	0.054068	0.143137
C43	C	0.496296	-0.251990	-0.356914
C44	C	0.996296	0.248010	0.143086
C45	C	0.527627	-0.211386	-0.299976
C46	C	1.027627	0.288614	0.200024
C47	C	0.613245	-0.211495	-0.299733
C48	C	1.113245	0.288505	0.200267
C49	C	0.644678	-0.251974	-0.356883
C50	C	1.144678	0.248026	0.143117
C51	C	0.613549	-0.307048	-0.335555
C52	C	1.113549	0.192952	0.164445
C53	C	0.527904	-0.306822	-0.335159
C54	C	1.027904	0.193178	0.164841
C55	C	0.527913	-0.238000	-0.435314
C56	C	1.027913	0.262000	0.064686
C57	C	0.613564	-0.236773	-0.434886
C58	C	1.113564	0.263227	0.065114
C59	C	0.728538	-0.251968	-0.356867
C60	C	1.228538	0.248032	0.143133
C61	C	0.412436	-0.252000	-0.356928
C62	C	0.912436	0.248000	0.143072
C63	C	1.022747	-0.697129	-0.404230
C64	C	1.522747	-0.197129	0.095770
C65	C	1.022720	-0.642525	-0.404222
C66	C	1.522720	-0.142525	0.095778
O67	O	0.982423	-0.614292	-0.444470
O68	O	1.482423	-0.114292	0.055530
N69	N	1.070091	-0.615206	-0.356902
N70	N	1.570091	-0.115206	0.143098
C71	C	1.117499	-0.642494	-0.309593
C72	C	1.617499	-0.142494	0.190407
O73	O	1.157790	-0.614243	-0.269343
O74	O	1.657790	-0.114243	0.230657
C75	C	1.117530	-0.697097	-0.309605
C76	C	1.617530	-0.197097	0.190395
C77	C	1.070149	-0.724413	-0.356923
C78	C	1.570149	-0.224413	0.143077
C79	C	0.975371	-0.724446	-0.451545
C80	C	1.475371	-0.224446	0.048455
C81	C	0.975398	-0.779046	-0.451552
C82	C	1.475398	-0.279046	0.048448
C83	C	1.022800	-0.806330	-0.404245
C84	C	1.522800	-0.306330	0.095755
C85	C	1.070176	-0.779014	-0.356931
C86	C	1.570176	-0.279014	0.143069
C87	C	1.164940	-0.724384	-0.262301
C88	C	1.664940	-0.224384	0.237699
C89	C	1.164967	-0.778991	-0.262318
C90	C	1.664967	-0.278991	0.237682
C91	C	1.117587	-0.806307	-0.309636
C92	C	1.617587	-0.306307	0.190364
C93	C	1.117605	-0.860899	-0.309631
C94	C	1.617605	-0.360899	0.190369
N95	N	1.070233	-0.888218	-0.356951
N96	N	1.570233	-0.388218	0.143049
C97	C	1.022831	-0.860934	-0.404258
C98	C	1.522831	-0.360934	0.095742
C99	C	1.117432	-0.527823	-0.309570
C100	C	1.617432	-0.027823	0.190430
C101	C	1.117398	-0.473221	-0.309553
C102	C	1.617398	0.026779	0.190447
C103	C	1.022620	-0.473256	-0.404183
C104	C	1.522620	0.026744	0.095817
C105	C	1.022650	-0.527859	-0.404196
C106	C	1.522650	-0.027859	0.095804
C107	C	1.070060	-0.555142	-0.356890
C108	C	1.570060	-0.055142	0.143110
C109	C	1.022890	-0.975599	-0.404270
C110	C	1.522890	-0.475599	0.095730
C111	C	1.022919	-1.030204	-0.404271
C112	C	1.522919	-0.530204	0.095729
C113	C	1.117700	-1.030164	-0.309643
C114	C	1.617700	-0.530164	0.190357
C115	C	1.117669	-0.975564	-0.309639
C116	C	1.617669	-0.475564	0.190361
C117	C	1.070261	-0.948282	-0.356958
C118	C	1.570261	-0.448282	0.143042
O119	O	1.157883	-0.889167	-0.269405
O120	O	1.657883	-0.389167	0.230595
O121	O	0.982553	-0.889191	-0.444508
O122	O	1.482553	-0.389191	0.055492
C123	C	1.263273	-0.251997	-0.356928
C124	C	1.763273	0.248003	0.143072
C125	C	1.345587	-0.252006	-0.356945
C126	C	1.845587	0.247994	0.143055
C127	C	1.070154	-0.251962	-0.550051
C128	C	1.570154	0.248038	-0.050051
C129	C	1.070172	-0.251957	-0.632365
C130	C	1.570172	0.248043	-0.132365
C131	C	1.070258	-0.115602	-0.356941
C132	C	1.570258	0.384398	0.143059
C133	C	1.070321	-0.057488	-0.356964
C134	C	1.570321	0.442512	0.143036
C135	C	1.070215	-0.251859	-0.931457
C136	C	1.570215	0.248141	-0.431457
C137	C	1.012742	-0.292130	-0.900104
C138	C	1.512742	0.207870	-0.400104
C139	C	1.012897	-0.292317	-0.814486
C140	C	1.512897	0.207683	-0.314486
C141	C	1.070193	-0.251907	-0.783074
C142	C	1.570193	0.248093	-0.283074
C143	C	1.148216	-0.266868	-0.814179
C144	C	1.648216	0.233132	-0.314179
C145	C	1.147895	-0.267132	-0.899824
C146	C	1.647895	0.232868	-0.399824
C147	C	1.050345	-0.196537	-0.899884
C148	C	1.550345	0.303463	-0.399884
C149	C	1.048609	-0.196856	-0.814233
C150	C	1.548609	0.303144	-0.314233
C151	C	1.070186	-0.251934	-0.699214
C152	C	1.570186	0.248066	-0.199214
C153	C	1.070228	-0.251833	-1.015316
C154	C	1.570228	0.248167	-0.515316
C155	C	1.070111	-0.251951	-0.164479
C156	C	1.570111	0.248049	0.335521
C157	C	1.070236	-0.251809	-0.082165
C158	C	1.570236	0.248191	0.417835
H159	H	0.634294	-0.170655	-0.313102
H160	H	1.134294	0.329345	0.186898
C161	C	1.171367	-0.320923	-0.785214
C162	C	1.671367	0.179077	-0.285214
N163	N	1.188801	-0.361640	-0.763399
N164	N	1.688801	0.138360	-0.263399
H165	H	0.634964	-0.264193	-0.479583
H166	H	1.134964	0.235807	0.020417
C167	C	0.499899	-0.349078	-0.388736
C168	C	0.999899	0.150922	0.111264
N169	N	0.478808	-0.380908	-0.429087
N170	N	0.978808	0.119092	0.070913
H171	H	1.164742	-0.307573	-0.919804
H172	H	1.664742	0.192427	-0.419804
H173	H	1.156291	-1.052389	-0.271125
H174	H	1.656291	-0.552389	0.228875
C175	C	0.970796	-1.060249	-0.456327
C176	C	1.470796	-0.560249	0.043673
N177	N	0.931539	-1.082877	-0.495537
N178	N	1.431539	-0.582877	0.004463
H179	H	1.155971	-0.450984	-0.271014
H180	H	1.655971	0.049016	0.228986
H181	H	1.156038	-0.550034	-0.271041
H182	H	1.656038	-0.050034	0.228959
C183	C	0.641049	-0.182018	-0.456610
C184	C	1.141049	0.317982	0.043390
N185	N	0.661753	-0.140775	-0.472968
N186	N	1.161753	0.359225	0.027032
H187	H	0.507890	-0.318688	-0.277845
H188	H	1.007890	0.181312	0.222155
H189	H	1.203578	-0.801202	-0.223797
H190	H	1.703578	-0.301202	0.276203
H191	H	1.203522	-0.702151	-0.223771
H192	H	1.703522	-0.202151	0.276229
H193	H	0.507650	-0.267575	-0.477739
H194	H	1.007650	0.232425	0.022261
C195	C	1.169792	-0.945515	-0.257591
C196	C	1.669792	-0.445515	0.242409
N197	N	1.209060	-0.922886	-0.218395
N198	N	1.709060	-0.422886	0.281605
H199	H	1.087417	-0.165258	-0.792851
H200	H	1.587417	0.334742	-0.292851
C201	C	0.934735	-0.279667	-0.786071
C202	C	1.434735	0.220333	-0.286071
N203	N	0.875859	-0.270141	-0.764672
N204	N	1.375859	0.229859	-0.264672
H205	H	0.506349	-0.198540	-0.454705
H206	H	1.006349	0.301460	0.045295
H207	H	0.634961	-0.319119	-0.278859
H208	H	1.134961	0.180881	0.221141
H209	H	0.507065	-0.170421	-0.313198
H210	H	1.007065	0.329579	0.186802
C211	C	0.934340	-0.279609	-0.927908
C212	C	1.434340	0.220391	-0.427908
N213	N	0.875287	-0.270178	-0.948856
N214	N	1.375287	0.229822	-0.448856
C215	C	1.106899	-0.156002	-0.927276
C216	C	1.606899	0.343998	-0.427276
N217	N	1.149499	-0.125476	-0.947910
N218	N	1.649499	0.374524	-0.447910
C219	C	0.641061	-0.349016	-0.389818
C220	C	1.141061	0.150984	0.110182
N221	N	0.661788	-0.380627	-0.430688
N222	N	1.161788	0.119373	0.069312
C223	C	0.970740	-0.945597	-0.456323
C224	C	1.470740	-0.445597	0.043677
N225	N	0.931457	-0.923000	-0.495527
N226	N	1.431457	-0.423000	0.004473
C227	C	0.974816	-0.178127	-0.929039
C228	C	1.474816	0.321873	-0.429039
N229	N	0.917924	-0.164267	-0.950997
N230	N	1.417924	0.335733	-0.450997
C231	C	1.207717	-0.229236	-0.927847
C232	C	1.707717	0.270764	-0.427847
N233	N	1.252778	-0.200696	-0.948952
N234	N	1.752778	0.299304	-0.448952
H235	H	0.936815	-0.801282	-0.490082
H236	H	1.436815	-0.301282	0.009918
H237	H	0.936771	-0.702236	-0.490071
H238	H	1.436771	-0.202236	0.009929
H239	H	1.192187	-0.238457	-0.793835
H240	H	1.692187	0.261543	-0.293835
H241	H	0.984073	-0.550097	-0.442730
H242	H	1.484073	-0.050097	0.057270
H243	H	0.991192	-0.185574	-0.793902
H244	H	1.491192	0.314426	-0.293902
H245	H	0.506076	-0.220529	-0.242220
H246	H	1.006076	0.279471	0.257780
H247	H	0.984023	-0.451031	-0.442704
H248	H	1.484023	0.048969	0.057296
C249	C	0.640878	-0.223991	-0.221251
C250	C	1.140878	0.276009	0.278749
N251	N	0.661690	-0.233406	-0.162135
N252	N	1.161690	0.266594	0.337865
H253	H	1.025729	-0.332886	-0.921627
H254	H	1.525729	0.167114	-0.421627
H255	H	1.026014	-0.333323	-0.794001
H256	H	1.526014	0.166677	-0.294001
