data_functionalizedCrystal
_audit_creation_method	'MofGen! by Chris Wilmer'
_symmetry_space_group_name_H-M	'P1'
_symmetry_Int_Tables_number	1
_symmetry_cell_setting	triclinic
loop_
_symmetry_equiv_pos_as_xyz
  x,y,z
_cell_length_a	10.540539
_cell_length_b	14.044220
_cell_length_c	12.503552
_cell_angle_alpha	86.160109
_cell_angle_beta	86.442701
_cell_angle_gamma	91.142815
loop_
_atom_site_label
_atom_site_type_symbol
_atom_site_fract_x
_atom_site_fract_y
_atom_site_fract_z
O1	O	0.299547	-1.265199	0.089197
O2	O	0.288494	-0.989157	0.089224
O3	O	0.109951	-1.133476	0.089209
O4	O	0.478090	-1.120880	0.089213
O5	O	0.123390	-1.122609	-0.089433
O6	O	0.301933	-0.978291	-0.089417
O7	O	0.312986	-1.254333	-0.089444
Cu8	Cu	0.308687	-1.115320	-0.105742
Cu9	Cu	0.292794	-1.128170	0.105522
O10	O	0.491529	-1.110014	-0.089429
C11	C	0.290375	-0.948377	-0.000093
C12	C	0.275945	-0.843054	-0.000082
C13	C	0.069272	-1.127098	-0.000110
C14	C	-0.071962	-1.124272	-0.000104
N15	N	0.319865	-1.106288	-0.254334
C16	C	-0.266368	-1.016008	0.000308
C17	C	-0.119430	-1.018848	-0.000095
C18	C	-0.120816	-1.168802	-0.102122
C19	C	-0.267718	-1.165199	-0.102207
C20	C	-0.283302	-1.179700	0.100941
C21	C	-0.136323	-1.180753	0.102290
C22	C	0.532208	-1.116392	-0.000108
C23	C	0.673442	-1.119218	-0.000107
C24	C	0.311105	-1.295113	-0.000125
C25	C	0.325535	-1.400436	-0.000129
C26	C	0.249566	-0.650213	-0.000104
C27	C	0.351908	-0.593272	-0.000107
C28	C	0.337231	-0.485969	-0.000119
C29	C	0.264241	-0.757526	-0.000092
C30	C	0.265158	-1.150490	-0.526772
C31	C	0.336310	-1.093011	-0.473441
C32	C	0.327157	-1.100400	-0.351519
C33	C	0.274308	-1.143101	-0.648706
N34	N	0.281606	-1.137209	0.254114
H35	H	-0.304682	-0.978813	0.073467
N36	N	0.175361	-1.223006	-0.465953
H37	H	0.225208	-1.268137	-0.419285
H38	H	0.129154	-1.260277	-0.518584
H39	H	-0.086364	-0.983376	0.073036
N40	N	0.118915	-0.608038	-0.000113
H41	H	0.103302	-0.571451	0.066106
H42	H	0.052729	-0.661033	-0.000148
N43	N	-0.094589	-1.137720	0.202258
H44	H	0.000857	-1.141173	0.204296
H45	H	-0.136371	-1.174363	0.267797
H46	H	-0.295296	-0.970108	-0.072433
H47	H	0.404099	-1.038252	-0.519351
H48	H	-0.293972	-1.123065	-0.178461
N49	N	-0.062189	-0.959704	-0.097116
H50	H	-0.132421	-0.931689	-0.139793
H51	H	-0.008399	-1.001460	-0.143520
H52	H	-0.307673	-1.240737	-0.106843
N53	N	-0.094575	-1.283066	0.110440
H54	H	-0.137428	-1.317528	0.176923
H55	H	0.000712	-1.284481	0.114946
N56	N	-0.080483	-1.271055	-0.107128
H57	H	0.015371	-1.273480	-0.110370
H58	H	-0.112999	-1.298201	-0.173319
N59	N	-0.061534	-1.116021	-0.202681
H60	H	-0.003030	-1.063260	-0.182386
H61	H	-0.130675	-1.087709	-0.246406
N62	N	-0.337370	-1.140742	0.203368
H63	H	-0.390461	-1.083487	0.185302
H64	H	-0.265524	-1.121112	0.247638
N65	N	-0.335720	-1.280622	0.101848
H66	H	-0.387240	-1.287177	0.037158
H67	H	-0.391788	-1.295718	0.169566
H68	H	0.450550	-0.625111	-0.000101
