data_functionalizedCrystal
_audit_creation_method	'MofGen! by Chris Wilmer'
_symmetry_space_group_name_H-M	'P1'
_symmetry_Int_Tables_number	1
_symmetry_cell_setting	triclinic
loop_
_symmetry_equiv_pos_as_xyz
  x,y,z
_cell_length_a	17.077404
_cell_length_b	19.076808
_cell_length_c	19.077579
_cell_angle_alpha	94.529153
_cell_angle_beta	92.312182
_cell_angle_gamma	92.321444
loop_
_atom_site_label
_atom_site_type_symbol
_atom_site_fract_x
_atom_site_fract_y
_atom_site_fract_z
Zn1	Zn	1.205504	-0.264708	0.387291
Zn2	Zn	1.705504	0.235292	0.887291
Zn3	Zn	1.194425	-0.387340	0.264662
Zn4	Zn	1.694425	0.112660	0.764662
Zn5	Zn	1.068750	-0.269459	0.269418
Zn6	Zn	1.568750	0.230541	0.769418
Zn7	Zn	1.068703	-0.382563	0.382514
Zn8	Zn	1.568703	0.117437	0.882514
O9	O	1.134345	-0.326018	0.325971
O10	O	1.634345	0.173982	0.825971
O11	O	1.313881	-0.280986	0.371032
O12	O	1.813881	0.219014	0.871032
O13	O	1.173137	-0.375691	0.166641
O14	O	1.673137	0.124309	0.666641
O15	O	1.091547	-0.170172	0.289044
O16	O	1.591547	0.329828	0.789044
O17	O	1.305741	-0.371084	0.280937
O18	O	1.805741	0.128916	0.780937
O19	O	1.192019	-0.166681	0.375644
O20	O	1.692019	0.333319	0.875644
O21	O	1.080804	-0.289085	0.170135
O22	O	1.580804	0.210915	0.670135
O23	O	0.958897	-0.284452	0.284412
O24	O	1.458897	0.215548	0.784412
O25	O	1.091467	-0.362941	0.481800
O26	O	1.591467	0.137059	0.981800
O27	O	0.958863	-0.367549	0.367504
O28	O	1.458863	0.132451	0.867504
O29	O	1.191974	-0.276353	0.485309
O30	O	1.691974	0.223647	0.985309
O31	O	1.173091	-0.485363	0.276306
O32	O	1.673091	0.014637	0.776306
O33	O	1.080724	-0.481853	0.362891
O34	O	1.580724	0.018147	0.862891
C35	C	0.930398	-0.325998	0.325956
C36	C	1.430398	0.174002	0.825956
C37	C	0.843148	-0.326006	0.325966
C38	C	1.343148	0.173994	0.825966
C39	C	0.806396	-0.279170	0.372944
C40	C	1.306396	0.220830	0.872944
C41	C	0.724416	-0.279174	0.372947
C42	C	1.224416	0.220826	0.872947
C43	C	0.679188	-0.326019	0.325975
C44	C	1.179188	0.173981	0.825975
C45	C	0.715946	-0.372858	0.278992
C46	C	1.215946	0.127142	0.778992
C47	C	0.797925	-0.372849	0.278986
C48	C	1.297925	0.127151	0.778986
C49	C	0.545076	-0.372873	0.279009
C50	C	1.045076	0.127127	0.779009
C51	C	0.463091	-0.372883	0.279015
C52	C	0.963091	0.127117	0.779015
C53	C	0.471567	-0.279198	0.372970
C54	C	0.971567	0.220802	0.872970
C55	C	0.553546	-0.279189	0.372964
C56	C	1.053546	0.220811	0.872964
C57	C	0.590297	-0.326029	0.325981
C58	C	1.090297	0.173971	0.825981
C59	C	1.125723	-0.509188	0.318579
C60	C	1.625723	-0.009188	0.818579
C61	C	1.122107	-0.587548	0.315441
C62	C	1.622107	-0.087548	0.815441
C63	C	1.172683	-0.622483	0.359091
C64	C	1.672683	-0.122483	0.859091
C65	C	1.169282	-0.696110	0.356143
C66	C	1.669282	-0.196110	0.856143
C67	C	1.115308	-0.734803	0.309541
C68	C	1.615308	-0.234803	0.809541
C69	C	1.064727	-0.699863	0.265889
C70	C	1.564727	-0.199863	0.765889
C71	C	1.068125	-0.626237	0.268841
C72	C	1.568125	-0.126237	0.768841
C73	C	1.099539	-0.955204	0.295876
C74	C	1.599539	-0.455204	0.795876
C75	C	1.096146	-1.028836	0.292926
C76	C	1.596146	-0.528836	0.792926
C77	C	1.200700	-1.025077	0.383182
C78	C	1.700700	-0.525077	0.883182
C79	C	1.204096	-0.951450	0.386126
C80	C	1.704096	-0.451450	0.886126
C81	C	1.153512	-0.916517	0.342477
C82	C	1.653512	-0.416517	0.842477
N83	N	1.111833	-0.810062	0.306525
N84	N	1.611833	-0.310062	0.806525
N85	N	1.156985	-0.841258	0.345497
N86	N	1.656985	-0.341258	0.845497
C87	C	1.339089	-0.326038	0.325987
C88	C	1.839089	0.173962	0.825987
C89	C	1.426339	-0.326046	0.325993
C90	C	1.926339	0.173954	0.825993
C91	C	1.142951	-0.318584	0.509849
C92	C	1.642951	0.181416	1.009849
C93	C	1.146618	-0.315417	0.588207
C94	C	1.646618	0.184583	1.088207
C95	C	1.143024	-0.142131	0.333408
C96	C	1.643024	0.357869	0.833408
C97	C	1.146722	-0.063770	0.336576
C98	C	1.646722	0.436230	0.836576
C99	C	1.125821	-0.333371	0.142811
C100	C	1.625821	0.166629	0.642811
C101	C	1.122315	-0.336340	0.064462
C102	C	1.622315	0.163660	0.564462
C103	C	1.172918	-0.292749	1.029474
C104	C	1.672918	0.207251	1.529474
C105	C	1.169467	-0.295729	0.955848
C106	C	1.669467	0.204271	1.455848
C107	C	1.115409	-0.342296	0.917212
C108	C	1.615409	0.157704	1.417212
C109	C	1.064805	-0.385892	0.952205
C110	C	1.564805	0.114108	1.452205
C111	C	1.068260	-0.382915	1.025829
C112	C	1.568260	0.117085	1.525829
C113	C	1.099468	-0.356036	0.696824
C114	C	1.599468	0.143964	1.196824
C115	C	1.096016	-0.359008	0.623195
C116	C	1.596016	0.140992	1.123195
C117	C	1.200679	-0.268845	0.626843
C118	C	1.700679	0.231155	1.126843
C119	C	1.204126	-0.265869	0.700468
C120	C	1.704126	0.234131	1.200468
C121	C	1.153524	-0.309468	0.735455
C122	C	1.653524	0.190532	1.235455
N123	N	1.111879	-0.345342	0.841955
N124	N	1.611879	0.154658	1.341955
N125	N	1.157059	-0.306426	0.810710
N126	N	1.657059	0.193574	1.310710
H127	H	0.590368	-0.241048	0.411217
H128	H	1.090368	0.258952	0.911217
O129	O	1.255259	-0.221827	0.589108
O130	O	1.755259	0.278173	1.089108
H131	H	1.316956	-0.233357	0.602756
H132	H	1.816956	0.266643	1.102756
O133	O	0.855173	-0.228637	0.423604
O134	O	1.355173	0.271363	0.923604
H135	H	0.841462	-0.238572	0.478424
H136	H	1.341462	0.261428	0.978424
O137	O	0.431931	-0.228674	0.423642
O138	O	0.931931	0.271326	0.923642
H139	H	0.449709	-0.173808	0.413878
H140	H	0.949709	0.326192	0.913878
H141	H	1.210675	-0.260234	0.927364
H142	H	1.710675	0.239766	1.427364
H143	H	0.694497	-0.241036	0.411203
H144	H	1.194497	0.258964	0.911203
H145	H	1.020778	-0.731373	0.227947
H146	H	1.520778	-0.231373	0.727947
O147	O	1.006491	-0.436112	0.910536
O148	O	1.506491	0.063888	1.410536
H149	H	1.018000	-0.490878	0.922420
H150	H	1.518000	0.009122	1.422420
H151	H	1.248149	-0.227952	0.731921
H152	H	1.748149	0.272048	1.231921
O153	O	0.584717	-0.423389	0.228332
O154	O	1.084717	0.076611	0.728332
H155	H	0.621868	-0.458025	0.258373
H156	H	1.121868	0.041975	0.758373
H157	H	0.679115	-0.410996	0.240743
H158	H	1.179115	0.089004	0.740743
O159	O	1.231225	-0.242525	1.071145
O160	O	1.731225	0.257475	1.571145
H161	H	1.265838	-0.212720	1.034443
H162	H	1.765838	0.287280	1.534443
O163	O	1.013582	-0.588552	0.221756
O164	O	1.513582	-0.088552	0.721756
H165	H	0.975486	-0.627826	0.188848
H166	H	1.475486	-0.127826	0.688848
H167	H	0.426269	-0.411028	0.240767
H168	H	0.926269	0.088972	0.740767
O169	O	1.255253	-1.062753	0.430263
O170	O	1.755253	-0.562753	0.930263
H171	H	1.244982	-1.046368	0.486146
H172	H	1.744982	-0.546368	0.986146
H173	H	1.051977	-0.396915	0.591739
H174	H	1.551977	0.103085	1.091739
O175	O	1.223832	-0.733787	0.403225
O176	O	1.723832	-0.233787	0.903225
H177	H	1.260769	-0.768594	0.370362
H178	H	1.760769	-0.268594	0.870362
O179	O	1.262334	-0.909717	0.436367
O180	O	1.762334	-0.409717	0.936367
H181	H	1.296939	-0.946380	0.466220
H182	H	1.796939	-0.446380	0.966220
H183	H	0.827846	-0.410988	0.240731
H184	H	1.327846	0.089012	0.740731
H185	H	1.058264	-0.391536	0.725301
H186	H	1.558264	0.108464	1.225301
H187	H	1.216637	-0.590984	0.397036
H188	H	1.716637	-0.090984	0.897036
O189	O	1.013674	-0.429925	1.063570
O190	O	1.513674	0.070075	1.563570
H191	H	1.023852	-0.485830	1.047199
H192	H	1.523852	0.014170	1.547199
O193	O	1.037924	-1.070573	0.242666
O194	O	1.537924	-0.570573	0.742666
H195	H	1.003314	-1.033913	0.212815
H196	H	1.503314	-0.533913	0.712815
H197	H	1.058352	-0.926767	0.260334
H198	H	1.558352	-0.426767	0.760334
