data_functionalizedCrystal
_audit_creation_method	'MofGen! by Chris Wilmer'
_symmetry_space_group_name_H-M	'P1'
_symmetry_Int_Tables_number	1
_symmetry_cell_setting	triclinic
loop_
_symmetry_equiv_pos_as_xyz
  x,y,z
_cell_length_a	19.121102
_cell_length_b	25.639239
_cell_length_c	19.120904
_cell_angle_alpha	92.410104
_cell_angle_beta	90.088173
_cell_angle_gamma	87.592882
loop_
_atom_site_label
_atom_site_type_symbol
_atom_site_fract_x
_atom_site_fract_y
_atom_site_fract_z
Zn1	Zn	1.054765	-0.255751	-0.442042
Zn2	Zn	1.554765	0.244249	0.057958
Zn3	Zn	1.059658	-0.339618	-0.324799
Zn4	Zn	1.559658	0.160382	0.175201
Zn5	Zn	0.942536	-0.248315	-0.319827
Zn6	Zn	1.442536	0.251685	0.180173
Zn7	Zn	0.937469	-0.339266	-0.437001
Zn8	Zn	1.437469	0.160734	0.062999
O9	O	0.998607	-0.295738	-0.380917
O10	O	1.498607	0.204262	0.119083
O11	O	1.153518	-0.270136	-0.430680
O12	O	1.653518	0.229864	0.069320
O13	O	1.048290	-0.324541	-0.226035
O14	O	1.548290	0.175459	0.273965
O15	O	0.957496	-0.176139	-0.336067
O16	O	1.457496	0.323861	0.163933
O17	O	1.157113	-0.331752	-0.344542
O18	O	1.657113	0.168248	0.155458
O19	O	1.039950	-0.181603	-0.425859
O20	O	1.539950	0.318397	0.074141
O21	O	0.962241	-0.257461	-0.222382
O22	O	1.462241	0.242539	0.277618
O23	O	0.843760	-0.257121	-0.331180
O24	O	1.343760	0.242879	0.168820
O25	O	0.948861	-0.331153	-0.535775
O26	O	1.448861	0.168847	-0.035775
O27	O	0.840037	-0.323942	-0.417267
O28	O	1.340037	0.176058	0.082733
O29	O	1.035037	-0.269795	-0.539478
O30	O	1.535037	0.230205	-0.039478
O31	O	1.043377	-0.412733	-0.339654
O32	O	1.543377	0.087267	0.160346
O33	O	0.953605	-0.412475	-0.422089
O34	O	1.453605	0.087525	0.077911
C35	C	0.816461	-0.289687	-0.373137
C36	C	1.316461	0.210313	0.126863
C37	C	0.738537	-0.287111	-0.369826
C38	C	1.238537	0.212889	0.130174
C39	C	0.700012	-0.320740	-0.413021
C40	C	1.200012	0.179260	0.086979
C41	C	0.626794	-0.318313	-0.409912
C42	C	1.126794	0.181687	0.090088
C43	C	0.592104	-0.282260	-0.363605
C44	C	1.092104	0.217740	0.136395
C45	C	0.630634	-0.248627	-0.320408
C46	C	1.130634	0.251373	0.179592
C47	C	0.703850	-0.251052	-0.323520
C48	C	1.203850	0.248948	0.176480
C49	C	0.371134	-0.273194	-0.351972
C50	C	0.871134	0.226806	0.148028
C51	C	0.297913	-0.270773	-0.348862
C52	C	0.797913	0.229227	0.151138
C53	C	0.294078	-0.340458	-0.438367
C54	C	0.794078	0.159542	0.061633
C55	C	0.367296	-0.342882	-0.441472
C56	C	0.867296	0.157118	0.058528
C57	C	0.405820	-0.309247	-0.398278
C58	C	0.905820	0.190753	0.101722
C59	C	0.517264	-0.279779	-0.360425
C60	C	1.017264	0.220221	0.139575
C61	C	0.480658	-0.311726	-0.401462
C62	C	0.980658	0.188274	0.098538
C63	C	0.998491	-0.431575	-0.380880
C64	C	1.498491	0.068425	0.119120
C65	C	0.998504	-0.489690	-0.380890
C66	C	1.498504	0.010310	0.119110
C67	C	1.045465	-0.850185	-0.338075
C68	C	1.545465	-0.350185	0.161925
C69	C	1.045491	-0.904791	-0.338085
C70	C	1.545491	-0.404791	0.161915
O71	O	1.085298	-0.933135	-0.301642
O72	O	1.585298	-0.433135	0.198358
N73	N	0.998728	-0.931982	-0.380969
N74	N	1.498728	-0.431982	0.119031
C75	C	0.951940	-0.904565	-0.423850
C76	C	1.451940	-0.404565	0.076150
O77	O	0.912167	-0.932708	-0.460327
O78	O	1.412167	-0.432708	0.039673
C79	C	0.951917	-0.849961	-0.423843
C80	C	1.451917	-0.349961	0.076157
C81	C	0.998679	-0.822772	-0.380951
C82	C	1.498679	-0.322772	0.119049
C83	C	1.092223	-0.822997	-0.295188
C84	C	1.592223	-0.322997	0.204812
C85	C	1.092195	-0.768395	-0.295176
C86	C	1.592195	-0.268395	0.204824
C87	C	1.045409	-0.740982	-0.338052
C88	C	1.545409	-0.240982	0.161948
C89	C	0.998651	-0.768171	-0.380940
C90	C	1.498651	-0.268171	0.119060
C91	C	0.905133	-0.822546	-0.466727
C92	C	1.405133	-0.322546	0.033273
C93	C	0.905115	-0.767938	-0.466716
C94	C	1.405115	-0.267938	0.033284
C95	C	0.951876	-0.740749	-0.423825
C96	C	1.451876	-0.240749	0.076175
C97	C	0.951837	-0.686156	-0.423805
C98	C	1.451837	-0.186156	0.076195
N99	N	0.998600	-0.658965	-0.380921
N100	N	1.498600	-0.158965	0.119079
C101	C	1.045386	-0.686378	-0.338045
C102	C	1.545386	-0.186378	0.161955
C103	C	0.951992	-1.019238	-0.423863
C104	C	1.451992	-0.519238	0.076137
C105	C	0.952011	-1.073841	-0.423867
C106	C	1.452011	-0.573841	0.076133
C107	C	1.045564	-1.074063	-0.338103
C108	C	1.545564	-0.574063	0.161897
C109	C	1.045541	-1.019459	-0.338096
C110	C	1.545541	-0.519459	0.161904
C111	C	0.998756	-0.992047	-0.380980
C112	C	1.498756	-0.492047	0.119020
C113	C	1.045324	-0.571710	-0.338024
C114	C	1.545324	-0.071710	0.161976
C115	C	1.045290	-0.517103	-0.338014
C116	C	1.545290	-0.017103	0.161986
C117	C	0.951740	-0.516886	-0.423780
C118	C	1.451740	-0.016886	0.076220
C119	C	0.951771	-0.571488	-0.423788
C120	C	1.451771	-0.071488	0.076212
C121	C	0.998569	-0.598899	-0.380907
C122	C	1.498569	-0.098899	0.119093
O123	O	0.912052	-0.657777	-0.460232
O124	O	1.412052	-0.157777	0.039768
O125	O	1.085159	-0.658229	-0.301581
O126	O	1.585159	-0.158229	0.198419
C127	C	1.181464	-0.301813	-0.388728
C128	C	1.681464	0.198187	0.111272
C129	C	1.259387	-0.304401	-0.392057
C130	C	1.759387	0.195599	0.107943
C131	C	0.990838	-0.301264	-0.563775
C132	C	1.490838	0.198736	-0.063775
C133	C	0.987527	-0.303619	-0.641698
C134	C	1.487527	0.196381	-0.141698
C135	C	0.998742	-0.159371	-0.380971
C136	C	1.498742	0.340629	0.119029
C137	C	0.998800	-0.101259	-0.380993
C138	C	1.498800	0.398741	0.119007
C139	C	1.030837	-0.272781	-0.680236
C140	C	1.530837	0.227219	-0.180236
C141	C	1.027718	-0.274992	-0.753453
C142	C	1.527718	0.225008	-0.253453
C143	C	0.981292	-0.308044	-0.788130
C144	C	1.481292	0.191956	-0.288130
C145	C	0.937977	-0.338883	-0.749587
C146	C	1.437977	0.161117	-0.249587
C147	C	0.941093	-0.336669	-0.676372
C148	C	1.441093	0.163331	-0.176372
C149	C	0.969635	-0.316324	-1.009097
C150	C	1.469635	0.183676	-0.509097
C151	C	0.966523	-0.318536	-1.082318
C152	C	1.466523	0.181464	-0.582318
C153	C	1.056263	-0.254644	-1.086178
C154	C	1.556263	0.245356	-0.586178
C155	C	1.059378	-0.252436	-1.012961
C156	C	1.559378	0.247564	-0.512961
C157	C	1.016061	-0.283273	-0.974424
C158	C	1.516061	0.216727	-0.474424
C159	C	0.978104	-0.310306	-0.862970
C160	C	1.478104	0.189694	-0.362970
C161	C	1.019246	-0.281008	-0.899586
C162	C	1.519246	0.218992	-0.399586
C163	C	1.006386	-0.290196	-0.198772
C164	C	1.506386	0.209804	0.301228
C165	C	1.009833	-0.287698	-0.120856
C166	C	1.509833	0.212302	0.379144
H167	H	0.728252	-0.350100	-0.450727
H168	H	1.228252	0.149900	0.049273
H169	H	0.595430	-0.345698	-0.445086
H170	H	1.095430	0.154302	0.054914
C171	C	0.745711	-0.214481	-0.276738
C172	C	1.245711	0.285519	0.223262
C173	C	0.786076	-0.183601	-0.318302
C174	C	1.286076	0.316399	0.181698
C175	C	0.824638	-0.149899	-0.275232
C176	C	1.324638	0.350101	0.224768
H177	H	0.775608	-0.234406	-0.247344
H178	H	1.275608	0.265594	0.252656
H179	H	0.714586	-0.192634	-0.248726
H180	H	1.214586	0.307366	0.251274
H181	H	0.817198	-0.205446	-0.346302
H182	H	1.317198	0.294554	0.153698
H183	H	0.756196	-0.163665	-0.347695
H184	H	1.256196	0.336335	0.152305
H185	H	0.793512	-0.128051	-0.247219
H186	H	1.293512	0.371949	0.252781
H187	H	0.854531	-0.169828	-0.245840
H188	H	1.354531	0.330172	0.254160
H189	H	0.852025	-0.128939	-0.303427
H190	H	1.352025	0.371061	0.196573
H191	H	0.934373	-0.341441	-0.977730
H192	H	1.434373	0.158559	-0.477730
C193	C	1.103403	-0.221229	-1.127987
C194	C	1.603403	0.278771	-0.627987
C195	C	1.173514	-0.234386	-1.113154
C196	C	1.673514	0.265614	-0.613154
C197	C	1.216959	-0.203616	-1.151661
C198	C	1.716959	0.296384	-0.651661
H199	H	1.093778	-0.185383	-1.115595
H200	H	1.593778	0.314617	-0.615595
H201	H	1.094947	-0.227285	-1.176566
H202	H	1.594947	0.272715	-0.676566
H203	H	1.181967	-0.228326	-1.064585
H204	H	1.681967	0.271674	-0.564585
H205	H	1.183161	-0.270227	-1.125548
H206	H	1.683161	0.229773	-0.625548
H207	H	1.208503	-0.209673	-1.200241
H208	H	1.708503	0.290327	-0.700241
H209	H	1.207328	-0.167772	-1.139267
H210	H	1.707328	0.332228	-0.639267
H211	H	1.264534	-0.212543	-1.141607
H212	H	1.764534	0.287457	-0.641607
H213	H	0.928715	-0.345452	-1.110550
H214	H	1.428715	0.154548	-0.610550
C215	C	1.109729	-0.216576	-0.975184
C216	C	1.609729	0.283424	-0.475184
C217	C	1.103187	-0.221237	-0.902816
C218	C	1.603187	0.278763	-0.402816
C219	C	1.149554	-0.188207	-0.867994
C220	C	1.649554	0.311793	-0.367994
H221	H	1.099011	-0.181455	-0.986690
H222	H	1.599011	0.318545	-0.486690
H223	H	1.156343	-0.226137	-0.989139
H224	H	1.656343	0.273863	-0.489139
H225	H	1.056584	-0.211673	-0.888867
H226	H	1.556584	0.288327	-0.388867
H227	H	1.113911	-0.256351	-0.891290
H228	H	1.613911	0.243649	-0.391290
H229	H	1.196168	-0.197768	-0.881949
H230	H	1.696168	0.302232	-0.381949
H231	H	1.138832	-0.153088	-0.879506
H232	H	1.638832	0.346912	-0.379506
H233	H	1.145126	-0.191369	-0.818889
H234	H	1.645126	0.308631	-0.318889
C235	C	0.901298	-0.989457	-0.470509
C236	C	1.401298	-0.489457	0.029491
C237	C	0.939025	-0.960752	-0.517183
C238	C	1.439025	-0.460752	-0.017183
C239	C	0.892351	-0.933320	-0.560170
C240	C	1.392351	-0.433320	-0.060170
H241	H	0.871886	-0.966322	-0.442441
H242	H	1.371886	-0.466322	0.057559
H243	H	0.873464	-1.013460	-0.496088
H244	H	1.373464	-0.513460	0.003912
H245	H	0.966847	-0.936751	-0.491607
H246	H	1.466847	-0.436751	0.008393
H247	H	0.968435	-0.983874	-0.545267
H248	H	1.468435	-0.483874	-0.045267
H249	H	0.864517	-0.957323	-0.585749
H250	H	1.364517	-0.457323	-0.085749
H251	H	0.862942	-0.910188	-0.532097
H252	H	1.362942	-0.410188	-0.032097
H253	H	0.917942	-0.913844	-0.591848
H254	H	1.417942	-0.413844	-0.091848
C255	C	0.252208	-0.376882	-0.485352
C256	C	0.752208	0.123118	0.014648
C257	C	0.208311	-0.347297	-0.528583
C258	C	0.708311	0.152703	-0.028583
C259	C	0.169736	-0.380832	-0.571886
C260	C	0.669736	0.119168	-0.071886
H261	H	0.224701	-0.397885	-0.457345
H262	H	0.724701	0.102115	0.042655
H263	H	0.283329	-0.398692	-0.513419
H264	H	0.783329	0.101308	-0.013419
H265	H	0.177193	-0.325495	-0.500520
H266	H	0.677193	0.174505	-0.000520
H267	H	0.235799	-0.326295	-0.556605
H268	H	0.735799	0.173705	-0.056605
H269	H	0.200857	-0.402642	-0.599952
H270	H	0.700857	0.097358	-0.099952
H271	H	0.142234	-0.401833	-0.543873
H272	H	0.642234	0.098167	-0.043873
H273	H	0.139952	-0.360763	-0.601228
H274	H	0.639952	0.139237	-0.101228
H275	H	1.130274	-0.746261	-0.260252
H276	H	1.630274	-0.246261	0.239748
C277	C	0.887640	-0.374754	-0.787365
C278	C	1.387640	0.125246	-0.287365
C279	C	0.894194	-0.370104	-0.859733
C280	C	1.394194	0.129896	-0.359733
C281	C	0.847842	-0.403147	-0.894554
C282	C	1.347842	0.096853	-0.394554
H283	H	0.841023	-0.365209	-0.773437
H284	H	1.341023	0.134791	-0.273437
H285	H	0.898380	-0.409873	-0.775830
H286	H	1.398380	0.090127	-0.275830
H287	H	0.883449	-0.334993	-0.871263
H288	H	1.383449	0.165007	-0.371263
H289	H	0.940801	-0.379654	-0.873681
H290	H	1.440801	0.120346	-0.373681
H291	H	0.858581	-0.438266	-0.883020
H292	H	1.358581	0.061734	-0.383020
H293	H	0.801227	-0.393599	-0.880622
H294	H	1.301227	0.106401	-0.380622
H295	H	0.852286	-0.400000	-0.943660
H296	H	1.352286	0.100000	-0.443660
H297	H	0.508906	-0.341078	-0.439168
H298	H	1.008906	0.158922	0.060832
C299	C	0.405003	-0.382083	-0.491639
C300	C	0.905003	0.117917	0.008361
C301	C	0.448680	-0.415744	-0.453648
C302	C	0.948680	0.084256	0.046352
C303	C	0.483422	-0.451867	-0.499837
C304	C	0.983422	0.048133	0.000163
H305	H	0.432343	-0.364048	-0.523461
H306	H	0.932343	0.135952	-0.023461
H307	H	0.371598	-0.401795	-0.516913
H308	H	0.871598	0.098205	-0.016913
H309	H	0.482081	-0.396034	-0.428387
H310	H	0.982081	0.103966	0.071613
H311	H	0.421357	-0.433791	-0.421829
H312	H	0.921357	0.066209	0.078171
H313	H	0.450017	-0.471580	-0.525110
H314	H	0.950017	0.028420	-0.025110
H315	H	0.510758	-0.433828	-0.531657
H316	H	1.010758	0.066172	-0.031657
H317	H	0.513056	-0.474714	-0.474067
H318	H	1.013056	0.025286	0.025933
H319	H	0.913927	-1.095973	-0.458787
H320	H	1.413927	-0.595973	0.041213
H321	H	0.867017	-0.745622	-0.501639
H322	H	1.367017	-0.245622	-0.001639
H323	H	0.913696	-0.593627	-0.458716
H324	H	1.413696	-0.093627	0.041284
H325	H	0.402492	-0.245810	-0.316795
H326	H	0.902492	0.254190	0.183205
H327	H	0.269669	-0.241408	-0.311157
H328	H	0.769669	0.258592	0.188843
H329	H	1.068644	-0.245869	-0.652007
H330	H	1.568644	0.254131	-0.152007
C331	C	0.592845	-0.209534	-0.270156
C332	C	1.092845	0.290466	0.229844
C333	C	0.520479	-0.214616	-0.276661
C334	C	1.020479	0.285384	0.223339
C335	C	0.485648	-0.178616	-0.230373
C336	C	0.985648	0.321384	0.269627
H337	H	0.604353	-0.175102	-0.280968
H338	H	1.104353	0.324898	0.219032
H339	H	0.606790	-0.216104	-0.223525
H340	H	1.106790	0.283896	0.276475
H341	H	0.506540	-0.208042	-0.323282
H342	H	1.006540	0.291958	0.176718
H343	H	0.508950	-0.249039	-0.265843
H344	H	1.008950	0.250961	0.234157
H345	H	0.499593	-0.185186	-0.183741
H346	H	0.999593	0.314814	0.316259
H347	H	0.497162	-0.144187	-0.241189
H348	H	0.997162	0.355813	0.258811
H349	H	0.436545	-0.182062	-0.234776
H350	H	0.936545	0.317938	0.265224
C351	C	0.854335	-0.851963	-0.513375
C352	C	1.354335	-0.351963	-0.013375
C353	C	0.813379	-0.816259	-0.550933
C354	C	1.313379	-0.316259	-0.050933
C355	C	0.766581	-0.843338	-0.593923
C356	C	1.266581	-0.343338	-0.093923
H357	H	0.824888	-0.871474	-0.485317
H358	H	1.324888	-0.371474	0.014683
H359	H	0.879823	-0.875035	-0.545130
H360	H	1.379823	-0.375035	-0.045130
H361	H	0.787893	-0.793196	-0.519183
H362	H	1.287893	-0.293196	-0.019183
H363	H	0.842807	-0.796746	-0.579005
H364	H	1.342807	-0.296746	-0.079005
H365	H	0.792069	-0.866410	-0.625678
H366	H	1.292069	-0.366410	-0.125678
H367	H	0.737139	-0.862849	-0.565860
H368	H	1.237139	-0.362849	-0.065860
H369	H	0.738792	-0.819117	-0.619416
H370	H	1.238792	-0.319117	-0.119416
H371	H	0.905819	-0.361775	-0.644995
H372	H	1.405819	0.138225	-0.144995
C373	C	0.901025	-0.487025	-0.470309
C374	C	1.401025	0.012975	0.029691
C375	C	0.911030	-0.433387	-0.461130
C376	C	1.411030	0.066613	0.038870
C377	C	0.864335	-0.405862	-0.503991
C378	C	1.364335	0.094138	-0.003991
H379	H	0.854338	-0.494073	-0.458050
H380	H	1.354338	0.005927	0.041950
H381	H	0.909260	-0.497685	-0.517875
H382	H	1.409260	0.002315	-0.017875
H383	H	0.902790	-0.422731	-0.413574
H384	H	1.402790	0.077269	0.086426
H385	H	0.957708	-0.426323	-0.473393
H386	H	1.457708	0.073677	0.026607
H387	H	0.872570	-0.416522	-0.551557
H388	H	1.372570	0.083478	-0.051557
H389	H	0.817651	-0.412914	-0.491729
H390	H	1.317651	0.087086	0.008271
H391	H	0.871121	-0.369467	-0.497774
H392	H	1.371121	0.130533	0.002226
H393	H	0.489010	-0.250426	-0.322720
H394	H	0.989010	0.249574	0.177280
C395	C	1.143052	-0.852657	-0.248553
C396	C	1.643052	-0.352657	0.251447
C397	C	1.183977	-0.817148	-0.210986
C398	C	1.683977	-0.317148	0.289014
C399	C	1.230801	-0.844447	-0.168005
C400	C	1.730801	-0.344447	0.331995
H401	H	1.172516	-0.875756	-0.276618
H402	H	1.672516	-0.375756	0.223382
H403	H	1.117584	-0.872159	-0.216803
H404	H	1.617584	-0.372159	0.283197
H405	H	1.209443	-0.797654	-0.242732
H406	H	1.709443	-0.297654	0.257268
H407	H	1.154531	-0.794049	-0.182908
H408	H	1.654531	-0.294049	0.317092
H409	H	1.205332	-0.863949	-0.136255
H410	H	1.705332	-0.363949	0.363745
H411	H	1.260260	-0.867544	-0.196076
H412	H	1.760260	-0.367544	0.303924
H413	H	1.258569	-0.820358	-0.142506
H414	H	1.758569	-0.320358	0.357494
C415	C	1.096141	-0.487681	-0.291422
C416	C	1.596141	0.012319	0.208578
C417	C	1.137133	-0.523380	-0.253892
C418	C	1.637133	-0.023380	0.246108
C419	C	1.183990	-0.496298	-0.210974
C420	C	1.683990	0.003702	0.289026
H421	H	1.070719	-0.464596	-0.259645
H422	H	1.570719	0.035404	0.240355
H423	H	1.125554	-0.468183	-0.319550
H424	H	1.625554	0.031817	0.180450
H425	H	1.107724	-0.542869	-0.225767
H426	H	1.607724	-0.042869	0.274233
H427	H	1.162570	-0.546466	-0.285652
H428	H	1.662570	-0.046466	0.214348
H429	H	1.213402	-0.476801	-0.239102
H430	H	1.713402	0.023199	0.260898
H431	H	1.158562	-0.473215	-0.179201
H432	H	1.658562	0.026785	0.320799
H433	H	1.211812	-0.520517	-0.185510
H434	H	1.711812	-0.020517	0.314490
H435	H	1.057043	-0.254095	-0.871348
H436	H	1.557043	0.245905	-0.371348
H437	H	1.083432	-0.594021	-0.303108
H438	H	1.583432	-0.094021	0.196892
C439	C	1.096391	-0.990038	-0.291508
C440	C	1.596391	-0.490038	0.208492
C441	C	1.137375	-1.025740	-0.253974
C442	C	1.637375	-0.525740	0.246026
C443	C	1.184235	-0.998661	-0.211056
C444	C	1.684235	-0.498661	0.288944
H445	H	1.070971	-0.966950	-0.259733
H446	H	1.570971	-0.466950	0.240267
H447	H	1.125808	-0.970544	-0.319635
H448	H	1.625808	-0.470544	0.180365
H449	H	1.107962	-1.045225	-0.225849
H450	H	1.607962	-0.545225	0.274151
H451	H	1.162810	-1.048829	-0.285731
H452	H	1.662810	-0.548829	0.214269
H453	H	1.213652	-0.979167	-0.239183
H454	H	1.713652	-0.479167	0.260817
H455	H	1.158809	-0.975574	-0.179285
H456	H	1.658809	-0.475574	0.320715
H457	H	1.212052	-1.022880	-0.185589
H458	H	1.712052	-0.522880	0.314411
C459	C	1.096390	-1.103931	-0.291689
C460	C	1.596390	-0.603931	0.208311
C461	C	1.086434	-1.157572	-0.300922
C462	C	1.586434	-0.657572	0.199078
C463	C	1.133269	-1.185106	-0.258212
C464	C	1.633269	-0.685106	0.241788
H465	H	1.088271	-1.093331	-0.244093
H466	H	1.588271	-0.593331	0.255907
H467	H	1.143037	-1.096828	-0.304060
H468	H	1.643037	-0.596828	0.195940
H469	H	1.039798	-1.164672	-0.288546
H470	H	1.539798	-0.664672	0.211454
H471	H	1.094558	-1.168188	-0.348509
H472	H	1.594558	-0.668188	0.151491
H473	H	1.179916	-1.178003	-0.270584
H474	H	1.679916	-0.678003	0.229416
H475	H	1.125146	-1.174502	-0.210619
H476	H	1.625146	-0.674502	0.289381
H477	H	1.126525	-1.221505	-0.264476
H478	H	1.626525	-0.721505	0.235524
H479	H	0.940307	-0.337219	-0.891213
H480	H	1.440307	0.162781	-0.391213
H481	H	1.062987	-0.249882	-0.784827
H482	H	1.562987	0.250118	-0.284827
