data_functionalizedCrystal
_audit_creation_method	'MofGen! by Chris Wilmer'
_symmetry_space_group_name_H-M	'P1'
_symmetry_Int_Tables_number	1
_symmetry_cell_setting	triclinic
loop_
_symmetry_equiv_pos_as_xyz
  x,y,z
_cell_length_a	10.723023
_cell_length_b	10.723023
_cell_length_c	15.186229
_cell_angle_alpha	89.997261
_cell_angle_beta	89.996782
_cell_angle_gamma	84.467548
loop_
_atom_site_label
_atom_site_type_symbol
_atom_site_fract_x
_atom_site_fract_y
_atom_site_fract_z
O1	O	1.657187	0.175021	-0.073224
O2	O	1.294034	0.191775	-0.073226
O3	O	1.483988	0.001822	-0.073221
O4	O	1.467233	0.364974	-0.073229
O5	O	1.483975	0.001819	0.073236
O6	O	1.294021	0.191773	0.073231
O7	O	1.657174	0.175018	0.073233
Zn8	Zn	1.475596	0.183395	0.096485
Zn9	Zn	1.475612	0.183399	-0.096478
O10	O	1.467220	0.364972	0.073228
C11	C	1.247528	0.190555	0.000002
C12	C	1.108974	0.186908	0.000001
C13	C	0.903999	0.181511	0.075867
C14	C	1.047202	0.185280	0.075870
C15	C	1.482762	-0.044679	0.000006
C16	C	1.479115	-0.183233	0.000003
C17	C	1.477496	-0.244998	-0.075867
C18	C	1.473726	-0.388201	-0.075872
C19	C	1.703680	0.176239	0.000003
C20	C	1.842234	0.179886	-0.000002
C21	C	1.468446	0.411473	-0.000001
C22	C	1.472093	0.550027	-0.000004
N23	N	1.475593	0.183392	0.228178
N24	N	1.475625	0.183392	-0.228171
C25	C	1.559734	0.099309	0.453903
C26	C	1.559738	0.099306	0.546093
C27	C	1.391475	0.267479	0.546098
C28	C	1.391466	0.267474	0.453910
C29	C	1.475602	0.183391	0.407815
C30	C	1.475615	0.183392	0.592192
C31	C	1.475619	0.183390	0.692148
C32	C	1.475598	0.183392	0.307852
H33	H	1.100319	0.186672	0.140825
H34	H	1.472339	-0.441317	-0.140827
N35	N	1.038632	0.185065	-0.086046
H36	H	1.099537	0.186669	-0.136676
H37	H	0.994068	0.106416	-0.089475
H38	H	1.322950	0.335945	0.416382
N39	N	0.912612	0.181725	-0.086044
H40	H	0.851719	0.180120	-0.136676
H41	H	0.957180	0.260371	-0.089477
H42	H	0.850860	0.180117	0.140820
N43	N	1.479194	-0.174606	-0.161909
H44	H	1.481572	-0.082275	-0.149710
H45	H	1.555777	-0.206679	-0.196869
H46	H	1.628243	0.030838	0.583615
N47	N	1.473948	-0.379630	0.086043
H48	H	1.398149	-0.316154	0.089555
H49	H	1.472388	-0.440616	0.136623
N50	N	1.477262	-0.253614	0.086043
H51	H	1.555078	-0.240477	0.120965
H52	H	1.400582	-0.221539	0.120899
N53	N	1.650474	0.008623	0.404184
H54	H	1.703769	-0.044644	0.447374
H55	H	1.602227	-0.046983	0.365942
N56	N	1.300732	0.358165	0.595814
H57	H	1.313504	0.345413	0.661209
H58	H	1.315900	0.446825	0.579693
