data_functionalizedCrystal
_audit_creation_method	'MofGen! by Chris Wilmer'
_symmetry_space_group_name_H-M	'P1'
_symmetry_Int_Tables_number	1
_symmetry_cell_setting	triclinic
loop_
_symmetry_equiv_pos_as_xyz
  x,y,z
_cell_length_a	21.395362
_cell_length_b	17.077402
_cell_length_c	17.077396
_cell_angle_alpha	90.029784
_cell_angle_beta	89.961012
_cell_angle_gamma	89.961239
loop_
_atom_site_label
_atom_site_type_symbol
_atom_site_fract_x
_atom_site_fract_y
_atom_site_fract_z
Zn1	Zn	0.957863	0.312175	-0.444244
Zn2	Zn	1.291196	0.645509	-0.110911
Zn3	Zn	1.624530	0.978842	0.222423
Zn4	Zn	0.957789	0.443450	-0.312975
Zn5	Zn	1.291122	0.776784	0.020358
Zn6	Zn	1.624455	1.110117	0.353692
Zn7	Zn	0.853087	0.312239	-0.312947
Zn8	Zn	1.186420	0.645572	0.020386
Zn9	Zn	1.519754	0.978905	0.353719
Zn10	Zn	0.853061	0.443440	-0.444154
Zn11	Zn	1.186395	0.776773	-0.110821
Zn12	Zn	1.519728	1.110106	0.222513
O13	O	0.905450	0.377826	-0.378580
O14	O	1.238783	0.711159	-0.045247
O15	O	1.572117	1.044493	0.288087
O16	O	1.045531	0.329567	-0.426880
O17	O	1.378864	0.662901	-0.093547
O18	O	1.712198	0.996234	0.239787
O19	O	0.943880	0.426076	-0.203124
O20	O	1.277213	0.759409	0.130209
O21	O	1.610546	1.092742	0.463542
O22	O	0.867027	0.202383	-0.330390
O23	O	1.200361	0.535717	0.002943
O24	O	1.533694	0.869050	0.336277
O25	O	1.045477	0.426014	-0.330437
O26	O	1.378810	0.759348	0.002896
O27	O	1.712143	1.092681	0.336229
O28	O	0.944006	0.202337	-0.426853
O29	O	1.277339	0.535670	-0.093520
O30	O	1.610673	0.869003	0.239813
O31	O	0.866956	0.329675	-0.203104
O32	O	1.200289	0.663009	0.130229
O33	O	1.533622	0.996342	0.463563
O34	O	0.765406	0.329665	-0.330303
O35	O	1.098739	0.662998	0.003031
O36	O	1.432072	0.996332	0.336364
O37	O	0.866984	0.425996	-0.554013
O38	O	1.200317	0.759329	-0.220679
O39	O	1.533651	1.092663	0.112654
O40	O	0.765387	0.426058	-0.426700
O41	O	1.098720	0.759391	-0.093366
O42	O	1.432054	1.092724	0.239967
O43	O	0.943981	0.329557	-0.554079
O44	O	1.277314	0.662890	-0.220746
O45	O	1.610648	0.996223	0.112588
O46	O	0.943855	0.553296	-0.330350
O47	O	1.277188	0.886629	0.002983
O48	O	1.610521	1.219962	0.336317
O49	O	0.866912	0.553288	-0.426727
O50	O	1.200245	0.886621	-0.093393
O51	O	1.533579	1.219955	0.239940
C52	C	0.905390	0.581774	-0.378549
C53	C	1.238723	0.915107	-0.045215
C54	C	1.572056	1.248441	0.288118
C55	C	0.905421	0.669024	-0.378561
C56	C	1.238754	1.002357	-0.045228
C57	C	1.572088	1.335690	0.288105
C58	C	0.742662	0.377868	-0.378489
C59	C	1.075996	0.711201	-0.045156
C60	C	1.409329	1.044534	0.288178
C61	C	0.673021	0.377904	-0.378469
C62	C	1.006354	0.711238	-0.045135
C63	C	1.339688	1.044571	0.288198
C64	C	0.905488	0.377768	-0.583324
C65	C	1.238821	0.711101	-0.249991
C66	C	1.572155	1.044435	0.083342
C67	C	0.905504	0.377743	-0.670574
C68	C	1.238837	0.711077	-0.337241
C69	C	1.572171	1.044410	-0.003908
C70	C	0.640315	0.428162	-0.428587
C71	C	0.973648	0.761496	-0.095254
C72	C	1.306981	1.094829	0.238079
C73	C	0.574879	0.428143	-0.428622
C74	C	0.908213	0.761476	-0.095289
C75	C	1.241546	1.094810	0.238044
C76	C	0.542153	0.377874	-0.378524
C77	C	0.875486	0.711207	-0.045191
C78	C	1.208819	1.044541	0.288142
C79	C	0.574867	0.327606	-0.328402
C80	C	0.908200	0.660939	0.004931
C81	C	1.241534	0.994273	0.338264
C82	C	0.640301	0.327621	-0.328374
C83	C	0.973635	0.660954	0.004959
C84	C	1.306968	0.994288	0.338292
C85	C	0.438432	0.371565	-0.307857
C86	C	0.771766	0.704898	0.025476
C87	C	1.105099	1.038231	0.358809
C88	C	0.372999	0.371555	-0.307884
C89	C	0.706333	0.704888	0.025449
C90	C	1.039666	1.038222	0.358783
C91	C	0.340332	0.377823	-0.378611
C92	C	0.673665	0.711156	-0.045278
C93	C	1.006999	1.044489	0.288055
C94	C	0.373106	0.384116	-0.449314
C95	C	0.706439	0.717450	-0.115981
C96	C	1.039773	1.050783	0.217353
C97	C	0.438540	0.384132	-0.449286
C98	C	0.771873	0.717465	-0.115953
C99	C	1.105207	1.050798	0.217381
C100	C	0.471200	0.377852	-0.378550
C101	C	0.804534	0.711185	-0.045216
C102	C	1.137867	1.044518	0.288117
C103	C	0.236673	0.428063	-0.428772
C104	C	0.570006	0.761396	-0.095439
C105	C	0.903340	1.094729	0.237895
C106	C	0.171236	0.428038	-0.428808
C107	C	0.504570	0.761371	-0.095475
C108	C	0.837903	1.094705	0.237858
C109	C	0.171226	0.327505	-0.328581
C110	C	0.504559	0.660838	0.004752
C111	C	0.837892	0.994172	0.338085
C112	C	0.236661	0.327526	-0.328552
C113	C	0.569994	0.660859	0.004781
C114	C	0.903328	0.994192	0.338115
C115	C	0.269381	0.377809	-0.378646
C116	C	0.602714	0.711142	-0.045313
C117	C	0.936047	1.044475	0.288020
C118	C	1.068873	0.377785	-0.378672
C119	C	1.402207	0.711118	-0.045339
C120	C	1.735540	1.044452	0.287995
C121	C	1.138515	0.377767	-0.378711
C122	C	1.471848	0.711101	-0.045378
C123	C	1.805181	1.044434	0.287956
C124	C	0.905528	0.173082	-0.378629
C125	C	1.238861	0.506415	-0.045295
C126	C	1.572194	0.839748	0.288038
C127	C	0.905561	0.085832	-0.378649
C128	C	1.238894	0.419165	-0.045316
C129	C	1.572228	0.752498	0.288017
C130	C	0.945526	0.709992	-0.328432
C131	C	1.278859	1.043325	0.004901
C132	C	1.612193	1.376659	0.338235
C133	C	0.945557	0.791972	-0.328452
C134	C	1.278890	1.125306	0.004881
C135	C	1.612223	1.458639	0.338215
C136	C	0.905479	0.832983	-0.378598
C137	C	1.238812	1.166316	-0.045265
C138	C	1.572145	1.499650	0.288068
C139	C	0.865372	0.792009	-0.428733
C140	C	1.198705	1.125342	-0.095400
C141	C	1.532039	1.458676	0.237934
C142	C	0.865345	0.710030	-0.428716
C143	C	1.198678	1.043364	-0.095383
C144	C	1.532011	1.376697	0.237950
C145	C	0.865430	0.962879	-0.428763
C146	C	1.198763	1.296212	-0.095430
C147	C	1.532097	1.629546	0.237904
C148	C	0.865456	1.044864	-0.428779
C149	C	1.198789	1.378197	-0.095445
C150	C	1.532123	1.711530	0.237888
C151	C	0.945642	1.044821	-0.328499
C152	C	1.278975	1.378154	0.004835
C153	C	1.612308	1.711488	0.338168
C154	C	0.945615	0.962842	-0.328482
C155	C	1.278948	1.296176	0.004851
C156	C	1.612281	1.629509	0.338185
C157	C	0.905507	0.921874	-0.378616
C158	C	1.238840	1.255207	-0.045283
C159	C	1.572174	1.588541	0.288051
C160	C	0.945598	0.327523	-0.711600
C161	C	1.278931	0.660857	-0.378267
C162	C	1.612265	0.994190	-0.044933
C163	C	0.945606	0.327497	-0.793581
C164	C	1.278939	0.660831	-0.460247
C165	C	1.612272	0.994164	-0.126914
C166	C	0.905522	0.377696	-0.834534
C167	C	1.238855	0.711029	-0.501200
C168	C	1.572189	1.044362	-0.167867
C169	C	0.865423	0.427918	-0.793502
C170	C	1.198757	0.761251	-0.460169
C171	C	1.532090	1.094585	-0.126835
C172	C	0.865413	0.427940	-0.711523
C173	C	1.198747	0.761273	-0.378190
C174	C	1.532080	1.094606	-0.044856
C175	C	0.865449	0.427871	-0.964372
C176	C	1.198782	0.761204	-0.631039
C177	C	1.532115	1.094538	-0.297706
C178	C	0.865460	0.427851	-1.046357
C179	C	1.198793	0.761184	-0.713024
C180	C	1.532126	1.094517	-0.379690
C181	C	0.945641	0.327428	-1.046430
C182	C	1.278974	0.660762	-0.713096
C183	C	1.612308	0.994095	-0.379763
C184	C	0.945631	0.327450	-0.964451
C185	C	1.278964	0.660783	-0.631117
C186	C	1.612297	0.994117	-0.297784
C187	C	0.905533	0.377674	-0.923425
C188	C	1.238866	0.711007	-0.590091
C189	C	1.572200	1.044340	-0.256758
C190	C	0.905448	0.377827	-0.174632
C191	C	1.238782	0.711160	0.158701
C192	C	1.572115	1.044494	0.492035
C193	C	0.905554	0.377630	-0.087383
C194	C	1.238887	0.710964	0.245951
C195	C	1.572220	1.044297	0.579284
H196	H	0.666951	0.469106	-0.469379
H197	H	1.000284	0.802439	-0.136046
H198	H	1.333618	1.135772	0.197288
C199	C	0.989614	0.664888	-0.273265
C200	C	1.322948	0.998221	0.060069
C201	C	1.656281	1.331554	0.393402
N202	N	1.022825	0.630917	-0.231713
N203	N	1.356158	0.964251	0.101621
N204	N	1.689491	1.297584	0.434954
C205	C	0.821308	0.483187	-0.666395
C206	C	1.154641	0.816520	-0.333062
C207	C	1.487975	1.149854	0.000272
N208	N	0.788085	0.524800	-0.632406
N209	N	1.121418	0.858133	-0.299072
N210	N	1.454752	1.191466	0.034261
H211	H	0.832688	0.676675	-0.469538
H212	H	1.166021	1.010008	-0.136205
H213	H	1.499355	1.343341	0.197129
C214	C	0.538867	0.272310	-0.273295
C215	C	0.872200	0.605643	0.060039
C216	C	1.205534	0.938976	0.393372
N217	N	0.511751	0.230657	-0.231787
N218	N	0.845085	0.563991	0.101546
N219	N	1.178418	0.897324	0.434879
C220	C	0.989671	0.837034	-0.273301
C221	C	1.323005	1.170367	0.060033
C222	C	1.656338	1.503700	0.393366
N223	N	1.022900	0.870973	-0.231757
N224	N	1.356233	1.204307	0.101576
N225	N	1.689566	1.537640	0.434910
C226	C	0.821375	1.089974	-0.483950
C227	C	1.154708	1.423307	-0.150617
C228	C	1.488041	1.756641	0.182716
N229	N	0.788174	1.123951	-0.525509
N230	N	1.121507	1.457284	-0.192175
N231	N	1.454841	1.790618	0.141158
C232	C	0.336954	0.364626	-0.230111
C233	C	0.670288	0.697960	0.103223
C234	C	1.003621	1.031293	0.436556
N235	N	0.309807	0.359403	-0.171530
N236	N	0.643140	0.692737	0.161804
N237	N	0.976474	1.026070	0.495137
C238	C	0.989766	1.089888	-0.273357
C239	C	1.323099	1.423221	0.059976
C240	C	1.656433	1.756554	0.393310
N241	N	1.022999	1.123835	-0.231826
N242	N	1.356332	1.457169	0.101507
N243	N	1.689666	1.790502	0.434841
H244	H	0.832742	0.825407	-0.469566
H245	H	1.166076	1.158740	-0.136233
H246	H	1.499409	1.492073	0.197100
H247	H	0.263315	0.469002	-0.469566
H248	H	0.596648	0.802335	-0.136232
H249	H	0.929982	1.135669	0.197101
C250	C	0.135259	0.483336	-0.483939
C251	C	0.468593	0.816669	-0.150606
C252	C	0.801926	1.150002	0.182727
N253	N	0.108161	0.524991	-0.525461
N254	N	0.441494	0.858324	-0.192128
N255	N	0.774828	1.191657	0.141205
H256	H	0.832772	0.929525	-0.469590
H257	H	1.166105	1.262859	-0.136257
H258	H	1.499439	1.596192	0.197076
C259	C	0.538895	0.483436	-0.483756
C260	C	0.872228	0.816769	-0.150423
C261	C	1.205561	1.150102	0.182910
N262	N	0.511793	0.525084	-0.525282
N263	N	0.845127	0.858417	-0.191949
N264	N	1.178460	1.191750	0.141384
C265	C	0.676280	0.272335	-0.273233
C266	C	1.009613	0.605668	0.060100
C267	C	1.342946	0.939002	0.393433
N268	N	0.703379	0.230694	-0.231698
N269	N	1.036713	0.564028	0.101635
N270	N	1.370046	0.897361	0.434969
C271	C	0.989693	0.272299	-0.666559
C272	C	1.323027	0.605633	-0.333226
C273	C	1.656360	0.938966	0.000107
N274	N	1.022905	0.230700	-0.632637
N275	N	1.356239	0.564033	-0.299303
N276	N	1.689572	0.897367	0.034030
C277	C	0.135230	0.272207	-0.273473
C278	C	0.468564	0.605541	0.059860
C279	C	0.801897	0.938874	0.393193
N280	N	0.108116	0.230555	-0.231966
N281	N	0.441449	0.563888	0.101368
N282	N	0.774782	0.897222	0.434701
C283	C	0.989713	0.272252	-0.838705
C284	C	1.323047	0.605586	-0.505372
C285	C	1.656380	0.938919	-0.172039
N286	N	1.022937	0.230640	-0.872693
N287	N	1.356270	0.563973	-0.539360
N288	N	1.689604	0.897306	-0.206026
C289	C	0.474589	0.391054	-0.527057
C290	C	0.807922	0.724387	-0.193724
C291	C	1.141255	1.057720	0.139610
N292	N	0.501740	0.396266	-0.585636
N293	N	0.835074	0.729600	-0.252302
N294	N	1.168407	1.062933	0.081031
H295	H	0.263291	0.286604	-0.287736
H296	H	0.596624	0.619937	0.045597
H297	H	0.929958	0.953270	0.378931
H298	H	0.978246	0.929451	-0.287645
H299	H	1.311579	1.262785	0.045688
H300	H	1.644913	1.596118	0.379021
C301	C	0.989749	0.272181	-1.091560
C302	C	1.323082	0.605515	-0.758227
C303	C	1.656415	0.938848	-0.424893
N304	N	1.022971	0.230573	-1.125555
N305	N	1.356304	0.563907	-0.792222
N306	N	1.689638	0.897240	-0.458889
C307	C	0.821362	0.483067	-1.091404
C308	C	1.154695	0.816400	-0.758070
C309	C	1.488028	1.149733	-0.424737
N310	N	0.788145	0.524655	-1.125333
N311	N	1.121479	0.857988	-0.792000
N312	N	1.454812	1.191322	-0.458666
H313	H	0.978274	0.286578	-0.931109
H314	H	1.311607	0.619912	-0.597776
H315	H	1.644941	0.953245	-0.264442
H316	H	0.832787	0.468756	-0.930971
H317	H	1.166120	0.802089	-0.597638
H318	H	1.499454	1.135423	-0.264305
C319	C	0.821325	0.483129	-0.838554
C320	C	1.154658	0.816463	-0.505220
C321	C	1.487991	1.149796	-0.171887
N322	N	0.788108	0.524715	-0.872485
N323	N	1.121442	0.858049	-0.539152
N324	N	1.454775	1.191382	-0.205819
C325	C	0.337177	0.391008	-0.527121
C326	C	0.670510	0.724342	-0.193787
C327	C	1.003844	1.057675	0.139546
N328	N	0.310112	0.396200	-0.585723
N329	N	0.643446	0.729533	-0.252389
N330	N	0.976779	1.062866	0.080944
C331	C	0.474360	0.364673	-0.230046
C332	C	0.807693	0.698006	0.103287
C333	C	1.141026	1.031339	0.436620
N334	N	0.501419	0.359483	-0.171441
N335	N	0.834752	0.692817	0.161892
N336	N	1.168086	1.026150	0.495226
