data_functionalizedCrystal
_audit_creation_method	'MofGen! by Chris Wilmer'
_symmetry_space_group_name_H-M	'P1'
_symmetry_Int_Tables_number	1
_symmetry_cell_setting	triclinic
loop_
_symmetry_equiv_pos_as_xyz
  x,y,z
_cell_length_a	14.044202
_cell_length_b	12.503572
_cell_length_c	14.044190
_cell_angle_alpha	86.160597
_cell_angle_beta	86.807761
_cell_angle_gamma	86.162225
loop_
_atom_site_label
_atom_site_type_symbol
_atom_site_fract_x
_atom_site_fract_y
_atom_site_fract_z
O1	O	-1.282214	0.089288	0.225155
O2	O	-1.005542	0.089301	0.216840
O3	O	-1.139721	0.089274	0.082662
O4	O	-1.148036	0.089316	0.359333
O5	O	-1.129631	-0.089366	0.092772
O6	O	-0.995453	-0.089339	0.226949
O7	O	-1.272125	-0.089352	0.235265
Cu8	Cu	-1.132868	-0.105656	0.232030
Cu9	Cu	-1.144800	0.105606	0.220075
O10	O	-1.137946	-0.089324	0.369442
C11	C	-0.964876	-0.000017	0.218257
C12	C	-0.858733	-0.000013	0.207409
C13	C	-0.613276	-0.000015	0.264508
C14	C	-0.664399	-0.000025	0.187592
C15	C	-0.772536	-0.000018	0.198621
C16	C	-0.505128	-0.000021	0.253480
N17	N	-1.124482	-0.254247	0.240439
C18	C	-1.112148	-0.473360	0.252816
C19	C	-1.165524	-0.526698	0.199284
C20	C	-1.158661	-0.648620	0.206171
C21	C	-1.119010	-0.351427	0.245930
C22	C	-0.312792	-0.000031	0.233845
C23	C	-0.418936	-0.000026	0.244687
C24	C	-1.131039	-0.000049	0.052095
C25	C	-1.120192	-0.000058	-0.054048
N26	N	-1.153192	0.254196	0.211659
C27	C	-1.177294	-0.000019	-0.299507
C28	C	-1.100378	-0.000022	-0.248384
C29	C	-1.111405	-0.000042	-0.140245
C30	C	-1.166269	0.000001	-0.407655
C31	C	-1.146628	0.000001	0.400009
C32	C	-1.157476	0.000017	0.506152
H33	H	-0.650719	-0.000000	0.338634
Br34	Br	-0.601991	-0.000046	0.064032
H35	H	-1.026245	-0.000013	-0.285830
Br36	Br	-1.250717	-0.450198	0.114714
Br37	Br	-1.027397	-0.549860	0.337821
H38	H	-1.251420	-0.000033	-0.262062
