data_functionalizedCrystal
_audit_creation_method	'MofGen! by Chris Wilmer'
_symmetry_space_group_name_H-M	'P1'
_symmetry_Int_Tables_number	1
_symmetry_cell_setting	triclinic
loop_
_symmetry_equiv_pos_as_xyz
  x,y,z
_cell_length_a	16.625545
_cell_length_b	18.215407
_cell_length_c	18.215399
_cell_angle_alpha	89.980167
_cell_angle_beta	90.026887
_cell_angle_gamma	89.973994
loop_
_atom_site_label
_atom_site_type_symbol
_atom_site_fract_x
_atom_site_fract_y
_atom_site_fract_z
Zn1	Zn	-0.321000	-1.125069	0.416121
Zn2	Zn	-0.455841	-1.124975	0.293057
Zn3	Zn	-0.321027	-1.002001	0.293069
Zn4	Zn	-0.455796	-1.001966	0.416082
O5	O	-0.388416	-1.063503	0.354582
O6	O	-0.338895	-1.228040	0.399808
O7	O	-0.437987	-1.108639	0.190074
O8	O	-0.208191	-1.018380	0.309413
O9	O	-0.437961	-1.227972	0.309394
O10	O	-0.208171	-1.108797	0.399819
O11	O	-0.338940	-1.018290	0.190083
O12	O	-0.338896	-0.899012	0.309375
O13	O	-0.437885	-1.018319	0.519072
O14	O	-0.437910	-0.898986	0.399753
O15	O	-0.338851	-1.108763	0.519100
O16	O	-0.568667	-1.108604	0.309356
O17	O	-0.568634	-1.018229	0.399742
C18	C	-0.388402	-0.872296	0.354561
C19	C	-0.388415	-0.790497	0.354570
C20	C	-0.597907	-1.063423	0.354559
C21	C	-0.687528	-1.063456	0.354574
C22	C	-0.760310	-1.063484	0.354589
C23	C	-0.851619	-1.063527	0.354605
C24	C	-0.924395	-1.063565	0.354614
C25	C	-1.015709	-1.063608	0.354629
C26	C	-0.388360	-1.063547	0.546535
C27	C	-0.388336	-1.063567	0.628334
C28	C	-0.178107	-1.063603	0.354622
C29	C	-0.088486	-1.063646	0.354639
C30	C	-0.388430	-1.255456	0.354604
C31	C	-0.388436	-1.337254	0.354613
C32	C	-0.440053	-0.602309	0.401570
C33	C	-0.440056	-0.525450	0.401579
C34	C	-0.336793	-0.525448	0.307611
C35	C	-0.336787	-0.602305	0.307606
C36	C	-0.388422	-0.640734	0.354584
C37	C	-0.388430	-0.487018	0.354598
C38	C	-0.388433	-0.403684	0.354608
C39	C	-0.388418	-0.724073	0.354576
C40	C	-0.388413	-1.063500	0.163376
C41	C	-0.388210	-1.063624	0.081578
C42	C	-0.336721	-1.110677	0.816544
C43	C	-0.336698	-1.110686	0.893403
C44	C	-0.439827	-1.016508	0.893362
C45	C	-0.439846	-1.016496	0.816505
C46	C	-0.388294	-1.063585	0.778098
C47	C	-0.388252	-1.063606	0.931814
C48	C	-0.388227	-1.063615	1.015148
C49	C	-0.388318	-1.063575	0.694759
H50	H	-0.482098	-0.494168	0.439841
O51	O	-0.286756	-0.488082	0.261898
C52	C	-0.332598	-0.443575	0.214308
H53	H	-0.396094	-0.466714	0.209658
H54	H	-0.303355	-0.442687	0.157720
H55	H	-0.335414	-0.385335	0.237064
H56	H	-0.294737	-0.633592	0.269344
O57	O	-0.286565	-1.156436	0.779349
C58	C	-0.241055	-1.198014	0.829769
H59	H	-0.238251	-1.167880	0.884550
H60	H	-0.177531	-1.205888	0.807579
H61	H	-0.270579	-1.253896	0.837947
H62	H	-0.482096	-0.633595	0.439825
H63	H	-0.294701	-1.149032	0.924703
H64	H	-0.481800	-0.978171	0.924642
O65	O	-0.490024	-0.970725	0.779267
C66	C	-0.535512	-0.929158	0.829644
H67	H	-0.538295	-0.959307	0.884437
H68	H	-0.599044	-0.921277	0.807419
H69	H	-0.505981	-0.873279	0.837813
