data_functionalizedCrystal
_audit_creation_method	'MofGen! by Chris Wilmer'
_symmetry_space_group_name_H-M	'P1'
_symmetry_Int_Tables_number	1
_symmetry_cell_setting	triclinic
loop_
_symmetry_equiv_pos_as_xyz
  x,y,z
_cell_length_a	13.897449
_cell_length_b	21.295417
_cell_length_c	13.897441
_cell_angle_alpha	90.036423
_cell_angle_beta	90.023394
_cell_angle_gamma	90.031333
loop_
_atom_site_label
_atom_site_type_symbol
_atom_site_fract_x
_atom_site_fract_y
_atom_site_fract_z
Zn1	Zn	1.474617	-0.250575	0.545411
Zn2	Zn	1.724617	-0.000575	0.795411
Zn3	Zn	1.974617	0.249425	1.045411
Zn4	Zn	2.224617	0.499425	1.295411
Zn5	Zn	1.474475	-0.355854	0.384096
Zn6	Zn	1.724475	-0.105854	0.634096
Zn7	Zn	1.974475	0.144146	0.884096
Zn8	Zn	2.224475	0.394146	1.134096
Zn9	Zn	1.313306	-0.250604	0.384121
Zn10	Zn	1.563306	-0.000604	0.634121
Zn11	Zn	1.813306	0.249396	0.884121
Zn12	Zn	2.063306	0.499396	1.134121
Zn13	Zn	1.313252	-0.355812	0.545341
Zn14	Zn	1.563252	-0.105812	0.795341
Zn15	Zn	1.813252	0.144188	1.045341
Zn16	Zn	2.063252	0.394188	1.295341
O17	O	1.393912	-0.303211	0.464742
O18	O	1.643912	-0.053211	0.714742
O19	O	1.893912	0.196789	0.964742
O20	O	2.143912	0.446789	1.214742
O21	O	1.609580	-0.264546	0.524030
O22	O	1.859580	-0.014546	0.774030
O23	O	2.109580	0.235454	1.024030
O24	O	2.359580	0.485454	1.274030
O25	O	1.453059	-0.341922	0.249117
O26	O	1.703059	-0.091922	0.499117
O27	O	1.953059	0.158078	0.749117
O28	O	2.203059	0.408078	0.999117
O29	O	1.334786	-0.162511	0.405557
O30	O	1.584786	0.087489	0.655557
O31	O	1.834786	0.337489	0.905557
O32	O	2.084786	0.587489	1.155557
O33	O	1.609475	-0.341894	0.405513
O34	O	1.859475	-0.091894	0.655513
O35	O	2.109475	0.158106	0.905513
O36	O	2.359475	0.408106	1.155513
O37	O	1.453301	-0.162490	0.524055
O38	O	1.703301	0.087510	0.774055
O39	O	1.953301	0.337510	1.024055
O40	O	2.203301	0.587510	1.274055
O41	O	1.334649	-0.264596	0.249136
O42	O	1.584649	-0.014596	0.499136
O43	O	1.834649	0.235404	0.749136
O44	O	2.084649	0.485404	0.999136
O45	O	1.178317	-0.264555	0.405489
O46	O	1.428317	-0.014555	0.655489
O47	O	1.678317	0.235445	0.905489
O48	O	1.928317	0.485445	1.155489
O49	O	1.334694	-0.341822	0.680332
O50	O	1.584694	-0.091822	0.930332
O51	O	1.834694	0.158178	1.180332
O52	O	2.084694	0.408178	1.430332
O53	O	1.178277	-0.341851	0.523936
O54	O	1.428277	-0.091851	0.773936
O55	O	1.678277	0.158149	1.023936
O56	O	1.928277	0.408149	1.273936
O57	O	1.453248	-0.264505	0.680383
O58	O	1.703248	-0.014505	0.930383
O59	O	1.953248	0.235495	1.180383
O60	O	2.203248	0.485495	1.430383
O61	O	1.453006	-0.443938	0.405445
O62	O	1.703006	-0.193938	0.655445
O63	O	1.953006	0.056062	0.905445
O64	O	2.203006	0.306062	1.155445
O65	O	1.334556	-0.443907	0.523911
O66	O	1.584556	-0.193907	0.773911
O67	O	1.834556	0.056093	1.023911
O68	O	2.084556	0.306093	1.273911
C69	C	1.143298	-0.303202	0.464708
C70	C	1.393298	-0.053202	0.714708
C71	C	1.643298	0.196798	0.964708
C72	C	1.893298	0.446798	1.214708
C73	C	1.036084	-0.303213	0.464717
C74	C	1.286084	-0.053213	0.714717
C75	C	1.536084	0.196787	0.964717
C76	C	1.786084	0.446787	1.214717
C77	C	0.949014	-0.303215	0.464733
C78	C	1.199014	-0.053215	0.714733
C79	C	1.449014	0.196785	0.964733
C80	C	1.699014	0.446785	1.214733
C81	C	0.839782	-0.303219	0.464762
C82	C	1.089782	-0.053219	0.714762
C83	C	1.339782	0.196781	0.964762
C84	C	1.589782	0.446781	1.214762
C85	C	1.393786	-0.466763	0.464689
C86	C	1.643786	-0.216763	0.714689
C87	C	1.893786	0.033237	0.964689
C88	C	2.143786	0.283237	1.214689
C89	C	1.393820	-0.536731	0.464698
C90	C	1.643820	-0.286731	0.714698
C91	C	1.893820	-0.036731	0.964698
C92	C	2.143820	0.213269	1.214698
C93	C	1.455552	-0.569593	0.403076
C94	C	1.705552	-0.319593	0.653076
C95	C	1.955552	-0.069593	0.903076
C96	C	2.205552	0.180407	1.153076
C97	C	1.455597	-0.635336	0.403098
C98	C	1.705597	-0.385336	0.653098
C99	C	1.955597	-0.135336	0.903098
C100	C	2.205597	0.114664	1.153098
C101	C	1.393893	-0.668214	0.464731
C102	C	1.643893	-0.418214	0.714731
C103	C	1.893893	-0.168214	0.964731
C104	C	2.143893	0.081786	1.214731
C105	C	1.332157	-0.635344	0.526365
C106	C	1.582157	-0.385344	0.776365
C107	C	1.832157	-0.135344	1.026365
C108	C	2.082157	0.114656	1.276365
C109	C	1.332120	-0.569603	0.526349
C110	C	1.582120	-0.319603	0.776349
C111	C	1.832120	-0.069603	1.026349
C112	C	2.082120	0.180397	1.276349
N113	N	1.309512	-0.771480	0.472074
N114	N	1.559512	-0.521480	0.722074
N115	N	1.809512	-0.271480	0.972074
N116	N	2.059512	-0.021480	1.222074
N117	N	1.309550	-0.833931	0.472084
N118	N	1.559550	-0.583931	0.722084
N119	N	1.809550	-0.333931	0.972084
N120	N	2.059550	-0.083931	1.222084
C121	C	1.394001	-0.866288	0.464787
C122	C	1.644001	-0.616288	0.714787
C123	C	1.894001	-0.366288	0.964787
C124	C	2.144001	-0.116288	1.214787
N125	N	1.478416	-0.833835	0.457460
N126	N	1.728416	-0.583835	0.707460
N127	N	1.978416	-0.333835	0.957460
N128	N	2.228416	-0.083835	1.207460
N129	N	1.478377	-0.771378	0.457445
N130	N	1.728377	-0.521378	0.707445
N131	N	1.978377	-0.271378	0.957445
N132	N	2.228377	-0.021378	1.207445
C133	C	1.393926	-0.739499	0.464757
C134	C	1.643926	-0.489499	0.714757
C135	C	1.893926	-0.239499	0.964757
C136	C	2.143926	0.010501	1.214757
C137	C	1.455787	-0.970436	0.403185
C138	C	1.705787	-0.720436	0.653185
C139	C	1.955787	-0.470436	0.903185
C140	C	2.205787	-0.220436	1.153185
C141	C	1.455834	-1.036179	0.403213
C142	C	1.705834	-0.786179	0.653213
C143	C	1.955834	-0.536179	0.903213
C144	C	2.205834	-0.286179	1.153213
C145	C	1.332386	-1.036187	0.526476
C146	C	1.582386	-0.786187	0.776476
C147	C	1.832386	-0.536187	1.026476
C148	C	2.082386	-0.286187	1.276476
C149	C	1.332347	-0.970444	0.526453
C150	C	1.582347	-0.720444	0.776453
C151	C	1.832347	-0.470444	1.026453
C152	C	2.082347	-0.220444	1.276453
C153	C	1.394047	-0.937573	0.464802
C154	C	1.644047	-0.687573	0.714802
C155	C	1.894047	-0.437573	0.964802
C156	C	2.144047	-0.187573	1.214802
C157	C	1.645505	-0.303222	0.464776
C158	C	1.895505	-0.053222	0.714776
C159	C	2.145505	0.196778	0.964776
C160	C	2.395505	0.446778	1.214776
C161	C	1.752719	-0.303226	0.464791
C162	C	2.002719	-0.053226	0.714791
C163	C	2.252719	0.196774	0.964791
C164	C	2.502719	0.446774	1.214791
C165	C	1.393981	-0.303156	0.716335
C166	C	1.643981	-0.053156	0.966335
C167	C	1.893981	0.196844	1.216335
C168	C	2.143981	0.446844	1.466335
C169	C	1.394010	-0.303132	0.823549
C170	C	1.644010	-0.053132	1.073549
C171	C	1.894010	0.196868	1.323549
C172	C	2.144010	0.446868	1.573549
C173	C	1.394065	-0.139021	0.464817
C174	C	1.644065	0.110979	0.714817
C175	C	1.894065	0.360979	0.964817
C176	C	2.144065	0.610979	1.214817
C177	C	1.394131	-0.069053	0.464849
C178	C	1.644131	0.180947	0.714849
C179	C	1.894131	0.430947	0.964849
C180	C	2.144131	0.680947	1.214849
C181	C	1.393900	-0.303221	0.214128
C182	C	1.643900	-0.053221	0.464128
C183	C	1.893900	0.196779	0.714128
C184	C	2.143900	0.446779	0.964128
C185	C	1.394057	-0.303068	0.106914
C186	C	1.644057	-0.053068	0.356914
C187	C	1.894057	0.196932	0.606914
C188	C	2.144057	0.446932	0.856914
C189	C	1.394036	-0.303090	1.019845
C190	C	1.644036	-0.053090	1.269845
C191	C	1.894036	0.196910	1.519845
C192	C	2.144036	0.446910	1.769845
C193	C	1.394018	-0.303115	0.910612
C194	C	1.644018	-0.053115	1.160612
C195	C	1.894018	0.196885	1.410612
C196	C	2.144018	0.446885	1.660612
H197	H	1.505793	-0.542831	0.352879
H198	H	1.755793	-0.292831	0.602879
H199	H	2.005793	-0.042831	0.852879
H200	H	2.255793	0.207169	1.102879
H201	H	1.281850	-0.542846	0.576530
H202	H	1.531850	-0.292846	0.826530
H203	H	1.781850	-0.042846	1.076530
H204	H	2.031850	0.207154	1.326530
H205	H	1.506030	-0.943671	0.352988
H206	H	1.756030	-0.693671	0.602988
H207	H	2.006030	-0.443671	0.852988
H208	H	2.256030	-0.193671	1.102988
H209	H	1.505870	-0.662097	0.352918
H210	H	1.755870	-0.412097	0.602918
H211	H	2.005870	-0.162097	0.852918
H212	H	2.255870	0.087903	1.102918
H213	H	1.281919	-0.662117	0.576550
H214	H	1.531919	-0.412117	0.826550
H215	H	1.781919	-0.162117	1.076550
H216	H	2.031919	0.087883	1.326550
H217	H	1.282149	-1.062955	0.576664
H218	H	1.532149	-0.812955	0.826664
H219	H	1.782149	-0.562955	1.076664
H220	H	2.032149	-0.312955	1.326664
H221	H	1.506109	-1.062935	0.353035
H222	H	1.756109	-0.812935	0.603035
H223	H	2.006109	-0.562935	0.853035
H224	H	2.256109	-0.312935	1.103035
H225	H	1.282075	-0.943686	0.576627
H226	H	1.532075	-0.693686	0.826627
H227	H	1.782075	-0.443686	1.076627
H228	H	2.032075	-0.193686	1.326627
