data_functionalizedCrystal
_audit_creation_method	'MofGen! by Chris Wilmer'
_symmetry_space_group_name_H-M	'P1'
_symmetry_Int_Tables_number	1
_symmetry_cell_setting	triclinic
loop_
_symmetry_equiv_pos_as_xyz
  x,y,z
_cell_length_a	17.019372
_cell_length_b	16.098678
_cell_length_c	10.967829
_cell_angle_alpha	104.868202
_cell_angle_beta	84.882204
_cell_angle_gamma	83.409482
loop_
_atom_site_label
_atom_site_type_symbol
_atom_site_fract_x
_atom_site_fract_y
_atom_site_fract_z
O1	O	1.046657	0.017264	0.160321
O2	O	1.546657	0.517264	0.660321
O3	O	0.816113	0.036923	0.182187
O4	O	1.316113	0.536923	0.682187
O5	O	0.938033	0.000232	-0.012571
O6	O	1.438033	0.500232	0.487429
O7	O	0.924736	0.053955	0.355079
O8	O	1.424736	0.553955	0.855079
O9	O	0.945119	-0.140413	-0.023910
O10	O	1.445119	0.359587	0.476090
O11	O	0.823198	-0.103722	0.170848
O12	O	1.323198	0.396278	0.670848
O13	O	1.053742	-0.123381	0.148982
O14	O	1.553742	0.376619	0.648982
Zn15	Zn	0.939595	-0.135882	0.158115
Zn16	Zn	1.439595	0.364118	0.658115
Zn17	Zn	0.930260	0.049424	0.173054
Zn18	Zn	1.430260	0.549424	0.673054
O19	O	0.931822	-0.086691	0.343740
O20	O	1.431822	0.413309	0.843740
C21	C	0.790160	-0.031373	0.175913
C22	C	1.290160	0.468627	0.675913
C23	C	0.702274	-0.025335	0.174098
C24	C	1.202274	0.474665	0.674098
C25	C	0.205014	0.012708	0.164105
C26	C	0.705014	0.512708	0.664105
C27	C	0.287593	0.007024	0.165809
C28	C	0.787593	0.507024	0.665809
C29	C	0.332736	-0.072484	0.160490
C30	C	0.832736	0.427516	0.660490
C31	C	0.295297	-0.146313	0.153452
C32	C	0.795297	0.353687	0.653452
C33	C	0.212721	-0.140630	0.151739
C34	C	0.712721	0.359370	0.651739
C35	C	0.582258	-0.093481	0.165347
C36	C	1.082258	0.406519	0.665347
C37	C	0.664840	-0.099159	0.167065
C38	C	1.164840	0.400841	0.667065
C39	C	0.657130	0.054178	0.179419
C40	C	1.157130	0.554178	0.679419
C41	C	0.574552	0.059856	0.177713
C42	C	1.074552	0.559856	0.677713
C43	C	0.537121	-0.013974	0.170669
C44	C	1.037121	0.486026	0.670669
C45	C	0.417145	-0.078295	0.162236
C46	C	0.917145	0.421705	0.662236
C47	C	0.452714	-0.008163	0.168913
C48	C	0.952714	0.491837	0.668913
N49	N	0.945972	-0.262350	0.147918
N50	N	1.445972	0.237650	0.647918
C51	C	0.894214	-0.290386	0.230550
C52	C	1.394214	0.209614	0.730550
C53	C	0.898698	-0.378919	0.223411
C54	C	1.398698	0.121081	0.723411
C55	C	0.954937	-0.439415	0.133633
C56	C	1.454937	0.060585	0.633633
C57	C	1.006700	-0.411374	0.050997
C58	C	1.506700	0.088626	0.550997
C59	C	1.002220	-0.322841	0.058143
C60	C	1.502220	0.177159	0.558143
C61	C	0.971171	-0.707537	0.107751
C62	C	1.471171	-0.207537	0.607751
C63	C	0.975647	-0.796075	0.100609
C64	C	1.475647	-0.296075	0.600609
C65	C	0.867645	-0.763613	0.273026
C66	C	1.367645	-0.263613	0.773026
C67	C	0.863166	-0.675081	0.280158
C68	C	1.363166	-0.175081	0.780158
C69	C	0.914932	-0.647047	0.197527
C70	C	1.414932	-0.147047	0.697527
C71	C	0.959520	-0.529911	0.126331
C72	C	1.459520	-0.029911	0.626331
C73	C	0.910352	-0.556552	0.204835
C74	C	1.410352	-0.056552	0.704835
C75	C	1.079694	-0.055084	0.155256
C76	C	1.579694	0.444916	0.655256
C77	C	1.167580	-0.061116	0.157071
C78	C	1.667580	0.438884	0.657071
C79	C	0.941144	-0.076808	-0.065270
C80	C	1.441144	0.423192	0.434730
C81	C	0.939847	-0.096823	-0.205404
C82	C	1.439847	0.403177	0.294596
N83	N	0.923889	0.175889	0.183241
N84	N	1.423889	0.675889	0.683241
C85	C	0.935598	-0.032887	-0.261999
C86	C	1.435598	0.467113	0.238001
C87	C	0.934257	-0.053573	-0.406835
C88	C	1.434257	0.446427	0.093165
C89	C	0.928711	-0.009649	0.396439
C90	C	1.428711	0.490351	0.896439
C91	C	0.930008	0.010372	0.536573
C92	C	1.430008	0.510372	1.036573
H93	H	0.332060	-0.211051	0.149113
H94	H	0.832060	0.288949	0.649113
H95	H	0.453910	-0.143030	0.157908
H96	H	0.953910	0.356970	0.657908
H97	H	1.021446	-0.845329	0.027495
H98	H	1.521446	-0.345329	0.527495
H99	H	0.182242	-0.200743	0.146025
H100	H	0.682242	0.299257	0.646025
H101	H	1.052495	-0.460635	-0.022099
H102	H	1.552495	0.039365	0.477901
H103	H	0.537802	0.124599	0.182043
H104	H	1.037802	0.624599	0.682043
H105	H	0.551794	-0.153603	0.159593
H106	H	1.051794	0.346397	0.659593
H107	H	0.856554	-0.401744	0.290698
H108	H	1.356554	0.098256	0.790698
H109	H	1.044367	-0.300017	-0.009144
H110	H	1.544367	0.199983	0.490856
H111	H	0.927353	0.080430	-0.404659
H112	H	1.427353	0.580430	0.095341
H113	H	0.318068	0.067138	0.171529
H114	H	0.818068	0.567138	0.671529
H115	H	0.942486	-0.166874	-0.264175
H116	H	1.442486	0.333126	0.235825
H117	H	0.168263	0.077453	0.168445
H118	H	0.668263	0.577453	0.668445
H119	H	0.848415	-0.241134	0.303652
H120	H	1.348415	0.258866	0.803652
H121	H	0.687616	0.114287	0.185153
H122	H	1.187616	0.614287	0.685153
H123	H	0.817372	-0.625826	0.353263
H124	H	1.317372	-0.125826	0.853263
H125	H	0.825500	-0.786447	0.340302
H126	H	1.325500	-0.286447	0.840302
H127	H	1.013320	-0.684719	0.040466
H128	H	1.513320	-0.184719	0.540466
H129	H	0.864565	-0.507293	0.277937
H130	H	1.364565	-0.007293	0.777937
H131	H	0.701593	-0.163905	0.162742
H132	H	1.201593	0.336095	0.662742
H133	H	0.415956	0.056570	0.173239
H134	H	0.915956	0.556570	0.673239
H135	H	1.005310	-0.579175	0.053230
H136	H	1.505310	-0.079175	0.553230
H137	H	0.932949	0.037165	-0.203227
H138	H	1.432949	0.537165	0.296773
H139	H	0.936897	-0.123629	-0.465601
H140	H	1.436897	0.376371	0.034399
