data_functionalizedCrystal
_audit_creation_method	'MofGen! by Chris Wilmer'
_symmetry_space_group_name_H-M	'P1'
_symmetry_Int_Tables_number	1
_symmetry_cell_setting	triclinic
loop_
_symmetry_equiv_pos_as_xyz
  x,y,z
_cell_length_a	12.827893
_cell_length_b	18.050590
_cell_length_c	18.050582
_cell_angle_alpha	89.976663
_cell_angle_beta	89.987073
_cell_angle_gamma	90.018523
loop_
_atom_site_label
_atom_site_type_symbol
_atom_site_fract_x
_atom_site_fract_y
_atom_site_fract_z
Zn1	Zn	1.597581	-0.295707	-0.419869
Zn2	Zn	2.097581	0.204293	0.080131
Zn3	Zn	1.597485	-0.419890	-0.295677
Zn4	Zn	2.097485	0.080110	0.204323
Zn5	Zn	1.422842	-0.295719	-0.295698
Zn6	Zn	1.922842	0.204281	0.204302
Zn7	Zn	1.422798	-0.419860	-0.419830
Zn8	Zn	1.922798	0.080140	0.080170
O9	O	1.510177	-0.357794	-0.357769
O10	O	2.010177	0.142206	0.142231
O11	O	1.743804	-0.312188	-0.403403
O12	O	2.243804	0.187812	0.096597
O13	O	1.574296	-0.403437	-0.191755
O14	O	2.074296	0.096563	0.308245
O15	O	1.446080	-0.191793	-0.312194
O16	O	1.946080	0.308207	0.187806
O17	O	1.743734	-0.403425	-0.312160
O18	O	2.243734	0.096575	0.187840
O19	O	1.574460	-0.191784	-0.403422
O20	O	2.074460	0.308216	0.096578
O21	O	1.445987	-0.312208	-0.191770
O22	O	1.945987	0.187792	0.308230
O23	O	1.276600	-0.312178	-0.312156
O24	O	1.776600	0.187822	0.187844
O25	O	1.446006	-0.403373	-0.523760
O26	O	1.946006	0.096627	-0.023760
O27	O	1.276568	-0.403384	-0.403356
O28	O	1.776568	0.096616	0.096644
O29	O	1.574418	-0.312159	-0.523789
O30	O	2.074418	0.187841	-0.023789
O31	O	1.574254	-0.523811	-0.312122
O32	O	2.074254	-0.023811	0.187878
O33	O	1.445912	-0.523788	-0.403336
O34	O	1.945912	-0.023788	0.096664
C35	C	1.238667	-0.357780	-0.357754
C36	C	1.738667	0.142220	0.142246
C37	C	1.122514	-0.357792	-0.357766
C38	C	1.622514	0.142208	0.142234
C39	C	1.070741	-0.402994	-0.402825
C40	C	1.570741	0.097006	0.097175
C41	C	0.950690	-0.403007	-0.402838
C42	C	1.450690	0.096993	0.097162
C43	C	1.510096	-0.550746	-0.357739
C44	C	2.010096	-0.050746	0.142261
C45	C	1.510157	-0.633292	-0.357751
C46	C	2.010157	-0.133292	0.142249
C47	C	1.580095	-0.832728	-0.308218
C48	C	2.080095	-0.332728	0.191782
C49	C	1.605614	-0.882067	-0.375997
C50	C	2.105614	-0.382067	0.124003
C51	C	1.510217	-0.784422	-0.357781
C52	C	2.010217	-0.284422	0.142219
C53	C	1.484804	-0.882165	-0.290032
C54	C	1.984804	-0.382165	0.209968
C55	C	1.510276	-0.930407	-0.357803
C56	C	2.010276	-0.430407	0.142197
C57	C	1.535785	-0.832674	-0.425596
C58	C	2.035785	-0.332674	0.074404
C59	C	1.414931	-0.832768	-0.339584
C60	C	1.914931	-0.332768	0.160416
C61	C	1.440413	-0.882085	-0.407411
C62	C	1.940413	-0.382085	0.092589
C63	C	1.510185	-0.700324	-0.357767
C64	C	2.010185	-0.200324	0.142233
C65	C	1.510307	-1.014504	-0.357825
C66	C	2.010307	-0.514504	0.142175
C67	C	1.782747	-0.357809	-0.357783
C68	C	2.282747	0.142191	0.142217
C69	C	1.898900	-0.357815	-0.357789
C70	C	2.398900	0.142185	0.142211
C71	C	1.510218	-0.357761	-0.551474
C72	C	2.010218	0.142239	-0.051474
C73	C	1.510235	-0.357747	-0.634020
C74	C	2.010235	0.142253	-0.134020
C75	C	1.510286	-0.164088	-0.357815
C76	C	2.010286	0.335912	0.142185
C77	C	1.510332	-0.081543	-0.357834
C78	C	2.010332	0.418457	0.142166
C79	C	1.440458	-0.407282	-0.833455
C80	C	1.940458	0.092718	-0.333455
C81	C	1.535803	-0.425435	-0.882844
C82	C	2.035803	0.074565	-0.382844
C83	C	1.510286	-0.357690	-0.785151
C84	C	2.010286	0.142310	-0.285151
C85	C	1.414994	-0.339516	-0.882844
C86	C	1.914994	0.160484	-0.382844
C87	C	1.510328	-0.357637	-0.931136
C88	C	2.010328	0.142363	-0.431136
C89	C	1.605682	-0.375879	-0.833452
C90	C	2.105682	0.124121	-0.333452
C91	C	1.484808	-0.289929	-0.833447
C92	C	1.984808	0.210071	-0.333447
C93	C	1.580219	-0.308057	-0.882814
C94	C	2.080219	0.191943	-0.382814
C95	C	1.510261	-0.357723	-0.701052
C96	C	2.010261	0.142277	-0.201052
C97	C	1.510364	-0.357604	-1.015232
C98	C	2.010364	0.142396	-0.515232
C99	C	1.510196	-0.357773	-0.164816
C100	C	2.010196	0.142227	0.335184
C101	C	1.510381	-0.357578	-0.082271
C102	C	2.010381	0.142422	0.417729
H103	H	0.943417	-0.319117	-0.319208
H104	H	1.443417	0.180883	0.180792
F105	F	1.128968	-0.453567	-0.453235
F106	F	1.628968	0.046433	0.046765
H107	H	1.639357	-0.266096	-0.904349
H108	H	2.139357	0.233904	-0.404349
H109	H	1.463205	-0.232664	-0.811733
H110	H	1.963205	0.267336	-0.311733
F111	F	1.309638	-0.319452	-0.911202
F112	F	1.809638	0.180548	-0.411202
F113	F	1.363345	-0.462167	-0.805126
F114	F	1.863345	0.037833	-0.305126
F115	F	1.564004	-0.500306	-0.911206
F116	F	2.064004	-0.000306	-0.411206
F117	F	1.064286	-0.307216	-0.307358
F118	F	1.564286	0.192784	0.192642
F119	F	1.710976	-0.910360	-0.396144
F120	F	2.210976	-0.410360	0.103856
F121	F	1.657357	-0.804399	-0.253489
F122	F	2.157357	-0.304399	0.246511
F123	F	0.892498	-0.453595	-0.453259
F124	F	1.392498	0.046405	0.046741
H125	H	1.686310	-0.391294	-0.811847
H126	H	2.186310	0.108706	-0.311847
F127	F	1.564045	-0.804382	-0.500516
F128	F	2.064045	-0.304382	-0.000516
H129	H	1.381345	-0.903619	-0.449383
H130	H	1.881345	-0.403619	0.050617
H131	H	1.334347	-0.811096	-0.324159
H132	H	1.834347	-0.311096	0.175841
F133	F	1.456677	-0.910581	-0.215132
F134	F	1.956677	-0.410581	0.284868
