data_functionalizedCrystal
_audit_creation_method	'MofGen! by Chris Wilmer'
_symmetry_space_group_name_H-M	'P1'
_symmetry_Int_Tables_number	1
_symmetry_cell_setting	triclinic
loop_
_symmetry_equiv_pos_as_xyz
  x,y,z
_cell_length_a	19.805407
_cell_length_b	12.594516
_cell_length_c	19.805399
_cell_angle_alpha	90.021665
_cell_angle_beta	90.017803
_cell_angle_gamma	90.015489
loop_
_atom_site_label
_atom_site_type_symbol
_atom_site_fract_x
_atom_site_fract_y
_atom_site_fract_z
Zn1	Zn	1.034774	-0.423843	0.382715
Zn2	Zn	1.534774	0.076157	0.882715
Zn3	Zn	1.034706	-0.601836	0.269539
Zn4	Zn	1.534706	-0.101836	0.769539
Zn5	Zn	0.921589	-0.423864	0.269544
Zn6	Zn	1.421589	0.076136	0.769544
Zn7	Zn	0.921569	-0.601772	0.382689
Zn8	Zn	1.421569	-0.101772	0.882689
O9	O	0.978159	-0.512829	0.326122
O10	O	1.478159	-0.012829	0.826122
O11	O	1.129482	-0.447473	0.367711
O12	O	1.629482	0.052527	0.867711
O13	O	1.019680	-0.578264	0.174823
O14	O	1.519680	-0.078264	0.674823
O15	O	0.936641	-0.274915	0.284569
O16	O	1.436641	0.225085	0.784569
O17	O	1.129431	-0.578244	0.284561
O18	O	1.629431	-0.078244	0.784561
O19	O	1.019797	-0.274900	0.367716
O20	O	1.519797	0.225100	0.867716
O21	O	0.936574	-0.447508	0.174826
O22	O	1.436574	0.052492	0.674826
O23	O	0.826870	-0.447445	0.284544
O24	O	1.326870	0.052555	0.784544
O25	O	0.936606	-0.578133	0.477409
O26	O	1.436606	-0.078133	0.977409
O27	O	0.826855	-0.578153	0.367671
O28	O	1.326855	-0.078153	0.867671
O29	O	1.019778	-0.447410	0.477429
O30	O	1.519778	0.052590	0.977429
O31	O	1.019660	-0.750774	0.284536
O32	O	1.519660	-0.250774	0.784536
O33	O	0.936539	-0.750726	0.367667
O34	O	1.436539	-0.250726	0.867667
C35	C	0.802303	-0.512795	0.326105
C36	C	1.302303	-0.012795	0.826105
C37	C	0.727071	-0.512807	0.326114
C38	C	1.227071	-0.012807	0.826114
C39	C	0.691754	-0.444835	0.369477
C40	C	1.191754	0.055165	0.869477
C41	C	0.621066	-0.444840	0.369479
C42	C	1.121066	0.055160	0.869479
C43	C	0.585696	-0.512824	0.326123
C44	C	1.085696	-0.012824	0.826123
C45	C	0.621018	-0.580799	0.282756
C46	C	1.121018	-0.080799	0.782756
C47	C	0.691705	-0.580787	0.282750
C48	C	1.191705	-0.080787	0.782750
C49	C	0.335945	-0.580847	0.282776
C50	C	0.835945	-0.080847	0.782776
C51	C	0.265253	-0.580856	0.282787
C52	C	0.765253	-0.080856	0.782787
C53	C	0.265305	-0.444900	0.369505
C54	C	0.765305	0.055100	0.869505
C55	C	0.335993	-0.444888	0.369500
C56	C	0.835993	0.055112	0.869500
C57	C	0.371308	-0.512859	0.326131
C58	C	0.871308	-0.012859	0.826131
C59	C	0.447957	-0.512850	0.326128
C60	C	0.947957	-0.012850	0.826128
C61	C	0.509049	-0.512839	0.326129
C62	C	1.009049	-0.012839	0.826129
C63	C	0.978109	-0.789370	0.326113
C64	C	1.478109	-0.289370	0.826113
C65	C	0.978149	-0.907675	0.326131
C66	C	1.478149	-0.407675	0.826131
C67	C	0.932976	-1.047705	0.371323
C68	C	1.432976	-0.547705	0.871323
C69	C	0.994681	-0.976800	0.387928
C70	C	1.494681	-0.476800	0.887928
C71	C	0.916450	-0.977008	0.309556
C72	C	1.416450	-0.477008	0.809556
C73	C	1.039997	-1.047556	0.342794
C74	C	1.539997	-0.547556	0.842794
C75	C	0.961724	-1.047770	0.264392
C76	C	1.461724	-0.547770	0.764392
C77	C	1.023472	-0.976898	0.280974
C78	C	1.523472	-0.476898	0.780974
C79	C	1.154702	-0.512863	0.326139
C80	C	1.654702	-0.012863	0.826139
C81	C	1.229934	-0.512878	0.326146
C82	C	1.729934	-0.012878	0.826146
C83	C	0.978197	-0.512762	0.502665
C84	C	1.478197	-0.012762	1.002665
C85	C	0.978214	-0.512733	0.577897
C86	C	1.478214	-0.012733	1.077897
C87	C	0.978229	-0.235208	0.326146
C88	C	1.478229	0.264792	0.826146
C89	C	0.978259	-0.116902	0.326156
C90	C	1.478259	0.383098	0.826156
C91	C	0.978161	-0.512819	0.150266
C92	C	1.478161	-0.012819	0.650266
C93	C	0.978276	-0.512547	0.075034
C94	C	1.478276	-0.012547	0.575034
C95	C	1.021522	-0.444662	0.613252
C96	C	1.521522	0.055338	1.113252
C97	C	1.021529	-0.444631	0.683940
C98	C	1.521529	0.055369	1.183940
C99	C	0.978230	-0.512678	0.719272
C100	C	1.478230	-0.012678	1.219272
C101	C	0.934917	-0.580752	0.683912
C102	C	1.434917	-0.080752	1.183912
C103	C	0.934907	-0.580776	0.613225
C104	C	1.434907	-0.080776	1.113225
C105	C	0.934955	-0.580652	0.968985
C106	C	1.434955	-0.080652	1.468985
C107	C	0.934970	-0.580625	1.039678
C108	C	1.434970	-0.080625	1.539678
C109	C	1.021577	-0.444507	1.039701
C110	C	1.521577	0.055493	1.539701
C111	C	1.021567	-0.444532	0.969014
C112	C	1.521567	0.055468	1.469014
C113	C	0.978252	-0.512602	0.933660
C114	C	1.478252	-0.012602	1.433660
C115	C	0.978244	-0.512633	0.857011
C116	C	1.478244	-0.012633	1.357011
C117	C	0.978241	-0.512652	0.795919
C118	C	1.478241	-0.012652	1.295919
H119	H	0.236543	-0.389551	0.404816
H120	H	0.736543	0.110449	0.904816
O121	O	1.069107	-0.940165	0.235309
O122	O	1.569107	-0.440165	0.735309
C123	C	1.052175	-0.977904	0.170445
C124	C	1.552175	-0.477904	0.670445
H125	H	1.020284	-1.052873	0.175320
H126	H	1.520284	-0.552873	0.675320
H127	H	1.100310	-0.996815	0.141277
H128	H	1.600310	-0.496815	0.641277
H129	H	1.022242	-0.914543	0.142285
H130	H	1.522242	-0.414543	0.642285
H131	H	1.008624	-0.945630	0.440150
H132	H	1.508624	-0.445630	0.940150
O133	O	0.944953	-1.084946	0.202132
O134	O	1.444953	-0.584946	0.702132
C135	C	0.879784	-1.049047	0.184830
C136	C	1.379784	-0.549047	0.684830
H137	H	0.850543	-1.029172	0.232764
H138	H	1.350543	-0.529172	0.732764
H139	H	0.852074	-1.113915	0.155748
H140	H	1.352074	-0.613915	0.655748
H141	H	0.884037	-0.975028	0.151988
H142	H	1.384037	-0.475028	0.651988
H143	H	0.899695	-0.636094	0.940209
H144	H	1.399695	-0.136094	1.440209
O145	O	1.063595	-0.378516	0.934589
O146	O	1.563595	0.121484	1.434589
C147	C	1.054282	-0.393108	0.864617
C148	C	1.554282	0.106892	1.364617
H149	H	1.032107	-0.475257	0.854948
H150	H	1.532107	0.024743	1.354948
H151	H	1.104974	-0.385879	0.837754
H152	H	1.604974	0.114121	1.337754
H153	H	1.018235	-0.329988	0.844567
H154	H	1.518235	0.170012	1.344567
O155	O	1.063653	-0.378711	0.578902
O156	O	1.563653	0.121289	1.078902
C157	C	1.107339	-0.439324	0.538000
C158	C	1.607339	0.060676	1.038000
H159	H	1.111507	-0.523147	0.559294
H160	H	1.611507	-0.023147	1.059294
H161	H	1.159435	-0.400831	0.537210
H162	H	1.659435	0.099169	1.037210
H163	H	1.086402	-0.443006	0.484425
H164	H	1.586402	0.056994	0.984425
H165	H	0.899660	-0.636152	0.712685
H166	H	1.399660	-0.136152	1.212685
H167	H	0.592214	-0.636148	0.247450
H168	H	1.092214	-0.136148	0.747450
O169	O	0.854094	-0.940179	0.292883
O170	O	1.354094	-0.440179	0.792883
C171	C	0.806577	-0.976247	0.340657
C172	C	1.306577	-0.476247	0.840657
H173	H	0.826664	-1.050704	0.366477
H174	H	1.326664	-0.550704	0.866477
H175	H	0.756993	-0.995460	0.314071
H176	H	1.256993	-0.495460	0.814071
H177	H	0.797649	-0.911746	0.380054
H178	H	1.297649	-0.411746	0.880054
O179	O	0.887490	-1.084935	0.416976
O180	O	1.387490	-0.584935	0.916976
C181	C	0.921048	-1.147922	0.465310
C182	C	1.421048	-0.647922	0.965310
H183	H	0.970313	-1.178916	0.443023
H184	H	1.470313	-0.678916	0.943023
H185	H	0.887520	-1.217770	0.480013
H186	H	1.387520	-0.717770	0.980013
H187	H	0.932447	-1.098016	0.511979
H188	H	1.432447	-0.598016	1.011979
H189	H	0.364787	-0.389532	0.404808
H190	H	0.864787	0.110468	0.904808
O191	O	1.063665	-0.378477	0.718180
O192	O	1.563665	0.121523	1.218180
C193	C	1.101871	-0.318411	0.671837
C194	C	1.601871	0.181589	1.171837
H195	H	1.104194	-0.362029	0.621446
H196	H	1.604194	0.137971	1.121446
H197	H	1.155206	-0.307067	0.692271
H198	H	1.655206	0.192933	1.192271
H199	H	1.077109	-0.237569	0.664321
H200	H	1.577109	0.262431	1.164321
H201	H	1.056844	-0.389078	1.068495
H202	H	1.556844	0.110922	1.568495
O203	O	0.892937	-0.646873	1.073924
O204	O	1.392937	-0.146873	1.573924
C205	C	0.907703	-0.752968	1.056655
C206	C	1.407703	-0.252968	1.556655
H207	H	0.933711	-0.755202	1.005334
H208	H	1.433711	-0.255202	1.505334
H209	H	0.858839	-0.800679	1.054227
H210	H	1.358839	-0.300679	1.554227
H211	H	0.942499	-0.788816	1.096439
H212	H	1.442499	-0.288816	1.596439
O213	O	0.726005	-0.378697	0.411618
O214	O	1.226005	0.121303	0.911618
C215	C	0.679671	-0.318724	0.449902
C216	C	1.179671	0.181276	0.949902
H217	H	0.629274	-0.314988	0.422185
H218	H	1.129274	0.185012	0.922185
H219	H	0.700107	-0.234875	0.457213
H220	H	1.200107	0.265125	0.957213
H221	H	0.672168	-0.357811	0.501266
H222	H	1.172168	0.142189	1.001266
O223	O	0.586687	-0.378965	0.411639
O224	O	1.086687	0.121035	0.911639
C225	C	0.545822	-0.439666	0.455303
C226	C	1.045822	0.060334	0.955303
H227	H	0.535209	-0.520274	0.431339
H228	H	1.035209	-0.020274	0.931339
H229	H	0.496125	-0.396334	0.464430
H230	H	0.996125	0.103666	0.964430
H231	H	0.573085	-0.451472	0.505445
H232	H	1.073085	0.048528	1.005445
O233	O	0.892825	-0.647015	0.578983
O234	O	1.392825	-0.147015	1.078983
C235	C	0.854602	-0.707058	0.625324
C236	C	1.354602	-0.207058	1.125324
H237	H	0.882329	-0.710719	0.675719
H238	H	1.382329	-0.210719	1.175719
H239	H	0.847369	-0.790929	0.604893
H240	H	1.347369	-0.290929	1.104893
H241	H	0.803203	-0.668081	0.632831
H242	H	1.303203	-0.168081	1.132831
H243	H	0.720459	-0.636137	0.247440
H244	H	1.220459	-0.136137	0.747440
O245	O	1.102277	-1.084415	0.359722
O246	O	1.602277	-0.584415	0.859722
C247	C	1.097511	-1.146678	0.418677
C248	C	1.597511	-0.646678	0.918677
H249	H	1.050320	-1.123202	0.448043
H250	H	1.550320	-0.623202	0.948043
H251	H	1.144045	-1.133015	0.451444
H252	H	1.644045	-0.633015	0.951444
H253	H	1.094314	-1.234160	0.404218
H254	H	1.594314	-0.734160	0.904218
O255	O	0.230818	-0.646747	0.240631
O256	O	0.730818	-0.146747	0.740631
C257	C	0.189929	-0.586056	0.196980
C258	C	0.689929	-0.086056	0.696980
H259	H	0.179361	-0.505448	0.220945
H260	H	0.679361	-0.005448	0.720945
H261	H	0.140211	-0.629396	0.187869
H262	H	0.640211	-0.129396	0.687869
H263	H	0.217148	-0.574248	0.146829
H264	H	0.717148	-0.074248	0.646829
O265	O	0.370140	-0.646974	0.240629
O266	O	0.870140	-0.146974	0.740629
C267	C	0.323761	-0.706960	0.202354
C268	C	0.823761	-0.206960	0.702354
H269	H	0.273386	-0.710712	0.230083
H270	H	0.773386	-0.210712	0.730083
H271	H	0.344172	-0.790803	0.195038
H272	H	0.844172	-0.290803	0.695038
H273	H	0.316222	-0.667874	0.150993
H274	H	0.816222	-0.167874	0.650993
