data_functionalizedCrystal
_audit_creation_method	'MofGen! by Chris Wilmer'
_symmetry_space_group_name_H-M	'P1'
_symmetry_Int_Tables_number	1
_symmetry_cell_setting	triclinic
loop_
_symmetry_equiv_pos_as_xyz
  x,y,z
_cell_length_a	16.992694
_cell_length_b	10.540539
_cell_length_c	16.053802
_cell_angle_alpha	92.593658
_cell_angle_beta	87.249047
_cell_angle_gamma	87.596857
loop_
_atom_site_label
_atom_site_type_symbol
_atom_site_fract_x
_atom_site_fract_y
_atom_site_fract_z
O1	O	1.045174	0.264306	-0.069318
O2	O	1.545174	0.764306	0.430682
O3	O	0.816873	0.261349	-0.069343
O4	O	1.316873	0.761349	0.430657
O5	O	0.936232	0.078573	-0.069329
O6	O	1.436232	0.578573	0.430671
O7	O	0.925815	0.447082	-0.069332
O8	O	1.425815	0.947082	0.430668
O9	O	0.929662	0.088589	0.069529
O10	O	1.429662	0.588589	0.569529
O11	O	0.810303	0.271366	0.069516
O12	O	1.310303	0.771366	0.569516
O13	O	1.038604	0.274322	0.069540
O14	O	1.538604	0.774322	0.569540
Zn15	Zn	0.923410	0.274434	0.091575
Zn16	Zn	1.423410	0.774434	0.591575
Zn17	Zn	0.932067	0.261237	-0.091377
Zn18	Zn	1.432067	0.761237	0.408623
O19	O	0.919245	0.457098	0.069526
O20	O	1.419245	0.957098	0.569526
C21	C	0.784355	0.262556	0.000083
C22	C	1.284355	0.762556	0.500083
C23	C	0.697247	0.251215	0.000074
C24	C	1.197247	0.751215	0.500074
C25	C	0.647620	0.360635	0.000073
C26	C	1.147620	0.860635	0.500073
C27	C	0.565773	0.349973	0.000085
C28	C	1.065773	0.849973	0.500085
C29	C	0.533555	0.229889	0.000091
C30	C	1.033555	0.729889	0.500091
C31	C	0.583189	0.120461	0.000094
C32	C	1.083189	0.620461	0.500094
C33	C	0.665034	0.131125	0.000088
C34	C	1.165034	0.631125	0.500088
C35	C	0.289709	0.185691	0.000114
C36	C	0.789709	0.685691	0.500114
C37	C	0.207858	0.175036	0.000117
C38	C	0.707858	0.675036	0.500117
C39	C	0.190447	0.404549	0.000110
C40	C	0.690447	0.904549	0.500110
C41	C	0.272294	0.415202	0.000099
C42	C	0.772294	0.915202	0.500099
C43	C	0.321921	0.305774	0.000106
C44	C	0.821921	0.805774	0.500106
N45	N	0.449895	0.218988	0.000100
N46	N	0.949895	0.718988	0.500100
N47	N	0.405579	0.316677	0.000103
N48	N	0.905579	0.816677	0.500103
C49	C	0.932166	0.036210	0.000099
C50	C	1.432166	0.536210	0.500099
C51	C	0.929829	-0.104941	0.000094
C52	C	1.429829	0.395059	0.500094
C53	C	0.840283	-0.296162	-0.000227
C54	C	1.340283	0.203838	0.499773
C55	C	0.842638	-0.149316	0.000086
C56	C	1.342638	0.350684	0.500086
C57	C	0.968037	-0.157237	0.079393
C58	C	1.468037	0.342763	0.579393
C59	C	0.965058	-0.304035	0.079460
C60	C	1.465058	0.195965	0.579460
C61	C	0.974303	-0.315790	-0.078448
C62	C	1.474303	0.184210	0.421552
C63	C	0.975156	-0.168814	-0.079496
C64	C	1.475156	0.331186	0.420504
C65	C	1.071123	0.273115	0.000112
C66	C	1.571123	0.773115	0.500112
C67	C	1.158230	0.284456	0.000117
C68	C	1.658230	0.784456	0.500117
C69	C	0.923311	0.499461	0.000097
C70	C	1.423311	0.999461	0.500097
C71	C	0.925649	0.640612	0.000096
C72	C	1.425649	1.140612	0.500096
N73	N	0.917508	0.283440	0.216434
N74	N	1.417508	0.783440	0.716434
N75	N	0.937975	0.252222	-0.216237
N76	N	1.437975	0.752222	0.283763
C77	C	0.968315	0.205700	0.260134
C78	C	1.468315	0.705700	0.760134
C79	C	0.964193	0.212013	0.347540
C80	C	1.464193	0.712013	0.847540
C81	C	0.909269	0.296073	0.391245
C82	C	1.409269	0.796073	0.891245
C83	C	0.858458	0.373817	0.347539
C84	C	1.358458	0.873817	0.847539
C85	C	0.862576	0.367497	0.260134
C86	C	1.362576	0.867497	0.760134
C87	C	0.891281	0.323645	0.652653
C88	C	1.391281	0.823645	1.152653
C89	C	0.887169	0.329962	0.740063
C90	C	1.387169	0.829962	1.240063
C91	C	0.992904	0.168156	0.740059
C92	C	1.492904	0.668156	1.240059
C93	C	0.997020	0.161848	0.652652
C94	C	1.497020	0.661848	1.152652
C95	C	0.946206	0.239587	0.608954
C96	C	1.446206	0.739587	1.108954
N97	N	0.905057	0.302531	0.480588
N98	N	1.405057	0.802531	0.980588
N99	N	0.950415	0.233122	0.519612
N100	N	1.450415	0.733122	1.019612
H101	H	0.150032	0.493638	0.000105
H102	H	0.650032	0.993638	0.500105
H103	H	0.936097	-0.112911	0.138399
H104	H	1.436097	0.387089	0.638399
H105	H	1.038951	-0.139421	-0.084277
H106	H	1.538951	0.360579	0.415723
O107	O	0.940695	-0.366631	-0.158049
O108	O	1.440695	0.133369	0.341951
H109	H	0.986331	-0.427634	-0.194147
H110	H	1.486331	0.072366	0.305853
H111	H	1.041744	0.093400	0.617070
H112	H	1.541744	0.593400	1.117070
H113	H	0.525369	0.439075	0.000084
H114	H	1.025369	0.939075	0.500084
H115	H	0.298520	0.512986	0.000084
H116	H	0.798520	1.012986	0.500084
O117	O	0.938223	-0.123723	-0.157208
O118	O	1.438223	0.376277	0.342792
H119	H	0.982777	-0.075496	-0.195841
H120	H	1.482777	0.424504	0.304159
H121	H	0.181630	0.077244	0.000121
H122	H	0.681630	0.577244	0.500121
O123	O	0.836484	0.407506	0.605530
O124	O	1.336484	0.907506	1.105530
H125	H	0.799924	0.347266	0.565724
H126	H	1.299924	0.847266	1.065724
O127	O	0.548440	-0.009057	0.000106
O128	O	1.048440	0.490943	0.500106
H129	H	0.596702	-0.083352	0.000114
H130	H	1.096702	0.416648	0.500114
H131	H	0.842440	0.398419	0.775644
H132	H	1.342440	0.898419	1.275644
H133	H	0.330106	0.096587	0.000120
H134	H	0.830106	0.596587	0.500120
O135	O	1.052665	-0.119973	0.083317
O136	O	1.552665	0.380027	0.583317
H137	H	1.091901	-0.206955	0.082454
H138	H	1.591901	0.293045	0.582454
H139	H	0.803306	-0.325268	0.056314
H140	H	1.303306	0.174732	0.556314
O141	O	0.802464	-0.102104	-0.075210
O142	O	1.302464	0.397896	0.424790
H143	H	0.804111	0.003063	-0.075064
H144	H	1.304111	0.503063	0.424936
O145	O	0.718561	0.013103	0.000093
O146	O	1.218561	0.513103	0.500093
H147	H	0.780885	0.040692	0.000099
H148	H	1.280885	0.540692	0.500099
O149	O	0.682361	0.490160	0.000066
O150	O	1.182361	0.990160	0.500066
H151	H	0.747611	0.479197	0.000055
H152	H	1.247611	0.979197	0.500055
O153	O	1.047886	-0.360041	0.084260
O154	O	1.547886	0.139959	0.584260
H155	H	1.084545	-0.332469	0.029467
H156	H	1.584545	0.167531	0.529467
H157	H	1.037306	-0.357589	-0.078974
H158	H	1.537306	0.142411	0.421026
H159	H	0.813733	0.442256	0.383129
H160	H	1.313733	0.942256	0.883129
O161	O	1.027552	0.115030	0.212996
O162	O	1.527552	0.615030	0.712996
H163	H	1.062181	0.062023	0.258071
H164	H	1.562181	0.562023	0.758071
O165	O	0.807779	0.451334	0.212987
O166	O	1.307779	0.951334	0.712987
H167	H	0.817535	0.552587	0.229737
H168	H	1.317535	1.052587	0.729737
O169	O	0.798220	-0.343438	-0.075553
O170	O	1.298220	0.156562	0.424447
H171	H	0.738173	-0.297485	-0.074374
H172	H	1.238173	0.202515	0.425626
O173	O	0.795047	-0.092369	0.075508
O174	O	1.295047	0.407631	0.575508
H175	H	0.770265	-0.169730	0.111905
H176	H	1.270265	0.330270	0.611905
H177	H	0.931243	-0.330650	0.138731
H178	H	1.431243	0.169350	0.638731
H179	H	1.005563	0.148710	0.383120
H180	H	1.505563	0.648710	0.883120
O181	O	1.047703	0.084300	0.787188
O182	O	1.547703	0.584300	1.287188
H183	H	1.035610	0.102805	0.855308
H184	H	1.535610	0.602805	1.355308
