data_functionalizedCrystal
_audit_creation_method	'MofGen! by Chris Wilmer'
_symmetry_space_group_name_H-M	'P1'
_symmetry_Int_Tables_number	1
_symmetry_cell_setting	triclinic
loop_
_symmetry_equiv_pos_as_xyz
  x,y,z
_cell_length_a	18.215407
_cell_length_b	12.827892
_cell_length_c	18.215399
_cell_angle_alpha	89.976162
_cell_angle_beta	89.982632
_cell_angle_gamma	90.012835
loop_
_atom_site_label
_atom_site_type_symbol
_atom_site_fract_x
_atom_site_fract_y
_atom_site_fract_z
Zn1	Zn	1.125120	-0.416115	-0.416088
Zn2	Zn	1.375120	-0.166115	-0.166088
Zn3	Zn	1.625120	0.083885	0.083912
Zn4	Zn	1.875120	0.333885	0.333912
Zn5	Zn	1.125049	-0.590874	-0.293031
Zn6	Zn	1.375049	-0.340874	-0.043031
Zn7	Zn	1.625049	-0.090874	0.206969
Zn8	Zn	1.875049	0.159126	0.456969
Zn9	Zn	1.002053	-0.416140	-0.293041
Zn10	Zn	1.252053	-0.166140	-0.043041
Zn11	Zn	1.502053	0.083860	0.206959
Zn12	Zn	1.752053	0.333860	0.456959
Zn13	Zn	1.002039	-0.590807	-0.416061
Zn14	Zn	1.252039	-0.340807	-0.166061
Zn15	Zn	1.502039	-0.090807	0.083939
Zn16	Zn	1.752039	0.159193	0.333939
O17	O	1.063566	-0.503484	-0.354555
O18	O	1.313566	-0.253484	-0.104555
O19	O	1.563566	-0.003484	0.145445
O20	O	1.813566	0.246516	0.395445
O21	O	1.228095	-0.439315	-0.399772
O22	O	1.478095	-0.189315	-0.149772
O23	O	1.728095	0.060685	0.100228
O24	O	1.978095	0.310685	0.350228
O25	O	1.108710	-0.567734	-0.190048
O26	O	1.358710	-0.317734	0.059952
O27	O	1.608710	-0.067734	0.309952
O28	O	1.858710	0.182266	0.559952
O29	O	1.018414	-0.269901	-0.309379
O30	O	1.268414	-0.019901	-0.059379
O31	O	1.518414	0.230099	0.190621
O32	O	1.768414	0.480099	0.440621
O33	O	1.228043	-0.567710	-0.309362
O34	O	1.478043	-0.317710	-0.059362
O35	O	1.728043	-0.067710	0.190638
O36	O	1.978043	0.182290	0.440638
O37	O	1.108831	-0.269882	-0.399782
O38	O	1.358831	-0.019882	-0.149782
O39	O	1.608831	0.230118	0.100218
O40	O	1.858831	0.480118	0.350218
O41	O	1.018345	-0.439358	-0.190056
O42	O	1.268345	-0.189358	0.059944
O43	O	1.518345	0.060642	0.309944
O44	O	1.768345	0.310642	0.559944
O45	O	0.899067	-0.439292	-0.309353
O46	O	1.149067	-0.189292	-0.059353
O47	O	1.399067	0.060708	0.190647
O48	O	1.649067	0.310708	0.440647
O49	O	1.018390	-0.567595	-0.519049
O50	O	1.268390	-0.317595	-0.269049
O51	O	1.518390	-0.067595	-0.019049
O52	O	1.768390	0.182405	0.230951
O53	O	0.899057	-0.567619	-0.399735
O54	O	1.149057	-0.317619	-0.149735
O55	O	1.399057	-0.067619	0.100265
O56	O	1.649057	0.182381	0.350265
O57	O	1.108818	-0.439250	-0.519069
O58	O	1.358818	-0.189250	-0.269069
O59	O	1.608818	0.060750	-0.019069
O60	O	1.858818	0.310750	0.230931
O61	O	1.108696	-0.737101	-0.309336
O62	O	1.358696	-0.487101	-0.059336
O63	O	1.608696	-0.237101	0.190664
O64	O	1.858696	0.012899	0.440664
O65	O	1.018321	-0.737052	-0.399725
O66	O	1.268321	-0.487052	-0.149725
O67	O	1.518321	-0.237052	0.100275
O68	O	1.768321	0.012948	0.350275
C69	C	0.872359	-0.503452	-0.354543
C70	C	1.122359	-0.253452	-0.104543
C71	C	1.372359	-0.003452	0.145457
C72	C	1.622359	0.246548	0.395457
C73	C	0.790560	-0.503463	-0.354555
C74	C	1.040560	-0.253463	-0.104555
C75	C	1.290560	-0.003463	0.145445
C76	C	1.540560	0.246537	0.395445
C77	C	0.602393	-0.436746	-0.401705
C78	C	0.852393	-0.186746	-0.151705
C79	C	1.102393	0.063254	0.098295
C80	C	1.352393	0.313254	0.348295
C81	C	0.525534	-0.436755	-0.401708
C82	C	0.775534	-0.186755	-0.151708
C83	C	1.025534	0.063245	0.098292
C84	C	1.275534	0.313245	0.348292
C85	C	0.525490	-0.570252	-0.307419
C86	C	0.775490	-0.320252	-0.057419
C87	C	1.025490	-0.070252	0.192581
C88	C	1.275490	0.179748	0.442581
C89	C	0.602348	-0.570237	-0.307413
C90	C	0.852348	-0.320237	-0.057413
C91	C	1.102348	-0.070237	0.192587
C92	C	1.352348	0.179763	0.442587
C93	C	0.640797	-0.503485	-0.354560
C94	C	0.890797	-0.253485	-0.104560
C95	C	1.140797	-0.003485	0.145440
C96	C	1.390797	0.246515	0.395440
C97	C	0.487081	-0.503509	-0.354569
C98	C	0.737081	-0.253509	-0.104569
C99	C	0.987081	-0.003509	0.145431
C100	C	1.237081	0.246491	0.395431
C101	C	0.403747	-0.503519	-0.354571
C102	C	0.653747	-0.253519	-0.104571
C103	C	0.903747	-0.003519	0.145429
C104	C	1.153747	0.246481	0.395429
C105	C	0.724136	-0.503473	-0.354557
C106	C	0.974136	-0.253473	-0.104557
C107	C	1.224136	-0.003473	0.145443
C108	C	1.474136	0.246527	0.395443
C109	C	1.063519	-0.774994	-0.354542
C110	C	1.313519	-0.524994	-0.104542
C111	C	1.563519	-0.274994	0.145458
C112	C	1.813519	-0.024994	0.395458
C113	C	1.063567	-0.891147	-0.354562
C114	C	1.313567	-0.641147	-0.104562
C115	C	1.563567	-0.391147	0.145438
C116	C	1.813567	-0.141147	0.395438
C117	C	1.108341	-0.942922	-0.309883
C118	C	1.358341	-0.692922	-0.059883
C119	C	1.608341	-0.442922	0.190117
C120	C	1.858341	-0.192922	0.440117
C121	C	1.108391	-1.062972	-0.309902
C122	C	1.358391	-0.812972	-0.059902
C123	C	1.608391	-0.562972	0.190098
C124	C	1.858391	-0.312972	0.440098
C125	C	1.255518	-0.503517	-0.354569
C126	C	1.505518	-0.253517	-0.104569
C127	C	1.755518	-0.003517	0.145431
C128	C	2.005518	0.246483	0.395431
C129	C	1.337317	-0.503531	-0.354575
C130	C	1.587317	-0.253531	-0.104575
C131	C	1.837317	-0.003531	0.145425
C132	C	2.087317	0.246469	0.395425
C133	C	1.063610	-0.503412	-0.546508
C134	C	1.313610	-0.253412	-0.296508
C135	C	1.563610	-0.003412	-0.046508
C136	C	1.813610	0.246588	0.203492
C137	C	1.063629	-0.503381	-0.628307
C138	C	1.313629	-0.253381	-0.378307
C139	C	1.563629	-0.003381	-0.128307
C140	C	1.813629	0.246619	0.121693
C141	C	1.063632	-0.230914	-0.354585
C142	C	1.313632	0.019086	-0.104585
C143	C	1.563632	0.269086	0.145415
C144	C	1.813632	0.519086	0.395415
C145	C	1.063660	-0.114761	-0.354597
C146	C	1.313660	0.135239	-0.104597
C147	C	1.563660	0.385239	0.145403
C148	C	1.813660	0.635239	0.395403
C149	C	1.110732	-0.436489	-0.816513
C150	C	1.360732	-0.186489	-0.566513
C151	C	1.610732	0.063511	-0.316513
C152	C	1.860732	0.313511	-0.066513
C153	C	1.110741	-0.436459	-0.893372
C154	C	1.360741	-0.186459	-0.643372
C155	C	1.610741	0.063541	-0.393372
C156	C	1.860741	0.313541	-0.143372
C157	C	1.016579	-0.570112	-0.893340
C158	C	1.266579	-0.320112	-0.643340
C159	C	1.516579	-0.070112	-0.393340
C160	C	1.766579	0.179888	-0.143340
C161	C	1.016567	-0.570136	-0.816482
C162	C	1.266567	-0.320136	-0.566482
C163	C	1.516567	-0.070136	-0.316482
C164	C	1.766567	0.179864	-0.066482
C165	C	1.063648	-0.503327	-0.778071
C166	C	1.313648	-0.253327	-0.528071
C167	C	1.563648	-0.003327	-0.278071
C168	C	1.813648	0.246673	-0.028071
C169	C	1.063668	-0.503272	-0.931787
C170	C	1.313668	-0.253272	-0.681787
C171	C	1.563668	-0.003272	-0.431787
C172	C	1.813668	0.246728	-0.181787
C173	C	1.063678	-0.503239	-1.015121
C174	C	1.313678	-0.253239	-0.765121
C175	C	1.563678	-0.003239	-0.515121
C176	C	1.813678	0.246761	-0.265121
C177	C	1.063638	-0.503357	-0.694732
C178	C	1.313638	-0.253357	-0.444732
C179	C	1.563638	-0.003357	-0.194732
C180	C	1.813638	0.246643	0.055268
C181	C	1.063563	-0.503480	-0.163349
C182	C	1.313563	-0.253480	0.086651
C183	C	1.563563	-0.003480	0.336651
C184	C	1.813563	0.246520	0.586651
C185	C	1.063687	-0.503217	-0.081551
C186	C	1.313687	-0.253217	0.168449
C187	C	1.563687	-0.003217	0.418449
C188	C	1.813687	0.246783	0.668449
H189	H	0.633696	-0.382389	-0.440093
H190	H	0.883696	-0.132389	-0.190093
H191	H	1.133696	0.117611	0.059907
H192	H	1.383696	0.367611	0.309907
H193	H	1.025323	-1.070244	-0.392847
H194	H	1.275323	-0.820244	-0.142847
H195	H	1.525323	-0.570244	0.107153
H196	H	1.775323	-0.320244	0.357153
C197	C	0.483292	-0.363347	-0.453571
C198	C	0.733292	-0.113347	-0.203571
C199	C	0.983292	0.136653	0.046429
C200	C	1.233292	0.386653	0.296429
H201	H	0.517201	-0.323599	-0.481651
H202	H	0.767201	-0.073599	-0.231651
H203	H	1.017201	0.176401	0.018349
H204	H	1.267201	0.426401	0.268349
H205	H	0.453303	-0.317766	-0.425478
H206	H	0.703303	-0.067766	-0.175478
H207	H	0.953303	0.182234	0.074522
H208	H	1.203303	0.432234	0.324522
H209	H	0.453321	-0.403393	-0.485592
H210	H	0.703321	-0.153393	-0.235592
H211	H	0.953321	0.096607	0.014408
H212	H	1.203321	0.346607	0.264408
C213	C	1.011832	-0.951316	-0.406259
C214	C	1.261832	-0.701316	-0.156259
C215	C	1.511832	-0.451316	0.093741
C216	C	1.761832	-0.201316	0.343741
H217	H	0.983739	-0.903265	-0.434291
H218	H	1.233739	-0.653265	-0.184291
H219	H	1.483739	-0.403265	0.065709
H220	H	1.733739	-0.153265	0.315709
H221	H	0.979829	-0.993962	-0.378061
H222	H	1.229829	-0.743962	-0.128061
H223	H	1.479829	-0.493962	0.121939
H224	H	1.729829	-0.243962	0.371939
H225	H	1.040017	-0.993829	-0.438332
H226	H	1.290017	-0.743829	-0.188332
H227	H	1.540017	-0.493829	0.061668
H228	H	1.790017	-0.243829	0.311668
C229	C	1.160078	-0.882753	-0.258189
C230	C	1.410078	-0.632753	-0.008189
C231	C	1.660078	-0.382753	0.241811
C232	C	1.910078	-0.132753	0.491811
H233	H	1.188179	-0.930803	-0.230164
H234	H	1.438179	-0.680803	0.019836
H235	H	1.688179	-0.430803	0.269836
H236	H	1.938179	-0.180803	0.519836
H237	H	1.131902	-0.840232	-0.226120
H238	H	1.381902	-0.590232	0.023880
H239	H	1.631902	-0.340232	0.273880
H240	H	1.881902	-0.090232	0.523880
H241	H	1.192086	-0.840115	-0.286396
H242	H	1.442086	-0.590115	-0.036396
H243	H	1.692086	-0.340115	0.213604
H244	H	1.942086	-0.090115	0.463604
C245	C	1.162509	-0.362989	-0.774263
C246	C	1.412509	-0.112989	-0.524263
C247	C	1.662509	0.137011	-0.274263
C248	C	1.912509	0.387011	-0.024263
H249	H	1.190545	-0.323172	-0.808168
H250	H	1.440545	-0.073172	-0.558168
H251	H	1.690545	0.176828	-0.308168
H252	H	1.940545	0.426828	-0.058168
H253	H	1.194563	-0.402969	-0.744278
H254	H	1.444563	-0.152969	-0.494278
H255	H	1.694563	0.097031	-0.244278
H256	H	1.944563	0.347031	0.005722
H257	H	1.134353	-0.317461	-0.744286
H258	H	1.384353	-0.067461	-0.494286
H259	H	1.634353	0.182539	-0.244286
H260	H	1.884353	0.432539	0.005714
C261	C	1.162537	-0.362943	-0.935655
C262	C	1.412537	-0.112943	-0.685655
C263	C	1.662537	0.137057	-0.435655
C264	C	1.912537	0.387057	-0.185655
H265	H	1.190576	-0.323166	-0.901769
H266	H	1.440576	-0.073166	-0.651769
H267	H	1.690576	0.176834	-0.401769
H268	H	1.940576	0.426834	-0.151769
H269	H	1.134403	-0.317394	-0.965639
H270	H	1.384403	-0.067394	-0.715639
H271	H	1.634403	0.182606	-0.465639
H272	H	1.884403	0.432606	-0.215639
H273	H	1.194599	-0.402921	-0.965636
H274	H	1.444599	-0.152921	-0.715636
H275	H	1.694599	0.097079	-0.465636
H276	H	1.944599	0.347079	-0.215636
H277	H	0.978249	-0.624508	-0.924624
H278	H	1.228249	-0.374508	-0.674624
H279	H	1.478249	-0.124508	-0.424624
H280	H	1.728249	0.125492	-0.174624
H281	H	0.978220	-0.624562	-0.785182
H282	H	1.228220	-0.374562	-0.535182
H283	H	1.478220	-0.124562	-0.285182
H284	H	1.728220	0.125438	-0.035182
H285	H	0.494176	-0.624599	-0.269034
H286	H	0.744176	-0.374599	-0.019034
H287	H	0.994176	-0.124599	0.230966
H288	H	1.244176	0.125401	0.480966
H289	H	1.146721	-1.107497	-0.271650
H290	H	1.396721	-0.857497	-0.021650
H291	H	1.646721	-0.607497	0.228350
H292	H	1.896721	-0.357497	0.478350
C293	C	0.644595	-0.643657	-0.255554
C294	C	0.894595	-0.393657	-0.005554
C295	C	1.144595	-0.143657	0.244446
C296	C	1.394595	0.106343	0.494446
H297	H	0.610690	-0.683425	-0.227483
H298	H	0.860690	-0.433425	0.022517
H299	H	1.110690	-0.183425	0.272517
H300	H	1.360690	0.066575	0.522517
H301	H	0.674569	-0.603620	-0.223534
H302	H	0.924569	-0.353620	0.026466
H303	H	1.174569	-0.103620	0.276466
H304	H	1.424569	0.146380	0.526466
H305	H	0.674584	-0.689235	-0.283657
H306	H	0.924584	-0.439235	-0.033657
H307	H	1.174584	-0.189235	0.216343
H308	H	1.424584	0.060765	0.466343
