data_functionalizedCrystal
_audit_creation_method	'MofGen! by Chris Wilmer'
_symmetry_space_group_name_H-M	'P1'
_symmetry_Int_Tables_number	1
_symmetry_cell_setting	triclinic
loop_
_symmetry_equiv_pos_as_xyz
  x,y,z
_cell_length_a	12.759401
_cell_length_b	12.759400
_cell_length_c	12.759393
_cell_angle_alpha	90.023884
_cell_angle_beta	89.979062
_cell_angle_gamma	89.995030
loop_
_atom_site_label
_atom_site_type_symbol
_atom_site_fract_x
_atom_site_fract_y
_atom_site_fract_z
Zn1	Zn	-1.606349	-0.418173	0.594068
Zn2	Zn	-1.606274	-0.593888	0.418409
Zn3	Zn	-1.430647	-0.418229	0.418404
Zn4	Zn	-1.430674	-0.593815	0.594046
O5	O	-1.518486	-0.506026	0.506232
O6	O	-1.753360	-0.441489	0.570778
O7	O	-1.582935	-0.570641	0.271387
O8	O	-1.453975	-0.271200	0.441713
O9	O	-1.753305	-0.570586	0.441722
O10	O	-1.583061	-0.271159	0.570773
O11	O	-1.453902	-0.441584	0.271383
O12	O	-1.283630	-0.441513	0.441691
O13	O	-1.454019	-0.570461	0.741070
O14	O	-1.283649	-0.570516	0.570735
O15	O	-1.583087	-0.441418	0.741087
O16	O	-1.582960	-0.740899	0.441700
O17	O	-1.453947	-0.740846	0.570740
C18	C	-1.245519	-0.506013	0.506211
C19	C	-1.128742	-0.506033	0.506227
C20	C	-1.518477	-0.778993	0.506241
C21	C	-1.518569	-0.895770	0.506281
C22	C	-1.518564	-0.505925	0.780265
C23	C	-1.518598	-0.505882	0.897042
C24	C	-1.792519	-0.506040	0.506253
C25	C	-1.909296	-0.506046	0.506262
C26	C	-1.073918	-0.573307	0.573314
C27	C	-0.964194	-0.573311	0.573335
C28	C	-0.964128	-0.438764	0.439172
C29	C	-1.073850	-0.438756	0.439157
C30	C	-1.518523	-0.231993	0.506245
C31	C	-1.518539	-0.115216	0.506251
C32	C	-1.451342	-0.060374	0.439062
C33	C	-1.451354	0.049350	0.439079
C34	C	-1.585770	0.049380	0.573477
C35	C	-1.585752	-0.060342	0.573465
C36	C	-1.518468	-0.506051	0.233264
C37	C	-1.518638	-0.505798	0.116488
C38	C	-1.585808	-0.438678	0.951914
C39	C	-1.585826	-0.438633	1.061638
C40	C	-1.451420	-0.573004	1.061608
C41	C	-1.451398	-0.573044	0.951886
H42	H	-1.118607	-0.628086	0.627929
H43	H	-0.919560	-0.628090	0.627966
H44	H	-1.396634	0.094000	0.384369
Br45	Br	-1.676944	-0.134778	0.664668
H46	H	-1.640524	-0.383988	0.907263
Br47	Br	-1.676979	0.123859	0.664695
Br48	Br	-1.677052	-0.347432	1.136104
H49	H	-1.396660	-0.627768	0.907208
Br50	Br	-1.360123	-0.134843	0.347846
Br51	Br	-1.360228	-0.664151	1.136046
Br52	Br	-1.148261	-0.347439	0.348114
Br53	Br	-0.889625	-0.347464	0.348154
