data_functionalizedCrystal
_audit_creation_method	'MofGen! by Chris Wilmer'
_symmetry_space_group_name_H-M	'P1'
_symmetry_Int_Tables_number	1
_symmetry_cell_setting	triclinic
loop_
_symmetry_equiv_pos_as_xyz
  x,y,z
_cell_length_a	17.699077
_cell_length_b	16.974813
_cell_length_c	16.053802
_cell_angle_alpha	91.087450
_cell_angle_beta	92.575374
_cell_angle_gamma	83.338069
loop_
_atom_site_label
_atom_site_type_symbol
_atom_site_fract_x
_atom_site_fract_y
_atom_site_fract_z
O1	O	1.007646	0.096320	0.075925
O2	O	0.787317	0.109292	0.076805
O3	O	0.903268	-0.011937	0.068608
O4	O	0.891696	0.217549	0.084122
O5	O	0.896886	-0.005291	-0.069801
O6	O	0.780935	0.115937	-0.061605
O7	O	1.001264	0.102966	-0.062485
Zn8	Zn	0.890086	0.110507	-0.084020
Zn9	Zn	0.898495	0.101751	0.098340
O10	O	0.885313	0.224194	-0.054288
C11	C	0.755927	0.112151	0.007569
C12	C	0.671904	0.110759	0.007477
C13	C	0.628955	0.113725	-0.068015
C14	C	0.550007	0.112404	-0.068106
C15	C	0.514009	0.108123	0.007298
C16	C	0.556964	0.105154	0.082796
C17	C	0.635911	0.106469	0.082885
C18	C	0.238581	0.099850	0.082439
C19	C	0.159628	0.098538	0.082344
C20	C	0.152677	0.105786	-0.068552
C21	C	0.231623	0.107101	-0.068463
C22	C	0.274572	0.104127	0.007035
C23	C	0.360176	0.105558	0.007131
C24	C	0.428406	0.106698	0.007202
C25	C	0.899518	-0.037976	-0.002580
C26	C	0.897844	-0.125467	-0.008489
C27	C	0.900538	-0.170188	0.064182
C28	C	0.898961	-0.252393	0.058627
C29	C	0.894694	-0.289877	-0.019599
C30	C	0.891997	-0.245150	-0.092275
C31	C	0.893569	-0.162945	-0.086719
C32	C	0.889613	-0.535344	-0.044304
C33	C	0.888043	-0.617555	-0.049854
C34	C	0.895005	-0.624793	0.101048
C35	C	0.896582	-0.542587	0.106597
C36	C	0.893881	-0.497866	0.033921
N37	N	0.893083	-0.373905	-0.025278
N38	N	0.895486	-0.413839	0.039601
C39	C	1.032654	0.100107	0.006753
C40	C	1.116678	0.101499	0.006851
C41	C	0.889063	0.250234	0.016902
C42	C	0.890737	0.337724	0.022816
N43	N	0.884353	0.116481	-0.208477
C44	C	0.933708	0.064917	-0.255657
C45	C	0.929704	0.069104	-0.342781
C46	C	0.876349	0.124860	-0.382722
C47	C	0.826988	0.176427	-0.335535
C48	C	0.830989	0.172235	-0.248413
C49	C	0.858874	0.143146	-0.642895
C50	C	0.854879	0.147335	-0.730023
C51	C	0.957595	0.040010	-0.737263
C52	C	0.961594	0.035827	-0.650139
C53	C	0.912230	0.087391	-0.602960
N54	N	0.872257	0.129143	-0.471776
N55	N	0.916319	0.083104	-0.513908
N56	N	0.904234	0.095770	0.222796
H57	H	0.515043	0.114807	-0.129580
H58	H	0.260928	0.110591	-0.129864
H59	H	0.891365	-0.126532	-0.145895
H60	H	0.897203	-0.661213	0.160217
C61	C	0.768289	0.237752	-0.379474
N62	N	0.724075	0.283943	-0.412568
H63	H	0.117699	0.108203	-0.130025
C64	C	0.887298	-0.286384	-0.178324
N65	N	0.883760	-0.317441	-0.243139
C66	C	0.992404	0.003580	-0.211730
N67	N	1.036612	-0.042624	-0.178647
H68	H	0.969893	0.027115	-0.381195
C69	C	1.020285	-0.025513	-0.606210
N70	N	1.064493	-0.071715	-0.573124
C71	C	0.883347	-0.658785	-0.135913
N72	N	0.879810	-0.689840	-0.200729
C73	C	0.776700	0.228967	-0.196515
N74	N	0.735808	0.271700	-0.157426
H75	H	0.273540	0.097427	0.143913
H76	H	0.997783	-0.001972	-0.775684
C77	C	0.517364	0.100442	0.165740
N78	N	0.487537	0.096896	0.228216
C79	C	0.796179	0.208671	-0.773957
N80	N	0.751969	0.254867	-0.807047
H81	H	0.658257	0.117218	-0.129417
C82	C	0.120033	0.093819	0.165297
N83	N	0.090210	0.090264	0.227774
H84	H	0.818682	0.185133	-0.604489
C85	C	0.905232	-0.128963	0.150237
N86	N	0.908764	-0.097915	0.215057
H87	H	0.670879	0.104055	0.144358
C88	C	0.901994	-0.301592	0.138570
N89	N	0.904304	-0.338652	0.198787
H90	H	0.900057	-0.512073	0.170297
C91	C	0.886645	-0.486162	-0.124251
N92	N	0.884411	-0.449116	-0.184470
