data_functionalizedCrystal
_audit_creation_method	'MofGen! by Chris Wilmer'
_symmetry_space_group_name_H-M	'P1'
_symmetry_Int_Tables_number	1
_symmetry_cell_setting	triclinic
loop_
_symmetry_equiv_pos_as_xyz
  x,y,z
_cell_length_a	19.077105
_cell_length_b	15.297327
_cell_length_c	19.077174
_cell_angle_alpha	102.301226
_cell_angle_beta	85.483752
_cell_angle_gamma	97.818066
loop_
_atom_site_label
_atom_site_type_symbol
_atom_site_fract_x
_atom_site_fract_y
_atom_site_fract_z
Zn1	Zn	1.036793	-0.438342	-0.498707
Zn2	Zn	1.013211	-0.582892	-0.399571
Zn3	Zn	0.915816	-0.425731	-0.374469
Zn4	Zn	0.900112	-0.582833	-0.512681
O5	O	0.966483	-0.507450	-0.446357
O6	O	1.131627	-0.462820	-0.490214
O7	O	0.996994	-0.556791	-0.296910
O8	O	0.948305	-0.301162	-0.374596
O9	O	1.114301	-0.569019	-0.417379
O10	O	1.037187	-0.310428	-0.465873
O11	O	0.925438	-0.441326	-0.278468
O12	O	0.815771	-0.441269	-0.388146
O13	O	0.921541	-0.568919	-0.610159
O14	O	0.804234	-0.556690	-0.489690
O15	O	1.021960	-0.462762	-0.599892
O16	O	0.981766	-0.709126	-0.430929
O17	O	0.898673	-0.709082	-0.514031
C18	C	0.784602	-0.497605	-0.437711
C19	C	0.706790	-0.493417	-0.434032
C20	C	0.664232	-0.551626	-0.485112
C21	C	0.591121	-0.547678	-0.481656
C22	C	0.560569	-0.485525	-0.427118
C23	C	0.603133	-0.427310	-0.376035
C24	C	0.676243	-0.431254	-0.379494
C25	C	0.342558	-0.467273	-0.411113
C26	C	0.269442	-0.463335	-0.407657
C27	C	0.257435	-0.583703	-0.513280
C28	C	0.330546	-0.587645	-0.516731
C29	C	0.373105	-0.529427	-0.465651
N30	N	0.485838	-0.481491	-0.423583
N31	N	0.447835	-0.533457	-0.469189
C32	C	0.935976	-0.741839	-0.476737
C33	C	0.922990	-0.842116	-0.489760
C34	C	1.059593	-1.124762	-0.353534
C35	C	1.071793	-1.030546	-0.341295
C36	C	1.034594	-0.983434	-0.378410
C37	C	0.985191	-1.030547	-0.427767
C38	C	0.972985	-1.124772	-0.440003
C39	C	0.947987	-0.983444	-0.464879
C40	C	0.898584	-1.030557	-0.514236
C41	C	0.886381	-1.124773	-0.526471
C42	C	0.923580	-1.171885	-0.489356
C43	C	0.960192	-0.889219	-0.452643
C44	C	0.873585	-0.889229	-0.539112
C45	C	0.861385	-0.983445	-0.551352
C46	C	1.149074	-0.517333	-0.455038
C47	C	1.226884	-0.521545	-0.458737
C48	C	0.972629	-0.517241	-0.631501
C49	C	0.975248	-0.521413	-0.710399
C50	C	0.997128	-0.272147	-0.415876
C51	C	1.010187	-0.171875	-0.402886
C52	C	0.939225	-0.463258	-0.737862
C53	C	0.941683	-0.467186	-0.811996
C54	C	0.980167	-0.529265	-0.858663
C55	C	1.016191	-0.587426	-0.831195
C56	C	1.013729	-0.583502	-0.757064
C57	C	0.991521	-0.547451	-1.081404
C58	C	0.993982	-0.551369	-1.155540
C59	C	0.919472	-0.431130	-1.136335
C60	C	0.917017	-0.427207	-1.062203
C61	C	0.953038	-0.485372	-1.034741
N62	N	0.982682	-0.533279	-0.934440
N63	N	0.950519	-0.481361	-0.958967
C64	C	0.960409	-0.497633	-0.261927
C65	C	0.957959	-0.493214	-0.183004
H66	H	0.355416	-0.638259	-0.561141
N67	N	1.125081	-0.979735	-0.288073
H68	H	1.110442	-0.992900	-0.238965
H69	H	1.173319	-0.999389	-0.303706
N70	N	0.697183	-0.618661	-0.543936
H71	H	0.721116	-0.660520	-0.521881
H72	H	0.659090	-0.654873	-0.575752
N73	N	0.833099	-1.175587	-0.579706
H74	H	0.831012	-1.242422	-0.581826
H75	H	0.784868	-1.155890	-0.564114
N76	N	0.808101	-1.034263	-0.604584
H77	H	0.806017	-1.101098	-0.606701
H78	H	0.759870	-1.014568	-0.588989
N79	N	0.388457	-0.404470	-0.356031
H80	H	0.358007	-0.364498	-0.320960
H81	H	0.412932	-0.441005	-0.329314
N82	N	0.833454	-0.838428	-0.579144
H83	H	0.848684	-0.771592	-0.563905
H84	H	0.843863	-0.858128	-0.632499
H85	H	0.890145	-0.383776	-1.158703
H86	H	1.043069	-0.630852	-0.734704
N87	N	0.545217	-0.610469	-0.536744
H88	H	0.508486	-0.649044	-0.511811
H89	H	0.520794	-0.573921	-0.563496
N90	N	1.013482	-0.838414	-0.399420
H91	H	1.015573	-0.771578	-0.397298
H92	H	0.998806	-0.851651	-0.350344
H93	H	0.578253	-0.376700	-0.331631
H94	H	1.025324	-0.601923	-1.193536
H95	H	0.885676	-0.376658	-1.024210
N96	N	0.897725	-0.396292	-0.687529
H97	H	0.875277	-0.360048	-0.716179
H98	H	0.859524	-0.429627	-0.659985
H99	H	0.222777	-0.631100	-0.554867
N100	N	0.902851	-0.404449	-0.841627
H101	H	0.866654	-0.440972	-0.875593
H102	H	0.878146	-0.364526	-0.800780
N103	N	1.030371	-0.610180	-1.051787
H104	H	1.055126	-0.650099	-1.092600
H105	H	1.066527	-0.573585	-1.017812
H106	H	0.244571	-0.412713	-0.363248
N107	N	0.722152	-0.368478	-0.324400
H108	H	0.758881	-0.329895	-0.349327
H109	H	0.691656	-0.328564	-0.289337
H110	H	0.913651	-1.248603	-0.499320
N111	N	1.057691	-0.654394	-0.881527
H112	H	1.053785	-0.648057	-0.932657
H113	H	1.109086	-0.642381	-0.869129
H114	H	1.089870	-1.163129	-0.323316
H115	H	1.044530	-0.906719	-0.368441
