data_functionalizedCrystal
_audit_creation_method	'MofGen! by Chris Wilmer'
_symmetry_space_group_name_H-M	'P1'
_symmetry_Int_Tables_number	1
_symmetry_cell_setting	triclinic
loop_
_symmetry_equiv_pos_as_xyz
  x,y,z
_cell_length_a	10.540539
_cell_length_b	27.732048
_cell_length_c	9.016244
_cell_angle_alpha	89.992799
_cell_angle_beta	89.994699
_cell_angle_gamma	83.584073
loop_
_atom_site_label
_atom_site_type_symbol
_atom_site_fract_x
_atom_site_fract_y
_atom_site_fract_z
O1	O	1.682935	0.068112	-0.123289
O2	O	1.313244	0.074530	-0.123309
O3	O	1.509571	0.000996	-0.123270
O4	O	1.486608	0.141645	-0.123327
O5	O	1.509543	0.000998	0.123411
O6	O	1.313215	0.074531	0.123372
O7	O	1.682907	0.068113	0.123392
Cu8	Cu	1.498058	0.071322	0.145906
Cu9	Cu	1.498092	0.071321	-0.145822
O10	O	1.486579	0.141647	0.123353
C11	C	1.265947	0.074049	0.000030
C12	C	1.125062	0.072609	0.000023
C13	C	0.944031	0.017434	0.000622
C14	C	1.090586	0.018894	0.000050
C15	C	1.062283	0.098458	-0.140849
C16	C	0.915818	0.096625	-0.140950
C17	C	0.915250	0.097720	0.139571
C18	C	1.062210	0.098215	0.141418
C19	C	1.509075	-0.017013	0.000075
C20	C	1.507623	-0.070677	0.000087
C21	C	1.614502	-0.408819	0.000017
C22	C	1.609117	-0.610513	-0.000004
O23	O	1.706850	-0.641153	-0.000064
N24	N	1.492703	-0.630369	-0.000009
C25	C	1.377627	-0.599799	-0.000019
O26	O	1.278486	-0.621317	-0.000039
C27	C	1.383013	-0.398107	-0.000008
C28	C	1.499435	-0.378253	0.000012
C29	C	1.730915	-0.388965	0.000035
C30	C	1.732260	-0.338544	0.000048
C31	C	1.617193	-0.307978	0.000043
C32	C	1.500780	-0.327832	0.000025
C33	C	1.267939	-0.367538	-0.000028
C34	C	1.269296	-0.317112	-0.000030
C35	C	1.385718	-0.297258	-0.000010
C36	C	1.387058	-0.246846	0.000033
N37	N	1.503472	-0.226989	0.000038
C38	C	1.618540	-0.257555	0.000043
C39	C	1.374807	-0.705691	-0.000021
C40	C	1.373460	-0.756114	-0.000021
C41	C	1.604950	-0.766824	-0.000010
C42	C	1.606296	-0.716400	0.000001
C43	C	1.491221	-0.685834	-0.000016
C44	C	1.621356	-0.151668	0.000072
C45	C	1.622691	-0.101243	0.000092
C46	C	1.391201	-0.090538	0.000073
C47	C	1.389865	-0.140959	0.000061
C48	C	1.504953	-0.171523	0.000056
O49	O	1.289377	-0.216177	0.000076
O50	O	1.717666	-0.236029	0.000030
C51	C	1.613157	-0.459239	0.000003
C52	C	1.496745	-0.479094	-0.000015
C53	C	1.381678	-0.448528	-0.000020
C54	C	1.495398	-0.529517	-0.000015
C55	C	1.610465	-0.560083	-0.000010
C56	C	1.726879	-0.540226	-0.000005
C57	C	1.728224	-0.489806	0.000008
C58	C	1.265264	-0.468384	-0.000025
C59	C	1.263928	-0.518805	-0.000037
C60	C	1.378995	-0.549371	-0.000032
C61	C	1.730203	0.068594	0.000051
C62	C	1.871089	0.070034	0.000047
C63	C	1.487075	0.159656	0.000006
C64	C	1.488527	0.213320	-0.000016
N65	N	1.498044	0.071324	0.351092
N66	N	1.498117	0.071316	-0.351009
C67	C	1.392710	0.110527	0.586104
C68	C	1.392933	0.110674	0.414213
C69	C	1.630269	0.082796	0.413432
C70	C	1.629691	0.083074	0.585377
C71	C	1.472476	0.020519	0.585655
C72	C	1.469417	0.020848	0.413701
H73	H	0.914753	-0.003698	-0.099826
N74	N	1.262057	0.101530	0.640931
H75	H	1.242622	0.068390	0.607411
H76	H	1.260271	0.103104	0.752832
N77	N	1.731867	-0.694991	0.000017
H78	H	1.737607	-0.674306	-0.091425
H79	H	1.737499	-0.674337	0.091525
N80	N	1.850984	-0.573202	0.000010
H81	H	1.855584	-0.594356	-0.091440
H82	H	1.924878	-0.552945	0.000076
H83	H	0.866338	0.136518	0.140507
H84	H	0.888449	0.077519	-0.246238
N85	N	0.850043	0.147795	-0.149382
H86	H	0.916233	0.171441	-0.153031
H87	H	0.795551	0.151488	-0.241692
N88	N	1.748264	-0.079829	0.000122
H89	H	1.820951	-0.106847	0.000119
H90	H	1.753881	-0.059136	-0.091319
H91	H	1.133232	-0.001590	-0.101092
N92	N	1.141142	-0.435424	-0.000017
H93	H	1.136529	-0.414272	0.091436
H94	H	1.136607	-0.414289	-0.091514
H95	H	1.175585	-0.292227	-0.000046
H96	H	1.408750	0.148000	0.629283
N97	N	1.736650	0.046722	0.640488
H98	H	1.737111	0.046620	0.752506
H99	H	1.723471	0.013333	0.602958
N100	N	1.414134	0.160627	0.359672
H101	H	1.423416	0.182633	0.447328
H102	H	1.494298	0.158427	0.297532
H103	H	1.082923	0.137906	-0.146106
N104	N	1.119735	0.074675	-0.279710
H105	H	1.186412	0.047162	-0.251687
H106	H	1.050452	0.061606	-0.340059
H107	H	0.884446	0.080337	0.246350
H108	H	1.715071	-0.176549	0.000063
N109	N	1.659819	0.132162	0.638477
H110	H	1.673347	0.153417	0.550189
H111	H	1.586364	0.147795	0.699994
H112	H	1.173136	-0.383693	-0.000054
H113	H	1.295065	-0.157124	0.000086
N114	N	1.148215	-0.008054	0.133791
H115	H	1.193379	0.014737	0.197177
H116	H	1.078361	-0.020989	0.193548
H117	H	1.103980	0.079331	0.245634
N118	N	1.736593	0.046000	0.359289
H119	H	1.699983	0.021481	0.293668
H120	H	1.800155	0.063061	0.300960
N121	N	0.907383	-0.010676	0.134450
H122	H	0.843137	0.010411	0.196006
H123	H	0.868648	-0.040527	0.100744
N124	N	1.661146	0.131331	0.356355
H125	H	1.592715	0.157552	0.389303
H126	H	1.746428	0.138345	0.397100
N127	N	1.347595	0.006059	0.643156
H128	H	1.306374	0.032293	0.710856
H129	H	1.288883	0.001576	0.556939
N130	N	1.092034	0.150091	0.152673
H131	H	1.146952	0.157764	0.065885
H132	H	1.009824	0.172608	0.151464
N133	N	1.138350	-0.540216	-0.000034
H134	H	1.065667	-0.513197	-0.000034
H135	H	1.132754	-0.560897	-0.091487
N136	N	1.857829	-0.317134	0.000064
H137	H	1.930509	-0.344155	0.000062
H138	H	1.863446	-0.296444	-0.091382
N139	N	1.267097	-0.057565	0.000107
H140	H	1.285626	-0.022611	0.000123
H141	H	1.216313	-0.064028	-0.091339
H142	H	1.541272	-0.009733	0.370740
H143	H	1.824622	-0.413847	0.000033
H144	H	1.823027	-0.473646	0.000024
N145	N	1.729061	-0.799796	-0.000000
H146	H	1.710531	-0.834750	-0.000003
H147	H	1.779845	-0.793320	-0.091451
H148	H	1.278658	-0.772274	-0.000012
H149	H	1.294616	0.103771	0.372067
H150	H	1.281093	-0.680808	-0.000035
H151	H	1.372156	0.012152	0.372958
N152	N	1.574304	-0.018143	0.639516
H153	H	1.636751	-0.002856	0.704624
H154	H	1.533253	-0.043243	0.698317
