data_functionalizedCrystal
_audit_creation_method	'MofGen! by Chris Wilmer'
_symmetry_space_group_name_H-M	'P1'
_symmetry_Int_Tables_number	1
_symmetry_cell_setting	triclinic
loop_
_symmetry_equiv_pos_as_xyz
  x,y,z
_cell_length_a	27.732066
_cell_length_b	23.532407
_cell_length_c	22.010155
_cell_angle_alpha	89.989135
_cell_angle_beta	89.992007
_cell_angle_gamma	97.250611
loop_
_atom_site_label
_atom_site_type_symbol
_atom_site_fract_x
_atom_site_fract_y
_atom_site_fract_z
O1	O	-0.058671	0.755143	-0.050554
O2	O	0.441329	1.255143	0.449446
O3	O	-0.067162	0.589262	-0.050547
O4	O	0.432838	1.089262	0.449453
O5	O	0.007472	0.677349	-0.050553
O6	O	0.507472	1.177349	0.449447
O7	O	-0.133305	0.667056	-0.050549
O8	O	0.366695	1.167056	0.449451
O9	O	0.007461	0.677333	0.050497
O10	O	0.507461	1.177333	0.550497
O11	O	-0.067173	0.589246	0.050503
O12	O	0.432827	1.089246	0.550503
O13	O	-0.058683	0.755127	0.050496
O14	O	0.441317	1.255127	0.550496
Cu15	Cu	-0.062929	0.672185	0.059726
Cu16	Cu	0.437071	1.172185	0.559726
Cu17	Cu	-0.062915	0.672204	-0.059778
Cu18	Cu	0.437085	1.172204	0.440222
O19	O	-0.133316	0.667040	0.050502
O20	O	0.366684	1.167040	0.550502
C21	C	-0.066951	0.568039	-0.000021
C22	C	0.433049	1.068039	0.499979
C23	C	-0.066301	0.504823	-0.000019
C24	C	0.433699	1.004823	0.499981
C25	C	0.025473	0.677123	-0.000030
C26	C	0.525473	1.177123	0.499970
C27	C	0.079129	0.676468	-0.000035
C28	C	0.579129	1.176468	0.499965
C29	C	0.456288	0.619951	-0.000032
C30	C	0.956288	1.119951	0.499968
C31	C	0.254624	0.622363	-0.000034
C32	C	0.754624	1.122363	0.499966
O33	O	0.223439	0.578510	-0.000057
O34	O	0.723439	1.078510	0.499943
N35	N	0.235416	0.674597	-0.000037
N36	N	0.735416	1.174597	0.499963
C37	C	0.266628	0.726232	-0.000043
C38	C	0.766628	1.226232	0.499957
O39	O	0.245663	0.770716	-0.000051
O40	O	0.745663	1.270716	0.499949
C41	C	0.468291	0.723820	-0.000045
C42	C	0.968291	1.223820	0.499955
C43	C	0.487496	0.671582	-0.000036
C44	C	0.987496	1.171582	0.499964
C45	C	0.475493	0.567717	-0.000024
C46	C	0.975493	1.067717	0.499976
C47	C	0.525906	0.567115	-0.000020
C48	C	1.025906	1.067115	0.499980
C49	C	0.557114	0.618746	-0.000024
C50	C	1.057114	1.118746	0.499976
C51	C	0.537909	0.670979	-0.000032
C52	C	1.037909	1.170979	0.499968
C53	C	0.499502	0.775454	-0.000055
C54	C	0.999502	1.275454	0.499945
C55	C	0.549920	0.774846	-0.000057
C56	C	1.049920	1.274846	0.499943
C57	C	0.569125	0.722608	-0.000048
C58	C	1.069125	1.222608	0.499952
C59	C	0.619529	0.722008	-0.000032
C60	C	1.119529	1.222008	0.499968
N61	N	0.638737	0.669773	-0.000030
N62	N	1.138737	1.169773	0.499970
C63	C	0.607529	0.618142	-0.000026
C64	C	1.107529	1.118142	0.499974
C65	C	0.160752	0.727496	-0.000040
C66	C	0.660752	1.227496	0.499960
C67	C	0.110336	0.728099	-0.000039
C68	C	0.610336	1.228099	0.499961
C69	C	0.098336	0.624229	-0.000032
C70	C	0.598336	1.124229	0.499968
C71	C	0.148752	0.623627	-0.000029
C72	C	0.648752	1.123627	0.499971
C73	C	0.179960	0.675261	-0.000038
C74	C	0.679960	1.175261	0.499962
C75	C	0.713401	0.616881	-0.000017
C76	C	1.213401	1.116881	0.499983
C77	C	0.763819	0.616283	-0.000011
C78	C	1.263819	1.116283	0.499989
C79	C	0.775815	0.720152	-0.000021
C80	C	1.275815	1.220152	0.499979
C81	C	0.725401	0.720751	-0.000024
C82	C	1.225401	1.220751	0.499976
C83	C	0.694195	0.669110	-0.000025
C84	C	1.194195	1.169110	0.499975
O85	O	0.650743	0.765838	-0.000017
O86	O	1.150743	1.265838	0.499983
O87	O	0.628504	0.573665	-0.000031
O88	O	1.128504	1.073665	0.499969
C89	C	0.405875	0.620553	-0.000036
C90	C	0.905875	1.120553	0.499964
C91	C	0.386670	0.672787	-0.000044
C92	C	0.886670	1.172787	0.499956
C93	C	0.417877	0.724418	-0.000048
C94	C	0.917877	1.224418	0.499952
C95	C	0.336254	0.673390	-0.000042
C96	C	0.836254	1.173390	0.499958
C97	C	0.305047	0.621759	-0.000038
C98	C	0.805047	1.121759	0.499962
C99	C	0.324254	0.569525	-0.000036
C100	C	0.824254	1.069525	0.499964
C101	C	0.374667	0.568922	-0.000032
C102	C	0.874667	1.068922	0.499968
C103	C	0.398670	0.776652	-0.000050
C104	C	0.898670	1.276652	0.499950
C105	C	0.348256	0.777251	-0.000054
C106	C	0.848256	1.277251	0.499946
C107	C	0.317048	0.725620	-0.000050
C108	C	0.817048	1.225620	0.499950
C109	C	-0.058893	0.776351	-0.000031
C110	C	0.441107	1.276351	0.499969
C111	C	-0.059543	0.839566	-0.000038
C112	C	0.440457	1.339566	0.499962
C113	C	0.848682	0.667264	-0.000021
C114	C	1.348682	1.167264	0.499979
C115	C	0.795026	0.667914	-0.000015
C116	C	1.295026	1.167914	0.499985
N117	N	-0.062938	0.672176	0.143779
N118	N	0.437062	1.172176	0.643779
C119	C	-0.019454	1.238752	-0.000018
C120	C	0.480546	1.738752	0.499982
C121	C	-0.020058	1.298151	-0.000015
C122	C	0.479942	1.798151	0.499985
O123	O	0.017106	1.334972	0.000005
O124	O	0.517106	1.834972	0.500005
N125	N	-0.064427	1.320686	-0.000016
N126	N	0.435573	1.820686	0.499984
C127	C	-0.108196	1.283818	-0.000013
C128	C	0.391804	1.783818	0.499987
O129	O	-0.145991	1.308440	-0.000012
O130	O	0.354009	1.808440	0.499988
C131	C	-0.107591	1.224420	-0.000011
C132	C	0.392409	1.724420	0.499989
C133	C	-0.063219	1.201889	-0.000017
C134	C	0.436781	1.701889	0.499983
C135	C	0.024915	1.216220	-0.000023
C136	C	0.524915	1.716220	0.499977
C137	C	0.025519	1.156825	-0.000027
C138	C	0.525519	1.656825	0.499973
C139	C	-0.018247	1.119962	-0.000026
C140	C	0.481753	1.619962	0.499974
C141	C	-0.062615	1.142494	-0.000021
C142	C	0.437385	1.642494	0.499979
C143	C	-0.151359	1.187554	-0.000004
C144	C	0.348641	1.687554	0.499996
C145	C	-0.150751	1.128152	-0.000002
C146	C	0.349249	1.628152	0.499998
C147	C	-0.106379	1.105621	-0.000007
C148	C	0.393621	1.605621	0.499993
C149	C	-0.105777	1.046236	-0.000023
C150	C	0.394223	1.546236	0.499977
N151	N	-0.061407	1.023701	-0.000023
N152	N	0.438593	1.523701	0.499977
C153	C	-0.017642	1.060564	-0.000024
C154	C	0.482358	1.560564	0.499976
C155	C	-0.109461	1.408558	-0.000015
C156	C	0.390539	1.908558	0.499985
C157	C	-0.110066	1.467955	-0.000021
C158	C	0.389934	1.967955	0.499979
C159	C	-0.021928	1.482283	-0.000022
C160	C	0.478072	1.982283	0.499978
C161	C	-0.021324	1.422886	-0.000021
C162	C	0.478676	1.922886	0.499979
C163	C	-0.065092	1.386023	-0.000015
C164	C	0.434908	1.886023	0.499985
C165	C	-0.016378	0.935830	-0.000033
C166	C	0.483622	1.435830	0.499967
C167	C	-0.015778	0.876429	-0.000039
C168	C	0.484222	1.376429	0.499961
C169	C	-0.103916	0.862106	-0.000034
C170	C	0.396084	1.362106	0.499966
C171	C	-0.104516	0.921501	-0.000031
C172	C	0.395484	1.421501	0.499969
C173	C	-0.060743	0.958363	-0.000028
C174	C	0.439257	1.458363	0.499972
O175	O	-0.142920	1.009380	-0.000041
O176	O	0.357080	1.509380	0.499959
O177	O	0.020147	1.035934	-0.000016
O178	O	0.520147	1.535934	0.499984
N179	N	-0.062903	0.672218	-0.143830
N180	N	0.437097	1.172218	0.356170
C181	C	-0.029872	0.711211	0.563556
C182	C	0.470128	1.211211	1.063556
C183	C	-0.029869	0.711214	0.627163
C184	C	0.470131	1.211214	1.127163
O185	O	-0.001762	0.744380	0.660052
O186	O	0.498238	1.244380	1.160052
N187	N	-0.062905	0.672204	0.658986
N188	N	0.437095	1.172204	1.158986
C189	C	-0.095944	0.633185	0.627197
C190	C	0.404056	1.133185	1.127197
O191	O	-0.124043	0.600003	0.660106
O192	O	0.375957	1.100003	1.160106
C193	C	-0.095944	0.633180	0.563591
C194	C	0.404056	1.133180	1.063591
C195	C	-0.062909	0.672196	0.531772
C196	C	0.437091	1.172196	1.031772
C197	C	0.003160	0.750224	0.531736
C198	C	0.503160	1.250224	1.031736
C199	C	0.003156	0.750222	0.468133
C200	C	0.503156	1.250222	0.968133
C201	C	-0.029881	0.711207	0.436349
C202	C	0.470119	1.211207	0.936349
C203	C	-0.062913	0.672194	0.468168
C204	C	0.437087	1.172194	0.968168
C205	C	-0.128980	0.594158	0.531804
C206	C	0.371020	1.094158	1.031804
C207	C	-0.128978	0.594157	0.468193
C208	C	0.371022	1.094157	0.968193
C209	C	-0.095943	0.633173	0.436374
C210	C	0.404057	1.133173	0.936374
C211	C	-0.095954	0.633177	0.372781
C212	C	0.404046	1.133177	0.872781
N213	N	-0.062918	0.672187	0.340959
N214	N	0.437082	1.172187	0.840959
C215	C	-0.029881	0.711202	0.372743
C216	C	0.470119	1.211202	0.872743
C217	C	-0.095939	0.633197	0.760775
C218	C	0.404061	1.133197	1.260775
C219	C	-0.095941	0.633204	0.824380
C220	C	0.404059	1.133204	1.324380
C221	C	-0.029866	0.711233	0.824342
C222	C	0.470134	1.211233	1.324342
C223	C	-0.029867	0.711228	0.760735
C224	C	0.470133	1.211228	1.260735
C225	C	-0.062903	0.672207	0.728953
C226	C	0.437097	1.172207	1.228953
C227	C	-0.029893	0.711195	0.239171
C228	C	0.470107	1.211195	0.739171
C229	C	-0.029901	0.711191	0.175562
C230	C	0.470099	1.211191	0.675562
C231	C	-0.095974	0.633161	0.175607
C232	C	0.404026	1.133161	0.675607
C233	C	-0.095968	0.633166	0.239210
C234	C	0.404032	1.133166	0.739210
C235	C	-0.062923	0.672186	0.270991
C236	C	0.437077	1.172186	0.770991
O237	O	-0.124045	0.600026	0.339852
O238	O	0.375955	1.100026	0.839852
O239	O	-0.001782	0.744373	0.339827
O240	O	0.498218	1.244373	0.839827
H241	H	0.687998	0.574831	-0.000018
H242	H	1.187998	1.074831	0.499982
O243	O	-0.127973	0.595241	0.729876
O244	O	0.372027	1.095241	1.229876
C245	C	-0.138614	0.517389	0.658064
C246	C	0.361386	1.017389	1.158064
C247	C	-0.102284	0.560332	0.693026
C248	C	0.397716	1.060332	1.193026
H249	H	-0.117859	0.489161	0.628253
H250	H	0.382141	0.989161	1.128253
H251	H	-0.162218	0.489471	0.691711
H252	H	0.337782	0.989471	1.191711
H253	H	-0.162666	0.541775	0.628312
H254	H	0.337334	1.041775	1.128312
H255	H	-0.078200	0.535992	0.722778
H256	H	0.421800	1.035992	1.222778
H257	H	-0.078714	0.588249	0.659346
H258	H	0.421286	1.088249	1.159346
H259	H	0.094705	0.770636	-0.000036
H260	H	0.594705	1.270636	0.499964
O261	O	0.035188	0.788151	0.562672
O262	O	0.535188	1.288151	1.062672
C263	C	0.045815	0.866060	0.634416
C264	C	0.545815	1.366060	1.134416
C265	C	0.009491	0.823124	0.599436
C266	C	0.509491	1.323124	1.099436
H267	H	0.025053	0.894354	0.664138
H268	H	0.525053	1.394354	1.164138
H269	H	0.069857	0.841726	0.664240
H270	H	0.569857	1.341726	1.164240
H271	H	0.069430	0.893912	0.600726
H272	H	0.569430	1.393912	1.100726
H273	H	-0.014156	0.795260	0.633082
H274	H	0.485844	1.295260	1.133082
H275	H	-0.014517	0.847492	0.569603
H276	H	0.485483	1.347492	1.069603
O277	O	0.002226	0.749152	0.269943
O278	O	0.502226	1.249152	0.769943
C279	C	0.067781	0.826522	0.263175
C280	C	0.567781	1.326522	0.763175
C281	C	0.031429	0.783575	0.228251
C282	C	0.531429	1.283575	0.728251
H283	H	0.091408	0.854356	0.229482
H284	H	0.591408	1.354356	0.729482
H285	H	0.047064	0.854833	0.292936
H286	H	0.547064	1.354833	0.792936
H287	H	0.091807	0.802140	0.292968
H288	H	0.591807	1.302140	0.792968
H289	H	0.007394	0.807910	0.198424
H290	H	0.507394	1.307910	0.698424
H291	H	0.052176	0.755265	0.198528
H292	H	0.552176	1.255265	0.698528
H293	H	-0.140648	0.939847	-0.000027
H294	H	0.359352	1.439847	0.499973
O295	O	0.021749	1.400933	0.000059
O296	O	0.521749	1.900933	0.500059
C297	C	0.073597	1.342219	0.052430
C298	C	0.573597	1.842219	0.552430
C299	C	0.024794	1.367026	0.052407
C300	C	0.524794	1.867026	0.552407
H301	H	0.076079	1.314810	0.094755
H302	H	0.576079	1.814810	0.594755
H303	H	0.076098	1.314739	0.010171
H304	H	0.576098	1.814739	0.510171
H305	H	0.104762	1.378785	0.052397
H306	H	0.604762	1.878785	0.552397
H307	H	-0.006399	1.330498	0.052461
H308	H	0.493601	1.830498	0.552461
H309	H	0.022335	1.394523	0.094662
H310	H	0.522335	1.894523	0.594662
H311	H	0.450088	0.525671	-0.000023
H312	H	0.950088	1.025671	0.499977
O313	O	0.035245	0.788034	0.437116
O314	O	0.535245	1.288034	0.937116
C315	C	0.046103	0.865644	0.364988
C316	C	0.546103	1.365644	0.864988
C317	C	0.009666	0.822955	0.400136
C318	C	0.509666	1.322955	0.900136
H319	H	0.025437	0.893881	0.335072
H320	H	0.525437	1.393881	0.835072
H321	H	0.069798	0.893578	0.398513
H322	H	0.569798	1.393578	0.898513
H323	H	0.070054	0.841043	0.335325
H324	H	0.570054	1.341043	0.835325
H325	H	-0.014317	0.847509	0.429800
H326	H	0.485683	1.347509	0.929800
H327	H	-0.013995	0.795022	0.366578
H328	H	0.486005	1.295022	0.866578
H329	H	-0.002965	0.743000	0.850232
H330	H	0.497035	1.243000	1.350232
H331	H	0.072918	0.582189	-0.000026
H332	H	0.572918	1.082189	0.499974
O333	O	0.190995	0.777709	-0.000017
O334	O	0.690995	1.277709	0.499983
C335	C	0.197563	0.880796	-0.000053
C336	C	0.697563	1.380796	0.499947
C337	C	0.163261	0.823972	-0.000070
C338	C	0.663261	1.323972	0.499930
H339	H	0.175155	0.918214	-0.000109
H340	H	0.675155	1.418214	0.499891
H341	H	0.221452	0.883147	0.042246
H342	H	0.721452	1.383147	0.542246
H343	H	0.221482	0.883092	-0.042333
H344	H	0.721482	1.383092	0.457667
H345	H	0.139312	0.821637	0.042181
H346	H	0.639312	1.321637	0.542181
H347	H	0.139406	0.821645	-0.042397
H348	H	0.639406	1.321645	0.457603
H349	H	0.483874	0.817991	-0.000062
H350	H	0.983874	1.317991	0.499938
H351	H	0.575327	0.816894	-0.000068
H352	H	1.075327	1.316894	0.499932
H353	H	-0.155880	0.562388	0.557702
H354	H	0.344120	1.062388	1.057702
O355	O	0.002271	0.749032	0.729780
O356	O	0.502271	1.249032	1.229780
C357	C	0.068407	0.761680	0.658047
C358	C	0.568407	1.261680	1.158047
C359	C	0.032012	0.718813	0.693039
C360	C	0.532012	1.218813	1.193039
H361	H	0.092470	0.737264	0.628343
H362	H	0.592470	1.237264	1.128343
H363	H	0.047726	0.789963	0.628203
H364	H	0.547726	1.289963	1.128203
H365	H	0.091993	0.789553	0.691729
H366	H	0.591993	1.289553	1.191729
H367	H	0.008418	0.690902	0.659401
H368	H	0.508418	1.190902	1.159401
H369	H	0.052723	0.690570	0.722892
H370	H	0.552723	1.190570	1.222892
H371	H	0.060556	1.246229	-0.000022
H372	H	0.560556	1.746229	0.499978
H373	H	0.013708	1.512308	-0.000023
H374	H	0.513708	2.012308	0.499977
H375	H	-0.146199	1.486294	-0.000025
H376	H	0.353801	1.986294	0.499975
H377	H	0.709764	0.763287	-0.000023
H378	H	1.209764	1.263287	0.499977
O379	O	-0.128053	0.595253	0.855192
O380	O	0.371947	1.095253	1.355192
C381	C	-0.193609	0.517881	0.848499
C382	C	0.306391	1.017881	1.348499
C383	C	-0.157263	0.560826	0.813533
C384	C	0.342737	1.060826	1.313533
H385	H	-0.217241	0.490044	0.814834
H386	H	0.282759	0.990044	1.314834
H387	H	-0.172887	0.489574	0.878262
H388	H	0.327113	0.989574	1.378262
H389	H	-0.217630	0.542266	0.878295
H390	H	0.282370	1.042266	1.378295
H391	H	-0.133232	0.536488	0.783704
H392	H	0.366768	1.036488	1.283704
H393	H	-0.178015	0.589133	0.783809
H394	H	0.321985	1.089133	1.283809
H395	H	-0.139548	0.832081	-0.000036
H396	H	0.360452	1.332081	0.499964
O397	O	-0.128108	0.595347	0.270148
O398	O	0.371892	1.095347	0.770148
C399	C	-0.194154	0.582632	0.342008
C400	C	0.305846	1.082632	0.842008
C401	C	-0.157793	0.625531	0.307006
C402	C	0.342207	1.125531	0.807006
H403	H	-0.218157	0.607019	0.371826
H404	H	0.281843	1.107019	0.871826
H405	H	-0.217801	0.554757	0.308387
H406	H	0.282199	1.054757	0.808387
H407	H	-0.173393	0.554353	0.371756
H408	H	0.326607	1.054353	0.871756
H409	H	-0.178514	0.653847	0.277257
H410	H	0.321486	1.153847	0.777257
H411	H	-0.134146	0.653366	0.340660
H412	H	0.365854	1.153366	0.840660
O413	O	0.167463	0.572919	-0.000107
O414	O	0.667463	1.072919	0.499893
C415	C	0.217390	0.511942	-0.052478
C416	C	0.717390	1.011942	0.447522
C417	C	0.196245	0.569395	-0.052456
C418	C	0.696245	1.069395	0.447544
H419	H	0.240656	0.509068	-0.094804
H420	H	0.740656	1.009068	0.405196
H421	H	0.240721	0.509044	-0.010220
H422	H	0.740721	1.009044	0.489780
H423	H	0.186412	0.475156	-0.052444
H424	H	0.686412	0.975156	0.447556
H425	H	0.227192	0.606214	-0.052512
H426	H	0.727192	1.106214	0.447488
H427	H	0.172901	0.572243	-0.094711
H428	H	0.672901	1.072243	0.405289
H429	H	-0.155879	0.562379	0.442319
H430	H	0.344121	1.062379	0.942319
H431	H	-0.003000	0.742965	0.149657
H432	H	0.497000	1.242965	0.649657
H433	H	0.541538	0.524578	-0.000019
H434	H	1.041538	1.024578	0.499981
O435	O	-0.128130	0.595318	0.144752
O436	O	0.371870	1.095318	0.644752
C437	C	-0.212322	0.561176	0.125329
C438	C	0.287678	1.061176	0.625329
C439	C	-0.175962	0.604075	0.160301
C440	C	0.324038	1.104075	0.660301
H441	H	-0.251002	0.568232	0.137897
H442	H	0.248998	1.068232	0.637897
H443	H	-0.206686	0.567878	0.074396
H444	H	0.293314	1.067878	0.574396
H445	H	-0.206190	0.515624	0.137835
H446	H	0.293810	1.015624	0.637835
H447	H	-0.182072	0.649644	0.147846
H448	H	0.317928	1.149644	0.647846
H449	H	-0.181607	0.597323	0.211225
H450	H	0.318393	1.097323	0.711225
O451	O	-0.194454	1.209452	-0.000113
O452	O	0.305546	1.709452	0.499887
C453	C	-0.246287	1.268204	-0.052455
C454	C	0.253713	1.768204	0.447545
C455	C	-0.197466	1.243438	-0.052409
C456	C	0.302534	1.743438	0.447591
H457	H	-0.248734	1.295696	-0.094725
H458	H	0.251266	1.795696	0.405275
H459	H	-0.277473	1.231662	-0.052493
H460	H	0.222527	1.731662	0.447507
H461	H	-0.248784	1.295622	-0.010148
H462	H	0.251216	1.795622	0.489852
H463	H	-0.194922	1.216027	-0.094708
H464	H	0.305078	1.716027	0.405292
H465	H	-0.166304	1.280006	-0.052339
H466	H	0.333696	1.780006	0.447661
O467	O	0.806086	0.770341	-0.000109
O468	O	1.306086	1.270341	0.499891
C469	C	0.831809	0.858913	-0.052500
C470	C	1.331809	1.358913	0.447500
C471	C	0.797489	0.802103	-0.052462
C472	C	1.297489	1.302103	0.447538
H473	H	0.824877	0.884604	-0.094830
H474	H	1.324877	1.384604	0.405170
H475	H	0.824851	0.884685	-0.010245
H476	H	1.324851	1.384685	0.489755
H477	H	0.871135	0.849489	-0.052470
H478	H	1.371135	1.349489	0.447530
H479	H	0.758150	0.811475	-0.052514
H480	H	1.258150	1.311475	0.447486
H481	H	0.804489	0.776349	-0.094714
H482	H	1.304489	1.276349	0.405286
H483	H	0.779452	0.573743	-0.000001
H484	H	1.279452	1.073743	0.499999
H485	H	0.390299	0.526385	-0.000025
H486	H	0.890299	1.026385	0.499975
H487	H	0.298836	0.527485	-0.000029
H488	H	0.798836	1.027485	0.499971
H489	H	-0.145105	1.378547	-0.000014
H490	H	0.354895	1.878547	0.499986
H491	H	0.332625	0.819792	-0.000056
H492	H	0.832625	1.319792	0.499944
O493	O	0.428912	0.826861	-0.000024
O494	O	0.928912	1.326861	0.499976
C495	C	0.435482	0.929948	-0.000059
C496	C	0.935482	1.429948	0.499941
C497	C	0.401180	0.873124	-0.000080
C498	C	0.901180	1.373124	0.499920
H499	H	0.413074	0.967367	-0.000118
H500	H	0.913074	1.467367	0.499882
H501	H	0.459368	0.932298	0.042243
H502	H	0.959368	1.432298	0.542243
H503	H	0.459404	0.932245	-0.042336
H504	H	0.959404	1.432245	0.457664
H505	H	0.377227	0.870790	0.042168
H506	H	0.877227	1.370790	0.542168
H507	H	0.377327	0.870798	-0.042411
H508	H	0.877327	1.370798	0.457589
O509	O	0.027358	0.854611	-0.000124
O510	O	0.527358	1.354611	0.499876
C511	C	0.102868	0.848679	-0.052496
C512	C	0.602868	1.348679	0.447504
C513	C	0.054042	0.873434	-0.052470
C514	C	0.554042	1.373434	0.447530
H515	H	0.124452	0.863877	-0.094820
H516	H	0.624452	1.363877	0.405180
H517	H	0.124509	0.863900	-0.010235
H518	H	0.624509	1.363900	0.489765
H519	H	0.095775	0.799895	-0.052470
H520	H	0.595775	1.299895	0.447530
H521	H	0.061091	0.922219	-0.052517
H522	H	0.561091	1.422219	0.447483
H523	H	0.032416	0.858169	-0.094727
H524	H	0.532416	1.358169	0.405273
O525	O	0.026111	0.971690	-0.000115
O526	O	0.526111	1.471690	0.499885
C527	C	0.076605	1.047046	-0.052492
C528	C	0.576605	1.547046	0.447508
C529	C	0.028465	1.006478	-0.052461
C530	C	0.528465	1.506478	0.447539
H531	H	0.078529	1.075175	-0.094816
H532	H	0.578529	1.575175	0.405184
H533	H	0.078535	1.075245	-0.010232
H534	H	0.578535	1.575245	0.489768
H535	H	0.108408	1.020719	-0.052468
H536	H	0.608408	1.520719	0.447532
H537	H	-0.003365	1.032760	-0.052507
H538	H	0.496635	1.532760	0.447493
H539	H	0.026578	0.978278	-0.094718
H540	H	0.526578	1.478278	0.405282
H541	H	0.061651	1.138486	-0.000029
H542	H	0.561651	1.638486	0.499971
H543	H	-0.186393	1.098141	0.000006
H544	H	0.313607	1.598141	0.500006
