data_functionalizedCrystal
_audit_creation_method	'MofGen! by Chris Wilmer'
_symmetry_space_group_name_H-M	'P1'
_symmetry_Int_Tables_number	1
_symmetry_cell_setting	triclinic
loop_
_symmetry_equiv_pos_as_xyz
  x,y,z
_cell_length_a	16.625548
_cell_length_b	13.897448
_cell_length_c	13.897441
_cell_angle_alpha	89.969401
_cell_angle_beta	90.021870
_cell_angle_gamma	89.981240
loop_
_atom_site_label
_atom_site_type_symbol
_atom_site_fract_x
_atom_site_fract_y
_atom_site_fract_z
Zn1	Zn	1.232718	0.383957	0.545410
Zn2	Zn	1.482718	0.633957	0.795410
Zn3	Zn	1.732718	0.883957	1.045410
Zn4	Zn	1.982718	1.133957	1.295410
Zn5	Zn	1.232629	0.545278	0.384112
Zn6	Zn	1.482629	0.795278	0.634112
Zn7	Zn	1.732629	1.045278	0.884112
Zn8	Zn	1.982629	1.295278	1.134112
Zn9	Zn	1.097876	0.384002	0.384126
Zn10	Zn	1.347876	0.634002	0.634126
Zn11	Zn	1.597876	0.884002	0.884126
Zn12	Zn	1.847876	1.134002	1.134126
Zn13	Zn	1.097861	0.545214	0.545361
Zn14	Zn	1.347861	0.795214	0.795361
Zn15	Zn	1.597861	1.045214	1.045361
Zn16	Zn	1.847861	1.295214	1.295361
O17	O	1.165271	0.464613	0.464752
O18	O	1.415271	0.714613	0.714752
O19	O	1.665271	0.964613	0.964752
O20	O	1.915271	1.214613	1.214752
O21	O	1.345538	0.405364	0.524029
O22	O	1.595538	0.655364	0.774029
O23	O	1.845538	0.905364	1.024029
O24	O	2.095538	1.155364	1.274029
O25	O	1.214723	0.523930	0.249132
O26	O	1.464723	0.773930	0.499132
O27	O	1.714723	1.023930	0.749132
O28	O	1.964723	1.273930	0.999132
O29	O	1.115807	0.249014	0.405547
O30	O	1.365807	0.499014	0.655547
O31	O	1.615807	0.749014	0.905547
O32	O	1.865807	0.999014	1.155547
O33	O	1.345473	0.523886	0.405523
O34	O	1.595473	0.773886	0.655523
O35	O	1.845473	1.023886	0.905523
O36	O	2.095473	1.273886	1.155523
O37	O	1.214874	0.248981	0.524042
O38	O	1.464874	0.498981	0.774042
O39	O	1.714874	0.748981	1.024042
O40	O	1.964874	0.998981	1.274042
O41	O	1.115721	0.405441	0.249142
O42	O	1.365721	0.655441	0.499142
O43	O	1.615721	0.905441	0.749142
O44	O	1.865721	1.155441	0.999142
O45	O	0.985042	0.405379	0.405499
O46	O	1.235042	0.655379	0.655499
O47	O	1.485042	0.905379	0.905499
O48	O	1.735042	1.155379	1.155499
O49	O	1.115781	0.523777	0.680349
O50	O	1.365781	0.773777	0.930349
O51	O	1.615781	1.023777	1.180349
O52	O	1.865781	1.273777	1.430349
O53	O	0.985031	0.523821	0.523958
O54	O	1.235031	0.773821	0.773958
O55	O	1.485031	1.023821	1.023958
O56	O	1.735031	1.273821	1.273958
O57	O	1.214859	0.405302	0.680386
O58	O	1.464859	0.655302	0.930386
O59	O	1.714859	0.905302	1.180386
O60	O	1.964859	1.155302	1.430386
O61	O	1.214708	0.680251	0.405476
O62	O	1.464708	0.930251	0.655476
O63	O	1.714708	1.180251	0.905476
O64	O	1.964708	1.430251	1.155476
O65	O	1.115695	0.680204	0.523945
O66	O	1.365695	0.930204	0.773945
O67	O	1.615695	1.180204	1.023945
O68	O	1.865695	1.430204	1.273945
C69	C	1.165212	0.715227	0.464724
C70	C	1.415212	0.965227	0.714724
C71	C	1.665212	1.215227	0.964724
C72	C	1.915212	1.465227	1.214724
C73	C	1.165261	0.822441	0.464745
C74	C	1.415261	1.072441	0.714745
C75	C	1.665261	1.322441	0.964745
C76	C	1.915261	1.572441	1.214745
C77	C	0.955780	0.464599	0.464725
C78	C	1.205780	0.714599	0.714725
C79	C	1.455780	0.964599	0.964725
C80	C	1.705780	1.214599	1.214725
C81	C	0.866159	0.464616	0.464737
C82	C	1.116159	0.714616	0.714737
C83	C	1.366159	0.964616	0.964737
C84	C	1.616159	1.214616	1.214737
C85	C	1.165328	0.464528	0.716345
C86	C	1.415328	0.714528	0.966345
C87	C	1.665328	0.964528	1.216345
C88	C	1.915328	1.214528	1.466345
C89	C	1.165353	0.464491	0.823559
C90	C	1.415353	0.714491	1.073559
C91	C	1.665353	0.964491	1.323559
C92	C	1.915353	1.214491	1.573559
C93	C	0.537983	0.464623	0.464778
C94	C	0.787983	0.714623	0.714778
C95	C	1.037983	0.964623	0.964778
C96	C	1.287983	1.214623	1.214778
C97	C	0.629292	0.464618	0.464763
C98	C	0.879292	0.714618	0.714763
C99	C	1.129292	0.964618	0.964763
C100	C	1.379292	1.214618	1.214763
C101	C	0.702068	0.464620	0.464757
C102	C	0.952068	0.714620	0.714757
C103	C	1.202068	0.964620	0.964757
C104	C	1.452068	1.214620	1.214757
C105	C	0.793383	0.464615	0.464743
C106	C	1.043383	0.714615	0.714743
C107	C	1.293383	0.964615	0.964743
C108	C	1.543383	1.214615	1.214743
C109	C	1.375580	0.464627	0.464780
C110	C	1.625580	0.714627	0.714780
C111	C	1.875580	0.964627	0.964780
C112	C	2.125580	1.214627	1.214780
C113	C	1.465201	0.464634	0.464792
C114	C	1.715201	0.714634	0.714792
C115	C	1.965201	0.964634	0.964792
C116	C	2.215201	1.214634	1.214792
C117	C	1.165352	0.213020	0.464801
C118	C	1.415352	0.463020	0.714801
C119	C	1.665352	0.713020	0.964801
C120	C	1.915352	0.963020	1.214801
C121	C	1.165387	0.105806	0.464822
C122	C	1.415387	0.355806	0.714822
C123	C	1.665387	0.605806	0.964822
C124	C	1.915387	0.855806	1.214822
C125	C	1.165345	1.018736	0.464805
C126	C	1.415345	1.268736	0.714805
C127	C	1.665345	1.518736	0.964805
C128	C	1.915345	1.768736	1.214805
C129	C	1.165296	0.909504	0.464774
C130	C	1.415296	1.159504	0.714774
C131	C	1.665296	1.409504	0.964774
C132	C	1.915296	1.659504	1.214774
C133	C	1.165260	0.464628	0.214138
C134	C	1.415260	0.714628	0.464138
C135	C	1.665260	0.964628	0.714138
C136	C	1.915260	1.214628	0.964138
C137	C	1.165392	0.464393	0.106925
C138	C	1.415392	0.714393	0.356925
C139	C	1.665392	0.964393	0.606925
C140	C	1.915392	1.214393	0.856925
C141	C	1.165374	0.464426	1.019855
C142	C	1.415374	0.714426	1.269855
C143	C	1.665374	0.964426	1.519855
C144	C	1.915374	1.214426	1.769855
C145	C	1.165360	0.464465	0.910622
C146	C	1.415360	0.714465	1.160622
C147	C	1.665360	0.964465	1.410622
C148	C	1.915360	1.214465	1.660622
