data_functionalizedCrystal
_audit_creation_method	'MofGen! by Chris Wilmer'
_symmetry_space_group_name_H-M	'P1'
_symmetry_Int_Tables_number	1
_symmetry_cell_setting	triclinic
loop_
_symmetry_equiv_pos_as_xyz
  x,y,z
_cell_length_a	23.532407
_cell_length_b	23.532407
_cell_length_c	22.010155
_cell_angle_alpha	89.984989
_cell_angle_beta	89.989642
_cell_angle_gamma	82.848717
loop_
_atom_site_label
_atom_site_type_symbol
_atom_site_fract_x
_atom_site_fract_y
_atom_site_fract_z
O1	O	-0.755269	-0.069133	0.050463
O2	O	-0.421936	0.264200	0.383796
O3	O	-0.088602	0.597533	0.717130
O4	O	-0.589406	-0.079137	0.050483
O5	O	-0.256072	0.254197	0.383816
O6	O	0.077261	0.587530	0.717149
O7	O	-0.677339	0.008797	0.050452
O8	O	-0.344005	0.342130	0.383785
O9	O	-0.010672	0.675463	0.717119
O10	O	-0.667336	-0.157067	0.050493
O11	O	-0.334002	0.176267	0.383827
O12	O	-0.000669	0.509600	0.717160
O13	O	-0.677312	0.008797	-0.050598
O14	O	-0.343979	0.342130	0.282735
O15	O	-0.010646	0.675463	0.616068
O16	O	-0.589379	-0.079137	-0.050568
O17	O	-0.256046	0.254197	0.282766
O18	O	0.077287	0.587530	0.616099
O19	O	-0.755243	-0.069133	-0.050587
O20	O	-0.421909	0.264200	0.282746
O21	O	-0.088576	0.597533	0.616079
Cu22	Cu	-0.672309	-0.074135	-0.059804
Cu23	Cu	-0.338975	0.259198	0.273529
Cu24	Cu	-0.005642	0.592532	0.606862
Cu25	Cu	-0.672340	-0.074135	0.059700
Cu26	Cu	-0.339006	0.259198	0.393033
Cu27	Cu	-0.005673	0.592532	0.726366
O28	O	-0.667309	-0.157067	-0.050557
O29	O	-0.333976	0.176267	0.282776
O30	O	-0.000643	0.509600	0.616110
C31	C	-0.568176	-0.078882	-0.000040
C32	C	-0.234843	0.254451	0.333293
C33	C	0.098490	0.587785	0.666626
C34	C	-0.504959	-0.078116	-0.000034
C35	C	-0.171626	0.255217	0.333300
C36	C	0.161707	0.588551	0.666633
C37	C	-0.677071	0.030013	-0.000077
C38	C	-0.343738	0.363346	0.333256
C39	C	-0.010404	0.696679	0.666590
C40	C	-0.676305	0.093230	-0.000088
C41	C	-0.342972	0.426563	0.333245
C42	C	-0.009638	0.759896	0.666578
C43	C	-0.776472	-0.069388	-0.000063
C44	C	-0.443138	0.263945	0.333270
C45	C	-0.109805	0.597278	0.666604
C46	C	-0.839689	-0.070154	-0.000066
C47	C	-0.506356	0.263179	0.333268
C48	C	-0.173022	0.596513	0.666601
C49	C	-0.105856	-0.125350	-0.000049
C50	C	0.227477	0.207984	0.333284
C51	C	0.560810	0.541317	0.666617
C52	C	-0.046456	-0.124638	-0.000053
C53	C	0.286877	0.208695	0.333280
C54	C	0.620211	0.542029	0.666613
O55	O	-0.009711	-0.168424	-0.000064
O56	O	0.323622	0.164909	0.333269
O57	O	0.656955	0.498243	0.666602
N58	N	-0.023830	-0.072362	-0.000065
N59	N	0.309503	0.260972	0.333268
N60	N	0.642837	0.594305	0.666601
C61	C	-0.060607	-0.020794	-0.000080
C62	C	0.272726	0.312540	0.333254
C63	C	0.606059	0.645873	0.666587
O64	O	-0.035908	0.023737	-0.000091
O65	O	0.297426	0.357070	0.333243
O66	O	0.630759	0.690404	0.666576
C67	C	-0.120006	-0.021506	-0.000080
C68	C	0.213327	0.311828	0.333253
C69	C	0.546660	0.645161	0.666587
C70	C	-0.142629	-0.073785	-0.000062
C71	C	0.190704	0.259548	0.333271
C72	C	0.524038	0.592881	0.666605
C73	C	-0.128480	-0.177625	-0.000032
C74	C	0.204854	0.155708	0.333301
C75	C	0.538187	0.489042	0.666635
C76	C	-0.187876	-0.178336	-0.000027
C77	C	0.145458	0.154997	0.333306
C78	C	0.478791	0.488330	0.666640
C79	C	-0.224649	-0.126772	-0.000039
C80	C	0.108685	0.206561	0.333294
C81	C	0.442018	0.539895	0.666627
C82	C	-0.202025	-0.074496	-0.000057
C83	C	0.131308	0.258837	0.333276
C84	C	0.464641	0.592170	0.666610
C85	C	-0.156783	0.030062	-0.000099
C86	C	0.176550	0.363395	0.333235
C87	C	0.509884	0.696729	0.666568
C88	C	-0.216185	0.029345	-0.000100
C89	C	0.117148	0.362679	0.333234
C90	C	0.450481	0.696012	0.666567
C91	C	-0.238808	-0.022934	-0.000081
C92	C	0.094525	0.310399	0.333252
C93	C	0.427859	0.643732	0.666585
C94	C	-0.298194	-0.023643	-0.000064
C95	C	0.035139	0.309690	0.333269
C96	C	0.368472	0.643023	0.666602
N97	N	-0.320821	-0.075920	-0.000052
N98	N	0.012513	0.257414	0.333281
N99	N	0.345846	0.590747	0.666614
C100	C	-0.284048	-0.127484	-0.000040
C101	C	0.049286	0.205849	0.333293
C102	C	0.382619	0.539183	0.666627
C103	C	0.064135	-0.019302	-0.000080
C104	C	0.397468	0.314031	0.333254
C105	C	0.730802	0.647365	0.666587
C106	C	0.123533	-0.018589	-0.000075
C107	C	0.456866	0.314744	0.333258
C108	C	0.790200	0.648077	0.666592
C109	C	0.137680	-0.122434	-0.000050
C110	C	0.471014	0.210899	0.333284
C111	C	0.804347	0.544232	0.666617
C112	C	0.078281	-0.123146	-0.000050
C113	C	0.411615	0.210187	0.333283
C114	C	0.744948	0.543520	0.666616
C115	C	0.041509	-0.071578	-0.000068
C116	C	0.374842	0.261755	0.333266
C117	C	0.708176	0.595088	0.666599
C118	C	-0.408784	-0.128974	-0.000029
C119	C	-0.075451	0.204360	0.333305
C120	C	0.257882	0.537693	0.666638
C121	C	-0.468186	-0.129680	-0.000021
C122	C	-0.134853	0.203653	0.333312
C123	C	0.198480	0.536986	0.666645
C124	C	-0.482329	-0.025836	-0.000050
C125	C	-0.148995	0.307497	0.333284
C126	C	0.184338	0.640831	0.666617
C127	C	-0.422932	-0.025129	-0.000054
C128	C	-0.089598	0.308204	0.333279
C129	C	0.243735	0.641538	0.666613
C130	C	-0.386160	-0.076702	-0.000046
C131	C	-0.052827	0.256631	0.333288
C132	C	0.280506	0.589964	0.666621
O133	O	-0.334974	0.020119	-0.000056
O134	O	-0.001640	0.353453	0.333278
O135	O	0.331693	0.686786	0.666611
O136	O	-0.308756	-0.172007	-0.000037
O137	O	0.024578	0.161326	0.333297
O138	O	0.357911	0.494660	0.666630
C139	C	-0.621110	0.359397	-0.000054
C140	C	-0.287776	0.692730	0.333280
C141	C	0.045557	1.026064	0.666613
C142	C	-0.621821	0.299997	-0.000056
C143	C	-0.288488	0.633330	0.333277
C144	C	0.044846	0.966664	0.666610
O145	O	-0.578035	0.263252	-0.000031
O146	O	-0.244702	0.596586	0.333303
O147	O	0.088632	0.929919	0.666636
N148	N	-0.674097	0.277371	-0.000069
N149	N	-0.340764	0.610704	0.333265
N150	N	-0.007431	0.944037	0.666598
C151	C	-0.725666	0.314148	-0.000072
C152	C	-0.392332	0.647482	0.333261
C153	C	-0.058999	0.980815	0.666595
O154	O	-0.770196	0.289449	-0.000082
O155	O	-0.436863	0.622782	0.333251
O156	O	-0.103529	0.956115	0.666584
C157	C	-0.724953	0.373547	-0.000065
C158	C	-0.391620	0.706881	0.333268
C159	C	-0.058287	1.040214	0.666601
C160	C	-0.672674	0.396170	-0.000059
C161	C	-0.339340	0.729503	0.333274
C162	C	-0.006007	1.062837	0.666608
C163	C	-0.568834	0.382020	-0.000047
C164	C	-0.235501	0.715354	0.333286
C165	C	0.097833	1.048687	0.666620
C166	C	-0.568123	0.441417	-0.000046
C167	C	-0.234790	0.774750	0.333288
C168	C	0.098544	1.108083	0.666621
C169	C	-0.619687	0.478189	-0.000051
C170	C	-0.286354	0.811523	0.333282
C171	C	0.046979	1.144856	0.666616
C172	C	-0.671963	0.455566	-0.000058
C173	C	-0.338629	0.788899	0.333276
C174	C	-0.005296	1.122233	0.666609
C175	C	-0.776521	0.410324	-0.000064
C176	C	-0.443188	0.743657	0.333269
C177	C	-0.109854	1.076990	0.666602
C178	C	-0.775805	0.469726	-0.000057
C179	C	-0.442471	0.803060	0.333276
C180	C	-0.109138	1.136393	0.666610
C181	C	-0.723525	0.492349	-0.000051
C182	C	-0.390192	0.825682	0.333282
C183	C	-0.056858	1.159016	0.666616
C184	C	-0.722816	0.551735	-0.000062
C185	C	-0.389482	0.885069	0.333272
C186	C	-0.056149	1.218402	0.666605
N187	N	-0.670539	0.574361	-0.000049
N188	N	-0.337206	0.907695	0.333284
N189	N	-0.003873	1.241028	0.666617
C190	C	-0.618975	0.537589	-0.000044
C191	C	-0.285642	0.870922	0.333289
C192	C	0.047692	1.204255	0.666623
C193	C	-0.727157	0.189406	-0.000086
C194	C	-0.393824	0.522739	0.333248
C195	C	-0.060490	0.856072	0.666581
C196	C	-0.727870	0.130008	-0.000097
C197	C	-0.394536	0.463341	0.333236
C198	C	-0.061203	0.796674	0.666570
C199	C	-0.624025	0.115860	-0.000080
C200	C	-0.290691	0.449194	0.333253
C201	C	0.042642	0.782527	0.666587
C202	C	-0.623313	0.175260	-0.000073
C203	C	-0.289979	0.508593	0.333260
C204	C	0.043354	0.841926	0.666594
C205	C	-0.674881	0.212032	-0.000073
C206	C	-0.341547	0.545365	0.333260
C207	C	-0.008214	0.878699	0.666593
C208	C	-0.617485	0.662325	-0.000042
C209	C	-0.284152	0.995659	0.333292
C210	C	0.049181	1.328992	0.666625
C211	C	-0.616779	0.721727	-0.000043
C212	C	-0.283446	1.055061	0.333291
C213	C	0.049888	1.388394	0.666624
C214	C	-0.720623	0.735869	-0.000056
C215	C	-0.387290	1.069203	0.333277
C216	C	-0.053957	1.402536	0.666610
C217	C	-0.721330	0.676473	-0.000058
C218	C	-0.387997	1.009806	0.333275
C219	C	-0.054664	1.343139	0.666608
C220	C	-0.669757	0.639701	-0.000049
C221	C	-0.336423	0.973035	0.333284
C222	C	-0.003090	1.306368	0.666618
O223	O	-0.766579	0.588514	-0.000085
O224	O	-0.433245	0.921848	0.333248
O225	O	-0.099912	1.255181	0.666582
O226	O	-0.574452	0.562296	-0.000026
O227	O	-0.241119	0.895630	0.333307
O228	O	0.092215	1.228963	0.666641
C229	C	-0.667577	0.821717	-0.000036
C230	C	-0.334244	1.155051	0.333298
C231	C	-0.000911	1.488384	0.666631
C232	C	-0.668343	0.758500	-0.000048
C233	C	-0.335010	1.091834	0.333285
C234	C	-0.001676	1.425167	0.666619
N235	N	-0.672291	-0.074135	-0.143857
N236	N	-0.338957	0.259199	0.189477
N237	N	-0.005624	0.592532	0.522810
C238	C	-0.706685	-0.108496	-0.563631
C239	C	-0.373352	0.224838	-0.230298
C240	C	-0.040019	0.558171	0.103035
C241	C	-0.706692	-0.108494	-0.627239
C242	C	-0.373359	0.224839	-0.293906
C243	C	-0.040025	0.558173	0.039428
O244	O	-0.735915	-0.137705	-0.660127
O245	O	-0.402582	0.195628	-0.326793
O246	O	-0.069248	0.528962	0.006540
N247	N	-0.672351	-0.074128	-0.659064
N248	N	-0.339017	0.259205	-0.325730
N249	N	-0.005684	0.592538	0.007603
C250	C	-0.638005	-0.039758	-0.627278
C251	C	-0.304672	0.293576	-0.293944
C252	C	0.028662	0.626909	0.039389
O253	O	-0.608796	-0.010527	-0.660188
O254	O	-0.275463	0.322807	-0.326855
O255	O	0.057870	0.656140	0.006479
C256	C	-0.638002	-0.039757	-0.563671
C257	C	-0.304669	0.293577	-0.230338
C258	C	0.028665	0.626910	0.102995
C259	C	-0.672341	-0.074129	-0.531850
C260	C	-0.339008	0.259205	-0.198516
C261	C	-0.005674	0.592538	0.134817
C262	C	-0.741022	-0.142864	-0.531810
C263	C	-0.407689	0.190469	-0.198477
C264	C	-0.074355	0.523802	0.134857
C265	C	-0.741014	-0.142867	-0.468207
C266	C	-0.407681	0.190467	-0.134873
C267	C	-0.074348	0.523800	0.198460
C268	C	-0.706670	-0.108500	-0.436425
C269	C	-0.373337	0.224834	-0.103092
C270	C	-0.040003	0.558167	0.230242
C271	C	-0.672333	-0.074131	-0.468247
C272	C	-0.339000	0.259203	-0.134913
C273	C	-0.005667	0.592536	0.198420
C274	C	-0.603660	-0.005383	-0.531886
C275	C	-0.270326	0.327950	-0.198553
C276	C	0.063007	0.661284	0.134780
C277	C	-0.603660	-0.005384	-0.468276
C278	C	-0.270326	0.327949	-0.134942
C279	C	0.063007	0.661282	0.198391
C280	C	-0.637999	-0.039757	-0.436454
C281	C	-0.304665	0.293577	-0.103121
C282	C	0.028668	0.626910	0.230213
C283	C	-0.637981	-0.039766	-0.372862
C284	C	-0.304648	0.293567	-0.039528
C285	C	0.028685	0.626901	0.293805
N286	N	-0.672322	-0.074132	-0.341037
N287	N	-0.338989	0.259202	-0.007704
N288	N	-0.005656	0.592535	0.325630
C289	C	-0.706667	-0.108498	-0.372819
C290	C	-0.373333	0.224835	-0.039485
C291	C	-0.040000	0.558168	0.293848
C292	C	-0.638015	-0.039762	-0.760855
C293	C	-0.304682	0.293571	-0.427522
C294	C	0.028651	0.626904	-0.094189
C295	C	-0.638015	-0.039766	-0.824461
C296	C	-0.304682	0.293567	-0.491127
C297	C	0.028652	0.626901	-0.157794
C298	C	-0.706703	-0.108502	-0.824418
C299	C	-0.373370	0.224832	-0.491084
C300	C	-0.040036	0.558165	-0.157751
C301	C	-0.706700	-0.108501	-0.760811
C302	C	-0.373366	0.224833	-0.427478
C303	C	-0.040033	0.558166	-0.094145
C304	C	-0.672356	-0.074128	-0.729031
C305	C	-0.339023	0.259206	-0.395697
C306	C	-0.005690	0.592539	-0.062364
C307	C	-0.706648	-0.108501	-0.239247
C308	C	-0.373314	0.224833	0.094086
C309	C	-0.039981	0.558166	0.427419
C310	C	-0.706635	-0.108501	-0.175638
C311	C	-0.373302	0.224832	0.157695
C312	C	-0.039968	0.558165	0.491028
C313	C	-0.637950	-0.039764	-0.175687
C314	C	-0.304617	0.293570	0.157646
C315	C	0.028717	0.626903	0.490980
C316	C	-0.637960	-0.039765	-0.239290
C317	C	-0.304627	0.293568	0.094043
C318	C	0.028707	0.626902	0.427376
C319	C	-0.672313	-0.074135	-0.271069
C320	C	-0.338980	0.259198	0.062265
C321	C	-0.005647	0.592532	0.395598
O322	O	-0.608775	-0.010568	-0.339934
O323	O	-0.275442	0.322765	-0.006600
O324	O	0.057892	0.656098	0.326733
O325	O	-0.735876	-0.137719	-0.339901
O326	O	-0.402543	0.195614	-0.006567
O327	O	-0.069209	0.528948	0.326766
N328	N	-0.672362	-0.074131	0.143752
N329	N	-0.339029	0.259202	0.477085
N330	N	-0.005695	0.592536	0.810419
H331	H	-0.486602	-0.172255	-0.000006
H332	H	-0.153269	0.161079	0.333327
H333	H	0.180065	0.494412	0.666661
H334	H	0.167632	-0.164421	-0.000042
H335	H	0.500965	0.168913	0.333291
H336	H	0.834299	0.502246	0.666624
H337	H	-0.138374	0.072634	-0.000114
H338	H	0.194959	0.405967	0.333219
H339	H	0.528292	0.739300	0.666553
N340	N	0.055185	-0.176553	-0.000044
N341	N	0.388518	0.156780	0.333290
N342	N	0.721852	0.490113	0.666623
N343	N	0.066572	-0.211237	-0.042631
N344	N	0.399906	0.122097	0.290702
N345	N	0.733239	0.455430	0.624036
H346	H	0.050264	-0.248958	-0.042629
H347	H	0.383597	0.084375	0.290705
H348	H	0.716931	0.417708	0.624038
H349	H	-0.768979	-0.170853	-0.442303
H350	H	-0.435646	0.162480	-0.108970
H351	H	-0.102312	0.495813	0.224363
H352	H	-0.762605	0.765820	-0.000064
H353	H	-0.429272	1.099154	0.333270
H354	H	-0.095939	1.432487	0.666603
N355	N	-0.568591	0.029729	-0.564390
N356	N	-0.235257	0.363063	-0.231057
N357	N	0.098076	0.696396	0.102277
N358	N	-0.568593	0.029734	-0.621181
N359	N	-0.235260	0.363067	-0.287847
N360	N	0.098074	0.696401	0.045486
H361	H	-0.543824	0.054534	-0.644137
H362	H	-0.210490	0.387868	-0.310804
H363	H	0.122843	0.721201	0.022530
N364	N	-0.399828	0.028276	-0.000074
N365	N	-0.066495	0.361610	0.333259
N366	N	0.266839	0.694943	0.666592
N367	N	-0.411201	0.062960	-0.042679
N368	N	-0.077867	0.396293	0.290654
N369	N	0.255466	0.729627	0.623988
H370	H	-0.394887	0.100679	-0.042699
H371	H	-0.061554	0.434012	0.290634
H372	H	0.271780	0.767346	0.623968
N373	N	-0.514715	0.464511	-0.000035
N374	N	-0.181382	0.797844	0.333298
N375	N	0.151952	1.131178	0.666631
N376	N	-0.468684	0.431662	-0.000027
N377	N	-0.135350	0.764995	0.333306
N378	N	0.197983	1.098329	0.666640
H379	H	-0.430961	0.447968	-0.000017
H380	H	-0.097628	0.781301	0.333316
H381	H	0.235706	1.114635	0.666649
H382	H	-0.610046	-0.011784	-0.850364
H383	H	-0.276713	0.321550	-0.517031
H384	H	0.056621	0.654883	-0.183698
N385	N	-0.776113	-0.177973	-0.564258
N386	N	-0.442780	0.155360	-0.230925
N387	N	-0.109447	0.488694	0.102409
N388	N	-0.806767	-0.208652	-0.535826
N389	N	-0.473433	0.124681	-0.202493
N390	N	-0.140100	0.458014	0.130840
H391	H	-0.831550	-0.233453	-0.558738
H392	H	-0.498217	0.099881	-0.225405
H393	H	-0.164884	0.433214	0.107928
H394	H	-0.512280	0.016146	-0.000057
H395	H	-0.178946	0.349480	0.333276
H396	H	0.154387	0.682813	0.666609
H397	H	-0.763901	0.658053	-0.000072
H398	H	-0.430567	0.991386	0.333261
H399	H	-0.097234	1.324719	0.666595
N400	N	-0.371237	-0.181659	-0.000023
N401	N	-0.037904	0.151674	0.333310
N402	N	0.295429	0.485008	0.666643
N403	N	-0.391454	-0.228326	-0.000008
N404	N	-0.058121	0.105007	0.333325
N405	N	0.275212	0.438341	0.666658
H406	H	-0.364938	-0.265536	-0.000002
H407	H	-0.031604	0.067798	0.333331
H408	H	0.301729	0.401131	0.666665
N409	N	-0.571346	0.078299	-0.000062
N410	N	-0.238013	0.411633	0.333271
N411	N	0.095320	0.744966	0.666604
N412	N	-0.524671	0.098500	-0.000049
N413	N	-0.191337	0.431834	0.333284
N414	N	0.141996	0.765167	0.666617
H415	H	-0.487468	0.071973	-0.000036
H416	H	-0.154135	0.405306	0.333297
H417	H	0.179199	0.738639	0.666630
N418	N	-0.829920	0.387217	-0.000074
N419	N	-0.496587	0.720551	0.333260
N420	N	-0.163254	1.053884	0.666593
N421	N	-0.841902	0.355665	-0.042671
N422	N	-0.508569	0.688998	0.290663
N423	N	-0.175236	1.022332	0.623996
H424	H	-0.879619	0.339347	-0.042677
H425	H	-0.546285	0.672680	0.290656
H426	H	-0.212952	1.006013	0.623990
N427	N	0.146628	0.034818	-0.000080
N428	N	0.479962	0.368151	0.333253
N429	N	0.813295	0.701485	0.666587
N430	N	0.113782	0.080851	-0.000088
N431	N	0.447115	0.414184	0.333246
N432	N	0.780449	0.747517	0.666579
H433	H	0.130090	0.118572	-0.000093
H434	H	0.463424	0.451906	0.333240
H435	H	0.796757	0.785239	0.666573
H436	H	-0.098544	-0.219617	-0.000024
H437	H	0.234789	0.113716	0.333309
H438	H	0.568122	0.447049	0.666643
H439	H	-0.610043	-0.011774	-0.734984
H440	H	-0.276710	0.321560	-0.401650
H441	H	0.056623	0.654893	-0.068317
N442	N	-0.253738	0.082028	-0.000124
N443	N	0.079595	0.415361	0.333209
N444	N	0.412928	0.748695	0.666543
N445	N	-0.233527	0.128698	-0.000143
N446	N	0.099807	0.462031	0.333190
N447	N	0.433140	0.795364	0.666524
H448	H	-0.260047	0.165905	-0.000160
H449	H	0.073286	0.499238	0.333173
H450	H	0.406620	0.832572	0.666506
N451	N	-0.210977	-0.231740	-0.000031
N452	N	0.122356	0.101593	0.333303
N453	N	0.455689	0.434926	0.666636
N454	N	-0.242530	-0.243724	-0.042628
N455	N	0.090803	0.089609	0.290705
N456	N	0.424136	0.422942	0.624039
H457	H	-0.258842	-0.281444	-0.042635
H458	H	0.074492	0.051889	0.290699
H459	H	0.407825	0.385223	0.624032
H460	H	-0.574205	0.740143	-0.000040
H461	H	-0.240871	1.073476	0.333293
H462	H	0.092462	1.406810	0.666626
N463	N	-0.564800	0.624778	-0.000027
N464	N	-0.231467	0.958112	0.333307
N465	N	0.101867	1.291445	0.666640
N466	N	-0.518133	0.644995	-0.000019
N467	N	-0.184800	0.978329	0.333315
N468	N	0.148534	1.311662	0.666648
H469	H	-0.480923	0.618479	-0.000010
H470	H	-0.147590	0.951812	0.333323
H471	H	0.185743	1.285145	0.666657
H472	H	-0.526842	0.352085	-0.000041
H473	H	-0.193509	0.685418	0.333293
H474	H	0.139825	1.018752	0.666626
H475	H	-0.580742	0.193674	-0.000071
H476	H	-0.247409	0.527008	0.333263
H477	H	0.085925	0.860341	0.666596
H478	H	-0.770441	0.111594	-0.000111
H479	H	-0.437108	0.444927	0.333222
H480	H	-0.103774	0.778261	0.666555
N481	N	-0.741774	-0.143607	-0.728302
N482	N	-0.408441	0.189726	-0.394969
N483	N	-0.075107	0.523060	-0.061636
N484	N	-0.719325	-0.181376	-0.692802
N485	N	-0.385992	0.151957	-0.359469
N486	N	-0.052659	0.485291	-0.026135
H487	H	-0.744099	-0.206171	-0.669845
H488	H	-0.410766	0.127163	-0.336512
H489	H	-0.077433	0.460496	-0.003178
N490	N	0.026583	0.033382	-0.000095
N491	N	0.359916	0.366716	0.333238
N492	N	0.693250	0.700049	0.666571
N493	N	0.046798	0.080050	-0.000107
N494	N	0.380132	0.413384	0.333227
N495	N	0.713465	0.746717	0.666560
H496	H	0.020280	0.117259	-0.000119
H497	H	0.353614	0.450592	0.333214
H498	H	0.686947	0.783926	0.666548
N499	N	-0.602871	-0.004646	-0.143234
N500	N	-0.269538	0.328687	0.190100
N501	N	0.063795	0.662021	0.523433
N502	N	-0.549760	-0.011712	-0.150347
N503	N	-0.216427	0.321621	0.182987
N504	N	0.116906	0.654955	0.516320
H505	H	-0.524991	0.013098	-0.127429
H506	H	-0.191657	0.346432	0.205904
H507	H	0.141676	0.679765	0.539238
H508	H	-0.769152	0.219343	-0.000090
H509	H	-0.435819	0.552677	0.333243
H510	H	-0.102486	0.886010	0.666577
H511	H	-0.817798	0.499664	-0.000054
H512	H	-0.484465	0.832997	0.333279
H513	H	-0.151132	1.166331	0.666613
H514	H	-0.734667	-0.136486	-0.850306
H515	H	-0.401334	0.196847	-0.516973
H516	H	-0.068001	0.530181	-0.183639
N517	N	-0.741715	-0.143619	-0.143144
N518	N	-0.408382	0.189715	0.190190
N519	N	-0.075048	0.523048	0.523523
N520	N	-0.772378	-0.174299	-0.171533
N521	N	-0.439044	0.159035	0.161800
N522	N	-0.105711	0.492368	0.495134
H523	H	-0.797153	-0.199099	-0.148586
H524	H	-0.463820	0.134234	0.184747
H525	H	-0.130487	0.467568	0.518081
H526	H	-0.734622	-0.136488	-0.265114
H527	H	-0.401288	0.196846	0.068220
H528	H	-0.067955	0.530179	0.401553
N529	N	-0.568593	0.029740	-0.435809
N530	N	-0.235260	0.363073	-0.102475
N531	N	0.098073	0.696406	0.230858
N532	N	-0.575729	0.082850	-0.442927
N533	N	-0.242396	0.416183	-0.109593
N534	N	0.090938	0.749517	0.223740
H535	H	-0.550966	0.107658	-0.419996
H536	H	-0.217633	0.440992	-0.086662
H537	H	0.115700	0.774325	0.246671
N538	N	-0.602871	-0.004662	-0.271789
N539	N	-0.269538	0.328671	0.061544
N540	N	0.063796	0.662004	0.394877
N541	N	-0.572205	0.026015	-0.243402
N542	N	-0.238871	0.359349	0.089931
N543	N	0.094462	0.692682	0.423265
H544	H	-0.547424	0.050810	-0.266350
H545	H	-0.214091	0.384143	0.066983
H546	H	0.119242	0.717477	0.400316
