data_functionalizedCrystal
_audit_creation_method	'MofGen! by Chris Wilmer'
_symmetry_space_group_name_H-M	'P1'
_symmetry_Int_Tables_number	1
_symmetry_cell_setting	triclinic
loop_
_symmetry_equiv_pos_as_xyz
  x,y,z
_cell_length_a	19.288867
_cell_length_b	10.654541
_cell_length_c	17.766277
_cell_angle_alpha	89.993913
_cell_angle_beta	89.992126
_cell_angle_gamma	83.810499
loop_
_atom_site_label
_atom_site_type_symbol
_atom_site_fract_x
_atom_site_fract_y
_atom_site_fract_z
O1	O	0.922377	0.156669	-0.062568
O2	O	0.720255	0.177799	-0.062575
O3	O	0.825964	-0.015605	-0.062566
O4	O	0.816668	0.350073	-0.062576
O5	O	0.825945	-0.015615	0.062622
O6	O	0.720236	0.177789	0.062614
O7	O	0.922358	0.156659	0.062621
Cu8	Cu	0.821296	0.167223	0.074048
Cu9	Cu	0.821318	0.167235	-0.074002
O10	O	0.816649	0.350063	0.062613
C11	C	0.694365	0.177114	0.000019
C12	C	0.617248	0.175072	0.000016
C13	C	0.061596	0.160367	-0.068215
C14	C	0.134057	0.162278	-0.068218
C15	C	0.170281	0.163235	0.000022
C16	C	0.134042	0.162247	0.068270
C17	C	0.061584	0.160323	0.068271
C18	C	0.280102	0.239829	0.052301
C19	C	0.352558	0.241761	0.052297
C20	C	0.393766	0.169163	0.000022
C21	C	0.362507	0.094650	-0.052262
C22	C	0.290050	0.092726	-0.052261
C23	C	0.248850	0.165320	0.000029
C24	C	0.508566	0.172214	-0.068225
C25	C	0.581028	0.174118	-0.068225
C26	C	0.581011	0.174099	0.068265
C27	C	0.508552	0.172183	0.068263
C28	C	0.472333	0.171246	0.000016
C29	C	0.825273	-0.062393	0.000027
C30	C	0.823231	-0.201793	0.000026
C31	C	0.949635	-0.232468	0.000040
C32	C	1.011876	-0.313294	0.000049
C33	C	1.009954	-0.444271	0.000046
C34	C	0.945784	-0.494423	0.000033
C35	C	0.883544	-0.413597	0.000025
C36	C	0.885473	-0.282619	0.000029
C37	C	0.757142	-0.382923	0.000005
C38	C	0.759062	-0.251946	0.000013
C39	C	0.692973	-0.433075	-0.000008
C40	C	0.630731	-0.352249	-0.000011
C41	C	0.632656	-0.221265	-0.000008
C42	C	0.696822	-0.171120	0.000004
C43	C	0.948249	0.157344	0.000026
C44	C	1.025366	0.159387	0.000024
C45	C	0.817341	0.396852	0.000017
C46	C	0.819382	0.536251	0.000014
N47	N	0.821285	0.167214	0.178178
N48	N	0.821334	0.167234	-0.178132
C49	C	0.868109	0.081617	0.217569
C50	C	0.868113	0.081611	0.296371
C51	C	0.821300	0.167224	0.335779
C52	C	0.774467	0.252828	0.296379
C53	C	0.774460	0.252823	0.217579
C54	C	0.812750	0.281646	0.460614
C55	C	0.812762	0.281652	0.539413
C56	C	0.821318	0.167240	0.578825
C57	C	0.829877	0.052815	0.539429
C58	C	0.829870	0.052810	0.460629
C59	C	0.821302	0.167239	0.421225
C60	C	0.868149	0.081629	0.703662
C61	C	0.868148	0.081621	0.782465
C62	C	0.774506	0.252849	0.782472
C63	C	0.774504	0.252846	0.703670
C64	C	0.821329	0.167237	0.664270
H65	H	0.032085	0.159529	0.123841
H66	H	0.578489	-0.393095	-0.000027
C67	C	0.468662	0.171552	0.143325
H68	H	0.420313	0.170392	0.133552
H69	H	0.475668	0.245211	0.171198
H70	H	0.485383	0.098768	0.171529
C71	C	0.919652	-0.012544	0.825799
H72	H	0.912945	-0.000293	0.878373
H73	H	0.966069	0.000884	0.812875
H74	H	0.911705	-0.096327	0.812890
C75	C	0.839295	-0.073049	0.582769
H76	H	0.844397	-0.141190	0.548021
H77	H	0.799581	-0.079843	0.613520
H78	H	0.879732	-0.075766	0.613498
H79	H	0.736350	0.322534	0.328469
C80	C	0.021757	0.159325	-0.143282
H81	H	-0.026586	0.158048	-0.133510
H82	H	0.038582	0.086433	-0.171324
H83	H	0.028689	0.232872	-0.171318
C84	C	0.919630	-0.012515	0.174229
H85	H	0.912931	-0.000244	0.121656
H86	H	0.911713	-0.096309	0.187142
H87	H	0.966042	0.000965	0.187143
H88	H	0.264603	0.032052	-0.094831
C89	C	0.919642	-0.012549	0.660315
H90	H	0.912938	-0.000283	0.607742
H91	H	0.911696	-0.096324	0.673238
H92	H	0.966065	0.000878	0.673217
C93	C	0.951753	-0.088398	0.000045
H94	H	0.998881	-0.070105	0.000050
H95	H	0.928832	-0.053110	0.043696
H96	H	0.928860	-0.053099	-0.043621
H97	H	0.163541	0.163023	0.123831
C98	C	0.722957	0.346993	0.174247
H99	H	0.695078	0.397987	0.209000
H100	H	0.693829	0.301953	0.143514
H101	H	0.748196	0.399159	0.143501
H102	H	1.064121	-0.272445	0.000066
C103	C	0.803342	0.407508	0.417267
H104	H	0.798258	0.475652	0.452014
H105	H	0.762911	0.410242	0.386535
H106	H	0.843065	0.414282	0.386520
C107	C	0.690857	-0.577146	-0.000009
H108	H	0.737114	-0.618102	0.000006
H109	H	0.667091	-0.601109	-0.043667
H110	H	0.667069	-0.601110	0.043650
H111	H	0.246556	0.298941	0.094878
H112	H	0.581972	-0.155462	-0.000018
H113	H	0.736388	0.322552	0.814557
H114	H	0.698395	-0.064473	0.000012
C115	C	0.919621	-0.012547	0.339710
H116	H	0.947509	-0.063528	0.304958
H117	H	0.894393	-0.064708	0.370463
H118	H	0.948751	0.032514	0.370436
H119	H	0.836837	-0.040358	0.428556
C120	C	0.407826	0.014788	-0.109768
H121	H	0.455457	0.026592	-0.102278
H122	H	0.394211	0.040344	-0.159309
H123	H	0.401779	-0.071846	-0.103184
C124	C	0.723011	0.347025	0.660335
H125	H	0.729710	0.334759	0.607760
H126	H	0.730962	0.430799	0.673243
H127	H	0.676589	0.333604	0.673257
C128	C	0.173918	0.163373	-0.143284
H129	H	0.141969	0.162549	-0.183928
H130	H	0.207134	0.090915	-0.146128
H131	H	0.197233	0.237354	-0.146110
H132	H	0.479076	0.171448	-0.123796
C133	C	0.943667	-0.638493	0.000017
H134	H	0.896539	-0.656786	0.000003
H135	H	0.966566	-0.673811	0.043670
H136	H	0.966582	-0.673762	-0.043647
H137	H	0.805797	0.374823	0.571483
C138	C	1.078415	-0.533181	0.000056
H139	H	1.116907	-0.484560	0.000068
H140	H	1.080301	-0.584908	-0.043599
H141	H	1.080278	-0.584916	0.043718
H142	H	0.610505	0.174873	0.123828
H143	H	0.378000	0.302465	0.094854
C144	C	0.620882	0.175197	-0.143292
H145	H	0.588931	0.174376	-0.183934
H146	H	0.654093	0.102732	-0.146135
H147	H	0.644203	0.249171	-0.146123
