data_functionalizedCrystal
_audit_creation_method	'MofGen! by Chris Wilmer'
_symmetry_space_group_name_H-M	'P1'
_symmetry_Int_Tables_number	1
_symmetry_cell_setting	triclinic
loop_
_symmetry_equiv_pos_as_xyz
  x,y,z
_cell_length_a	16.992694
_cell_length_b	13.339070
_cell_length_c	15.455313
_cell_angle_alpha	93.394339
_cell_angle_beta	87.142206
_cell_angle_gamma	103.148759
loop_
_atom_site_label
_atom_site_type_symbol
_atom_site_fract_x
_atom_site_fract_y
_atom_site_fract_z
O1	O	1.090408	0.214131	-0.072012
O2	O	0.861603	0.211734	-0.072038
O3	O	0.949746	0.063546	-0.072026
O4	O	1.002265	0.362319	-0.072025
O5	O	0.944697	0.071983	0.072236
O6	O	0.856554	0.220171	0.072223
O7	O	1.085360	0.222568	0.072249
Cu8	Cu	0.970496	0.222140	0.085408
Cu9	Cu	0.976466	0.212163	-0.085197
O10	O	0.997216	0.370756	0.072237
C11	C	0.829195	0.212871	0.000089
C12	C	0.740151	0.203676	0.000079
C13	C	0.938350	0.029358	0.000103
C14	C	0.911906	-0.085082	0.000097
C15	C	0.709211	0.292390	0.000080
C16	C	0.625543	0.283745	0.000092
C17	C	0.572817	0.186386	0.000097
C18	C	0.603762	0.097666	0.000099
C19	C	0.687429	0.106311	0.000093
C20	C	0.321423	0.150552	0.000120
C21	C	0.237751	0.141912	0.000123
C22	C	0.259538	0.327993	0.000118
C23	C	0.343205	0.336630	0.000107
C24	C	0.374143	0.247910	0.000114
N25	N	0.487295	0.177547	0.000107
N26	N	0.459663	0.256750	0.000110
C27	C	1.117519	-0.433251	0.000120
C28	C	1.142367	-0.325728	0.000131
C29	C	1.084754	-0.265562	0.000122
C30	C	1.002289	-0.312927	0.000103
C31	C	0.977439	-0.420460	0.000099
C32	C	0.944673	-0.252771	0.000101
C33	C	0.862209	-0.300136	0.000081
C34	C	0.837363	-0.407658	0.000077
C35	C	0.894976	-0.467825	0.000086
C36	C	0.969524	-0.145238	0.000105
C37	C	0.829443	-0.132447	0.000083
C38	C	0.804596	-0.239969	0.000072
C39	C	1.117767	0.221431	0.000120
C40	C	1.206811	0.230626	0.000124
C41	C	1.008612	0.404944	0.000106
C42	C	1.035056	0.519384	0.000107
N43	N	0.966302	0.229157	0.205403
N44	N	0.980664	0.205137	-0.205192
C45	C	1.003772	0.166228	0.250803
C46	C	1.000610	0.171545	0.341610
C47	C	0.959983	0.239798	0.387017
C48	C	0.922508	0.302729	0.341611
C49	C	0.925665	0.297406	0.250805
C50	C	0.946347	0.262746	0.658596
C51	C	0.943195	0.268067	0.749408
C52	C	1.021296	0.136880	0.749401
C53	C	1.024454	0.131568	0.658594
C54	C	0.986976	0.194496	0.613196
N55	N	0.956752	0.245237	0.479836
N56	N	0.990202	0.189051	0.520378
H57	H	0.752136	0.371670	0.000076
O58	O	0.903652	0.334384	0.793383
C59	C	0.826537	0.463961	0.783813
C60	C	0.871274	0.388894	0.733904
H61	H	0.800362	0.508068	0.735745
H62	H	0.775476	0.418773	0.826311
H63	H	0.870709	0.520669	0.826342
H64	H	0.827165	0.332169	0.691328
H65	H	0.922347	0.434149	0.691461
H66	H	0.770215	-0.446220	0.000068
H67	H	0.194822	0.062627	0.000126
H68	H	0.560826	0.018394	0.000115
O69	O	0.773364	-0.074164	0.000110
C70	C	0.631805	-0.072818	0.000037
C71	C	0.695221	-0.138953	0.000024
H72	H	0.568613	-0.125174	-0.000050
H73	H	0.637763	-0.018650	0.060425
H74	H	0.642101	-0.025662	-0.060321
H75	H	0.684965	-0.186172	0.060342
H76	H	0.689247	-0.193056	-0.060403
H77	H	1.036859	0.110654	0.213839
H78	H	0.712618	0.034071	0.000092
O79	O	0.724523	-0.286149	0.000098
C80	C	0.624171	-0.446139	0.000026
C81	C	0.714877	-0.393973	0.000018
H82	H	0.616344	-0.533323	-0.000057
H83	H	0.592372	-0.418394	0.060409
H84	H	0.596646	-0.425310	-0.060337
H85	H	0.742473	-0.414778	0.060340
H86	H	0.746618	-0.421719	-0.060405
O87	O	0.394508	0.431148	0.000198
C88	C	0.499014	0.553299	0.074895
C89	C	0.440961	0.446229	0.074911
H90	H	0.536574	0.565535	0.135304
H91	H	0.540871	0.558445	0.014549
H92	H	0.462528	0.615217	0.074846
H93	H	0.477381	0.384249	0.074992
H94	H	0.399103	0.441171	0.135252
H95	H	1.104990	-0.178013	0.000131
O96	O	0.229527	0.414191	-0.000034
C97	C	0.225190	0.566251	-0.074741
C98	C	0.259219	0.468651	-0.074690
H99	H	0.249195	0.610320	-0.135085
H100	H	0.156335	0.543408	-0.074792
H101	H	0.244893	0.617318	-0.014341
H102	H	0.239577	0.417539	-0.135080
H103	H	0.328070	0.491567	-0.074595
O104	O	1.037093	0.110388	0.385576
C105	C	1.114877	-0.020308	0.375987
C106	C	1.073604	0.048909	0.326088
H107	H	1.144392	-0.070047	0.327912
H108	H	1.162986	0.029859	0.418463
H109	H	1.067750	-0.072033	0.418537
H110	H	1.120671	0.100646	0.283491
H111	H	1.025479	-0.001319	0.283667
H112	H	0.346601	0.078309	0.000126
H113	H	1.057536	0.075991	0.621626
O114	O	1.049638	-0.099290	-0.000037
C115	C	1.179590	-0.081753	-0.074734
C116	C	1.088868	-0.133842	-0.074688
H117	H	1.211337	-0.109684	-0.135074
H118	H	1.187508	0.005438	-0.074789
H119	H	1.207098	-0.102505	-0.014330
H120	H	1.061301	-0.113171	-0.135082
H121	H	1.081006	-0.221021	-0.074588
O122	O	1.222448	-0.279613	0.000029
C123	C	1.334430	-0.170063	-0.074719
C124	C	1.243719	-0.222207	-0.074698
H125	H	1.351660	-0.123655	-0.135138
H126	H	1.347482	-0.116448	-0.014384
H127	H	1.371317	-0.231551	-0.074674
H128	H	1.206772	-0.160790	-0.074774
H129	H	1.230731	-0.275843	-0.135028
O130	O	0.910076	0.323935	0.614414
C131	C	0.927258	0.457239	0.511940
C132	C	0.968432	0.387977	0.561909
H133	H	0.974423	0.509050	0.469492
H134	H	0.879208	0.407105	0.469376
H135	H	0.897662	0.506889	0.560016
H136	H	0.998074	0.338316	0.513895
H137	H	1.016440	0.438171	0.604486
O138	O	0.882975	0.368890	0.385814
C139	C	0.775135	0.387918	0.488314
C140	C	0.819845	0.312877	0.438326
H141	H	0.724075	0.342659	0.530768
H142	H	0.819263	0.444650	0.530874
H143	H	0.748935	0.432004	0.440251
H144	H	0.846047	0.268720	0.486326
H145	H	0.775685	0.256211	0.395752
H146	H	0.895152	0.348649	0.213842
H147	H	1.051808	0.085646	0.786373
O148	O	1.173503	-0.491640	0.000283
C149	C	1.283036	-0.531069	0.075013
C150	C	1.219654	-0.464893	0.074946
H151	H	1.320377	-0.509454	0.135362
H152	H	1.251150	-0.616069	0.075065
H153	H	1.324541	-0.516626	0.014618
H154	H	1.178131	-0.479248	0.135330
H155	H	1.251592	-0.379915	0.074848
H156	H	0.600356	0.355985	0.000092
H157	H	0.874749	-0.555379	0.000073
