data_functionalizedCrystal
_audit_creation_method	'MofGen! by Chris Wilmer'
_symmetry_space_group_name_H-M	'P1'
_symmetry_Int_Tables_number	1
_symmetry_cell_setting	triclinic
loop_
_symmetry_equiv_pos_as_xyz
  x,y,z
_cell_length_a	10.489741
_cell_length_b	15.944551
_cell_length_c	8.965430
_cell_angle_alpha	89.999468
_cell_angle_beta	89.998843
_cell_angle_gamma	84.018956
loop_
_atom_site_label
_atom_site_type_symbol
_atom_site_fract_x
_atom_site_fract_y
_atom_site_fract_z
O1	O	1.692411	0.118500	-0.123951
O2	O	1.321061	0.129624	-0.123974
O3	O	1.516876	0.001848	-0.123948
O4	O	1.496595	0.246276	-0.123977
O5	O	1.516860	0.001857	0.124130
O6	O	1.321044	0.129633	0.124105
O7	O	1.692394	0.118509	0.124128
Cu8	Cu	1.506718	0.124071	0.146768
Cu9	Cu	1.506737	0.124061	-0.146614
O10	O	1.496578	0.246285	0.124102
C11	C	1.273532	0.128788	0.000062
C12	C	1.131938	0.126275	0.000054
C13	C	1.064925	0.044975	0.000077
C14	C	0.972274	0.083376	-0.122240
C15	C	0.972291	0.083403	0.122346
C16	C	1.041152	0.164709	-0.122364
C17	C	1.041179	0.164726	0.122332
C18	C	0.948554	0.203186	-0.000015
C19	C	1.516026	-0.029446	0.000091
C20	C	1.513502	-0.122708	0.000092
C21	C	1.386093	-0.338330	0.000063
C22	C	1.445249	-0.398988	0.122385
C23	C	1.508935	-0.293461	0.000080
C24	C	1.445294	-0.398979	-0.122201
C25	C	1.504515	-0.458400	0.000062
C26	C	1.568126	-0.352890	0.122503
C27	C	1.568154	-0.352875	-0.122193
C28	C	1.627399	-0.413515	0.000158
C29	C	1.511478	-0.198443	0.000092
C30	C	1.501982	-0.553417	0.000061
C31	C	1.739922	0.119345	0.000088
C32	C	1.881517	0.121858	0.000087
C33	C	1.497429	0.277579	0.000059
C34	C	1.499953	0.370841	0.000049
N35	N	1.506713	0.124078	0.353117
N36	N	1.506752	0.124048	-0.352963
C37	C	1.416127	0.183150	0.450411
C38	C	1.531388	0.200146	0.549830
C39	C	1.391501	0.107089	0.549826
C40	C	1.622032	0.141112	0.450347
C41	C	1.482069	0.048022	0.450334
C42	C	1.597413	0.064986	0.549708
H43	H	0.941783	0.048992	0.225756
C44	C	1.638295	-0.325255	-0.261892
C45	C	1.778813	-0.359789	-0.290261
C46	C	1.848942	-0.332167	-0.429974
C47	C	1.778554	-0.270010	-0.541319
C48	C	1.638028	-0.235473	-0.512953
C49	C	1.567899	-0.263095	-0.373240
H50	H	1.830926	-0.405804	-0.207834
H51	H	1.952969	-0.357734	-0.450972
H52	H	1.830468	-0.249562	-0.644743
H53	H	1.585915	-0.189457	-0.595380
H54	H	1.463872	-0.237528	-0.352243
H55	H	1.115541	-0.021859	-0.000068
C56	C	1.082153	0.211129	-0.262238
C57	C	1.224606	0.222050	-0.288138
C58	C	1.265611	0.268464	-0.428013
C59	C	1.164163	0.303956	-0.541989
C60	C	1.021700	0.293036	-0.516092
C61	C	0.980695	0.246622	-0.376217
H62	H	1.299713	0.195776	-0.203764
H63	H	1.371072	0.276548	-0.447183
H64	H	1.194517	0.338315	-0.645533
H65	H	0.946594	0.319310	-0.600466
H66	H	0.875234	0.238539	-0.357047
C67	C	1.248351	-0.294154	0.000210
C68	C	1.156956	-0.308943	0.129789
C69	C	1.019219	-0.264766	0.129944
C70	C	0.972876	-0.205800	0.000521
C71	C	1.064272	-0.191009	-0.129068
C72	C	1.202010	-0.235186	-0.129223
H73	H	1.191260	-0.352595	0.225605
H74	H	0.951561	-0.275715	0.225875
H75	H	0.870914	-0.173098	0.000635
H76	H	1.029968	-0.147357	-0.224884
H77	H	1.269667	-0.224237	-0.225154
C78	C	1.375093	-0.426544	-0.261905
C79	C	1.233864	-0.393182	-0.288749
C80	C	1.163652	-0.420743	-0.428443
C81	C	1.234671	-0.481666	-0.541294
C82	C	1.375908	-0.515031	-0.514453
C83	C	1.446119	-0.487470	-0.374759
H84	H	1.181285	-0.348081	-0.205207
H85	H	1.059099	-0.396044	-0.448312
H86	H	1.182696	-0.502068	-0.644704
H87	H	1.428487	-0.560133	-0.597995
H88	H	1.550673	-0.512170	-0.354890
H89	H	1.339592	0.233152	0.406812
H90	H	1.552259	0.264453	0.593533
H91	H	1.719502	0.155545	0.406834
H92	H	1.674119	0.015015	0.593033
C93	C	1.765264	-0.457486	0.000248
C94	C	1.856644	-0.442514	0.129742
C95	C	1.994507	-0.486486	0.129839
C96	C	2.040990	-0.545430	0.000441
C97	C	1.949609	-0.560405	-0.129062
C98	C	1.811746	-0.516433	-0.129159
H99	H	1.822235	-0.398878	0.225539
H100	H	2.062153	-0.475400	0.225707
H101	H	2.143045	-0.577981	0.000513
H102	H	1.984017	-0.604042	-0.224859
H103	H	1.744100	-0.527519	-0.225027
H104	H	1.393285	-0.419405	0.225792
C105	C	1.453829	-0.038823	0.391230
C106	C	1.326341	-0.073494	0.430403
C107	C	1.298084	-0.160338	0.371294
C108	C	1.397314	-0.212510	0.273013
C109	C	1.524809	-0.177840	0.233835
C110	C	1.553067	-0.090996	0.292943
H111	H	1.252878	-0.034872	0.503161
H112	H	1.203702	-0.186003	0.400297
H113	H	1.376396	-0.276797	0.229257
H114	H	1.598273	-0.216462	0.161077
H115	H	1.647448	-0.065331	0.263941
H116	H	0.941743	0.048972	-0.225644
H117	H	0.898203	0.270090	-0.000090
H118	H	1.071741	0.199101	0.225741
H119	H	1.620032	-0.332584	0.226030
H120	H	1.294052	0.092733	0.593526
