data_functionalizedCrystal
_audit_creation_method	'MofGen! by Chris Wilmer'
_symmetry_space_group_name_H-M	'P1'
_symmetry_Int_Tables_number	1
_symmetry_cell_setting	triclinic
loop_
_symmetry_equiv_pos_as_xyz
  x,y,z
_cell_length_a	27.731994
_cell_length_b	27.732048
_cell_length_c	26.809956
_cell_angle_alpha	90.024325
_cell_angle_beta	90.014414
_cell_angle_gamma	82.631595
loop_
_atom_site_label
_atom_site_type_symbol
_atom_site_fract_x
_atom_site_fract_y
_atom_site_fract_z
O1	O	0.640954	0.057401	0.041414
O2	O	1.140954	0.557401	0.541414
O3	O	0.500157	0.066174	0.041431
O4	O	1.000157	0.566174	0.541431
O5	O	0.574929	-0.008610	0.041412
O6	O	1.074929	0.491390	0.541412
O7	O	0.566183	0.132185	0.041432
O8	O	1.066183	0.632185	0.541432
O9	O	0.574902	-0.008630	-0.041547
O10	O	1.074902	0.491370	0.458453
O11	O	0.500131	0.066154	-0.041528
O12	O	1.000131	0.566154	0.458472
O13	O	0.640928	0.057381	-0.041545
O14	O	1.140928	0.557381	0.458455
Zn15	Zn	0.570525	0.061764	-0.054708
Zn16	Zn	1.070525	0.561764	0.445292
Zn17	Zn	0.570560	0.061791	0.054594
Zn18	Zn	1.070560	0.561791	0.554594
O19	O	0.566156	0.132165	-0.041527
O20	O	1.066156	0.632165	0.458473
C21	C	0.482137	0.065984	-0.000046
C22	C	0.982137	0.565984	0.499954
C23	C	0.428480	0.065442	-0.000040
C24	C	0.928480	0.565442	0.499960
C25	C	0.574732	-0.026627	-0.000069
C26	C	1.074732	0.473373	0.499931
C27	C	0.574179	-0.080282	-0.000073
C28	C	1.074179	0.419718	0.499927
C29	C	0.095747	0.062015	-0.045281
C30	C	0.595747	0.562015	0.454719
C31	C	-0.105911	0.059953	-0.045287
C32	C	0.394089	0.559953	0.454713
O33	O	-0.131996	0.059657	-0.083746
O34	O	0.368004	0.559657	0.416254
N35	N	-0.131111	0.059708	-0.000066
N36	N	0.368889	0.559708	0.499934
C37	C	-0.105894	0.059975	0.045160
C38	C	0.394106	0.559975	0.545160
O39	O	-0.131954	0.059715	0.083623
O40	O	0.368046	0.559715	0.583623
C41	C	0.095764	0.062034	0.045165
C42	C	0.595764	0.562034	0.545165
C43	C	0.120961	0.062283	-0.000059
C44	C	0.620961	0.562283	0.499941
C45	C	0.120945	0.062264	-0.090501
C46	C	0.620945	0.562264	0.409499
C47	C	0.171356	0.062782	-0.090499
C48	C	0.671356	0.562782	0.409501
C49	C	0.196570	0.063051	-0.045277
C50	C	0.696570	0.563051	0.454723
C51	C	0.171372	0.062801	-0.000057
C52	C	0.671372	0.562801	0.499943
C53	C	0.120981	0.062297	0.090390
C54	C	0.620981	0.562297	0.590390
C55	C	0.171399	0.062811	0.090388
C56	C	0.671399	0.562811	0.590388
C57	C	0.196596	0.063060	0.045164
C58	C	0.696596	0.563060	0.545164
C59	C	0.246997	0.063588	0.045167
C60	C	0.746997	0.563588	0.545167
N61	N	0.272198	0.063833	-0.000054
N62	N	0.772198	0.563833	0.499946
C63	C	0.246984	0.063565	-0.045276
C64	C	0.746984	0.563565	0.454724
C65	C	-0.211767	0.058896	0.045154
C66	C	0.288233	0.558896	0.545154
C67	C	-0.262181	0.058382	0.045152
C68	C	0.237819	0.558382	0.545152
C69	C	-0.262195	0.058359	-0.045294
C70	C	0.237805	0.558359	0.454706
C71	C	-0.211780	0.058876	-0.045293
C72	C	0.288220	0.558876	0.454707
C73	C	-0.186566	0.059141	-0.000067
C74	C	0.313434	0.559141	0.499933
C75	C	0.352851	0.064653	-0.045268
C76	C	0.852851	0.564653	0.454732
C77	C	0.403266	0.065173	-0.045262
C78	C	0.903266	0.565173	0.454738
C79	C	0.403276	0.065193	0.045184
C80	C	0.903276	0.565193	0.545184
C81	C	0.352865	0.064676	0.045179
C82	C	0.852865	0.564676	0.545179
C83	C	0.327654	0.064404	-0.000052
C84	C	0.827654	0.564404	0.499948
O85	O	0.273114	0.063880	0.083606
O86	O	0.773114	0.563880	0.583606
O87	O	0.273055	0.063815	-0.083733
O88	O	0.773055	0.563815	0.416267
C89	C	0.045336	0.061497	-0.045283
C90	C	0.545336	0.561497	0.454717
C91	C	0.020139	0.061247	-0.000063
C92	C	0.520139	0.561247	0.499937
C93	C	0.045353	0.061516	0.045160
C94	C	0.545353	0.561516	0.545160
C95	C	-0.030275	0.060734	-0.000064
C96	C	0.469725	0.560734	0.499936
C97	C	-0.055489	0.060465	-0.045286
C98	C	0.444511	0.560465	0.454714
C99	C	-0.030289	0.060710	-0.090507
C100	C	0.469711	0.560710	0.409493
C101	C	0.020122	0.061228	-0.090505
C102	C	0.520122	0.561228	0.409495
C103	C	0.020153	0.061271	0.090381
C104	C	0.520153	0.561271	0.590381
C105	C	-0.030259	0.060753	0.090375
C106	C	0.469741	0.560753	0.590375
C107	C	-0.055473	0.060485	0.045153
C108	C	0.444527	0.560485	0.545153
C109	C	0.614884	-0.419105	-0.000052
C110	C	1.114884	0.080895	0.499948
C111	C	0.612833	-0.620764	-0.000045
C112	C	1.112833	-0.120764	0.499955
O113	O	0.650055	-0.652027	-0.000028
O114	O	1.150055	-0.152027	0.499972
N115	N	0.568496	-0.639879	-0.000040
N116	N	1.068496	-0.139879	0.499960
C117	C	0.524670	-0.608576	-0.000033
C118	C	1.024670	-0.108576	0.499967
O119	O	0.486912	-0.629462	-0.000024
O120	O	0.986912	-0.129462	0.499976
C121	C	0.526721	-0.406918	-0.000037
C122	C	1.026721	0.093082	0.499963
C123	C	0.571060	-0.387806	-0.000047
C124	C	1.071060	0.112194	0.499953
C125	C	0.659220	-0.399992	-0.000061
C126	C	1.159220	0.100008	0.499939
C127	C	0.659732	-0.349580	-0.000066
C128	C	1.159732	0.150420	0.499934
C129	C	0.615908	-0.318281	-0.000061
C130	C	1.115908	0.181719	0.499939
C131	C	0.571573	-0.337394	-0.000052
C132	C	1.071573	0.162606	0.499948
C133	C	0.482895	-0.375615	-0.000027
C134	C	0.982895	0.124385	0.499973
C135	C	0.483412	-0.325198	-0.000027
C136	C	0.983412	0.174802	0.499973
C137	C	0.527751	-0.306086	-0.000037
C138	C	1.027751	0.193914	0.499963
C139	C	0.528262	-0.255683	-0.000051
C140	C	1.028262	0.244317	0.499949
N141	N	0.572598	-0.236568	-0.000056
N142	N	1.072598	0.263432	0.499944
C143	C	0.616421	-0.267867	-0.000061
C144	C	1.116421	0.232133	0.499939
C145	C	0.523596	-0.714450	-0.000032
C146	C	1.023596	-0.214450	0.499968
C147	C	0.523083	-0.764864	-0.000032
C148	C	1.023083	-0.264864	0.499968
C149	C	0.611246	-0.777049	-0.000043
C150	C	1.111246	-0.277049	0.499957
C151	C	0.611759	-0.726633	-0.000047
C152	C	1.111759	-0.226633	0.499953
C153	C	0.567932	-0.695335	-0.000037
C154	C	1.067932	-0.195335	0.499963
C155	C	0.617494	-0.161998	-0.000071
C156	C	1.117494	0.338002	0.499929
C157	C	0.618002	-0.111581	-0.000078
C158	C	1.118002	0.388419	0.499922
C159	C	0.529839	-0.099401	-0.000064
C160	C	1.029839	0.400599	0.499936
C161	C	0.529331	-0.149813	-0.000060
C162	C	1.029331	0.350187	0.499940
C163	C	0.573162	-0.181111	-0.000062
C164	C	1.073162	0.318889	0.499938
O165	O	0.491060	-0.224391	-0.000063
O166	O	0.991060	0.275609	0.499937
O167	O	0.654174	-0.246971	-0.000060
O168	O	1.154174	0.253029	0.499940
C169	C	0.614372	-0.469517	-0.000047
C170	C	1.114372	0.030483	0.499953
C171	C	0.570036	-0.488629	-0.000038
C172	C	1.070036	0.011371	0.499962
C173	C	0.526213	-0.457330	-0.000033
C174	C	1.026213	0.042670	0.499967
C175	C	0.569523	-0.539044	-0.000038
C176	C	1.069523	-0.039044	0.499962
C177	C	0.613346	-0.570343	-0.000043
C178	C	1.113346	-0.070343	0.499957
C179	C	0.657683	-0.551228	-0.000048
C180	C	1.157683	-0.051228	0.499952
C181	C	0.658195	-0.500816	-0.000052
C182	C	1.158195	-0.000816	0.499948
C183	C	0.481876	-0.476445	-0.000028
C184	C	0.981876	0.023555	0.499972
C185	C	0.481367	-0.526858	-0.000024
C186	C	0.981367	-0.026858	0.499976
C187	C	0.525191	-0.558157	-0.000029
C188	C	1.025191	-0.058157	0.499971
C189	C	0.658949	0.057571	-0.000067
C190	C	1.158949	0.557571	0.499933
C191	C	0.712605	0.058113	-0.000070
C192	C	1.212605	0.558113	0.499930
C193	C	0.566353	0.150182	-0.000045
C194	C	1.066353	0.650182	0.499955
C195	C	0.566906	0.203837	-0.000037
C196	C	1.066906	0.703837	0.499963
N197	N	0.570505	0.061746	-0.129304
N198	N	1.070505	0.561746	0.370696
C199	C	0.541454	0.032657	-0.526198
C200	C	1.041454	0.532657	-0.026198
C201	C	0.541431	0.032644	-0.317320
C202	C	1.041431	0.532644	0.182680
O203	O	0.516699	0.007871	-0.290329
O204	O	1.016699	0.507871	0.209671
N205	N	0.570524	0.061753	-0.291183
N206	N	1.070524	0.561753	0.208817
C207	C	0.599628	0.090866	-0.317268
C208	C	1.099628	0.590866	0.182732
O209	O	0.624376	0.115621	-0.290244
O210	O	1.124376	0.615621	0.209756
C211	C	0.599653	0.090876	-0.526145
C212	C	1.099653	0.590876	-0.026145
C213	C	0.570554	0.061768	-0.552280
C214	C	1.070554	0.561768	-0.052280
C215	C	0.512358	0.003552	-0.552333
C216	C	1.012358	0.503552	-0.052333
C217	C	0.512362	0.003557	-0.604549
C218	C	1.012362	0.503557	-0.104549
C219	C	0.541462	0.032668	-0.630631
C220	C	1.041462	0.532668	-0.130631
C221	C	0.570558	0.061774	-0.604496
C222	C	1.070558	0.561774	-0.104496
C223	C	0.628758	0.119985	-0.552229
C224	C	1.128758	0.619985	-0.052229
C225	C	0.628763	0.119984	-0.604451
C226	C	1.128763	0.619984	-0.104451
C227	C	0.599664	0.090877	-0.630586
C228	C	1.099664	0.590877	-0.130586
C229	C	0.599662	0.090891	-0.682794
C230	C	1.099662	0.590891	-0.182794
N231	N	0.570569	0.061781	-0.708931
N232	N	1.070569	0.561781	-0.208931
C233	C	0.541469	0.032670	-0.682850
C234	C	1.041469	0.532670	-0.182850
C235	C	0.599612	0.090859	-0.207605
C236	C	1.099612	0.590859	0.292395
C237	C	0.599605	0.090857	-0.155386
C238	C	1.099605	0.590857	0.344614
C239	C	0.541409	0.032635	-0.155442
C240	C	1.041409	0.532635	0.344558
C241	C	0.541413	0.032639	-0.207662
C242	C	1.041413	0.532639	0.292338
C243	C	0.570518	0.061749	-0.233742
C244	C	1.070518	0.561749	0.266258
C245	C	0.541479	0.032685	-0.792508
C246	C	1.041479	0.532685	-0.292508
C247	C	0.541484	0.032694	-0.844729
C248	C	1.041484	0.532694	-0.344729
C249	C	0.599682	0.090915	-0.844668
C250	C	1.099682	0.590915	-0.344668
C251	C	0.599675	0.090907	-0.792452
C252	C	1.099675	0.590907	-0.292452
C253	C	0.570572	0.061788	-0.766373
C254	C	1.070572	0.561788	-0.266373
O255	O	0.624386	0.115647	-0.709818
O256	O	1.124386	0.615647	-0.209818
O257	O	0.516732	0.007911	-0.709883
O258	O	1.016732	0.507911	-0.209883
C259	C	0.541450	0.032652	-0.473982
C260	C	1.041450	0.532652	0.026018
C261	C	0.570546	0.061757	-0.447847
C262	C	1.070546	0.561757	0.052153
C263	C	0.599646	0.090868	-0.473928
C264	C	1.099646	0.590868	0.026072
C265	C	0.570539	0.061755	-0.395628
C266	C	1.070539	0.561755	0.104372
C267	C	0.541439	0.032644	-0.369547
C268	C	1.041439	0.532644	0.130453
C269	C	0.512346	0.003535	-0.395684
C270	C	1.012346	0.503535	0.104316
C271	C	0.512350	0.003540	-0.447900
C272	C	1.012350	0.503540	0.052100
C273	C	0.628739	0.119978	-0.447791
C274	C	1.128739	0.619978	0.052209
C275	C	0.628732	0.119970	-0.395575
C276	C	1.128732	0.619970	0.104425
C277	C	0.599632	0.090859	-0.369493
C278	C	1.099632	0.590859	0.130507
N279	N	0.570584	0.061805	0.129190
N280	N	1.070584	0.561805	0.629190
H281	H	0.423779	0.065378	-0.082091
H282	H	0.923779	0.565378	0.417909
H283	H	-0.050827	0.060494	-0.127329
H284	H	0.449173	0.560494	0.372671
H285	H	0.447722	-0.299716	-0.000018
H286	H	0.947722	0.200284	0.499982
Cl287	Cl	0.425621	-0.550877	-0.000014
Cl288	Cl	0.925621	-0.050877	0.499986
H289	H	0.100421	0.062044	-0.127329
H290	H	0.600421	0.562044	0.372671
Cl291	Cl	0.712774	-0.590585	-0.000056
Cl292	Cl	1.212774	-0.090585	0.499944
Cl293	Cl	0.475767	-0.033054	-0.480748
Cl294	Cl	0.975767	0.466946	0.019252
Cl295	Cl	0.714320	-0.439332	-0.000069
Cl296	Cl	1.214320	0.060668	0.499931
H297	H	0.517781	0.008973	-0.771280
H298	H	1.017781	0.508973	-0.271280
H299	H	0.100475	0.062093	0.127217
H300	H	0.600475	0.562093	0.627217
H301	H	0.695837	-0.334024	-0.000072
H302	H	1.195837	0.165976	0.499928
H303	H	0.486977	-0.780420	-0.000033
H304	H	0.986977	-0.280420	0.499967
Cl305	Cl	0.636202	0.127461	-0.240384
Cl306	Cl	1.136202	0.627461	0.259616
H307	H	0.646929	-0.802541	-0.000047
H308	H	1.146929	-0.302541	0.499953
H309	H	0.652437	0.143683	-0.469021
H310	H	1.152437	0.643683	0.030979
Cl311	Cl	0.321165	0.064311	-0.102130
Cl312	Cl	0.821165	0.564311	0.397870
H313	H	0.040633	0.061432	-0.127331
H314	H	0.540633	0.561432	0.372669
Cl315	Cl	0.203025	0.063093	-0.147356
Cl316	Cl	0.703025	0.563093	0.352644
H317	H	0.487905	-0.688970	-0.000025
H318	H	0.987905	-0.188970	0.499975
H319	H	-0.282694	0.058186	0.081978
H320	H	0.217306	0.558186	0.581978
H321	H	0.488669	-0.020147	-0.625824
H322	H	0.988669	0.479853	-0.125824
Cl323	Cl	0.673747	-0.087558	-0.000089
Cl324	Cl	1.173747	0.412442	0.499911
Cl325	Cl	0.665331	0.156591	-0.519387
Cl326	Cl	1.165331	0.656591	-0.019387
Cl327	Cl	-0.180109	0.059189	-0.102148
Cl328	Cl	0.319891	0.559189	0.397852
H329	H	0.623373	0.114617	-0.865913
H330	H	1.123373	0.614617	-0.365913
H331	H	-0.282733	0.058141	-0.082116
H332	H	0.217267	0.558141	0.417884
Cl333	Cl	0.672597	-0.201336	-0.000074
Cl334	Cl	1.172597	0.298664	0.499926
H335	H	-0.191243	0.059111	0.081984
H336	H	0.308757	0.559111	0.581984
H337	H	0.652465	0.143689	-0.625684
H338	H	1.152465	0.643689	-0.125684
Cl339	Cl	0.203093	0.063142	0.147246
Cl340	Cl	0.703093	0.563142	0.647246
Cl341	Cl	0.665311	0.156573	-0.362726
Cl342	Cl	1.165311	0.656573	0.137274
H343	H	0.446789	-0.391167	-0.000016
H344	H	0.946789	0.108833	0.499984
H345	H	0.623362	0.114616	-0.771172
H346	H	1.123362	0.614616	-0.271172
H347	H	0.332347	0.064480	0.082004
H348	H	0.832347	0.564480	0.582004
Cl349	Cl	0.426778	-0.437104	-0.000021
Cl350	Cl	0.926778	0.062896	0.499979
Cl351	Cl	0.475762	-0.033060	-0.362886
Cl352	Cl	0.975762	0.466940	0.137114
H353	H	0.423814	0.065414	0.082003
H354	H	0.923814	0.565414	0.582003
H355	H	0.040677	0.061488	0.127207
H356	H	0.540677	0.561488	0.627207
Cl357	Cl	-0.061929	0.060442	0.147234
Cl358	Cl	0.438071	0.560442	0.647234
H359	H	0.493226	-0.165375	-0.000066
H360	H	0.993226	0.334625	0.499934
Cl361	Cl	0.667501	-0.702612	-0.000059
Cl362	Cl	1.167501	-0.202612	0.499941
Cl363	Cl	0.504899	-0.003900	-0.877580
Cl364	Cl	1.004899	0.496100	-0.377580
Cl365	Cl	0.474750	-0.060044	-0.000057
Cl366	Cl	0.974750	0.439956	0.499943
H367	H	0.694301	-0.485260	-0.000060
H368	H	1.194301	0.014740	0.499940
H369	H	0.488661	-0.020157	-0.531103
H370	H	0.988661	0.479843	-0.031103
Cl371	Cl	0.504832	-0.003956	-0.240511
Cl372	Cl	1.004832	0.496044	0.259489
H373	H	0.623294	0.114565	-0.134111
H374	H	1.123294	0.614565	0.365889
Cl375	Cl	0.504827	-0.003963	-0.122644
Cl376	Cl	1.004827	0.496037	0.377356
