data_functionalizedCrystal
_audit_creation_method	'MofGen! by Chris Wilmer'
_symmetry_space_group_name_H-M	'P1'
_symmetry_Int_Tables_number	1
_symmetry_cell_setting	triclinic
loop_
_symmetry_equiv_pos_as_xyz
  x,y,z
_cell_length_a	14.519709
_cell_length_b	7.681481
_cell_length_c	8.559649
_cell_angle_alpha	94.930900
_cell_angle_beta	103.270595
_cell_angle_gamma	95.739713
loop_
_atom_site_label
_atom_site_type_symbol
_atom_site_fract_x
_atom_site_fract_y
_atom_site_fract_z
O1	O	1.199063	-0.146196	-0.224489
O2	O	1.532396	0.187138	0.108844
O3	O	1.865729	0.520471	0.442178
O4	O	0.928812	-0.146249	-0.249156
O5	O	1.262145	0.187085	0.084178
O6	O	1.595479	0.520418	0.417511
O7	O	1.087747	-0.146216	-0.004288
O8	O	1.421080	0.187118	0.329046
O9	O	1.754413	0.520451	0.662379
O10	O	1.040128	-0.146229	-0.469357
O11	O	1.373461	0.187105	-0.136023
O12	O	1.706795	0.520438	0.197310
O13	O	1.107314	0.146646	0.025920
O14	O	1.440647	0.479979	0.359253
O15	O	1.773981	0.813313	0.692587
O16	O	0.948379	0.146613	-0.218948
O17	O	1.281713	0.479946	0.114385
O18	O	1.615046	0.813280	0.447719
O19	O	1.218630	0.146666	-0.194281
O20	O	1.551963	0.480000	0.139052
O21	O	1.885296	0.813333	0.472385
Zn22	Zn	1.086611	0.193138	-0.201819
Zn23	Zn	1.419945	0.526471	0.131515
Zn24	Zn	1.753278	0.859804	0.464848
Zn25	Zn	1.060831	-0.192720	-0.241618
Zn26	Zn	1.394164	0.140613	0.091715
Zn27	Zn	1.727497	0.473946	0.425048
O28	O	1.059695	0.146633	-0.439149
O29	O	1.393028	0.479966	-0.105816
O30	O	1.726362	0.813300	0.227517
C31	C	0.904318	0.000175	-0.232903
C32	C	1.237651	0.333509	0.100430
C33	C	1.570985	0.666842	0.433764
C34	C	0.802183	0.000155	-0.229461
C35	C	1.135516	0.333488	0.103872
C36	C	1.468849	0.666822	0.437205
N37	N	1.104212	0.456476	-0.174655
N38	N	1.437546	0.789809	0.158678
N39	N	1.770879	1.123142	0.492011
N40	N	1.043238	-0.456058	-0.268769
N41	N	1.376571	-0.122725	0.064564
N42	N	1.709904	0.210608	0.397898
C43	C	0.428202	0.000235	-0.216774
C44	C	0.761535	0.333569	0.116560
C45	C	1.094869	0.666902	0.449893
C46	C	0.532256	0.000212	-0.220297
C47	C	0.865589	0.333546	0.113036
C48	C	1.198923	0.666879	0.446370
C49	C	0.615189	0.000193	-0.223117
C50	C	0.948522	0.333527	0.110216
C51	C	1.281856	0.666860	0.443549
C52	C	0.719249	0.000174	-0.226641
C53	C	1.052583	0.333507	0.106692
C54	C	1.385916	0.666841	0.440026
C55	C	1.243124	0.000238	-0.210534
C56	C	1.576457	0.333572	0.122799
C57	C	1.909790	0.666905	0.456132
C58	C	1.345258	0.000247	-0.213977
C59	C	1.678592	0.333580	0.119356
C60	C	2.011925	0.666914	0.452689
C61	C	1.101139	0.000213	0.070335
C62	C	1.434472	0.333546	0.403669
C63	C	1.767805	0.666879	0.737002
C64	C	1.111880	0.000205	0.247684
C65	C	1.445213	0.333538	0.581017
C66	C	1.778546	0.666872	0.914351
C67	C	1.046303	0.000201	-0.513773
C68	C	1.379636	0.333534	-0.180439
C69	C	1.712969	0.666868	0.152894
C70	C	1.035561	0.000197	-0.691123
C71	C	1.368894	0.333530	-0.357789
C72	C	1.702228	0.666864	-0.024456
H73	H	0.980995	0.468732	-0.364830
H74	H	1.314329	0.802065	-0.031497
H75	H	1.647662	1.135399	0.301836
Br76	Br	1.207974	0.581833	-0.014556
Br77	Br	1.541307	0.915166	0.318777
Br78	Br	1.874640	1.248499	0.652111
H79	H	0.962003	0.000188	0.225590
H80	H	1.295337	0.333521	0.558923
H81	H	1.628670	0.666855	0.892257
Br82	Br	1.234495	0.000261	0.386508
Br83	Br	1.567828	0.333594	0.719842
Br84	Br	1.901161	0.666927	1.053175
