data_functionalizedCrystal
_audit_creation_method	'MofGen! by Chris Wilmer'
_symmetry_space_group_name_H-M	'P1'
_symmetry_Int_Tables_number	1
_symmetry_cell_setting	triclinic
loop_
_symmetry_equiv_pos_as_xyz
  x,y,z
_cell_length_a	17.038272
_cell_length_b	15.944551
_cell_length_c	15.021413
_cell_angle_alpha	89.996935
_cell_angle_beta	90.002222
_cell_angle_gamma	87.305147
loop_
_atom_site_label
_atom_site_type_symbol
_atom_site_fract_x
_atom_site_fract_y
_atom_site_fract_z
O1	O	-1.037425	-0.182391	-0.073924
O2	O	-0.809794	-0.179495	-0.073950
O3	O	-0.929826	-0.059112	-0.073929
O4	O	-0.917393	-0.302774	-0.073946
O5	O	-0.929806	-0.059129	0.074136
O6	O	-0.809775	-0.179512	0.074114
O7	O	-1.037406	-0.182408	0.074140
Zn8	Zn	-0.923587	-0.180963	0.097635
Zn9	Zn	-0.923612	-0.180940	-0.097446
O10	O	-0.917374	-0.302791	0.074118
C11	C	-0.780655	-0.176869	0.000079
C12	C	-0.693860	-0.169010	0.000069
C13	C	-0.929300	-0.027790	0.000104
C14	C	-0.927753	0.065567	0.000104
C15	C	-1.066545	-0.185034	0.000109
C16	C	-1.153340	-0.192893	0.000113
C17	C	-0.643767	-0.241168	0.000064
C18	C	-0.562214	-0.233778	0.000077
C19	C	-0.530756	-0.154230	0.000088
C20	C	-0.580855	-0.082067	0.000095
C21	C	-0.662406	-0.089457	0.000089
C22	C	-0.284990	-0.128121	0.000114
C23	C	-0.203433	-0.120736	0.000118
C24	C	-0.184797	-0.272448	0.000101
C25	C	-0.266351	-0.279831	0.000089
C26	C	-0.316443	-0.207668	0.000101
C27	C	-0.447396	-0.146675	0.000098
C28	C	-0.399801	-0.215224	0.000097
C29	C	-0.917900	-0.334114	0.000084
C30	C	-0.919447	-0.427470	0.000078
N31	N	-0.923576	-0.180978	0.230773
C32	C	-0.849653	0.286000	0.000083
C33	C	-0.885910	0.344419	0.073092
C34	C	-0.924953	0.236492	0.000097
C35	C	-0.885947	0.344418	-0.072888
C36	C	-0.922244	0.401598	0.000086
C37	C	-0.961232	0.293682	0.073166
C38	C	-0.961258	0.293676	-0.072879
C39	C	-0.997570	0.352073	0.000147
C40	C	-0.926512	0.141379	0.000104
C41	C	-0.920691	0.496710	0.000085
N42	N	-0.923630	-0.180919	-0.230583
C43	C	-0.868065	-0.236615	0.470446
C44	C	-0.938714	-0.257966	0.529787
C45	C	-0.923596	-0.180959	0.412380
C46	C	-0.852965	-0.159627	0.529780
C47	C	-0.923609	-0.180941	0.587804
C48	C	-0.994281	-0.202350	0.470415
C49	C	-0.908486	-0.103976	0.470402
C50	C	-0.979186	-0.125298	0.529717
C51	C	-0.923587	-0.180971	0.311323
C52	C	-0.923626	-0.180929	0.688859
H53	H	-0.669373	-0.305944	0.000055
C54	C	-1.074999	-0.226823	0.435337
N55	N	-1.135794	-0.245259	0.408914
H56	H	-0.854096	0.366777	-0.134616
H57	H	-1.026204	-0.078225	0.555578
C58	C	-0.891173	-0.016061	0.435129
N59	N	-0.878123	0.050157	0.408558
C60	C	-1.004258	0.263417	-0.156260
N61	N	-1.036640	0.240624	-0.219070
H62	H	-0.951506	-0.323062	0.555872
H63	H	-0.821151	-0.283725	0.444422
C64	C	-0.507115	-0.313158	0.000088
N65	N	-0.465615	-0.372950	0.000103
H66	H	-0.793229	-0.141594	0.555860
C67	C	-0.129690	-0.351821	0.000099
N68	N	-0.088183	-0.411609	0.000103
C69	C	-0.300948	-0.367340	0.000091
N70	N	-0.327007	-0.433253	0.000095
H71	H	-0.177823	-0.055955	0.000125
H72	H	-1.060128	0.380766	0.000196
H73	H	-0.325766	-0.069360	0.000124
H74	H	-0.703192	-0.030699	0.000092
C75	C	-0.546248	0.005437	0.000109
N76	N	-0.520183	0.071347	0.000116
H77	H	-0.425418	-0.279992	0.000093
H78	H	-0.421774	-0.081906	0.000132
H79	H	-0.787150	0.257155	0.000148
C80	C	-1.004209	0.263600	0.156646
N81	N	-1.036575	0.240939	0.219524
C82	C	-0.842872	0.374652	0.156465
N83	N	-0.810451	0.397421	0.219258
