data_functionalizedCrystal
_audit_creation_method	'MofGen! by Chris Wilmer'
_symmetry_space_group_name_H-M	'P1'
_symmetry_Int_Tables_number	1
_symmetry_cell_setting	triclinic
loop_
_symmetry_equiv_pos_as_xyz
  x,y,z
_cell_length_a	10.654562
_cell_length_b	10.967971
_cell_length_c	9.130313
_cell_angle_alpha	102.128783
_cell_angle_beta	89.996930
_cell_angle_gamma	84.602930
loop_
_atom_site_label
_atom_site_type_symbol
_atom_site_fract_x
_atom_site_fract_y
_atom_site_fract_z
O1	O	1.667797	0.175343	-0.077635
O2	O	1.302318	0.192025	-0.073406
O3	O	1.493489	0.002111	-0.121345
O4	O	1.476627	0.365257	-0.029696
O5	O	1.493487	0.002116	0.122256
O6	O	1.302316	0.192030	0.170194
O7	O	1.667795	0.175348	0.165965
Cu8	Cu	1.485055	0.183690	0.190322
Cu9	Cu	1.485058	0.183684	-0.097763
O10	O	1.476624	0.365262	0.213904
C11	C	1.255520	0.190800	0.048087
C12	C	1.116078	0.187125	0.047166
C13	C	1.050546	0.185414	0.179509
C14	C	0.919524	0.181971	0.178615
C15	C	0.919577	0.181956	-0.086973
C16	C	1.050597	0.185390	-0.086081
C17	C	1.050514	0.185428	0.332846
C18	C	0.919492	0.181985	0.331952
C19	C	1.492261	-0.044385	-0.011283
C20	C	1.488591	-0.182939	-0.046259
C21	C	1.486953	-0.244714	0.064339
C22	C	1.483160	-0.387916	0.028192
C23	C	1.714594	0.176574	0.044469
C24	C	1.854036	0.180248	0.045380
C25	C	1.477852	0.411759	0.103839
C26	C	1.481522	0.550312	0.138805
N27	N	1.485063	0.183693	0.392946
N28	N	1.485061	0.183670	-0.300389
C29	C	1.569735	0.099628	0.448378
C30	C	1.569731	0.099613	0.601711
C31	C	1.400379	0.267739	0.644169
C32	C	1.400378	0.267747	0.490837
C33	C	1.667513	0.002565	0.423867
C34	C	1.667509	0.002550	0.577200
H35	H	0.889918	0.090976	0.356564
F36	F	1.793651	0.030493	0.638648
H37	H	0.866247	0.180543	-0.195458
F38	F	1.120340	0.187187	-0.226943
F39	F	1.111001	0.072711	0.381363
F40	F	1.089158	0.304384	0.425054
H41	H	0.873192	0.268229	0.412583
H42	H	1.331430	0.336173	0.723888
F43	F	1.488799	-0.175278	0.223082
H44	H	1.481760	-0.441041	-0.093263
H45	H	1.482935	-0.396566	0.260260
H46	H	1.487191	-0.236069	-0.167705
F47	F	1.786682	0.042309	0.371721
F48	F	1.310245	0.357204	0.431840
F49	F	1.639505	-0.122802	0.337821
H50	H	1.637011	-0.088091	0.601873
