data_functionalizedCrystal
_audit_creation_method	'MofGen! by Chris Wilmer'
_symmetry_space_group_name_H-M	'P1'
_symmetry_Int_Tables_number	1
_symmetry_cell_setting	triclinic
loop_
_symmetry_equiv_pos_as_xyz
  x,y,z
_cell_length_a	11.169417
_cell_length_b	12.759394
_cell_length_c	11.169409
_cell_angle_alpha	90.034524
_cell_angle_beta	90.019824
_cell_angle_gamma	90.015716
loop_
_atom_site_label
_atom_site_type_symbol
_atom_site_fract_x
_atom_site_fract_y
_atom_site_fract_z
Zn1	Zn	1.834925	-0.418157	0.678525
Zn2	Zn	1.834798	-0.593883	0.477834
Zn3	Zn	1.634211	-0.418221	0.477859
Zn4	Zn	1.634202	-0.593797	0.678479
O5	O	1.734534	-0.506014	0.578174
O6	O	2.002858	-0.441476	0.651911
O7	O	1.808141	-0.570643	0.309887
O8	O	1.660892	-0.271191	0.504507
O9	O	2.002765	-0.570581	0.504465
O10	O	1.808356	-0.271144	0.651935
O11	O	1.660770	-0.441585	0.309906
O12	O	1.466260	-0.441502	0.504463
O13	O	1.660878	-0.570435	0.846435
O14	O	1.466254	-0.570498	0.651857
O15	O	1.808348	-0.441393	0.846468
O16	O	1.808133	-0.740892	0.504420
O17	O	1.660756	-0.740830	0.651833
C18	C	1.422709	-0.505998	0.578159
C19	C	1.289309	-0.506017	0.578180
C20	C	1.734462	-0.778982	0.578145
C21	C	1.734541	-0.895759	0.578173
C22	C	1.888120	-0.895771	0.424787
C23	C	1.964941	-0.950637	0.348108
C24	C	1.965011	-1.060359	0.348140
C25	C	1.888255	-1.115216	0.424863
C26	C	1.811434	-1.060349	0.501541
C27	C	1.811370	-0.950625	0.501498
C28	C	1.657863	-1.060337	0.654932
C29	C	1.657785	-0.950616	0.654895
C30	C	1.581107	-1.115195	0.731654
C31	C	1.504279	-1.060328	0.808329
C32	C	1.504210	-0.950600	0.808292
C33	C	1.580964	-0.895749	0.731574
C34	C	2.047576	-0.506031	0.578190
C35	C	2.180976	-0.506038	0.578197
C36	C	1.734626	-0.505898	0.891217
C37	C	1.734666	-0.505848	1.024617
C38	C	1.734639	-0.231981	0.578229
C39	C	1.734684	-0.115204	0.578253
C40	C	1.734511	-0.506055	0.266349
C41	C	1.734705	-0.505808	0.132950
H42	H	2.027437	-0.905963	0.285643
C43	C	1.773851	-0.738708	0.394048
C44	C	1.888035	-0.775163	0.424740
H45	H	1.773805	-0.664249	0.394012
H46	H	1.717164	-0.763522	0.450715
H47	H	1.753157	-0.763616	0.316592
H48	H	1.908726	-0.750261	0.502201
H49	H	1.944741	-0.750338	0.368071
C50	C	2.002530	-1.272275	0.455599
C51	C	1.888345	-1.235824	0.424904
H52	H	2.002586	-1.346733	0.455617
H53	H	2.023216	-1.247377	0.533050
H54	H	2.059225	-1.247446	0.398931
H55	H	1.831651	-1.260647	0.481577
H56	H	1.867645	-1.260732	0.347441
C57	C	1.611769	-1.272257	0.845901
C58	C	1.581192	-1.235802	0.731696
H59	H	1.611826	-1.346716	0.845922
H60	H	1.555032	-1.247437	0.902534
H61	H	1.689195	-1.247353	0.866689
H62	H	1.503762	-1.260700	0.710911
H63	H	1.637931	-1.260633	0.675044
C64	C	2.116807	-1.049362	0.196504
C65	C	2.049450	-1.120675	0.263853
H66	H	2.168929	-1.086601	0.144465
H67	H	2.162669	-1.006497	0.248814
H68	H	2.064499	-1.006635	0.150543
H69	H	2.101757	-1.163397	0.309821
H70	H	2.003584	-1.163558	0.211537
C71	C	1.301052	-1.094217	0.866655
C72	C	1.419917	-1.120623	0.892659
H73	H	1.248972	-1.131439	0.918724
H74	H	1.283543	-1.112286	0.786020
H75	H	1.290024	-1.021017	0.877604
H76	H	1.430947	-1.193822	0.881701
H77	H	1.437432	-1.102561	0.973314
H78	H	1.441658	-0.905933	0.870738
C79	C	1.550330	-0.738685	0.617321
C80	C	1.580895	-0.775141	0.731529
H81	H	1.550300	-0.664227	0.617294
H82	H	1.472908	-0.763570	0.596533
H83	H	1.607070	-0.763524	0.560685
H84	H	1.524150	-0.750309	0.788165
H85	H	1.658328	-0.750246	0.752331
