data_functionalizedCrystal
_audit_creation_method	'MofGen! by Chris Wilmer'
_symmetry_space_group_name_H-M	'P1'
_symmetry_Int_Tables_number	1
_symmetry_cell_setting	triclinic
loop_
_symmetry_equiv_pos_as_xyz
  x,y,z
_cell_length_a	11.792241
_cell_length_b	13.262415
_cell_length_c	12.376457
_cell_angle_alpha	85.805102
_cell_angle_beta	78.632725
_cell_angle_gamma	84.320670
loop_
_atom_site_label
_atom_site_type_symbol
_atom_site_fract_x
_atom_site_fract_y
_atom_site_fract_z
O1	O	1.536523	0.116290	-0.129644
O2	O	1.207146	0.130202	-0.133947
O3	O	1.369978	-0.020123	-0.087712
O4	O	1.373690	0.266616	-0.175880
O5	O	1.329281	0.017407	0.088757
O6	O	1.166449	0.167732	0.042522
O7	O	1.495826	0.153820	0.046825
Zn8	Zn	1.324676	0.166735	0.072692
Zn9	Zn	1.378296	0.117288	-0.159814
O10	O	1.332994	0.304146	0.000590
C11	C	1.346095	-0.038068	0.011807
C12	C	1.335550	-0.147450	0.045433
C13	C	1.144447	0.148092	-0.045447
C14	C	1.018255	0.145474	-0.044652
C15	C	1.394567	-0.537600	-0.244562
C16	C	1.404485	-0.434832	-0.276160
C17	C	1.387251	-0.362982	-0.195764
C18	C	1.360100	-0.393909	-0.083765
C19	C	1.350190	-0.496689	-0.052164
C20	C	1.342874	-0.322070	-0.003367
C21	C	1.315722	-0.352998	0.108633
C22	C	1.305813	-0.455767	0.140229
C23	C	1.323047	-0.527618	0.059833
C24	C	1.352784	-0.219291	-0.034968
C25	C	1.308407	-0.178379	0.157430
C26	C	1.298489	-0.281148	0.189028
C27	C	0.787205	0.140669	-0.043142
C28	C	0.915778	0.143338	-0.043981
C29	C	1.558525	0.135930	-0.041678
C30	C	1.684719	0.138547	-0.042480
C31	C	1.356877	0.322090	-0.098932
C32	C	1.367424	0.431471	-0.132565
N33	N	1.288091	0.200481	0.231371
N34	N	1.414890	0.083534	-0.318491
C35	C	1.499815	0.005179	0.646424
C36	C	1.525415	-0.018439	0.535349
C37	C	1.466085	0.036288	0.459349
C38	C	1.381153	0.114640	0.494435
C39	C	1.355557	0.138266	0.605520
C40	C	1.321827	0.169375	0.418445
C41	C	1.236895	0.247726	0.453531
C42	C	1.211302	0.271348	0.564605
C43	C	1.270631	0.216621	0.640605
C44	C	1.347424	0.145748	0.307360
C45	C	1.203165	0.278835	0.266456
C46	C	1.177566	0.302454	0.377531
H47	H	1.374891	-0.194121	-0.126159
O48	O	1.269232	-0.314521	0.309823
H49	H	1.186992	-0.352012	0.326242
H50	H	1.395328	-0.279304	-0.221499
O51	O	1.433746	-0.401469	-0.396949
H52	H	1.444049	-0.468692	-0.447546
H53	H	1.294377	-0.119878	0.222895
O54	O	1.243030	0.242092	0.760413
H55	H	1.150267	0.232059	0.794712
O56	O	1.617016	-0.102938	0.497503
H57	H	1.577253	-0.161860	0.461699
H58	H	1.486933	0.017054	0.368907
O59	O	1.563803	-0.053842	0.728387
H60	H	1.531731	-0.024251	0.811520
H61	H	1.416576	0.081955	0.278803
H62	H	1.142154	0.335154	0.593169
O63	O	1.413150	-0.615089	-0.331267
H64	H	1.401690	-0.691747	-0.290475
H65	H	1.314971	-0.611302	0.085555
H66	H	1.154856	0.323401	0.204575
O67	O	1.276536	-0.489133	0.261025
H68	H	1.266207	-0.421908	0.311622
O69	O	1.085972	0.386969	0.415373
H70	H	1.078153	0.394205	0.505378
