data_functionalizedCrystal
_audit_creation_method	'MofGen! by Chris Wilmer'
_symmetry_space_group_name_H-M	'P1'
_symmetry_Int_Tables_number	1
_symmetry_cell_setting	triclinic
loop_
_symmetry_equiv_pos_as_xyz
  x,y,z
_cell_length_a	19.077105
_cell_length_b	16.625546
_cell_length_c	16.625539
_cell_angle_alpha	90.028532
_cell_angle_beta	92.314163
_cell_angle_gamma	87.718759
loop_
_atom_site_label
_atom_site_type_symbol
_atom_site_fract_x
_atom_site_fract_y
_atom_site_fract_z
Zn1	Zn	1.075977	-0.370618	0.505359
Zn2	Zn	1.075900	-0.505453	0.370518
Zn3	Zn	0.958284	-0.365216	0.365129
Zn4	Zn	0.958251	-0.499985	0.499900
O5	O	1.017103	-0.435318	0.435227
O6	O	1.174458	-0.393053	0.492012
O7	O	1.060279	-0.486878	0.256970
O8	O	0.973943	-0.253103	0.383761
O9	O	1.174401	-0.492116	0.392945
O10	O	1.060411	-0.257071	0.486787
O11	O	0.973868	-0.383847	0.253011
O12	O	0.859789	-0.378545	0.378467
O13	O	0.973887	-0.482797	0.613457
O14	O	0.859765	-0.477559	0.477482
O15	O	1.060379	-0.387751	0.617468
O16	O	1.060247	-0.617558	0.387651
O17	O	0.973812	-0.613541	0.482707
C18	C	0.834240	-0.426873	0.426798
C19	C	0.756010	-0.423279	0.423211
C20	C	1.017037	-0.644806	0.435190
C21	C	1.017072	-0.734429	0.435204
C22	C	0.719263	-0.473220	0.472997
C23	C	0.645758	-0.469833	0.469631
C24	C	0.609000	-0.416508	0.416474
C25	C	0.645752	-0.366562	0.366687
C26	C	0.719256	-0.369946	0.370057
C27	C	0.389167	-0.400848	0.400878
C28	C	0.315657	-0.397470	0.397509
C29	C	0.315668	-0.500740	0.500455
C30	C	0.389173	-0.504122	0.503817
C31	C	0.425919	-0.454173	0.454033
N32	N	0.533866	-0.413046	0.413030
N33	N	0.501051	-0.457631	0.457481
C34	C	1.017195	-1.062610	0.435294
C35	C	1.017159	-0.971300	0.435271
C36	C	1.017133	-0.898522	0.435248
C37	C	1.017098	-0.807206	0.435226
C38	C	1.200681	-0.443797	0.443689
C39	C	1.278911	-0.447411	0.447294
C40	C	1.017138	-0.435267	0.645537
C41	C	1.017152	-0.435245	0.735159
C42	C	1.017189	-0.225013	0.435282
C43	C	1.017226	-0.135394	0.435306
C44	C	1.017109	-0.435313	0.225736
C45	C	1.017231	-0.435114	0.136121
C46	C	1.017164	-0.435227	0.807942
C47	C	1.017180	-0.435198	0.899251
C48	C	1.017197	-0.435170	0.972029
C49	C	1.017214	-0.435142	1.063344
H50	H	0.749185	-0.516645	0.516280
H51	H	0.749175	-0.329274	0.329521
Cl52	Cl	0.435377	-0.571164	0.570643
H53	H	0.615819	-0.323140	0.323409
Cl54	Cl	0.599565	-0.532619	0.532222
H55	H	0.285742	-0.541405	0.540988
H56	H	0.285732	-0.354037	0.354227
Cl57	Cl	0.435351	-0.338052	0.338293
