data_functionalizedCrystal
_audit_creation_method	'MofGen! by Chris Wilmer'
_symmetry_space_group_name_H-M	'P1'
_symmetry_Int_Tables_number	1
_symmetry_cell_setting	triclinic
loop_
_symmetry_equiv_pos_as_xyz
  x,y,z
_cell_length_a	19.805407
_cell_length_b	12.594516
_cell_length_c	19.805399
_cell_angle_alpha	90.022473
_cell_angle_beta	90.019573
_cell_angle_gamma	90.011816
loop_
_atom_site_label
_atom_site_type_symbol
_atom_site_fract_x
_atom_site_fract_y
_atom_site_fract_z
Zn1	Zn	1.034804	-0.423767	0.382744
Zn2	Zn	1.534804	0.076233	0.882744
Zn3	Zn	1.034748	-0.601760	0.269566
Zn4	Zn	1.534748	-0.101760	0.769566
Zn5	Zn	0.921619	-0.423796	0.269568
Zn6	Zn	1.421619	0.076204	0.769568
Zn7	Zn	0.921611	-0.601704	0.382712
Zn8	Zn	1.421611	-0.101704	0.882712
O9	O	0.978196	-0.512757	0.326147
O10	O	1.478196	-0.012757	0.826147
O11	O	1.129513	-0.447389	0.367742
O12	O	1.629513	0.052611	0.867742
O13	O	1.019721	-0.578189	0.174849
O14	O	1.519721	-0.078189	0.674849
O15	O	0.936660	-0.274846	0.284596
O16	O	1.436660	0.225154	0.784596
O17	O	1.129472	-0.578160	0.284591
O18	O	1.629472	-0.078160	0.784591
O19	O	1.019817	-0.274825	0.367745
O20	O	1.519817	0.225175	0.867745
O21	O	0.936605	-0.447439	0.174851
O22	O	1.436605	0.052561	0.674851
O23	O	0.826901	-0.447385	0.284565
O24	O	1.326901	0.052615	0.784565
O25	O	0.936647	-0.578064	0.477433
O26	O	1.436647	-0.078064	0.977433
O27	O	0.826896	-0.578092	0.367691
O28	O	1.326896	-0.078092	0.867691
O29	O	1.019809	-0.447334	0.477456
O30	O	1.519809	0.052666	0.977456
O31	O	1.019713	-0.750698	0.284560
O32	O	1.519713	-0.250698	0.784560
O33	O	0.936592	-0.750657	0.367689
O34	O	1.436592	-0.250657	0.867689
C35	C	0.802340	-0.512736	0.326126
C36	C	1.302340	-0.012736	0.826126
C37	C	0.727108	-0.512753	0.326132
C38	C	1.227108	-0.012753	0.826132
C39	C	0.978164	-0.789298	0.326136
C40	C	1.478164	-0.289298	0.826136
C41	C	0.978213	-0.907603	0.326153
C42	C	1.478213	-0.407603	0.826153
C43	C	0.691778	-0.580915	0.369346
C44	C	1.191778	-0.080915	0.869346
C45	C	0.621090	-0.580917	0.369356
C46	C	1.121090	-0.080917	0.869356
C47	C	0.585732	-0.512762	0.326147
C48	C	1.085732	-0.012762	0.826147
C49	C	0.621066	-0.444592	0.282932
C50	C	1.121066	0.055408	0.782932
C51	C	0.691754	-0.444586	0.282926
C52	C	1.191754	0.055414	0.782926
C53	C	0.335993	-0.444615	0.282954
C54	C	0.835993	0.055385	0.782954
C55	C	0.265301	-0.444629	0.282962
C56	C	0.765301	0.055371	0.782962
C57	C	0.265329	-0.580947	0.369384
C58	C	0.765329	-0.080947	0.869384
C59	C	0.336017	-0.580941	0.369378
C60	C	0.836017	-0.080941	0.869378
C61	C	0.371345	-0.512768	0.326165
C62	C	0.871345	-0.012768	0.826165
C63	C	0.447993	-0.512765	0.326156
C64	C	0.947993	-0.012765	0.826156
C65	C	0.509085	-0.512769	0.326152
C66	C	1.009085	-0.012769	0.826152
C67	C	1.023475	-0.976840	0.280988
C68	C	1.523475	-0.476840	0.780988
C69	C	1.040013	-1.047546	0.342767
C70	C	1.540013	-0.547546	0.842767
C71	C	0.961760	-1.047696	0.264414
C72	C	1.461760	-0.547696	0.764414
C73	C	0.994782	-0.976750	0.387964
C74	C	1.494782	-0.476750	0.887964
C75	C	0.916500	-0.976895	0.309570
C76	C	1.416500	-0.476895	0.809570
C77	C	0.933015	-1.047568	0.371391
C78	C	1.433015	-0.547568	0.871391
C79	C	1.154738	-0.512778	0.326170
C80	C	1.654738	-0.012778	0.826170
C81	C	1.229970	-0.512787	0.326179
C82	C	1.729970	-0.012787	0.826179
C83	C	0.978234	-0.512690	0.502690
C84	C	1.478234	-0.012690	1.002690
C85	C	0.978250	-0.512661	0.577922
C86	C	1.478250	-0.012661	1.077922
C87	C	0.978246	-0.235136	0.326174
C88	C	1.478246	0.264864	0.826174
C89	C	0.978267	-0.116830	0.326185
C90	C	1.478267	0.383170	0.826185
C91	C	0.978197	-0.512747	0.150291
C92	C	1.478197	-0.012747	0.650291
C93	C	0.978312	-0.512475	0.075060
C94	C	1.478312	-0.012475	0.575060
C95	C	1.021553	-0.444587	0.613280
C96	C	1.521553	0.055413	1.113280
C97	C	1.021560	-0.444556	0.683968
C98	C	1.521560	0.055444	1.183968
C99	C	0.978267	-0.512605	0.719298
C100	C	1.478267	-0.012605	1.219298
C101	C	0.934958	-0.580683	0.683936
C102	C	1.434958	-0.080683	1.183936
C103	C	0.934948	-0.580707	0.613249
C104	C	1.434948	-0.080707	1.113249
C105	C	0.934996	-0.580583	0.969009
C106	C	1.434996	-0.080583	1.469009
C107	C	0.935011	-0.580556	1.039701
C108	C	1.435011	-0.080556	1.539701
C109	C	1.021608	-0.444432	1.039729
C110	C	1.521608	0.055568	1.539729
C111	C	1.021599	-0.444457	0.969041
C112	C	1.521599	0.055543	1.469041
C113	C	0.978288	-0.512529	0.933685
C114	C	1.478288	-0.012529	1.433685
C115	C	0.978280	-0.512561	0.857037
C116	C	1.478280	-0.012561	1.357037
C117	C	0.978277	-0.512580	0.795945
C118	C	1.478277	-0.012580	1.295945
H119	H	0.720562	-0.636419	0.404529
H120	H	1.220562	-0.136419	0.904529
H121	H	0.899740	-0.636028	0.940231
H122	H	1.399740	-0.136028	1.440231
C123	C	0.374906	-0.655918	0.416909
C124	C	0.874906	-0.155918	0.916909
N125	N	0.404197	-0.712391	0.452713
N126	N	0.904197	-0.212391	0.952713
H127	H	0.236557	-0.636453	0.404572
H128	H	0.736557	-0.136453	0.904572
C129	C	1.075192	-0.934870	0.229439
C130	C	1.575192	-0.434870	0.729439
N131	N	1.114148	-0.903253	0.190618
N132	N	1.614148	-0.403253	0.690618
H133	H	0.592328	-0.636423	0.404544
H134	H	1.092328	-0.136423	0.904544
C135	C	0.226409	-0.369641	0.235432
C136	C	0.726409	0.130359	0.735432
N137	N	0.197115	-0.313162	0.199635
N138	N	0.697115	0.186838	0.699635
H139	H	0.364749	-0.389113	0.247762
H140	H	0.864749	0.110887	0.747762
C141	C	0.887378	-0.655412	1.078563
C142	C	1.387378	-0.155412	1.578563
N143	N	0.851501	-0.711790	1.107833
N144	N	1.351501	-0.211790	1.607833
H145	H	1.056855	-0.389047	0.940279
H146	H	1.556855	0.110953	1.440279
H147	H	1.056810	-0.389176	0.584519
H148	H	1.556810	0.110824	1.084519
H149	H	0.947821	-1.078859	0.212188
H150	H	1.447821	-0.578859	0.712188
C151	C	0.887312	-0.655596	0.574356
C152	C	1.387312	-0.155596	1.074356
N153	N	0.851430	-0.712003	0.545063
N154	N	1.351430	-0.212003	1.045063
H155	H	1.056824	-0.389126	0.712753
H156	H	1.556824	0.110874	1.212753
H157	H	0.592272	-0.389094	0.247754
H158	H	1.092272	0.110906	0.747754
C159	C	0.730615	-0.369604	0.235386
C160	C	1.230615	0.130396	0.735386
N161	N	0.759885	-0.313124	0.199578
N162	N	1.259885	0.186876	0.699578
C163	C	1.110548	-1.089483	0.361738
C164	C	1.610548	-0.589483	0.861738
N165	N	1.163676	-1.121068	0.376022
N166	N	1.663676	-0.621068	0.876022
C167	C	1.013700	-0.934833	0.458539
C168	C	1.513700	-0.434833	0.958539
N169	N	1.027951	-0.903258	0.511693
N170	N	1.527951	-0.403258	1.011693
H171	H	0.894761	-1.078428	0.409644
H172	H	1.394761	-0.578428	0.909644
H173	H	0.864303	-0.945835	0.295507
H174	H	1.364303	-0.445835	0.795507
C175	C	1.069243	-0.369537	1.078627
C176	C	1.569243	0.130463	1.578627
N177	N	1.105120	-0.313126	1.107923
N178	N	1.605120	0.186874	1.607923
C179	C	0.887328	-0.655528	0.722801
C180	C	1.387328	-0.155528	1.222801
N181	N	0.851451	-0.711902	0.752074
N182	N	1.351451	-0.211902	1.252074
