data_functionalizedCrystal
_audit_creation_method	'MofGen! by Chris Wilmer'
_symmetry_space_group_name_H-M	'P1'
_symmetry_Int_Tables_number	1
_symmetry_cell_setting	triclinic
loop_
_symmetry_equiv_pos_as_xyz
  x,y,z
_cell_length_a	18.215407
_cell_length_b	19.805405
_cell_length_c	18.215399
_cell_angle_alpha	90.030610
_cell_angle_beta	90.019833
_cell_angle_gamma	90.026858
loop_
_atom_site_label
_atom_site_type_symbol
_atom_site_fract_x
_atom_site_fract_y
_atom_site_fract_z
Zn1	Zn	1.125064	-0.269462	0.416102
Zn2	Zn	1.124969	-0.382653	0.293030
Zn3	Zn	1.001997	-0.269484	0.293050
Zn4	Zn	1.001959	-0.382615	0.416055
O5	O	1.063497	-0.326054	0.354559
O6	O	1.228036	-0.284484	0.399788
O7	O	1.108633	-0.367666	0.190049
O8	O	1.018377	-0.174765	0.309401
O9	O	1.227966	-0.367644	0.309368
O10	O	1.108794	-0.174748	0.399807
O11	O	1.018285	-0.284521	0.190063
O12	O	0.899008	-0.284485	0.309355
O13	O	1.018313	-0.367580	0.519046
O14	O	0.898980	-0.367602	0.399727
O15	O	1.108758	-0.284447	0.519080
O16	O	1.108596	-0.477365	0.309322
O17	O	1.018221	-0.477337	0.399708
C18	C	0.872291	-0.326042	0.354538
C19	C	0.790492	-0.326053	0.354547
C20	C	1.063415	-0.501910	0.354524
C21	C	1.063446	-0.577142	0.354533
C22	C	0.602303	-0.369400	0.401544
C23	C	0.525444	-0.369403	0.401553
C24	C	0.525444	-0.282719	0.307591
C25	C	0.602301	-0.282714	0.307586
C26	C	0.640729	-0.326059	0.354561
C27	C	0.487013	-0.326066	0.354575
C28	C	0.403679	-0.326068	0.354585
C29	C	0.724068	-0.326056	0.354553
C30	C	1.110550	-0.612478	0.307518
C31	C	1.110582	-0.683166	0.307535
C32	C	1.063505	-0.718517	0.354562
C33	C	1.016399	-0.683176	0.401582
C34	C	1.016372	-0.612489	0.401569
C35	C	1.016507	-0.968249	0.401637
C36	C	1.016536	-1.038941	0.401645
C37	C	1.110717	-1.038927	0.307602
C38	C	1.110690	-0.968239	0.307589
C39	C	1.063587	-0.932905	0.354611
C40	C	1.063555	-0.856256	0.354594
C41	C	1.063533	-0.795164	0.354577
C42	C	1.255450	-0.326066	0.354581
C43	C	1.337249	-0.326071	0.354590
C44	C	1.063542	-0.326007	0.546512
C45	C	1.063561	-0.325987	0.628311
C46	C	1.063601	-0.149511	0.354611
C47	C	1.063645	-0.074279	0.354633
C48	C	1.063495	-0.326051	0.163353
C49	C	1.063619	-0.325880	0.081555
C50	C	1.110673	-0.282659	0.816524
C51	C	1.110682	-0.282639	0.893383
C52	C	1.016502	-0.369210	0.893336
C53	C	1.016490	-0.369226	0.816479
C54	C	1.063580	-0.325952	0.778075
C55	C	1.063600	-0.325916	0.931791
C56	C	1.063609	-0.325895	1.015125
C57	C	1.063570	-0.325972	0.694736
H58	H	0.633589	-0.404693	0.439797
O59	O	0.965622	-0.721299	0.452309
H60	H	0.907867	-0.707774	0.439634
O61	O	1.161545	-1.077036	0.256903
H62	H	1.153670	-1.132129	0.264821
O63	O	0.483997	-0.416225	0.452145
H64	H	0.523633	-0.446391	0.484774
H65	H	0.978016	-0.583719	0.439854
H66	H	1.149028	-0.247385	0.924686
H67	H	1.149014	-0.247420	0.785258
O68	O	0.484004	-0.235973	0.256916
H69	H	0.498742	-0.247517	0.199138
O70	O	0.965715	-0.415885	0.934756
H71	H	0.973637	-0.408606	0.994660
O72	O	0.965673	-0.415902	0.774999
H73	H	0.932931	-0.445991	0.814614
O74	O	0.965684	-0.930141	0.452328
H75	H	0.932942	-0.966601	0.485017
O76	O	0.643754	-0.235975	0.256898
H77	H	0.604122	-0.205846	0.224222
O78	O	1.161330	-0.574350	0.256798
H79	H	1.194095	-0.610800	0.224115
O80	O	1.161385	-0.721280	0.256824
H81	H	1.148780	-0.707765	0.199052
O82	O	1.161472	-0.930110	0.256874
H83	H	1.148900	-0.943723	0.199103
O84	O	0.965764	-1.077075	0.452375
H85	H	0.933011	-1.040629	0.485077
