data_functionalizedCrystal
_audit_creation_method	'MofGen! by Chris Wilmer'
_symmetry_space_group_name_H-M	'P1'
_symmetry_Int_Tables_number	1
_symmetry_cell_setting	triclinic
loop_
_symmetry_equiv_pos_as_xyz
  x,y,z
_cell_length_a	21.295418
_cell_length_b	21.295417
_cell_length_c	21.295412
_cell_angle_alpha	89.968813
_cell_angle_beta	89.964379
_cell_angle_gamma	90.046319
loop_
_atom_site_label
_atom_site_type_symbol
_atom_site_fract_x
_atom_site_fract_y
_atom_site_fract_z
Zn1	Zn	0.962305	-0.250356	-0.356234
Zn2	Zn	1.212305	-0.000356	-0.106234
Zn3	Zn	1.462305	0.249644	0.143766
Zn4	Zn	1.712305	0.499644	0.393766
Zn5	Zn	0.962223	-0.355625	-0.250959
Zn6	Zn	1.212223	-0.105625	-0.000959
Zn7	Zn	1.462223	0.144375	0.249041
Zn8	Zn	1.712223	0.394375	0.499041
Zn9	Zn	0.857043	-0.250403	-0.250943
Zn10	Zn	1.107043	-0.000403	-0.000943
Zn11	Zn	1.357043	0.249597	0.249057
Zn12	Zn	1.607043	0.499597	0.499057
Zn13	Zn	0.856998	-0.355620	-0.356155
Zn14	Zn	1.106998	-0.105620	-0.106155
Zn15	Zn	1.356998	0.144380	0.143845
Zn16	Zn	1.606998	0.394380	0.393845
O17	O	0.909642	-0.303001	-0.303573
O18	O	1.159642	-0.053001	-0.053573
O19	O	1.409642	0.196999	0.196427
O20	O	1.659642	0.446999	0.446427
O21	O	1.050384	-0.264303	-0.342308
O22	O	1.300384	-0.014303	-0.092308
O23	O	1.550384	0.235697	0.157692
O24	O	1.800384	0.485697	0.407692
O25	O	0.948255	-0.341689	-0.162867
O26	O	1.198255	-0.091689	0.087133
O27	O	1.448255	0.158311	0.337133
O28	O	1.698255	0.408311	0.587133
O29	O	0.871060	-0.162307	-0.264937
O30	O	1.121060	0.087693	-0.014937
O31	O	1.371060	0.337693	0.235063
O32	O	1.621060	0.587693	0.485063
O33	O	1.050323	-0.341644	-0.264963
O34	O	1.300323	-0.091644	-0.014963
O35	O	1.550323	0.158356	0.235037
O36	O	1.800323	0.408356	0.485037
O37	O	0.948396	-0.162273	-0.342293
O38	O	1.198396	0.087727	-0.092293
O39	O	1.448396	0.337727	0.157707
O40	O	1.698396	0.587727	0.407707
O41	O	0.870980	-0.264383	-0.162856
O42	O	1.120980	-0.014383	0.087144
O43	O	1.370980	0.235617	0.337144
O44	O	1.620980	0.485617	0.587144
O45	O	0.768948	-0.264378	-0.264861
O46	O	1.018948	-0.014378	-0.014861
O47	O	1.268948	0.235622	0.235139
O48	O	1.518948	0.485622	0.485139
O49	O	0.870983	-0.341635	-0.444255
O50	O	1.120983	-0.091635	-0.194255
O51	O	1.370983	0.158365	0.055745
O52	O	1.620983	0.408365	0.305745
O53	O	0.768915	-0.341681	-0.342160
O54	O	1.018915	-0.091681	-0.092160
O55	O	1.268915	0.158319	0.157840
O56	O	1.518915	0.408319	0.407840
O57	O	0.948352	-0.264298	-0.444313
O58	O	1.198352	-0.014298	-0.194313
O59	O	1.448352	0.235702	0.055687
O60	O	1.698352	0.485702	0.305687
O61	O	0.948211	-0.443714	-0.264887
O62	O	1.198211	-0.193714	-0.014887
O63	O	1.448211	0.056286	0.235113
O64	O	1.698211	0.306286	0.485113
O65	O	0.870903	-0.443710	-0.342175
O66	O	1.120903	-0.193710	-0.092175
O67	O	1.370903	0.056290	0.157825
O68	O	1.620903	0.306290	0.407825
C69	C	0.746091	-0.303034	-0.303500
C70	C	0.996091	-0.053034	-0.053500
C71	C	1.246091	0.196966	0.196500
C72	C	1.496091	0.446966	0.446500
C73	C	0.676123	-0.303064	-0.303484
C74	C	0.926123	-0.053064	-0.053484
C75	C	1.176123	0.196936	0.196516
C76	C	1.426123	0.446936	0.446516
C77	C	0.643255	-0.343368	-0.343674
C78	C	0.893255	-0.093368	-0.093674
C79	C	1.143255	0.156632	0.156326
C80	C	1.393255	0.406632	0.406326
C81	C	0.577512	-0.343353	-0.343702
C82	C	0.827512	-0.093353	-0.093702
C83	C	1.077512	0.156647	0.156298
C84	C	1.327512	0.406647	0.406298
C85	C	0.544640	-0.303039	-0.303530
C86	C	0.794640	-0.053039	-0.053530
C87	C	1.044640	0.196961	0.196470
C88	C	1.294640	0.446961	0.446470
C89	C	0.577516	-0.262727	-0.263337
C90	C	0.827516	-0.012727	-0.013337
C91	C	1.077516	0.237273	0.236663
C92	C	1.327516	0.487273	0.486663
C93	C	0.643257	-0.262739	-0.263315
C94	C	0.893257	-0.012739	-0.013315
C95	C	1.143257	0.237261	0.236685
C96	C	1.393257	0.487261	0.486685
N97	N	0.441372	-0.298121	-0.248472
N98	N	0.691372	-0.048121	0.001528
N99	N	0.941372	0.201879	0.251528
N100	N	1.191372	0.451879	0.501528
N101	N	0.378920	-0.298113	-0.248495
N102	N	0.628920	-0.048113	0.001505
N103	N	0.878920	0.201887	0.251505
N104	N	1.128920	0.451887	0.501505
C105	C	0.346565	-0.302999	-0.303596
C106	C	0.596565	-0.052999	-0.053596
C107	C	0.846565	0.197001	0.196404
C108	C	1.096565	0.447001	0.446404
N109	N	0.379021	-0.307905	-0.358674
N110	N	0.629021	-0.057905	-0.108674
N111	N	0.879021	0.192095	0.141326
N112	N	1.129021	0.442095	0.391326
N113	N	0.441478	-0.307916	-0.358650
N114	N	0.691478	-0.057916	-0.108650
N115	N	0.941478	0.192084	0.141350
N116	N	1.191478	0.442084	0.391350
C117	C	0.473355	-0.303021	-0.303550
C118	C	0.723355	-0.053021	-0.053550
C119	C	0.973355	0.196979	0.196450
C120	C	1.223355	0.446979	0.446450
C121	C	0.242412	-0.343289	-0.343820
C122	C	0.492412	-0.093289	-0.093820
C123	C	0.742412	0.156711	0.156180
C124	C	0.992412	0.406711	0.406180
C125	C	0.176669	-0.343269	-0.343849
C126	C	0.426669	-0.093269	-0.093849
C127	C	0.676669	0.156731	0.156151
C128	C	0.926669	0.406731	0.406151
C129	C	0.176673	-0.262646	-0.263479
C130	C	0.426673	-0.012646	-0.013479
C131	C	0.676673	0.237354	0.236521
C132	C	0.926673	0.487354	0.486521
C133	C	0.242415	-0.262663	-0.263455
C134	C	0.492415	-0.012663	-0.013455
C135	C	0.742415	0.237337	0.236545
C136	C	0.992415	0.487337	0.486545
C137	C	0.275281	-0.302988	-0.303625
C138	C	0.525281	-0.052988	-0.053625
C139	C	0.775281	0.197012	0.196375
C140	C	1.025281	0.447012	0.446375
C141	C	0.909560	-0.466553	-0.303538
C142	C	1.159560	-0.216553	-0.053538
C143	C	1.409560	0.033447	0.196462
C144	C	1.659560	0.283447	0.446462
C145	C	0.909582	-0.536521	-0.303544
C146	C	1.159582	-0.286521	-0.053544
C147	C	1.409582	-0.036521	0.196456
C148	C	1.659582	0.213479	0.446456
C149	C	0.949872	-0.569369	-0.263342
C150	C	1.199872	-0.319369	-0.013342
C151	C	1.449872	-0.069369	0.236658
C152	C	1.699872	0.180631	0.486658
C153	C	0.949902	-0.635111	-0.263356
C154	C	1.199902	-0.385111	-0.013356
C155	C	1.449902	-0.135111	0.236644
C156	C	1.699902	0.114889	0.486644
C157	C	0.909630	-0.668003	-0.303566
C158	C	1.159630	-0.418003	-0.053566
C159	C	1.409630	-0.168003	0.196434
C160	C	1.659630	0.081997	0.446434
C161	C	0.869337	-0.635148	-0.343776
C162	C	1.119337	-0.385148	-0.093776
C163	C	1.369337	-0.135148	0.156224
C164	C	1.619337	0.114852	0.406224
C165	C	0.869313	-0.569407	-0.343765
C166	C	1.119313	-0.319407	-0.093765
C167	C	1.369313	-0.069407	0.156235
C168	C	1.619313	0.180593	0.406235
N169	N	0.854562	-0.771284	-0.308340
N170	N	1.104562	-0.521284	-0.058340
N171	N	1.354562	-0.271284	0.191660
N172	N	1.604562	-0.021284	0.441660
N173	N	0.854587	-0.833736	-0.308347
N174	N	1.104587	-0.583736	-0.058347
N175	N	1.354587	-0.333736	0.191653
N176	N	1.604587	-0.083736	0.441653
C177	C	0.909700	-0.866078	-0.303602
C178	C	1.159700	-0.616078	-0.053602
C179	C	1.409700	-0.366078	0.196398
C180	C	1.659700	-0.116078	0.446398
N181	N	0.964790	-0.833610	-0.298838
N182	N	1.214790	-0.583610	-0.048838
N183	N	1.464790	-0.333610	0.201162
N184	N	1.714790	-0.083610	0.451162
N185	N	0.964765	-0.771152	-0.298828
N186	N	1.214765	-0.521152	-0.048828
N187	N	1.464765	-0.271152	0.201172
N188	N	1.714765	-0.021152	0.451172
C189	C	0.909652	-0.739289	-0.303582
C190	C	1.159652	-0.489289	-0.053582
C191	C	1.409652	-0.239289	0.196418
C192	C	1.659652	0.010711	0.446418
C193	C	0.950026	-0.970211	-0.263413
C194	C	1.200026	-0.720211	-0.013413
C195	C	1.450026	-0.470211	0.236587
C196	C	1.700026	-0.220211	0.486587
C197	C	0.950056	-1.035955	-0.263431
C198	C	1.200056	-0.785955	-0.013431
C199	C	1.450056	-0.535955	0.236569
C200	C	1.700056	-0.285955	0.486569
C201	C	0.869486	-1.035990	-0.343848
C202	C	1.119486	-0.785990	-0.093848
C203	C	1.369486	-0.535990	0.156152
C204	C	1.619486	-0.285990	0.406152
C205	C	0.869461	-0.970248	-0.343833
C206	C	1.119461	-0.720248	-0.093833
C207	C	1.369461	-0.470248	0.156167
C208	C	1.619461	-0.220248	0.406167
C209	C	0.909730	-0.937362	-0.303612
C210	C	1.159730	-0.687362	-0.053612
C211	C	1.409730	-0.437362	0.196388
C212	C	1.659730	-0.187362	0.446388
C213	C	1.073833	-0.302968	-0.303646
C214	C	1.323833	-0.052968	-0.053646
C215	C	1.573833	0.197032	0.196354
C216	C	1.823833	0.447032	0.446354
C217	C	1.143801	-0.302954	-0.303677
C218	C	1.393801	-0.052954	-0.053677
C219	C	1.643801	0.197046	0.196323
C220	C	1.893801	0.447046	0.446323
C221	C	0.909671	-0.302960	-0.467763
C222	C	1.159671	-0.052960	-0.217763
C223	C	1.409671	0.197040	0.032237
C224	C	1.659671	0.447040	0.282237
C225	C	0.909684	-0.302943	-0.537731
C226	C	1.159684	-0.052943	-0.287731
C227	C	1.409684	0.197057	-0.037731
C228	C	1.659684	0.447057	0.212269
C229	C	0.909742	-0.138811	-0.303622
C230	C	1.159742	0.111189	-0.053622
C231	C	1.409742	0.361189	0.196378
C232	C	1.659742	0.611189	0.446378
C233	C	0.909785	-0.068843	-0.303642
C234	C	1.159785	0.181157	-0.053642
C235	C	1.409785	0.431157	0.196358
C236	C	1.659785	0.681157	0.446358
C237	C	0.950029	-0.262574	-1.037220
C238	C	1.200029	-0.012574	-0.787220
C239	C	1.450029	0.237426	-0.537220
C240	C	1.700029	0.487426	-0.287220
C241	C	0.950025	-0.262589	-0.971478
C242	C	1.200025	-0.012589	-0.721478
C243	C	1.450025	0.237411	-0.471478
C244	C	1.700025	0.487411	-0.221478
C245	C	0.909738	-0.302860	-0.938571
C246	C	1.159738	-0.052860	-0.688571
C247	C	1.409738	0.197140	-0.438571
C248	C	1.659738	0.447140	-0.188571
C249	C	0.869465	-0.343130	-0.971412
C250	C	1.119465	-0.093130	-0.721412
C251	C	1.369465	0.156870	-0.471412
C252	C	1.619465	0.406870	-0.221412
C253	C	0.869476	-0.343118	-1.037153
C254	C	1.119476	-0.093118	-0.787153
C255	C	1.369476	0.156882	-0.537153
C256	C	1.619476	0.406882	-0.287153
N257	N	0.854617	-0.307719	-0.835324
N258	N	1.104617	-0.057719	-0.585324
N259	N	1.354617	0.192281	-0.335324
N260	N	1.604617	0.442281	-0.085324
N261	N	0.854609	-0.307727	-0.772872
N262	N	1.104609	-0.057727	-0.522872
N263	N	1.354609	0.192273	-0.272872
N264	N	1.604609	0.442273	-0.022872
C265	C	0.909705	-0.302899	-0.740496
C266	C	1.159705	-0.052899	-0.490496
C267	C	1.409705	0.197101	-0.240496
C268	C	1.659705	0.447101	0.009504
N269	N	0.964811	-0.298052	-0.772931
N270	N	1.214811	-0.048052	-0.522931
N271	N	1.464811	0.201948	-0.272931
N272	N	1.714811	0.451948	-0.022931
N273	N	0.964819	-0.298041	-0.835388
N274	N	1.214819	-0.048041	-0.585388
N275	N	1.464819	0.201959	-0.335388
N276	N	1.714819	0.451959	-0.085388
C277	C	0.909723	-0.302878	-0.867286
C278	C	1.159723	-0.052878	-0.617286
C279	C	1.409723	0.197122	-0.367286
C280	C	1.659723	0.447122	-0.117286
C281	C	0.949973	-0.262652	-0.636377
C282	C	1.199973	-0.012652	-0.386377
C283	C	1.449973	0.237348	-0.136377
C284	C	1.699973	0.487348	0.113623
C285	C	0.949970	-0.262671	-0.570634
C286	C	1.199970	-0.012671	-0.320634
C287	C	1.449970	0.237329	-0.070634
C288	C	1.699970	0.487329	0.179366
C289	C	0.869405	-0.343209	-0.570569
C290	C	1.119405	-0.093209	-0.320569
C291	C	1.369405	0.156791	-0.070569
C292	C	1.619405	0.406791	0.179431
C293	C	0.869414	-0.343192	-0.636312
C294	C	1.119414	-0.093192	-0.386312
C295	C	1.369414	0.156808	-0.136312
C296	C	1.619414	0.406808	0.113688
C297	C	0.909698	-0.302910	-0.669212
C298	C	1.159698	-0.052910	-0.419212
C299	C	1.409698	0.197090	-0.169212
C300	C	1.659698	0.447090	0.080788
C301	C	0.909650	-0.302996	-0.140021
C302	C	1.159650	-0.052996	0.109979
C303	C	1.409650	0.197004	0.359979
C304	C	1.659650	0.447004	0.609979
C305	C	0.909759	-0.302836	-0.070054
C306	C	1.159759	-0.052836	0.179946
C307	C	1.409759	0.197164	0.429946
C308	C	1.659759	0.447164	0.679946
H309	H	0.269177	-0.229845	-0.230726
H310	H	0.519177	0.020155	0.019274
H311	H	0.769177	0.270155	0.269274
H312	H	1.019177	0.520155	0.519274
H313	H	0.982713	-0.661861	-0.230619
H314	H	1.232713	-0.411861	0.019381
H315	H	1.482713	-0.161861	0.269381
H316	H	1.732713	0.088139	0.519381
H317	H	0.836605	-0.376000	-0.543777
H318	H	1.086605	-0.126000	-0.293777
H319	H	1.336605	0.124000	-0.043777
H320	H	1.586605	0.374000	0.206223
H321	H	0.836548	-0.661933	-0.376516
H322	H	1.086548	-0.411933	-0.126516
H323	H	1.336548	-0.161933	0.123484
H324	H	1.586548	0.088067	0.373484
H325	H	0.836503	-0.542661	-0.376503
H326	H	1.086503	-0.292661	-0.126503
H327	H	1.336503	-0.042661	0.123497
H328	H	1.586503	0.207339	0.373497
H329	H	0.149909	-0.376089	-0.376580
H330	H	0.399909	-0.126089	-0.126580
H331	H	0.649909	0.123911	0.123420
H332	H	0.899909	0.373911	0.373420
H333	H	0.836699	-1.062771	-0.376591
H334	H	1.086699	-0.812771	-0.126591
H335	H	1.336699	-0.562771	0.123409
H336	H	1.586699	-0.312771	0.373409
H337	H	0.982834	-0.229776	-1.064004
H338	H	1.232834	0.020224	-0.814004
H339	H	1.482834	0.270224	-0.564004
H340	H	1.732834	0.520224	-0.314004
H341	H	0.982818	-0.943435	-0.230664
H342	H	1.232818	-0.693435	0.019336
H343	H	1.482818	-0.443435	0.269336
H344	H	1.732818	-0.193435	0.519336
H345	H	0.982817	-0.229801	-0.944740
H346	H	1.232817	0.020199	-0.694740
H347	H	1.482817	0.270199	-0.444740
H348	H	1.732817	0.520199	-0.194740
H349	H	0.836650	-0.943502	-0.376567
H350	H	1.086650	-0.693502	-0.126567
H351	H	1.336650	-0.443502	0.123433
H352	H	1.586650	-0.193502	0.373433
H353	H	0.269173	-0.376121	-0.376531
H354	H	0.519173	-0.126121	-0.126531
H355	H	0.769173	0.123879	0.123469
H356	H	1.019173	0.373879	0.373469
H357	H	0.982869	-1.062698	-0.230695
H358	H	1.232869	-0.812698	0.019305
H359	H	1.482869	-0.562698	0.269305
H360	H	1.732869	-0.312698	0.519305
H361	H	0.149909	-0.229819	-0.230773
H362	H	0.399909	0.020181	0.019227
H363	H	0.649909	0.270181	0.269227
H364	H	0.899909	0.520181	0.519227
H365	H	0.836665	-0.375920	-0.944615
H366	H	1.086665	-0.125920	-0.694615
H367	H	1.336665	0.124080	-0.444615
H368	H	1.586665	0.374080	-0.194615
H369	H	0.982774	-0.229851	-0.663166
H370	H	1.232774	0.020149	-0.413166
H371	H	1.482774	0.270149	-0.163166
H372	H	1.732774	0.520149	0.086834
H373	H	0.982767	-0.229887	-0.543902
H374	H	1.232767	0.020113	-0.293902
H375	H	1.482767	0.270113	-0.043902
H376	H	1.732767	0.520113	0.206098
H377	H	0.836682	-0.375905	-1.063886
H378	H	1.086682	-0.125905	-0.813886
H379	H	1.336682	0.124095	-0.563886
H380	H	1.586682	0.374095	-0.313886
H381	H	0.670010	-0.376203	-0.376384
H382	H	0.920010	-0.126203	-0.126384
H383	H	1.170010	0.123797	0.123616
H384	H	1.420010	0.373797	0.373616
H385	H	0.550746	-0.376174	-0.376431
H386	H	0.800746	-0.126174	-0.126431
H387	H	1.050746	0.123826	0.123569
H388	H	1.300746	0.373826	0.373569
H389	H	0.550747	-0.229902	-0.230630
H390	H	0.800747	0.020098	0.019370
H391	H	1.050747	0.270098	0.269370
H392	H	1.300747	0.520098	0.519370
H393	H	0.670017	-0.229916	-0.230588
H394	H	0.920017	0.020084	0.019412
H395	H	1.170017	0.270084	0.269412
H396	H	1.420017	0.520084	0.519412
H397	H	0.836619	-0.375976	-0.663045
H398	H	1.086619	-0.125976	-0.413045
H399	H	1.336619	0.124024	-0.163045
H400	H	1.586619	0.374024	0.086955
H401	H	0.982663	-0.542595	-0.230593
H402	H	1.232663	-0.292595	0.019407
H403	H	1.482663	-0.042595	0.269407
H404	H	1.732663	0.207405	0.519407
