data_functionalizedCrystal
_audit_creation_method	'MofGen! by Chris Wilmer'
_symmetry_space_group_name_H-M	'P1'
_symmetry_Int_Tables_number	1
_symmetry_cell_setting	triclinic
loop_
_symmetry_equiv_pos_as_xyz
  x,y,z
_cell_length_a	18.760490
_cell_length_b	23.196402
_cell_length_c	23.196401
_cell_angle_alpha	60.007332
_cell_angle_beta	90.031758
_cell_angle_gamma	60.028764
loop_
_atom_site_label
_atom_site_type_symbol
_atom_site_fract_x
_atom_site_fract_y
_atom_site_fract_z
Zr1	Zr	0.686597	0.631207	-0.075567
O2	O	0.572792	0.751432	-0.167624
O3	O	0.721474	0.510957	-0.047349
O4	O	0.721453	0.631220	-0.167615
O5	O	0.572840	0.631167	0.047513
O6	O	0.838732	0.631260	-0.167604
O7	O	0.572812	0.631169	-0.047358
O8	O	0.838768	0.416131	0.047530
O9	O	0.572803	0.846296	-0.167621
O10	O	0.823884	0.560457	-0.035303
O11	O	0.736382	0.560426	0.035491
O12	O	0.736357	0.702021	-0.106107
O13	O	0.648855	0.701990	-0.035314
Zr14	Zr	0.873687	0.631268	0.075760
Zr15	Zr	0.873642	0.631270	-0.075549
Zr16	Zr	0.686641	0.631205	0.075742
Zr17	Zr	0.686616	0.782505	-0.075561
Zr18	Zr	0.873668	0.479970	0.075754
O19	O	0.838810	0.751518	0.047542
O20	O	0.838747	0.751521	-0.167599
O21	O	0.572855	0.751429	0.047517
O22	O	0.987492	0.511043	0.167818
O23	O	0.987429	0.511047	-0.047324
O24	O	0.721537	0.510954	0.167793
O25	O	0.987444	0.631308	-0.047320
O26	O	0.838831	0.631255	0.167808
O27	O	0.721552	0.631215	0.167797
O28	O	0.987472	0.631306	0.047552
O29	O	0.721480	0.846346	-0.167607
O30	O	0.838804	0.416129	0.167800
O31	O	0.987480	0.416179	0.167814
O32	O	0.987445	0.416181	0.047544
O33	O	0.572839	0.846294	-0.047350
O34	O	0.721515	0.846344	-0.047336
O35	O	0.823926	0.560455	0.106300
O36	O	0.911429	0.560485	0.035507
O37	O	0.823902	0.702049	-0.035297
O38	O	0.736399	0.702018	0.035496
C39	C	0.780118	0.441988	0.000090
C40	C	0.780110	0.377758	0.000087
C41	C	0.844736	0.295350	0.052354
C42	C	0.844742	0.234990	0.052360
C43	C	0.780129	0.257042	0.000089
C44	C	0.715491	0.339464	-0.052182
C45	C	0.715482	0.399822	-0.052183
C46	C	0.759993	0.201449	-0.063705
C47	C	0.760008	0.141090	-0.063704
C48	C	0.780152	0.070880	0.000092
C49	C	0.800300	0.061028	0.063892
C50	C	0.800291	0.121385	0.063891
C51	C	0.780131	0.191600	0.000085
C52	C	0.844788	-0.076981	0.052370
C53	C	0.844788	-0.137340	0.052377
C54	C	0.715541	-0.032863	-0.052171
C55	C	0.715538	0.027494	-0.052172
C56	C	0.780166	0.005430	0.000098
C57	C	0.546176	0.631159	0.000075
C58	C	0.466770	0.631133	0.000067
C59	C	0.130767	0.631322	-0.052148
C60	C	0.130914	0.631320	0.052388
C61	C	0.205561	0.631280	0.052377
C62	C	0.242815	0.631259	0.000103
C63	C	0.205422	0.631279	-0.052160
C64	C	0.242964	0.631251	0.104642
C65	C	0.317615	0.631210	0.104633
C66	C	0.354867	0.631195	0.052356
C67	C	0.317469	0.631216	0.000091
C68	C	0.354723	0.631195	-0.052183
C69	C	0.317323	0.631222	-0.104452
C70	C	0.242674	0.631264	-0.104437
C71	C	0.429516	0.631153	0.052341
C72	C	0.429378	0.631153	-0.052195
C73	C	1.014108	0.631316	0.000119
C74	C	1.093513	0.631342	0.000126
C75	C	0.780086	0.631240	-0.189168
C76	C	0.780067	0.631241	-0.253402
C77	C	0.780166	0.820487	0.000104
C78	C	0.780174	0.884717	0.000106
C79	C	0.734383	0.705134	-0.320534
C80	C	0.734405	0.705135	-0.380890
C81	C	0.780099	0.631239	-0.374109
C82	C	0.825793	0.557337	-0.306964
C83	C	0.825777	0.557338	-0.246611
C84	C	0.773603	0.574611	-0.441428
C85	C	0.773612	0.574613	-0.501782
C86	C	0.780155	0.631233	-0.560256
C87	C	0.786669	0.687865	-0.558376
C88	C	0.786653	0.687866	-0.498023
C89	C	0.780123	0.631230	-0.439547
C90	C	0.734493	0.705132	-0.692835
C91	C	0.734521	0.705130	-0.753190
C92	C	0.825903	0.557330	-0.679262
C93	C	0.825881	0.557334	-0.618910
C94	C	0.780171	0.631237	-0.625701
C95	C	0.780198	0.631235	0.189361
C96	C	0.780217	0.631234	0.253596
C97	C	1.014084	0.442066	0.000112
C98	C	1.093482	0.377863	0.000117
C99	C	0.780174	0.441985	0.189354
C100	C	0.780185	0.377754	0.253586
C101	C	1.014140	0.442063	0.189376
C102	C	1.093557	0.377859	0.253616
C103	C	0.546144	0.820412	-0.189183
C104	C	0.466727	0.884616	-0.253422
C105	C	0.546200	0.820409	0.000082
C106	C	0.466802	0.884612	0.000077
C107	C	0.780110	0.820490	-0.189161
C108	C	0.780099	0.884721	-0.253393
C109	C	1.085070	0.347698	-0.036849
C110	C	1.159666	0.287381	-0.036859
C111	C	1.242672	0.257225	0.000102
C112	C	1.251082	0.287397	0.037069
C113	C	1.176487	0.347717	0.037074
C114	C	0.825888	0.347606	0.320719
C115	C	0.825895	0.287262	0.381077
C116	C	0.780204	0.257065	0.374302
C117	C	0.734496	0.287220	0.307163
C118	C	0.734484	0.347566	0.246805
C119	C	1.176535	0.347724	0.246830
C120	C	1.251163	0.287406	0.307184
C121	C	1.242810	0.257220	0.374323
C122	C	1.159823	0.287361	0.381108
C123	C	1.085197	0.347682	0.320754
C124	C	0.383749	0.914758	-0.246636
C125	C	0.309121	0.975095	-0.306991
C126	C	0.317474	1.005285	-0.374130
C127	C	0.400461	0.975140	-0.380914
C128	C	0.475086	0.914808	-0.320561
C129	C	0.475213	0.914784	0.037036
C130	C	0.400618	0.975118	0.037029
C131	C	0.317612	1.005275	0.000066
C132	C	0.309202	0.975101	-0.036898
C133	C	0.383797	0.914772	-0.036895
C134	C	0.825798	0.914899	-0.246595
C135	C	0.825805	0.975243	-0.306942
C136	C	0.780106	1.005411	-0.374087
C137	C	0.734405	0.975227	-0.380883
C138	C	0.734404	0.914880	-0.320536
H139	H	0.897369	0.167881	0.094924
H140	H	0.407482	0.999675	0.067132
H141	H	0.780220	0.207927	0.423455
N142	N	1.340662	0.254903	0.299858
H143	H	1.334623	0.283176	0.248166
H144	H	1.373613	0.194331	0.323291
H145	H	0.241609	0.999664	-0.066993
N146	N	1.323303	0.192159	0.439416
H147	H	1.377135	0.177652	0.424923
H148	H	1.323270	0.142119	0.468438
N149	N	0.995549	0.380213	-0.076716
H150	H	1.001552	0.351946	-0.100134
H151	H	0.962599	0.440785	-0.113869
N152	N	0.822019	0.110764	0.132696
H153	H	0.834785	0.057129	0.173114
H154	H	0.770849	0.156887	0.131876
H155	H	0.697186	0.890316	-0.326081
H156	H	0.376936	0.890208	-0.066990
N157	N	0.236975	1.070349	-0.439218
H158	H	0.236920	1.049348	-0.468269
H159	H	0.236971	1.120413	-0.468216
H160	H	0.212219	0.631285	-0.146992
N161	N	0.645799	0.363260	-0.108564
H162	H	0.611861	0.340529	-0.085764
H163	H	0.674046	0.340564	-0.136009
N164	N	1.185564	0.380249	0.076947
H165	H	1.218537	0.334209	0.128648
H166	H	1.125687	0.423049	0.071288
N167	N	0.875175	0.380163	0.328042
H168	H	0.851213	0.405197	0.354698
H169	H	0.868228	0.422936	0.279601
N170	N	1.150584	0.254847	-0.076733
H171	H	1.086680	0.283101	-0.100139
H172	H	1.179554	0.194274	-0.042803
H173	H	0.697295	0.262624	0.301657
N174	N	0.409466	1.007699	-0.453329
H175	H	0.380544	1.068271	-0.480016
H176	H	0.380538	0.997133	-0.479957
H177	H	1.017635	0.372210	0.326289
N178	N	0.685212	0.784834	-0.700147
H179	H	0.639226	0.788117	-0.676777
H180	H	0.656335	0.831603	-0.751849
N181	N	0.822033	-0.014694	0.132708
H182	H	0.818978	-0.051436	0.123030
H183	H	0.778786	0.001200	0.156970
N184	N	0.685118	0.784838	-0.453307
H185	H	0.692063	0.773621	-0.490509
H186	H	0.709094	0.817132	-0.458886
N187	N	0.875102	0.882355	-0.174178
H188	H	0.833216	0.892843	-0.147488
H189	H	0.904055	0.910644	-0.179095
N190	N	0.685238	0.784834	-0.825601
H191	H	0.692186	0.773622	-0.862805
H192	H	0.709215	0.817126	-0.831174
H193	H	0.863019	0.999812	-0.301395
N194	N	0.219626	1.007584	-0.299655
H195	H	0.186623	0.997075	-0.323055
H196	H	0.186697	1.068142	-0.323024
H197	H	1.303405	0.208108	0.000093
N198	N	0.780121	1.070491	-0.439172
H199	H	0.816010	1.085026	-0.424670
H200	H	0.718223	1.120514	-0.468205
H201	H	0.100313	0.631347	-0.094706
H202	H	0.743580	0.258619	-0.115659
H203	H	0.697198	0.999799	-0.435560
H204	H	0.863078	0.497163	-0.564246
N205	N	0.914439	0.271556	0.108728
H206	H	0.955381	0.210187	0.141840
H207	H	0.886192	0.294304	0.136139
N208	N	0.237160	1.070344	0.000065
H209	H	0.255092	1.084875	0.029092
H210	H	0.201285	1.049284	0.021081
N211	N	0.685136	0.380122	0.174399
H212	H	0.656179	0.351845	0.179273
H213	H	0.727031	0.369659	0.147713
N214	N	0.645851	-0.009062	-0.108556
H215	H	0.586535	0.024266	-0.106280
H216	H	0.655735	-0.059837	-0.100597
H217	H	1.183352	0.372293	0.192167
N218	N	0.090748	0.631326	0.108775
H219	H	0.037786	0.631350	0.100855
H220	H	0.072786	0.681571	0.106467
H221	H	1.318675	0.262835	0.067161
H222	H	0.863119	0.262718	0.435739
H223	H	0.662852	0.466926	-0.094744
H224	H	0.897408	-0.094947	0.094935
H225	H	0.862999	0.497171	-0.301447
N226	N	1.150825	0.254788	0.453525
H227	H	1.086935	0.283026	0.448674
H228	H	1.179803	0.265298	0.480180
N229	N	0.914494	-0.226229	0.108754
H230	H	0.955433	-0.231042	0.141863
H231	H	0.948369	-0.253527	0.085895
N232	N	0.202775	0.631273	0.161015
H233	H	0.184761	0.681515	0.158734
H234	H	0.246863	0.580976	0.208971
N235	N	0.875045	0.477635	-0.174200
H236	H	0.868098	0.488849	-0.136996
H237	H	0.938941	0.445381	-0.168587
H238	H	0.662917	0.094596	-0.094737
N239	N	0.875197	0.477628	-0.671942
H240	H	0.939107	0.445345	-0.645262
H241	H	0.868209	0.488911	-0.720387
N242	N	0.374727	0.882201	-0.174227
H243	H	0.310832	0.910461	-0.179097
H244	H	0.403707	0.892708	-0.147570
N245	N	0.738286	0.151717	-0.132514
H246	H	0.781518	0.156909	-0.156807
H247	H	0.677418	0.202535	-0.163945
N248	N	0.469552	0.631139	-0.108581
H249	H	0.434530	0.631163	-0.141688
H250	H	0.531558	0.580865	-0.085731
H251	H	0.542794	0.890234	0.067141
N252	N	0.357504	0.631201	-0.160834
H253	H	0.419508	0.580930	-0.138033
H254	H	0.357379	0.681469	-0.188279
N255	N	0.357959	0.631169	0.161011
H256	H	0.323033	0.631183	0.194129
H257	H	0.357901	0.681404	0.138155
N258	N	0.469855	0.631117	0.108715
H259	H	0.425860	0.681374	0.106438
H260	H	0.522804	0.631057	0.100745
N261	N	0.685095	0.784840	-0.327857
H262	H	0.656161	0.831652	-0.379548
H263	H	0.727044	0.788070	-0.304408
N264	N	0.793683	0.748938	-0.495990
H265	H	0.797830	0.784809	-0.542188
H266	H	0.847595	0.719109	-0.456008
N267	N	0.766605	0.513525	-0.503804
H268	H	0.762477	0.477645	-0.457598
H269	H	0.819969	0.478780	-0.511441
N270	N	0.564584	0.882297	-0.327885
H271	H	0.558542	0.910579	-0.379577
H272	H	0.597524	0.821728	-0.304461
H273	H	0.791992	0.733973	-0.605989
H274	H	0.768269	0.528505	-0.393820
