data_functionalizedCrystal
_audit_creation_method	'MofGen! by Chris Wilmer'
_symmetry_space_group_name_H-M	'P1'
_symmetry_Int_Tables_number	1
_symmetry_cell_setting	triclinic
loop_
_symmetry_equiv_pos_as_xyz
  x,y,z
_cell_length_a	14.519709
_cell_length_b	10.654550
_cell_length_c	9.730223
_cell_angle_alpha	90.000193
_cell_angle_beta	89.994593
_cell_angle_gamma	84.082524
loop_
_atom_site_label
_atom_site_type_symbol
_atom_site_fract_x
_atom_site_fract_y
_atom_site_fract_z
O1	O	-1.224716	-0.164618	-0.114107
O2	O	-0.724716	0.335382	0.385893
O3	O	-0.956339	-0.184004	-0.114149
O4	O	-0.456339	0.315996	0.385851
O5	O	-1.096698	0.008488	-0.114122
O6	O	-0.596698	0.508488	0.385878
O7	O	-1.084357	-0.357109	-0.114134
O8	O	-0.584357	0.142891	0.385866
O9	O	-1.096696	0.008483	0.114458
O10	O	-0.596696	0.508483	0.614458
O11	O	-0.956338	-0.184009	0.114431
O12	O	-0.456338	0.315991	0.614431
O13	O	-1.224714	-0.164622	0.114473
O14	O	-0.724714	0.335378	0.614473
Zn15	Zn	-1.090526	-0.174316	0.150744
Zn16	Zn	-0.590526	0.325684	0.650744
Zn17	Zn	-1.090528	-0.174310	-0.150420
Zn18	Zn	-0.590528	0.325690	0.349580
O19	O	-1.084355	-0.357114	0.114446
O20	O	-0.584355	0.142886	0.614446
C21	C	-1.095791	0.055275	0.000166
C22	C	-0.595791	0.555275	0.500166
C23	C	-1.093080	0.194692	0.000161
C24	C	-0.593080	0.694692	0.500161
C25	C	-0.921974	-0.183103	0.000136
C26	C	-0.421974	0.316897	0.500136
C27	C	-0.819579	-0.180396	0.000120
C28	C	-0.319579	0.319604	0.500120
C29	C	-1.259079	-0.165524	0.000185
C30	C	-0.759079	0.334476	0.500185
C31	C	-1.361475	-0.168231	0.000192
C32	C	-0.861475	0.331769	0.500192
C33	C	-0.444631	-0.170428	0.000183
C34	C	0.055369	0.329572	0.500183
C35	C	-0.548954	-0.173196	0.000165
C36	C	-0.048954	0.326804	0.500165
C37	C	-0.632102	-0.175412	0.000150
C38	C	-0.132102	0.324588	0.500150
C39	C	-0.736431	-0.178180	0.000135
C40	C	-0.236431	0.321820	0.500135
C41	C	-1.085262	-0.403901	0.000155
C42	C	-0.585262	0.096099	0.500155
C43	C	-1.087973	-0.543318	0.000151
C44	C	-0.587973	-0.043318	0.500151
N45	N	-1.090531	-0.174320	0.356280
N46	N	-0.590531	0.325680	0.856280
C47	C	-1.175721	0.274972	0.000178
C48	C	-0.675721	0.774972	0.500178
C49	C	-1.173168	0.405968	0.000168
C50	C	-0.673168	0.905968	0.500168
C51	C	-1.005326	0.376391	0.000130
C52	C	-0.505326	0.876391	0.500130
C53	C	-1.007880	0.245397	0.000130
C54	C	-0.507880	0.745397	0.500130
C55	C	-1.272623	0.292049	0.000206
C56	C	-0.772623	0.792049	0.500206
C57	C	-1.270070	0.423046	0.000196
C58	C	-0.770070	0.923046	0.500196
N59	N	-1.090530	-0.174297	-0.355956
N60	N	-0.590530	0.325703	0.144044
C61	C	-1.152698	-0.089113	0.428218
C62	C	-0.652698	0.410887	0.928218
C63	C	-1.152695	-0.089098	0.572101
C64	C	-0.652695	0.410902	1.072101
C65	C	-1.028356	-0.259507	0.572096
C66	C	-0.528356	0.240493	1.072096
C67	C	-1.028355	-0.259516	0.428215
C68	C	-0.528355	0.240484	0.928215
C69	C	-1.224487	0.009267	0.428223
C70	C	-0.724487	0.509267	0.928223
C71	C	-1.224485	0.009283	0.572106
C72	C	-0.724485	0.509283	1.072106
H73	H	-0.940586	0.180037	0.000097
H74	H	-0.440586	0.680037	0.500097
N75	N	-0.913432	0.431073	0.000104
N76	N	-0.413432	0.931073	0.500104
H77	H	-0.908632	0.484760	-0.084633
H78	H	-0.408632	0.984760	0.415367
H79	H	-0.908683	0.484702	0.084892
H80	H	-0.408683	0.984702	0.584892
H81	H	-1.291445	-0.020677	0.383606
H82	H	-0.791445	0.479323	0.883606
H83	H	-1.306581	0.465155	0.095860
H84	H	-0.806581	0.965155	0.595860
H85	H	-0.977733	-0.328870	0.630681
H86	H	-0.477733	0.171130	1.130681
H87	H	-1.310526	0.263058	-0.095442
H88	H	-0.810526	0.763058	0.404558
N89	N	-1.194821	0.129829	0.631227
N90	N	-0.694821	0.629829	1.131227
H91	H	-1.246387	0.172466	0.689669
H92	H	-0.746387	0.672466	1.189669
H93	H	-1.137702	0.109607	0.689593
H94	H	-0.637702	0.609607	1.189593
H95	H	-1.295354	-0.011554	0.611167
H96	H	-0.795354	0.488446	1.111167
H97	H	-1.208741	0.105648	0.389169
H98	H	-0.708741	0.605648	0.889169
N99	N	-1.313437	0.245282	0.131007
N100	N	-0.813437	0.745282	0.631007
H101	H	-1.378928	0.286078	0.142343
H102	H	-0.878928	0.786078	0.642343
H103	H	-1.313755	0.150637	0.126222
H104	H	-0.813755	0.650637	0.626222
N105	N	-1.308885	0.483901	-0.130504
N106	N	-0.808885	0.983901	0.369496
H107	H	-1.329516	0.416956	-0.193651
H108	H	-0.829516	0.916956	0.306349
H109	H	-1.363529	0.546919	-0.107621
H110	H	-0.863529	1.046919	0.392379
N111	N	-0.961288	-0.351394	0.350622
N112	N	-0.461288	0.148606	0.850622
H113	H	-0.921901	-0.405359	0.418028
H114	H	-0.421901	0.094641	0.918028
H115	H	-0.996931	-0.407036	0.290926
H116	H	-0.496931	0.092964	0.790926
