data_functionalizedCrystal
_audit_creation_method	'MofGen! by Chris Wilmer'
_symmetry_space_group_name_H-M	'P1'
_symmetry_Int_Tables_number	1
_symmetry_cell_setting	triclinic
loop_
_symmetry_equiv_pos_as_xyz
  x,y,z
_cell_length_a	14.044220
_cell_length_b	13.339070
_cell_length_c	12.503572
_cell_angle_alpha	85.519705
_cell_angle_beta	86.164750
_cell_angle_gamma	75.590914
loop_
_atom_site_label
_atom_site_type_symbol
_atom_site_fract_x
_atom_site_fract_y
_atom_site_fract_z
O1	O	1.327425	-0.244337	-0.089193
O2	O	1.049086	-0.235320	-0.089221
O3	O	1.156311	-0.089682	-0.089207
O4	O	1.220200	-0.389974	-0.089207
O5	O	1.148253	-0.100655	0.089434
O6	O	1.041028	-0.246293	0.089420
O7	O	1.319366	-0.255309	0.089447
Cu8	Cu	1.179461	-0.251803	0.105745
Cu9	Cu	1.188992	-0.238826	-0.105519
O10	O	1.212141	-0.400947	0.089434
C11	C	1.008705	-0.236860	0.000096
C12	C	0.900384	-0.225089	0.000085
N13	N	1.172765	-0.260930	0.254336
C14	C	1.141490	-0.056505	0.000111
C15	C	1.109322	0.058700	0.000103
C16	C	0.702062	-0.203571	0.000106
C17	C	0.666384	-0.287053	0.000111
C18	C	0.556031	-0.275080	0.000123
C19	C	0.812425	-0.215543	0.000094
C20	C	1.359748	-0.253769	0.000128
C21	C	1.468069	-0.265540	0.000132
C22	C	1.226963	-0.434124	0.000113
C23	C	1.259132	-0.549329	0.000114
C24	C	1.359447	0.400920	0.000129
C25	C	1.389673	0.292679	0.000142
C26	C	1.319588	0.234179	0.000132
C27	C	1.219271	0.283931	0.000109
C28	C	1.189041	0.392182	0.000105
C29	C	1.149182	0.225441	0.000108
C30	C	1.048865	0.275192	0.000085
C31	C	1.018640	0.383433	0.000080
C32	C	1.088726	0.441933	0.000090
C33	C	1.179412	0.117189	0.000112
C34	C	1.009006	0.108451	0.000088
C35	C	0.978780	0.216692	0.000075
N36	N	1.195693	-0.229692	-0.254110
C37	C	1.162917	-0.274365	0.473450
C38	C	1.205539	-0.216260	0.526783
C39	C	1.200060	-0.223736	0.648705
C40	C	1.168395	-0.266890	0.351517
H41	H	0.649733	-0.123116	0.000112
N42	N	1.431029	0.460675	0.000122
N43	N	1.494853	0.456144	-0.075171
H44	H	1.545414	0.498346	-0.075176
H45	H	0.936956	0.423937	0.000070
H46	H	1.261091	0.076692	0.000131
H47	H	0.951936	0.060820	0.000086
H48	H	1.471351	0.252179	0.000161
H49	H	1.344205	0.146044	0.000143
N50	N	1.256484	-0.146805	0.469221
N51	N	1.211475	-0.075936	0.406441
H52	H	1.247460	-0.026887	0.365791
N53	N	1.111999	-0.343828	0.531028
N54	N	1.139223	-0.438969	0.518576
H55	H	1.103266	-0.488030	0.559250
H56	H	1.064120	0.530073	0.000075
N57	N	0.876315	0.267536	0.000072
N58	N	0.837048	0.322345	0.075369
H59	H	0.764682	0.358257	0.075368
N60	N	0.732041	-0.387987	0.000110
N61	N	0.822890	-0.397699	0.000101
H62	H	0.869265	-0.468981	0.000099
