data_functionalizedCrystal
_audit_creation_method	'MofGen! by Chris Wilmer'
_symmetry_space_group_name_H-M	'P1'
_symmetry_Int_Tables_number	1
_symmetry_cell_setting	triclinic
loop_
_symmetry_equiv_pos_as_xyz
  x,y,z
_cell_length_a	10.723024
_cell_length_b	10.723024
_cell_length_c	9.798715
_cell_angle_alpha	90.002500
_cell_angle_beta	89.997147
_cell_angle_gamma	95.532131
loop_
_atom_site_label
_atom_site_type_symbol
_atom_site_fract_x
_atom_site_fract_y
_atom_site_fract_z
O1	O	-0.175025	1.657187	0.113452
O2	O	-0.191778	1.294035	0.113463
O3	O	-0.001825	1.483988	0.113450
O4	O	-0.364978	1.467234	0.113465
O5	O	-0.001824	1.483974	-0.113532
O6	O	-0.191777	1.294021	-0.113519
O7	O	-0.175024	1.657173	-0.113530
Zn8	Zn	-0.183400	1.475595	-0.149563
Zn9	Zn	-0.183402	1.475613	0.149496
O10	O	-0.364976	1.467220	-0.113517
C11	C	0.044675	1.482762	-0.000040
C12	C	0.183229	1.479114	-0.000037
C13	C	-0.176243	1.703680	-0.000038
C14	C	-0.179891	1.842234	-0.000033
C15	C	-0.190558	1.247528	-0.000027
C16	C	-0.186911	1.108974	-0.000023
C17	C	0.258212	1.585401	-0.000039
C18	C	0.401415	1.581634	-0.000036
C19	C	0.588523	1.468447	-0.000027
C20	C	0.449969	1.472094	-0.000031
N21	N	-0.183398	1.475591	-0.353663
C22	C	-0.073603	1.917217	-0.000035
C23	C	-0.077371	2.060420	-0.000030
C24	C	-0.255759	1.548356	-0.421440
C25	C	-0.255758	1.548376	-0.578603
N26	N	-0.183394	1.475627	0.353595
H27	H	0.216390	1.679187	-0.000050
H28	H	-0.273677	1.884056	-0.000034
H29	H	-0.277906	2.044549	-0.000015
C30	C	-0.099697	1.391458	-0.567691
H31	H	-0.054304	1.345813	-0.630617
H32	H	-0.042651	1.441992	-0.511937
H33	H	-0.150512	1.334621	-0.511963
H34	H	-0.317716	1.610666	-0.636889
H35	H	0.465848	1.672624	-0.000044
H36	H	0.225051	1.385328	-0.000026
C37	C	0.053098	1.860731	-0.000041
H38	H	0.039008	1.771892	-0.000034
H39	H	0.099229	1.887722	-0.079193
H40	H	0.099219	1.887721	0.079124
H41	H	0.385544	1.381099	-0.000038
C42	C	0.045558	2.147448	-0.000025
H43	H	0.114770	2.098409	-0.000019
H44	H	0.048882	2.198814	-0.079173
H45	H	0.048872	2.198803	0.079144
C46	C	-0.339457	1.632495	-0.342660
H47	H	-0.328485	1.621436	-0.247363
H48	H	-0.316843	1.717659	-0.365994
H49	H	-0.424693	1.610277	-0.366009
H50	H	-0.121443	1.413312	-0.411989
