data_functionalizedCrystal
_audit_creation_method	'MofGen! by Chris Wilmer'
_symmetry_space_group_name_H-M	'P1'
_symmetry_Int_Tables_number	1
_symmetry_cell_setting	triclinic
loop_
_symmetry_equiv_pos_as_xyz
  x,y,z
_cell_length_a	10.685661
_cell_length_b	10.685194
_cell_length_c	19.076919
_cell_angle_alpha	92.275516
_cell_angle_beta	91.910086
_cell_angle_gamma	89.666413
loop_
_atom_site_label
_atom_site_type_symbol
_atom_site_fract_x
_atom_site_fract_y
_atom_site_fract_z
Zn1	Zn	1.845152	-0.676334	0.447758
Zn2	Zn	2.345152	-0.176334	0.947758
Zn3	Zn	1.838743	-0.877761	0.321179
Zn4	Zn	2.338743	-0.377761	0.821179
Zn5	Zn	1.645023	-0.651989	0.322579
Zn6	Zn	2.145023	-0.151989	0.822579
Zn7	Zn	1.620670	-0.868786	0.429915
Zn8	Zn	2.120670	-0.368786	0.929915
O9	O	1.737397	-0.768717	0.380358
O10	O	2.237397	-0.268717	0.880358
O11	O	2.019320	-0.716998	0.437849
O12	O	2.519320	-0.216998	0.937849
O13	O	1.820555	-0.841380	0.223471
O14	O	2.320555	-0.341380	0.723471
O15	O	1.684444	-0.480189	0.347238
O16	O	2.184444	0.019811	0.847238
O17	O	2.014612	-0.864986	0.344852
O18	O	2.514612	-0.364986	0.844852
O19	O	1.831478	-0.498076	0.439206
O20	O	2.331478	0.001924	0.939206
O21	O	1.678230	-0.675506	0.224500
O22	O	2.178230	-0.175506	0.724500
O23	O	1.466773	-0.666803	0.329936
O24	O	1.966773	-0.166803	0.829936
O25	O	1.642938	-0.849689	0.530175
O26	O	2.142938	-0.349689	1.030175
O27	O	1.448882	-0.826083	0.408795
O28	O	1.948882	-0.326083	0.908795
O29	O	1.807864	-0.708295	0.543285
O30	O	2.307864	-0.208295	1.043285
O31	O	1.796942	-1.051599	0.327550
O32	O	2.296942	-0.551599	0.827550
O33	O	1.636724	-1.045005	0.407437
O34	O	2.136724	-0.545005	0.907437
C35	C	1.412447	-0.742828	0.367581
C36	C	1.912447	-0.242828	0.867581
C37	C	1.273428	-0.731784	0.362131
C38	C	1.773428	-0.231784	0.862131
C39	C	1.713528	-1.093689	0.365422
C40	C	2.213528	-0.593689	0.865422
C41	C	1.703429	-1.232724	0.359060
C42	C	2.203429	-0.732724	0.859060
C43	C	2.063616	-0.794709	0.393185
C44	C	2.563616	-0.294709	0.893185
C45	C	2.202631	-0.805785	0.398651
C46	C	2.702631	-0.305785	0.898651
C47	C	1.723400	-0.780706	0.562822
C48	C	2.223400	-0.280706	1.062822
C49	C	1.717435	-0.785816	0.640578
C50	C	2.217435	-0.285816	1.140578
C51	C	1.761392	-0.442481	0.395369
C52	C	2.261392	0.057519	0.895369
C53	C	1.771617	-0.303458	0.401765
C54	C	2.271617	0.196542	0.901765
C55	C	1.751418	-0.756690	0.198610
C56	C	2.251418	-0.256690	0.698610
C57	C	1.757651	-0.751248	0.120881
C58	C	2.257651	-0.251248	0.620881
C59	C	1.800496	-0.714603	0.683934
C60	C	2.300496	-0.214603	1.183934
C61	C	1.794877	-0.719397	0.756993
C62	C	2.294877	-0.219397	1.256993
C63	C	1.706201	-0.795412	0.786695
C64	C	2.206201	-0.295412	1.286695
C65	C	1.623131	-0.866627	0.743333
C66	C	2.123131	-0.366627	1.243333
C67	C	1.628745	-0.861825	0.670275
C68	C	2.128745	-0.361825	1.170275
C69	C	1.680196	-0.817661	1.004461
C70	C	2.180196	-0.317661	1.504461
C71	C	1.674590	-0.822461	1.077525
C72	C	2.174590	-0.322461	1.577525
C73	C	1.846335	-0.675229	1.091180
C74	C	2.346335	-0.175229	1.591180
C75	C	1.851946	-0.670439	1.018120
C76	C	2.351946	-0.170439	1.518120
C77	C	1.768872	-0.741649	0.974765
C78	C	2.268872	-0.241649	1.474765
N79	N	1.700457	-0.800318	0.861373
N80	N	2.200457	-0.300318	1.361373
N81	N	1.774611	-0.736736	0.900088
N82	N	2.274611	-0.236736	1.400088
H83	H	1.227688	-0.659971	0.326700
H84	H	1.727688	-0.159971	0.826700
Cl85	Cl	1.899353	-0.629928	0.811495
Cl86	Cl	2.399353	-0.129928	1.311495
H87	H	1.637308	-1.278536	0.317631
H88	H	2.137308	-0.778536	0.817631
Cl89	Cl	1.963430	-0.574874	0.980786
Cl90	Cl	2.463430	-0.074874	1.480786
Cl91	Cl	1.911986	-0.619043	0.646602
Cl92	Cl	2.411986	-0.119043	1.146602
Cl93	Cl	1.873684	-1.232740	0.465735
Cl94	Cl	2.373684	-0.732740	0.965735
H95	H	1.913968	-0.617252	1.126487
H96	H	2.413968	-0.117252	1.626487
H97	H	1.602375	-0.884364	1.101705
H98	H	2.102375	-0.384364	1.601705
Cl99	Cl	1.575759	-0.907184	0.949967
Cl100	Cl	2.075759	-0.407184	1.449967
H101	H	1.550925	-0.928515	0.767522
H102	H	2.050925	-0.428515	1.267522
Cl103	Cl	1.524317	-0.951350	0.615770
Cl104	Cl	2.024317	-0.451350	1.115770
H105	H	1.248377	-0.877592	0.434091
H106	H	1.748377	-0.377592	0.934091
