data_functionalizedCrystal
_audit_creation_method	'MofGen! by Chris Wilmer'
_symmetry_space_group_name_H-M	'P1'
_symmetry_Int_Tables_number	1
_symmetry_cell_setting	triclinic
loop_
_symmetry_equiv_pos_as_xyz
  x,y,z
_cell_length_a	14.971482
_cell_length_b	14.971486
_cell_length_c	14.048226
_cell_angle_alpha	90.006640
_cell_angle_beta	89.994098
_cell_angle_gamma	96.386632
loop_
_atom_site_label
_atom_site_type_symbol
_atom_site_fract_x
_atom_site_fract_y
_atom_site_fract_z
O1	O	1.186949	-0.116549	-0.079149
O2	O	0.926548	-0.130511	-0.079153
O3	O	1.063728	0.006670	-0.079144
O4	O	1.049769	-0.253730	-0.079158
O5	O	1.063712	0.006678	0.079177
O6	O	0.926532	-0.130503	0.079168
O7	O	1.186933	-0.116541	0.079173
Zn8	Zn	1.056730	-0.123521	0.104307
Zn9	Zn	1.056751	-0.123531	-0.104288
O10	O	1.049753	-0.253722	0.079163
C11	C	0.893215	-0.129883	0.000007
C12	C	0.793918	-0.128014	0.000005
C13	C	0.747265	-0.127129	0.086307
C14	C	0.653966	-0.125358	0.086308
C15	C	0.607322	-0.124479	0.000006
C16	C	0.653983	-0.125361	-0.086302
C17	C	0.747280	-0.127125	-0.086303
C18	C	0.459521	-0.121686	-0.086296
C19	C	0.366216	-0.119923	-0.086296
C20	C	0.366207	-0.119918	0.086315
C21	C	0.459504	-0.121683	0.086315
C22	C	0.506158	-0.122567	0.000005
C23	C	1.220266	-0.117168	0.000010
C24	C	1.319563	-0.119038	0.000006
C25	C	1.063096	0.039999	0.000016
C26	C	1.061225	0.139296	0.000015
C27	C	1.050385	-0.287051	0.000001
C28	C	1.052256	-0.386348	-0.000005
N29	N	1.056721	-0.123513	0.246668
C30	C	1.141814	0.196522	0.000017
C31	C	1.140051	0.289822	0.000008
C32	C	1.057698	0.325893	0.000003
C33	C	0.977102	0.268659	-0.000002
C34	C	0.978866	0.175362	0.000001
C35	C	0.973431	0.463122	-0.000006
C36	C	0.971667	0.556426	-0.000007
C37	C	1.134616	0.577582	0.000001
C38	C	1.136380	0.484284	0.000004
C39	C	1.055784	0.427057	0.000001
N40	N	1.056767	-0.123532	-0.246649
C41	C	1.117484	-0.062794	0.296490
C42	C	1.117490	-0.062793	0.396148
C43	C	1.056737	-0.123517	0.445981
C44	C	0.995968	-0.184238	0.396152
C45	C	0.995959	-0.184234	0.296496
C46	C	0.995994	-0.184245	0.603866
C47	C	0.996005	-0.184251	0.703529
C48	C	1.117525	-0.062804	0.703518
C49	C	1.117515	-0.062800	0.603862
C50	C	1.056748	-0.123523	0.554040
H51	H	0.328217	-0.119199	0.156591
H52	H	0.946498	-0.233677	0.436733
Br53	Br	0.810598	-0.128318	-0.203431
Br54	Br	0.913517	-0.266652	0.536254
Br55	Br	0.302914	-0.118730	-0.203421
H56	H	0.913242	0.128768	-0.000001
Br57	Br	0.865335	0.317612	-0.000025
Br58	Br	1.243997	0.655246	0.000004
H59	H	0.615999	-0.124638	-0.156571
Br60	Br	0.522837	-0.122880	-0.203431
H61	H	0.946532	-0.233697	0.744099
Br62	Br	0.522805	-0.122890	0.203440
Br63	Br	1.199951	0.019615	0.463767
H64	H	1.166959	-0.013350	0.255922
H65	H	1.167004	-0.013362	0.744089
Br66	Br	1.199973	0.019602	0.536227
H67	H	0.946479	-0.233676	0.255932
Br68	Br	1.249427	0.367484	0.000010
Br69	Br	0.810557	-0.128332	0.203438
Br70	Br	1.248147	0.435331	0.000009
Br71	Br	1.253586	0.147578	0.000038
Br72	Br	0.590652	-0.124172	0.203438
Br73	Br	0.859900	0.605380	-0.000009
H74	H	0.907801	0.416529	-0.000011
