data_functionalizedCrystal
_audit_creation_method	'MofGen! by Chris Wilmer'
_symmetry_space_group_name_H-M	'P1'
_symmetry_Int_Tables_number	1
_symmetry_cell_setting	triclinic
loop_
_symmetry_equiv_pos_as_xyz
  x,y,z
_cell_length_a	18.878441
_cell_length_b	31.640172
_cell_length_c	31.640172
_cell_angle_alpha	89.994287
_cell_angle_beta	60.008073
_cell_angle_gamma	59.988762
loop_
_atom_site_label
_atom_site_type_symbol
_atom_site_fract_x
_atom_site_fract_y
_atom_site_fract_z
Zr1	Zr	0.775244	0.407177	-0.055495
Zr2	Zr	1.275244	0.907177	0.444505
O3	O	0.923022	0.339685	-0.122967
O4	O	1.423022	0.839685	0.377033
O5	O	0.627466	0.427867	-0.034813
O6	O	1.127466	0.927867	0.465187
O7	O	0.775225	0.427865	-0.122979
O8	O	1.275225	0.927865	0.377021
O9	O	0.775278	0.339688	0.034747
O10	O	1.275278	0.839688	0.534747
O11	O	0.775209	0.497422	-0.122986
O12	O	1.275209	0.997422	0.377014
O13	O	0.775263	0.339687	-0.034801
O14	O	1.275263	0.839687	0.465199
O15	O	0.510896	0.497426	0.034726
O16	O	1.010896	0.997426	0.534726
O17	O	1.039591	0.339684	-0.122965
O18	O	1.539591	0.839684	0.377035
O19	O	0.688237	0.488601	-0.025996
O20	O	1.188237	0.988601	0.474004
O21	O	0.688260	0.436691	0.025913
O22	O	1.188260	0.936691	0.525913
O23	O	0.862227	0.436689	-0.077891
O24	O	1.362227	0.936689	0.422109
O25	O	0.862249	0.384780	-0.025982
O26	O	1.362249	0.884780	0.474018
Zr27	Zr	0.775242	0.518114	0.055414
Zr28	Zr	1.275242	1.018114	0.555414
Zr29	Zr	0.775219	0.518112	-0.055507
Zr30	Zr	1.275219	1.018112	0.444493
Zr31	Zr	0.775267	0.407178	0.055426
Zr32	Zr	1.275267	0.907178	0.555426
Zr33	Zr	0.961158	0.407175	-0.055493
Zr34	Zr	1.461158	0.907175	0.444507
Zr35	Zr	0.589328	0.518115	0.055411
Zr36	Zr	1.089328	1.018115	0.555411
O37	O	0.923020	0.497423	0.034732
O38	O	1.423020	0.997423	0.534732
O39	O	0.922987	0.497421	-0.122984
O40	O	1.422987	0.997421	0.377016
O41	O	0.923055	0.339687	0.034749
O42	O	1.423055	0.839687	0.534749
O43	O	0.627464	0.585606	0.122886
O44	O	1.127464	1.085606	0.622886
O45	O	0.627431	0.585604	-0.034830
O46	O	1.127431	1.085604	0.465170
O47	O	0.627499	0.427870	0.122903
O48	O	1.127499	0.927870	0.622903
O49	O	0.775208	0.585603	-0.034828
O50	O	1.275208	1.085603	0.465172
O51	O	0.775261	0.497426	0.122898
O52	O	1.275261	0.997426	0.622898
O53	O	0.775277	0.427868	0.122905
O54	O	1.275277	0.927868	0.622905
O55	O	0.775223	0.585604	0.034720
O56	O	1.275223	1.085604	0.534720
O57	O	1.039571	0.427863	-0.122975
O58	O	1.539571	0.927863	0.377025
O59	O	0.510915	0.497428	0.122894
O60	O	1.010915	0.997428	0.622894
O61	O	0.510895	0.585607	0.122884
O62	O	1.010895	1.085607	0.622884
O63	O	0.510876	0.585606	0.034716
O64	O	1.010876	1.085606	0.534716
O65	O	1.039609	0.339685	-0.034797
O66	O	1.539609	0.839685	0.465203
O67	O	1.039590	0.427864	-0.034807
O68	O	1.539590	0.927864	0.465193
O69	O	0.688259	0.488602	0.077810
O70	O	1.188259	0.988602	0.577810
O71	O	0.688237	0.540511	0.025901
O72	O	1.188237	1.040511	0.525901
O73	O	0.862226	0.488599	-0.025994
O74	O	1.362226	0.988599	0.474006
O75	O	0.862249	0.436690	0.025915
O76	O	1.362249	0.936690	0.525915
C77	C	0.542692	0.462647	-0.000044
C78	C	1.042692	0.962647	0.499956
C79	C	0.463767	0.462648	-0.000045
C80	C	0.963767	0.962648	0.499955
C81	C	0.775274	0.323882	-0.000025
C82	C	1.275274	0.823882	0.499975
C83	C	0.775284	0.276786	-0.000020
C84	C	1.275284	0.776786	0.499980
C85	C	0.775231	-0.059486	0.038283
C86	C	1.275231	0.440514	0.538283
C87	C	0.775260	0.117495	0.038291
C88	C	1.275260	0.617495	0.538291
O89	O	0.775230	0.140388	0.070889
O90	O	1.275230	0.640388	0.570889
N91	N	0.775256	0.139629	-0.000024
N92	N	1.275256	0.639629	0.499976
C93	C	0.775238	0.117516	-0.038341
C94	C	1.275238	0.617516	0.461659
O95	O	0.775224	0.140406	-0.070927
O96	O	1.275224	0.640406	0.429073
C97	C	0.775202	-0.059462	-0.038346
C98	C	1.275202	0.440538	0.461654
C99	C	0.775216	-0.081597	-0.000032
C100	C	1.275216	0.418403	0.499968
C101	C	0.775244	-0.081620	0.076595
C102	C	1.275244	0.418380	0.576595
C103	C	0.775243	-0.125865	0.076591
C104	C	1.275243	0.374135	0.576591
C105	C	0.775228	-0.147975	0.038275
C106	C	1.275228	0.352025	0.538275
C107	C	0.775214	-0.125841	-0.000036
C108	C	1.275214	0.374159	0.499964
C109	C	0.775177	-0.081572	-0.076661
C110	C	1.275177	0.418428	0.423339
C111	C	0.775165	-0.125819	-0.076659
C112	C	1.275165	0.374181	0.423341
C113	C	0.775179	-0.147953	-0.038344
C114	C	1.275179	0.352047	0.461656
C115	C	0.775198	-0.192196	-0.038356
C116	C	1.275198	0.307804	0.461644
N117	N	0.775202	-0.214329	-0.000041
N118	N	1.275202	0.285671	0.499959
C119	C	0.775217	-0.192219	0.038275
C120	C	1.275217	0.307781	0.538275
C121	C	0.775258	0.210432	-0.038336
C122	C	1.275258	0.710432	0.461664
C123	C	0.775269	0.254676	-0.038335
C124	C	1.275269	0.754676	0.461665
C125	C	0.775290	0.254653	0.038298
C126	C	1.275290	0.754653	0.538298
C127	C	0.775286	0.210406	0.038294
C128	C	1.275286	0.710406	0.538294
C129	C	0.775263	0.188299	-0.000021
C130	C	1.275263	0.688299	0.499979
C131	C	0.775214	-0.285136	0.038263
C132	C	1.275214	0.214864	0.538263
C133	C	0.775217	-0.329385	0.038254
C134	C	1.275217	0.170615	0.538254
C135	C	0.775191	-0.329356	-0.038377
C136	C	1.275191	0.170644	0.461623
C137	C	0.775194	-0.285112	-0.038370
C138	C	1.275194	0.214888	0.461630
C139	C	0.775202	-0.263002	-0.000046
C140	C	1.275202	0.236998	0.499954
O141	O	0.775216	-0.215113	-0.070933
O142	O	1.275216	0.284887	0.429067
O143	O	0.775208	-0.215110	0.070862
O144	O	1.275208	0.284890	0.570862
C145	C	0.775233	-0.015242	0.038287
C146	C	1.275233	0.484758	0.538287
C147	C	0.775220	0.006892	-0.000024
C148	C	1.275220	0.506892	0.499976
C149	C	0.775205	-0.015218	-0.038340
C150	C	1.275205	0.484782	0.461660
C151	C	0.775230	0.051136	-0.000023
C152	C	1.275230	0.551136	0.499977
C153	C	0.775245	0.073246	0.038292
C154	C	1.275245	0.573246	0.538292
C155	C	0.775250	0.051113	0.076607
C156	C	1.275250	0.551113	0.576607
C157	C	0.775248	0.006868	0.076603
C158	C	1.275248	0.506868	0.576603
C159	C	0.775200	0.006915	-0.076655
C160	C	1.275200	0.506915	0.423345
C161	C	0.775203	0.051159	-0.076648
C162	C	1.275203	0.551159	0.423352
C163	C	0.775218	0.073270	-0.038332
C164	C	1.275218	0.573270	0.461668
C165	C	0.426675	0.489743	-0.027141
C166	C	0.926675	0.989743	0.472859
C167	C	0.352511	0.489745	-0.027137
C168	C	0.852511	0.989745	0.472863
C169	C	0.315444	0.462648	-0.000040
C170	C	0.815444	0.962648	0.499960
C171	C	0.352539	0.435552	0.027060
C172	C	0.852539	0.935552	0.527060
C173	C	0.426696	0.435554	0.027059
C174	C	0.926696	0.935554	0.527059
C175	C	0.197972	0.435550	0.027060
C176	C	0.697972	0.935550	0.527060
C177	C	0.123810	0.435548	0.027060
C178	C	0.623810	0.935548	0.527060
C179	C	0.123787	0.489741	-0.027137
C180	C	0.623787	0.989741	0.472863
C181	C	0.197945	0.489742	-0.027138
C182	C	0.697945	0.989742	0.472862
C183	C	0.235035	0.462646	-0.000039
C184	C	0.735035	0.962646	0.499961
C185	C	1.007794	0.462644	-0.000037
C186	C	1.507794	0.962644	0.499963
C187	C	1.086719	0.462643	-0.000036
C188	C	1.586719	0.962643	0.499964
C189	C	0.775214	0.462643	-0.138786
C190	C	1.275214	0.962643	0.361214
C191	C	0.775204	0.462643	-0.185875
C192	C	1.275204	0.962643	0.314125
C193	C	0.775212	0.601409	-0.000056
C194	C	1.275212	1.101409	0.499944
C195	C	0.775202	0.648504	-0.000061
C196	C	1.275202	1.148504	0.499939
C197	C	0.866073	0.435553	-0.504999
C198	C	1.366073	0.935553	-0.004999
C199	C	0.866090	0.435553	-0.681995
C200	C	1.366090	0.935553	-0.181995
O201	O	0.943330	0.412527	-0.727919
O202	O	1.443330	0.912527	-0.227919
N203	N	0.775270	0.462650	-0.677036
N204	N	1.275270	0.962650	-0.177036
C205	C	0.684440	0.489751	-0.627824
C206	C	1.184440	0.989751	-0.127824
O207	O	0.607192	0.512802	-0.627668
O208	O	1.107192	1.012802	-0.127668
C209	C	0.684423	0.489753	-0.450830
C210	C	1.184423	0.989753	0.049170
C211	C	0.775249	0.462650	-0.455792
C212	C	1.275249	0.962650	0.044208
C213	C	0.956891	0.408453	-0.509959
C214	C	1.456891	0.908453	-0.009959
C215	C	0.956886	0.408451	-0.465713
C216	C	1.456886	0.908451	0.034287
C217	C	0.866062	0.435548	-0.416506
C218	C	1.366062	0.935548	0.083494
C219	C	0.775244	0.462648	-0.411546
C220	C	1.275244	0.962648	0.088454
C221	C	0.593594	0.516857	-0.401619
C222	C	1.093594	1.016857	0.098381
C223	C	0.593598	0.516856	-0.357370
C224	C	1.093598	1.016856	0.142630
C225	C	0.684424	0.489753	-0.362332
C226	C	1.184424	0.989753	0.137668
C227	C	0.684415	0.489744	-0.318093
C228	C	1.184415	0.989744	0.181907
N229	N	0.775235	0.462647	-0.323051
N230	N	1.275235	0.962647	0.176949
C231	C	0.866059	0.435549	-0.372258
C232	C	1.366059	0.935549	0.127742
C233	C	0.684455	0.489747	-0.720751
C234	C	1.184455	0.989747	-0.220751
C235	C	0.684458	0.489746	-0.764999
C236	C	1.184458	0.989746	-0.264999
C237	C	0.866109	0.435549	-0.819166
C238	C	1.366109	0.935549	-0.319166
C239	C	0.866105	0.435547	-0.774917
C240	C	1.366105	0.935547	-0.274917
C241	C	0.775275	0.462650	-0.725709
C242	C	1.275275	0.962650	-0.225709
C243	C	0.866041	0.435547	-0.279335
C244	C	1.366041	0.935547	0.220665
C245	C	0.866027	0.435545	-0.235082
C246	C	1.366027	0.935545	0.264918
C247	C	0.684377	0.489744	-0.180919
C248	C	1.184377	0.989744	0.319081
C249	C	0.684390	0.489743	-0.225167
C250	C	1.184390	0.989743	0.274833
C251	C	0.775230	0.462644	-0.274377
C252	C	1.275230	0.962644	0.225623
O253	O	0.607215	0.512763	-0.272153
O254	O	1.107215	1.012763	0.227847
O255	O	0.943295	0.412511	-0.372403
O256	O	1.443295	0.912511	0.127597
C257	C	0.866078	0.435555	-0.549246
C258	C	1.366078	0.935555	-0.049246
C259	C	0.775260	0.462655	-0.544285
C260	C	1.275260	0.962655	-0.044285
C261	C	0.684436	0.489752	-0.495078
C262	C	1.184436	0.989752	0.004922
C263	C	0.775264	0.462653	-0.588534
C264	C	1.275264	0.962653	-0.088534
C265	C	0.866087	0.435556	-0.637740
C266	C	1.366087	0.935556	-0.137740
C267	C	0.956907	0.408459	-0.642699
C268	C	1.456907	0.908459	-0.142699
C269	C	0.956902	0.408457	-0.598452
C270	C	1.456902	0.908457	-0.098452
C271	C	0.593616	0.516849	-0.490120
C272	C	1.093616	1.016849	0.009880
C273	C	0.593629	0.516848	-0.534369
C274	C	1.093629	1.016848	-0.034369
C275	C	0.684452	0.489751	-0.583576
C276	C	1.184452	0.989751	-0.083576
C277	C	0.775272	0.462647	0.138705
C278	C	1.275272	0.962647	0.638705
C279	C	0.775282	0.462648	0.185794
C280	C	1.275282	0.962648	0.685794
C281	C	0.542661	0.601411	-0.000059
C282	C	1.042661	1.101411	0.499941
C283	C	0.463725	0.648507	-0.000065
C284	C	0.963725	1.148507	0.499935
C285	C	0.542721	0.462649	0.138702
C286	C	1.042721	0.962649	0.638702
C287	C	0.463806	0.462650	0.185790
C288	C	0.963806	0.962650	0.685790
C289	C	0.542691	0.601413	0.138687
C290	C	1.042691	1.101413	0.638687
C291	C	0.463765	0.648509	0.185770
C292	C	0.963765	1.148509	0.685770
C293	C	1.007795	0.323878	-0.138768
C294	C	1.507795	0.823878	0.361232
C295	C	1.086721	0.276781	-0.185851
C296	C	1.586721	0.776781	0.314149
C297	C	1.007824	0.323880	-0.000022
C298	C	1.507824	0.823880	0.499978
C299	C	1.086761	0.276784	-0.000016
C300	C	1.586761	0.776784	0.499984
C301	C	1.007764	0.462642	-0.138783
C302	C	1.507764	0.962642	0.361217
C303	C	1.086680	0.462640	-0.185871
C304	C	1.586680	0.962640	0.314129
C305	C	0.426656	0.643527	-0.027163
C306	C	0.926656	1.143527	0.472837
C307	C	0.352498	0.687774	-0.027179
C308	C	0.852498	1.187774	0.472821
C309	C	0.315405	0.737001	-0.000095
C310	C	0.815405	1.237001	0.499905
C311	C	0.352481	0.741980	0.027004
C312	C	0.852481	1.241980	0.527004
C313	C	0.426643	0.697733	0.027017
C314	C	0.926643	1.197733	0.527017
C315	C	0.426746	0.489748	0.234998
C316	C	0.926746	0.989748	0.734998
C317	C	0.352607	0.489747	0.279246
C318	C	0.852607	0.989747	0.779246
C319	C	0.315524	0.462651	0.274286
C320	C	0.815524	0.962651	0.774286
C321	C	0.352591	0.435551	0.225073
C322	C	0.852591	0.935551	0.725073
C323	C	0.426734	0.435549	0.180826
C324	C	0.926734	0.935549	0.680826
C325	C	0.426688	0.697727	0.180784
C326	C	0.926688	1.197727	0.680784
C327	C	0.352539	0.741983	0.225019
C328	C	0.852539	1.241983	0.725019
C329	C	0.315463	0.737021	0.274239
C330	C	0.815463	1.237021	0.774239
C331	C	0.352546	0.687798	0.279223
C332	C	0.852546	1.187798	0.779223
C333	C	0.426699	0.643543	0.234989
C334	C	0.926699	1.143543	0.734989
C335	C	1.123807	0.227564	-0.180865
C336	C	1.623807	0.727564	0.319135
C337	C	1.197979	0.183308	-0.225100
C338	C	1.697979	0.683308	0.274900
C339	C	1.235059	0.188270	-0.274320
C340	C	1.735059	0.688270	0.225680
C341	C	1.197971	0.237493	-0.279304
C342	C	1.697971	0.737493	0.220696
C343	C	1.123805	0.281748	-0.235070
C344	C	1.623805	0.781748	0.264930
C345	C	1.123837	0.281764	0.027077
C346	C	1.623837	0.781764	0.527077
C347	C	1.198016	0.237517	0.027081
C348	C	1.698016	0.737517	0.527081
C349	C	1.235112	0.188290	-0.000005
C350	C	1.735112	0.688290	0.499995
C351	C	1.198032	0.183311	-0.027101
C352	C	1.698032	0.683311	0.472899
C353	C	1.123860	0.227558	-0.027108
C354	C	1.623860	0.727558	0.472892
C355	C	1.123740	0.489741	-0.180894
C356	C	1.623740	0.989741	0.319106
C357	C	1.197879	0.489750	-0.225134
C358	C	1.697879	0.989750	0.274866
C359	C	1.234963	0.462655	-0.274351
C360	C	1.734963	0.962655	0.225649
C361	C	1.197896	0.435553	-0.279326
C362	C	1.697896	0.935553	0.220674
C363	C	1.123753	0.435548	-0.235087
C364	C	1.623753	0.935548	0.264913
H365	H	0.775231	-0.347407	0.069455
H366	H	1.275231	0.152593	0.569455
H367	H	1.295449	0.152230	-0.310335
H368	H	1.795449	0.652230	0.189665
H369	H	1.228051	0.511818	-0.221073
H370	H	1.728051	1.011818	0.278927
F371	F	0.466082	0.703041	0.055862
F372	F	0.966082	1.203041	0.555862
H373	H	1.093611	0.321822	-0.239135
H374	H	1.593611	0.821822	0.260865
F375	F	1.237463	0.242827	0.055924
F376	F	1.737463	0.742827	0.555924
H377	H	0.940062	0.413483	-0.859239
H378	H	1.440062	0.913483	-0.359239
H379	H	1.228163	0.143233	-0.221032
H380	H	1.728163	0.643233	0.278968
H381	H	0.322347	0.683765	0.319304
H382	H	0.822347	1.183765	0.819304
H383	H	0.456857	0.603448	-0.049225
H384	H	0.956857	1.103448	0.450775
F385	F	0.466163	0.406709	0.128457
F386	F	0.966163	0.906709	0.628457
H387	H	0.322319	0.683710	-0.049246
H388	H	0.822319	1.183710	0.450754
H389	H	0.775240	0.192435	-0.069539
H390	H	1.275240	0.692435	0.430461
F391	F	1.084326	0.406697	-0.240392
F392	F	1.584326	0.906697	0.259608
H393	H	0.456865	0.701777	0.140711
H394	H	0.956865	1.201777	0.640711
H395	H	1.295336	0.462663	-0.310369
H396	H	1.795336	0.962663	0.189631
F397	F	0.236541	0.784126	0.321314
F398	F	0.736541	1.284126	0.821314
F399	F	1.053572	0.379608	-0.603741
F400	F	1.553572	0.879608	-0.103741
H401	H	1.228171	0.241527	-0.319384
H402	H	1.728171	0.741527	0.180616
H403	H	0.228129	0.511803	-0.049206
H404	H	0.728129	1.011803	0.450794
F405	F	1.084285	0.518582	-0.128519
F406	F	1.584285	1.018582	0.371481
H407	H	1.228102	0.413493	-0.319404
H408	H	1.728102	0.913493	0.180596
F409	F	0.236472	0.784088	-0.000112
F410	F	0.736472	1.284088	0.499888
H411	H	0.322353	0.782059	0.220952
H412	H	0.822353	1.282059	0.720952
F413	F	0.775137	-0.149343	-0.117440
F414	F	1.275137	0.350657	0.382560
F415	F	0.466196	0.518590	0.240288
F416	F	0.966196	1.018590	0.740288
F417	F	0.313168	0.518594	0.331617
F418	F	0.813168	1.018594	0.831617
H419	H	0.322269	0.782066	0.049055
H420	H	0.822269	1.282066	0.549055
H421	H	1.093639	0.321843	0.049137
H422	H	1.593639	0.821843	0.549137
F423	F	1.237521	0.130916	-0.055925
F424	F	1.737521	0.630916	0.444075
F425	F	0.313113	0.406716	0.219802
F426	F	0.813113	0.906716	0.719802
H427	H	1.295508	0.152266	0.000005
H428	H	1.795508	0.652266	0.500005
H429	H	0.775219	-0.267138	0.069471
H430	H	1.275219	0.232862	0.569471
H431	H	0.456877	0.603469	0.239055
H432	H	0.956877	1.103469	0.739055
H433	H	1.093620	0.223513	-0.140792
H434	H	1.593620	0.723513	0.359208
F435	F	1.084402	0.222250	-0.055942
F436	F	1.584402	0.722250	0.444058
H437	H	0.322348	0.413493	0.049126
H438	H	0.822348	0.913493	0.549126
F439	F	0.496921	0.545707	-0.304999
F440	F	0.996921	1.045707	0.195001
H441	H	0.775253	-0.063621	0.107798
H442	H	1.275253	0.436379	0.607798
F443	F	0.775251	-0.149416	0.117372
F444	F	1.275251	0.350584	0.617372
H445	H	0.775304	0.272662	0.069495
H446	H	1.275304	0.772662	0.569495
F447	F	0.775300	0.186853	0.079074
F448	F	1.275300	0.686853	0.579074
H449	H	0.775197	-0.267095	-0.069573
H450	H	1.275197	0.232905	0.430427
H451	H	0.940063	0.413478	-0.778963
H452	H	1.440063	0.913478	-0.278963
F453	F	0.236613	0.462659	0.321383
F454	F	0.736613	0.962659	0.821383
H455	H	0.775273	0.272690	-0.069539
H456	H	1.275273	0.772690	0.430461
H457	H	0.775164	-0.063556	-0.107860
H458	H	1.275164	0.436444	0.392140
F459	F	0.237444	0.406712	0.055902
F460	F	0.737444	0.906712	0.555902
H461	H	0.775259	-0.011150	0.107802
H462	H	1.275259	0.488850	0.607802
F463	F	0.775270	0.074650	0.117384
F464	F	1.275270	0.574650	0.617384
F465	F	0.775178	-0.352896	-0.079154
F466	F	1.275178	0.147104	0.420846
H467	H	0.775199	0.069176	-0.107852
H468	H	1.275199	0.569176	0.392148
H469	H	0.456855	0.511805	-0.049210
H470	H	0.956855	1.011805	0.450790
F471	F	0.775184	-0.016611	-0.117437
F472	F	1.275184	0.483389	0.382563
H473	H	0.322311	0.511808	-0.049201
H474	H	0.822311	1.011808	0.450799
H475	H	0.610431	0.511805	-0.140847
H476	H	1.110431	1.011805	0.359153
H477	H	0.610432	0.511805	-0.221126
H478	H	1.110432	1.011805	0.278874
H479	H	0.093583	0.511804	-0.049201
H480	H	0.593583	1.011804	0.450799
F481	F	0.466169	0.406717	0.055900
F482	F	0.966169	0.906717	0.555900
F483	F	0.962701	0.406694	-0.240369
F484	F	1.462701	0.906694	0.259631
F485	F	0.084362	0.406710	0.055901
F486	F	0.584362	0.906710	0.555901
H487	H	0.940011	0.413480	-0.319399
H488	H	1.440011	0.913480	0.180601
H489	H	1.030855	0.386387	-0.550023
H490	H	1.530855	0.886387	-0.050023
F491	F	1.053556	0.379597	-0.471002
F492	F	1.553556	0.879597	0.028998
H493	H	0.610486	0.511819	-0.680685
H494	H	1.110486	1.011819	-0.180685
F495	F	0.496923	0.545703	-0.396326
F496	F	0.996923	1.045703	0.103674
F497	F	0.587789	0.518584	-0.759711
F498	F	1.087789	1.018584	-0.259711
H499	H	1.030859	0.386393	-0.682772
H500	H	1.530859	0.886393	-0.182772
H501	H	0.519662	0.538917	-0.530319
H502	H	1.019662	1.038917	-0.030319
H503	H	0.519655	0.538916	-0.450057
H504	H	1.019655	1.038916	0.049943
