data_functionalizedCrystal
_audit_creation_method	'MofGen! by Chris Wilmer'
_symmetry_space_group_name_H-M	'P1'
_symmetry_Int_Tables_number	1
_symmetry_cell_setting	triclinic
loop_
_symmetry_equiv_pos_as_xyz
  x,y,z
_cell_length_a	17.639617
_cell_length_b	17.077402
_cell_length_c	17.077396
_cell_angle_alpha	90.029784
_cell_angle_beta	101.241102
_cell_angle_gamma	101.207680
loop_
_atom_site_label
_atom_site_type_symbol
_atom_site_fract_x
_atom_site_fract_y
_atom_site_fract_z
Zn1	Zn	1.208523	-0.070232	0.686896
Zn2	Zn	1.208430	-0.201526	0.555608
Zn3	Zn	1.076329	-0.096761	0.529057
Zn4	Zn	1.076296	-0.227968	0.660257
O5	O	1.142394	-0.149122	0.607955
O6	O	1.319133	-0.065480	0.691741
O7	O	1.190880	-0.187665	0.442234
O8	O	1.093917	0.016616	0.550031
O9	O	1.319064	-0.161941	0.595284
O10	O	1.191040	0.036106	0.665995
O11	O	1.093826	-0.110694	0.422727
O12	O	0.965702	-0.136334	0.524200
O13	O	1.093862	-0.207008	0.773643
O14	O	0.965679	-0.232731	0.620593
O15	O	1.191009	-0.091120	0.793215
O16	O	1.190849	-0.314891	0.569454
O17	O	1.093771	-0.334318	0.646339
C18	C	1.142318	-0.353085	0.607908
C19	C	1.142358	-0.440327	0.607929
C20	C	0.937007	-0.190281	0.566625
C21	C	0.849142	-0.207908	0.548963
C22	C	1.192958	-0.471165	0.567959
C23	C	1.192996	-0.553138	0.567987
C24	C	1.142431	-0.604272	0.607980
C25	C	1.091828	-0.573428	0.647955
C26	C	1.091794	-0.491456	0.647931
C27	C	1.091902	-0.744283	0.647999
C28	C	1.091934	-0.826261	0.648022
C29	C	1.193104	-0.805965	0.568055
C30	C	1.193070	-0.723993	0.568031
C31	C	1.142466	-0.693155	0.608005
C32	C	0.560314	-0.015194	0.742328
C33	C	0.477751	-0.031777	0.725715
C34	C	0.477701	-0.132055	0.625131
C35	C	0.560266	-0.115483	0.641737
C36	C	0.601565	-0.057051	0.700336
C37	C	0.601517	-0.157340	0.599745
C38	C	0.684075	-0.140766	0.616348
C39	C	0.725381	-0.082336	0.674943
C40	C	0.684123	-0.040477	0.716939
C41	C	0.560216	-0.215768	0.541143
C42	C	0.601468	-0.257625	0.499151
C43	C	0.684027	-0.241056	0.515758
C44	C	0.725333	-0.182625	0.574352
C45	C	0.725285	-0.282914	0.473761
C46	C	0.807842	-0.266340	0.490364
C47	C	0.807890	-0.166051	0.590955
C48	C	1.348583	-0.107802	0.649446
C49	C	1.436449	-0.090194	0.667127
C50	C	1.142442	-0.149054	0.812709
C51	C	1.142463	-0.149026	0.899963
C52	C	1.142493	0.055642	0.608023
C53	C	1.142534	0.142900	0.608052
C54	C	1.142392	-0.149123	0.404006
C55	C	1.142525	-0.148900	0.316784
C56	C	1.193049	-0.088678	0.951145
C57	C	1.193058	-0.088650	1.033128
C58	C	1.142485	-0.148973	1.063927
C59	C	1.091894	-0.209324	1.012737
C60	C	1.091881	-0.209348	0.930755
C61	C	1.091925	-0.209270	1.183614
C62	C	1.091939	-0.209247	1.265601
C63	C	1.193103	-0.088573	1.285986
C64	C	1.193090	-0.088597	1.204004
C65	C	1.142499	-0.148948	1.152820
H66	H	1.234131	-0.429537	0.535388
H67	H	0.691646	-0.330484	0.426045
Br68	Br	1.261750	-0.006776	1.102595
H69	H	1.050713	-0.258438	1.037819
H70	H	1.050756	-0.258366	1.290674
H71	H	1.050680	-0.258483	0.889081
H72	H	0.444166	0.002317	0.759911
Br73	Br	1.023297	-0.895660	0.702285
Br74	Br	0.863948	-0.086758	0.670491
H75	H	1.234240	-0.682360	0.535461
H76	H	0.444063	-0.179628	0.577417
Br77	Br	0.740181	0.038816	0.796476
H78	H	0.492992	-0.229243	0.527610
Br79	Br	1.023228	-0.702432	0.702254
H80	H	1.234199	-0.578242	0.535439
Br81	Br	0.545411	-0.336919	0.419623
Br82	Br	0.616371	0.064099	0.821865
H83	H	1.050660	-0.615067	0.680522
H84	H	1.050717	-0.258405	1.141939
Br85	Br	1.023125	-0.449602	0.702184
H86	H	0.841430	-0.300425	0.456170
H87	H	1.234234	-0.039558	0.926076
Br88	Br	1.261769	-0.847817	0.513792
H89	H	1.234275	-0.039480	1.178932
H90	H	0.792604	-0.068840	0.688457
Br91	Br	1.261765	-0.006669	1.355449
