data_functionalizedCrystal
_audit_creation_method	'MofGen! by Chris Wilmer'
_symmetry_space_group_name_H-M	'P1'
_symmetry_Int_Tables_number	1
_symmetry_cell_setting	triclinic
loop_
_symmetry_equiv_pos_as_xyz
  x,y,z
_cell_length_a	14.044191
_cell_length_b	15.995350
_cell_length_c	13.101039
_cell_angle_alpha	93.364563
_cell_angle_beta	86.337551
_cell_angle_gamma	88.342076
loop_
_atom_site_label
_atom_site_type_symbol
_atom_site_fract_x
_atom_site_fract_y
_atom_site_fract_z
O1	O	1.262919	0.197662	-0.085155
O2	O	0.986951	0.190371	-0.085169
O3	O	1.132479	0.072693	-0.085161
O4	O	1.117391	0.315341	-0.085163
O5	O	1.122037	0.081151	0.085269
O6	O	0.976509	0.198830	0.085261
O7	O	1.252478	0.206121	0.085274
Zn8	Zn	1.112836	0.203818	0.112327
Zn9	Zn	1.126593	0.192674	-0.112221
O10	O	1.106950	0.323799	0.085266
C11	C	0.946415	0.191411	0.000044
C12	C	0.841190	0.181897	0.000039
C13	C	0.590903	0.231976	0.000049
C14	C	0.648532	0.164519	0.000048
C15	C	0.755736	0.174191	0.000043
C16	C	0.483688	0.222306	0.000054
C17	C	1.126634	0.045681	0.000052
C18	C	1.124765	-0.047410	0.000046
C19	C	1.118049	-0.385659	0.000049
C20	C	1.014430	-0.345987	-0.000338
C21	C	1.016277	-0.249138	0.000046
C22	C	1.121380	-0.217850	0.000047
C23	C	1.166538	-0.250277	0.097371
C24	C	1.163929	-0.347104	0.097453
C25	C	1.177944	-0.356921	-0.096357
C26	C	1.177998	-0.260041	-0.097643
C27	C	1.123268	-0.123011	0.000049
C28	C	1.116164	-0.480497	0.000054
C29	C	1.293013	0.205081	0.000059
C30	C	1.398239	0.214594	0.000057
C31	C	1.112794	0.350811	0.000051
C32	C	1.114664	0.443901	0.000050
N33	N	1.103454	0.211424	0.265575
N34	N	1.135982	0.185062	-0.265469
C35	C	1.090689	0.221780	0.474617
C36	C	1.148744	0.174709	0.525495
C37	C	1.141641	0.180471	0.641814
C38	C	1.097790	0.216019	0.358288
H39	H	0.980367	-0.227181	-0.069720
H40	H	1.035658	0.266404	0.518411
H41	H	0.617361	0.099499	-0.000024
O42	O	0.965219	-0.379233	-0.092782
H43	H	0.945854	-0.326424	-0.139570
O44	O	1.221646	0.115595	0.467484
H45	H	1.294336	0.132709	0.488005
O46	O	0.632187	0.318095	0.000035
H47	H	0.711133	0.312271	0.000021
H48	H	0.971541	-0.220828	0.069927
O49	O	0.954163	-0.371442	0.091596
H50	H	0.997689	-0.412224	0.137565
H51	H	1.239752	-0.373448	0.101869
O52	O	1.108639	-0.370264	0.193809
H53	H	1.084009	-0.312337	0.239907
H54	H	1.243533	-0.230203	0.100991
H55	H	1.126595	-0.220954	0.169796
H56	H	1.148578	-0.383653	-0.170123
H57	H	1.145034	-0.239158	-0.169641
H58	H	1.255004	-0.239244	-0.103519
H59	H	1.254399	-0.383005	-0.097011
