data_functionalizedCrystal
_audit_creation_method	'MofGen! by Chris Wilmer'
_symmetry_space_group_name_H-M	'P1'
_symmetry_Int_Tables_number	1
_symmetry_cell_setting	triclinic
loop_
_symmetry_equiv_pos_as_xyz
  x,y,z
_cell_length_a	17.639054
_cell_length_b	17.637651
_cell_length_c	18.215399
_cell_angle_alpha	78.756317
_cell_angle_beta	78.754125
_cell_angle_gamma	109.615240
loop_
_atom_site_label
_atom_site_type_symbol
_atom_site_fract_x
_atom_site_fract_y
_atom_site_fract_z
Zn1	Zn	1.193708	-0.073687	-0.627388
Zn2	Zn	1.165760	-0.211550	-0.473076
Zn3	Zn	1.055876	-0.101548	-0.473089
Zn4	Zn	1.028008	-0.239326	-0.564885
O5	O	1.110838	-0.156528	-0.534609
O6	O	1.305333	-0.068690	-0.633071
O7	O	1.151151	-0.196994	-0.370080
O8	O	1.097519	0.017504	-0.519720
O9	O	1.284801	-0.169978	-0.519698
O10	O	1.198783	0.037974	-0.633083
O11	O	1.070419	-0.116176	-0.370090
O12	O	0.936846	-0.143109	-0.459113
O13	O	1.050021	-0.217318	-0.676173
O14	O	0.916372	-0.244334	-0.526555
O15	O	1.171760	-0.095623	-0.722094
O16	O	1.124128	-0.330592	-0.459091
O17	O	1.022922	-0.350998	-0.526543
C18	C	0.896704	-0.199760	-0.486053
C19	C	0.805093	-0.218274	-0.465294
C20	C	0.665297	-0.297019	-0.376959
C21	C	0.751381	-0.279615	-0.396472
C22	C	0.772735	-0.174315	-0.514632
C23	C	0.686650	-0.191713	-0.495130
C24	C	0.632938	-0.253065	-0.426292
C25	C	0.654291	-0.147759	-0.544464
C26	C	0.568215	-0.165152	-0.524961
C27	C	0.514497	-0.226500	-0.456125
C28	C	0.546861	-0.270458	-0.406790
C29	C	0.708006	-0.086403	-0.613298
C30	C	0.675647	-0.042450	-0.662632
C31	C	0.589568	-0.059847	-0.643132
C32	C	0.535851	-0.121194	-0.574297
C33	C	0.557204	-0.015888	-0.692468
C34	C	0.471127	-0.033282	-0.672966
C35	C	0.449774	-0.138588	-0.554794
C36	C	1.067491	-0.370701	-0.486054
C37	C	1.049022	-0.462310	-0.465324
C38	C	1.251679	-0.710062	-0.692449
C39	C	1.234299	-0.796148	-0.672950
C40	C	1.128922	-0.817556	-0.554830
C41	C	1.146297	-0.731470	-0.574317
C42	C	1.207675	-0.677729	-0.643127
C43	C	1.102293	-0.699137	-0.524995
C44	C	1.119663	-0.613059	-0.544482
C45	C	1.181037	-0.559313	-0.613291
C46	C	1.225046	-0.591651	-0.662614
C47	C	1.040911	-0.752880	-0.456188
C48	C	0.996907	-0.720547	-0.406866
C49	C	1.014281	-0.634466	-0.426350
C50	C	1.075655	-0.580721	-0.495159
C51	C	0.970273	-0.602129	-0.377027
C52	C	0.987643	-0.516051	-0.396514
C53	C	1.093025	-0.494643	-0.514646
C54	C	1.325808	-0.113128	-0.583355
C55	C	1.417415	-0.094634	-0.604128
C56	C	1.110900	-0.156461	-0.726587
C57	C	1.110926	-0.156432	-0.808396
C58	C	1.154377	0.058486	-0.583375
C59	C	1.172931	0.150112	-0.604156
C60	C	1.174344	-0.093013	-1.020518
C61	C	1.174359	-0.092987	-1.097384
C62	C	1.047592	-0.219713	-1.049554
C63	C	1.047574	-0.219734	-0.972689
C64	C	1.110955	-0.156385	-0.958174
C65	C	1.110987	-0.156337	-1.111905
C66	C	1.111003	-0.156309	-1.195247
C67	C	1.110939	-0.156412	-0.874827
C68	C	1.110836	-0.156526	-0.343403
C69	C	1.111016	-0.156290	-0.261683
H70	H	0.444411	-0.240648	-0.440240
H71	H	1.225976	-0.041382	-1.148143
H72	H	0.951810	-0.489726	-0.356351
H73	H	0.995991	-0.271291	-1.061383
H74	H	0.920293	-0.645898	-0.321005
H75	H	1.225951	-0.041428	-1.008703
H76	H	1.270125	-0.822470	-0.713127
N77	N	0.979207	-0.288085	-0.905432
H78	H	0.947796	-0.262296	-0.872482
H79	H	0.939113	-0.328200	-0.926342
N80	N	0.607365	-0.363192	-0.302709
H81	H	0.578423	-0.336861	-0.268166
H82	H	0.563978	-0.408630	-0.315866
H83	H	1.026762	-0.822971	-0.440329
N84	N	0.391836	-0.204755	-0.480543
H85	H	0.332398	-0.209098	-0.475676
H86	H	0.394967	-0.260605	-0.481966
N87	N	0.488917	-0.336640	-0.332550
H88	H	0.522475	-0.361853	-0.304256
H89	H	0.459982	-0.310259	-0.298063
N90	N	1.062730	-0.875523	-0.480614
H91	H	1.078591	-0.857972	-0.434342
H92	H	1.006876	-0.872446	-0.482094
H93	H	0.777723	-0.315412	-0.356294
H94	H	0.946931	-0.764314	-0.350842
N95	N	0.830665	-0.108162	-0.588886
H96	H	0.890104	-0.103817	-0.593760
H97	H	0.813022	-0.124130	-0.635083
N98	N	0.733577	0.023712	-0.736881
H99	H	0.716008	0.007797	-0.783128
H100	H	0.730485	0.079573	-0.735435
N101	N	0.615138	0.050271	-0.766717
H102	H	0.674576	0.054618	-0.771587
H103	H	0.597501	0.034311	-0.812920
N104	N	0.436224	0.014127	-0.726175
H105	H	0.448623	0.004277	-0.779217
H106	H	0.373554	-0.006223	-0.703308
N107	N	0.800836	-0.067691	-0.634366
H108	H	0.829950	-0.022167	-0.685466
H109	H	0.824601	-0.048328	-0.592022
N110	N	1.317882	-0.652099	-0.766668
H111	H	1.291570	-0.623156	-0.801232
H112	H	1.363284	-0.608710	-0.753477
N113	N	1.159230	-0.436663	-0.588858
H114	H	1.215111	-0.439712	-0.587442
H115	H	1.143310	-0.454234	-0.635099
N116	N	1.199775	-0.466471	-0.634299
H117	H	1.260514	-0.434294	-0.638335
H118	H	1.188735	-0.448844	-0.686016
H119	H	1.275033	-0.547891	-0.718643
