data_functionalizedCrystal
_audit_creation_method	'MofGen! by Chris Wilmer'
_symmetry_space_group_name_H-M	'P1'
_symmetry_Int_Tables_number	1
_symmetry_cell_setting	triclinic
loop_
_symmetry_equiv_pos_as_xyz
  x,y,z
_cell_length_a	14.971486
_cell_length_b	9.065218
_cell_length_c	14.048226
_cell_angle_alpha	89.995444
_cell_angle_beta	89.998499
_cell_angle_gamma	84.315007
loop_
_atom_site_label
_atom_site_type_symbol
_atom_site_fract_x
_atom_site_fract_y
_atom_site_fract_z
O1	O	1.188380	0.192261	-0.079047
O2	O	0.928151	0.215285	-0.079073
O3	O	1.063645	-0.010979	-0.079057
O4	O	1.052887	0.418524	-0.079062
O5	O	1.063628	-0.010992	0.079264
O6	O	0.928135	0.215271	0.079249
O7	O	1.188363	0.192248	0.079274
Zn8	Zn	1.058246	0.203758	0.104398
Zn9	Zn	1.058268	0.203775	-0.104197
O10	O	1.052870	0.418511	0.079259
C11	C	0.894811	0.214248	0.000085
C12	C	0.795491	0.211163	0.000075
C13	C	0.739256	0.344086	0.000075
C14	C	0.645935	0.341178	0.000089
C15	C	0.608850	0.205345	0.000097
C16	C	0.665092	0.072412	0.000100
C17	C	0.758411	0.075321	0.000092
C18	C	0.470584	0.066357	0.000113
C19	C	0.377259	0.063446	0.000118
C20	C	0.358108	0.332214	0.000110
C21	C	0.451427	0.335123	0.000102
C22	C	0.507663	0.202189	0.000103
C23	C	1.062602	-0.065951	0.000102
C24	C	1.059511	-0.229731	0.000097
C25	C	1.221704	0.193284	0.000115
C26	C	1.321024	0.196370	0.000118
C27	C	1.053912	0.473483	0.000098
C28	C	1.057004	0.637264	0.000097
N29	N	1.058238	0.203745	0.246759
N30	N	1.058284	0.203776	-0.246557
C31	C	1.118254	0.103597	0.296584
C32	C	1.118260	0.103596	0.396242
C33	C	1.058254	0.203751	0.446073
C34	C	0.998231	0.303904	0.396241
C35	C	0.998222	0.303896	0.296585
C36	C	0.998257	0.303915	0.603955
C37	C	0.998268	0.303924	0.703618
C38	C	1.118295	0.103614	0.703612
C39	C	1.118286	0.103607	0.603956
C40	C	1.058264	0.203762	0.554131
H41	H	0.634890	-0.038186	0.000119
H42	H	0.600152	0.449418	0.000088
H43	H	0.481618	0.445730	0.000087
H44	H	0.949369	0.385447	0.436819
H45	H	0.516370	-0.041893	0.000115
H46	H	0.312316	0.440454	0.000113
H47	H	0.949379	0.385467	0.563391
H48	H	0.804197	-0.032919	0.000092
H49	H	0.347068	-0.047161	0.000126
H50	H	1.167166	0.022064	0.744185
C51	C	1.184263	-0.006579	0.241775
C52	C	1.250275	-0.116745	0.296587
C53	C	1.316284	-0.226928	0.241781
C54	C	1.316281	-0.226944	0.132164
C55	C	1.250266	-0.116773	0.077346
C56	C	1.184258	-0.006591	0.132151
H57	H	1.250279	-0.116737	0.377738
H58	H	1.365152	-0.308483	0.282362
H59	H	1.365144	-0.308508	0.091594
H60	H	1.250262	-0.116781	-0.003805
H61	H	1.135389	0.074965	0.091571
C62	C	1.184292	-0.006560	0.549136
C63	C	1.181439	-0.174569	0.562844
C64	C	1.247443	-0.284739	0.508023
C65	C	1.316300	-0.226900	0.439495
C66	C	1.319155	-0.058883	0.425785
C67	C	1.253151	0.051287	0.480605
H68	H	1.130464	-0.217393	0.613575
H69	H	1.245329	-0.409117	0.518172
H70	H	1.365160	-0.308455	0.398913
H71	H	1.370130	-0.016059	0.375053
H72	H	1.255265	0.175665	0.470456
C73	C	0.932254	0.414088	0.758429
C74	C	0.866227	0.524236	0.703621
C75	C	0.800211	0.634401	0.758430
C76	C	0.800221	0.634419	0.868048
C77	C	0.866250	0.524268	0.922862
C78	C	0.932266	0.414102	0.868053
H79	H	0.866218	0.524226	0.622470
H80	H	0.751332	0.715943	0.717852
H81	H	0.751352	0.715971	0.908621
H82	H	0.866260	0.524277	1.004013
H83	H	0.981145	0.332561	0.908631
H84	H	0.949350	0.385445	0.256019
H85	H	0.769442	0.454697	0.000068
H86	H	1.167128	0.022047	0.436808
