data_functionalizedCrystal
_audit_creation_method	'MofGen! by Chris Wilmer'
_symmetry_space_group_name_H-M	'P1'
_symmetry_Int_Tables_number	1
_symmetry_cell_setting	triclinic
loop_
_symmetry_equiv_pos_as_xyz
  x,y,z
_cell_length_a	16.109302
_cell_length_b	15.944493
_cell_length_c	14.586319
_cell_angle_alpha	90.002083
_cell_angle_beta	89.994552
_cell_angle_gamma	83.468412
loop_
_atom_site_label
_atom_site_type_symbol
_atom_site_fract_x
_atom_site_fract_y
_atom_site_fract_z
O1	O	1.103143	0.107972	-0.076269
O2	O	1.603143	0.607972	0.423731
O3	O	0.861083	0.121408	-0.076261
O4	O	1.361083	0.621408	0.423739
O5	O	0.988748	-0.007590	-0.076273
O6	O	1.488748	0.492410	0.423727
O7	O	0.975478	0.236970	-0.076257
O8	O	1.475478	0.736970	0.423743
O9	O	0.988739	-0.007592	0.076208
O10	O	1.488739	0.492408	0.576208
O11	O	0.861074	0.121406	0.076220
O12	O	1.361074	0.621406	0.576220
O13	O	1.103134	0.107970	0.076211
O14	O	1.603134	0.607970	0.576211
Cu15	Cu	0.982103	0.114688	0.090138
Cu16	Cu	1.482103	0.614688	0.590138
Cu17	Cu	0.982114	0.114690	-0.090188
Cu18	Cu	1.482114	0.614690	0.409812
O19	O	0.975469	0.236969	0.076224
O20	O	1.475469	0.736969	0.576224
C21	C	0.830103	0.120863	-0.000019
C22	C	1.330103	0.620863	0.499981
C23	C	0.737808	0.119231	-0.000017
C24	C	1.237808	0.619231	0.499983
C25	C	0.525462	0.115456	0.083091
C26	C	1.025462	0.615456	0.583091
C27	C	0.438742	0.113914	0.083088
C28	C	0.938742	0.613914	0.583088
C29	C	0.438762	0.113920	-0.083155
C30	C	0.938762	0.613920	0.416845
C31	C	0.525481	0.115456	-0.083151
C32	C	1.025481	0.615456	0.416849
C33	C	0.568828	0.116229	-0.000025
C34	C	1.068828	0.616229	0.499975
C35	C	0.395389	0.113150	-0.000032
C36	C	0.895389	0.613150	0.499968
C37	C	0.301363	0.111477	-0.000037
C38	C	0.801363	0.611477	0.499963
C39	C	0.662861	0.117900	-0.000020
C40	C	1.162861	0.617900	0.499980
C41	C	0.988201	-0.038886	-0.000036
C42	C	1.488201	0.461114	0.499964
C43	C	0.986575	-0.132134	-0.000048
C44	C	1.486575	0.367866	0.499952
C45	C	1.061722	-0.367918	-0.000033
C46	C	1.561722	0.132082	0.499967
C47	C	1.021203	-0.418472	-0.075212
C48	C	1.521203	0.081528	0.424788
C49	C	0.983562	-0.302854	-0.000037
C50	C	1.483562	0.197146	0.499963
C51	C	1.021176	-0.418450	0.075122
C52	C	1.521176	0.081550	0.575122
C53	C	0.980658	-0.467763	-0.000022
C54	C	1.480658	0.032237	0.499978
C55	C	0.943064	-0.352179	-0.075278
C56	C	1.443064	0.147821	0.424722
C57	C	0.943048	-0.352154	0.075124
C58	C	1.443048	0.147846	0.575124
C59	C	0.902472	-0.402675	-0.000074
C60	C	1.402472	0.097325	0.499926
C61	C	0.985238	-0.207855	-0.000046
C62	C	1.485238	0.292145	0.499954
C63	C	0.978976	-0.562759	-0.000019
C64	C	1.478976	-0.062759	0.499981
C65	C	1.134114	0.108516	-0.000032
C66	C	1.634114	0.608516	0.499968
C67	C	1.226409	0.110148	-0.000041
C68	C	1.726409	0.610148	0.499959
C69	C	0.976016	0.268264	-0.000015
C70	C	1.476016	0.768264	0.499985
C71	C	0.977642	0.361512	-0.000009
C72	C	1.477642	0.861512	0.499991
N73	N	0.982102	0.114686	0.216970
N74	N	1.482102	0.614686	0.716970
N75	N	0.982122	0.114686	-0.217019
N76	N	1.482122	0.614686	0.282981
C77	C	1.038651	0.057585	0.451971
C78	C	1.538651	0.557585	0.951971
C79	C	1.038653	0.057583	0.547952
C80	C	1.538653	0.557583	1.047952
C81	C	0.925567	0.171790	0.547973
C82	C	1.425567	0.671790	1.047973
C83	C	0.925561	0.171787	0.451993
C84	C	1.425561	0.671787	0.951993
C85	C	0.982108	0.114686	0.403995
C86	C	1.482108	0.614686	0.903995
C87	C	0.982116	0.114686	0.595956
C88	C	1.482116	0.614686	1.095956
C89	C	0.982118	0.114684	0.700023
C90	C	1.482118	0.614684	1.200023
C91	C	0.982105	0.114686	0.299921
C92	C	1.482105	0.614686	0.799921
H93	H	0.403436	0.113285	0.150769
H94	H	0.903436	0.613285	0.650769
H95	H	0.879513	0.218286	0.412928
H96	H	1.379513	0.718286	0.912928
O97	O	0.813218	-0.423117	-0.000099
O98	O	1.313218	0.076883	0.499901
H99	H	0.780978	-0.396318	-0.062558
H100	H	1.280978	0.103682	0.437442
H101	H	0.879529	0.218282	0.587063
H102	H	1.379529	0.718282	1.087063
O103	O	0.392008	0.113099	-0.172811
O104	O	0.892008	0.613099	0.327189
H105	H	0.324419	0.111911	-0.158852
H106	H	0.824419	0.611911	0.341148
H107	H	1.054196	-0.447393	0.138676
H108	H	1.554196	0.052607	0.638676
O109	O	1.099614	-0.004021	0.400194
O110	O	1.599614	0.495979	0.900194
H111	H	1.140022	0.031333	0.356454
H112	H	1.640022	0.531333	0.856454
H113	H	0.910065	-0.323183	0.138688
H114	H	1.410065	0.176817	0.638688
O115	O	0.572265	0.116293	-0.172801
O116	O	1.072265	0.616293	0.327199
H117	H	0.527554	0.115511	-0.230604
H118	H	1.027554	0.615511	0.269396
H119	H	1.084695	0.011085	0.587012
H120	H	1.584695	0.511085	1.087012
H121	H	1.129047	-0.352312	-0.000111
H122	H	1.629047	0.147688	0.499889
H123	H	0.910078	-0.323348	-0.138904
H124	H	1.410078	0.176652	0.361096
O125	O	0.572219	0.116291	0.172743
O126	O	1.072219	0.616291	0.672743
H127	H	0.527491	0.115490	0.230538
H128	H	1.027491	0.615490	0.730538
O129	O	1.064926	-0.456848	-0.159399
O130	O	1.564926	0.043152	0.340601
H131	H	1.130983	-0.443241	-0.159247
H132	H	1.630983	0.056759	0.340753
