data_functionalizedCrystal
_audit_creation_method	'MofGen! by Chris Wilmer'
_symmetry_space_group_name_H-M	'P1'
_symmetry_Int_Tables_number	1
_symmetry_cell_setting	triclinic
loop_
_symmetry_equiv_pos_as_xyz
  x,y,z
_cell_length_a	11.792241
_cell_length_b	10.489741
_cell_length_c	10.868271
_cell_angle_alpha	89.995151
_cell_angle_beta	89.999893
_cell_angle_gamma	84.366295
loop_
_atom_site_label
_atom_site_type_symbol
_atom_site_fract_x
_atom_site_fract_y
_atom_site_fract_z
O1	O	1.507380	0.174832	-0.102202
O2	O	1.757380	0.424832	0.147798
O3	O	2.007380	0.674832	0.397798
O4	O	2.257380	0.924832	0.647798
O5	O	1.177088	0.192851	-0.102231
O6	O	1.427088	0.442851	0.147769
O7	O	1.677088	0.692851	0.397769
O8	O	1.927088	0.942851	0.647769
O9	O	1.349749	-0.001782	-0.102208
O10	O	1.599749	0.248218	0.147792
O11	O	1.849749	0.498218	0.397792
O12	O	2.099749	0.748218	0.647792
O13	O	1.334718	0.369465	-0.102224
O14	O	1.584718	0.619465	0.147776
O15	O	1.834718	0.869465	0.397776
O16	O	2.084718	1.119465	0.647776
O17	O	1.349735	-0.001790	0.102436
O18	O	1.599735	0.248210	0.352436
O19	O	1.849735	0.498210	0.602436
O20	O	2.099735	0.748210	0.852436
O21	O	1.177073	0.192843	0.102414
O22	O	1.427073	0.442843	0.352414
O23	O	1.677073	0.692843	0.602414
O24	O	1.927073	0.942843	0.852414
O25	O	1.507366	0.174825	0.102443
O26	O	1.757366	0.424825	0.352443
O27	O	2.007366	0.674825	0.602443
O28	O	2.257366	0.924825	0.852443
Zn29	Zn	1.342217	0.183833	0.134920
Zn30	Zn	1.592217	0.433833	0.384920
Zn31	Zn	1.842217	0.683833	0.634920
Zn32	Zn	2.092217	0.933833	0.884920
Zn33	Zn	1.342236	0.183843	-0.134708
Zn34	Zn	1.592236	0.433843	0.115292
Zn35	Zn	1.842236	0.683843	0.365292
Zn36	Zn	2.092236	0.933843	0.615292
O37	O	1.334704	0.369457	0.102420
O38	O	1.584704	0.619457	0.352420
O39	O	1.834704	0.869457	0.602420
O40	O	2.084704	1.119457	0.852420
C41	C	1.134786	0.191715	0.000088
C42	C	1.384786	0.441715	0.250088
C43	C	1.634786	0.691715	0.500088
C44	C	1.884786	0.941715	0.750088
C45	C	1.008764	0.188327	0.000077
C46	C	1.258764	0.438327	0.250077
C47	C	1.508764	0.688327	0.500077
C48	C	1.758764	0.938327	0.750077
C49	C	0.778035	0.182098	0.000113
C50	C	1.028035	0.432098	0.250113
C51	C	1.278035	0.682098	0.500113
C52	C	1.528035	0.932098	0.750113
C53	C	0.906429	0.185559	0.000093
C54	C	1.156429	0.435559	0.250093
C55	C	1.406429	0.685559	0.500093
C56	C	1.656429	0.935559	0.750093
C57	C	1.348607	-0.049314	0.000113
C58	C	1.598607	0.200686	0.250113
C59	C	1.848607	0.450686	0.500113
C60	C	2.098607	0.700686	0.750113
C61	C	1.345210	-0.190931	0.000111
C62	C	1.595210	0.059069	0.250111
C63	C	1.845210	0.309069	0.500111
C64	C	2.095210	0.559069	0.750111
C65	C	1.235351	-0.258697	0.000092
C66	C	1.485351	-0.008697	0.250092
C67	C	1.735351	0.241303	0.500092
C68	C	1.985351	0.491303	0.750092
C69	C	1.287240	-0.351000	0.100997
C70	C	1.537240	-0.101000	0.350997
C71	C	1.787240	0.149000	0.600997
C72	C	2.037240	0.399000	0.850997
C73	C	1.287281	-0.350967	-0.100767
C74	C	1.537281	-0.100967	0.149233
C75	C	1.787281	0.149033	0.399233
C76	C	2.037281	0.399033	0.649233
C77	C	1.397145	-0.281369	0.101099
C78	C	1.647145	-0.031369	0.351099
C79	C	1.897145	0.218631	0.601099
C80	C	2.147145	0.468631	0.851099
C81	C	1.397170	-0.281327	-0.100755
C82	C	1.647170	-0.031327	0.149245
C83	C	1.897170	0.218673	0.399245
C84	C	2.147170	0.468673	0.649245
C85	C	1.449140	-0.373603	0.000174
C86	C	1.699140	-0.123603	0.250174
C87	C	1.949140	0.126397	0.500174
C88	C	2.199140	0.376397	0.750174
C89	C	1.549667	0.175960	0.000121
C90	C	1.799667	0.425960	0.250121
C91	C	2.049667	0.675960	0.500121
C92	C	2.299667	0.925960	0.750121
C93	C	1.675690	0.179348	0.000124
C94	C	1.925690	0.429348	0.250124
C95	C	2.175690	0.679348	0.500124
C96	C	2.425690	0.929348	0.750124
C97	C	1.335846	0.416989	0.000096
C98	C	1.585846	0.666989	0.250096
C99	C	1.835846	0.916989	0.500096
C100	C	2.085846	1.166989	0.750096
C101	C	1.339243	0.558607	0.000091
C102	C	1.589243	0.808607	0.250091
C103	C	1.839243	1.058607	0.500091
C104	C	2.089243	1.308607	0.750091
N105	N	1.342213	0.183825	0.318934
N106	N	1.592213	0.433825	0.568934
N107	N	1.842213	0.683825	0.818934
N108	N	2.092213	0.933825	1.068934
N109	N	1.342250	0.183840	-0.318722
N110	N	1.592250	0.433840	-0.068722
N111	N	1.842250	0.683840	0.181278
N112	N	2.092250	0.933840	0.431278
C113	C	1.342230	0.183840	0.569940
C114	C	1.592230	0.433840	0.819940
C115	C	1.842230	0.683840	1.069940
C116	C	2.092230	0.933840	1.319940
C117	C	1.342217	0.183835	0.430263
C118	C	1.592217	0.433835	0.680263
C119	C	1.842217	0.683835	0.930263
C120	C	2.092217	0.933835	1.180263
H121	H	1.145025	-0.208738	0.000186
H122	H	1.395025	0.041262	0.250186
H123	H	1.645025	0.291262	0.500186
H124	H	1.895025	0.541262	0.750186
F125	F	1.457886	-0.240949	-0.212255
F126	F	1.707886	0.009051	0.037745
F127	F	1.957886	0.259051	0.287745
F128	F	2.207886	0.509051	0.537745
F129	F	1.226505	-0.391256	-0.212264
F130	F	1.476505	-0.141256	0.037736
F131	F	1.726505	0.108744	0.287736
F132	F	1.976505	0.358744	0.537736
H133	H	1.539547	-0.423335	0.000238
H134	H	1.789547	-0.173335	0.250238
H135	H	2.039547	0.076665	0.500238
H136	H	2.289547	0.326665	0.750238
H137	H	1.240750	-0.381857	0.186297
H138	H	1.490750	-0.131857	0.436297
H139	H	1.740750	0.118143	0.686297
H140	H	1.990750	0.368143	0.936297
F141	F	1.457847	-0.241286	0.212726
F142	F	1.707847	0.008714	0.462726
F143	F	1.957847	0.258714	0.712726
F144	F	2.207847	0.508714	0.962726
