data_functionalizedCrystal
_audit_creation_method	'MofGen! by Chris Wilmer'
_symmetry_space_group_name_H-M	'P1'
_symmetry_Int_Tables_number	1
_symmetry_cell_setting	triclinic
loop_
_symmetry_equiv_pos_as_xyz
  x,y,z
_cell_length_a	14.809374
_cell_length_b	14.560438
_cell_length_c	14.809374
_cell_angle_alpha	90.001286
_cell_angle_beta	60.797835
_cell_angle_gamma	67.427478
loop_
_atom_site_label
_atom_site_type_symbol
_atom_site_fract_x
_atom_site_fract_y
_atom_site_fract_z
Zr1	Zr	0.955221	1.014447	-0.203661
O2	O	1.113140	0.901944	-0.350821
O3	O	0.777455	1.033008	-0.145584
O4	O	0.926603	1.070576	-0.332123
O5	O	0.993487	0.852859	-0.031884
O6	O	0.926606	1.221715	-0.332121
O7	O	0.963991	0.864376	-0.164282
O8	O	0.659807	1.154512	0.001564
O9	O	1.260286	0.920062	-0.365569
O10	O	0.857926	1.172960	-0.136476
O11	O	0.879936	1.051573	-0.037671
O12	O	1.055539	1.095804	-0.257297
O13	O	1.077549	0.974417	-0.158491
Zr14	Zr	1.002268	1.237129	0.007502
Zr15	Zr	0.955226	1.255496	-0.203658
Zr16	Zr	1.002263	0.996080	0.007499
Zr17	Zr	1.189903	1.043344	-0.227182
Zr18	Zr	0.767587	1.208232	0.031022
O19	O	1.180034	1.218568	-0.050576
O20	O	1.113147	1.244683	-0.350817
O21	O	1.180027	0.875828	-0.050580
O22	O	0.844349	1.349632	0.154662
O23	O	0.777462	1.375748	-0.145579
O24	O	0.844342	1.006893	0.154658
O25	O	0.964002	1.398716	-0.164275
O26	O	1.030886	1.181000	0.135964
O27	O	1.030883	1.029861	0.135962
O28	O	0.993498	1.387200	-0.031877
O29	O	1.260290	1.111663	-0.365567
O30	O	0.697199	1.139913	0.169407
O31	O	0.697203	1.331514	0.169410
O32	O	0.659811	1.346113	0.001566
O33	O	1.297678	0.905463	-0.197725
O34	O	1.297682	1.097064	-0.197723
O35	O	0.901950	1.155771	0.061138
O36	O	0.879940	1.277159	-0.037668
O37	O	1.077553	1.200003	-0.158488
O38	O	1.099563	1.078616	-0.059683
C39	C	0.685194	1.089643	-0.068659
C40	C	0.585566	1.077376	-0.058673
C41	C	0.530230	1.132123	-0.103236
C42	C	0.427258	1.119445	-0.092917
C43	C	0.978739	0.824273	-0.098083
C44	C	0.978737	0.721942	-0.098085
C45	C	0.875587	0.714138	-0.035018
C46	C	0.875595	0.617983	-0.035010
C47	C	1.081911	0.537441	-0.161144
C48	C	1.081903	0.633594	-0.161145
C49	C	0.772420	0.802486	0.028043
C50	C	0.669262	0.794686	0.091114
C51	C	0.669270	0.698531	0.091122
C52	C	0.772436	0.610176	0.028059
C53	C	1.272295	1.161933	-0.127500
C54	C	1.371923	1.174200	-0.137486
C55	C	0.919902	1.148762	-0.362208
C56	C	0.899932	1.156560	-0.451850
C57	C	0.978750	1.427303	-0.098076
C58	C	0.978753	1.529634	-0.098075
C59	C	0.989058	1.121761	-0.551751
C60	C	0.968419	1.129819	-0.644403
C61	C	1.037587	1.102814	0.166049
C62	C	1.057557	1.095016	0.255691
C63	C	0.685200	1.391158	-0.068655
C64	C	0.585574	1.481222	-0.058668
C65	C	0.744036	1.066669	0.195470
C66	C	0.664378	1.046604	0.295097
C67	C	0.744042	1.368183	0.195473
C68	C	0.664386	1.450450	0.295103
C69	C	1.213447	0.883393	-0.391632
C70	C	1.293103	0.801126	-0.491262
C71	C	1.272289	0.860418	-0.127504
C72	C	1.371915	0.770354	-0.137491
C73	C	1.213453	1.184907	-0.391629
C74	C	1.293111	1.204972	-0.491257
C75	C	0.527295	1.469127	-0.105565
C76	C	0.433694	1.553746	-0.096202
C77	C	0.398368	1.650457	-0.039937
C78	C	0.456657	1.662551	0.006960
C79	C	0.550261	1.577934	-0.002409
C80	C	0.638463	1.091571	0.393470
C81	C	0.563631	1.072715	0.487087
C82	C	0.514709	1.008897	0.482331
C83	C	0.540631	0.963925	0.383948
C84	C	0.615468	0.982776	0.290332
C85	C	0.615490	1.552456	0.290314
C86	C	0.540656	1.629766	0.383917
C87	C	0.514714	1.605067	0.482308
C88	C	0.563619	1.503051	0.487093
C89	C	0.638457	1.425744	0.393491
C90	C	1.342010	0.699121	-0.486474
C91	C	1.416873	0.621815	-0.580080
C92	C	1.442821	0.646515	-0.678471
C93	C	1.393910	0.748530	-0.683256
C94	C	1.319055	0.825835	-0.589652
C95	C	1.430202	0.782451	-0.090604
C96	C	1.523824	0.697837	-0.099992
C97	C	1.559152	0.601127	-0.156261
C98	C	1.500860	0.589032	-0.203153
C99	C	1.407245	0.673646	-0.193771
C100	C	1.342010	1.268795	-0.486466
C101	C	1.416847	1.287667	-0.580068
C102	C	1.442788	1.242710	-0.678459
C103	C	1.393880	1.178884	-0.683247
C104	C	1.319039	1.160018	-0.589646
H105	H	0.559081	1.188384	-0.149023
H106	H	0.500843	1.712827	0.380001
F107	F	0.435060	1.687355	0.581920
H108	H	1.279232	0.908891	-0.593562
F109	F	1.522490	0.564228	-0.778086
H110	H	1.279232	1.108044	-0.593562
F111	F	1.421534	0.774802	-0.787981
F112	F	1.392624	0.885371	-0.030717
F113	F	0.536055	1.120590	0.591783
H114	H	0.453774	0.993556	0.558568
H115	H	0.636556	0.946159	0.210238
H116	H	1.635381	0.532237	-0.163892
H117	H	0.556052	1.390389	-0.151394
H118	H	0.500788	0.911963	0.380092
F119	F	0.409624	1.247746	-0.197334
H120	H	0.636600	1.572586	0.210208
F121	F	1.468892	1.355593	-0.574950
F122	F	1.108767	1.075029	-0.573894
F123	F	0.535997	1.476779	0.591818
H124	H	0.772402	0.880785	0.028041
H125	H	0.876830	1.165583	-0.627460
F126	F	0.547847	1.003848	0.001187
H127	H	1.320888	0.678989	-0.406367
F128	F	0.389544	1.045913	-0.033053
H129	H	0.678260	1.342686	0.397405
H130	H	1.571272	0.707704	-0.061801
F131	F	0.559485	0.690230	0.158257
H132	H	1.529639	0.510279	-0.248967
F133	F	1.345215	0.660755	-0.243672
H134	H	0.772436	0.531883	0.028077
H135	H	1.320903	1.305408	-0.406360
H136	H	1.456685	0.538755	-0.576163
F137	F	1.522446	1.262796	-0.778071
H138	H	0.585270	0.866628	0.142463
H139	H	1.415013	1.142284	-0.763371
H140	H	1.165903	0.465497	-0.212488
H141	H	1.149148	1.059259	-0.761254
F142	F	1.191687	0.641901	-0.228265
H143	H	0.386245	1.543879	-0.134393
F144	F	0.298742	1.740505	-0.029973
F145	F	0.780223	1.203305	-0.429707
H146	H	0.427881	1.741304	0.052770
H147	H	0.597702	1.587795	0.035787
F148	F	0.690515	1.159499	0.398556
