data_functionalizedCrystal
_audit_creation_method	'MofGen! by Chris Wilmer'
_symmetry_space_group_name_H-M	'P1'
_symmetry_Int_Tables_number	1
_symmetry_cell_setting	triclinic
loop_
_symmetry_equiv_pos_as_xyz
  x,y,z
_cell_length_a	10.654550
_cell_length_b	11.792241
_cell_length_c	9.130313
_cell_angle_alpha	89.995332
_cell_angle_beta	89.999724
_cell_angle_gamma	84.339173
loop_
_atom_site_label
_atom_site_type_symbol
_atom_site_fract_x
_atom_site_fract_y
_atom_site_fract_z
O1	O	1.667388	0.159420	-0.121691
O2	O	1.301867	0.174608	-0.121718
O3	O	1.493498	0.001864	-0.121693
O4	O	1.475758	0.332164	-0.121715
O5	O	1.493485	0.001859	0.121906
O6	O	1.301854	0.174603	0.121881
O7	O	1.667375	0.159415	0.121908
Cu8	Cu	1.484613	0.167009	0.144137
Cu9	Cu	1.484629	0.167015	-0.143947
O10	O	1.475744	0.332159	0.121884
C11	C	1.255066	0.173491	0.000078
C12	C	1.115632	0.170154	0.000068
C13	C	1.035859	0.271863	0.000066
C14	C	0.904847	0.268721	0.000092
C15	C	0.933394	0.062152	0.000116
C16	C	1.064403	0.065295	0.000101
C17	C	1.492377	-0.040432	0.000106
C18	C	1.489042	-0.166453	0.000104
C19	C	1.482908	-0.397180	0.000079
C20	C	1.486316	-0.268787	0.000093
C21	C	1.714177	0.160533	0.000109
C22	C	1.853611	0.163869	0.000109
C23	C	1.476865	0.374455	0.000082
C24	C	1.480201	0.500477	0.000074
N25	N	1.484612	0.167004	0.346760
N26	N	1.484641	0.167011	-0.346569
C27	C	1.569495	0.090545	0.423422
C28	C	1.569507	0.090545	0.576759
C29	C	1.399749	0.243473	0.576757
C30	C	1.399732	0.243466	0.423423
H31	H	0.839900	0.351543	0.000092
C32	C	1.737312	-0.060604	0.561349
C33	C	1.662818	0.006504	0.661027
H34	H	1.794925	-0.112485	0.613375
H35	H	1.684760	-0.101875	0.501561
H36	H	1.782790	-0.012962	0.501527
H37	H	1.617333	-0.041138	0.720842
H38	H	1.715377	0.047778	0.720840
C39	C	1.231936	0.394622	0.561353
C40	C	1.306452	0.327519	0.661029
H41	H	1.174333	0.446504	0.613380
H42	H	1.284475	0.435891	0.501537
H43	H	1.186448	0.346975	0.501559
H44	H	1.351947	0.375165	0.720817
H45	H	1.253906	0.286246	0.720871
C46	C	1.228305	-0.051010	0.125323
C47	C	1.152101	-0.046513	0.000102
H48	H	1.282439	-0.120035	0.125328
H49	H	1.277558	0.011881	0.125299
H50	H	1.176595	-0.047945	0.210265
H51	H	1.203811	-0.049569	-0.084840
H52	H	1.102845	-0.109421	0.000113
C53	C	0.994477	0.475730	0.000062
C54	C	1.092170	0.387122	0.000050
H55	H	1.029241	0.546887	0.000065
H56	H	0.943969	0.470211	-0.084876
H57	H	0.943978	0.470194	0.085022
H58	H	1.142664	0.392653	-0.084916
H59	H	1.142699	0.392643	0.084996
H60	H	0.891668	-0.023220	0.000152
H61	H	1.638607	0.028283	0.361007
H62	H	1.330604	0.305728	0.361000
