data_functionalizedCrystal
_audit_creation_method	'MofGen! by Chris Wilmer'
_symmetry_space_group_name_H-M	'P1'
_symmetry_Int_Tables_number	1
_symmetry_cell_setting	triclinic
loop_
_symmetry_equiv_pos_as_xyz
  x,y,z
_cell_length_a	12.827893
_cell_length_b	17.637651
_cell_length_c	12.827885
_cell_angle_alpha	78.750798
_cell_angle_beta	89.980918
_cell_angle_gamma	101.219340
loop_
_atom_site_label
_atom_site_type_symbol
_atom_site_fract_x
_atom_site_fract_y
_atom_site_fract_z
Zn1	Zn	1.513560	-0.314727	-0.506616
Zn2	Zn	2.013560	0.185273	-0.006616
Zn3	Zn	1.478114	-0.446962	-0.296487
Zn4	Zn	1.978114	0.053038	0.203513
Zn5	Zn	1.338791	-0.314766	-0.331879
Zn6	Zn	1.838791	0.185234	0.168121
Zn7	Zn	1.303462	-0.446904	-0.471203
Zn8	Zn	1.803462	0.053096	0.028797
O9	O	1.408482	-0.380840	-0.401546
O10	O	1.908482	0.119160	0.098454
O11	O	1.655092	-0.332276	-0.478750
O12	O	2.155092	0.167724	0.021250
O13	O	1.459584	-0.429467	-0.154935
O14	O	1.959584	0.070533	0.345065
O15	O	1.391593	-0.204119	-0.384691
O16	O	1.891593	0.295881	0.115309
O17	O	1.629050	-0.429429	-0.324369
O18	O	2.129050	0.070571	0.175631
O19	O	1.519995	-0.204091	-0.513069
O20	O	2.019995	0.295909	-0.013069
O21	O	1.357223	-0.332343	-0.180937
O22	O	1.857223	0.167657	0.319063
O23	O	1.187871	-0.332286	-0.350353
O24	O	1.687871	0.167714	0.149647
O25	O	1.331381	-0.429330	-0.622148
O26	O	1.831381	0.070670	-0.122148
O27	O	1.161915	-0.429367	-0.452713
O28	O	1.661915	0.070633	0.047287
O29	O	1.485739	-0.332220	-0.648165
O30	O	1.985739	0.167780	-0.148165
O31	O	1.425327	-0.557596	-0.290031
O32	O	1.925327	-0.057596	0.209969
O33	O	1.297011	-0.557553	-0.418394
O34	O	1.797011	-0.057553	0.081606
C35	C	1.136976	-0.380825	-0.401531
C36	C	1.636976	0.119175	0.098469
C37	C	1.020819	-0.380838	-0.401544
C38	C	1.520819	0.119162	0.098456
C39	C	0.836151	-0.428964	-0.452090
C40	C	1.336151	0.071036	0.047910
C41	C	0.956204	-0.428952	-0.452077
C42	C	1.456204	0.071048	0.047923
C43	C	1.353518	-0.586263	-0.346552
C44	C	1.853518	-0.086263	0.153448
C45	C	1.330099	-0.674144	-0.323060
C46	C	1.830099	-0.174144	0.176940
C47	C	1.587067	-0.962804	-0.580340
C48	C	2.087067	-0.462804	-0.080340
C49	C	1.565029	-1.045381	-0.558248
C50	C	2.065029	-0.545381	-0.058248
C51	C	1.431413	-1.045518	-0.424438
C52	C	1.931413	-0.545518	0.075562
C53	C	1.453443	-0.962939	-0.446516
C54	C	1.953443	-0.462939	0.053484
C55	C	1.531271	-0.921588	-0.524469
C56	C	2.031271	-0.421588	-0.024469
C57	C	1.397647	-0.921724	-0.390645
C58	C	1.897647	-0.421724	0.109355
C59	C	1.419672	-0.839152	-0.412724
C60	C	1.919672	-0.339152	0.087276
C61	C	1.497494	-0.797795	-0.490676
C62	C	1.997494	-0.297795	0.009324
C63	C	1.553296	-0.839017	-0.546548
C64	C	2.053296	-0.339017	-0.046548
C65	C	1.319815	-0.963076	-0.312698
C66	C	1.819815	-0.463076	0.187302
C67	C	1.264018	-0.921861	-0.256826
C68	C	1.764018	-0.421861	0.243174
C69	C	1.286049	-0.839287	-0.278901
C70	C	1.786049	-0.339287	0.221099
C71	C	1.363870	-0.797931	-0.356852
C72	C	1.863870	-0.297931	0.143148
C73	C	1.230247	-0.798066	-0.223028
C74	C	1.730247	-0.298066	0.276972
C75	C	1.252272	-0.715494	-0.245108
C76	C	1.752272	-0.215494	0.254892
C77	C	1.385896	-0.715359	-0.378932
C78	C	1.885896	-0.215359	0.121068
C79	C	1.681048	-0.380855	-0.401562
C80	C	2.181048	0.119145	0.098438
C81	C	1.797199	-0.380861	-0.401568
C82	C	2.297199	0.119139	0.098432
C83	C	1.408573	-0.380764	-0.674137
C84	C	1.908573	0.119236	-0.174137
C85	C	1.408612	-0.380731	-0.790299
C86	C	1.908612	0.119269	-0.290299
C87	C	1.463689	-0.174615	-0.456778
C88	C	1.963689	0.325385	0.043222
C89	C	1.487215	-0.086734	-0.480314
C90	C	1.987215	0.413266	0.019686
C91	C	1.485003	-0.332669	-0.854960
C92	C	1.985003	0.167331	-0.354960
C93	C	1.485045	-0.332634	-0.975020
C94	C	1.985045	0.167366	-0.475020
C95	C	1.408466	-0.380858	-0.130031
C96	C	1.908466	0.119142	0.369969
C97	C	1.408689	-0.380668	-0.013930
C98	C	1.908689	0.119332	0.486070
H99	H	1.449278	-0.681690	-0.442401
H100	H	1.949278	-0.181690	0.057599
C101	C	1.320297	-0.436287	-0.835572
C102	C	1.820297	0.063713	-0.335572
H103	H	1.272361	-0.466442	-0.779436
H104	H	1.772361	0.033558	-0.279436
H105	H	1.351108	-0.470697	-0.868941
H106	H	1.851108	0.029303	-0.368941
H107	H	1.282920	-0.405992	-0.886257
H108	H	1.782920	0.094008	-0.386257
H109	H	1.368043	-1.079197	-0.360972
H110	H	1.868043	-0.579197	0.139028
H111	H	1.550448	-0.291489	-1.030577
H112	H	2.050448	0.208511	-0.530577
C113	C	1.001509	-0.484589	-0.510515
C114	C	1.501509	0.015411	-0.010515
H115	H	0.945398	-0.514772	-0.542226
H116	H	1.445398	-0.014772	-0.042226
H117	H	1.034879	-0.518968	-0.461220
H118	H	1.534879	-0.018968	0.038780
H119	H	1.052193	-0.454345	-0.564170
H120	H	1.552193	0.045655	-0.064170
H121	H	0.852730	-0.339673	-0.358302
H122	H	1.352730	0.160327	0.141698
H123	H	0.780619	-0.470159	-0.495347
H124	H	1.280619	0.029841	0.004653
H125	H	1.343288	-0.421821	-0.958377
H126	H	1.843288	0.078179	-0.458377
H127	H	0.987281	-0.339650	-0.358294
H128	H	1.487281	0.160350	0.141706
H129	H	1.515426	-0.730560	-0.508651
H130	H	2.015426	-0.230560	-0.008651
C131	C	1.638884	-0.793525	-0.632316
C132	C	2.138884	-0.293525	-0.132316
H133	H	1.668955	-0.829896	-0.662442
H134	H	2.168955	-0.329896	-0.162442
H135	H	1.693038	-0.761300	-0.601019
H136	H	2.193038	-0.261300	-0.101019
H137	H	1.607442	-0.761323	-0.686420
H138	H	2.107442	-0.261323	-0.186420
C139	C	1.672655	-0.917313	-0.666107
C140	C	2.172655	-0.417313	-0.166107
H141	H	1.702725	-0.953684	-0.696233
H142	H	2.202725	-0.453684	-0.196233
H143	H	1.726808	-0.885087	-0.634811
H144	H	2.226808	-0.385087	-0.134811
H145	H	1.641213	-0.885110	-0.720211
H146	H	2.141213	-0.385110	-0.220211
H147	H	1.610456	-1.078936	-0.603765
H148	H	2.110456	-0.578936	-0.103765
H149	H	1.301875	-1.030312	-0.294733
H150	H	1.801875	-0.530312	0.205267
H151	H	1.200649	-0.955540	-0.193360
H152	H	1.700649	-0.455540	0.306640
H153	H	1.166873	-0.831747	-0.159566
H154	H	1.666873	-0.331747	0.340434
C155	C	1.190899	-0.670154	-0.183652
C156	C	1.690899	-0.170154	0.316348
H157	H	1.141401	-0.706607	-0.134058
H158	H	1.641401	-0.206607	0.365942
H159	H	1.153937	-0.637945	-0.232201
H160	H	1.653937	-0.137945	0.267799
H161	H	1.239498	-0.637947	-0.146766
H162	H	1.739498	-0.137947	0.353234
H163	H	1.550369	-0.291544	-0.821436
H164	H	2.050369	0.208456	-0.321436
