data_functionalizedCrystal
_audit_creation_method	'MofGen! by Chris Wilmer'
_symmetry_space_group_name_H-M	'P1'
_symmetry_Int_Tables_number	1
_symmetry_cell_setting	triclinic
loop_
_symmetry_equiv_pos_as_xyz
  x,y,z
_cell_length_a	29.839133
_cell_length_b	29.839135
_cell_length_c	29.839125
_cell_angle_alpha	89.984512
_cell_angle_beta	89.992589
_cell_angle_gamma	90.032133
loop_
_atom_site_label
_atom_site_type_symbol
_atom_site_fract_x
_atom_site_fract_y
_atom_site_fract_z
Zn1	Zn	-0.178886	0.686757	-0.254079
Zn2	Zn	0.071114	0.936757	-0.004079
Zn3	Zn	0.321114	1.186757	0.245921
Zn4	Zn	0.571114	1.436757	0.495921
Zn5	Zn	-0.253998	0.686704	-0.178963
Zn6	Zn	-0.003998	0.936704	0.071037
Zn7	Zn	0.246002	1.186704	0.321037
Zn8	Zn	0.496002	1.436704	0.571037
Zn9	Zn	-0.178886	0.611639	-0.178957
Zn10	Zn	0.071114	0.861639	0.071043
Zn11	Zn	0.321114	1.111639	0.321043
Zn12	Zn	0.571114	1.361639	0.571043
Zn13	Zn	-0.253993	0.611603	-0.254060
Zn14	Zn	-0.003993	0.861603	-0.004060
Zn15	Zn	0.246007	1.111603	0.245940
Zn16	Zn	0.496007	1.361603	0.495940
O17	O	-0.216441	0.649176	-0.216515
O18	O	0.033559	0.899176	0.033485
O19	O	0.283559	1.149176	0.283485
O20	O	0.533559	1.399176	0.533485
O21	O	-0.188852	0.749617	-0.244126
O22	O	0.061148	0.999617	0.005874
O23	O	0.311148	1.249617	0.255874
O24	O	0.561148	1.499617	0.505874
O25	O	-0.244036	0.676740	-0.116095
O26	O	0.005964	0.926740	0.133905
O27	O	0.255964	1.176740	0.383905
O28	O	0.505964	1.426740	0.633905
O29	O	-0.116019	0.621641	-0.188929
O30	O	0.133981	0.871641	0.061071
O31	O	0.383981	1.121641	0.311071
O32	O	0.633981	1.371641	0.561071
O33	O	-0.244036	0.749578	-0.188938
O34	O	0.005964	0.999578	0.061062
O35	O	0.255964	1.249578	0.311062
O36	O	0.505964	1.499578	0.561062
O37	O	-0.116019	0.676829	-0.244120
O38	O	0.133981	0.926829	0.005880
O39	O	0.383981	1.176829	0.255880
O40	O	0.633981	1.426829	0.505880
O41	O	-0.188852	0.621590	-0.116091
O42	O	0.061148	0.871590	0.133909
O43	O	0.311148	1.121590	0.383909
O44	O	0.561148	1.371590	0.633909
O45	O	-0.188847	0.548767	-0.188909
O46	O	0.061153	0.798767	0.061091
O47	O	0.311153	1.048767	0.311091
O48	O	0.561153	1.298767	0.561091
O49	O	-0.244028	0.621578	-0.316930
O50	O	0.005972	0.871578	-0.066930
O51	O	0.255972	1.121578	0.183070
O52	O	0.505972	1.371578	0.433070
O53	O	-0.244028	0.548740	-0.244087
O54	O	0.005972	0.798740	0.005913
O55	O	0.255972	1.048740	0.255913
O56	O	0.505972	1.298740	0.505913
O57	O	-0.188847	0.676794	-0.316944
O58	O	0.061153	0.926794	-0.066944
O59	O	0.311153	1.176794	0.183056
O60	O	0.561153	1.426794	0.433056
O61	O	-0.316864	0.676704	-0.188919
O62	O	-0.066864	0.926704	0.061081
O63	O	0.183136	1.176704	0.311081
O64	O	0.433136	1.426704	0.561081
O65	O	-0.316861	0.621528	-0.244092
O66	O	-0.066861	0.871528	0.005908
O67	O	0.183139	1.121528	0.255908
O68	O	0.433139	1.371528	0.505908
C69	C	-0.216437	0.532453	-0.216496
C70	C	0.033563	0.782453	0.033504
C71	C	0.283563	1.032453	0.283504
C72	C	0.533563	1.282453	0.533504
C73	C	-0.216447	0.482519	-0.216498
C74	C	0.033553	0.732519	0.033502
C75	C	0.283553	0.982519	0.283502
C76	C	0.533553	1.232519	0.533502
C77	C	-0.187750	0.172892	-0.245294
C78	C	0.062250	0.422892	0.004706
C79	C	0.312250	0.672892	0.254706
C80	C	0.562250	0.922892	0.504706
C81	C	-0.187753	-0.014781	-0.245306
C82	C	0.062247	0.235219	0.004694
C83	C	0.312247	0.485219	0.254694
C84	C	0.562247	0.735219	0.504694
O85	O	-0.163343	-0.039031	-0.269768
O86	O	0.086657	0.210969	-0.019768
O87	O	0.336657	0.460969	0.230232
O88	O	0.586657	0.710969	0.480232
N89	N	-0.216441	-0.038266	-0.216531
N90	N	0.033559	0.211734	0.033469
N91	N	0.283559	0.461734	0.283469
N92	N	0.533559	0.711734	0.533469
C93	C	-0.245129	-0.014831	-0.187749
C94	C	0.004871	0.235169	0.062251
C95	C	0.254871	0.485169	0.312251
C96	C	0.504871	0.735169	0.562251
O97	O	-0.269527	-0.039113	-0.163271
O98	O	-0.019527	0.210887	0.086729
O99	O	0.230473	0.460887	0.336729
O100	O	0.480473	0.710887	0.586729
C101	C	-0.245123	0.172841	-0.187734
C102	C	0.004877	0.422841	0.062266
C103	C	0.254877	0.672841	0.312266
C104	C	0.504877	0.922841	0.562266
C105	C	-0.216436	0.196324	-0.216514
C106	C	0.033564	0.446324	0.033486
C107	C	0.283564	0.696324	0.283486
C108	C	0.533564	0.946324	0.533486
C109	C	-0.159065	0.196376	-0.274071
C110	C	0.090935	0.446376	-0.024071
C111	C	0.340935	0.696376	0.225929
C112	C	0.590935	0.946376	0.475929
C113	C	-0.159066	0.243291	-0.274069
C114	C	0.090934	0.493291	-0.024069
C115	C	0.340934	0.743291	0.225931
C116	C	0.590934	0.993291	0.475931
C117	C	-0.187752	0.266723	-0.245290
C118	C	0.062248	0.516723	0.004710
C119	C	0.312248	0.766723	0.254710
C120	C	0.562248	1.016723	0.504710
C121	C	-0.216437	0.243240	-0.216513
C122	C	0.033563	0.493240	0.033487
C123	C	0.283563	0.743240	0.283487
C124	C	0.533563	0.993240	0.533487
C125	C	-0.273808	0.196276	-0.158950
C126	C	-0.023808	0.446276	0.091050
C127	C	0.226192	0.696276	0.341050
C128	C	0.476192	0.946276	0.591050
C129	C	-0.273803	0.243197	-0.158948
C130	C	-0.023803	0.493197	0.091052
C131	C	0.226197	0.743197	0.341052
C132	C	0.476197	0.993197	0.591052
C133	C	-0.245116	0.266680	-0.187728
C134	C	0.004884	0.516680	0.062272
C135	C	0.254884	0.766680	0.312272
C136	C	0.504884	1.016680	0.562272
C137	C	-0.245125	0.313588	-0.187732
C138	C	0.004875	0.563588	0.062268
C139	C	0.254875	0.813588	0.312268
C140	C	0.504875	1.063588	0.562268
N141	N	-0.216436	0.337073	-0.216507
N142	N	0.033564	0.587073	0.033493
N143	N	0.283564	0.837073	0.283493
N144	N	0.533564	1.087073	0.533493
C145	C	-0.187750	0.313641	-0.245286
C146	C	0.062250	0.563641	0.004714
C147	C	0.312250	0.813641	0.254714
C148	C	0.562250	1.063641	0.504714
C149	C	-0.245130	-0.113362	-0.187759
C150	C	0.004870	0.136638	0.062241
C151	C	0.254870	0.386638	0.312241
C152	C	0.504870	0.636638	0.562241
C153	C	-0.245132	-0.160279	-0.187764
C154	C	0.004868	0.089721	0.062236
C155	C	0.254868	0.339721	0.312236
C156	C	0.504868	0.589721	0.562236
C157	C	-0.187756	-0.160226	-0.245320
C158	C	0.062244	0.089774	0.004680
C159	C	0.312244	0.339774	0.254680
C160	C	0.562244	0.589774	0.504680
C161	C	-0.187756	-0.113307	-0.245318
C162	C	0.062244	0.136693	0.004682
C163	C	0.312244	0.386693	0.254682
C164	C	0.562244	0.636693	0.504682
C165	C	-0.216442	-0.089876	-0.216534
C166	C	0.033558	0.160124	0.033466
C167	C	0.283558	0.410124	0.283466
C168	C	0.533558	0.660124	0.533466
C169	C	-0.187755	0.412167	-0.245280
C170	C	0.062245	0.662167	0.004720
C171	C	0.312245	0.912167	0.254720
C172	C	0.562245	1.162167	0.504720
C173	C	-0.187760	0.459087	-0.245277
C174	C	0.062240	0.709087	0.004723
C175	C	0.312240	0.959087	0.254723
C176	C	0.562240	1.209087	0.504723
C177	C	-0.245135	0.459029	-0.187719
C178	C	0.004865	0.709029	0.062281
C179	C	0.254865	0.959029	0.312281
C180	C	0.504865	1.209029	0.562281
C181	C	-0.245132	0.412113	-0.187724
C182	C	0.004868	0.662113	0.062276
C183	C	0.254868	0.912113	0.312276
C184	C	0.504868	1.162113	0.562276
C185	C	-0.216438	0.388684	-0.216506
C186	C	0.033562	0.638684	0.033494
C187	C	0.283562	0.888684	0.283494
C188	C	0.533562	1.138684	0.533494
O189	O	-0.269518	0.337867	-0.163280
O190	O	-0.019518	0.587867	0.086720
O191	O	0.230482	0.837867	0.336720
O192	O	0.480482	1.087867	0.586720
O193	O	-0.163349	0.337931	-0.269753
O194	O	0.086651	0.587931	-0.019753
O195	O	0.336651	0.837931	0.230247
O196	O	0.586651	1.087931	0.480247
C197	C	-0.187748	0.125977	-0.245295
C198	C	0.062252	0.375977	0.004705
C199	C	0.312252	0.625977	0.254705
C200	C	0.562252	0.875977	0.504705
C201	C	-0.216434	0.102494	-0.216518
C202	C	0.033566	0.352494	0.033482
C203	C	0.283566	0.602494	0.283482
C204	C	0.533566	0.852494	0.533482
C205	C	-0.245120	0.125926	-0.187739
C206	C	0.004880	0.375926	0.062261
C207	C	0.254880	0.625926	0.312261
C208	C	0.504880	0.875926	0.562261
C209	C	-0.216436	0.055576	-0.216522
C210	C	0.033564	0.305576	0.033478
C211	C	0.283564	0.555576	0.283478
C212	C	0.533564	0.805576	0.533478
C213	C	-0.187749	0.032144	-0.245301
C214	C	0.062251	0.282144	0.004699
C215	C	0.312251	0.532144	0.254699
C216	C	0.562251	0.782144	0.504699
C217	C	-0.159061	0.055629	-0.274076
C218	C	0.090939	0.305629	-0.024076
C219	C	0.340939	0.555629	0.225924
C220	C	0.590939	0.805629	0.475924
C221	C	-0.159062	0.102545	-0.274074
C222	C	0.090938	0.352545	-0.024074
C223	C	0.340938	0.602545	0.225926
C224	C	0.590938	0.852545	0.475926
C225	C	-0.273808	0.102440	-0.158964
C226	C	-0.023808	0.352440	0.091036
C227	C	0.226192	0.602440	0.341036
C228	C	0.476192	0.852440	0.591036
C229	C	-0.273805	0.055525	-0.158968
C230	C	-0.023805	0.305525	0.091032
C231	C	0.226195	0.555525	0.341032
C232	C	0.476195	0.805525	0.591032
C233	C	-0.245119	0.032092	-0.187747
C234	C	0.004881	0.282092	0.062253
C235	C	0.254881	0.532092	0.312253
C236	C	0.504881	0.782092	0.562253
C237	C	-0.333163	0.649119	-0.216514
C238	C	-0.083163	0.899119	0.033486
C239	C	0.166837	1.149119	0.283486
C240	C	0.416837	1.399119	0.533486
C241	C	-0.383098	0.649135	-0.216528
C242	C	-0.133098	0.899135	0.033472
C243	C	0.116902	1.149135	0.283472
C244	C	0.366902	1.399135	0.533472
C245	C	-0.739650	0.677929	-0.245286
C246	C	-0.489650	0.927929	0.004714
C247	C	-0.239650	1.177929	0.254714
C248	C	0.010350	1.427929	0.504714
C249	C	-0.551977	0.677886	-0.245286
C250	C	-0.301977	0.927886	0.004714
C251	C	-0.051977	1.177886	0.254714
C252	C	0.198023	1.427886	0.504714
O253	O	-0.527682	0.702309	-0.269730
O254	O	-0.277682	0.952309	-0.019730
O255	O	-0.027682	1.202309	0.230270
O256	O	0.222318	1.452309	0.480270
N257	N	-0.528543	0.649171	-0.216527
N258	N	-0.278543	0.899171	0.033473
N259	N	-0.028543	1.149171	0.283473
N260	N	0.221457	1.399171	0.533473
C261	C	-0.552030	0.620466	-0.187764
C262	C	-0.302030	0.870466	0.062236
C263	C	-0.052030	1.120466	0.312236
C264	C	0.197970	1.370466	0.562236
O265	O	-0.527792	0.596044	-0.163300
O266	O	-0.277792	0.846044	0.086700
O267	O	-0.027792	1.096044	0.336700
O268	O	0.222208	1.346044	0.586700
C269	C	-0.739702	0.620511	-0.187763
C270	C	-0.489702	0.870511	0.062237
C271	C	-0.239702	1.120511	0.312237
C272	C	0.010298	1.370511	0.562237
C273	C	-0.763134	0.649225	-0.216527
C274	C	-0.513134	0.899225	0.033473
C275	C	-0.263134	1.149225	0.283473
C276	C	-0.013134	1.399225	0.533473
C277	C	-0.763081	0.706641	-0.274047
C278	C	-0.513081	0.956641	-0.024047
C279	C	-0.263081	1.206641	0.225953
C280	C	-0.013081	1.456641	0.475953
C281	C	-0.809997	0.706649	-0.274049
C282	C	-0.559997	0.956649	-0.024049
C283	C	-0.309997	1.206649	0.225951
C284	C	-0.059997	1.456649	0.475951
C285	C	-0.833481	0.677946	-0.245289
C286	C	-0.583481	0.927946	0.004711
C287	C	-0.333481	1.177946	0.254711
C288	C	-0.083481	1.427946	0.504711
C289	C	-0.810049	0.649234	-0.216528
C290	C	-0.560049	0.899234	0.033472
C291	C	-0.310049	1.149234	0.283472
C292	C	-0.060049	1.399234	0.533472
C293	C	-0.763189	0.591809	-0.158998
C294	C	-0.513189	0.841809	0.091002
C295	C	-0.263189	1.091809	0.341002
C296	C	-0.013189	1.341809	0.591002
C297	C	-0.810110	0.591824	-0.159000
C298	C	-0.560110	0.841824	0.091000
C299	C	-0.310110	1.091824	0.341000
C300	C	-0.060110	1.341824	0.591000
C301	C	-0.833541	0.620538	-0.187764
C302	C	-0.583541	0.870538	0.062236
C303	C	-0.333541	1.120538	0.312236
C304	C	-0.083541	1.370538	0.562236
C305	C	-0.880449	0.620539	-0.187770
C306	C	-0.630449	0.870539	0.062230
C307	C	-0.380449	1.120539	0.312230
C308	C	-0.130449	1.370539	0.562230
N309	N	-0.903883	0.649254	-0.216529
N310	N	-0.653883	0.899254	0.033471
N311	N	-0.403883	1.149254	0.283471
N312	N	-0.153883	1.399254	0.533471
C313	C	-0.880399	0.677958	-0.245289
C314	C	-0.630399	0.927958	0.004711
C315	C	-0.380399	1.177958	0.254711
C316	C	-0.130399	1.427958	0.504711
C317	C	-0.453499	0.620444	-0.187768
C318	C	-0.203499	0.870444	0.062232
C319	C	0.046501	1.120444	0.312232
C320	C	0.296501	1.370444	0.562232
C321	C	-0.406582	0.620432	-0.187769
C322	C	-0.156582	0.870432	0.062231
C323	C	0.093418	1.120432	0.312231
C324	C	0.343418	1.370432	0.562231
C325	C	-0.406532	0.677853	-0.245289
C326	C	-0.156532	0.927853	0.004711
C327	C	0.093468	1.177853	0.254711
C328	C	0.343468	1.427853	0.504711
C329	C	-0.453450	0.677862	-0.245290
C330	C	-0.203450	0.927862	0.004710
C331	C	0.046550	1.177862	0.254710
C332	C	0.296550	1.427862	0.504710
C333	C	-0.476933	0.649159	-0.216526
C334	C	-0.226933	0.899159	0.033474
C335	C	0.023067	1.149159	0.283474
C336	C	0.273067	1.399159	0.533474
C337	C	-0.978924	0.677973	-0.245290
C338	C	-0.728924	0.927973	0.004710
C339	C	-0.478924	1.177973	0.254710
C340	C	-0.228924	1.427973	0.504710
C341	C	-1.025844	0.677978	-0.245290
C342	C	-0.775844	0.927978	0.004710
C343	C	-0.525844	1.177978	0.254710
C344	C	-0.275844	1.427978	0.504710
C345	C	-1.025890	0.620559	-0.187768
C346	C	-0.775890	0.870559	0.062232
C347	C	-0.525890	1.120559	0.312232
C348	C	-0.275890	1.370559	0.562232
C349	C	-0.978974	0.620553	-0.187769
C350	C	-0.728974	0.870553	0.062231
C351	C	-0.478974	1.120553	0.312231
C352	C	-0.228974	1.370553	0.562231
C353	C	-0.955493	0.649263	-0.216532
C354	C	-0.705493	0.899263	0.033468
C355	C	-0.455493	1.149263	0.283468
C356	C	-0.205493	1.399263	0.533468
O357	O	-0.904772	0.596132	-0.163335
O358	O	-0.654772	0.846132	0.086665
O359	O	-0.404772	1.096132	0.336665
O360	O	-0.154772	1.346132	0.586665
O361	O	-0.904645	0.702383	-0.269742
O362	O	-0.654645	0.952383	-0.019742
O363	O	-0.404645	1.202383	0.230258
O364	O	-0.154645	1.452383	0.480258
C365	C	-0.692734	0.677920	-0.245285
C366	C	-0.442734	0.927920	0.004715
C367	C	-0.192734	1.177920	0.254715
C368	C	0.057266	1.427920	0.504715
C369	C	-0.669303	0.649208	-0.216524
C370	C	-0.419303	0.899208	0.033476
C371	C	-0.169303	1.149208	0.283476
C372	C	0.080697	1.399208	0.533476
C373	C	-0.692787	0.620505	-0.187764
C374	C	-0.442787	0.870505	0.062236
C375	C	-0.192787	1.120505	0.312236
C376	C	0.057213	1.370505	0.562236
C377	C	-0.622385	0.649196	-0.216524
C378	C	-0.372385	0.899196	0.033476
C379	C	-0.122385	1.149196	0.283476
C380	C	0.127615	1.399196	0.533476
C381	C	-0.598901	0.677900	-0.245284
C382	C	-0.348901	0.927900	0.004716
C383	C	-0.098901	1.177900	0.254716
C384	C	0.151099	1.427900	0.504716
C385	C	-0.622335	0.706615	-0.274043
C386	C	-0.372335	0.956615	-0.024043
C387	C	-0.122335	1.206615	0.225957
C388	C	0.127665	1.456615	0.475957
C389	C	-0.669250	0.706623	-0.274044
C390	C	-0.419250	0.956623	-0.024044
C391	C	-0.169250	1.206623	0.225956
C392	C	0.080750	1.456623	0.475956
C393	C	-0.669353	0.591789	-0.159005
C394	C	-0.419353	0.841789	0.090995
C395	C	-0.169353	1.091789	0.340995
C396	C	0.080647	1.341789	0.590995
C397	C	-0.622437	0.591783	-0.159007
C398	C	-0.372437	0.841783	0.090993
C399	C	-0.122437	1.091783	0.340993
C400	C	0.127563	1.341783	0.590993
C401	C	-0.598953	0.620486	-0.187766
C402	C	-0.348953	0.870486	0.062234
C403	C	-0.098953	1.120486	0.312234
C404	C	0.151047	1.370486	0.562234
C405	C	-0.099262	0.649245	-0.216526
C406	C	0.150738	0.899245	0.033474
C407	C	0.400738	1.149245	0.283474
C408	C	0.650738	1.399245	0.533474
C409	C	-0.049328	0.649275	-0.216531
C410	C	0.200672	0.899275	0.033469
C411	C	0.450672	1.149275	0.283469
C412	C	0.700672	1.399275	0.533469
C413	C	-0.216437	0.649188	-0.333693
C414	C	0.033563	0.899188	-0.083693
C415	C	0.283563	1.149188	0.166307
C416	C	0.533563	1.399188	0.416307
C417	C	-0.216435	0.649193	-0.383628
C418	C	0.033565	0.899193	-0.133628
C419	C	0.283565	1.149193	0.116372
C420	C	0.533565	1.399193	0.366372
C421	C	-0.216445	0.766354	-0.216534
C422	C	0.033555	1.016354	0.033466
C423	C	0.283555	1.266354	0.283466
C424	C	0.533555	1.516354	0.533466
C425	C	-0.216446	0.816288	-0.216543
C426	C	0.033554	1.066288	0.033457
C427	C	0.283554	1.316288	0.283457
C428	C	0.533554	1.566288	0.533457
C429	C	-0.187627	0.677974	-0.693282
C430	C	0.062373	0.927974	-0.443282
C431	C	0.312373	1.177974	-0.193282
C432	C	0.562373	1.427974	0.056718
C433	C	-0.187589	0.677996	-0.880955
C434	C	0.062411	0.927996	-0.630955
C435	C	0.312411	1.177996	-0.380955
C436	C	0.562411	1.427996	-0.130955
O437	O	-0.163138	0.702433	-0.905229
O438	O	0.086862	0.952433	-0.655229
O439	O	0.336862	1.202433	-0.405229
O440	O	0.586862	1.452433	-0.155229
N441	N	-0.216315	0.649253	-0.904413
N442	N	0.033685	0.899253	-0.654413
N443	N	0.283685	1.149253	-0.404413
N444	N	0.533685	1.399253	-0.154413
C445	C	-0.245050	0.620499	-0.880950
C446	C	0.004950	0.870499	-0.630950
C447	C	0.254950	1.120499	-0.380950
C448	C	0.504950	1.370499	-0.130950
O449	O	-0.269479	0.596048	-0.905209
O450	O	-0.019479	0.846048	-0.655209
O451	O	0.230521	1.096048	-0.405209
O452	O	0.480521	1.346048	-0.155209
C453	C	-0.245086	0.620475	-0.693278
C454	C	0.004914	0.870475	-0.443278
C455	C	0.254914	1.120475	-0.193278
C456	C	0.504914	1.370475	0.056722
C457	C	-0.216361	0.649224	-0.669822
C458	C	0.033639	0.899224	-0.419822
C459	C	0.283639	1.149224	-0.169822
C460	C	0.533639	1.399224	0.080178
C461	C	-0.158905	0.706720	-0.669826
C462	C	0.091095	0.956720	-0.419826
C463	C	0.341095	1.206720	-0.169826
C464	C	0.591095	1.456720	0.080174
C465	C	-0.158916	0.706716	-0.622910
C466	C	0.091084	0.956716	-0.372910
C467	C	0.341084	1.206716	-0.122910
C468	C	0.591084	1.456716	0.127090
C469	C	-0.187650	0.677966	-0.599451
C470	C	0.062350	0.927966	-0.349451
C471	C	0.312350	1.177966	-0.099451
C472	C	0.562350	1.427966	0.150549
C473	C	-0.216373	0.649220	-0.622907
C474	C	0.033627	0.899220	-0.372907
C475	C	0.283627	1.149220	-0.122907
C476	C	0.533627	1.399220	0.127093
C477	C	-0.273819	0.591720	-0.669816
C478	C	-0.023819	0.841720	-0.419816
C479	C	0.226181	1.091720	-0.169816
C480	C	0.476181	1.341720	0.080184
C481	C	-0.273824	0.591716	-0.622894
C482	C	-0.023824	0.841716	-0.372894
C483	C	0.226176	1.091716	-0.122894
C484	C	0.476176	1.341716	0.127106
C485	C	-0.245100	0.620464	-0.599439
C486	C	0.004900	0.870464	-0.349439
C487	C	0.254900	1.120464	-0.099439
C488	C	0.504900	1.370464	0.150561
C489	C	-0.245119	0.620465	-0.552531
C490	C	0.004881	0.870465	-0.302531
C491	C	0.254881	1.120465	-0.052531
C492	C	0.504881	1.370465	0.197469
N493	N	-0.216393	0.649209	-0.529073
N494	N	0.033607	0.899209	-0.279073
N495	N	0.283607	1.149209	-0.029073
N496	N	0.533607	1.399209	0.220927
C497	C	-0.187659	0.677959	-0.552533
C498	C	0.062341	0.927959	-0.302533
C499	C	0.312341	1.177959	-0.052533
C500	C	0.562341	1.427959	0.197467
C501	C	-0.245030	0.620515	-0.979481
C502	C	0.004970	0.870515	-0.729481
C503	C	0.254970	1.120515	-0.479481
C504	C	0.504970	1.370515	-0.229481
C505	C	-0.245022	0.620521	-1.026398
C506	C	0.004978	0.870521	-0.776398
C507	C	0.254978	1.120521	-0.526398
C508	C	0.504978	1.370521	-0.276398
C509	C	-0.187560	0.678018	-1.026400
C510	C	0.062440	0.928018	-0.776400
C511	C	0.312440	1.178018	-0.526400
C512	C	0.562440	1.428018	-0.276400
C513	C	-0.187571	0.678013	-0.979481
C514	C	0.062429	0.928013	-0.729481
C515	C	0.312429	1.178013	-0.479481
C516	C	0.562429	1.428013	-0.229481
C517	C	-0.216304	0.649258	-0.956022
C518	C	0.033696	0.899258	-0.706022
C519	C	0.283696	1.149258	-0.456022
C520	C	0.533696	1.399258	-0.206022
C521	C	-0.187685	0.677948	-0.454007
C522	C	0.062315	0.927948	-0.204007
C523	C	0.312315	1.177948	0.045993
C524	C	0.562315	1.427948	0.295993
C525	C	-0.187701	0.677943	-0.407087
C526	C	0.062299	0.927943	-0.157087
C527	C	0.312299	1.177943	0.092913
C528	C	0.562299	1.427943	0.342913
C529	C	-0.245161	0.620445	-0.407090
C530	C	0.004839	0.870445	-0.157090
C531	C	0.254839	1.120445	0.092910
C532	C	0.504839	1.370445	0.342910
C533	C	-0.245147	0.620452	-0.454005
C534	C	0.004853	0.870452	-0.204005
C535	C	0.254853	1.120452	0.045995
C536	C	0.504853	1.370452	0.295995
C537	C	-0.216406	0.649205	-0.477463
C538	C	0.033594	0.899205	-0.227463
C539	C	0.283594	1.149205	0.022537
C540	C	0.533594	1.399205	0.272537
O541	O	-0.269553	0.596038	-0.528229
O542	O	-0.019553	0.846038	-0.278229
O543	O	0.230447	1.096038	-0.028229
O544	O	0.480447	1.346038	0.221771
O545	O	-0.163226	0.702399	-0.528266
O546	O	0.086774	0.952399	-0.278266
O547	O	0.336774	1.202399	-0.028266
O548	O	0.586774	1.452399	0.221734
C549	C	-0.187616	0.677978	-0.740197
C550	C	0.062384	0.927978	-0.490197
C551	C	0.312384	1.177978	-0.240197
C552	C	0.562384	1.427978	0.009803
C553	C	-0.216338	0.649232	-0.763653
C554	C	0.033662	0.899232	-0.513653
C555	C	0.283662	1.149232	-0.263653
C556	C	0.533662	1.399232	-0.013653
C557	C	-0.245072	0.620482	-0.740193
C558	C	0.004928	0.870482	-0.490193
C559	C	0.254928	1.120482	-0.240193
C560	C	0.504928	1.370482	0.009807
C561	C	-0.216330	0.649239	-0.810571
C562	C	0.033670	0.899239	-0.560571
C563	C	0.283670	1.149239	-0.310571
C564	C	0.533670	1.399239	-0.060571
C565	C	-0.187596	0.677989	-0.834031
C566	C	0.062404	0.927989	-0.584031
C567	C	0.312404	1.177989	-0.334031
C568	C	0.562404	1.427989	-0.084031
C569	C	-0.158870	0.706732	-0.810572
C570	C	0.091130	0.956732	-0.560572
C571	C	0.341130	1.206732	-0.310572
C572	C	0.591130	1.456732	-0.060572
C573	C	-0.158881	0.706728	-0.763657
C574	C	0.091119	0.956728	-0.513657
C575	C	0.341119	1.206728	-0.263657
C576	C	0.591119	1.456728	-0.013657
C577	C	-0.273798	0.591738	-0.763651
C578	C	-0.023798	0.841738	-0.513651
C579	C	0.226202	1.091738	-0.263651
C580	C	0.476202	1.341738	-0.013651
C581	C	-0.273785	0.591745	-0.810567
C582	C	-0.023785	0.841745	-0.560567
C583	C	0.226215	1.091745	-0.310567
C584	C	0.476215	1.341745	-0.060567
C585	C	-0.245050	0.620495	-0.834027
C586	C	0.004950	0.870495	-0.584027
C587	C	0.254950	1.120495	-0.334027
C588	C	0.504950	1.370495	-0.084027
C589	C	-0.216412	0.649189	-0.099792
C590	C	0.033588	0.899189	0.150208
C591	C	0.283588	1.149189	0.400208
C592	C	0.533588	1.399189	0.650208
C593	C	-0.216288	0.649271	-0.049858
C594	C	0.033712	0.899271	0.200142
C595	C	0.283712	1.149271	0.450142
C596	C	0.533712	1.399271	0.700142
H597	H	-0.297168	0.121514	-0.135527
H598	H	-0.047168	0.371514	0.114473
H599	H	0.202832	0.621514	0.364473
H600	H	0.452832	0.871514	0.614473
H601	H	-0.297218	0.568295	-0.603797
H602	H	-0.047218	0.818295	-0.353797
H603	H	0.202782	1.068295	-0.103797
H604	H	0.452782	1.318295	0.146203
H605	H	-0.829227	0.568450	-0.135576
H606	H	-0.579227	0.818450	0.114424
H607	H	-0.329227	1.068450	0.364424
H608	H	-0.079227	1.318450	0.614424
C609	C	-0.305386	0.560123	-0.836365
C610	C	-0.055386	0.810123	-0.586365
C611	C	0.194614	1.060123	-0.336365
C612	C	0.444614	1.310123	-0.086365
H613	H	-0.301269	0.564242	-0.867669
H614	H	-0.051269	0.814242	-0.617669
H615	H	0.198731	1.064242	-0.367669
H616	H	0.448731	1.314242	-0.117669
H617	H	-0.298812	0.529942	-0.828668
H618	H	-0.048812	0.779942	-0.578668
H619	H	0.201188	1.029942	-0.328668
H620	H	0.451188	1.279942	-0.078668
H621	H	-0.335574	0.566683	-0.828679
H622	H	-0.085574	0.816683	-0.578679
H623	H	0.164426	1.066683	-0.328679
H624	H	0.414426	1.316683	-0.078679
C625	C	-0.276746	0.588833	-0.479808
C626	C	-0.026746	0.838833	-0.229808
C627	C	0.223254	1.088833	0.020192
C628	C	0.473254	1.338833	0.270192
H629	H	-0.293860	0.571709	-0.459114
H630	H	-0.043860	0.821709	-0.209114
H631	H	0.206140	1.071709	0.040886
H632	H	0.456140	1.321709	0.290886
H633	H	-0.296316	0.606005	-0.498118
H634	H	-0.046316	0.856005	-0.248118
H635	H	0.203684	1.106005	0.001882
H636	H	0.453684	1.356005	0.251882
H637	H	-0.259552	0.569267	-0.498102
H638	H	-0.009552	0.819267	-0.248102
H639	H	0.240448	1.069267	0.001898
H640	H	0.490448	1.319267	0.251898
H641	H	-0.297198	0.568327	-0.744555
H642	H	-0.047198	0.818327	-0.494555
H643	H	0.202802	1.068327	-0.244555
H644	H	0.452802	1.318327	0.005445
C645	C	-0.127509	0.269119	-0.305725
C646	C	0.122491	0.519119	-0.055725
C647	C	0.372491	0.769119	0.194275
C648	C	0.622491	1.019119	0.444275
H649	H	-0.131615	0.300419	-0.301608
H650	H	0.118385	0.550419	-0.051608
H651	H	0.368385	0.800419	0.198392
H652	H	0.618385	1.050419	0.448392
H653	H	-0.097315	0.261441	-0.299200
H654	H	0.152685	0.511441	-0.049200
H655	H	0.402685	0.761441	0.200800
H656	H	0.652685	1.011441	0.450800
H657	H	-0.134134	0.261433	-0.335900
H658	H	0.115866	0.511433	-0.085900
H659	H	0.365866	0.761433	0.164100
H660	H	0.615866	1.011433	0.414100
H661	H	-1.044920	0.701360	-0.268716
H662	H	-0.794920	0.951360	-0.018716
H663	H	-0.544920	1.201360	0.231284
H664	H	-0.294920	1.451360	0.481284
C665	C	-0.737256	0.738214	-0.305689
C666	C	-0.487256	0.988214	-0.055689
C667	C	-0.237256	1.238214	0.194311
C668	C	0.012744	1.488214	0.444311
H669	H	-0.757937	0.755310	-0.322817
H670	H	-0.507937	1.005310	-0.072817
H671	H	-0.257937	1.255310	0.177183
H672	H	-0.007937	1.505310	0.427183
H673	H	-0.718937	0.757801	-0.288531
H674	H	-0.468937	1.007801	-0.038531
H675	H	-0.218937	1.257801	0.211469
H676	H	0.031063	1.507801	0.461469
H677	H	-0.718969	0.721005	-0.325249
H678	H	-0.468969	0.971005	-0.075249
H679	H	-0.218969	1.221005	0.174751
H680	H	0.031031	1.471005	0.424751
H681	H	-1.045019	0.597189	-0.164354
H682	H	-0.795019	0.847189	0.085646
H683	H	-0.545019	1.097189	0.335646
H684	H	-0.295019	1.347189	0.585646
H685	H	-0.268497	-0.179396	-0.164333
H686	H	-0.018497	0.070604	0.085667
H687	H	0.231503	0.320604	0.335667
H688	H	0.481503	0.570604	0.585667
H689	H	-0.688324	0.730005	-0.297467
H690	H	-0.438324	0.980005	-0.047467
H691	H	-0.188324	1.230005	0.202533
H692	H	0.061676	1.480005	0.452533
H693	H	-0.135475	0.730143	-0.829681
H694	H	0.114525	0.980143	-0.579681
H695	H	0.364525	1.230143	-0.329681
H696	H	0.614525	1.480143	-0.079681
H697	H	-0.268557	0.597039	-0.387980
H698	H	-0.018557	0.847039	-0.137980
H699	H	0.231443	1.097039	0.112020
H700	H	0.481443	1.347039	0.362020
C701	C	-0.305412	0.560092	-0.695607
C702	C	-0.055412	0.810092	-0.445607
C703	C	0.194588	1.060092	-0.195607
C704	C	0.444588	1.310092	0.054393
H705	H	-0.322519	0.542967	-0.674909
H706	H	-0.072519	0.792967	-0.424909
H707	H	0.177481	1.042967	-0.174909
H708	H	0.427481	1.292967	0.075091
H709	H	-0.324988	0.577259	-0.713916
H710	H	-0.074988	0.827259	-0.463916
H711	H	0.175012	1.077259	-0.213916
H712	H	0.425012	1.327259	0.036084
H713	H	-0.288217	0.540527	-0.713901
H714	H	-0.038217	0.790527	-0.463901
H715	H	0.211783	1.040527	-0.213901
H716	H	0.461783	1.290527	0.036099
C717	C	-0.380696	0.709427	-0.276924
C718	C	-0.130696	0.959427	-0.026924
C719	C	0.119304	1.209427	0.223076
C720	C	0.369304	1.459427	0.473076
H721	H	-0.401367	0.726532	-0.294055
H722	H	-0.151367	0.976532	-0.044055
H723	H	0.098633	1.226532	0.205945
H724	H	0.348633	1.476532	0.455945
H725	H	-0.362379	0.729006	-0.259756
H726	H	-0.112379	0.979006	-0.009756
H727	H	0.137621	1.229006	0.240244
H728	H	0.387621	1.479006	0.490244
H729	H	-0.362405	0.692220	-0.296483
H730	H	-0.112405	0.942220	-0.046483
H731	H	0.137595	1.192220	0.203517
H732	H	0.387595	1.442220	0.453517
H733	H	-0.135491	0.730138	-0.744563
H734	H	0.114509	0.980138	-0.494563
H735	H	0.364509	1.230138	-0.244563
H736	H	0.614509	1.480138	0.005437
C737	C	-0.127510	0.170607	-0.305733
C738	C	0.122490	0.420607	-0.055733
C739	C	0.372490	0.670607	0.194267
C740	C	0.622490	0.920607	0.444267
H741	H	-0.110431	0.191319	-0.322871
H742	H	0.139569	0.441319	-0.072871
H743	H	0.389569	0.691319	0.177129
H744	H	0.639569	0.941319	0.427129
H745	H	-0.107906	0.152307	-0.288589
H746	H	0.142094	0.402307	-0.038589
H747	H	0.392094	0.652307	0.211411
H748	H	0.642094	0.902307	0.461411
H749	H	-0.144729	0.152306	-0.325285
H750	H	0.105271	0.402306	-0.075285
H751	H	0.355271	0.652306	0.174715
H752	H	0.605271	0.902306	0.424715
C753	C	-0.737424	0.560228	-0.127353
C754	C	-0.487424	0.810228	0.122647
C755	C	-0.237424	1.060228	0.372647
C756	C	0.012576	1.310228	0.622647
H757	H	-0.758136	0.543142	-0.110223
H758	H	-0.508136	0.793142	0.139777
H759	H	-0.258136	1.043142	0.389777
H760	H	-0.008136	1.293142	0.639777
H761	H	-0.719132	0.540631	-0.144509
H762	H	-0.469132	0.790631	0.105491
H763	H	-0.219132	1.040631	0.355491
H764	H	0.030868	1.290631	0.605491
H765	H	-0.719114	0.577429	-0.107794
H766	H	-0.469114	0.827429	0.142206
H767	H	-0.219114	1.077429	0.392206
H768	H	0.030886	1.327429	0.642206
H769	H	-0.268491	-0.094288	-0.164319
H770	H	-0.018491	0.155712	0.085681
H771	H	0.231509	0.405712	0.335681
H772	H	0.481509	0.655712	0.585681
C773	C	-0.953199	0.588964	-0.156134
C774	C	-0.703199	0.838964	0.093866
C775	C	-0.453199	1.088964	0.343866
C776	C	-0.203199	1.338964	0.593866
H777	H	-0.973907	0.571872	-0.139006
H778	H	-0.723907	0.821872	0.110994
H779	H	-0.473907	1.071872	0.360994
H780	H	-0.223907	1.321872	0.610994
H781	H	-0.934906	0.569375	-0.173298
H782	H	-0.684906	0.819375	0.076702
H783	H	-0.434906	1.069375	0.326702
H784	H	-0.184906	1.319375	0.576702
H785	H	-0.934889	0.606163	-0.136573
H786	H	-0.684889	0.856163	0.113427
H787	H	-0.434889	1.106163	0.363427
H788	H	-0.184889	1.356163	0.613427
C789	C	-0.305360	0.170454	-0.127287
C790	C	-0.055360	0.420454	0.122713
C791	C	0.194640	0.670454	0.372713
C792	C	0.444640	0.920454	0.622713
H793	H	-0.322437	0.191136	-0.110145
H794	H	-0.072437	0.441136	0.139855
H795	H	0.177563	0.691136	0.389855
H796	H	0.427563	0.941136	0.639855
H797	H	-0.324966	0.152144	-0.144433
H798	H	-0.074966	0.402144	0.105567
H799	H	0.175034	0.652144	0.355567
H800	H	0.425034	0.902144	0.605567
H801	H	-0.288140	0.152158	-0.107740
H802	H	-0.038140	0.402158	0.142260
H803	H	0.211860	0.652158	0.392260
H804	H	0.461860	0.902158	0.642260
H805	H	-0.164280	0.701360	-0.473101
H806	H	0.085720	0.951360	-0.223101
H807	H	0.335720	1.201360	0.026899
H808	H	0.585720	1.451360	0.276899
H809	H	-0.164399	0.478204	-0.268715
H810	H	0.085601	0.728204	-0.018715
H811	H	0.335601	0.978204	0.231285
H812	H	0.585601	1.228204	0.481285
H813	H	-0.387507	0.597045	-0.164351
H814	H	-0.137507	0.847045	0.085649
H815	H	0.112493	1.097045	0.335649
H816	H	0.362493	1.347045	0.585649
H817	H	-0.164396	-0.094190	-0.268752
H818	H	0.085604	0.155810	-0.018752
H819	H	0.335604	0.405810	0.231248
H820	H	0.585604	0.655810	0.481248
H821	H	-0.959811	0.701353	-0.268710
H822	H	-0.709811	0.951353	-0.018710
H823	H	-0.459811	1.201353	0.231290
H824	H	-0.209811	1.451353	0.481290
H825	H	-0.829071	0.730035	-0.297468
H826	H	-0.579071	0.980035	-0.047468
H827	H	-0.329071	1.230035	0.202532
H828	H	-0.079071	1.480035	0.452532
C829	C	-0.479221	0.709451	-0.276926
C830	C	-0.229221	0.959451	-0.026926
C831	C	0.020779	1.209451	0.223074
C832	C	0.270779	1.459451	0.473074
H833	H	-0.458511	0.726545	-0.294050
H834	H	-0.208511	0.976545	-0.044050
H835	H	0.041489	1.226545	0.205950
H836	H	0.291489	1.476545	0.455950
H837	H	-0.497538	0.692260	-0.296484
H838	H	-0.247538	0.942260	-0.046484
H839	H	0.002462	1.192260	0.203516
H840	H	0.252462	1.442260	0.453516
H841	H	-0.497506	0.729047	-0.259757
H842	H	-0.247506	0.979047	-0.009757
H843	H	0.002494	1.229047	0.240243
H844	H	0.252494	1.479047	0.490243
C845	C	-0.155969	0.709631	-0.953684
C846	C	0.094031	0.959631	-0.703684
C847	C	0.344031	1.209631	-0.453684
C848	C	0.594031	1.459631	-0.203684
H849	H	-0.138854	0.726751	-0.974380
H850	H	0.111146	0.976751	-0.724380
H851	H	0.361146	1.226751	-0.474380
H852	H	0.611146	1.476751	-0.224380
H853	H	-0.173154	0.729194	-0.935382
H854	H	0.076846	0.979194	-0.685382
H855	H	0.326846	1.229194	-0.435382
H856	H	0.576846	1.479194	-0.185382
H857	H	-0.136394	0.692451	-0.935382
H858	H	0.113606	0.942451	-0.685382
H859	H	0.363606	1.192451	-0.435382
H860	H	0.613606	1.442451	-0.185382
C861	C	-0.305358	0.268971	-0.127287
C862	C	-0.055358	0.518971	0.122713
C863	C	0.194642	0.768971	0.372713
C864	C	0.444642	1.018971	0.622713
H865	H	-0.301250	0.300277	-0.131403
H866	H	-0.051250	0.550277	0.118597
H867	H	0.198750	0.800277	0.368597
H868	H	0.448750	1.050277	0.618597
H869	H	-0.335553	0.261265	-0.133810
H870	H	-0.085553	0.511265	0.116190
H871	H	0.164447	0.761265	0.366190
H872	H	0.414447	1.011265	0.616190
H873	H	-0.298732	0.261274	-0.097112
H874	H	-0.048732	0.511274	0.152888
H875	H	0.201268	0.761274	0.402888
H876	H	0.451268	1.011274	0.652888
C877	C	-0.156197	0.386401	-0.276944
C878	C	0.093803	0.636401	-0.026944
C879	C	0.343803	0.886401	0.223056
C880	C	0.593803	1.136401	0.473056
H881	H	-0.139119	0.407111	-0.294084
H882	H	0.110881	0.657111	-0.044084
H883	H	0.360881	0.907111	0.205916
H884	H	0.610881	1.157111	0.455916
H885	H	-0.136593	0.368102	-0.259798
H886	H	0.113407	0.618102	-0.009798
H887	H	0.363407	0.868102	0.240202
H888	H	0.613407	1.118102	0.490202
H889	H	-0.173417	0.368097	-0.296493
H890	H	0.076583	0.618097	-0.046493
H891	H	0.326583	0.868097	0.203507
H892	H	0.576583	1.118097	0.453507
H893	H	-0.472615	0.597069	-0.164343
H894	H	-0.222615	0.847069	0.085657
H895	H	0.027385	1.097069	0.335657
H896	H	0.277385	1.347069	0.585657
H897	H	-0.164398	-0.179312	-0.268754
H898	H	0.085602	0.070688	-0.018754
H899	H	0.335602	0.320688	0.231246
H900	H	0.585602	0.570688	0.481246
C901	C	-0.127315	0.738335	-0.597115
C902	C	0.122685	0.988335	-0.347115
C903	C	0.372685	1.238335	-0.097115
C904	C	0.622685	1.488335	0.152885
H905	H	-0.110199	0.755453	-0.617812
H906	H	0.139801	1.005453	-0.367812
H907	H	0.389801	1.255453	-0.117812
H908	H	0.639801	1.505453	0.132188
H909	H	-0.144499	0.757900	-0.578815
H910	H	0.105501	1.007900	-0.328815
H911	H	0.355501	1.257900	-0.078815
H912	H	0.605501	1.507900	0.171185
H913	H	-0.107740	0.721156	-0.578811
H914	H	0.142260	0.971156	-0.328811
H915	H	0.392260	1.221156	-0.078811
H916	H	0.642260	1.471156	0.171189
C917	C	-0.127297	0.738350	-0.695625
C918	C	0.122703	0.988350	-0.445625
C919	C	0.372703	1.238350	-0.195625
C920	C	0.622703	1.488350	0.054375
H921	H	-0.110197	0.755469	-0.674929
H922	H	0.139803	1.005469	-0.424929
H923	H	0.389803	1.255469	-0.174929
H924	H	0.639803	1.505469	0.075071
H925	H	-0.107715	0.721186	-0.713926
H926	H	0.142285	0.971186	-0.463926
H927	H	0.392285	1.221186	-0.213926
H928	H	0.642285	1.471186	0.036074
H929	H	-0.144483	0.757921	-0.713927
H930	H	0.105517	1.007921	-0.463927
H931	H	0.355517	1.257921	-0.213927
H932	H	0.605517	1.507921	0.036073
C933	C	-0.276690	0.386281	-0.156070
C934	C	-0.026690	0.636281	0.093930
C935	C	0.223310	0.886281	0.343930
C936	C	0.473310	1.136281	0.593930
H937	H	-0.293773	0.406958	-0.138929
H938	H	-0.043773	0.656958	0.111071
H939	H	0.206227	0.906958	0.361071
H940	H	0.456227	1.156958	0.611071
H941	H	-0.296289	0.367969	-0.173222
H942	H	-0.046289	0.617969	0.076778
H943	H	0.203711	0.867969	0.326778
H944	H	0.453711	1.117969	0.576778
H945	H	-0.259471	0.367985	-0.136521
H946	H	-0.009471	0.617985	0.113479
H947	H	0.240529	0.867985	0.363479
H948	H	0.490529	1.117985	0.613479
H949	H	-0.268492	0.478116	-0.164289
H950	H	-0.018492	0.728116	0.085711
H951	H	0.231508	0.978116	0.335711
H952	H	0.481508	1.228116	0.585711
H953	H	-0.135702	0.121661	-0.297510
H954	H	0.114298	0.371661	-0.047510
H955	H	0.364298	0.621661	0.202490
H956	H	0.614298	0.871661	0.452490
H957	H	-0.297170	0.036408	-0.135533
H958	H	-0.047170	0.286408	0.114467
H959	H	0.202830	0.536408	0.364467
H960	H	0.452830	0.786408	0.614467
C961	C	-0.127506	0.029848	-0.305731
C962	C	0.122494	0.279848	-0.055731
C963	C	0.372494	0.529848	0.194269
C964	C	0.622494	0.779848	0.444269
H965	H	-0.131614	-0.001457	-0.301605
H966	H	0.118386	0.248543	-0.051605
H967	H	0.368386	0.498543	0.198395
H968	H	0.618386	0.748543	0.448395
H969	H	-0.134122	0.037539	-0.335906
H970	H	0.115878	0.287539	-0.085906
H971	H	0.365878	0.537539	0.164094
H972	H	0.615878	0.787539	0.414094
H973	H	-0.097309	0.037550	-0.299201
H974	H	0.152691	0.287550	-0.049201
H975	H	0.402691	0.537550	0.200799
H976	H	0.652691	0.787550	0.450799
H977	H	-0.268417	0.597116	-1.045492
H978	H	-0.018417	0.847116	-0.795492
H979	H	0.231583	1.097116	-0.545492
H980	H	0.481583	1.347116	-0.295492
H981	H	-0.603363	0.568396	-0.135585
H982	H	-0.353363	0.818396	0.114415
H983	H	-0.103363	1.068396	0.364415
H984	H	0.146637	1.318396	0.614415
C985	C	-0.596499	0.738185	-0.305682
C986	C	-0.346499	0.988185	-0.055682
C987	C	-0.096499	1.238185	0.194318
C988	C	0.153501	1.488185	0.444318
H989	H	-0.617170	0.755286	-0.322816
H990	H	-0.367170	1.005286	-0.072816
H991	H	-0.117170	1.255286	0.177184
H992	H	0.132830	1.505286	0.427184
H993	H	-0.578181	0.757767	-0.288518
H994	H	-0.328181	1.007767	-0.038518
H995	H	-0.078181	1.257767	0.211482
H996	H	0.171819	1.507767	0.461482
H997	H	-0.578209	0.720973	-0.325237
H998	H	-0.328209	0.970973	-0.075237
H999	H	-0.078209	1.220973	0.174763
H1000	H	0.171791	1.470973	0.424763
C1001	C	-0.156100	0.709565	-0.381289
C1002	C	0.093900	0.959565	-0.131289
C1003	C	0.343900	1.209565	0.118711
C1004	C	0.593900	1.459565	0.368711
H1005	H	-0.138982	0.726684	-0.401983
H1006	H	0.111018	0.976684	-0.151983
H1007	H	0.361018	1.226684	0.098017
H1008	H	0.611018	1.476684	0.348017
H1009	H	-0.173287	0.729129	-0.362990
H1010	H	0.076713	0.979129	-0.112990
H1011	H	0.326713	1.229129	0.137010
H1012	H	0.576713	1.479129	0.387010
H1013	H	-0.136527	0.692386	-0.362982
H1014	H	0.113473	0.942386	-0.112982
H1015	H	0.363473	1.192386	0.137018
H1016	H	0.613473	1.442386	0.387018
H1017	H	-0.268431	0.597099	-0.960385
H1018	H	-0.018431	0.847099	-0.710385
H1019	H	0.231569	1.097099	-0.460385
H1020	H	0.481569	1.347099	-0.210385
H1021	H	-0.688469	0.568416	-0.135585
H1022	H	-0.438469	0.818416	0.114415
H1023	H	-0.188469	1.068416	0.364415
H1024	H	0.061531	1.318416	0.614415
H1025	H	-0.164163	0.701427	-1.045509
H1026	H	0.085837	0.951427	-0.795509
H1027	H	0.335837	1.201427	-0.545509
H1028	H	0.585837	1.451427	-0.295509
