data_functionalizedCrystal
_audit_creation_method	'MofGen! by Chris Wilmer'
_symmetry_space_group_name_H-M	'P1'
_symmetry_Int_Tables_number	1
_symmetry_cell_setting	triclinic
loop_
_symmetry_equiv_pos_as_xyz
  x,y,z
_cell_length_a	16.992694
_cell_length_b	15.455313
_cell_length_c	16.992695
_cell_angle_alpha	87.152573
_cell_angle_beta	90.668223
_cell_angle_gamma	92.857794
loop_
_atom_site_label
_atom_site_type_symbol
_atom_site_fract_x
_atom_site_fract_y
_atom_site_fract_z
O1	O	1.054080	0.072023	0.163694
O2	O	1.554080	0.572023	0.663694
O3	O	0.825681	0.072048	0.161862
O4	O	1.325681	0.572048	0.661862
O5	O	0.938965	0.072029	0.048579
O6	O	1.438965	0.572029	0.548579
O7	O	0.940797	0.072042	0.276978
O8	O	1.440797	0.572042	0.776978
O9	O	0.932485	-0.072232	0.055028
O10	O	1.432485	0.427768	0.555028
O11	O	0.819202	-0.072213	0.168312
O12	O	1.319202	0.427787	0.668312
O13	O	1.047601	-0.072238	0.170144
O14	O	1.547601	0.427762	0.670144
Cu15	Cu	0.932809	-0.085398	0.169817
Cu16	Cu	1.432809	0.414602	0.669817
Cu17	Cu	0.940473	0.085207	0.162189
Cu18	Cu	1.440473	0.585207	0.662189
O19	O	0.934317	-0.072219	0.283428
O20	O	1.434317	0.427781	0.783428
C21	C	0.793081	-0.000079	0.162731
C22	C	1.293081	0.499921	0.662731
C23	C	0.705597	-0.000070	0.155702
C24	C	1.205597	0.499930	0.655702
N25	N	0.927425	-0.205392	0.175181
N26	N	1.427425	0.294608	0.675181
C27	C	0.659607	-0.000066	0.223520
C28	C	1.159607	0.499934	0.723520
C29	C	0.577405	-0.000079	0.216911
C30	C	1.077405	0.499921	0.716911
C31	C	0.541197	-0.000088	0.142484
C32	C	1.041197	0.499912	0.642484
C33	C	0.587193	-0.000094	0.074661
C34	C	1.087193	0.499906	0.574661
C35	C	0.669393	-0.000088	0.081271
C36	C	1.169393	0.499912	0.581271
C37	C	0.295881	-0.000113	0.115091
C38	C	0.795881	0.499887	0.615091
C39	C	0.213676	-0.000116	0.108486
C40	C	0.713676	0.499884	0.608486
C41	C	0.203893	-0.000103	0.250737
C42	C	0.703893	0.499897	0.750737
C43	C	0.286095	-0.000091	0.257340
C44	C	0.786095	0.499909	0.757340
C45	C	0.332084	-0.000102	0.189517
C46	C	0.832084	0.499898	0.689517
N47	N	0.457174	-0.000098	0.135727
N48	N	0.957174	0.499902	0.635727
N49	N	0.416105	-0.000098	0.196275
N50	N	0.916105	0.499902	0.696275
C51	C	0.975571	-0.250795	0.127074
C52	C	1.475571	0.249205	0.627074
C53	C	0.971507	-0.341602	0.131139
C54	C	1.471507	0.158398	0.631139
C55	C	0.919301	-0.387005	0.183315
C56	C	1.419301	0.112995	0.683315
C57	C	0.871149	-0.341596	0.231424
C58	C	1.371149	0.158404	0.731424
C59	C	0.875210	-0.250791	0.227355
C60	C	1.375210	0.249209	0.727355
C61	C	0.901772	-0.658584	0.200858
C62	C	1.401772	-0.158584	0.700858
C63	C	0.897717	-0.749395	0.204926
C64	C	1.397717	-0.249395	0.704926
C65	C	0.998074	-0.749395	0.104639
C66	C	1.498074	-0.249395	0.604639
C67	C	1.002133	-0.658588	0.100578
C68	C	1.502133	-0.158588	0.600578
C69	C	0.953979	-0.613187	0.148684
C70	C	1.453979	-0.113187	0.648684
N71	N	0.915147	-0.479825	0.187473
N72	N	1.415147	0.020175	0.687473
N73	N	0.958129	-0.520369	0.144522
N74	N	1.458129	-0.020369	0.644522
C75	C	1.080201	-0.000109	0.169275
C76	C	1.580201	0.499891	0.669275
C77	C	1.167685	-0.000113	0.176304
C78	C	1.667685	0.499887	0.676304
C79	C	0.933369	-0.000102	0.022443
C80	C	1.433369	0.499898	0.522443
C81	C	0.926341	-0.000101	-0.065041
C82	C	1.426341	0.499899	0.434959
N83	N	0.945863	0.205202	0.156819
N84	N	1.445863	0.705202	0.656819
C85	C	0.994158	-0.000109	-0.111032
C86	C	1.494158	0.499891	0.388968
C87	C	0.987550	-0.000100	-0.193233
C88	C	1.487550	0.499900	0.306767
C89	C	0.913123	-0.000089	-0.229442
C90	C	1.413123	0.499911	0.270558
C91	C	0.845300	-0.000078	-0.183445
C92	C	1.345300	0.499922	0.316555
C93	C	0.851910	-0.000081	-0.101246
C94	C	1.351910	0.499919	0.398754
C95	C	0.885729	-0.000074	-0.474757
C96	C	1.385729	0.499926	0.025243
C97	C	0.879124	-0.000074	-0.556962
C98	C	1.379124	0.499926	-0.056962
C99	C	1.021375	-0.000094	-0.566744
C100	C	1.521375	0.499906	-0.066744
C101	C	1.027977	-0.000102	-0.484543
C102	C	1.527977	0.499898	0.015457
C103	C	0.960155	-0.000087	-0.438554
C104	C	1.460155	0.499913	0.061446
N105	N	0.906366	-0.000082	-0.313464
N106	N	1.406366	0.499918	0.186536
N107	N	0.966913	-0.000087	-0.354533
N108	N	1.466913	0.499913	0.145467
C109	C	0.939913	-0.000087	0.309563
C110	C	1.439913	0.499913	0.809563
C111	C	0.946942	-0.000082	0.397047
C112	C	1.446942	0.499918	0.897047
H113	H	0.689081	-0.000058	0.284126
H114	H	1.189081	0.499942	0.784126
H115	H	1.088584	-0.000112	-0.455068
H116	H	1.588584	0.499888	0.044932
H117	H	1.076591	-0.000106	-0.604197
H118	H	1.576591	0.499894	-0.104197
H119	H	0.796685	-0.000073	-0.063801
H120	H	1.296685	0.499927	0.436199
H121	H	0.706838	-0.000090	0.026046
H122	H	1.206838	0.499910	0.526046
H123	H	0.539963	-0.000075	0.272136
H124	H	1.039963	0.499925	0.772136
N125	N	0.765022	-0.000072	-0.222492
N126	N	1.265022	0.499928	0.277508
H127	H	0.737480	0.053409	-0.208437
H128	H	1.237480	0.553409	0.291563
H129	H	0.771186	-0.000109	-0.281532
H130	H	1.271186	0.499891	0.218468
N131	N	0.154288	-0.000122	0.323884
N132	N	0.654288	0.499878	0.823884
H133	H	0.189699	-0.000121	0.372036
H134	H	0.689699	0.499879	0.872036
H135	H	0.122356	0.053349	0.321862
H136	H	0.622356	0.553349	0.821862
N137	N	0.174619	-0.000121	0.028207
N138	N	0.674619	0.499879	0.528207
H139	H	0.216226	-0.000128	-0.013756
H140	H	0.716226	0.499872	0.486244
H141	H	0.138328	-0.053600	0.024762
H142	H	0.638328	0.446400	0.524762
N143	N	0.345478	-0.000130	0.041943
N144	N	0.845478	0.499870	0.541943
H145	H	0.310064	-0.000135	-0.006207
H146	H	0.810064	0.499865	0.493793
H147	H	0.382195	0.053348	0.039188
H148	H	0.882195	0.553348	0.539188
H149	H	0.315570	-0.000074	0.317946
H150	H	0.815570	0.499926	0.817946
N151	N	0.798846	-0.000060	-0.596019
N152	N	1.298846	0.499940	-0.096019
H153	H	0.756883	-0.000048	-0.554413
H154	H	1.256883	0.499952	-0.054413
H155	H	0.795415	0.053419	-0.632301
H156	H	1.295415	0.553419	-0.132301
H157	H	0.862564	-0.621625	0.240030
H158	H	1.362564	-0.121625	0.740030
N159	N	1.023456	-0.390558	0.079261
N160	N	1.523456	0.109442	0.579261
H161	H	0.989526	-0.428246	0.044178
H162	H	1.489526	0.071754	0.544178
H163	H	1.057136	-0.347949	0.045655
H164	H	1.557136	0.152051	0.545655
H165	H	0.557705	-0.000114	0.014061
H166	H	1.057705	0.499886	0.514061
H167	H	1.054764	-0.000124	-0.081557
H168	H	1.554764	0.499876	0.418443
H169	H	1.018087	-0.213834	0.084591
H170	H	1.518087	0.286166	0.584591
H171	H	1.044644	-0.621622	0.058092
H172	H	1.544644	-0.121622	0.558092
H173	H	1.037278	-0.786369	0.065473
H174	H	1.537278	-0.286369	0.565473
H175	H	0.855202	-0.786359	0.247417
H176	H	1.355202	-0.286359	0.747417
H177	H	0.828638	-0.378569	0.273904
H178	H	1.328638	0.121431	0.773904
N179	N	0.823278	-0.201816	0.279236
N180	N	1.323278	0.298184	0.779236
H181	H	0.789589	-0.244356	0.312908
H182	H	1.289589	0.255644	0.812908
H183	H	0.857274	-0.164127	0.314256
H184	H	1.357274	0.335873	0.814256
N185	N	1.060695	-0.000114	-0.242838
N186	N	1.560695	0.499886	0.257162
H187	H	1.108846	-0.000130	-0.207426
H188	H	1.608846	0.499870	0.292574
H189	H	1.058642	-0.053594	-0.274768
H190	H	1.558642	0.446406	0.225232
N191	N	0.812581	-0.000061	-0.425160
N192	N	1.312581	0.499939	0.074840
H193	H	0.764431	-0.000058	-0.460574
H194	H	1.264431	0.499942	0.039426
H195	H	0.809821	-0.053540	-0.388454
H196	H	1.309821	0.446460	0.111546
