data_functionalizedCrystal
_audit_creation_method	'MofGen! by Chris Wilmer'
_symmetry_space_group_name_H-M	'P1'
_symmetry_Int_Tables_number	1
_symmetry_cell_setting	triclinic
loop_
_symmetry_equiv_pos_as_xyz
  x,y,z
_cell_length_a	29.839131
_cell_length_b	29.839134
_cell_length_c	29.839125
_cell_angle_alpha	89.978020
_cell_angle_beta	90.017709
_cell_angle_gamma	89.963719
loop_
_atom_site_label
_atom_site_type_symbol
_atom_site_fract_x
_atom_site_fract_y
_atom_site_fract_z
Zn1	Zn	-0.178978	-0.686720	0.254125
Zn2	Zn	0.071022	-0.436720	0.504125
Zn3	Zn	0.321022	-0.186720	0.754125
Zn4	Zn	0.571022	0.063280	1.004125
Zn5	Zn	-0.254090	-0.686652	0.178995
Zn6	Zn	-0.004090	-0.436652	0.428995
Zn7	Zn	0.245910	-0.186652	0.678995
Zn8	Zn	0.495910	0.063348	0.928995
Zn9	Zn	-0.178968	-0.611602	0.178995
Zn10	Zn	0.071032	-0.361602	0.428995
Zn11	Zn	0.321032	-0.111602	0.678995
Zn12	Zn	0.571032	0.138398	0.928995
Zn13	Zn	-0.254075	-0.611550	0.254083
Zn14	Zn	-0.004075	-0.361550	0.504083
Zn15	Zn	0.245925	-0.111550	0.754083
Zn16	Zn	0.495925	0.138450	1.004083
O17	O	-0.216528	-0.649131	0.216549
O18	O	0.033472	-0.399131	0.466549
O19	O	0.283472	-0.149131	0.716549
O20	O	0.533472	0.100869	0.966549
O21	O	-0.188952	-0.749578	0.244176
O22	O	0.061048	-0.499578	0.494176
O23	O	0.311048	-0.249578	0.744176
O24	O	0.561048	0.000422	0.994176
O25	O	-0.244127	-0.676690	0.116128
O26	O	0.005873	-0.426690	0.366128
O27	O	0.255873	-0.176690	0.616128
O28	O	0.505873	0.073310	0.866128
O29	O	-0.116102	-0.621617	0.188978
O30	O	0.133898	-0.371617	0.438978
O31	O	0.383898	-0.121617	0.688978
O32	O	0.633898	0.128383	0.938978
O33	O	-0.244137	-0.749528	0.188979
O34	O	0.005863	-0.499528	0.438979
O35	O	0.255863	-0.249528	0.688979
O36	O	0.505863	0.000472	0.938979
O37	O	-0.116109	-0.676805	0.244176
O38	O	0.133891	-0.426805	0.494176
O39	O	0.383891	-0.176805	0.744176
O40	O	0.633891	0.073195	0.994176
O41	O	-0.188935	-0.621551	0.116127
O42	O	0.061065	-0.371551	0.366127
O43	O	0.311065	-0.121551	0.616127
O44	O	0.561065	0.128449	0.866127
O45	O	-0.188921	-0.548728	0.188938
O46	O	0.061079	-0.298728	0.438938
O47	O	0.311079	-0.048728	0.688938
O48	O	0.561079	0.201272	0.938938
O49	O	-0.244111	-0.621528	0.316956
O50	O	0.005889	-0.371528	0.566956
O51	O	0.255889	-0.121528	0.816956
O52	O	0.505889	0.128472	1.066956
O53	O	-0.244101	-0.548690	0.244105
O54	O	0.005899	-0.298690	0.494105
O55	O	0.255899	-0.048690	0.744105
O56	O	0.505899	0.201310	0.994105
O57	O	-0.188937	-0.676755	0.316987
O58	O	0.061063	-0.426755	0.566987
O59	O	0.311063	-0.176755	0.816987
O60	O	0.561063	0.073245	1.066987
O61	O	-0.316955	-0.676639	0.188938
O62	O	-0.066955	-0.426639	0.438938
O63	O	0.183045	-0.176639	0.688938
O64	O	0.433045	0.073361	0.938938
O65	O	-0.316944	-0.621462	0.244105
O66	O	-0.066944	-0.371462	0.494105
O67	O	0.183056	-0.121462	0.744105
O68	O	0.433056	0.128538	0.994105
C69	C	-0.333250	-0.649050	0.216527
C70	C	-0.083250	-0.399050	0.466527
C71	C	0.166750	-0.149050	0.716527
C72	C	0.416750	0.100950	0.966527
C73	C	-0.383185	-0.649056	0.216533
C74	C	-0.133185	-0.399056	0.466533
C75	C	0.116815	-0.149056	0.716533
C76	C	0.366815	0.100944	0.966533
C77	C	-0.216509	-0.532408	0.216517
C78	C	0.033491	-0.282408	0.466517
C79	C	0.283491	-0.032408	0.716517
C80	C	0.533491	0.217592	0.966517
C81	C	-0.216511	-0.482474	0.216514
C82	C	0.033489	-0.232474	0.466514
C83	C	0.283489	0.017526	0.716514
C84	C	0.533489	0.267526	0.966514
C85	C	-0.692821	-0.677914	0.187866
C86	C	-0.442821	-0.427914	0.437866
C87	C	-0.192821	-0.177914	0.687866
C88	C	0.057179	0.072086	0.937866
C89	C	-0.880494	-0.677969	0.187883
C90	C	-0.630494	-0.427969	0.437883
C91	C	-0.380494	-0.177969	0.687883
C92	C	-0.130494	0.072031	0.937883
O93	O	-0.904753	-0.702441	0.163493
O94	O	-0.654753	-0.452441	0.413493
O95	O	-0.404753	-0.202441	0.663493
O96	O	-0.154753	0.047559	0.913493
N97	N	-0.903970	-0.649224	0.216583
N98	N	-0.653970	-0.399224	0.466583
N99	N	-0.403970	-0.149224	0.716583
N100	N	-0.153970	0.100776	0.966583
C101	C	-0.880524	-0.620465	0.245283
C102	C	-0.630524	-0.370465	0.495283
C103	C	-0.380524	-0.120465	0.745283
C104	C	-0.130524	0.129535	0.995283
O105	O	-0.904798	-0.596020	0.269698
O106	O	-0.654798	-0.346020	0.519698
O107	O	-0.404798	-0.096020	0.769698
O108	O	-0.154798	0.153980	1.019698
C109	C	-0.692852	-0.620412	0.245268
C110	C	-0.442852	-0.370412	0.495268
C111	C	-0.192852	-0.120412	0.745268
C112	C	0.057148	0.129588	0.995268
C113	C	-0.669379	-0.649156	0.216563
C114	C	-0.419379	-0.399156	0.466563
C115	C	-0.169379	-0.149156	0.716563
C116	C	0.080621	0.100844	0.966563
C117	C	-0.669348	-0.706656	0.159164
C118	C	-0.419348	-0.456656	0.409164
C119	C	-0.169348	-0.206656	0.659164
C120	C	0.080652	0.043344	0.909164
C121	C	-0.622433	-0.706640	0.159158
C122	C	-0.372433	-0.456640	0.409158
C123	C	-0.122433	-0.206640	0.659158
C124	C	0.127567	0.043360	0.909158
C125	C	-0.598990	-0.677882	0.187854
C126	C	-0.348990	-0.427882	0.437854
C127	C	-0.098990	-0.177882	0.687854
C128	C	0.151010	0.072118	0.937854
C129	C	-0.622463	-0.649140	0.216557
C130	C	-0.372463	-0.399140	0.466557
C131	C	-0.122463	-0.149140	0.716557
C132	C	0.127537	0.100860	0.966557
C133	C	-0.669407	-0.591656	0.273969
C134	C	-0.419407	-0.341656	0.523969
C135	C	-0.169407	-0.091656	0.773969
C136	C	0.080593	0.158344	1.023969
C137	C	-0.622486	-0.591646	0.273964
C138	C	-0.372486	-0.341646	0.523964
C139	C	-0.122486	-0.091646	0.773964
C140	C	0.127514	0.158354	1.023964
C141	C	-0.599013	-0.620390	0.245259
C142	C	-0.349013	-0.370390	0.495259
C143	C	-0.099013	-0.120390	0.745259
C144	C	0.150987	0.129610	0.995259
C145	C	-0.552106	-0.620367	0.245248
C146	C	-0.302106	-0.370367	0.495248
C147	C	-0.052106	-0.120367	0.745248
C148	C	0.197894	0.129633	0.995248
N149	N	-0.528630	-0.649112	0.216548
N150	N	-0.278630	-0.399112	0.466548
N151	N	-0.028630	-0.149112	0.716548
N152	N	0.221370	0.100888	0.966548
C153	C	-0.552072	-0.677869	0.187851
C154	C	-0.302072	-0.427869	0.437851
C155	C	-0.052072	-0.177869	0.687851
C156	C	0.197928	0.072131	0.937851
C157	C	-0.979055	-0.620494	0.245289
C158	C	-0.729055	-0.370494	0.495289
C159	C	-0.479055	-0.120494	0.745289
C160	C	-0.229055	0.129506	0.995289
C161	C	-1.025973	-0.620507	0.245292
C162	C	-0.775973	-0.370507	0.495292
C163	C	-0.525973	-0.120507	0.745292
C164	C	-0.275973	0.129493	0.995292
C165	C	-1.025939	-0.678012	0.187893
C166	C	-0.775939	-0.428012	0.437893
C167	C	-0.525939	-0.178012	0.687893
C168	C	-0.275939	0.071988	0.937893
C169	C	-0.979021	-0.677996	0.187887
C170	C	-0.729021	-0.427996	0.437887
C171	C	-0.479021	-0.177996	0.687887
C172	C	-0.229021	0.072004	0.937887
C173	C	-0.955579	-0.649239	0.216589
C174	C	-0.705579	-0.399239	0.466589
C175	C	-0.455579	-0.149239	0.716589
C176	C	-0.205579	0.100761	0.966589
C177	C	-0.453547	-0.677834	0.187841
C178	C	-0.203547	-0.427834	0.437841
C179	C	0.046453	-0.177834	0.687841
C180	C	0.296453	0.072166	0.937841
C181	C	-0.406627	-0.677814	0.187836
C182	C	-0.156627	-0.427814	0.437836
C183	C	0.093373	-0.177814	0.687836
C184	C	0.343373	0.072186	0.937836
C185	C	-0.406664	-0.620311	0.245237
C186	C	-0.156664	-0.370311	0.495237
C187	C	0.093336	-0.120311	0.745237
C188	C	0.343336	0.129689	0.995237
C189	C	-0.453580	-0.620329	0.245240
C190	C	-0.203580	-0.370329	0.495240
C191	C	0.046420	-0.120329	0.745240
C192	C	0.296420	0.129671	0.995240
C193	C	-0.477020	-0.649094	0.216540
C194	C	-0.227020	-0.399094	0.466540
C195	C	0.022980	-0.149094	0.716540
C196	C	0.272980	0.100906	0.966540
O197	O	-0.527818	-0.595912	0.269629
O198	O	-0.277818	-0.345912	0.519629
O199	O	-0.027818	-0.095912	0.769629
O200	O	0.222182	0.154088	1.019629
O201	O	-0.527791	-0.702318	0.163447
O202	O	-0.277791	-0.452318	0.413447
O203	O	-0.027791	-0.202318	0.663447
O204	O	0.222209	0.047682	0.913447
C205	C	-0.739737	-0.677930	0.187872
C206	C	-0.489737	-0.427930	0.437872
C207	C	-0.239737	-0.177930	0.687872
C208	C	0.010263	0.072070	0.937872
C209	C	-0.763210	-0.649188	0.216574
C210	C	-0.513210	-0.399188	0.466574
C211	C	-0.263210	-0.149188	0.716574
C212	C	-0.013210	0.100812	0.966574
C213	C	-0.739767	-0.620430	0.245271
C214	C	-0.489767	-0.370430	0.495271
C215	C	-0.239767	-0.120430	0.745271
C216	C	0.010233	0.129570	0.995271
C217	C	-0.810128	-0.649200	0.216578
C218	C	-0.560128	-0.399200	0.466578
C219	C	-0.310128	-0.149200	0.716578
C220	C	-0.060128	0.100800	0.966578
C221	C	-0.833570	-0.677958	0.187881
C222	C	-0.583570	-0.427958	0.437881
C223	C	-0.333570	-0.177958	0.687881
C224	C	-0.083570	0.072042	0.937881
C225	C	-0.810094	-0.706703	0.159181
C226	C	-0.560094	-0.456703	0.409181
C227	C	-0.310094	-0.206703	0.659181
C228	C	-0.060094	0.043297	0.909181
C229	C	-0.763179	-0.706687	0.159175
C230	C	-0.513179	-0.456687	0.409175
C231	C	-0.263179	-0.206687	0.659175
C232	C	-0.013179	0.043313	0.909175
C233	C	-0.763243	-0.591685	0.273971
C234	C	-0.513243	-0.341685	0.523971
C235	C	-0.263243	-0.091685	0.773971
C236	C	-0.013243	0.158315	1.023971
C237	C	-0.810158	-0.591703	0.273974
C238	C	-0.560158	-0.341703	0.523974
C239	C	-0.310158	-0.091703	0.773974
C240	C	-0.060158	0.158297	1.023974
C241	C	-0.833601	-0.620461	0.245277
C242	C	-0.583601	-0.370461	0.495277
C243	C	-0.333601	-0.120461	0.745277
C244	C	-0.083601	0.129539	0.995277
C245	C	-0.216524	-0.649143	0.333728
C246	C	0.033476	-0.399143	0.583728
C247	C	0.283476	-0.149143	0.833728
C248	C	0.533476	0.100857	1.083728
C249	C	-0.216522	-0.649148	0.383662
C250	C	0.033478	-0.399148	0.633662
C251	C	0.283478	-0.149148	0.883662
C252	C	0.533478	0.100852	1.133662
C253	C	-0.099349	-0.649225	0.216582
C254	C	0.150651	-0.399225	0.466582
C255	C	0.400651	-0.149225	0.716582
C256	C	0.650651	0.100775	0.966582
C257	C	-0.049415	-0.649265	0.216595
C258	C	0.200585	-0.399265	0.466595
C259	C	0.450585	-0.149265	0.716595
C260	C	0.700585	0.100735	0.966595
C261	C	-0.216547	-0.766309	0.216582
C262	C	0.033453	-0.516309	0.466582
C263	C	0.283453	-0.266309	0.716582
C264	C	0.533453	-0.016309	0.966582
C265	C	-0.216555	-0.816244	0.216596
C266	C	0.033445	-0.566244	0.466596
C267	C	0.283445	-0.316244	0.716596
C268	C	0.533445	-0.066244	0.966596
C269	C	-0.245303	-0.172820	0.245240
C270	C	0.004697	0.077180	0.495240
C271	C	0.254697	0.327180	0.745240
C272	C	0.504697	0.577180	0.995240
C273	C	-0.245315	0.014853	0.245260
C274	C	0.004685	0.264853	0.495260
C275	C	0.254685	0.514853	0.745260
C276	C	0.504685	0.764853	0.995260
O277	O	-0.269774	0.039127	0.269665
O278	O	-0.019774	0.289127	0.519665
O279	O	0.230226	0.539127	0.769665
O280	O	0.480226	0.789127	1.019665
N281	N	-0.216544	0.038311	0.216583
N282	N	0.033456	0.288311	0.466583
N283	N	0.283456	0.538311	0.716583
N284	N	0.533456	0.788311	0.966583
C285	C	-0.187766	0.014848	0.187902
C286	C	0.062234	0.264848	0.437902
C287	C	0.312234	0.514848	0.687902
C288	C	0.562234	0.764848	0.937902
O289	O	-0.163291	0.039107	0.163514
O290	O	0.086709	0.289107	0.413514
O291	O	0.336709	0.539107	0.663514
O292	O	0.586709	0.789107	0.913514
C293	C	-0.187751	-0.172824	0.187884
C294	C	0.062249	0.077176	0.437884
C295	C	0.312249	0.327176	0.687884
C296	C	0.562249	0.577176	0.937884
C297	C	-0.216527	-0.196280	0.216560
C298	C	0.033473	0.053720	0.466560
C299	C	0.283473	0.303720	0.716560
C300	C	0.533473	0.553720	0.966560
C301	C	-0.274076	-0.196276	0.273913
C302	C	-0.024076	0.053724	0.523913
C303	C	0.225924	0.303724	0.773913
C304	C	0.475924	0.553724	1.023913
C305	C	-0.274075	-0.243191	0.273906
C306	C	-0.024075	0.006809	0.523906
C307	C	0.225925	0.256809	0.773906
C308	C	0.475925	0.506809	1.023906
C309	C	-0.245299	-0.266651	0.245226
C310	C	0.004701	-0.016651	0.495226
C311	C	0.254701	0.233349	0.745226
C312	C	0.504701	0.483349	0.995226
C313	C	-0.216526	-0.243195	0.216553
C314	C	0.033474	0.006805	0.466553
C315	C	0.283474	0.256805	0.716553
C316	C	0.533474	0.506805	0.966553
C317	C	-0.158971	-0.196286	0.159205
C318	C	0.091029	0.053714	0.409205
C319	C	0.341029	0.303714	0.659205
C320	C	0.591029	0.553714	0.909205
C321	C	-0.158969	-0.243207	0.159204
C322	C	0.091031	0.006793	0.409204
C323	C	0.341031	0.256793	0.659204
C324	C	0.591031	0.506793	0.909204
C325	C	-0.187745	-0.266663	0.187880
C326	C	0.062255	-0.016663	0.437880
C327	C	0.312255	0.233337	0.687880
C328	C	0.562255	0.483337	0.937880
C329	C	-0.187749	-0.313570	0.187865
C330	C	0.062251	-0.063570	0.437865
C331	C	0.312251	0.186430	0.687865
C332	C	0.562251	0.436430	0.937865
N333	N	-0.216520	-0.337029	0.216542
N334	N	0.033480	-0.087029	0.466542
N335	N	0.283480	0.162971	0.716542
N336	N	0.533480	0.412971	0.966542
C337	C	-0.245295	-0.313569	0.245222
C338	C	0.004705	-0.063569	0.495222
C339	C	0.254705	0.186431	0.745222
C340	C	0.504705	0.436431	0.995222
C341	C	-0.187776	0.113379	0.187912
C342	C	0.062224	0.363379	0.437912
C343	C	0.312224	0.613379	0.687912
C344	C	0.562224	0.863379	0.937912
C345	C	-0.187780	0.160297	0.187916
C346	C	0.062220	0.410297	0.437916
C347	C	0.312220	0.660297	0.687916
C348	C	0.562220	0.910297	0.937916
C349	C	-0.245329	0.160298	0.245275
C350	C	0.004671	0.410298	0.495275
C351	C	0.254671	0.660298	0.745275
C352	C	0.504671	0.910298	0.995275
C353	C	-0.245327	0.113380	0.245269
C354	C	0.004673	0.363380	0.495269
C355	C	0.254673	0.613380	0.745269
C356	C	0.504673	0.863380	0.995269
C357	C	-0.216547	0.089921	0.216589
C358	C	0.033453	0.339921	0.466589
C359	C	0.283453	0.589921	0.716589
C360	C	0.533453	0.839921	0.966589
C361	C	-0.245290	-0.412095	0.245205
C362	C	0.004710	-0.162095	0.495205
C363	C	0.254710	0.087905	0.745205
C364	C	0.504710	0.337905	0.995205
C365	C	-0.245287	-0.459014	0.245194
C366	C	0.004713	-0.209014	0.495194
C367	C	0.254713	0.040986	0.745194
C368	C	0.504713	0.290986	0.995194
C369	C	-0.187736	-0.459012	0.187837
C370	C	0.062264	-0.209012	0.437837
C371	C	0.312264	0.040988	0.687837
C372	C	0.562264	0.290988	0.937837
C373	C	-0.187740	-0.412096	0.187846
C374	C	0.062260	-0.162096	0.437846
C375	C	0.312260	0.087904	0.687846
C376	C	0.562260	0.337904	0.937846
C377	C	-0.216519	-0.388639	0.216534
C378	C	0.033481	-0.138639	0.466534
C379	C	0.283481	0.111361	0.716534
C380	C	0.533481	0.361361	0.966534
O381	O	-0.163299	-0.337873	0.163477
O382	O	0.086701	-0.087873	0.413477
O383	O	0.336701	0.162127	0.663477
O384	O	0.586701	0.412127	0.913477
O385	O	-0.269759	-0.337836	0.269613
O386	O	-0.019759	-0.087836	0.519613
O387	O	0.230241	0.162164	0.769613
O388	O	0.480241	0.412164	1.019613
C389	C	-0.245304	-0.125905	0.245247
C390	C	0.004696	0.124095	0.495247
C391	C	0.254696	0.374095	0.745247
C392	C	0.504696	0.624095	0.995247
C393	C	-0.216531	-0.102449	0.216574
C394	C	0.033469	0.147551	0.466574
C395	C	0.283469	0.397551	0.716574
C396	C	0.533469	0.647551	0.966574
C397	C	-0.187755	-0.125909	0.187893
C398	C	0.062245	0.124091	0.437893
C399	C	0.312245	0.374091	0.687893
C400	C	0.562245	0.624091	0.937893
C401	C	-0.216535	-0.055531	0.216577
C402	C	0.033465	0.194469	0.466577
C403	C	0.283465	0.444469	0.716577
C404	C	0.533465	0.694469	0.966577
C405	C	-0.245310	-0.032071	0.245258
C406	C	0.004690	0.217929	0.495258
C407	C	0.254690	0.467929	0.745258
C408	C	0.504690	0.717929	0.995258
C409	C	-0.274082	-0.055529	0.273934
C410	C	-0.024082	0.194471	0.523934
C411	C	0.225918	0.444471	0.773934
C412	C	0.475918	0.694471	1.023934
C413	C	-0.274080	-0.102445	0.273927
C414	C	-0.024080	0.147555	0.523927
C415	C	0.225920	0.397555	0.773927
C416	C	0.475920	0.647555	1.023927
C417	C	-0.158984	-0.102451	0.159217
C418	C	0.091016	0.147549	0.409217
C419	C	0.341016	0.397549	0.659217
C420	C	0.591016	0.647549	0.909217
C421	C	-0.158989	-0.055535	0.159226
C422	C	0.091011	0.194465	0.409226
C423	C	0.341011	0.444465	0.659226
C424	C	0.591011	0.694465	0.909226
C425	C	-0.187764	-0.032075	0.187906
C426	C	0.062236	0.217925	0.437906
C427	C	0.312236	0.467925	0.687906
C428	C	0.562236	0.717925	0.937906
C429	C	-0.216499	-0.649145	0.099827
C430	C	0.033501	-0.399145	0.349827
C431	C	0.283501	-0.149145	0.599827
C432	C	0.533501	0.100855	0.849827
C433	C	-0.216374	-0.649227	0.049893
C434	C	0.033626	-0.399227	0.299893
C435	C	0.283626	-0.149227	0.549893
C436	C	0.533626	0.100773	0.799893
C437	C	-0.187718	-0.677935	0.693325
C438	C	0.062282	-0.427935	0.943325
C439	C	0.312282	-0.177935	1.193325
C440	C	0.562282	0.072065	1.443325
C441	C	-0.187680	-0.677957	0.880998
C442	C	0.062320	-0.427957	1.130998
C443	C	0.312320	-0.177957	1.380998
C444	C	0.562320	0.072043	1.630998
O445	O	-0.163232	-0.702399	0.905279
O446	O	0.086768	-0.452399	1.155279
O447	O	0.336768	-0.202399	1.405279
O448	O	0.586768	0.047601	1.655279
N449	N	-0.216402	-0.649208	0.904448
N450	N	0.033598	-0.399208	1.154448
N451	N	0.283598	-0.149208	1.404448
N452	N	0.533598	0.100792	1.654448
C453	C	-0.245133	-0.620449	0.880976
C454	C	0.004867	-0.370449	1.130976
C455	C	0.254867	-0.120449	1.380976
C456	C	0.504867	0.129551	1.630976
O457	O	-0.269559	-0.595993	0.905228
O458	O	-0.019559	-0.345993	1.155228
O459	O	0.230441	-0.095993	1.405228
O460	O	0.480441	0.154007	1.655228
C461	C	-0.245169	-0.620424	0.693304
C462	C	0.004831	-0.370424	0.943304
C463	C	0.254831	-0.120424	1.193304
C464	C	0.504831	0.129576	1.443304
C465	C	-0.216448	-0.649179	0.669857
C466	C	0.033552	-0.399179	0.919857
C467	C	0.283552	-0.149179	1.169857
C468	C	0.533552	0.100821	1.419857
C469	C	-0.158999	-0.706687	0.669877
C470	C	0.091001	-0.456687	0.919877
C471	C	0.341001	-0.206687	1.169877
C472	C	0.591001	0.043313	1.419877
C473	C	-0.159011	-0.706683	0.622962
C474	C	0.090989	-0.456683	0.872962
C475	C	0.340989	-0.206683	1.122962
C476	C	0.590989	0.043317	1.372962
C477	C	-0.187741	-0.677927	0.599494
C478	C	0.062259	-0.427927	0.849494
C479	C	0.312259	-0.177927	1.099494
C480	C	0.562259	0.072073	1.349494
C481	C	-0.216460	-0.649175	0.622941
C482	C	0.033540	-0.399175	0.872941
C483	C	0.283540	-0.149175	1.122941
C484	C	0.533540	0.100825	1.372941
C485	C	-0.273898	-0.591663	0.669833
C486	C	-0.023898	-0.341663	0.919833
C487	C	0.226102	-0.091663	1.169833
C488	C	0.476102	0.158337	1.419833
C489	C	-0.273903	-0.591659	0.622912
C490	C	-0.023903	-0.341659	0.872912
C491	C	0.226097	-0.091659	1.122912
C492	C	0.476097	0.158341	1.372912
C493	C	-0.245183	-0.620414	0.599465
C494	C	0.004817	-0.370414	0.849465
C495	C	0.254817	-0.120414	1.099465
C496	C	0.504817	0.129586	1.349465
C497	C	-0.245202	-0.620415	0.552558
C498	C	0.004798	-0.370415	0.802558
C499	C	0.254798	-0.120415	1.052558
C500	C	0.504798	0.129585	1.302558
N501	N	-0.216480	-0.649164	0.529108
N502	N	0.033520	-0.399164	0.779108
N503	N	0.283520	-0.149164	1.029108
N504	N	0.533520	0.100836	1.279108
C505	C	-0.187749	-0.677920	0.552576
C506	C	0.062251	-0.427920	0.802576
C507	C	0.312251	-0.177920	1.052576
C508	C	0.562251	0.072080	1.302576
C509	C	-0.245113	-0.620464	0.979507
C510	C	0.004887	-0.370464	1.229507
C511	C	0.254887	-0.120464	1.479507
C512	C	0.504887	0.129536	1.729507
C513	C	-0.245105	-0.620471	1.026425
C514	C	0.004895	-0.370471	1.276425
C515	C	0.254895	-0.120471	1.526425
C516	C	0.504895	0.129529	1.776425
C517	C	-0.187650	-0.677979	1.026443
C518	C	0.062350	-0.427979	1.276443
C519	C	0.312350	-0.177979	1.526443
C520	C	0.562350	0.072021	1.776443
C521	C	-0.187661	-0.677974	0.979524
C522	C	0.062339	-0.427974	1.229524
C523	C	0.312339	-0.177974	1.479524
C524	C	0.562339	0.072026	1.729524
C525	C	-0.216391	-0.649214	0.956057
C526	C	0.033609	-0.399214	1.206057
C527	C	0.283609	-0.149214	1.456057
C528	C	0.533609	0.100786	1.706057
C529	C	-0.187776	-0.677910	0.454050
C530	C	0.062224	-0.427910	0.704050
C531	C	0.312224	-0.177910	0.954050
C532	C	0.562224	0.072090	1.204050
C533	C	-0.187792	-0.677904	0.407130
C534	C	0.062208	-0.427904	0.657130
C535	C	0.312208	-0.177904	0.907130
C536	C	0.562208	0.072096	1.157130
C537	C	-0.245244	-0.620395	0.407116
C538	C	0.004756	-0.370395	0.657116
C539	C	0.254756	-0.120395	0.907116
C540	C	0.504756	0.129605	1.157116
C541	C	-0.245230	-0.620401	0.454032
C542	C	0.004770	-0.370401	0.704032
C543	C	0.254770	-0.120401	0.954032
C544	C	0.504770	0.129599	1.204032
C545	C	-0.216493	-0.649161	0.477497
C546	C	0.033507	-0.399161	0.727497
C547	C	0.283507	-0.149161	0.977497
C548	C	0.533507	0.100839	1.227497
O549	O	-0.269633	-0.595982	0.528248
O550	O	-0.019633	-0.345982	0.778248
O551	O	0.230367	-0.095982	1.028248
O552	O	0.480367	0.154018	1.278248
O553	O	-0.163320	-0.702366	0.528316
O554	O	0.086680	-0.452366	0.778316
O555	O	0.336680	-0.202366	1.028316
O556	O	0.586680	0.047634	1.278316
C557	C	-0.187706	-0.677939	0.740240
C558	C	0.062294	-0.427939	0.990240
C559	C	0.312294	-0.177939	1.240240
C560	C	0.562294	0.072061	1.490240
C561	C	-0.216425	-0.649187	0.763688
C562	C	0.033575	-0.399187	1.013688
C563	C	0.283575	-0.149187	1.263688
C564	C	0.533575	0.100813	1.513688
C565	C	-0.245155	-0.620431	0.740219
C566	C	0.004845	-0.370431	0.990219
C567	C	0.254845	-0.120431	1.240219
C568	C	0.504845	0.129569	1.490219
C569	C	-0.216417	-0.649194	0.810605
C570	C	0.033583	-0.399194	1.060605
C571	C	0.283583	-0.149194	1.310605
C572	C	0.533583	0.100806	1.560605
C573	C	-0.187686	-0.677950	0.834074
C574	C	0.062314	-0.427950	1.084074
C575	C	0.312314	-0.177950	1.334074
C576	C	0.562314	0.072050	1.584074
C577	C	-0.158964	-0.706699	0.810624
C578	C	0.091036	-0.456699	1.060624
C579	C	0.341036	-0.206699	1.310624
C580	C	0.591036	0.043301	1.560624
C581	C	-0.158976	-0.706695	0.763708
C582	C	0.091024	-0.456695	1.013708
C583	C	0.341024	-0.206695	1.263708
C584	C	0.591024	0.043305	1.513708
C585	C	-0.273877	-0.591682	0.763669
C586	C	-0.023877	-0.341682	1.013669
C587	C	0.226123	-0.091682	1.263669
C588	C	0.476123	0.158318	1.513669
C589	C	-0.273864	-0.591689	0.810585
C590	C	-0.023864	-0.341689	1.060585
C591	C	0.226136	-0.091689	1.310585
C592	C	0.476136	0.158311	1.560585
C593	C	-0.245133	-0.620445	0.834053
C594	C	0.004867	-0.370445	1.084053
C595	C	0.254867	-0.120445	1.334053
C596	C	0.504867	0.129555	1.584053
H597	H	-0.387517	-0.701220	0.164459
H598	H	-0.137517	-0.451220	0.414459
H599	H	0.112483	-0.201220	0.664459
H600	H	0.362483	0.048780	0.914459
H601	H	-1.045034	-0.701427	0.164527
H602	H	-0.795034	-0.451427	0.414527
H603	H	-0.545034	-0.201427	0.664527
H604	H	-0.295034	0.048573	0.914527
H605	H	-0.387570	-0.596895	0.268600
H606	H	-0.137570	-0.346895	0.518600
H607	H	0.112430	-0.096895	0.768600
H608	H	0.362430	0.153105	1.018600
H609	H	-0.297506	-0.262285	0.297258
H610	H	-0.047506	-0.012285	0.547258
H611	H	0.202494	0.237715	0.797258
H612	H	0.452494	0.487715	1.047258
Cl613	Cl	-0.310023	-0.555500	0.593413
Cl614	Cl	-0.060023	-0.305500	0.843413
Cl615	Cl	0.189977	-0.055500	1.093413
Cl616	Cl	0.439977	0.194500	1.343413
H617	H	-0.268759	0.179407	0.268628
H618	H	-0.018759	0.429407	0.518628
H619	H	0.231241	0.679407	0.768628
H620	H	0.481241	0.929407	1.018628
Cl621	Cl	-0.151608	0.189778	0.151860
Cl622	Cl	0.098392	0.439778	0.401860
Cl623	Cl	0.348392	0.689778	0.651860
Cl624	Cl	0.598392	0.939778	0.901860
Cl625	Cl	-0.733677	-0.742826	0.123089
Cl626	Cl	-0.483677	-0.492826	0.373089
Cl627	Cl	-0.233677	-0.242826	0.623089
Cl628	Cl	0.016323	0.007174	0.873089
Cl629	Cl	-1.055476	-0.584365	0.281375
Cl630	Cl	-0.805476	-0.334365	0.531375
Cl631	Cl	-0.555476	-0.084365	0.781375
Cl632	Cl	-0.305476	0.165635	1.031375
Cl633	Cl	-0.122810	-0.026054	0.123172
Cl634	Cl	0.127190	0.223946	0.373172
Cl635	Cl	0.377190	0.473946	0.623172
Cl636	Cl	0.627190	0.723946	0.873172
Cl637	Cl	-0.310257	-0.166792	0.309973
Cl638	Cl	-0.060257	0.083208	0.559973
Cl639	Cl	0.189743	0.333208	0.809973
Cl640	Cl	0.439743	0.583208	1.059973
Cl641	Cl	-0.281359	-0.584245	0.377604
Cl642	Cl	-0.031359	-0.334245	0.627604
Cl643	Cl	0.218641	-0.084245	0.877604
Cl644	Cl	0.468641	0.165755	1.127604
Cl645	Cl	-0.151592	0.083894	0.151854
Cl646	Cl	0.098408	0.333894	0.401854
Cl647	Cl	0.348408	0.583894	0.651854
Cl648	Cl	0.598408	0.833894	0.901854
H649	H	-0.268721	-0.478110	0.268545
H650	H	-0.018721	-0.228110	0.518545
H651	H	0.231279	0.021890	0.768545
H652	H	0.481279	0.271890	1.018545
Cl653	Cl	-0.309976	-0.555539	0.840055
Cl654	Cl	-0.059976	-0.305539	1.090055
Cl655	Cl	0.190024	-0.055539	1.340055
Cl656	Cl	0.440024	0.194461	1.590055
H657	H	-0.135529	-0.262305	0.135852
H658	H	0.114471	-0.012305	0.385852
H659	H	0.364471	0.237695	0.635852
H660	H	0.614471	0.487695	0.885852
Cl661	Cl	-0.698810	-0.742813	0.123083
Cl662	Cl	-0.448810	-0.492813	0.373083
Cl663	Cl	-0.198810	-0.242813	0.623083
Cl664	Cl	0.051190	0.007187	0.873083
H665	H	-0.164309	-0.478121	0.164485
H666	H	0.085691	-0.228121	0.414485
H667	H	0.335691	0.021879	0.664485
H668	H	0.585691	0.271879	0.914485
H669	H	-0.744160	-0.568268	0.297340
H670	H	-0.494160	-0.318268	0.547340
H671	H	-0.244160	-0.068268	0.797340
H672	H	0.005840	0.181732	1.047340
Cl673	Cl	-0.122882	-0.742848	0.699372
Cl674	Cl	0.127118	-0.492848	0.949372
Cl675	Cl	0.377118	-0.242848	1.199372
Cl676	Cl	0.627118	0.007152	1.449372
H677	H	-0.603402	-0.568229	0.297337
H678	H	-0.353402	-0.318229	0.547337
H679	H	-0.103402	-0.068229	0.797337
H680	H	0.146598	0.181771	1.047337
Cl681	Cl	-0.151646	-0.714062	0.483543
Cl682	Cl	0.098354	-0.464062	0.733543
Cl683	Cl	0.348354	-0.214062	0.983543
Cl684	Cl	0.598354	0.035938	1.233543
H685	H	-0.135588	-0.730110	0.744622
H686	H	0.114412	-0.480110	0.994622
H687	H	0.364412	-0.230110	1.244622
H688	H	0.614412	0.019890	1.494622
Cl689	Cl	-0.151571	-0.382608	0.151790
Cl690	Cl	0.098429	-0.132608	0.401790
Cl691	Cl	0.348429	0.117392	0.651790
Cl692	Cl	0.598429	0.367392	0.901790
Cl693	Cl	-0.281503	0.083897	0.281320
Cl694	Cl	-0.031503	0.333897	0.531320
Cl695	Cl	0.218497	0.583897	0.781320
Cl696	Cl	0.468497	0.833897	1.031320
Cl697	Cl	-0.122805	-0.131936	0.123158
Cl698	Cl	0.127195	0.118064	0.373158
Cl699	Cl	0.377195	0.368064	0.623158
Cl700	Cl	0.627195	0.618064	0.873158
H701	H	-0.829189	-0.730117	0.135814
H702	H	-0.579189	-0.480117	0.385814
H703	H	-0.329189	-0.230117	0.635814
H704	H	-0.079189	0.019883	0.885814
Cl705	Cl	-0.483090	-0.584184	0.281317
Cl706	Cl	-0.233090	-0.334184	0.531317
Cl707	Cl	0.016910	-0.084184	0.781317
Cl708	Cl	0.266910	0.165816	1.031317
Cl709	Cl	-0.949592	-0.584338	0.281373
Cl710	Cl	-0.699592	-0.334338	0.531373
Cl711	Cl	-0.449592	-0.084338	0.781373
Cl712	Cl	-0.199592	0.165662	1.031373
Cl713	Cl	-0.151553	-0.714123	0.950053
Cl714	Cl	0.098447	-0.464123	1.200053
Cl715	Cl	0.348447	-0.214123	1.450053
Cl716	Cl	0.598447	0.035877	1.700053
H717	H	-0.297512	-0.121538	0.297278
H718	H	-0.047512	0.128462	0.547278
H719	H	0.202488	0.378462	0.797278
H720	H	0.452488	0.628462	1.047278
Cl721	Cl	-0.281469	-0.382613	0.281269
Cl722	Cl	-0.031469	-0.132613	0.531269
Cl723	Cl	0.218531	0.117387	0.781269
Cl724	Cl	0.468531	0.367387	1.031269
H725	H	-0.297513	-0.036420	0.297286
H726	H	-0.047513	0.213580	0.547286
H727	H	0.202487	0.463580	0.797286
H728	H	0.452487	0.713580	1.047286
Cl729	Cl	-0.839662	-0.555564	0.310064
Cl730	Cl	-0.589662	-0.305564	0.560064
Cl731	Cl	-0.339662	-0.055564	0.810064
Cl732	Cl	-0.089662	0.194436	1.060064
Cl733	Cl	-0.151532	-0.714128	1.055955
Cl734	Cl	0.098468	-0.464128	1.305955
Cl735	Cl	0.348468	-0.214128	1.555955
Cl736	Cl	0.598468	0.035872	1.805955
H737	H	-0.135539	-0.177197	0.135854
H738	H	0.114461	0.072803	0.385854
H739	H	0.364461	0.322803	0.635854
H740	H	0.614461	0.572803	0.885854
H741	H	-0.688511	-0.568248	0.297342
H742	H	-0.438511	-0.318248	0.547342
H743	H	-0.188511	-0.068248	0.797342
H744	H	0.061489	0.181752	1.047342
H745	H	-0.268621	-0.596991	0.473123
H746	H	-0.018621	-0.346991	0.723123
H747	H	0.231379	-0.096991	0.973123
H748	H	0.481379	0.153009	1.223123
H749	H	-0.135573	-0.730115	0.829740
H750	H	0.114427	-0.480115	1.079740
H751	H	0.364427	-0.230115	1.329740
H752	H	0.614427	0.019885	1.579740
H753	H	-0.959912	-0.701402	0.164514
H754	H	-0.709912	-0.451402	0.414514
H755	H	-0.459912	-0.201402	0.664514
H756	H	-0.209912	0.048598	0.914514
H757	H	-0.164403	-0.701321	0.388042
H758	H	0.085597	-0.451321	0.638042
H759	H	0.335597	-0.201321	0.888042
H760	H	0.585597	0.048679	1.138042
Cl761	Cl	-0.592931	-0.742784	0.123076
Cl762	Cl	-0.342931	-0.492784	0.373076
Cl763	Cl	-0.092931	-0.242784	0.623076
Cl764	Cl	0.157069	0.007216	0.873076
Cl765	Cl	-0.122899	-0.742830	0.593492
Cl766	Cl	0.127101	-0.492830	0.843492
Cl767	Cl	0.377101	-0.242830	1.093492
Cl768	Cl	0.627101	0.007170	1.343492
Cl769	Cl	-0.281219	-0.584327	1.055895
Cl770	Cl	-0.031219	-0.334327	1.305895
Cl771	Cl	0.218781	-0.084327	1.555895
Cl772	Cl	0.468781	0.165673	1.805895
H773	H	-0.297274	-0.568265	0.744566
H774	H	-0.047274	-0.318265	0.994566
H775	H	0.202726	-0.068265	1.244566
H776	H	0.452726	0.181735	1.494566
H777	H	-0.268511	-0.597044	0.960404
H778	H	-0.018511	-0.347044	1.210404
H779	H	0.231489	-0.097044	1.460404
H780	H	0.481489	0.152956	1.710404
H781	H	-0.472626	-0.701258	0.164472
H782	H	-0.222626	-0.451258	0.414472
H783	H	0.027374	-0.201258	0.664472
H784	H	0.277374	0.048742	0.914472
Cl785	Cl	-0.310008	-0.555514	0.699298
Cl786	Cl	-0.060008	-0.305514	0.949298
Cl787	Cl	0.189992	-0.055514	1.199298
Cl788	Cl	0.439992	0.194486	1.449298
