data_functionalizedCrystal
_audit_creation_method	'MofGen! by Chris Wilmer'
_symmetry_space_group_name_H-M	'P1'
_symmetry_Int_Tables_number	1
_symmetry_cell_setting	triclinic
loop_
_symmetry_equiv_pos_as_xyz
  x,y,z
_cell_length_a	26.374263
_cell_length_b	26.373608
_cell_length_c	26.370205
_cell_angle_alpha	60.005297
_cell_angle_beta	60.010839
_cell_angle_gamma	59.993700
loop_
_atom_site_label
_atom_site_type_symbol
_atom_site_fract_x
_atom_site_fract_y
_atom_site_fract_z
O1	O	0.070152	-0.740800	0.619517
O2	O	0.570152	-0.240800	1.119517
O3	O	0.026377	-0.576764	0.499159
O4	O	0.526377	-0.076764	0.999159
O5	O	0.130245	-0.680560	0.499088
O6	O	0.630245	-0.180560	0.999088
O7	O	-0.033715	-0.637003	0.619589
O8	O	0.466285	-0.137003	1.119589
O9	O	0.164701	-0.646107	0.533470
O10	O	0.664701	-0.146107	1.033470
O11	O	0.060833	-0.542310	0.533541
O12	O	0.560833	-0.042310	1.033541
O13	O	0.104608	-0.706346	0.653899
O14	O	0.604608	-0.206346	1.153899
Cu15	Cu	0.085867	-0.621182	0.596859
Cu16	Cu	0.585867	-0.121182	1.096859
Cu17	Cu	0.045119	-0.661927	0.556199
Cu18	Cu	0.545119	-0.161927	1.056199
O19	O	0.000741	-0.602549	0.653971
O20	O	0.500741	-0.102549	1.153971
N21	N	0.114528	-0.592529	0.625461
N22	N	0.614528	-0.092529	1.125461
N23	N	0.016463	-0.690587	0.527598
N24	N	0.516463	-0.190587	1.027598
C25	C	0.181428	-0.355400	0.692330
C26	C	0.681428	0.144600	1.192330
C27	C	0.181530	-0.525690	0.862573
C28	C	0.681530	-0.025690	1.362573
C29	C	0.181440	-0.525667	0.692313
C30	C	0.681440	-0.025667	1.192313
C31	C	0.351736	-0.525673	0.692271
C32	C	0.851736	-0.025673	1.192271
C33	C	0.200174	-0.411588	0.711047
C34	C	0.700174	0.088412	1.211047
C35	C	0.200232	-0.506954	0.806384
C36	C	0.700232	-0.006954	1.306384
C37	C	0.295546	-0.506943	0.711016
C38	C	0.795546	-0.006943	1.211016
C39	C	0.200182	-0.506940	0.711037
C40	C	0.700182	-0.006940	1.211037
C41	C	0.157567	-0.283881	0.668507
C42	C	0.657567	0.216119	1.168507
C43	C	0.157587	-0.549500	0.668479
C44	C	0.657587	-0.049500	1.168479
C45	C	0.224035	-0.483107	0.734871
C46	C	0.724035	0.016893	1.234871
C47	C	0.455739	-0.507754	0.637520
C48	C	0.955739	-0.007754	1.137520
C49	C	0.520749	-0.529425	0.615835
C50	C	1.020749	-0.029425	1.115835
C51	C	0.520768	-0.634611	0.655947
C52	C	1.020768	-0.134611	1.155947
C53	C	0.455759	-0.612939	0.677633
C54	C	0.955759	-0.112939	1.177633
C55	C	0.173240	-0.251367	0.604595
C56	C	0.673240	0.248633	1.104595
C57	C	0.151546	-0.186351	0.582941
C58	C	0.651546	0.313649	1.082941
C59	C	0.098512	-0.186369	0.689113
C60	C	0.598512	0.313631	1.189113
C61	C	0.120206	-0.251385	0.710768
C62	C	0.620206	0.248615	1.210768
C63	C	0.093669	-0.533798	0.684205
C64	C	0.593669	-0.033798	1.184205
C65	C	0.071992	-0.555464	0.662532
C66	C	0.571992	-0.055464	1.162532
C67	C	0.178144	-0.608536	0.609422
C68	C	0.678144	-0.108536	1.109422
C69	C	0.199825	-0.586869	0.631088
C70	C	0.699825	-0.086869	1.131088
C71	C	0.093821	-0.533842	0.966616
C72	C	0.593821	-0.033842	1.466616
C73	C	0.072187	-0.555526	1.031630
C74	C	0.572187	-0.055526	1.531630
C75	C	0.178370	-0.608608	1.031591
C76	C	0.678370	-0.108608	1.531591
C77	C	0.200004	-0.586926	0.966576
C78	C	0.700004	-0.086926	1.466576
C79	C	0.157728	-0.549541	0.934090
C80	C	0.657728	-0.049541	1.434090
C81	C	0.423247	-0.549509	0.668416
C82	C	0.923247	-0.049509	1.168416
C83	C	-0.097522	-0.709158	0.508557
C84	C	0.402478	-0.209158	1.008557
C85	C	-0.002050	-0.709295	0.413344
C86	C	0.497950	-0.209295	0.913344
C87	C	-0.002241	-0.804604	0.508735
C88	C	0.497759	-0.304604	1.008735
C89	C	-0.002225	-0.709288	0.508793
C90	C	0.497775	-0.209288	1.008793
C91	C	-0.026009	-0.733087	0.484858
C92	C	0.473991	-0.233087	0.984858
N93	N	0.552340	-0.592538	0.625346
N94	N	1.052340	-0.092538	1.125346
O95	O	0.750867	-0.598274	0.477076
O96	O	1.250867	-0.098274	0.977076
O97	O	0.751048	-0.718989	0.640960
O98	O	1.251048	-0.218989	1.140960
O99	O	0.750981	-0.718715	0.537020
O100	O	1.250981	-0.218715	1.037020
O101	O	0.750934	-0.598547	0.581017
O102	O	1.250934	-0.098547	1.081017
O103	O	0.647701	-0.684348	0.571512
O104	O	1.147701	-0.184348	1.071512
O105	O	0.647768	-0.684622	0.675452
O106	O	1.147768	-0.184622	1.175452
O107	O	0.647587	-0.563907	0.511569
O108	O	1.147587	-0.063907	1.011569
Cu109	Cu	0.638247	-0.621127	0.596660
Cu110	Cu	1.138247	-0.121127	1.096660
Cu111	Cu	0.760388	-0.661769	0.555869
Cu112	Cu	1.260388	-0.161769	1.055869
O113	O	0.647654	-0.564181	0.615509
O114	O	1.147654	-0.064181	1.115509
N115	N	0.846295	-0.690358	0.527176
N116	N	1.346295	-0.190358	1.027176
N117	N	0.114503	-0.154778	0.625499
N118	N	0.614503	0.345222	1.125499
O119	O	-0.033701	0.043855	0.619632
O120	O	0.466299	0.543855	1.119632
O121	O	0.130190	0.043858	0.498933
O122	O	0.630190	0.543858	0.998933
O123	O	0.026233	0.043841	0.499224
O124	O	0.526233	0.543841	0.999224
O125	O	0.070257	0.043872	0.619341
O126	O	0.570257	0.543872	1.119341
O127	O	0.060690	-0.059448	0.533654
O128	O	0.560690	0.440552	1.033654
O129	O	0.164647	-0.059431	0.533363
O130	O	0.664647	0.440569	1.033363
O131	O	0.000756	-0.059434	0.654062
O132	O	0.500756	0.440566	1.154062
Cu133	Cu	0.085848	-0.068863	0.596857
Cu134	Cu	0.585848	0.431137	1.096857
Cu135	Cu	0.045099	0.053287	0.556138
Cu136	Cu	0.545099	0.553287	1.056138
O137	O	0.104714	-0.059417	0.653771
O138	O	0.604714	0.440583	1.153771
N139	N	0.016435	0.139202	0.527497
N140	N	0.516435	0.639202	1.027497
N141	N	0.114760	-0.592585	1.063190
N142	N	0.614760	-0.092585	1.563190
O143	O	0.108896	-0.740779	1.261808
O144	O	0.608896	-0.240779	1.761808
O145	O	-0.011787	-0.576838	1.261822
O146	O	0.488213	-0.076838	1.761822
O147	O	-0.011509	-0.680779	1.261780
O148	O	0.488491	-0.180779	1.761780
O149	O	0.108618	-0.636838	1.261850
O150	O	0.608618	-0.136838	1.761850
O151	O	0.022916	-0.646341	1.158496
O152	O	0.522916	-0.146341	1.658496
O153	O	0.022638	-0.542399	1.158538
O154	O	0.522638	-0.042399	1.658538
O155	O	0.143321	-0.706341	1.158524
O156	O	0.643321	-0.206341	1.658524
Cu157	Cu	0.086123	-0.621225	1.149100
Cu158	Cu	0.586123	-0.121225	1.649100
Cu159	Cu	0.045411	-0.661953	1.271246
Cu160	Cu	0.545411	-0.161953	1.771246
O161	O	0.143044	-0.602399	1.158566
O162	O	0.643044	-0.102399	1.658566
N163	N	0.016774	-0.690600	1.357156
N164	N	0.516774	-0.190600	1.857156
C165	C	0.039504	-0.538867	0.499769
C166	C	0.539504	-0.038867	0.999769
C167	C	0.168130	-0.667407	0.499680
C168	C	0.668130	-0.167407	0.999680
C169	C	0.091482	-0.744243	0.653289
C170	C	0.591482	-0.244243	1.153289
C171	C	-0.037145	-0.615703	0.653378
C172	C	0.462855	-0.115703	1.153378
C173	C	0.699429	-0.718429	0.678853
C174	C	1.199429	-0.218429	1.178853
C175	C	0.699348	-0.718091	0.550135
C176	C	1.199348	-0.218091	1.050135
C177	C	0.699202	-0.564465	0.473677
C178	C	1.199202	-0.064465	0.973677
C179	C	0.699287	-0.564805	0.602393
C180	C	1.199287	-0.064805	1.102393
C181	C	0.168023	-0.007659	0.499484
C182	C	0.668023	0.492341	0.999484
C183	C	0.039327	-0.007807	0.499887
C184	C	0.539327	0.492193	0.999887
C185	C	-0.037119	-0.007789	0.653468
C186	C	0.462881	0.492211	1.153468
C187	C	0.091620	-0.007770	0.653109
C188	C	0.591620	0.492230	1.153109
C189	C	-0.011194	-0.538964	1.210181
C190	C	0.488806	-0.038964	1.710181
C191	C	-0.010843	-0.667676	1.210109
C192	C	0.489157	-0.167676	1.710109
C193	C	0.142729	-0.744214	1.210165
C194	C	0.642729	-0.244214	1.710165
C195	C	0.142386	-0.615494	1.210214
C196	C	0.642386	-0.115494	1.710214
H197	H	0.059391	-0.503396	0.940172
H198	H	0.559391	-0.003396	1.440172
H199	H	0.214995	-0.007372	0.461496
H200	H	0.714995	0.492628	0.961496
H201	H	0.699142	-0.526565	0.426612
H202	H	1.199142	-0.026565	0.926612
O203	O	0.224306	-0.678581	0.454553
O204	O	0.724306	-0.178581	0.954553
C205	C	0.299062	-0.741379	0.389017
C206	C	0.799062	-0.241379	0.889017
C207	C	0.235439	-0.728801	0.440134
C208	C	0.735439	-0.228801	0.940134
H209	H	0.308077	-0.781973	0.377334
H210	H	0.808077	-0.281973	0.877334
H211	H	0.336999	-0.753215	0.406115
H212	H	0.836999	-0.253215	0.906115
H213	H	0.299191	-0.698221	0.345725
H214	H	0.799191	-0.198221	0.845725
H215	H	0.235248	-0.771937	0.483444
H216	H	0.735248	-0.271937	0.983444
H217	H	0.197530	-0.716938	0.422986
H218	H	0.697530	-0.216938	0.922986
O219	O	0.062297	-0.154870	0.730226
O220	O	0.562297	0.345130	1.230226
C221	C	0.054058	-0.134967	0.814305
C222	C	0.554058	0.365033	1.314305
C223	C	0.095131	-0.170685	0.767787
C224	C	0.595131	0.329315	1.267787
H225	H	0.080592	-0.147730	0.844676
H226	H	0.580592	0.352270	1.344676
H227	H	0.009961	-0.147771	0.844802
H228	H	0.509961	0.352229	1.344802
H229	H	0.041225	-0.082916	0.787839
H230	H	0.541225	0.417084	1.287839
H231	H	0.108011	-0.222744	0.794202
H232	H	0.608011	0.277256	1.294202
H233	H	0.139198	-0.157829	0.737290
H234	H	0.639198	0.342171	1.237290
H235	H	0.180125	-0.606093	1.210228
H236	H	0.680125	-0.106093	1.710228
H237	H	-0.084187	-0.007791	0.691362
H238	H	0.415813	0.492209	1.191362
O239	O	0.028001	-0.007862	0.454950
O240	O	0.528001	0.492138	0.954950
C241	C	-0.045796	-0.007882	0.426563
C242	C	0.454204	0.492118	0.926563
C243	C	-0.033052	-0.007822	0.477509
C244	C	0.466948	0.492178	0.977509
H245	H	-0.095161	-0.007836	0.444778
H246	H	0.404839	0.492164	0.944778
H247	H	-0.011449	-0.051129	0.413012
H248	H	0.488551	0.448871	0.913012
H249	H	-0.040222	0.035323	0.384159
H250	H	0.459778	0.535323	0.884159
H251	H	-0.038634	-0.050998	0.519946
H252	H	0.461366	0.449002	1.019946
H253	H	-0.067397	0.035454	0.491007
H254	H	0.432603	0.535454	0.991007
H255	H	0.101045	-0.007760	0.690842
H256	H	0.601045	0.492240	1.190842
H257	H	-0.049082	-0.491880	1.210184
H258	H	0.450918	0.008120	1.710184
H259	H	0.699278	-0.527058	0.611808
H260	H	1.199278	-0.027058	1.111808
H261	H	-0.048566	-0.677061	1.210046
H262	H	0.451434	-0.177061	1.710046
H263	H	0.699366	-0.755841	0.540718
H264	H	1.199366	-0.255841	1.040718
H265	H	0.180620	-0.791296	1.210154
H266	H	0.680620	-0.291296	1.710154
O267	O	-0.093352	-0.604696	0.698507
O268	O	0.406648	-0.104696	1.198507
C269	C	-0.184547	-0.634828	0.766415
C270	C	0.315453	-0.134828	1.266415
C271	C	-0.120913	-0.647351	0.715299
C272	C	0.379087	-0.147351	1.215299
H273	H	-0.206843	-0.669315	0.780016
H274	H	0.293157	-0.169315	1.280016
H275	H	-0.215854	-0.585517	0.748357
H276	H	0.284146	-0.085517	1.248357
H277	H	-0.178033	-0.640405	0.808748
H278	H	0.321967	-0.140405	1.308748
H279	H	-0.127369	-0.641808	0.672949
H280	H	0.372631	-0.141808	1.172949
H281	H	-0.089628	-0.696657	0.733407
H282	H	0.410372	-0.196657	1.233407
H283	H	0.547237	-0.686258	0.663446
H284	H	1.047237	-0.186258	1.163446
O285	O	0.028466	-0.482681	0.454609
O286	O	0.528466	0.017319	0.954609
C287	C	0.069195	-0.418850	0.349922
C288	C	0.569195	0.081150	0.849922
C289	C	0.081783	-0.482502	0.401014
C290	C	0.581783	0.017498	0.901014
H291	H	0.112288	-0.418689	0.306574
H292	H	0.612288	0.081311	0.806574
H293	H	0.057425	-0.380944	0.367026
H294	H	0.557425	0.119056	0.867026
H295	H	0.028530	-0.409806	0.338330
H296	H	0.528530	0.090194	0.838330
H297	H	0.122456	-0.491605	0.412630
H298	H	0.622456	0.008395	0.912630
H299	H	0.093517	-0.520373	0.383883
H300	H	0.593517	-0.020373	0.883883
O301	O	0.105108	-0.283019	0.772841
O302	O	0.605108	0.216981	1.272841
C303	C	0.142554	-0.356348	0.858888
C304	C	0.642554	0.143652	1.358888
C305	C	0.159730	-0.320582	0.788575
C306	C	0.659730	0.179418	1.288575
H307	H	0.186705	-0.386716	0.871633
H308	H	0.686705	0.113284	1.371633
H309	H	0.116118	-0.386847	0.871761
H310	H	0.616118	0.113153	1.371761
H311	H	0.112113	-0.321920	0.885334
H312	H	0.612113	0.178080	1.385334
H313	H	0.190191	-0.354965	0.762081
H314	H	0.690191	0.145035	1.262081
H315	H	0.186134	-0.290073	0.775751
H316	H	0.686134	0.209927	1.275751
H317	H	0.212798	-0.639038	1.058038
H318	H	0.712798	-0.139038	1.558038
O319	O	0.010091	-0.540290	1.063152
O320	O	0.510091	-0.040290	1.563152
C321	C	-0.087280	-0.545261	1.083092
C322	C	0.412720	-0.045261	1.583092
C323	C	-0.016967	-0.562539	1.047345
C324	C	0.483033	-0.062539	1.547345
H325	H	-0.109175	-0.563253	1.070336
H326	H	0.390825	-0.063253	1.570336
H327	H	-0.109239	-0.492617	1.070310
H328	H	0.390761	0.007383	1.570310
H329	H	-0.095470	-0.567160	1.135136
H330	H	0.404530	-0.067160	1.635136
H331	H	-0.008721	-0.540681	0.995293
H332	H	0.491279	-0.040681	1.495293
H333	H	0.004957	-0.615188	1.060179
H334	H	0.504957	-0.115188	1.560179
O335	O	0.262107	-0.602212	0.935077
O336	O	0.762107	-0.102212	1.435077
C337	C	0.365142	-0.657176	0.941904
C338	C	0.865142	-0.157176	1.441904
C339	C	0.294829	-0.639901	0.977651
C340	C	0.794829	-0.139901	1.477651
H341	H	0.391618	-0.687661	0.976309
H342	H	0.891618	-0.187661	1.476309
H343	H	0.377955	-0.613076	0.911488
H344	H	0.877955	-0.113076	1.411488
H345	H	0.377904	-0.683614	0.911444
H346	H	0.877904	-0.183614	1.411444
H347	H	0.282016	-0.613478	1.008144
H348	H	0.782016	-0.113478	1.508144
H349	H	0.282053	-0.684023	1.008028
H350	H	0.782053	-0.184023	1.508028
H351	H	0.019945	-0.542665	0.675322
H352	H	0.519945	-0.042665	1.175322
O353	O	0.052614	-0.497405	0.720428
O354	O	0.552614	0.002595	1.220428
C355	C	-0.031531	-0.401731	0.728772
C356	C	0.468469	0.098269	1.228772
C357	C	0.014941	-0.442879	0.687678
C358	C	0.514941	0.057121	1.187678
H359	H	-0.062011	-0.357644	0.702314
H360	H	0.437989	0.142356	1.202314
H361	H	-0.005092	-0.388889	0.741550
H362	H	0.494908	0.111111	1.241550
H363	H	-0.061924	-0.428226	0.772898
H364	H	0.438076	0.071774	1.272898
H365	H	0.045346	-0.416423	0.643525
H366	H	0.545346	0.083577	1.143525
H367	H	-0.011536	-0.455724	0.674950
H368	H	0.488464	0.044276	1.174950
O369	O	0.219262	-0.644812	0.573087
O370	O	0.719262	-0.144812	1.073087
C371	C	0.326842	-0.695201	0.522730
C372	C	0.826842	-0.195201	1.022730
C373	C	0.280349	-0.654105	0.563872
C374	C	0.780349	-0.154105	1.063872
H375	H	0.376241	-0.702738	0.515277
H376	H	0.876241	-0.202738	1.015277
H377	H	0.319373	-0.671381	0.475947
H378	H	0.819373	-0.171381	0.975947
H379	H	0.319327	-0.741951	0.546546
H380	H	0.819327	-0.241951	1.046546
H381	H	0.287836	-0.607349	0.540110
H382	H	0.787836	-0.107349	1.040110
H383	H	0.287829	-0.677973	0.610653
H384	H	0.787829	-0.177973	1.110653
O385	O	0.209466	-0.283000	0.563602
O386	O	0.709466	0.217000	1.063602
C387	C	0.221017	-0.356366	0.526423
C388	C	0.721017	0.143634	1.026423
C389	C	0.179938	-0.320589	0.572889
C390	C	0.679938	0.179411	1.072889
H391	H	0.197154	-0.386755	0.533907
H392	H	0.697154	0.113245	1.033907
H393	H	0.267791	-0.386844	0.533899
H394	H	0.767791	0.113156	1.033899
H395	H	0.228502	-0.321945	0.477028
H396	H	0.728502	0.178055	0.977028
H397	H	0.172404	-0.354965	0.622302
H398	H	0.672404	0.145035	1.122302
H399	H	0.133190	-0.290101	0.565359
H400	H	0.633190	0.209899	1.065359
O401	O	0.261895	-0.602041	0.615852
O402	O	0.761895	-0.102041	1.115852
C403	C	0.342341	-0.592216	0.625730
C404	C	0.842341	-0.092216	1.125730
C405	C	0.272033	-0.574973	0.643018
C406	C	0.772033	-0.074973	1.143018
H407	H	0.350560	-0.570350	0.647696
H408	H	0.850560	-0.070350	1.147696
H409	H	0.364256	-0.574243	0.573091
H410	H	0.864256	-0.074243	1.073091
H411	H	0.364260	-0.644864	0.643639
H412	H	0.864260	-0.144864	1.143639
H413	H	0.250060	-0.522331	0.625150
H414	H	0.750060	-0.022331	1.125150
H415	H	0.250163	-0.592989	0.695659
H416	H	0.750163	-0.092989	1.195659
O417	O	0.424231	-0.653517	0.707543
O418	O	0.924231	-0.153517	1.207543
C419	C	0.404385	-0.729973	0.701754
C420	C	0.904385	-0.229973	1.201754
C421	C	0.440114	-0.684027	0.667806
C422	C	0.940114	-0.184027	1.167806
H423	H	0.417223	-0.754662	0.669647
H424	H	0.917223	-0.254662	1.169647
H425	H	0.352326	-0.703625	0.715656
H426	H	0.852326	-0.203625	1.215656
H427	H	0.417188	-0.765680	0.745116
H428	H	0.917188	-0.265680	1.245116
H429	H	0.427363	-0.648309	0.624423
H430	H	0.927363	-0.148309	1.124423
H431	H	0.492165	-0.710417	0.653951
H432	H	0.992165	-0.210417	1.153951
O433	O	0.552221	-0.488776	0.585807
O434	O	1.052221	0.011224	1.085807
C435	C	0.545348	-0.382163	0.548332
C436	C	1.045348	0.117837	1.048332
C437	C	0.509629	-0.428127	0.582340
C438	C	1.009629	0.071873	1.082340
H439	H	0.510928	-0.333120	0.545530
H440	H	1.010928	0.166880	1.045530
H441	H	0.575745	-0.384106	0.499432
H442	H	1.075745	0.115894	0.999432
H443	H	0.575822	-0.395249	0.574899
H444	H	1.075822	0.104751	1.074899
H445	H	0.479121	-0.415073	0.555825
H446	H	0.979121	0.084927	1.055825
H447	H	0.479271	-0.426177	0.631243
H448	H	0.979271	0.073823	1.131243
H449	H	0.429268	-0.456103	0.630015
H450	H	0.929268	0.043897	1.130015
H451	H	0.164306	-0.159876	0.530897
H452	H	0.664306	0.340124	1.030897
H453	H	0.100832	-0.791364	0.691090
H454	H	0.600832	-0.291364	1.191090
H455	H	0.699474	-0.756325	0.725922
H456	H	1.199474	-0.256325	1.225922
