data_functionalizedCrystal
_audit_creation_method	'MofGen! by Chris Wilmer'
_symmetry_space_group_name_H-M	'P1'
_symmetry_Int_Tables_number	1
_symmetry_cell_setting	triclinic
loop_
_symmetry_equiv_pos_as_xyz
  x,y,z
_cell_length_a	19.188930
_cell_length_b	23.532407
_cell_length_c	17.666332
_cell_angle_alpha	89.988854
_cell_angle_beta	89.976766
_cell_angle_gamma	82.996728
loop_
_atom_site_label
_atom_site_type_symbol
_atom_site_fract_x
_atom_site_fract_y
_atom_site_fract_z
O1	O	0.925923	0.071102	-0.063199
O2	O	0.722581	0.080673	-0.063148
O3	O	0.830384	-0.007031	-0.063161
O4	O	0.818120	0.158806	-0.063186
O5	O	0.830365	-0.007036	0.062735
O6	O	0.722562	0.080669	0.062748
O7	O	0.925904	0.071097	0.062697
Cu8	Cu	0.824231	0.075883	0.074218
Cu9	Cu	0.824253	0.075888	-0.074669
O10	O	0.818101	0.158802	0.062711
C11	C	0.696561	0.080361	-0.000193
C12	C	0.619060	0.079431	-0.000173
C13	C	0.830062	-0.028250	-0.000211
C14	C	0.829123	-0.091469	-0.000205
C15	C	0.573972	0.130893	-0.000193
C16	C	0.501151	0.130019	-0.000201
C17	C	0.473421	0.077680	-0.000205
C18	C	0.518519	0.026211	-0.000181
C19	C	0.591339	0.027086	-0.000165
N20	N	0.365575	0.037674	-0.043078
N21	N	0.296399	0.036846	-0.043094
C22	C	0.254021	0.075038	-0.000251
N23	N	0.283431	0.114099	0.042600
N24	N	0.352613	0.114929	0.042614
C25	C	0.394462	0.076724	-0.000222
C26	C	0.129971	0.125556	-0.000278
C27	C	0.057149	0.124680	-0.000282
C28	C	0.074520	0.020870	-0.000269
C29	C	0.147340	0.021748	-0.000258
C30	C	0.175061	0.074092	-0.000266
C31	C	0.887029	-0.490449	-0.000261
C32	C	0.886157	-0.549851	-0.000267
O33	O	0.939837	-0.586482	-0.000308
N34	N	0.822068	-0.572613	-0.000250
C35	C	0.758848	-0.535970	-0.000236
O36	O	0.704255	-0.560786	-0.000223
C37	C	0.759721	-0.476569	-0.000235
C38	C	0.823814	-0.453810	-0.000244
C39	C	0.951117	-0.467690	-0.000271
C40	C	0.951989	-0.408292	-0.000264
C41	C	0.888773	-0.371653	-0.000247
C42	C	0.824685	-0.394412	-0.000237
C43	C	0.696501	-0.439927	-0.000226
C44	C	0.697379	-0.380523	-0.000227
C45	C	0.761472	-0.357764	-0.000236
C46	C	0.762342	-0.298376	-0.000214
N47	N	0.826430	-0.275614	-0.000230
C48	C	0.889646	-0.312252	-0.000247
C49	C	0.757019	-0.660717	-0.000237
C50	C	0.756146	-0.720116	-0.000232
C51	C	0.883455	-0.733993	-0.000264
C52	C	0.884328	-0.674592	-0.000264
C53	C	0.821108	-0.637954	-0.000254
C54	C	0.891472	-0.187512	-0.000232
C55	C	0.892339	-0.128108	-0.000222
C56	C	0.765029	-0.114236	-0.000193
C57	C	0.764163	-0.173634	-0.000199
C58	C	0.827390	-0.210272	-0.000221
O59	O	0.708690	-0.261710	-0.000176
O60	O	0.944230	-0.287428	-0.000270
C61	C	0.951923	0.071410	-0.000259
C62	C	1.029425	0.072340	-0.000284
C63	C	0.818423	0.180021	-0.000241
C64	C	0.819362	0.243240	-0.000252
N65	N	0.824221	0.075878	0.178938
N66	N	0.824270	0.075888	-0.179389
C67	C	0.871971	0.037062	0.218542
C68	C	0.871975	0.037059	0.297789
C69	C	0.824236	0.075883	0.337430
C70	C	0.776476	0.114702	0.297816
C71	C	0.776469	0.114700	0.218570
N72	N	0.814998	0.126298	0.461842
N73	N	0.815010	0.126298	0.537123
C74	C	0.824254	0.075891	0.576194
N75	N	0.833500	0.025481	0.537141
N76	N	0.833493	0.025482	0.461853
C77	C	0.824238	0.075889	0.423359
C78	C	0.872011	0.037068	0.701727
C79	C	0.872010	0.037064	0.780976
C80	C	0.776515	0.114713	0.781002
C81	C	0.776512	0.114711	0.701754
C82	C	0.824264	0.075889	0.662122
H83	H	0.596537	0.173516	-0.000201
C84	C	0.685644	-0.745145	-0.000216
H85	H	0.648124	-0.714812	-0.000211
H86	H	0.682645	-0.768037	0.043684
H87	H	0.682663	-0.768017	-0.044128
H88	H	0.942958	-0.217335	-0.000252
C89	C	0.723966	0.157409	0.341418
H90	H	0.730814	0.151855	0.394286
H91	H	0.677412	0.151318	0.328461
H92	H	0.731286	0.195404	0.328412
C93	C	0.924524	-0.005639	0.658125
H94	H	0.917687	-0.000077	0.605256
H95	H	0.917206	-0.043633	0.671127
H96	H	0.971081	0.000452	0.671085
H97	H	0.737584	0.146310	0.186324
C98	C	0.924504	-0.005640	0.341363
H99	H	0.952943	-0.028758	0.306409
H100	H	0.899560	-0.029296	0.372300
H101	H	0.953425	0.014798	0.372252
H102	H	0.628050	-0.014822	-0.000150
C103	C	0.924540	-0.005635	0.824541
H104	H	0.952980	-0.028750	0.789584
H105	H	0.899599	-0.029295	0.855476
H106	H	0.953460	0.014802	0.855432
H107	H	0.934929	-0.763836	-0.000281
C108	C	0.687473	-0.620419	-0.000211
H109	H	0.649183	-0.642487	-0.000194
H110	H	0.685165	-0.596949	-0.044111
H111	H	0.685160	-0.596967	0.043700
C112	C	0.724001	0.157419	0.658184
H113	H	0.730832	0.151857	0.605311
H114	H	0.731324	0.195412	0.671159
H115	H	0.677444	0.151330	0.671194
H116	H	0.464433	0.171927	-0.000215
H117	H	1.002598	-0.497516	-0.000287
C118	C	0.724002	0.157418	0.824597
H119	H	0.730847	0.151862	0.877466
H120	H	0.677448	0.151327	0.811636
H121	H	0.731322	0.195414	0.811594
H122	H	0.936518	-0.656067	-0.000272
H123	H	0.495937	-0.016404	-0.000195
C124	C	0.044026	-0.036702	-0.000278
H125	H	-0.005801	-0.029854	-0.000296
H126	H	0.059504	-0.057889	0.043627
H127	H	0.059552	-0.057878	-0.044184
C128	C	0.625998	-0.464949	-0.000223
H129	H	0.588480	-0.434613	-0.000223
H130	H	0.622991	-0.487840	0.043676
H131	H	0.623019	-0.487822	-0.044135
C132	C	0.627835	-0.340224	-0.000212
H133	H	0.589544	-0.362290	-0.000202
H134	H	0.625535	-0.316754	-0.044112
H135	H	0.625520	-0.316772	0.043700
H136	H	0.184052	-0.020158	-0.000246
H137	H	0.711973	-0.192165	-0.000171
H138	H	0.713561	-0.084394	-0.000177
C139	C	0.924489	-0.005646	0.174950
H140	H	0.952923	-0.028768	0.209891
H141	H	0.953405	0.014779	0.144010
H142	H	0.899531	-0.029307	0.144062
H143	H	0.944533	-0.109581	-0.000227
H144	H	0.152543	0.168178	-0.000274
H145	H	1.004180	-0.389768	-0.000274
C146	C	0.007552	0.181291	-0.000303
H147	H	0.034494	0.212588	-0.000313
H148	H	-0.021240	0.183110	0.043594
H149	H	-0.021192	0.183104	-0.044218
