data_functionalizedCrystal
_audit_creation_method	'MofGen! by Chris Wilmer'
_symmetry_space_group_name_H-M	'P1'
_symmetry_Int_Tables_number	1
_symmetry_cell_setting	triclinic
loop_
_symmetry_equiv_pos_as_xyz
  x,y,z
_cell_length_a	14.519731
_cell_length_b	14.519709
_cell_length_c	15.186229
_cell_angle_alpha	89.995307
_cell_angle_beta	89.996550
_cell_angle_gamma	83.684499
loop_
_atom_site_label
_atom_site_type_symbol
_atom_site_fract_x
_atom_site_fract_y
_atom_site_fract_z
O1	O	1.223854	0.120984	-0.073232
O2	O	1.723854	0.620984	0.426768
O3	O	0.955380	0.135200	-0.073234
O4	O	1.455380	0.635200	0.426766
O5	O	1.096735	-0.006146	-0.073225
O6	O	1.596735	0.493854	0.426775
O7	O	1.082499	0.262330	-0.073241
O8	O	1.582499	0.762330	0.426759
O9	O	1.096726	-0.006148	0.073232
O10	O	1.596726	0.493852	0.573232
O11	O	0.955370	0.135198	0.073223
O12	O	1.455370	0.635198	0.573223
O13	O	1.223845	0.120982	0.073225
O14	O	1.723845	0.620982	0.573225
Zn15	Zn	1.089606	0.128089	0.096477
Zn16	Zn	1.589606	0.628089	0.596477
Zn17	Zn	1.089618	0.128092	-0.096486
Zn18	Zn	1.589618	0.628092	0.403514
O19	O	1.082489	0.262327	0.073216
O20	O	1.582489	0.762327	0.573216
C21	C	0.921016	0.134532	-0.000005
C22	C	1.421016	0.634532	0.499995
C23	C	0.818635	0.132536	-0.000006
C24	C	1.318635	0.632536	0.499994
C25	C	0.735491	0.130915	-0.000009
C26	C	1.235491	0.630915	0.499991
C27	C	0.631182	0.128888	-0.000009
C28	C	1.131182	0.628888	0.499991
C29	C	0.548043	0.127280	-0.000009
C30	C	1.048043	0.627280	0.499991
C31	C	0.443728	0.125253	-0.000011
C32	C	0.943728	0.625253	0.499989
C33	C	1.096067	-0.040507	0.000004
C34	C	1.596067	0.459493	0.500004
C35	C	1.094079	-0.142889	0.000004
C36	C	1.594079	0.357111	0.500004
C37	C	1.086759	-0.517785	-0.000019
C38	C	1.586759	-0.017785	0.499981
C39	C	1.088792	-0.413477	-0.000012
C40	C	1.588792	0.086523	0.499988
C41	C	1.090419	-0.330340	-0.000007
C42	C	1.590419	0.169660	0.499993
C43	C	1.092452	-0.226025	-0.000002
C44	C	1.592452	0.273975	0.499998
C45	C	1.258209	0.121649	-0.000006
C46	C	1.758209	0.621649	0.499994
C47	C	1.360589	0.123645	-0.000011
C48	C	1.860589	0.623645	0.499989
C49	C	1.083157	0.296688	-0.000015
C50	C	1.583157	0.796688	0.499985
C51	C	1.085146	0.399070	-0.000021
C52	C	1.585146	0.899070	0.499979
N53	N	1.089604	0.128087	0.228170
N54	N	1.589604	0.628087	0.728170
N55	N	1.089627	0.128087	-0.228179
N56	N	1.589627	0.628087	0.271821
C57	C	1.152218	0.065520	0.453897
C58	C	1.652218	0.565520	0.953897
C59	C	1.152221	0.065518	0.546086
C60	C	1.652221	0.565518	1.046086
C61	C	1.027007	0.190657	0.546088
C62	C	1.527007	0.690657	1.046088
C63	C	1.027001	0.190654	0.453900
C64	C	1.527001	0.690654	0.953900
C65	C	1.089611	0.128087	0.407807
C66	C	1.589611	0.628087	0.907807
C67	C	1.089621	0.128087	0.592184
C68	C	1.589621	0.628087	1.092184
C69	C	1.089623	0.128085	0.692140
C70	C	1.589623	0.628085	1.192140
C71	C	1.089607	0.128087	0.307844
C72	C	1.589607	0.628087	0.807844
H73	H	1.203199	0.014570	0.583610
H74	H	1.703199	0.514570	1.083610
C75	C	0.959173	0.258637	0.403741
C76	C	1.459173	0.758637	0.903741
C77	C	1.008387	0.315184	0.350786
C78	C	1.508387	0.815184	0.850786
C79	C	0.945938	0.377808	0.304559
C80	C	1.445938	0.877808	0.804559
H81	H	0.921865	0.295994	0.444294
H82	H	1.421865	0.795994	0.944294
H83	H	0.920742	0.225397	0.367736
H84	H	1.420742	0.725397	0.867736
H85	H	1.046802	0.348421	0.386788
H86	H	1.546802	0.848421	0.886788
H87	H	1.045692	0.277853	0.310217
H88	H	1.545692	0.777853	0.810217
H89	H	0.907506	0.344568	0.268554
H90	H	1.407506	0.844568	0.768554
H91	H	0.908633	0.415158	0.345119
H92	H	1.408633	0.915158	0.845119
H93	H	0.979320	0.416176	0.268618
H94	H	1.479320	0.916176	0.768618
H95	H	1.203198	0.014573	0.416370
H96	H	1.703198	0.514573	0.916370
C97	C	0.958889	0.258480	0.596090
C98	C	1.458889	0.758480	1.096090
C99	C	0.868245	0.243298	0.573698
C100	C	1.368245	0.743298	1.073698
C101	C	0.805470	0.305752	0.619751
C102	C	1.305470	0.805752	1.119751
H103	H	0.968876	0.320094	0.581013
H104	H	1.468876	0.820094	1.081013
H105	H	0.967800	0.249517	0.657603
H106	H	1.467800	0.749517	1.157603
H107	H	0.859338	0.252269	0.512199
H108	H	1.359338	0.752269	1.012199
H109	H	0.858229	0.181696	0.588778
H110	H	1.358229	0.681696	1.088778
H111	H	0.814380	0.296789	0.681264
H112	H	1.314380	0.796789	1.181264
H113	H	0.815465	0.367362	0.604670
H114	H	1.315465	0.867362	1.104670
H115	H	0.743961	0.295454	0.604570
H116	H	1.243961	0.795454	1.104570
