data_functionalizedCrystal
_audit_creation_method	'MofGen! by Chris Wilmer'
_symmetry_space_group_name_H-M	'P1'
_symmetry_Int_Tables_number	1
_symmetry_cell_setting	triclinic
loop_
_symmetry_equiv_pos_as_xyz
  x,y,z
_cell_length_a	18.215407
_cell_length_b	19.077068
_cell_length_c	18.215399
_cell_angle_alpha	92.268164
_cell_angle_beta	89.980167
_cell_angle_gamma	92.327501
loop_
_atom_site_label
_atom_site_type_symbol
_atom_site_fract_x
_atom_site_fract_y
_atom_site_fract_z
Zn1	Zn	1.113288	-0.280200	-0.427869
Zn2	Zn	1.613288	0.219800	0.072131
Zn3	Zn	1.108246	-0.397902	-0.309739
Zn4	Zn	1.608246	0.102098	0.190261
Zn5	Zn	0.990220	-0.280223	-0.304817
Zn6	Zn	1.490220	0.219777	0.195183
Zn7	Zn	0.985238	-0.397863	-0.432763
Zn8	Zn	1.485238	0.102137	0.067237
O9	O	1.049248	-0.339047	-0.368797
O10	O	1.549248	0.160953	0.131203
O11	O	1.215603	-0.295821	-0.412210
O12	O	1.715603	0.204179	0.087790
O13	O	1.092565	-0.382318	-0.206103
O14	O	1.592565	0.117682	0.293897
O15	O	1.010740	-0.181729	-0.317032
O16	O	1.510740	0.318271	0.182968
O17	O	1.211899	-0.382295	-0.325421
O18	O	1.711899	0.117705	0.174579
O19	O	1.101157	-0.181712	-0.407437
O20	O	1.601157	0.318288	0.092563
O21	O	1.005851	-0.295860	-0.202487
O22	O	1.505851	0.204140	0.297513
O23	O	0.886575	-0.295822	-0.321777
O24	O	1.386575	0.204178	0.178223
O25	O	1.002249	-0.382229	-0.535097
O26	O	1.502249	0.117771	-0.035097
O27	O	0.882915	-0.382251	-0.415778
O28	O	1.382915	0.117749	0.084222
O29	O	1.096327	-0.295783	-0.531501
O30	O	1.596327	0.204217	-0.031501
O31	O	1.087734	-0.496388	-0.330167
O32	O	1.587734	0.003612	0.169833
O33	O	0.997361	-0.496359	-0.420551
O34	O	1.497361	0.003641	0.079449
C35	C	0.858042	-0.339035	-0.368775
C36	C	1.358042	0.160965	0.131225
C37	C	0.776243	-0.339047	-0.368784
C38	C	1.276243	0.160953	0.131216
C39	C	0.586159	-0.384121	-0.417674
C40	C	1.086159	0.115879	0.082326
C41	C	0.509301	-0.384124	-0.417684
C42	C	1.009301	0.115876	0.082316
C43	C	0.513088	-0.293986	-0.319936
C44	C	1.013088	0.206014	0.180064
C45	C	0.589945	-0.293980	-0.319931
C46	C	1.089945	0.206020	0.180069
C47	C	0.626479	-0.339052	-0.368799
C48	C	1.126479	0.160948	0.131201
C49	C	0.472763	-0.339060	-0.368814
C50	C	0.972763	0.160940	0.131186
C51	C	0.389429	-0.339062	-0.368823
C52	C	0.889429	0.160938	0.131177
C53	C	0.709818	-0.339050	-0.368791
C54	C	1.209818	0.160950	0.131209
C55	C	1.041480	-0.521911	-0.376440
C56	C	1.541480	-0.021911	0.123560
C57	C	1.038224	-0.600141	-0.379735
C58	C	1.538224	-0.100141	0.120265
C59	C	1.083783	-0.636886	-0.334263
C60	C	1.583783	-0.136886	0.165737
C61	C	1.080725	-0.710391	-0.337366
C62	C	1.580725	-0.210391	0.162634
C63	C	1.032104	-0.747151	-0.385937
C64	C	1.532104	-0.247151	0.114063
C65	C	0.986542	-0.710401	-0.431414
C66	C	1.486542	-0.210401	0.068586
C67	C	0.989604	-0.636897	-0.428314
C68	C	1.489604	-0.136897	0.071686
C69	C	1.017899	-0.966985	-0.400254
C70	C	1.517899	-0.466985	0.099746
C71	C	1.014839	-1.040495	-0.403348
C72	C	1.514839	-0.540495	0.096652
C73	C	1.109023	-1.040479	-0.309301
C74	C	1.609023	-0.540479	0.190699
C75	C	1.112078	-0.966974	-0.306202
C76	C	1.612078	-0.466974	0.193798
C77	C	1.066520	-0.930231	-0.351682
C78	C	1.566520	-0.430231	0.148318
N79	N	1.028975	-0.822285	-0.389109
N80	N	1.528975	-0.322285	0.110891
N81	N	1.069652	-0.855098	-0.348514
N82	N	1.569652	-0.355098	0.151486
C83	C	1.241200	-0.339060	-0.368819
C84	C	1.741200	0.160940	0.131181
C85	C	1.322999	-0.339065	-0.368828
C86	C	1.822999	0.160935	0.131172
C87	C	1.049295	-0.338999	-0.560748
C88	C	1.549295	0.161001	-0.060748
C89	C	1.049315	-0.338978	-0.642546
C90	C	1.549315	0.161022	-0.142546
C91	C	1.057067	-0.155469	-0.361140
C92	C	1.557067	0.344531	0.138860
C93	C	1.060398	-0.077239	-0.357877
C94	C	1.560398	0.422761	0.142123
C95	C	1.098320	-0.293923	-0.828867
C96	C	1.598320	0.206077	-0.328867
C97	C	1.098329	-0.293903	-0.905725
C98	C	1.598329	0.206097	-0.405725
C99	C	1.000366	-0.383924	-0.909458
C100	C	1.500366	0.116076	-0.409458
C101	C	1.000354	-0.383940	-0.832601
C102	C	1.500354	0.116060	-0.332601
C103	C	1.049335	-0.338941	-0.792308
C104	C	1.549335	0.161059	-0.292308
C105	C	1.049357	-0.338904	-0.946023
C106	C	1.549357	0.161096	-0.446023
C107	C	1.049367	-0.338882	-1.029355
C108	C	1.549367	0.161118	-0.529355
C109	C	1.049324	-0.338962	-0.708970
C110	C	1.549324	0.161038	-0.208970
C111	C	1.049246	-0.339045	-0.177591
C112	C	1.549246	0.160955	0.322409
C113	C	1.049377	-0.338867	-0.095785
C114	C	1.549377	0.161133	0.404215
H115	H	0.483333	-0.257291	-0.280148
H116	H	0.983333	0.242709	0.219852
H117	H	0.476476	-0.420822	-0.457484
H118	H	0.976476	0.079178	0.042516
O119	O	0.629004	-0.250176	-0.272379
O120	O	1.129004	0.249824	0.227621
C121	C	0.580280	-0.210387	-0.229256
C122	C	1.080280	0.289613	0.270744
H123	H	0.524268	-0.239215	-0.227864
H124	H	1.024268	0.260785	0.272136
H125	H	0.602788	-0.202809	-0.170968
H126	H	1.102788	0.297191	0.329032
H127	H	0.574385	-0.156966	-0.254063
H128	H	1.074385	0.343034	0.245937
O129	O	1.131078	-0.601289	-0.287059
O130	O	1.631078	-0.101289	0.212941
C131	C	1.170621	-0.649486	-0.247578
C132	C	1.670621	-0.149486	0.252422
H133	H	1.170971	-0.701859	-0.279934
H134	H	1.670971	-0.201859	0.220066
H135	H	1.229495	-0.628209	-0.238882
H136	H	1.729495	-0.128209	0.261118
H137	H	1.143374	-0.657365	-0.191994
H138	H	1.643374	-0.157365	0.308006
H139	H	0.952506	-0.606981	-0.465343
H140	H	1.452506	-0.106981	0.034657
O141	O	1.125159	-0.746062	-0.293352
O142	O	1.625159	-0.246062	0.206648
C143	C	1.170889	-0.788450	-0.337168
C144	C	1.670889	-0.288450	0.162832
H145	H	1.176171	-0.766256	-0.394210
H146	H	1.676171	-0.266256	0.105790
H147	H	1.227563	-0.789156	-0.310743
H148	H	1.727563	-0.289156	0.189257
H149	H	1.145911	-0.844213	-0.341982
H150	H	1.645911	-0.344213	0.158018
O151	O	1.145919	-0.250142	-0.789836
O152	O	1.645919	0.249858	-0.289836
C153	C	1.189168	-0.210416	-0.838590
C154	C	1.689168	0.289584	-0.338590
H155	H	1.159136	-0.207969	-0.893269
H156	H	1.659136	0.292031	-0.393269
H157	H	1.199372	-0.154967	-0.814076
H158	H	1.699372	0.345033	-0.314076
H159	H	1.243966	-0.236188	-0.847849
H160	H	1.743966	0.263812	-0.347849
O161	O	1.145812	-0.250096	-0.941266
O162	O	1.645812	0.249904	-0.441266
C163	C	1.105854	-0.204635	-0.983830
C164	C	1.605854	0.295365	-0.483830
H165	H	1.048073	-0.200294	-0.960475
H166	H	1.548073	0.299706	-0.460475
H167	H	1.134774	-0.150470	-0.982444
H168	H	1.634774	0.349530	-0.482444
H169	H	1.102403	-0.226377	-1.042986
H170	H	1.602403	0.273623	-0.542986
H171	H	1.151670	-0.937045	-0.266652
H172	H	1.651670	-0.437045	0.233348
H173	H	1.146116	-1.070403	-0.272275
H174	H	1.646116	-0.570403	0.227725
O175	O	0.621620	-0.427822	-0.465251
O176	O	1.121620	0.072178	0.034749
C177	C	0.603503	-0.412536	-0.537984
C178	C	1.103503	0.087464	-0.037984
H179	H	0.584763	-0.356315	-0.539441
H180	H	1.084763	0.143685	-0.039441
H181	H	0.653802	-0.418637	-0.574585
H182	H	1.153802	0.081363	-0.074585
H183	H	0.557295	-0.450295	-0.558740
H184	H	1.057295	0.049705	-0.058740
O185	O	0.967591	-1.076096	-0.450603
O186	O	1.467591	-0.576096	0.049397
C187	C	0.928024	-1.027905	-0.490070
C188	C	1.428024	-0.527905	0.009930
H189	H	0.960348	-0.975482	-0.490435
H190	H	1.460348	-0.475482	0.009565
H191	H	0.919266	-1.049114	-0.548940
H192	H	1.419266	-0.549114	-0.048940
H193	H	0.872466	-1.020150	-0.462749
H194	H	1.372466	-0.520150	0.037251
O195	O	0.973744	-0.931272	-0.444503
O196	O	1.473744	-0.431272	0.055497
C197	C	1.017381	-0.888677	-0.490274
C198	C	1.517381	-0.388677	0.009726
H199	H	1.074422	-0.910773	-0.495806
H200	H	1.574422	-0.410773	0.004194
H201	H	0.990763	-0.887835	-0.546848
H202	H	1.490763	-0.387835	-0.046848
H203	H	1.022244	-0.832980	-0.465181
H204	H	1.522244	-0.332980	0.034819
O205	O	0.939329	-0.746216	-0.478532
O206	O	1.439329	-0.246216	0.021468
C207	C	0.946406	-0.818973	-0.471530
C208	C	1.446406	-0.318973	0.028470
H209	H	0.970122	-0.829031	-0.415182
H210	H	1.470122	-0.329031	0.084818
H211	H	0.890112	-0.846947	-0.477649
H212	H	1.390112	-0.346947	0.022351
H213	H	0.984704	-0.839774	-0.516095
H214	H	1.484704	-0.339774	-0.016095
H215	H	0.960490	-0.420562	-0.942274
H216	H	1.460490	0.079438	-0.442274
H217	H	0.960459	-0.420598	-0.802834
H218	H	1.460459	0.079402	-0.302834
