data_functionalizedCrystal
_audit_creation_method	'MofGen! by Chris Wilmer'
_symmetry_space_group_name_H-M	'P1'
_symmetry_Int_Tables_number	1
_symmetry_cell_setting	triclinic
loop_
_symmetry_equiv_pos_as_xyz
  x,y,z
_cell_length_a	14.908558
_cell_length_b	14.908308
_cell_length_c	17.077402
_cell_angle_alpha	86.735523
_cell_angle_beta	93.282020
_cell_angle_gamma	90.175599
loop_
_atom_site_label
_atom_site_type_symbol
_atom_site_fract_x
_atom_site_fract_y
_atom_site_fract_z
Zn1	Zn	1.345279	-0.587548	0.409663
Zn2	Zn	1.845279	-0.087548	0.909663
Zn3	Zn	1.353854	-0.437182	0.533823
Zn4	Zn	1.853854	0.062818	1.033823
Zn5	Zn	1.203595	-0.428548	0.394584
Zn6	Zn	1.703595	0.071452	0.894584
Zn7	Zn	1.194881	-0.578835	0.532889
Zn8	Zn	1.694881	-0.078835	1.032889
O9	O	1.274402	-0.508028	0.467740
O10	O	1.774402	-0.008028	0.967740
O11	O	1.472242	-0.574862	0.432835
O12	O	1.972242	-0.074862	0.932835
O13	O	1.341157	-0.310212	0.509434
O14	O	1.841157	0.189788	1.009434
O15	O	1.222448	-0.449673	0.286742
O16	O	1.722448	0.050327	0.786742
O17	O	1.478542	-0.464388	0.524055
O18	O	1.978542	0.035612	1.024055
O19	O	1.326543	-0.566490	0.297821
O20	O	1.826543	-0.066490	0.797821
O21	O	1.230762	-0.303869	0.407135
O22	O	1.730762	0.196131	0.907135
O23	O	1.076613	-0.441224	0.406229
O24	O	1.576613	0.058776	0.906229
O25	O	1.207597	-0.705815	0.522462
O26	O	1.707597	-0.205815	1.022462
O27	O	1.070211	-0.551639	0.507840
O28	O	1.570211	-0.051639	1.007840
O29	O	1.318093	-0.712217	0.431929
O30	O	1.818093	-0.212217	0.931929
O31	O	1.332708	-0.455939	0.643542
O32	O	1.832708	0.044061	1.143542
O33	O	1.215911	-0.560011	0.642855
O34	O	1.715911	-0.060011	1.142855
C35	C	1.040787	-0.494550	0.455297
C36	C	1.540787	0.005450	0.955297
C37	C	0.940844	-0.488805	0.449994
C38	C	1.440844	0.011195	0.949994
C39	C	0.803280	-0.423315	0.389547
C40	C	1.303280	0.076685	0.889547
C41	C	0.897186	-0.428709	0.394526
C42	C	1.397186	0.071291	0.894526
C43	C	0.890590	-0.543513	0.500486
C44	C	1.390590	-0.043513	1.000486
C45	C	0.796684	-0.538119	0.495508
C46	C	1.296684	-0.038119	0.995508
C47	C	0.753033	-0.478017	0.440037
C48	C	1.253033	0.021983	0.940037
C49	C	0.659126	-0.472619	0.435063
C50	C	1.159126	0.027381	0.935063
C51	C	0.652531	-0.587426	0.541019
C52	C	1.152531	-0.087426	1.041019
C53	C	0.746437	-0.592820	0.545998
C54	C	1.246437	-0.092820	1.045998
C55	C	1.260917	-0.742553	0.478773
C56	C	1.760917	-0.242553	0.978773
C57	C	1.255170	-0.842494	0.483475
C58	C	1.755170	-0.342494	0.983475
C59	C	1.359428	-1.036960	0.398019
C60	C	1.859428	-0.536960	0.898019
C61	C	1.354032	-1.130863	0.402435
C62	C	1.854032	-0.630863	0.902435
C63	C	1.238975	-1.124205	0.496716
C64	C	1.738975	-0.624205	0.996716
C65	C	1.244372	-1.030302	0.492301
C66	C	1.744372	-0.530302	0.992301
C67	C	1.304602	-0.986683	0.442952
C68	C	1.804602	-0.486683	0.942952
C69	C	1.310002	-0.892778	0.438541
C70	C	1.810002	-0.392778	0.938541
C71	C	1.194942	-0.886121	0.532818
C72	C	1.694942	-0.386121	1.032818
C73	C	1.189545	-0.980024	0.537233
C74	C	1.689545	-0.480024	1.037233
C75	C	1.508930	-0.521560	0.480232
C76	C	2.008930	-0.021560	0.980232
C77	C	1.608872	-0.527326	0.485555
C78	C	2.108872	-0.027326	0.985555
C79	C	1.274317	-0.507988	0.671681
C80	C	1.774317	-0.007988	1.171681
C81	C	1.274362	-0.508005	0.758934
C82	C	1.774362	-0.008005	1.258934
C83	C	1.287887	-0.274419	0.456696
C84	C	1.787887	0.225581	0.956696
C85	C	1.293808	-0.174489	0.451782
C86	C	1.793808	0.325511	0.951782
C87	C	1.274511	-0.508091	0.263004
C88	C	1.774511	-0.008091	0.763004
C89	C	1.274557	-0.508117	0.175758
C90	C	1.774557	-0.008117	0.675758
C91	C	1.335233	-0.453880	0.800262
C92	C	1.835233	0.046120	1.300262
C93	C	1.335275	-0.453905	0.882246
C94	C	1.835275	0.046095	1.382246
C95	C	1.274442	-0.508052	0.922900
C96	C	1.774442	-0.008052	1.422900
C97	C	1.213568	-0.562183	0.881567
C98	C	1.713568	-0.062183	1.381567
C99	C	1.213530	-0.562162	0.799585
C100	C	1.713530	-0.062162	1.299585
C101	C	1.213649	-0.562222	1.052443
C102	C	1.713649	-0.062222	1.552443
C103	C	1.213686	-0.562242	1.134430
C104	C	1.713686	-0.062242	1.634430
C105	C	1.335394	-0.453965	1.135104
C106	C	1.835394	0.046035	1.635104
C107	C	1.335357	-0.453944	1.053122
C108	C	1.835357	0.046056	1.553122
C109	C	1.274481	-0.508074	1.011794
C110	C	1.774481	-0.008074	1.511794
H111	H	0.611609	-0.631968	0.582132
H112	H	1.111609	-0.131968	1.082132
C113	C	1.123290	-1.028015	0.591507
C114	C	1.623290	-0.528015	1.091507
N115	N	1.073384	-1.064161	0.632388
N116	N	1.573384	-0.564161	1.132388
H117	H	0.926147	-0.592449	0.545644
H118	H	1.426147	-0.092449	1.045644
H119	H	1.384767	-0.409783	0.767166
H120	H	1.884767	0.090217	1.267166
H121	H	0.781990	-0.641755	0.591158
H122	H	1.281990	-0.141755	1.091158
C123	C	1.134629	-0.830808	0.582247
C124	C	1.634629	-0.330808	1.082247
N125	N	1.089204	-0.789145	0.619477
N126	N	1.589204	-0.289145	1.119477
C127	C	1.402233	-0.394357	0.927702
C128	C	1.902233	0.105643	1.427702
N129	N	1.452667	-0.349501	0.961939
N130	N	1.952667	0.150499	1.461939
H131	H	1.384887	-0.409849	1.020021
H132	H	1.884887	0.090151	1.520021
H133	H	1.384964	-0.409894	1.168757
H134	H	1.884964	0.090106	1.668757
H135	H	1.164166	-0.606351	1.167530
H136	H	1.664166	-0.106351	1.667530
C137	C	1.376253	-0.844799	0.384254
C138	C	1.876253	-0.344799	0.884254
N139	N	1.426151	-0.808663	0.343361
N140	N	1.926151	-0.308663	0.843361
C141	C	1.425685	-0.988978	0.343740
C142	C	1.925685	-0.488978	0.843740
N143	N	1.475590	-0.952839	0.302855
N144	N	1.975590	-0.452839	0.802855
C145	C	1.146676	-0.621760	1.006983
C146	C	1.646676	-0.121760	1.506983
N147	N	1.096227	-0.666597	0.972743
N148	N	1.596227	-0.166597	1.472743
C149	C	1.414348	-1.186166	0.353008
C150	C	1.914348	-0.686166	0.853008
N151	N	1.459781	-1.227819	0.315778
N152	N	1.959781	-0.727819	0.815778
C153	C	1.146568	-0.621704	0.754125
C154	C	1.646568	-0.121704	1.254125
N155	N	1.096132	-0.666556	0.719885
N156	N	1.596132	-0.166556	1.219885
H157	H	1.189939	-1.159736	0.536893
H158	H	1.689939	-0.659736	1.036893
H159	H	0.623587	-0.423682	0.389895
H160	H	1.123587	0.076318	0.889895
H161	H	1.164040	-0.606274	0.914674
H162	H	1.664040	-0.106274	1.414674
H163	H	0.767739	-0.374377	0.344382
H164	H	1.267739	0.125623	0.844382
H165	H	0.938094	-0.384169	0.353409
H166	H	1.438094	0.115831	0.853409
