data_functionalizedCrystal
_audit_creation_method	'MofGen! by Chris Wilmer'
_symmetry_space_group_name_H-M	'P1'
_symmetry_Int_Tables_number	1
_symmetry_cell_setting	triclinic
loop_
_symmetry_equiv_pos_as_xyz
  x,y,z
_cell_length_a	15.944551
_cell_length_b	19.188930
_cell_length_c	15.021413
_cell_angle_alpha	89.998889
_cell_angle_beta	89.997174
_cell_angle_gamma	83.321760
loop_
_atom_site_label
_atom_site_type_symbol
_atom_site_fract_x
_atom_site_fract_y
_atom_site_fract_z
O1	O	1.114192	0.090039	-0.073949
O2	O	0.869601	0.101141	-0.073973
O3	O	0.998955	-0.006048	-0.073943
O4	O	0.984838	0.197227	-0.073979
O5	O	0.998934	-0.006033	0.074121
O6	O	0.869580	0.101156	0.074091
O7	O	1.114171	0.090054	0.074115
Zn8	Zn	0.991873	0.095607	0.097611
Zn9	Zn	0.991900	0.095587	-0.097470
O10	O	0.984817	0.197242	0.074085
C11	C	0.838298	0.100687	0.000056
C12	C	0.745057	0.099306	0.000048
C13	C	0.998487	-0.032052	0.000091
C14	C	0.997115	-0.109560	0.000099
C15	C	0.530462	0.029563	0.000078
C16	C	0.469331	0.061941	-0.072931
C17	C	0.574341	0.096806	0.000059
C18	C	0.469332	0.061972	0.073048
C19	C	0.409437	0.094386	0.000074
C20	C	0.514438	0.129203	-0.073010
C21	C	0.514446	0.129225	0.073035
C22	C	0.453332	0.161652	0.000008
C23	C	0.669338	0.098198	0.000050
C24	C	0.314441	0.093000	0.000076
C25	C	1.073016	-0.154288	0.000111
C26	C	1.071726	-0.227115	0.000096
C27	C	0.994532	-0.255211	0.000088
C28	C	0.918622	-0.210474	0.000072
C29	C	0.919913	-0.137648	0.000077
N30	N	0.935519	-0.363364	0.050472
N31	N	0.934298	-0.432546	0.050468
C32	C	0.990637	-0.474630	0.000070
N33	N	1.048256	-0.444921	-0.050314
N34	N	1.049480	-0.375733	-0.050307
C35	C	0.993123	-0.334178	0.000082
C36	C	1.065145	-0.598326	0.000064
C37	C	1.063852	-0.671154	0.000044
C38	C	0.910745	-0.654511	0.000029
C39	C	0.912040	-0.581685	0.000040
C40	C	0.989242	-0.553597	0.000062
C41	C	1.145474	0.090507	0.000083
C42	C	1.238715	0.091889	0.000086
C43	C	0.985285	0.223247	0.000048
C44	C	0.986657	0.300755	0.000035
N45	N	0.991860	0.095621	0.230749
N46	N	0.991919	0.095568	-0.230607
C47	C	0.932038	0.145161	0.470418
C48	C	1.007887	0.158716	0.529757
C49	C	0.991882	0.095603	0.412356
C50	C	0.916053	0.082064	0.529759
C51	C	0.991896	0.095588	0.587780
C52	C	1.067770	0.109189	0.470388
C53	C	0.975885	0.032510	0.470384
C54	C	1.051789	0.046038	0.529697
C55	C	0.991872	0.095614	0.311299
C56	C	0.991914	0.095577	0.688835
H57	H	0.564003	-0.026244	-0.000002
H58	H	1.128007	-0.575456	0.000078
H59	H	0.449335	0.033494	-0.134646
C60	C	0.864747	0.201129	0.435576
C61	C	0.902805	0.248885	0.383027
C62	C	0.840848	0.300446	0.350904
H63	H	0.836494	0.225174	0.484262
H64	H	0.825159	0.179664	0.400729
H65	H	0.942379	0.270348	0.417873
H66	H	0.931053	0.224861	0.334328
H67	H	0.801260	0.278981	0.316056
H68	H	0.812599	0.324485	0.399595
H69	H	0.866661	0.332851	0.315239
C70	C	1.146355	-0.719603	0.000102
C71	C	1.214236	-0.679413	0.000147
C72	C	1.290251	-0.724021	0.000212
H73	H	1.149166	-0.748370	-0.051521
H74	H	1.149066	-0.748352	0.051753
H75	H	1.211526	-0.650677	-0.051499
H76	H	1.211452	-0.650648	0.051766
H77	H	1.292962	-0.752770	0.051863
H78	H	1.293054	-0.752786	-0.051411
H79	H	1.336317	-0.696759	0.000251
C80	C	1.025972	0.229790	0.564718
C81	C	1.026512	0.228623	0.657914
C82	C	1.043170	0.294082	0.690148
H83	H	0.983435	0.265015	0.544523
H84	H	1.079457	0.239754	0.543570
H85	H	0.973035	0.218668	0.679053
H86	H	1.069049	0.193412	0.678133
H87	H	1.096655	0.304046	0.669000
H88	H	1.000631	0.329302	0.669947
H89	H	1.043546	0.293297	0.753384
H90	H	1.133536	-0.263540	0.000102
H91	H	0.855769	-0.233354	0.000063
H92	H	0.851919	0.070620	0.555840
H93	H	1.102459	0.004119	0.555561
H94	H	1.131917	0.120698	0.444419
H95	H	0.534328	0.157617	-0.134801
C96	C	0.837411	-0.089198	0.000116
C97	C	0.769528	-0.129386	0.000123
C98	C	0.693515	-0.084777	0.000173
H99	H	0.834622	-0.060422	-0.051500
H100	H	0.834680	-0.060458	0.051774
H101	H	0.772258	-0.158114	-0.051529
H102	H	0.772290	-0.158161	0.051735
H103	H	0.690783	-0.056037	0.051831
H104	H	0.690734	-0.056003	-0.051443
H105	H	0.647448	-0.112038	0.000187
H106	H	0.850233	-0.545266	0.000035
C107	C	0.408876	0.236152	-0.000239
C108	C	0.431740	0.271017	-0.076817
C109	C	0.390793	0.339642	-0.077085
H110	H	0.424973	0.260306	0.051065
H111	H	0.349487	0.234899	0.000206
H112	H	0.491116	0.272274	-0.077254
H113	H	0.415641	0.246884	-0.128133
H114	H	0.331404	0.338389	-0.076640
H115	H	0.406893	0.363789	-0.025778
H116	H	0.406294	0.363304	-0.129046
C117	C	0.541175	0.167244	0.155217
C118	C	0.580017	0.225776	0.129134
C119	C	0.604643	0.260815	0.204823
H120	H	0.579814	0.136455	0.189053
H121	H	0.492884	0.182108	0.190413
H122	H	0.628301	0.210911	0.093953
H123	H	0.541393	0.256581	0.095309
H124	H	0.556353	0.275679	0.240019
H125	H	0.643279	0.230021	0.238654
H126	H	0.630993	0.300537	0.187137
H127	H	0.962318	-0.020823	0.444285
H128	H	0.449344	0.033525	0.134770
C129	C	1.156919	-0.123929	0.000082
C130	C	1.223114	-0.178693	0.000067
C131	C	1.300417	-0.150752	0.000029
H132	H	1.160717	-0.095877	0.051704
H133	H	1.160661	-0.095884	-0.051570
H134	H	1.219373	-0.206726	0.051714
H135	H	1.219344	-0.206749	-0.051550
H136	H	1.304160	-0.122707	-0.051623
H137	H	1.304206	-0.122701	0.051651
H138	H	1.345340	-0.187904	0.000010
H139	H	0.847892	-0.677386	0.000018
