data_functionalizedCrystal
_audit_creation_method	'MofGen! by Chris Wilmer'
_symmetry_space_group_name_H-M	'P1'
_symmetry_Int_Tables_number	1
_symmetry_cell_setting	triclinic
loop_
_symmetry_equiv_pos_as_xyz
  x,y,z
_cell_length_a	13.897449
_cell_length_b	16.120484
_cell_length_c	13.897441
_cell_angle_alpha	87.134365
_cell_angle_beta	90.020733
_cell_angle_gamma	92.926780
loop_
_atom_site_label
_atom_site_type_symbol
_atom_site_fract_x
_atom_site_fract_y
_atom_site_fract_z
Zn1	Zn	1.455182	-0.331852	0.564824
Zn2	Zn	1.705182	-0.081852	0.814824
Zn3	Zn	1.955182	0.168148	1.064824
Zn4	Zn	2.205182	0.418148	1.314824
Zn5	Zn	1.446874	-0.471283	0.411694
Zn6	Zn	1.696874	-0.221283	0.661694
Zn7	Zn	1.946874	0.028717	0.911694
Zn8	Zn	2.196874	0.278717	1.161694
Zn9	Zn	1.293869	-0.331892	0.403544
Zn10	Zn	1.543869	-0.081892	0.653544
Zn11	Zn	1.793869	0.168108	0.903544
Zn12	Zn	2.043869	0.418108	1.153544
Zn13	Zn	1.285654	-0.471229	0.572943
Zn14	Zn	1.535654	-0.221229	0.822943
Zn15	Zn	1.785654	0.028771	1.072943
Zn16	Zn	2.035654	0.278771	1.322943
O17	O	1.370395	-0.401564	0.488251
O18	O	1.620395	-0.151564	0.738251
O19	O	1.870395	0.098436	0.988251
O20	O	2.120395	0.348436	1.238251
O21	O	1.589061	-0.350354	0.544523
O22	O	1.839061	-0.100354	0.794523
O23	O	2.089061	0.149646	1.044523
O24	O	2.339061	0.399646	1.294523
O25	O	1.426539	-0.452832	0.275633
O26	O	1.676539	-0.202832	0.525633
O27	O	1.926539	0.047168	0.775633
O28	O	2.176539	0.297168	1.025633
O29	O	1.322182	-0.215221	0.418130
O30	O	1.572182	0.034779	0.668130
O31	O	1.822182	0.284779	0.918130
O32	O	2.072182	0.534779	1.168130
O33	O	1.582958	-0.452794	0.432019
O34	O	1.832958	-0.202794	0.682019
O35	O	2.082958	0.047206	0.932019
O36	O	2.332958	0.297206	1.182019
O37	O	1.440698	-0.215191	0.536621
O38	O	1.690698	0.034809	0.786621
O39	O	1.940698	0.284809	1.036621
O40	O	2.190698	0.534809	1.286621
O41	O	1.314126	-0.350422	0.269646
O42	O	1.564126	-0.100422	0.519646
O43	O	1.814126	0.149578	0.769646
O44	O	2.064126	0.399578	1.019646
O45	O	1.157798	-0.350369	0.426003
O46	O	1.407798	-0.100369	0.676003
O47	O	1.657798	0.149631	0.926003
O48	O	1.907798	0.399631	1.176003
O49	O	1.308182	-0.452700	0.706846
O50	O	1.558182	-0.202700	0.956846
O51	O	1.808182	0.047300	1.206846
O52	O	2.058182	0.297300	1.456846
O53	O	1.151763	-0.452739	0.550460
O54	O	1.401763	-0.202739	0.800460
O55	O	1.651763	0.047261	1.050460
O56	O	1.901763	0.297261	1.300460
O57	O	1.432733	-0.350301	0.700880
O58	O	1.682733	-0.100301	0.950880
O59	O	1.932733	0.149699	1.200880
O60	O	2.182733	0.399699	1.450880
O61	O	1.418574	-0.587942	0.439893
O62	O	1.668574	-0.337942	0.689893
O63	O	1.918574	-0.087942	0.939893
O64	O	2.168574	0.162058	1.189893
O65	O	1.300126	-0.587901	0.558362
O66	O	1.550126	-0.337901	0.808362
O67	O	1.800126	-0.087901	1.058362
O68	O	2.050126	0.162099	1.308362
C69	C	1.119781	-0.401553	0.488229
C70	C	1.369781	-0.151553	0.738229
C71	C	1.619781	0.098447	0.988229
C72	C	1.869781	0.348447	1.238229
C73	C	1.012566	-0.401568	0.488243
C74	C	1.262566	-0.151568	0.738243
C75	C	1.512566	0.098432	0.988243
C76	C	1.762566	0.348432	1.238243
C77	C	0.816271	-0.401571	0.488268
C78	C	1.066271	-0.151571	0.738268
C79	C	1.316271	0.098429	0.988268
C80	C	1.566271	0.348429	1.238268
C81	C	0.925504	-0.401567	0.488251
C82	C	1.175504	-0.151567	0.738251
C83	C	1.425504	0.098433	0.988251
C84	C	1.675504	0.348433	1.238251
C85	C	1.357583	-0.618172	0.500914
C86	C	1.607583	-0.368172	0.750914
C87	C	1.857583	-0.118172	1.000914
C88	C	2.107583	0.131828	1.250914
C89	C	1.352190	-0.710837	0.506363
C90	C	1.602190	-0.460837	0.756363
C91	C	1.852190	-0.210837	1.006363
C92	C	2.102190	0.039163	1.256363
C93	C	1.342350	-0.880499	0.516332
C94	C	1.592350	-0.630499	0.766332
C95	C	1.842350	-0.380499	1.016332
C96	C	2.092350	-0.130499	1.266332
C97	C	1.398613	-0.921788	0.460186
C98	C	1.648613	-0.671788	0.710186
C99	C	1.898613	-0.421788	0.960186
C100	C	2.148613	-0.171788	1.210186
C101	C	1.393137	-1.016194	0.465733
C102	C	1.643137	-0.766194	0.715733
C103	C	1.893137	-0.516194	0.965733
C104	C	2.143137	-0.266194	1.215733
C105	C	1.347824	-0.786085	0.510787
C106	C	1.597824	-0.536085	0.760787
C107	C	1.847824	-0.286085	1.010787
C108	C	2.097824	-0.036085	1.260787
C109	C	1.621987	-0.401576	0.488275
C110	C	1.871987	-0.151576	0.738275
C111	C	2.121987	0.098424	0.988275
C112	C	2.371987	0.348424	1.238275
C113	C	1.729201	-0.401581	0.488285
C114	C	1.979201	-0.151581	0.738285
C115	C	2.229201	0.098419	0.988285
C116	C	2.479201	0.348419	1.238285
C117	C	1.370468	-0.401490	0.739840
C118	C	1.620468	-0.151490	0.989840
C119	C	1.870468	0.098510	1.239840
C120	C	2.120468	0.348510	1.489840
C121	C	1.370499	-0.401459	0.847052
C122	C	1.620499	-0.151459	1.097052
C123	C	1.870499	0.098541	1.347052
C124	C	2.120499	0.348541	1.597052
C125	C	1.383283	-0.184110	0.475560
C126	C	1.633283	0.065890	0.725560
C127	C	1.883283	0.315890	0.975560
C128	C	2.133283	0.565890	1.225560
C129	C	1.388775	-0.091444	0.470152
C130	C	1.638775	0.158556	0.720152
C131	C	1.888775	0.408556	0.970152
C132	C	2.138775	0.658556	1.220152
C133	C	1.370382	-0.401577	0.237638
C134	C	1.620382	-0.151577	0.487638
C135	C	1.870382	0.098423	0.737638
C136	C	2.120382	0.348423	0.987638
C137	C	1.370551	-0.401374	0.130412
C138	C	1.620551	-0.151374	0.380412
C139	C	1.870551	0.098626	0.630412
C140	C	2.120551	0.348626	0.880412
C141	C	1.370528	-0.401402	1.043344
C142	C	1.620528	-0.151402	1.293344
C143	C	1.870528	0.098598	1.543344
C144	C	2.120528	0.348598	1.793344
C145	C	1.370509	-0.401436	0.934114
C146	C	1.620509	-0.151436	1.184114
C147	C	1.870509	0.098564	1.434114
C148	C	2.120509	0.348564	1.684114
H149	H	1.450891	-0.886236	0.407952
H150	H	1.700891	-0.636236	0.657952
H151	H	1.950891	-0.386236	0.907952
H152	H	2.200891	-0.136236	1.157952
H153	H	1.290074	-0.916048	0.568561
H154	H	1.540074	-0.666048	0.818561
H155	H	1.790074	-0.416048	1.068561
H156	H	2.040074	-0.166048	1.318561
