data_functionalizedCrystal
_audit_creation_method	'MofGen! by Chris Wilmer'
_symmetry_space_group_name_H-M	'P1'
_symmetry_Int_Tables_number	1
_symmetry_cell_setting	triclinic
loop_
_symmetry_equiv_pos_as_xyz
  x,y,z
_cell_length_a	21.295418
_cell_length_b	21.295417
_cell_length_c	16.120297
_cell_angle_alpha	92.868089
_cell_angle_beta	92.858291
_cell_angle_gamma	90.045515
loop_
_atom_site_label
_atom_site_type_symbol
_atom_site_fract_x
_atom_site_fract_y
_atom_site_fract_z
Zn1	Zn	0.944264	-0.268427	-0.471781
Zn2	Zn	0.949516	-0.368356	-0.332364
Zn3	Zn	0.844336	-0.263133	-0.332341
Zn4	Zn	0.838962	-0.373688	-0.471680
O5	O	0.894270	-0.318401	-0.402042
O6	O	1.033048	-0.281667	-0.453339
O7	O	0.940010	-0.349951	-0.215700
O8	O	0.857643	-0.175747	-0.350870
O9	O	1.036906	-0.355085	-0.350910
O10	O	0.931060	-0.179637	-0.453317
O11	O	0.862734	-0.272644	-0.215683
O12	O	0.755536	-0.277814	-0.350773
O13	O	0.848484	-0.364172	-0.588354
O14	O	0.751588	-0.359038	-0.453145
O15	O	0.925849	-0.286837	-0.588428
O16	O	0.934799	-0.457152	-0.350812
O17	O	0.853576	-0.461069	-0.453167
C18	C	0.730722	-0.318431	-0.401946
C19	C	0.660754	-0.318459	-0.401924
C20	C	0.894191	-0.481951	-0.401999
C21	C	0.894214	-0.551920	-0.402009
C22	C	0.625851	-0.360803	-0.455150
C23	C	0.560108	-0.360789	-0.455187
C24	C	0.529269	-0.318437	-0.401984
C25	C	0.564180	-0.276085	-0.348755
C26	C	0.629923	-0.276096	-0.348725
N27	N	0.428790	-0.310726	-0.329069
N28	N	0.366337	-0.310719	-0.329100
C29	C	0.331191	-0.318400	-0.402073
N30	N	0.360857	-0.326100	-0.475015
N31	N	0.423316	-0.326110	-0.474983
C32	C	0.457983	-0.318420	-0.402011
C33	C	0.225001	-0.360731	-0.455343
C34	C	0.159256	-0.360712	-0.455382
C35	C	0.163331	-0.276012	-0.348943
C36	C	0.229074	-0.276028	-0.348911
C37	C	0.259906	-0.318390	-0.402110
C38	C	0.932418	-0.586756	-0.455391
C39	C	0.932439	-0.652499	-0.455411
C40	C	0.894264	-0.683403	-0.402035
C41	C	0.856052	-0.648559	-0.348650
C42	C	0.856027	-0.582817	-0.348637
N43	N	0.892303	-0.783871	-0.329074
N44	N	0.892330	-0.846323	-0.329089
C45	C	0.894336	-0.881479	-0.402073
N46	N	0.896326	-0.851824	-0.475044
N47	N	0.896301	-0.789366	-0.475028
C48	C	0.894286	-0.754689	-0.402044
C49	C	0.932565	-0.987602	-0.455482
C50	C	0.932582	-1.053347	-0.455504
C51	C	0.856199	-1.049405	-0.348735
C52	C	0.856178	-0.983662	-0.348720
C53	C	0.894365	-0.952764	-0.402092
C54	C	1.058456	-0.318372	-0.402138
C55	C	1.128423	-0.318360	-0.402180
C56	C	0.885982	-0.326690	-0.619486
C57	C	0.882450	-0.330222	-0.712147
C58	C	0.894365	-0.154213	-0.402102
C59	C	0.894406	-0.084246	-0.402128
C60	C	0.875979	-0.336656	-0.881801
C61	C	0.912684	-0.299957	-0.923134
C62	C	0.909084	-0.303538	-1.017535
C63	C	0.879579	-0.333077	-0.787392
C64	C	0.902561	-0.310099	-0.185443
C65	C	0.906215	-0.306390	-0.092782
H66	H	0.650950	-0.395297	-0.498470
Cl67	Cl	0.115377	-0.413946	-0.522305
Cl68	Cl	0.673803	-0.222860	-0.281807
H69	H	0.250106	-0.395222	-0.498665
H70	H	0.531684	-0.395270	-0.498533
H71	H	0.946812	-0.265849	-0.887621
Cl72	Cl	0.124569	-0.222766	-0.282063
H73	H	0.841854	-0.370762	-0.917311
Cl74	Cl	0.808204	-1.088249	-0.281635
Cl75	Cl	0.808148	-0.939865	-0.281607
H76	H	0.539068	-0.241601	-0.305439
Cl77	Cl	0.807995	-0.539021	-0.281523
H78	H	0.824968	-0.673725	-0.305193
Cl79	Cl	0.272954	-0.222794	-0.281993
H80	H	0.963544	-0.680869	-0.498891
Cl81	Cl	0.980419	-0.547917	-0.522493
Cl82	Cl	0.980567	-0.948757	-0.522581
Cl83	Cl	0.980606	-1.097142	-0.522629
