data_functionalizedCrystal
_audit_creation_method	'MofGen! by Chris Wilmer'
_symmetry_space_group_name_H-M	'P1'
_symmetry_Int_Tables_number	1
_symmetry_cell_setting	triclinic
loop_
_symmetry_equiv_pos_as_xyz
  x,y,z
_cell_length_a	11.792241
_cell_length_b	11.792254
_cell_length_c	9.198806
_cell_angle_alpha	89.996981
_cell_angle_beta	89.999916
_cell_angle_gamma	84.196007
loop_
_atom_site_label
_atom_site_type_symbol
_atom_site_fract_x
_atom_site_fract_y
_atom_site_fract_z
O1	O	1.506916	0.155564	-0.120752
O2	O	1.756916	0.405564	0.129248
O3	O	2.006916	0.655564	0.379248
O4	O	2.256916	0.905564	0.629248
O5	O	1.176575	0.171597	-0.120786
O6	O	1.426575	0.421597	0.129214
O7	O	1.676575	0.671597	0.379214
O8	O	1.926575	0.921597	0.629214
O9	O	1.349755	-0.001589	-0.120758
O10	O	1.599755	0.248411	0.129242
O11	O	1.849755	0.498411	0.379242
O12	O	2.099755	0.748411	0.629242
O13	O	1.333737	0.328750	-0.120780
O14	O	1.583737	0.578750	0.129220
O15	O	1.833737	0.828750	0.379220
O16	O	2.083737	1.078750	0.629220
O17	O	1.349740	-0.001589	0.121027
O18	O	1.599740	0.248411	0.371027
O19	O	1.849740	0.498411	0.621027
O20	O	2.099740	0.748411	0.871027
O21	O	1.176560	0.171597	0.120999
O22	O	1.426560	0.421597	0.370999
O23	O	1.676560	0.671597	0.620999
O24	O	1.926560	0.921597	0.870999
O25	O	1.506901	0.155565	0.121033
O26	O	1.756901	0.405565	0.371033
O27	O	2.006901	0.655565	0.621033
O28	O	2.256901	0.905565	0.871033
Cu29	Cu	1.341729	0.163581	0.143093
Cu30	Cu	1.591729	0.413581	0.393093
Cu31	Cu	1.841729	0.663581	0.643093
Cu32	Cu	2.091729	0.913581	0.893093
Cu33	Cu	1.341747	0.163580	-0.142846
Cu34	Cu	1.591747	0.413580	0.107154
Cu35	Cu	1.841747	0.663580	0.357154
Cu36	Cu	2.091747	0.913580	0.607154
O37	O	1.333722	0.328751	0.121005
O38	O	1.583722	0.578751	0.371005
O39	O	1.833722	0.828751	0.621005
O40	O	2.083722	1.078751	0.871005
C41	C	1.348738	-0.043880	0.000134
C42	C	1.598738	0.206120	0.250134
C43	C	1.848738	0.456120	0.500134
C44	C	2.098738	0.706120	0.750134
C45	C	1.345718	-0.169893	0.000133
C46	C	1.595718	0.080107	0.250133
C47	C	1.845718	0.330107	0.500133
C48	C	2.095718	0.580107	0.750133
C49	C	1.134277	0.170590	0.000102
C50	C	1.384277	0.420590	0.250102
C51	C	1.634277	0.670590	0.500102
C52	C	1.884277	0.920590	0.750102
C53	C	1.008263	0.167576	0.000090
C54	C	1.258263	0.417576	0.250090
C55	C	1.508263	0.667576	0.500090
C56	C	1.758263	0.917576	0.750090
C57	C	1.343264	-0.272229	0.000127
C58	C	1.593264	-0.022229	0.250127
C59	C	1.843264	0.227771	0.500127
C60	C	2.093264	0.477771	0.750127
C61	C	1.340196	-0.400616	0.000113
C62	C	1.590196	-0.150616	0.250113
C63	C	1.840196	0.099384	0.500113
C64	C	2.090196	0.349384	0.750113
C65	C	0.777551	0.162033	0.000132
C66	C	1.027551	0.412033	0.250132
C67	C	1.277551	0.662033	0.500132
C68	C	1.527551	0.912033	0.750132
C69	C	0.905936	0.165112	0.000109
C70	C	1.155936	0.415112	0.250109
C71	C	1.405936	0.665112	0.500109
C72	C	1.655936	0.915112	0.750109
C73	C	1.549199	0.156571	0.000142
C74	C	1.799199	0.406571	0.250142
C75	C	2.049199	0.656571	0.500142
C76	C	2.299199	0.906571	0.750142
C77	C	1.675213	0.159586	0.000145
C78	C	1.925213	0.409586	0.250145
C79	C	2.175213	0.659586	0.500145
C80	C	2.425213	0.909586	0.750145
C81	C	1.334738	0.371041	0.000110
C82	C	1.584738	0.621041	0.250110
C83	C	1.834738	0.871041	0.500110
C84	C	2.084738	1.121041	0.750110
C85	C	1.337758	0.497054	0.000102
C86	C	1.587758	0.747054	0.250102
C87	C	1.837758	0.997054	0.500102
C88	C	2.087758	1.247054	0.750102
N89	N	1.341725	0.163581	0.344207
N90	N	1.591725	0.413581	0.594207
N91	N	1.841725	0.663581	0.844207
N92	N	2.091725	0.913581	1.094207
C93	C	1.414615	0.090710	0.583820
C94	C	1.664615	0.340710	0.833820
C95	C	1.914615	0.590710	1.083820
C96	C	2.164615	0.840710	1.333820
C97	C	1.414602	0.090709	0.416407
C98	C	1.664602	0.340709	0.666407
C99	C	1.914602	0.590709	0.916407
C100	C	2.164602	0.840709	1.166407
N101	N	1.341751	0.163580	0.656040
N102	N	1.591751	0.413580	0.906040
N103	N	1.841751	0.663580	1.156040
N104	N	2.091751	0.913580	1.406040
H105	H	1.477012	0.028325	0.645926
H106	H	1.727012	0.278325	0.895926
H107	H	1.977012	0.528325	1.145926
H108	H	2.227012	0.778325	1.395926
C109	C	1.257462	0.247867	0.572157
C110	C	1.507462	0.497867	0.822157
C111	C	1.757462	0.747867	1.072157
C112	C	2.007462	0.997867	1.322157
H113	H	1.211755	0.293592	0.639177
H114	H	1.461755	0.543592	0.889177
H115	H	1.711755	0.793592	1.139177
H116	H	1.961755	1.043592	1.389177
H117	H	1.209993	0.206694	0.512784
H118	H	1.459993	0.456694	0.762784
H119	H	1.709993	0.706694	1.012784
H120	H	1.959993	0.956694	1.262784
H121	H	1.298645	0.295337	0.512776
H122	H	1.548645	0.545337	0.762776
H123	H	1.798645	0.795337	1.012776
H124	H	2.048645	1.045337	1.262776
H125	H	1.476980	0.028318	0.354301
H126	H	1.726980	0.278318	0.604301
H127	H	1.976980	0.528318	0.854301
H128	H	2.226980	0.778318	1.104301
H129	H	1.279336	0.225968	0.406304
H130	H	1.529336	0.475968	0.656304
H131	H	1.779336	0.725968	0.906304
H132	H	2.029336	0.975968	1.156304
