data_functionalizedCrystal
_audit_creation_method	'MofGen! by Chris Wilmer'
_symmetry_space_group_name_H-M	'P1'
_symmetry_Int_Tables_number	1
_symmetry_cell_setting	triclinic
loop_
_symmetry_equiv_pos_as_xyz
  x,y,z
_cell_length_a	18.050589
_cell_length_b	21.295419
_cell_length_c	18.050582
_cell_angle_alpha	90.015656
_cell_angle_beta	89.981795
_cell_angle_gamma	89.955220
loop_
_atom_site_label
_atom_site_type_symbol
_atom_site_fract_x
_atom_site_fract_y
_atom_site_fract_z
Zn1	Zn	-0.295379	-0.962306	-0.419950
Zn2	Zn	0.204621	-0.462306	0.080050
Zn3	Zn	-0.419562	-0.962230	-0.295769
Zn4	Zn	0.080438	-0.462230	0.204231
Zn5	Zn	-0.295426	-0.857047	-0.295772
Zn6	Zn	0.204574	-0.357047	0.204228
Zn7	Zn	-0.419567	-0.857003	-0.419916
Zn8	Zn	0.080433	-0.357003	0.080084
O9	O	-0.357483	-0.909646	-0.357852
O10	O	0.142517	-0.409646	0.142148
O11	O	-0.311830	-1.050385	-0.403490
O12	O	0.188170	-0.550385	0.096510
O13	O	-0.403113	-0.948264	-0.191845
O14	O	0.096887	-0.448264	0.308155
O15	O	-0.191495	-0.871060	-0.312260
O16	O	0.308505	-0.371060	0.187740
O17	O	-0.403067	-1.050329	-0.312255
O18	O	0.096933	-0.550329	0.187745
O19	O	-0.191460	-0.948393	-0.403493
O20	O	0.308540	-0.448393	0.096507
O21	O	-0.311911	-0.870986	-0.191847
O22	O	0.188089	-0.370986	0.308153
O23	O	-0.311916	-0.768951	-0.312227
O24	O	0.188084	-0.268951	0.187773
O25	O	-0.403076	-0.870984	-0.523845
O26	O	0.096924	-0.370984	-0.023845
O27	O	-0.403122	-0.768919	-0.403435
O28	O	0.096878	-0.268919	0.096565
O29	O	-0.311835	-0.948350	-0.523870
O30	O	0.188165	-0.448350	-0.023870
O31	O	-0.523487	-0.948221	-0.312222
O32	O	-0.023487	-0.448221	0.187778
O33	O	-0.523491	-0.870911	-0.403432
O34	O	-0.023491	-0.370911	0.096568
C35	C	-0.357525	-0.746095	-0.357828
C36	C	0.142475	-0.246095	0.142172
C37	C	-0.357561	-0.676126	-0.357836
C38	C	0.142439	-0.176126	0.142164
C39	C	-0.550436	-0.909570	-0.357839
C40	C	-0.050436	-0.409570	0.142161
C41	C	-0.632981	-0.909595	-0.357859
C42	C	-0.132981	-0.409595	0.142141
C43	C	-0.310132	-0.643311	-0.405415
C44	C	0.189868	-0.143311	0.094585
C45	C	-0.310115	-0.577569	-0.405417
C46	C	0.189885	-0.077569	0.094583
C47	C	-0.357539	-0.544644	-0.357848
C48	C	0.142461	-0.044644	0.142152
C49	C	-0.404970	-0.577467	-0.310259
C50	C	0.095030	-0.077467	0.189741
C51	C	-0.404981	-0.643208	-0.310254
C52	C	0.095019	-0.143208	0.189746
N53	N	-0.422521	-0.441372	-0.352052
N54	N	0.077479	0.058628	0.147948
N55	N	-0.422509	-0.378920	-0.352061
N56	N	0.077491	0.121080	0.147939
C57	C	-0.357507	-0.346569	-0.357861
C58	C	0.142493	0.153431	0.142139
N59	N	-0.292518	-0.379029	-0.363665
N60	N	0.207482	0.120971	0.136335
N61	N	-0.292531	-0.441486	-0.363659
N62	N	0.207469	0.058514	0.136341
C63	C	-0.357532	-0.473359	-0.357848
C64	C	0.142468	0.026641	0.142152
C65	C	-0.310056	-0.242469	-0.405444
C66	C	0.189944	0.257531	0.094556
C67	C	-0.310037	-0.176725	-0.405441
C68	C	0.189963	0.323275	0.094559
C69	C	-0.404899	-0.176624	-0.310287
C70	C	0.095101	0.323376	0.189713
C71	C	-0.404912	-0.242367	-0.310287
C72	C	0.095088	0.257633	0.189713
C73	C	-0.357491	-0.275285	-0.357869
C74	C	0.142509	0.224715	0.142131
C75	C	-0.832461	-0.867595	-0.407442
C76	C	-0.332461	-0.367595	0.092558
C77	C	-0.881900	-0.852255	-0.339674
C78	C	-0.381900	-0.352255	0.160326
C79	C	-0.784112	-0.909657	-0.357869
C80	C	-0.284112	-0.409657	0.142131
C81	C	-0.881754	-0.925028	-0.425644
C82	C	-0.381754	-0.425028	0.074356
C83	C	-0.930097	-0.909716	-0.357884
C84	C	-0.430097	-0.409716	0.142116
C85	C	-0.832464	-0.894287	-0.290065
C86	C	-0.332464	-0.394287	0.209935
C87	C	-0.832313	-0.967087	-0.376081
C88	C	-0.332313	-0.467087	0.123919
C89	C	-0.881730	-0.951768	-0.308267
C90	C	-0.381730	-0.451768	0.191733
C91	C	-0.700013	-0.909622	-0.357861
C92	C	-0.200013	-0.409622	0.142139
C93	C	-1.014193	-0.909751	-0.357884
C94	C	-0.514193	-0.409751	0.142116
C95	C	-0.163778	-0.909740	-0.357880
C96	C	0.336222	-0.409740	0.142120
C97	C	-0.081232	-0.909779	-0.357893
C98	C	0.418768	-0.409779	0.142107
C99	C	-0.357450	-0.909671	-0.551557
C100	C	0.142550	-0.409671	-0.051557
C101	C	-0.357436	-0.909681	-0.634103
C102	C	0.142564	-0.409681	-0.134103
C103	C	-0.357451	-0.073836	-0.357872
C104	C	0.142549	0.426164	0.142128
C105	C	-0.357461	-0.143805	-0.357870
C106	C	0.142539	0.356195	0.142130
C107	C	-0.406985	-0.867642	-0.833541
C108	C	0.093015	-0.367642	-0.333541
C109	C	-0.425119	-0.925073	-0.882934
C110	C	0.074881	-0.425073	-0.382934
C111	C	-0.357380	-0.909712	-0.785234
C112	C	0.142620	-0.409712	-0.285234
C113	C	-0.339225	-0.852313	-0.882922
C114	C	0.160775	-0.352313	-0.382922
C115	C	-0.357326	-0.909737	-0.931219
C116	C	0.142674	-0.409737	-0.431219
C117	C	-0.375549	-0.967174	-0.833540
C118	C	0.124451	-0.467174	-0.333540
C119	C	-0.289623	-0.894375	-0.833523
C120	C	0.210377	-0.394375	-0.333523
C121	C	-0.307732	-0.951845	-0.882895
C122	C	0.192268	-0.451845	-0.382895
C123	C	-0.357412	-0.909697	-0.701135
C124	C	0.142588	-0.409697	-0.201135
C125	C	-0.357294	-0.909759	-1.015316
C126	C	0.142706	-0.409759	-0.515316
C127	C	-0.357463	-0.909658	-0.164900
C128	C	0.142537	-0.409658	0.335100
C129	C	-0.357267	-0.909769	-0.082354
C130	C	0.142733	-0.409769	0.417646
H131	H	-0.271489	-0.550845	-0.444160
H132	H	0.228511	-0.050845	0.055840
N133	N	-0.803912	-0.877025	-0.214127
N134	N	-0.303912	-0.377025	0.285873
H135	H	-0.747960	-0.877091	-0.214595
H136	H	-0.247960	-0.377091	0.285405
H137	H	-0.822442	-0.833818	-0.200309
H138	H	-0.322442	-0.333818	0.299691
N139	N	-0.462624	-0.820565	-0.804826
N140	N	0.037376	-0.320565	-0.304826
H141	H	-0.461916	-0.820607	-0.748877
H142	H	0.038084	-0.320607	-0.248877
H143	H	-0.449426	-0.777327	-0.823612
H144	H	0.050574	-0.277327	-0.323612
N145	N	-0.910209	-0.998922	-0.252688
N146	N	-0.410209	-0.498922	0.247312
H147	H	-0.892182	-0.987253	-0.201544
H148	H	-0.392182	-0.487253	0.298456
H149	H	-0.966157	-0.998929	-0.253363
H150	H	-0.466157	-0.498929	0.246637
N151	N	-0.213781	-0.877147	-0.804739
N152	N	0.286219	-0.377147	-0.304739
H153	H	-0.193553	-0.912849	-0.773953
H154	H	0.306447	-0.412849	-0.273953
H155	H	-0.179484	-0.868911	-0.847868
H156	H	0.320516	-0.368911	-0.347868
H157	H	-0.443513	-0.149818	-0.271555
H158	H	0.056487	0.350182	0.228445
N159	N	-0.318903	-0.788000	-0.911645
N160	N	0.181097	-0.288000	-0.411645
H161	H	-0.272303	-0.791024	-0.942429
H162	H	0.227697	-0.291024	-0.442429
H163	H	-0.360665	-0.771226	-0.943189
H164	H	0.139335	-0.271226	-0.443189
N165	N	-0.910436	-0.942226	-0.501554
N166	N	-0.410436	-0.442226	-0.001554
H167	H	-0.966384	-0.942521	-0.500881
H168	H	-0.466384	-0.442521	-0.000881
H169	H	-0.892462	-0.910389	-0.538909
H170	H	-0.392462	-0.410389	-0.038909
H171	H	-0.271518	-0.670109	-0.444160
H172	H	0.228482	-0.170109	0.055840
N173	N	-0.500986	-0.942283	-0.911685
N174	N	-0.000986	-0.442283	-0.411685
H175	H	-0.538444	-0.910471	-0.893737
H176	H	-0.038444	-0.410471	-0.393737
H177	H	-0.500214	-0.942577	-0.967630
H178	H	-0.000214	-0.442577	-0.467630
N179	N	-0.803441	-1.031368	-0.396503
N180	N	-0.303441	-0.531368	0.103497
H181	H	-0.821337	-1.042920	-0.447730
H182	H	-0.321337	-0.542920	0.052270
H183	H	-0.747496	-1.030921	-0.395822
H184	H	-0.247496	-0.530921	0.104178
H185	H	-0.265759	-0.987475	-0.904428
H186	H	0.234241	-0.487475	-0.404428
N187	N	-0.395946	-1.031508	-0.804937
N188	N	0.104054	-0.531508	-0.304937
H189	H	-0.395862	-1.031097	-0.748985
H190	H	0.104138	-0.531097	-0.248985
H191	H	-0.446928	-1.043160	-0.823401
H192	H	0.053072	-0.543160	-0.323401
H193	H	-0.443583	-0.550656	-0.271528
H194	H	0.056417	-0.050656	0.228472
H195	H	-0.810826	-0.831973	-0.449305
H196	H	-0.310826	-0.331973	0.050695
N197	N	-0.456136	-0.678607	-0.258932
N198	N	0.043864	-0.178607	0.241068
H199	H	-0.486175	-0.647776	-0.228794
H200	H	0.013825	-0.147776	0.271206
H201	H	-0.490552	-0.705864	-0.289101
H202	H	0.009448	-0.205864	0.210899
N203	N	-0.258920	-0.277977	-0.456771
N204	N	0.241080	0.222023	0.043229
H205	H	-0.266133	-0.324603	-0.449558
H206	H	0.233867	0.175397	0.050442
H207	H	-0.270567	-0.266481	-0.509785
H208	H	0.229433	0.233519	-0.009785
N209	N	-0.910744	-0.787958	-0.319261
N210	N	-0.410744	-0.287958	0.180739
H211	H	-0.892826	-0.756191	-0.356729
H212	H	-0.392826	-0.256191	0.143271
H213	H	-0.966689	-0.788613	-0.318931
H214	H	-0.466689	-0.288613	0.181069
H215	H	-0.443536	-0.269085	-0.271546
H216	H	0.056464	0.230915	0.228454
N217	N	-0.258867	-0.141328	-0.456748
N218	N	0.241133	0.358672	0.043252
H219	H	-0.228828	-0.172159	-0.486886
H220	H	0.271172	0.327841	0.013114
H221	H	-0.289132	-0.114031	-0.491066
H222	H	0.210868	0.385969	0.008934
