data_functionalizedCrystal
_audit_creation_method	'MofGen! by Chris Wilmer'
_symmetry_space_group_name_H-M	'P1'
_symmetry_Int_Tables_number	1
_symmetry_cell_setting	triclinic
loop_
_symmetry_equiv_pos_as_xyz
  x,y,z
_cell_length_a	10.489746
_cell_length_b	10.489741
_cell_length_c	9.130313
_cell_angle_alpha	90.005193
_cell_angle_beta	89.997813
_cell_angle_gamma	84.540238
loop_
_atom_site_label
_atom_site_type_symbol
_atom_site_fract_x
_atom_site_fract_y
_atom_site_fract_z
O1	O	1.694043	0.180002	0.121700
O2	O	1.322848	0.196887	0.121724
O3	O	1.516892	0.002847	0.121703
O4	O	1.499999	0.374042	0.121721
O5	O	1.516889	0.002837	-0.121896
O6	O	1.322845	0.196877	-0.121874
O7	O	1.694040	0.179991	-0.121899
Cu8	Cu	1.508442	0.188433	-0.144129
Cu9	Cu	1.508446	0.188445	0.143955
O10	O	1.499996	0.374032	-0.121877
C11	C	1.275315	0.195606	-0.000072
C12	C	1.133686	0.191786	-0.000063
C13	C	1.515614	-0.044690	-0.000096
C14	C	1.511797	-0.186320	-0.000093
C15	C	0.980828	0.066062	-0.000090
C16	C	1.058221	0.128914	-0.120189
C17	C	1.058179	0.128953	0.119980
C18	C	0.958729	0.247895	-0.120298
C19	C	0.958682	0.247917	0.119980
C20	C	1.036025	0.310856	-0.000149
C21	C	1.388333	-0.254462	-0.000074
C22	C	1.446655	-0.346588	-0.120184
C23	C	1.446687	-0.346553	0.119985
C24	C	1.570170	-0.276581	-0.120302
C25	C	1.570185	-0.276536	0.119975
C26	C	1.628597	-0.368635	-0.000165
C27	C	1.741573	0.181273	-0.000099
C28	C	1.883202	0.185093	-0.000099
C29	C	1.501273	0.421569	-0.000076
C30	C	1.505091	0.563198	-0.000069
N31	N	1.508448	0.188445	0.346577
N32	N	1.508449	0.188424	-0.346752
C33	C	1.594533	0.102693	0.423220
C34	C	1.594537	0.102685	0.576557
C35	C	1.422361	0.274185	0.576595
C36	C	1.422364	0.274198	0.423261
C37	C	1.680617	0.016939	0.346536
C38	C	1.766707	-0.068820	0.423179
C39	C	1.766711	-0.068828	0.576516
C40	C	1.680625	0.016924	0.653210
H41	H	0.956107	-0.037439	-0.000216
N42	N	1.639284	-0.235772	-0.254987
H43	H	1.729767	-0.278403	-0.255423
H44	H	1.641307	-0.139708	-0.254127
N45	N	1.115783	0.062370	-0.254718
H46	H	1.096112	-0.030030	-0.254646
H47	H	1.211616	0.066252	-0.254153
N48	N	1.329526	0.366692	0.340583
H49	H	1.274986	0.421009	0.412426
H50	H	1.272794	0.317198	0.276949
H51	H	1.622382	-0.245486	0.221518
H52	H	1.394432	-0.377513	0.221539
N53	N	1.377473	-0.387666	-0.254697
H54	H	1.286719	-0.345731	-0.254609
H55	H	1.376225	-0.483818	-0.254119
H56	H	1.730200	-0.418057	-0.000239
N57	N	1.859558	-0.161295	0.340461
H58	H	1.844221	-0.252022	0.367132
H59	H	1.950133	-0.145428	0.367180
N60	N	1.329498	0.366655	0.659302
H61	H	1.344838	0.457384	0.632643
H62	H	1.342599	0.353522	0.768042
H63	H	1.680619	0.016935	0.221682
N64	N	1.859570	-0.161308	0.659185
H65	H	1.914101	-0.215626	0.587334
H66	H	1.810337	-0.218284	0.722797
N67	N	1.680619	0.016934	0.818595
H68	H	1.767398	0.036506	0.855534
H69	H	1.661383	-0.069984	0.855404
N70	N	0.901415	0.314407	-0.254952
H71	H	0.805467	0.311390	-0.254158
H72	H	0.938632	0.269768	-0.345483
N73	N	1.068434	0.448061	-0.000226
H74	H	1.120745	0.464048	-0.090101
H75	H	1.119400	0.464474	0.090556
N76	N	0.901042	0.314431	0.254476
H77	H	0.971319	0.346480	0.316090
H78	H	0.854214	0.252108	0.313476
N79	N	1.115734	0.062380	0.254477
H80	H	1.096063	-0.030020	0.254356
H81	H	1.078089	0.106480	0.345121
H82	H	1.286821	-0.204813	-0.000188
