data_functionalizedCrystal
_audit_creation_method	'MofGen! by Chris Wilmer'
_symmetry_space_group_name_H-M	'P1'
_symmetry_Int_Tables_number	1
_symmetry_cell_setting	triclinic
loop_
_symmetry_equiv_pos_as_xyz
  x,y,z
_cell_length_a	9.730223
_cell_length_b	14.971486
_cell_length_c	14.971486
_cell_angle_alpha	96.385871
_cell_angle_beta	89.996985
_cell_angle_gamma	89.999479
loop_
_atom_site_label
_atom_site_type_symbol
_atom_site_fract_x
_atom_site_fract_y
_atom_site_fract_z
O1	O	-0.114132	-1.186945	0.116560
O2	O	0.385868	-0.686945	0.616560
O3	O	-0.114170	-0.926545	0.130519
O4	O	0.385830	-0.426545	0.630519
O5	O	-0.114140	-1.063724	-0.006661
O6	O	0.385860	-0.563724	0.493339
O7	O	-0.114162	-1.049765	0.253740
O8	O	0.385838	-0.549765	0.753740
O9	O	0.114439	-1.063712	-0.006660
O10	O	0.614439	-0.563712	0.493340
O11	O	0.114410	-0.926532	0.130520
O12	O	0.614410	-0.426532	0.630520
O13	O	0.114447	-1.186933	0.116561
O14	O	0.614447	-0.686933	0.616561
Zn15	Zn	0.150721	-1.056731	0.123540
Zn16	Zn	0.650721	-0.556731	0.623540
Zn17	Zn	-0.150443	-1.056747	0.123539
Zn18	Zn	0.349557	-0.556747	0.623539
O19	O	0.114418	-1.049753	0.253740
O20	O	0.614418	-0.549753	0.753740
C21	C	0.000115	-0.893214	0.129895
C22	C	0.500115	-0.393214	0.629895
C23	C	0.000101	-0.793917	0.128024
C24	C	0.500101	-0.293917	0.628024
N25	N	0.356257	-1.056726	0.123541
N26	N	0.856257	-0.556726	0.623541
N27	N	-0.355980	-1.056758	0.123532
N28	N	0.144020	-0.556758	0.623532
C29	C	0.428205	-0.995975	0.184257
C30	C	0.928205	-0.495975	0.684257
C31	C	0.572088	-0.995993	0.184255
C32	C	1.072088	-0.495993	0.684255
C33	C	0.572062	-1.117516	0.062813
C34	C	1.072062	-0.617516	0.562813
C35	C	0.428182	-1.117501	0.062820
C36	C	0.928182	-0.617501	0.562820
C37	C	0.356281	-0.935200	0.244978
C38	C	0.856281	-0.435200	0.744978
C39	C	0.428229	-0.874444	0.305698
C40	C	0.928229	-0.374444	0.805698
C41	C	0.572112	-0.874462	0.305697
C42	C	1.072112	-0.374462	0.805697
C43	C	0.644046	-0.935236	0.244974
C44	C	1.144046	-0.435236	0.744974
C45	C	0.000149	-1.063094	-0.039985
C46	C	0.500149	-0.563094	0.460015
C47	C	0.000148	-1.061223	-0.139282
C48	C	0.500148	-0.561223	0.360718
C49	C	0.000159	-1.220263	0.117185
C50	C	0.500159	-0.720263	0.617185
C51	C	0.000164	-1.319561	0.119056
C52	C	0.500164	-0.819561	0.619056
C53	C	0.000096	-0.736692	0.208614
C54	C	0.500096	-0.236692	0.708614
C55	C	0.000117	-0.643392	0.206850
C56	C	0.500117	-0.143392	0.706850
C57	C	0.000133	-0.607320	0.124497
C58	C	0.500133	-0.107320	0.624497
C59	C	0.000141	-0.664552	0.043902
C60	C	0.500141	-0.164552	0.543902
C61	C	0.000131	-0.757850	0.045666
C62	C	0.500131	-0.257850	0.545666
C63	C	0.000161	-0.470090	0.040231
C64	C	0.500161	0.029910	0.540231
C65	C	0.000169	-0.376786	0.038466
C66	C	0.500169	0.123214	0.538466
C67	C	0.000147	-0.355632	0.201415
C68	C	0.500147	0.144368	0.701415
C69	C	0.000136	-0.448930	0.203179
C70	C	0.500136	0.051070	0.703179
C71	C	0.000143	-0.506156	0.122584
C72	C	0.500143	-0.006156	0.622584
C73	C	0.000160	-1.141812	-0.196507
C74	C	0.500160	-0.641812	0.303493
C75	C	0.000146	-1.140049	-0.289807
C76	C	0.500146	-0.640049	0.210193
C77	C	0.000129	-1.057696	-0.325879
C78	C	0.500129	-0.557696	0.174121
C79	C	0.000112	-0.977101	-0.268646
C80	C	0.500112	-0.477101	0.231354
C81	C	0.000117	-0.978865	-0.175349
C82	C	0.500117	-0.478865	0.324651
C83	C	0.000107	-0.973430	-0.463109
C84	C	0.500107	-0.473430	0.036891
C85	C	0.000105	-0.971665	-0.556413
C86	C	0.500105	-0.471665	-0.056413
C87	C	0.000136	-1.134614	-0.577567
C88	C	0.500136	-0.634614	-0.077567
C89	C	0.000141	-1.136378	-0.484269
C90	C	0.500141	-0.636378	0.015731
C91	C	0.000126	-1.055782	-0.427043
C92	C	0.500126	-0.555782	0.072957
C93	C	0.000125	-1.050384	0.287065
C94	C	0.500125	-0.550384	0.787065
C95	C	0.000118	-1.052254	0.386362
C96	C	0.500118	-0.552254	0.886362
H97	H	0.369652	-0.824968	0.355142
H98	H	0.869652	-0.324968	0.855142
C99	C	0.000156	-1.226964	-0.444591
C100	C	0.500156	-0.726964	0.055409
H101	H	0.000150	-1.274712	-0.492033
H102	H	0.500150	-0.774712	0.007967
H103	H	0.079867	-1.231034	-0.408636
H104	H	0.579867	-0.731034	0.091364
H105	H	-0.079565	-1.231038	-0.408633
H106	H	0.420435	-0.731038	0.091367
C107	C	0.349033	-1.184322	-0.003970
C108	C	0.849033	-0.684322	0.496030
H109	H	0.412474	-1.220511	-0.040143
H110	H	0.912474	-0.720511	0.459857
H111	H	0.292896	-1.221578	0.028273
H112	H	0.792896	-0.721578	0.528273
H113	H	0.292915	-1.152098	-0.041257
H114	H	0.792915	-0.652098	0.458743
C115	C	0.000127	-1.223268	-0.640511
C116	C	0.500127	-0.723268	-0.140511
H117	H	0.000101	-1.210425	-0.701242
H118	H	0.500101	-0.710425	-0.201242
H119	H	0.079841	-1.257033	-0.629578
H120	H	0.579841	-0.757033	-0.129578
H121	H	-0.079590	-1.257031	-0.629556
H122	H	0.420410	-0.757031	-0.129556
H123	H	0.000114	-0.904606	-0.585780
H124	H	0.500114	-0.404606	-0.085780
H125	H	0.630691	-0.824998	0.355143
H126	H	1.130691	-0.324998	0.855143
C127	C	0.000122	-0.488608	0.293765
C128	C	0.500122	0.011392	0.793765
H129	H	0.000134	-0.441166	0.341513
H130	H	0.500134	0.058834	0.841513
H131	H	-0.079590	-0.524562	0.297840
H132	H	0.420410	-0.024562	0.797840
H133	H	0.079842	-0.524566	0.297835
H134	H	0.579842	-0.024566	0.797835
C135	C	0.000122	-0.820798	-0.042982
C136	C	0.500122	-0.320798	0.457018
H137	H	0.000118	-0.785954	-0.092282
H138	H	0.500118	-0.285954	0.407718
H139	H	0.079826	-0.857640	-0.045684
H140	H	0.579826	-0.357640	0.454316
H141	H	-0.079605	-0.857626	-0.045678
H142	H	0.420395	-0.357626	0.454322
C143	C	0.000094	-0.884776	-0.400162
C144	C	0.500094	-0.384776	0.099838
H145	H	0.000097	-0.835476	-0.435006
H146	H	0.500097	-0.335476	0.064994
H147	H	-0.079614	-0.882079	-0.363321
H148	H	0.420386	-0.382079	0.136679
H149	H	0.079818	-0.882076	-0.363333
H150	H	0.579818	-0.382076	0.136667
C151	C	0.000102	-0.890219	-0.112397
C152	C	0.500102	-0.390219	0.387603
H153	H	0.000092	-0.903064	-0.051666
H154	H	0.500092	-0.403064	0.448334
H155	H	0.079804	-0.856445	-0.123340
H156	H	0.579804	-0.356445	0.376660
H157	H	-0.079628	-0.856464	-0.123339
H158	H	0.420372	-0.356464	0.376661
H159	H	0.239124	-0.935178	0.244983
H160	H	0.739124	-0.435178	0.744983
H161	H	0.000090	-0.910047	-0.298024
H162	H	0.500090	-0.410047	0.201976
C163	C	0.000148	-0.292691	0.290072
C164	C	0.500148	0.207309	0.790072
H165	H	0.000120	-0.327537	0.339370
H166	H	0.500120	0.172463	0.839370
H167	H	0.079864	-0.255861	0.292776
H168	H	0.579864	0.244139	0.792776
H169	H	-0.079568	-0.255852	0.292767
H170	H	0.420432	0.244148	0.792767
H171	H	0.000112	-0.596802	0.272474
H172	H	0.500112	-0.096802	0.772474
C173	C	0.000194	-0.337107	-0.052120
C174	C	0.500194	0.162893	0.447880
H175	H	0.000215	-0.384550	-0.099867
H176	H	0.500215	0.115450	0.400133
H177	H	-0.079513	-0.301149	-0.056198
H178	H	0.420487	0.198851	0.443802
H179	H	0.079919	-0.301154	-0.056185
H180	H	0.579919	0.198846	0.443815
C181	C	0.802315	-0.935263	0.244974
C182	C	1.302315	-0.435263	0.744974
H183	H	0.834847	-0.980159	0.200117
H184	H	1.334847	-0.480159	0.700117
H185	H	0.834886	-0.878091	0.232639
H186	H	1.334886	-0.378091	0.732639
H187	H	0.834850	-0.947572	0.302167
H188	H	1.334850	-0.447572	0.802167
C189	C	0.651180	-1.184355	-0.003984
C190	C	1.151180	-0.684355	0.496016
H191	H	0.587722	-1.220539	-0.040141
H192	H	1.087722	-0.720539	0.459859
H193	H	0.707313	-1.152146	-0.041273
H194	H	1.207313	-0.652146	0.458727
H195	H	0.707301	-1.221627	0.028256
H196	H	1.207301	-0.721627	0.528256
C197	C	0.000078	-0.776363	0.299203
C198	C	0.500078	-0.276363	0.799203
H199	H	0.000091	-0.728916	0.346946
H200	H	0.500091	-0.228916	0.846946
H201	H	-0.079636	-0.812314	0.303281
H202	H	0.420364	-0.312314	0.803281
H203	H	0.079796	-0.812321	0.303278
H204	H	0.579796	-0.312321	0.803278
H205	H	0.000168	-0.516682	-0.025399
H206	H	0.500168	-0.016682	0.474601
H207	H	0.000174	-0.635175	-0.023152
H208	H	0.500174	-0.135175	0.476848
C209	C	0.000179	-1.232402	-0.156836
C210	C	0.500179	-0.732402	0.343164
H211	H	0.000171	-1.280145	-0.204283
H212	H	0.500171	-0.780145	0.295717
H213	H	0.079890	-1.236476	-0.120883
H214	H	0.579890	-0.736476	0.379117
H215	H	-0.079541	-1.236480	-0.120878
H216	H	0.420459	-0.736480	0.379122
H217	H	0.000159	-1.205673	-0.336396
H218	H	0.500159	-0.705673	0.163604
