data_functionalizedCrystal
_audit_creation_method	'MofGen! by Chris Wilmer'
_symmetry_space_group_name_H-M	'P1'
_symmetry_Int_Tables_number	1
_symmetry_cell_setting	triclinic
loop_
_symmetry_equiv_pos_as_xyz
  x,y,z
_cell_length_a	14.044220
_cell_length_b	19.188930
_cell_length_c	12.503572
_cell_angle_alpha	93.506241
_cell_angle_beta	86.164750
_cell_angle_gamma	88.166830
loop_
_atom_site_label
_atom_site_type_symbol
_atom_site_fract_x
_atom_site_fract_y
_atom_site_fract_z
O1	O	1.262485	0.164589	-0.089229
O2	O	0.986542	0.158515	-0.089255
O3	O	1.132475	0.060411	-0.089220
O4	O	1.116552	0.262693	-0.089264
O5	O	1.121500	0.067803	0.089419
O6	O	0.975567	0.165907	0.089384
O7	O	1.251510	0.171980	0.089411
Cu8	Cu	1.112536	0.169618	0.105709
Cu9	Cu	1.125516	0.160877	-0.105553
O10	O	1.105577	0.270084	0.089376
C11	C	0.945752	0.159553	0.000061
C12	C	0.840559	0.151624	0.000052
C13	C	0.647956	0.137129	0.000077
C14	C	0.590090	0.193363	0.000069
C15	C	0.482920	0.185298	0.000083
C16	C	0.755137	0.145193	0.000063
C17	C	1.126472	0.038063	0.000102
C18	C	1.124923	-0.039541	0.000112
C19	C	1.210552	-0.078939	0.000125
C20	C	1.209099	-0.151857	0.000108
C21	C	1.122010	-0.185374	0.000098
C22	C	1.036370	-0.145968	0.000079
C23	C	1.037826	-0.073051	0.000086
N24	N	1.051706	-0.295160	0.060886
N25	N	1.050328	-0.364427	0.060882
C26	C	1.117616	-0.405067	0.000076
N27	N	1.186348	-0.373823	-0.060712
N28	N	1.187729	-0.304548	-0.060704
C29	C	1.120421	-0.264440	0.000091
C30	C	1.201676	-0.523532	0.000069
C31	C	1.200219	-0.596451	0.000045
C32	C	1.027487	-0.590560	0.000028
C33	C	1.028947	-0.517642	0.000041
C34	C	1.116043	-0.484132	0.000067
C35	C	1.292301	0.170943	0.000092
C36	C	1.397493	0.178872	0.000094
C37	C	1.111580	0.292433	0.000051
C38	C	1.113129	0.370037	0.000034
N39	N	1.103414	0.175766	0.254299
N40	N	1.134645	0.154724	-0.254143
C41	C	1.089995	0.184816	0.473411
C42	C	1.148061	0.145676	0.526752
C43	C	1.140595	0.150712	0.648673
C44	C	1.097461	0.179782	0.351478
H45	H	0.617011	0.082933	0.000094
C46	C	0.631892	0.266583	0.000029
H47	H	0.699485	0.262470	0.000010
H48	H	0.607183	0.293811	0.062314
H49	H	0.614811	0.288635	-0.062285
C50	C	1.306355	-0.042082	0.000134
H51	H	1.357146	-0.075995	0.000129
H52	H	1.306692	-0.011187	0.062428
H53	H	1.314339	-0.016335	-0.062170
C54	C	1.303294	-0.195203	0.000130
H55	H	1.355372	-0.164802	0.000153
H56	H	1.310149	-0.226343	-0.062164
H57	H	1.302476	-0.221196	0.062435
H58	H	1.034680	0.222105	0.519305
H59	H	0.965462	-0.173262	0.000069
C60	C	1.297474	-0.486665	0.000084
H61	H	1.286077	-0.437595	0.000101
H62	H	1.336548	-0.502392	-0.062210
H63	H	1.328891	-0.497257	0.062389
C64	C	1.222822	0.095323	0.464753
H65	H	1.218115	0.098513	0.389754
H66	H	1.211542	0.048846	0.483111
H67	H	1.284944	0.107564	0.483132
H68	H	1.269952	-0.628529	0.000050
C69	C	0.943630	-0.029712	0.000081
H70	H	0.891552	-0.060113	0.000078
H71	H	0.944434	-0.003710	-0.062208
H72	H	0.936782	0.001421	0.062391
H73	H	0.959218	-0.485563	0.000036
C74	C	0.931691	-0.627420	0.000014
H75	H	0.943086	-0.676489	0.000017
H76	H	0.900272	-0.616828	-0.062283
H77	H	0.892618	-0.611691	0.062316
