data_functionalizedCrystal
_audit_creation_method	'MofGen! by Chris Wilmer'
_symmetry_space_group_name_H-M	'P1'
_symmetry_Int_Tables_number	1
_symmetry_cell_setting	triclinic
loop_
_symmetry_equiv_pos_as_xyz
  x,y,z
_cell_length_a	14.044220
_cell_length_b	15.944551
_cell_length_c	12.503572
_cell_angle_alpha	93.522593
_cell_angle_beta	86.164750
_cell_angle_gamma	88.343808
loop_
_atom_site_label
_atom_site_type_symbol
_atom_site_fract_x
_atom_site_fract_y
_atom_site_fract_z
O1	O	1.263178	0.198062	-0.089210
O2	O	0.987210	0.190753	-0.089237
O3	O	1.132730	0.072697	-0.089213
O4	O	1.117659	0.316117	-0.089234
O5	O	1.121786	0.081592	0.089427
O6	O	0.976267	0.199647	0.089403
O7	O	1.252235	0.206956	0.089430
Cu8	Cu	1.113251	0.204114	0.105728
Cu9	Cu	1.126194	0.193595	-0.105535
O10	O	1.106715	0.325012	0.089406
C11	C	0.946424	0.192001	0.000079
C12	C	0.841198	0.182459	0.000069
C13	C	0.648534	0.165017	0.000092
C14	C	0.590906	0.232688	0.000091
C15	C	0.483701	0.222983	0.000104
C16	C	0.755749	0.174721	0.000079
C17	C	1.126632	0.045804	0.000107
C18	C	1.124756	-0.047583	0.000107
C19	C	1.030073	-0.269530	0.000083
C20	C	1.068645	-0.322870	0.088168
C21	C	1.121363	-0.218563	0.000099
C22	C	1.079457	-0.331621	-0.087957
C23	C	1.118079	-0.383722	0.000086
C24	C	1.159956	-0.270669	0.088256
C25	C	1.170759	-0.279418	-0.087948
C26	C	1.209396	-0.332734	0.000158
C27	C	1.123252	-0.123419	0.000107
C28	C	1.116197	-0.478865	0.000085
C29	C	1.293021	0.205708	0.000111
C30	C	1.398247	0.215249	0.000114
C31	C	1.112813	0.351905	0.000083
C32	C	1.114689	0.445291	0.000076
N33	N	1.104155	0.211512	0.254318
N34	N	1.135297	0.186191	-0.254126
C35	C	1.090774	0.222403	0.473431
C36	C	1.148675	0.175303	0.526768
C37	C	1.141230	0.181362	0.648690
C38	C	1.098218	0.216344	0.351498
H39	H	0.617360	0.099799	0.000104
H40	H	1.035617	0.267275	0.519330
C41	C	0.632280	0.319733	0.000120
C42	C	0.558038	0.380261	0.000142
C43	C	0.596119	0.460452	0.000179
H44	H	0.674184	0.323334	-0.062166
H45	H	0.666560	0.329476	0.062434
H46	H	0.523773	0.370521	-0.062165
H47	H	0.516128	0.376687	0.062424
H48	H	0.630399	0.470196	0.062492
H49	H	0.638022	0.464044	-0.062108
H50	H	0.545752	0.501531	0.000204
C51	C	1.222267	0.115391	0.465764
C52	C	1.274212	0.073115	0.538938
C53	C	1.342003	0.017915	0.482776
H54	H	1.264514	0.146289	0.421888
H55	H	1.190762	0.075712	0.421916
H56	H	1.305715	0.112788	0.582767
H57	H	1.231990	0.042200	0.582816
H58	H	1.310499	-0.021764	0.438929
H59	H	1.384243	0.048820	0.438902
H60	H	1.377250	-0.010782	0.532416
H61	H	0.954293	-0.241893	0.000164
H62	H	1.025471	-0.342162	0.162629
H63	H	1.193969	-0.244078	0.162806
H64	H	1.213901	-0.260107	-0.162413
C65	C	1.310521	-0.369325	0.000451
C66	C	1.352204	-0.338194	0.092840
C67	C	1.445351	-0.371893	0.093159
H68	H	1.347098	-0.353760	-0.061449
H69	H	1.308851	-0.428873	-0.000084
H70	H	1.353879	-0.278659	0.093365
H71	H	1.315654	-0.353757	0.154755
H72	H	1.443681	-0.431441	0.092623
H73	H	1.481919	-0.356326	0.031255
H74	H	1.473641	-0.350782	0.155848
H75	H	1.045395	-0.358298	-0.162431
