data_functionalizedCrystal
_audit_creation_method	'MofGen! by Chris Wilmer'
_symmetry_space_group_name_H-M	'P1'
_symmetry_Int_Tables_number	1
_symmetry_cell_setting	triclinic
loop_
_symmetry_equiv_pos_as_xyz
  x,y,z
_cell_length_a	16.109301
_cell_length_b	12.837942
_cell_length_c	15.186229
_cell_angle_alpha	89.996774
_cell_angle_beta	89.999362
_cell_angle_gamma	89.145211
loop_
_atom_site_label
_atom_site_type_symbol
_atom_site_fract_x
_atom_site_fract_y
_atom_site_fract_z
O1	O	1.113716	0.133240	-0.073172
O2	O	1.613716	0.633240	0.426828
O3	O	0.872971	0.149822	-0.073186
O4	O	1.372971	0.649822	0.426814
O5	O	0.988005	-0.009370	-0.073174
O6	O	1.488005	0.490630	0.426826
O7	O	0.998681	0.292432	-0.073184
O8	O	1.498681	0.792432	0.426816
O9	O	0.987996	-0.009372	0.073283
O10	O	1.487996	0.490628	0.573283
O11	O	0.872962	0.149820	0.073271
O12	O	1.372962	0.649820	0.573271
O13	O	1.113707	0.133238	0.073285
O14	O	1.613707	0.633238	0.573285
Zn15	Zn	0.993333	0.141528	0.096532
Zn16	Zn	1.493333	0.641528	0.596532
Zn17	Zn	0.993345	0.141531	-0.096432
Zn18	Zn	1.493345	0.641531	0.403568
O19	O	0.998673	0.292430	0.073273
O20	O	1.498673	0.792430	0.573273
C21	C	0.841938	0.149149	0.000041
C22	C	1.341938	0.649149	0.500041
C23	C	0.749483	0.147135	0.000036
C24	C	1.249483	0.647135	0.500036
C25	C	0.534343	0.236914	0.000043
C26	C	1.034343	0.736914	0.500043
C27	C	0.447471	0.235014	0.000049
C28	C	0.947471	0.735014	0.500049
C29	C	0.452341	0.046138	0.000051
C30	C	0.952341	0.546138	0.500051
C31	C	0.539211	0.048040	0.000052
C32	C	1.039211	0.548040	0.500052
C33	C	0.580209	0.143431	0.000043
C34	C	1.080209	0.643431	0.500043
C35	C	0.406468	0.139629	0.000048
C36	C	0.906468	0.639629	0.500048
C37	C	0.312278	0.137568	0.000055
C38	C	0.812278	0.637568	0.500055
C39	C	0.674405	0.145492	0.000039
C40	C	1.174405	0.645492	0.500039
C41	C	0.984394	-0.047991	0.000054
C42	C	1.484394	0.452009	0.500054
C43	C	0.973637	-0.163064	0.000052
C44	C	1.473637	0.336936	0.500052
C45	C	1.102954	-0.404066	0.000041
C46	C	1.602954	0.095934	0.500041
C47	C	1.092851	-0.512188	0.000039
C48	C	1.592851	-0.012188	0.500039
C49	C	0.943328	-0.487433	0.000040
C50	C	1.443328	0.012567	0.500040
C51	C	0.953431	-0.379311	0.000042
C52	C	1.453431	0.120689	0.500042
C53	C	1.033247	-0.337632	0.000044
C54	C	1.533247	0.162368	0.500044
C55	C	1.043349	-0.229507	0.000052
C56	C	1.543349	0.270493	0.500052
C57	C	0.893827	-0.204754	0.000046
C58	C	1.393827	0.295246	0.500046
C59	C	0.883724	-0.312876	0.000044
C60	C	1.383724	0.187124	0.500044
C61	C	1.144739	0.133911	0.000056
C62	C	1.644739	0.633911	0.500056
C63	C	1.237195	0.135924	0.000056
C64	C	1.737195	0.635924	0.500056
C65	C	1.002284	0.331050	0.000043
C66	C	1.502284	0.831050	0.500043
C67	C	1.013041	0.446124	0.000040
C68	C	1.513041	0.946124	0.500040
N69	N	0.993331	0.141526	0.228224
N70	N	1.493331	0.641526	0.728224
N71	N	0.993352	0.141526	-0.228125
N72	N	1.493352	0.641526	0.271875
C73	C	1.044289	0.071059	0.453952
C74	C	1.544289	0.571059	0.953952
C75	C	1.044292	0.071057	0.546142
C76	C	1.544292	0.571057	1.046142
C77	C	0.942388	0.211996	0.546141
C78	C	1.442388	0.711996	1.046141
C79	C	0.942382	0.211992	0.453953
C80	C	1.442382	0.711992	0.953953
C81	C	0.993337	0.141525	0.407861
C82	C	1.493337	0.641525	0.907861
C83	C	0.993346	0.141526	0.592239
C84	C	1.493346	0.641526	1.092239
C85	C	0.993348	0.141524	0.692195
C86	C	1.493348	0.641524	1.192195
C87	C	0.993334	0.141526	0.307898
C88	C	1.493334	0.641526	0.807898
H89	H	0.418949	-0.031526	0.000064
H90	H	0.918949	0.468474	0.500064
Br91	Br	0.873221	0.307623	0.391392
Br92	Br	1.373221	0.807623	0.891392
Br93	Br	1.211271	-0.347495	0.000071
Br94	Br	1.711271	0.152505	0.500071
Br95	Br	1.187457	-0.602348	0.000029
Br96	Br	1.687457	-0.102348	0.500029
H97	H	0.576557	-0.028091	0.000055
H98	H	1.076557	0.471909	0.500055
Br99	Br	1.151668	-0.172942	0.000064
Br100	Br	1.651668	0.327058	0.500064
H101	H	0.410130	0.311138	0.000050
H102	H	0.910130	0.811138	0.500050
Br103	Br	0.589981	0.366372	0.000034
Br104	Br	1.089981	0.866372	0.500034
H105	H	0.878346	-0.521388	0.000028
H106	H	1.378346	-0.021388	0.500028
H107	H	0.818741	-0.346827	0.000039
H108	H	1.318741	0.153173	0.500039
Br109	Br	0.799219	-0.114586	0.000066
Br110	Br	1.299219	0.385414	0.500066
H111	H	1.085781	0.013676	0.583667
H112	H	1.585781	0.513676	1.083667
Br113	Br	1.113441	-0.024576	0.391403
Br114	Br	1.613441	0.475424	0.891403
H115	H	0.900903	0.269370	0.583678
H116	H	1.400903	0.769370	1.083678
