data_functionalizedCrystal
_audit_creation_method	'MofGen! by Chris Wilmer'
_symmetry_space_group_name_H-M	'P1'
_symmetry_Int_Tables_number	1
_symmetry_cell_setting	triclinic
loop_
_symmetry_equiv_pos_as_xyz
  x,y,z
_cell_length_a	16.625548
_cell_length_b	12.827892
_cell_length_c	12.827885
_cell_angle_alpha	89.970214
_cell_angle_beta	89.978573
_cell_angle_gamma	90.016460
loop_
_atom_site_label
_atom_site_type_symbol
_atom_site_fract_x
_atom_site_fract_y
_atom_site_fract_z
Zn1	Zn	1.232727	-0.415953	-0.590903
Zn2	Zn	1.232645	-0.590730	-0.416164
Zn3	Zn	1.097887	-0.416007	-0.416171
Zn4	Zn	1.097876	-0.590656	-0.590858
O5	O	1.165284	-0.503336	-0.503524
O6	O	1.345548	-0.439146	-0.567740
O7	O	1.214739	-0.567606	-0.269929
O8	O	1.115813	-0.269764	-0.439372
O9	O	1.345488	-0.567554	-0.439359
O10	O	1.214879	-0.269724	-0.567747
O11	O	1.115733	-0.439238	-0.269934
O12	O	0.985053	-0.439166	-0.439328
O13	O	1.115794	-0.567427	-0.737100
O14	O	0.985045	-0.567480	-0.567669
O15	O	1.214868	-0.439074	-0.737134
O16	O	1.214728	-0.736956	-0.439315
O17	O	1.115714	-0.736901	-0.567662
C18	C	1.165233	-0.774846	-0.503506
C19	C	1.165285	-0.890999	-0.503533
C20	C	0.955793	-0.503321	-0.503495
C21	C	0.866172	-0.503340	-0.503507
C22	C	1.214339	-0.942776	-0.440093
C23	C	1.214394	-1.062827	-0.440120
C24	C	0.537996	-0.503347	-0.503552
C25	C	0.629304	-0.503342	-0.503536
C26	C	0.702081	-0.503344	-0.503529
C27	C	0.793395	-0.503338	-0.503514
C28	C	1.375592	-0.503352	-0.503554
C29	C	1.465214	-0.503359	-0.503567
C30	C	1.165339	-0.503236	-0.776094
C31	C	1.165363	-0.503193	-0.892248
C32	C	1.165356	-0.230766	-0.503565
C33	C	1.165387	-0.114613	-0.503583
C34	C	1.116387	-0.439660	-0.944035
C35	C	1.116410	-0.439614	-1.064085
C36	C	1.165275	-0.503361	-0.232014
C37	C	1.165407	-0.503109	-0.115861
H38	H	1.256298	-0.898231	-0.385764
C39	C	1.271130	-1.122978	-0.366740
N40	N	1.313865	-1.168286	-0.311468
H41	H	1.074484	-0.385217	-1.108621
C42	C	1.108647	-1.054469	-0.576964
N43	N	1.065912	-1.009160	-0.632235
H44	H	1.123333	-0.935548	-0.557869
C45	C	1.222057	-0.576598	-1.055705
N46	N	1.264725	-0.631951	-1.010388
H47	H	1.074437	-0.385305	-0.899495
H48	H	1.207309	-0.557553	-0.936787
