data_functionalizedCrystal
_audit_creation_method	'MofGen! by Chris Wilmer'
_symmetry_space_group_name_H-M	'P1'
_symmetry_Int_Tables_number	1
_symmetry_cell_setting	triclinic
loop_
_symmetry_equiv_pos_as_xyz
  x,y,z
_cell_length_a	12.759401
_cell_length_b	29.839131
_cell_length_c	12.759393
_cell_angle_alpha	89.961905
_cell_angle_beta	89.982620
_cell_angle_gamma	90.041581
loop_
_atom_site_label
_atom_site_type_symbol
_atom_site_fract_x
_atom_site_fract_y
_atom_site_fract_z
Zn1	Zn	1.606049	-0.178824	-0.593935
Zn2	Zn	1.605865	-0.253963	-0.418236
Zn3	Zn	1.430354	-0.178848	-0.418275
Zn4	Zn	1.430257	-0.253928	-0.593877
O5	O	1.518131	-0.216391	-0.506081
O6	O	1.753045	-0.188796	-0.570636
O7	O	1.582546	-0.244023	-0.271220
O8	O	1.453778	-0.115978	-0.441617
O9	O	1.752910	-0.244000	-0.441551
O10	O	1.582860	-0.115960	-0.570674
O11	O	1.453599	-0.188837	-0.271248
O12	O	1.283320	-0.188803	-0.441561
O13	O	1.453613	-0.243941	-0.740906
O14	O	1.283249	-0.243964	-0.570575
O15	O	1.582766	-0.188762	-0.740949
O16	O	1.582452	-0.316825	-0.441495
O17	O	1.453435	-0.316800	-0.570538
C18	C	1.245164	-0.216382	-0.506066
C19	C	1.128387	-0.216390	-0.506085
C20	C	1.517942	-0.333113	-0.506029
C21	C	1.517956	-0.383048	-0.506041
C22	C	1.073516	-0.245158	-0.573152
C23	C	0.963792	-0.245164	-0.573163
C24	C	0.963820	-0.187631	-0.439032
C25	C	1.073542	-0.187624	-0.439027
C26	C	1.073498	-0.278375	-0.650588
C27	C	0.963774	-0.278381	-0.650600
C28	C	1.585433	-0.692692	-0.438986
C29	C	1.585563	-0.880365	-0.439027
O30	O	1.642783	-0.904630	-0.381974
N31	N	1.518349	-0.903833	-0.506160
C32	C	1.451103	-0.880379	-0.573292
O33	O	1.393945	-0.904647	-0.630402
C34	C	1.450980	-0.692707	-0.573256
C35	C	1.518190	-0.669242	-0.506111
C36	C	1.652639	-0.669226	-0.371848
C37	C	1.652602	-0.622311	-0.371834
C38	C	1.585359	-0.598861	-0.438959
C39	C	1.518153	-0.622326	-0.506098
C40	C	1.383740	-0.669255	-0.640393
C41	C	1.383717	-0.622334	-0.640380
C42	C	1.450927	-0.598868	-0.573235
C43	C	1.450873	-0.551961	-0.573209
N44	N	1.518086	-0.528493	-0.506076
C45	C	1.585329	-0.551943	-0.438951
C46	C	1.451171	-0.978910	-0.573305
C47	C	1.451201	-1.025828	-0.573313
C48	C	1.585662	-1.025810	-0.439049
C49	C	1.585626	-0.978891	-0.439036
C50	C	1.518385	-0.955442	-0.506172
C51	C	1.585246	-0.453417	-0.438927
C52	C	1.585199	-0.406498	-0.438916
C53	C	1.450743	-0.406520	-0.573184
C54	C	1.450784	-0.453435	-0.573191
C55	C	1.518044	-0.476883	-0.506059
O56	O	1.393691	-0.527667	-0.630240
O57	O	1.642496	-0.527668	-0.381867
C58	C	1.585470	-0.739607	-0.439000
C59	C	1.518264	-0.763073	-0.506138
C60	C	1.451021	-0.739623	-0.573263
C61	C	1.518294	-0.809991	-0.506146
C62	C	1.585537	-0.833440	-0.439021
C63	C	1.652750	-0.809972	-0.371888
C64	C	1.652713	-0.763057	-0.371875
C65	C	1.383808	-0.763091	-0.640396
C66	C	1.383850	-0.810006	-0.640404
C67	C	1.451093	-0.833456	-0.573279
C68	C	1.792164	-0.216399	-0.506096
C69	C	1.908941	-0.216403	-0.506102
C70	C	1.518199	-0.216345	-0.780114
C71	C	1.518229	-0.216325	-0.896891
C72	C	1.518350	-0.099212	-0.506156
C73	C	1.518444	-0.049278	-0.506188
C74	C	1.451114	-0.187584	-0.951774
C75	C	1.451146	-0.187571	-1.061498
C76	C	1.585415	-0.245041	-1.061447
C77	C	1.585377	-0.245056	-0.951725
C78	C	1.373598	-0.154403	-0.951804
C79	C	1.373630	-0.154390	-1.061528
C80	C	1.518124	-0.216404	-0.233113
C81	C	1.518298	-0.216297	-0.116337
H82	H	1.118215	-0.164195	-0.384422
H83	H	1.402799	-0.121358	-0.917797
C84	C	1.725410	-0.596815	-0.298810
C85	C	1.665958	-0.569936	-0.231382
C86	C	1.733000	-0.546452	-0.164088
H87	H	1.771177	-0.578444	-0.338911
H88	H	1.765440	-0.617493	-0.258782
H89	H	1.625947	-0.549260	-0.271405
H90	H	1.620194	-0.588295	-0.191258
H91	H	1.773029	-0.567130	-0.124060
H92	H	1.778764	-0.528083	-0.204198
H93	H	1.692672	-0.528214	-0.118324
C94	C	0.904082	-0.156455	-0.366258
C95	C	0.796247	-0.162626	-0.380597
C96	C	0.741187	-0.133919	-0.313561
H97	H	0.921982	-0.126257	-0.381690
H98	H	0.921971	-0.163000	-0.295617
H99	H	0.778366	-0.156078	-0.451222
H100	H	0.778316	-0.192817	-0.365157
H101	H	0.759075	-0.140464	-0.242919
H102	H	0.759095	-0.103724	-0.328999
H103	H	0.668015	-0.138105	-0.323273
H104	H	1.640355	-0.959788	-0.384362
H105	H	1.395991	-0.387419	-0.627834
C106	C	1.113473	-0.266035	-0.759077
C107	C	1.223205	-0.266074	-0.758795
C108	C	1.260067	-0.254716	-0.858717
H109	H	1.088822	-0.237050	-0.777489
H110	H	1.088705	-0.287295	-0.808641
H111	H	1.247963	-0.244815	-0.709248
H112	H	1.247885	-0.295054	-0.740403
H113	H	1.235299	-0.275976	-0.908280
H114	H	1.235408	-0.225732	-0.877119
H115	H	1.334523	-0.254745	-0.858541
H116	H	1.107477	-0.311409	-0.621295
H117	H	1.707402	-0.688314	-0.317186
H118	H	0.929788	-0.265961	-0.727955
H119	H	1.328962	-0.603244	-0.695053
H120	H	0.933941	-0.313167	-0.628659
H121	H	1.639930	-0.387393	-0.384235
C122	C	1.377979	-0.478974	-0.646143
C123	C	1.437453	-0.505865	-0.713527
C124	C	1.370427	-0.529399	-0.780741
H125	H	1.337898	-0.458339	-0.686216
H126	H	1.332259	-0.497339	-0.605949
H127	H	1.483155	-0.487502	-0.753716
H128	H	1.477532	-0.526508	-0.673482
H129	H	1.324706	-0.547764	-0.740548
H130	H	1.330349	-0.508761	-0.820808
H131	H	1.410769	-0.547650	-0.826463
H132	H	1.395485	-0.119590	-1.091335
C133	C	1.658305	-0.478789	-0.365921
C134	C	1.717124	-0.448189	-0.307109
C135	C	1.784420	-0.471545	-0.239831
H136	H	1.704174	-0.497060	-0.406028
H137	H	1.618178	-0.497114	-0.320055
H138	H	1.757248	-0.429872	-0.352969
H139	H	1.671283	-0.429917	-0.266980
H140	H	1.744294	-0.489870	-0.193964
H141	H	1.830282	-0.489815	-0.279946
H142	H	1.824330	-0.450786	-0.199911
H143	H	1.640414	-1.044911	-0.384393
H144	H	1.707442	-0.743955	-0.317199
H145	H	1.296319	-0.166844	-1.095551
C146	C	1.658284	-0.276181	-1.121172
C147	C	1.643971	-0.270010	-1.229010
C148	C	1.711093	-0.298684	-1.284059
H149	H	1.642913	-0.306386	-1.103292
H150	H	1.728904	-0.269606	-1.103255
H151	H	1.573367	-0.276588	-1.246920
H152	H	1.659349	-0.239811	-1.246921
H153	H	1.781713	-0.292109	-1.266142
H154	H	1.695717	-0.328887	-1.266170
H155	H	1.701398	-0.294498	-1.357232
C156	C	1.378180	-1.051221	-0.646321
C157	C	1.319312	-1.020636	-0.705120
C158	C	1.252047	-1.044010	-0.772402
H159	H	1.332340	-1.069558	-0.606218
H160	H	1.418332	-1.069481	-0.692195
H161	H	1.279163	-1.002384	-0.659251
H162	H	1.365124	-1.002298	-0.745244
H163	H	1.292199	-1.062270	-0.818277
H164	H	1.206214	-1.062346	-0.732291
H165	H	1.212104	-1.023262	-0.812312
C166	C	1.725750	-0.835519	-0.299155
C167	C	1.711418	-0.881629	-0.313580
C168	C	1.778670	-0.905178	-0.246629
H169	H	1.710511	-0.827925	-0.228492
H170	H	1.796339	-0.827814	-0.314632
H171	H	1.640844	-0.889330	-0.298095
H172	H	1.726664	-0.889236	-0.384229
H173	H	1.849259	-0.897474	-0.262107
H174	H	1.763426	-0.897580	-0.175971
H175	H	1.768962	-0.936466	-0.256414
C176	C	1.378327	-0.953432	-0.646325
C177	C	1.437745	-0.926458	-0.713743
C178	C	1.370673	-0.902989	-0.781029
H179	H	1.332536	-0.935125	-0.606217
H180	H	1.338324	-0.974119	-0.686361
H181	H	1.477729	-0.905774	-0.673712
H182	H	1.483533	-0.944754	-0.753874
H183	H	1.330670	-0.923676	-0.821064
H184	H	1.324886	-0.884685	-0.740912
H185	H	1.410978	-0.884688	-0.826786
C186	C	1.310832	-0.835399	-0.713425
C187	C	1.251962	-0.804814	-0.772223
C188	C	1.184708	-0.828188	-0.839516
H189	H	1.264992	-0.853739	-0.673329
H190	H	1.350991	-0.853656	-0.759300
H191	H	1.211806	-0.786565	-0.726354
H192	H	1.297774	-0.786473	-0.812340
H193	H	1.224867	-0.846445	-0.885391
H194	H	1.138875	-0.846527	-0.799412
H195	H	1.144764	-0.807440	-0.879425
C196	C	1.310965	-0.737612	-0.713406
C197	C	1.370378	-0.710635	-0.780820
C198	C	1.303302	-0.687165	-0.848100
H199	H	1.265172	-0.719308	-0.673294
H200	H	1.270965	-0.758298	-0.753445
H201	H	1.410360	-0.689951	-0.740785
H202	H	1.416168	-0.728927	-0.820955
H203	H	1.263302	-0.707851	-0.888139
H204	H	1.257513	-0.668863	-0.807979
H205	H	1.343604	-0.668861	-0.893854
H206	H	1.329005	-0.688353	-0.695065
H207	H	1.640013	-0.268466	-0.907043
C208	C	1.265014	-0.166862	-0.912291
C209	C	1.198629	-0.174468	-0.997814
C210	C	1.098601	-0.185953	-0.961455
H211	H	1.237871	-0.143078	-0.870973
H212	H	1.269334	-0.193286	-0.870941
H213	H	1.194305	-0.148047	-1.039147
H214	H	1.225738	-0.198254	-1.039140
H215	H	1.102922	-0.212377	-0.920105
H216	H	1.071469	-0.162167	-0.920138
H217	H	1.053550	-0.191119	-1.019476
