data_functionalizedCrystal
_audit_creation_method	'MofGen! by Chris Wilmer'
_symmetry_space_group_name_H-M	'P1'
_symmetry_Int_Tables_number	1
_symmetry_cell_setting	triclinic
loop_
_symmetry_equiv_pos_as_xyz
  x,y,z
_cell_length_a	11.026607
_cell_length_b	10.654550
_cell_length_c	10.065875
_cell_angle_alpha	98.875770
_cell_angle_beta	79.302338
_cell_angle_gamma	96.535460
loop_
_atom_site_label
_atom_site_type_symbol
_atom_site_fract_x
_atom_site_fract_y
_atom_site_fract_z
O1	O	1.632231	0.512406	-0.113491
O2	O	1.278420	0.452411	-0.113493
O3	O	1.463459	0.301436	-0.113487
O4	O	1.447191	0.663381	-0.113497
O5	O	1.428176	0.330372	0.113500
O6	O	1.243137	0.481347	0.113494
O7	O	1.596947	0.541343	0.113496
Zn8	Zn	1.414440	0.515940	0.149534
Zn9	Zn	1.460927	0.477814	-0.149531
O10	O	1.411908	0.692318	0.113490
C11	C	1.215474	0.455811	0.000000
C12	C	1.080483	0.422816	-0.000001
C13	C	1.007444	0.513919	-0.000004
C14	C	0.867923	0.479820	-0.000005
C15	C	1.444623	0.268847	0.000005
C16	C	1.441050	0.128627	0.000000
C17	C	1.549998	0.072791	0.000005
C18	C	1.546634	-0.058961	-0.000005
C19	C	1.325363	-0.079031	-0.000018
C20	C	1.328730	0.052718	-0.000018
C21	C	1.662318	0.148700	0.000023
C22	C	1.771275	0.092866	0.000030
C23	C	1.767911	-0.038887	0.000020
C24	C	1.655590	-0.114805	0.000004
C25	C	1.659894	0.537943	-0.000000
C26	C	1.794886	0.570936	-0.000008
C27	C	1.430744	0.724907	-0.000005
C28	C	1.434319	0.865125	-0.000009
N29	N	1.382723	0.541960	0.353639
N30	N	1.492654	0.451786	-0.353636
C31	C	1.449884	0.486858	0.421420
C32	C	1.425483	0.506896	0.578586
H33	H	1.039727	0.319571	-0.000033
C34	C	1.894817	0.176368	0.000046
H35	H	1.881218	0.262833	0.000064
H36	H	1.952033	0.148817	-0.079107
H37	H	1.927409	0.168982	0.079214
H38	H	1.307154	0.603965	0.411963
H39	H	1.048204	0.617161	0.000001
C40	C	1.666017	0.293622	0.000029
H41	H	1.585043	0.316006	0.000031
H42	H	1.719950	0.317052	-0.079118
H43	H	1.695321	0.337217	0.079203
C44	C	0.849931	0.710415	-0.000020
H45	H	0.936485	0.715038	-0.000030
H46	H	0.811338	0.761223	0.079129
H47	H	0.835947	0.741023	-0.079192
C48	C	1.323377	0.590651	0.657354
H49	H	1.284394	0.622610	0.594448
H50	H	1.359078	0.659902	0.713100
H51	H	1.263647	0.541090	0.713094
C52	C	1.887755	-0.100303	0.000024
H53	H	1.955124	-0.036221	0.000045
H54	H	1.903355	-0.161369	-0.079131
H55	H	1.878728	-0.141191	0.079190
C56	C	1.651892	-0.259731	-0.000014
H57	H	1.732864	-0.282114	-0.000005
H58	H	1.622574	-0.303327	-0.079171
H59	H	1.597967	-0.283154	0.079150
C60	C	1.208890	0.114143	-0.000021
H61	H	1.141512	0.050069	-0.000013
H62	H	1.217915	0.155032	-0.079177
H63	H	1.193299	0.175211	0.079144
C64	C	1.201821	-0.162534	-0.000019
H65	H	1.215418	-0.248994	-0.000004
H66	H	1.169214	-0.155159	-0.079173
H67	H	1.144613	-0.134973	0.079148
C68	C	1.551964	0.403085	0.342641
H69	H	1.554978	0.400612	0.247342
H70	H	1.534223	0.319094	0.365999
H71	H	1.629682	0.437883	0.365970
C72	C	1.594742	0.368006	0.567600
H73	H	1.633706	0.336028	0.630508
H74	H	1.654476	0.417534	0.511840
H75	H	1.559010	0.298750	0.511873
H76	H	0.827174	0.376568	-0.000037
