data_functionalizedCrystal
_audit_creation_method	'MofGen! by Chris Wilmer'
_symmetry_space_group_name_H-M	'P1'
_symmetry_Int_Tables_number	1
_symmetry_cell_setting	triclinic
loop_
_symmetry_equiv_pos_as_xyz
  x,y,z
_cell_length_a	10.654537
_cell_length_b	15.944551
_cell_length_c	9.130307
_cell_angle_alpha	89.995755
_cell_angle_beta	90.000617
_cell_angle_gamma	96.009642
loop_
_atom_site_label
_atom_site_type_symbol
_atom_site_fract_x
_atom_site_fract_y
_atom_site_fract_z
O1	O	-1.666316	0.117946	-0.121773
O2	O	-1.166316	0.617946	0.378227
O3	O	-1.300691	0.129193	-0.121783
O4	O	-0.800691	0.629193	0.378217
O5	O	-1.493488	0.001352	-0.121764
O6	O	-0.993488	0.501352	0.378236
O7	O	-1.473519	0.245787	-0.121791
O8	O	-0.973519	0.745787	0.378209
O9	O	-1.493482	0.001351	0.121835
O10	O	-0.993482	0.501351	0.621835
O11	O	-1.300684	0.129191	0.121816
O12	O	-0.800684	0.629191	0.621816
O13	O	-1.666310	0.117945	0.121826
O14	O	-1.166310	0.617945	0.621826
Cu15	Cu	-1.483497	0.123568	0.144064
Cu16	Cu	-0.983497	0.623568	0.644064
Cu17	Cu	-1.483504	0.123570	-0.144020
Cu18	Cu	-0.983504	0.623570	0.355980
O19	O	-1.473513	0.245786	0.121808
O20	O	-0.973513	0.745786	0.621808
C21	C	-1.253900	0.128368	0.000016
C22	C	-0.753900	0.628368	0.500016
C23	C	-1.114488	0.125901	0.000012
C24	C	-0.614488	0.625901	0.500012
C25	C	-1.492656	-0.029947	0.000035
C26	C	-0.992656	0.470053	0.500035
C27	C	-1.490170	-0.123207	0.000036
C28	C	-0.990170	0.376793	0.500036
C29	C	-1.084539	0.278766	-0.000023
C30	C	-0.584539	0.778766	0.499977
C31	C	-1.004071	0.354037	-0.000045
C32	C	-0.504071	0.854037	0.499955
C33	C	-0.873083	0.351714	-0.000045
C34	C	-0.373083	0.851714	0.499955
C35	C	-0.822562	0.274112	-0.000018
C36	C	-0.322562	0.774112	0.499982
C37	C	-0.903030	0.198842	0.000004
C38	C	-0.403030	0.698842	0.500004
C39	C	-1.034020	0.201173	0.000000
C40	C	-0.534020	0.701173	0.500000
C41	C	-0.932978	0.045978	0.000050
C42	C	-0.432978	0.545978	0.500050
C43	C	-1.063967	0.048299	0.000039
C44	C	-0.563967	0.548299	0.500039
C45	C	-0.882457	-0.031624	0.000077
C46	C	-0.382457	0.468376	0.500077
C47	C	-0.962926	-0.106896	0.000089
C48	C	-0.462926	0.393104	0.500089
C49	C	-1.093921	-0.104570	0.000088
C50	C	-0.593921	0.395430	0.500088
C51	C	-1.144435	-0.026971	0.000062
C52	C	-0.644435	0.473029	0.500062
C53	C	-1.364725	-0.338788	0.000013
C54	C	-0.864725	0.161212	0.500013
C55	C	-1.422975	-0.399470	0.120123
C56	C	-0.922975	0.100530	0.620123
C57	C	-1.485674	-0.293959	0.000025
C58	C	-0.985674	0.206041	0.500025
C59	C	-1.423009	-0.399452	-0.120046
C60	C	-0.923009	0.100548	0.379954
C61	C	-1.481322	-0.458897	0.000007
C62	C	-0.981322	0.041103	0.500007
C63	C	-1.543957	-0.353413	0.120234
C64	C	-1.043957	0.146587	0.620234
C65	C	-1.543975	-0.353388	-0.120043
C66	C	-1.043975	0.146612	0.379957
C67	C	-1.602312	-0.414052	0.000097
C68	C	-1.102312	0.085948	0.500097
C69	C	-1.488178	-0.198942	0.000036
C70	C	-0.988178	0.301058	0.500036
C71	C	-1.478828	-0.553913	0.000007
C72	C	-0.978828	-0.053913	0.500007
C73	C	-0.713100	0.118773	0.000027
C74	C	-0.213100	0.618773	0.500027
C75	C	-0.852510	0.121248	0.000027
C76	C	-0.352510	0.621248	0.500027
C77	C	-1.474345	0.277085	0.000005
C78	C	-0.974345	0.777085	0.500005
C79	C	-1.476830	0.370345	-0.000006
C80	C	-0.976830	0.870345	0.499994
N81	N	-1.483501	0.123567	0.346686
N82	N	-0.983501	0.623567	0.846686
N83	N	-1.483510	0.123565	-0.346643
N84	N	-0.983510	0.623565	0.153357
C85	C	-1.654292	0.010397	0.346693
C86	C	-1.154292	0.510397	0.846693
C87	C	-1.739695	-0.046185	0.423363
C88	C	-1.239695	0.453815	0.923363
C89	C	-1.739708	-0.046186	0.576696
C90	C	-1.239708	0.453814	1.076696
C91	C	-1.654305	0.010401	0.653363
C92	C	-1.154305	0.510401	1.153363
C93	C	-1.568901	0.066983	0.576693
C94	C	-1.068901	0.566983	1.076693
C95	C	-1.568900	0.066979	0.423356
C96	C	-1.068900	0.566979	0.923356
C97	C	-1.398106	0.180147	0.576687
C98	C	-0.898106	0.680147	1.076687
C99	C	-1.398098	0.180153	0.423354
C100	C	-0.898098	0.680153	0.923354
C101	C	-1.312703	0.236733	0.653354
C102	C	-0.812703	0.736733	1.153354
C103	C	-1.227303	0.293321	0.576684
C104	C	-0.727303	0.793321	1.076684
C105	C	-1.227295	0.293320	0.423341
C106	C	-0.727295	0.793320	0.923341
C107	C	-1.312694	0.236735	0.346684
C108	C	-0.812694	0.736735	0.846684
H109	H	-1.191195	0.280666	-0.000055
H110	H	-0.691195	0.780666	0.499945
Br111	Br	-1.197398	-0.284240	0.000193
Br112	Br	-0.697398	0.215760	0.500193
H113	H	-1.312712	0.236727	0.778206
H114	H	-0.812712	0.736727	1.278206
H115	H	-1.371840	-0.419823	-0.221598
H116	H	-0.871840	0.080177	0.278402
H117	H	-1.045220	0.417219	-0.000064
H118	H	-0.545220	0.917219	0.499936
H119	H	-0.921780	-0.170073	0.000110
H120	H	-0.421780	0.329927	0.500110
Br121	Br	-0.644790	0.270961	0.000014
Br122	Br	-0.144790	0.770961	0.500014
Br123	Br	-1.203119	-0.206729	0.000136
Br124	Br	-0.703119	0.293271	0.500136
Br125	Br	-0.763870	0.453866	-0.000056
Br126	Br	-0.263870	0.953866	0.499944
Br127	Br	-1.312698	0.236734	0.138587
Br128	Br	-0.812698	0.736734	0.638587
H129	H	-1.157769	0.339385	0.639116
H130	H	-0.657769	0.839385	1.139116
Br131	Br	-0.704686	-0.034778	0.000090
Br132	Br	-0.204686	0.465222	0.500090
H133	H	-1.157744	0.339392	0.360925
H134	H	-0.657744	0.839392	0.860925
Br135	Br	-1.769785	-0.468355	0.000204
Br136	Br	-1.269785	0.031645	0.500204
H137	H	-1.251091	-0.025070	0.000043
H138	H	-0.751091	0.474930	0.500043
Br139	Br	-1.337712	-0.433477	0.289369
Br140	Br	-0.837712	0.066523	0.789369
H141	H	-1.809228	-0.092259	0.360927
H142	H	-1.309228	0.407741	0.860927
Br143	Br	-1.629153	-0.319611	0.289665
Br144	Br	-1.129153	0.180389	0.789665
H145	H	-1.595090	-0.332962	-0.221589
H146	H	-1.095090	0.167038	0.278411
H147	H	-1.654300	0.010399	0.221841
H148	H	-1.154300	0.510399	0.721841
H149	H	-1.809247	-0.092263	0.639121
H150	H	-1.309247	0.407737	1.139121
Br151	Br	-1.654301	0.010387	0.861460
Br152	Br	-1.154301	0.510387	1.361460
