data_functionalizedCrystal
_audit_creation_method	'MofGen! by Chris Wilmer'
_symmetry_space_group_name_H-M	'P1'
_symmetry_Int_Tables_number	1
_symmetry_cell_setting	triclinic
loop_
_symmetry_equiv_pos_as_xyz
  x,y,z
_cell_length_a	15.944551
_cell_length_b	19.288865
_cell_length_c	18.366186
_cell_angle_alpha	90.011479
_cell_angle_beta	90.004555
_cell_angle_gamma	83.317493
loop_
_atom_site_label
_atom_site_type_symbol
_atom_site_fract_x
_atom_site_fract_y
_atom_site_fract_z
O1	O	-1.114185	-0.089583	-0.060482
O2	O	-0.869592	-0.100628	-0.060501
O3	O	-0.998956	0.006006	-0.060477
O4	O	-0.984821	-0.196217	-0.060507
O5	O	-0.998934	0.006012	0.060622
O6	O	-0.869570	-0.100622	0.060598
O7	O	-1.114163	-0.089578	0.060617
Zn8	Zn	-0.991863	-0.095099	0.079835
Zn9	Zn	-0.991892	-0.095106	-0.079719
O10	O	-0.984799	-0.196212	0.060593
C11	C	-0.838289	-0.100167	0.000046
C12	C	-0.745048	-0.098792	0.000039
C13	C	-1.145466	-0.090039	0.000068
C14	C	-1.238706	-0.091414	0.000070
N15	N	-0.991849	-0.095094	0.188726
C16	C	-0.530459	-0.029410	0.000064
C17	C	-0.469326	-0.061631	-0.059649
C18	C	-0.574332	-0.096305	0.000048
C19	C	-0.469326	-0.061642	0.059745
C20	C	-0.409429	-0.093898	0.000060
C21	C	-0.514427	-0.128545	-0.059714
C22	C	-0.514434	-0.128546	0.059734
C23	C	-0.453318	-0.160816	0.000006
C24	C	-0.669329	-0.097690	0.000041
C25	C	-0.314433	-0.092519	0.000062
C26	C	-0.998490	0.031887	0.000075
C27	C	-0.997125	0.108994	0.000081
C28	C	-0.985265	-0.222092	0.000039
C29	C	-0.986630	-0.299199	0.000028
C30	C	-1.073030	0.153490	0.000091
C31	C	-1.071747	0.225941	0.000079
C32	C	-0.994555	0.253891	0.000073
C33	C	-0.918641	0.209385	0.000059
C34	C	-0.919925	0.136936	0.000063
C35	C	-0.933866	0.362341	0.042486
C36	C	-0.932584	0.434788	0.042486
C37	C	-0.990589	0.477347	0.000056
C38	C	-1.049890	0.447451	-0.042365
C39	C	-1.051175	0.375003	-0.042361
C40	C	-0.993153	0.332449	0.000067
C41	C	-1.065108	0.600404	0.000052
C42	C	-1.063822	0.672855	0.000036
C43	C	-0.910714	0.656298	0.000023
C44	C	-0.912002	0.583848	0.000032
C45	C	-0.989201	0.555906	0.000050
N46	N	-0.991912	-0.095106	-0.188610
C47	C	-1.049150	-0.047900	0.226837
C48	C	-1.049156	-0.047897	0.303065
C49	C	-0.991868	-0.095100	0.341178
C50	C	-0.934556	-0.142298	0.303058
C51	C	-0.934547	-0.142295	0.226832
C52	C	-0.980624	-0.158358	0.461929
C53	C	-0.980639	-0.158362	0.538154
C54	C	-0.991892	-0.095109	0.576286
C55	C	-1.003148	-0.031849	0.538184
C56	C	-1.003138	-0.031846	0.461957
C57	C	-0.991871	-0.095108	0.423833
C58	C	-1.049202	-0.047907	0.697052
C59	C	-1.049201	-0.047903	0.773281
C60	C	-0.934606	-0.142310	0.773273
C61	C	-0.934603	-0.142308	0.697045
C62	C	-0.991905	-0.095107	0.658939
H63	H	-0.564006	0.026108	-0.000002
C64	C	-1.112227	0.004021	0.655133
N65	N	-1.159697	0.043134	0.623562
H66	H	-0.534315	-0.156820	-0.110252
H67	H	-1.125636	0.709084	0.000039
C68	C	-0.442310	-0.023409	-0.127836
N69	N	-0.421964	0.005384	-0.179191
C70	C	-1.015508	0.037739	0.420048
N71	N	-1.024820	0.090151	0.388482
C72	C	-0.871536	-0.194218	0.344985
N73	N	-0.824065	-0.233324	0.376564
C74	C	-0.442327	-0.023399	0.127944
N75	N	-0.421995	0.005410	0.179309
H76	H	-0.886629	0.327694	0.077042
H77	H	-0.887885	-0.180727	0.195801
H78	H	-1.135891	0.130744	0.000103
C79	C	-1.150028	0.569664	0.000060
N80	N	-1.213991	0.546513	0.000065
C81	C	-0.408225	-0.235893	-0.000051
N82	N	-0.374258	-0.292440	-0.000098
C83	C	-0.871627	-0.194277	0.655121
N84	N	-0.824209	-0.233437	0.623544
H85	H	-0.534447	-0.156815	0.110211
C86	C	-0.836420	0.087988	0.000055
N87	N	-0.773523	0.051119	0.000050
H88	H	-0.850192	0.547618	0.000028
C89	C	-1.155251	0.274896	0.000094
N90	N	-1.218147	0.311767	0.000108
H91	H	-1.095818	-0.009464	0.334101
C92	C	-1.116399	0.342119	-0.089029
N93	N	-1.165523	0.317351	-0.124183
C94	C	-0.871589	-0.194235	0.815194
N95	N	-0.824123	-0.233346	0.846772
H96	H	-1.012310	0.019658	0.569229
C97	C	-1.113698	0.494261	-0.089046
N98	N	-1.161757	0.529521	-0.124204
C99	C	-0.825802	0.687040	0.000013
N100	N	-0.761843	0.710197	0.000004
C101	C	-1.112226	0.004029	0.815204
N102	N	-1.159694	0.043148	0.846780
C103	C	-0.833729	0.240133	0.000057
N104	N	-0.769772	0.263291	0.000055
H105	H	-1.095807	-0.009465	0.195813
C106	C	-0.968249	-0.227948	0.580059
N107	N	-0.958912	-0.280363	0.611620
C108	C	-0.867352	0.467667	0.089150
N109	N	-0.818217	0.492429	0.124298
C110	C	-0.968244	-0.227946	0.419991
N111	N	-0.958920	-0.280359	0.388405
