data_functionalizedCrystal
_audit_creation_method	'MofGen! by Chris Wilmer'
_symmetry_space_group_name_H-M	'P1'
_symmetry_Int_Tables_number	1
_symmetry_cell_setting	triclinic
loop_
_symmetry_equiv_pos_as_xyz
  x,y,z
_cell_length_a	15.944493
_cell_length_b	15.944551
_cell_length_c	15.186229
_cell_angle_alpha	90.001234
_cell_angle_beta	90.005046
_cell_angle_gamma	83.486891
loop_
_atom_site_label
_atom_site_type_symbol
_atom_site_fract_x
_atom_site_fract_y
_atom_site_fract_z
O1	O	1.114556	0.108094	0.073219
O2	O	0.870000	0.121502	0.073223
O3	O	0.998957	-0.007478	0.073213
O4	O	0.985600	0.237074	0.073229
O5	O	0.998942	-0.007471	-0.073244
O6	O	0.869985	0.121509	-0.073234
O7	O	1.114541	0.108102	-0.073238
Zn8	Zn	0.992261	0.114807	-0.096489
Zn9	Zn	0.992281	0.114797	0.096474
O10	O	0.985585	0.237082	-0.073228
C11	C	0.838698	0.120957	-0.000005
C12	C	0.745449	0.119314	-0.000003
C13	C	0.998395	-0.038768	-0.000016
C14	C	0.996732	-0.132014	-0.000016
C15	C	0.509689	0.195235	0.000002
C16	C	0.459124	0.154298	-0.072215
C17	C	0.574728	0.116270	-0.000005
C18	C	0.459143	0.154272	0.072180
C19	C	0.409819	0.113336	-0.000003
C20	C	0.525391	0.075354	-0.072282
C21	C	0.525413	0.075340	0.072178
C22	C	0.474880	0.034345	-0.000057
C23	C	0.669728	0.117963	-0.000007
C24	C	0.314821	0.111637	-0.000008
C25	C	0.912826	-0.346853	-0.000003
C26	C	0.951782	-0.407875	-0.072216
C27	C	0.993725	-0.302739	-0.000009
C28	C	0.951816	-0.407866	0.072180
C29	C	0.990814	-0.467651	0.000001
C30	C	1.032703	-0.362533	-0.072282
C31	C	1.032726	-0.362517	0.072178
C32	C	1.071741	-0.423521	-0.000052
C33	C	0.995399	-0.207737	-0.000016
C34	C	0.989146	-0.562652	0.000001
C35	C	1.145844	0.108646	-0.000008
C36	C	1.239092	0.110289	-0.000004
C37	C	0.986147	0.268372	0.000003
C38	C	0.987809	0.361617	0.000009
N39	N	0.992253	0.114813	-0.228182
C40	C	1.043214	0.165766	-0.453902
C41	C	1.043223	0.165760	-0.546092
C42	C	0.941332	0.063825	-0.546106
C43	C	0.941328	0.063827	-0.453918
C44	C	0.992267	0.114802	-0.407819
C45	C	0.992281	0.114794	-0.592196
C46	C	0.992290	0.114787	-0.692153
C47	C	0.992259	0.114808	-0.307856
N48	N	0.992295	0.114784	0.228167
H49	H	0.525313	0.263254	-0.000061
H50	H	0.459415	-0.033726	-0.000103
H51	H	0.430211	0.187633	0.133226
H52	H	0.917558	-0.427973	-0.133265
H53	H	0.899858	0.022324	-0.583652
C54	C	0.420014	0.199345	-0.154684
H55	H	0.392286	0.160745	-0.188687
H56	H	0.380362	0.245363	-0.137325
H57	H	0.463274	0.219710	-0.188926
C58	C	1.099256	0.221825	-0.403195
H59	H	1.129607	0.252168	-0.443848
H60	H	1.064843	0.260472	-0.367235
H61	H	1.137912	0.187409	-0.367232
C62	C	0.885281	0.007767	-0.403223
H63	H	0.854935	-0.022583	-0.443880
H64	H	0.919698	-0.030875	-0.367255
H65	H	0.846623	0.042181	-0.367267
C66	C	0.564544	0.030330	0.154651
H67	H	0.541749	0.058478	0.205912
H68	H	0.552026	-0.026512	0.155167
H69	H	0.624005	0.031278	0.153764
H70	H	1.066885	-0.342546	-0.133399
H71	H	1.138950	-0.456694	-0.000094
C72	C	1.099259	0.221823	-0.596784
H73	H	1.091974	0.214517	-0.658291
H74	H	1.083651	0.279288	-0.581679
H75	H	1.156732	0.206237	-0.581666
C76	C	0.822113	-0.301842	-0.000084
H77	H	0.813425	-0.267916	0.051252
H78	H	0.813812	-0.267151	-0.050899
H79	H	0.783136	-0.342698	-0.000639
C80	C	0.564318	0.030346	-0.154850
H81	H	0.623730	0.031708	-0.154362
H82	H	0.552200	-0.026627	-0.155064
H83	H	0.541047	0.058206	-0.206065
H84	H	1.066920	-0.342397	0.133230
H85	H	0.917594	-0.427939	0.133235
