data_functionalizedCrystal
_audit_creation_method	'MofGen! by Chris Wilmer'
_symmetry_space_group_name_H-M	'P1'
_symmetry_Int_Tables_number	1
_symmetry_cell_setting	triclinic
loop_
_symmetry_equiv_pos_as_xyz
  x,y,z
_cell_length_a	10.654539
_cell_length_b	11.892095
_cell_length_c	10.654554
_cell_angle_alpha	86.072507
_cell_angle_beta	95.516339
_cell_angle_gamma	86.060980
loop_
_atom_site_label
_atom_site_type_symbol
_atom_site_fract_x
_atom_site_fract_y
_atom_site_fract_z
O1	O	-1.675817	0.094066	0.168370
O2	O	-1.310336	0.094054	0.185191
O3	O	-1.501476	0.094054	-0.005958
O4	O	-1.484677	0.094066	0.359519
O5	O	-1.485539	-0.093953	0.009955
O6	O	-1.294399	-0.093953	0.201104
O7	O	-1.659880	-0.093941	0.184283
Zn8	Zn	-1.474609	-0.123797	0.195220
Zn9	Zn	-1.495607	0.123911	0.174254
O10	O	-1.468740	-0.093941	0.375432
C11	C	-1.255569	0.000049	0.191916
C12	C	-1.116125	0.000045	0.188229
N13	N	-1.460288	-0.292852	0.209528
C14	C	-1.059318	0.102531	0.177810
C15	C	-0.928297	0.102537	0.174336
C16	C	-0.910903	-0.102439	0.191695
C17	C	-1.041920	-0.102444	0.195179
C18	C	-1.069360	0.220872	0.167783
C19	C	-0.938339	0.220878	0.164308
C20	C	-1.609592	-0.529499	0.060303
C21	C	-1.599591	-0.647841	0.070313
C22	C	-1.430279	-0.647879	0.239552
C23	C	-1.440280	-0.529537	0.229542
C24	C	-1.529941	-0.470352	0.139916
C25	C	-1.539947	-0.352008	0.129912
C26	C	-1.370631	-0.352048	0.299145
C27	C	-1.360629	-0.470390	0.309155
C28	C	-0.714646	0.000061	0.177565
C29	C	-0.854087	0.000055	0.181272
C30	C	-1.492273	0.000052	-0.044799
C31	C	-1.488579	0.000054	-0.184242
N32	N	-1.509938	0.292965	0.159936
C33	C	-1.597654	0.000072	-0.394757
C34	C	-1.601125	0.000060	-0.263734
C35	C	-1.372554	0.000048	-0.235778
C36	C	-1.369083	0.000051	-0.366797
C37	C	-1.729619	0.000085	-0.410897
C38	C	-1.733090	0.000073	-0.279874
C39	C	-1.477943	0.000064	0.414274
C40	C	-1.481638	0.000069	0.553716
H41	H	-1.088165	-0.185898	0.203677
O42	O	-0.830798	-0.212977	0.199786
H43	H	-0.730122	-0.195757	0.195829
H44	H	-1.772679	-0.078588	-0.445997
H45	H	-1.124193	0.257583	0.075233
H46	H	-1.768241	-0.081105	-0.237384
O47	O	-1.810265	0.104294	-0.249771
H48	H	-1.845284	0.155334	-0.338941
H49	H	-1.098032	0.266313	0.252614
O50	O	-0.873959	0.269527	0.278665
H51	H	-0.824661	0.344283	0.247755
H52	H	-0.917374	0.266312	0.071781
H53	H	-1.274611	0.000039	-0.408743
O54	O	-1.636640	-0.288163	0.033242
H55	H	-1.690334	-0.349179	-0.020446
O56	O	-1.706291	-0.465651	-0.036358
H57	H	-1.759996	-0.526663	-0.090041
H58	H	-1.280916	0.000031	-0.171044
H59	H	-1.664449	-0.695996	0.005483
O60	O	-1.791547	0.107605	-0.480476
H61	H	-1.892115	0.117663	-0.461304
O62	O	-1.333579	-0.711723	0.336216
H63	H	-1.340014	-0.803949	0.329800
H64	H	-1.287626	-0.518592	0.382124
H65	H	-1.305777	-0.303876	0.363974
