data_functionalizedCrystal
_audit_creation_method	'MofGen! by Chris Wilmer'
_symmetry_space_group_name_H-M	'P1'
_symmetry_Int_Tables_number	1
_symmetry_cell_setting	triclinic
loop_
_symmetry_equiv_pos_as_xyz
  x,y,z
_cell_length_a	14.853567
_cell_length_b	14.853567
_cell_length_c	7.540329
_cell_angle_alpha	89.999797
_cell_angle_beta	90.000012
_cell_angle_gamma	96.365070
loop_
_atom_site_label
_atom_site_type_symbol
_atom_site_fract_x
_atom_site_fract_y
_atom_site_fract_z
O1	O	1.196363	-0.117703	-0.147345
O2	O	1.696363	0.382297	0.352655
O3	O	0.933903	-0.131724	-0.147373
O4	O	1.433903	0.368276	0.352627
O5	O	1.072144	0.006516	-0.147364
O6	O	1.572144	0.506516	0.352636
O7	O	1.058122	-0.255943	-0.147354
O8	O	1.558122	0.244057	0.352646
O9	O	1.072136	0.006518	0.147601
O10	O	1.572136	0.506518	0.647601
O11	O	0.933895	-0.131723	0.147592
O12	O	1.433895	0.368277	0.647592
O13	O	1.196355	-0.117701	0.147620
O14	O	1.696355	0.382299	0.647620
Cu15	Cu	1.065124	-0.124712	0.174539
Cu16	Cu	1.565124	0.375288	0.674539
Cu17	Cu	1.065134	-0.124714	-0.174292
Cu18	Cu	1.565134	0.375286	0.325708
O19	O	1.058114	-0.255942	0.147611
O20	O	1.558114	0.244058	0.647611
C21	C	0.900311	-0.131088	0.000105
C22	C	1.400311	0.368912	0.500105
C23	C	0.800227	-0.129184	0.000094
C24	C	1.300227	0.370816	0.500094
C25	C	0.387693	-0.039019	0.000130
C26	C	0.887693	0.460981	0.500130
C27	C	0.366412	-0.203251	0.000134
C28	C	0.866412	0.296749	0.500134
C29	C	0.460446	-0.205042	0.000129
C30	C	0.960446	0.294958	0.500129
C31	C	0.518108	-0.123819	0.000121
C32	C	1.018108	0.376181	0.500121
C33	C	0.481736	-0.040806	0.000119
C34	C	0.981736	0.459194	0.500119
C35	C	0.496825	-0.288053	0.000112
C36	C	0.996825	0.211947	0.500112
C37	C	0.590864	-0.289846	0.000105
C38	C	1.090864	0.210154	0.500105
C39	C	0.648528	-0.208623	0.000110
C40	C	1.148528	0.291377	0.500110
C41	C	0.612150	-0.125607	0.000110
C42	C	1.112150	0.374393	0.500110
C43	C	0.669812	-0.044384	0.000103
C44	C	1.169812	0.455616	0.500103
C45	C	0.633437	0.038633	0.000116
C46	C	1.133437	0.538633	0.500116
C47	C	0.539399	0.040417	0.000124
C48	C	1.039399	0.540417	0.500124
C49	C	0.742565	-0.210407	0.000101
C50	C	1.242565	0.289593	0.500101
C51	C	0.763855	-0.046172	0.000092
C52	C	1.263855	0.453828	0.500092
C53	C	1.071504	0.040106	0.000114
C54	C	1.571504	0.540106	0.500114
C55	C	1.069601	0.140189	0.000098
C56	C	1.569601	0.640189	0.500098
C57	C	1.229947	-0.118337	0.000138
C58	C	1.729947	0.381663	0.500138
C59	C	1.330031	-0.120241	0.000138
C60	C	1.830031	0.379759	0.500138
C61	C	1.058754	-0.289531	0.000129
C62	C	1.558754	0.210469	0.500129
C63	C	1.060657	-0.389615	0.000133
C64	C	1.560657	0.110385	0.500133
N65	N	1.065124	-0.124710	0.419887
N66	N	1.565124	0.375290	0.919887
C67	C	0.979435	0.552723	0.000122
C68	C	1.479435	1.052723	0.500122
C69	C	1.143668	0.574004	0.000140
C70	C	1.643668	1.074004	0.500140
C71	C	1.145458	0.479971	0.000129
C72	C	1.645458	0.979971	0.500129
C73	C	1.064235	0.422309	0.000118
C74	C	1.564235	0.922309	0.500118
C75	C	0.981223	0.458680	0.000117
C76	C	1.481223	0.958680	0.500117
C77	C	1.228469	0.443591	0.000149
C78	C	1.728469	0.943591	0.500149
C79	C	1.230262	0.349552	0.000140
C80	C	1.730262	0.849552	0.500140
C81	C	1.149039	0.291889	0.000116
C82	C	1.649039	0.791889	0.500116
C83	C	1.066023	0.328266	0.000113
C84	C	1.566023	0.828266	0.500113
C85	C	0.984800	0.270604	0.000102
C86	C	1.484800	0.770604	0.500102
C87	C	0.901783	0.306979	0.000086
C88	C	1.401783	0.806979	0.500086
C89	C	0.899999	0.401017	0.000093
C90	C	1.399999	0.901017	0.500093
C91	C	1.150823	0.197851	0.000109
C92	C	1.650823	0.697851	0.500109
C93	C	0.986588	0.176561	0.000097
C94	C	1.486588	0.676561	0.500097
N95	N	1.065141	-0.124709	-0.419640
N96	N	1.565141	0.375291	0.080360
H97	H	0.449870	-0.354180	0.000100
H98	H	0.949870	0.145820	0.500100
Cl99	Cl	0.636585	-0.394208	0.000095
Cl100	Cl	1.136585	0.105792	0.500095
Cl101	Cl	0.788291	-0.314762	0.000072
Cl102	Cl	1.288291	0.185238	0.500072
H103	H	1.297860	0.319944	0.000151
H104	H	1.797860	0.819944	0.500151
Cl105	Cl	0.799679	0.234480	0.000087
Cl106	Cl	1.299679	0.734480	0.500087
Cl107	Cl	0.795645	0.446752	0.000068
Cl108	Cl	1.295645	0.946752	0.500068
H109	H	0.911844	0.582344	0.000102
H110	H	1.411844	1.082344	0.500102
H111	H	1.209795	0.620958	0.000163
H112	H	1.709795	1.120958	0.500163
Cl113	Cl	1.330570	0.516083	0.000201
Cl114	Cl	1.830570	1.016083	0.500201
H115	H	0.810798	0.019971	0.000093
H116	H	1.310798	0.519971	0.500093
Cl117	Cl	1.255178	0.152125	0.000162
Cl118	Cl	1.755178	0.652125	0.500162
H119	H	0.920445	0.129618	0.000080
H120	H	1.420445	0.629618	0.500080
H121	H	0.680397	0.104764	0.000097
H122	H	1.180397	0.604764	0.500097
H123	H	0.509774	0.108005	0.000177
H124	H	1.009774	0.608005	0.500177
Cl125	Cl	0.293923	-0.305354	0.000119
Cl126	Cl	0.793923	0.194646	0.500119
Cl127	Cl	0.341967	0.065340	0.000155
Cl128	Cl	0.841967	0.565340	0.500155
