data_functionalizedCrystal
_audit_creation_method	'MofGen! by Chris Wilmer'
_symmetry_space_group_name_H-M	'P1'
_symmetry_Int_Tables_number	1
_symmetry_cell_setting	triclinic
loop_
_symmetry_equiv_pos_as_xyz
  x,y,z
_cell_length_a	16.992694
_cell_length_b	14.853567
_cell_length_c	15.455313
_cell_angle_alpha	92.672621
_cell_angle_beta	87.142206
_cell_angle_gamma	87.151577
loop_
_atom_site_label
_atom_site_type_symbol
_atom_site_fract_x
_atom_site_fract_y
_atom_site_fract_z
O1	O	1.044027	0.187488	-0.072010
O2	O	1.544027	0.687488	0.427990
O3	O	0.815740	0.185390	-0.072036
O4	O	1.315740	0.685390	0.427964
O5	O	0.935981	0.055640	-0.072025
O6	O	1.435981	0.555640	0.427975
O7	O	0.923785	0.317238	-0.072021
O8	O	1.423785	0.817238	0.427979
O9	O	0.929105	0.063027	0.072237
O10	O	1.429105	0.563027	0.572237
O11	O	0.808864	0.192777	0.072226
O12	O	1.308864	0.692777	0.572226
O13	O	1.037151	0.194875	0.072251
O14	O	1.537151	0.694875	0.572251
Cu15	Cu	0.922380	0.194501	0.085411
Cu16	Cu	1.422380	0.694501	0.585411
Cu17	Cu	0.930511	0.185764	-0.085195
Cu18	Cu	1.430511	0.685764	0.414805
O19	O	0.916909	0.324625	0.072241
O20	O	1.416909	0.824625	0.572241
C21	C	0.783087	0.186385	0.000092
C22	C	1.283087	0.686385	0.500092
C23	C	0.696034	0.178334	0.000081
C24	C	1.196034	0.678334	0.500081
C25	C	0.645878	0.256009	0.000083
C26	C	1.145878	0.756009	0.500083
C27	C	0.564083	0.248440	0.000095
C28	C	1.064083	0.748440	0.500095
C29	C	0.532445	0.163195	0.000099
C30	C	1.032445	0.663195	0.500099
C31	C	0.582608	0.085514	0.000100
C32	C	1.082608	0.585514	0.500100
C33	C	0.664401	0.093084	0.000094
C34	C	1.164401	0.593084	0.500094
C35	C	0.288813	0.131820	0.000122
C36	C	0.788813	0.631820	0.500122
C37	C	0.207013	0.124255	0.000125
C38	C	0.707013	0.624255	0.500125
C39	C	0.188493	0.287183	0.000122
C40	C	0.688493	0.787183	0.500122
C41	C	0.270290	0.294745	0.000111
C42	C	0.770290	0.794745	0.500111
C43	C	0.320445	0.217064	0.000116
C44	C	0.820445	0.717064	0.500116
N45	N	0.448838	0.155456	0.000108
N46	N	0.948838	0.655456	0.500108
N47	N	0.404050	0.224804	0.000113
N48	N	0.904050	0.724804	0.500113
C49	C	0.931991	0.025705	0.000103
C50	C	1.431991	0.525705	0.500103
C51	C	0.930335	-0.074496	0.000096
C52	C	1.430335	0.425504	0.500096
C53	C	0.851909	-0.492567	0.000103
C54	C	1.351909	0.007433	0.500103
C55	C	0.994758	-0.503760	0.000119
C56	C	1.494758	-0.003760	0.500119
C57	C	0.996315	-0.409617	0.000114
C58	C	1.496315	0.090383	0.500114
C59	C	0.925668	-0.356944	0.000105
C60	C	1.425668	0.143056	0.500105
C61	C	0.853464	-0.398414	0.000101
C62	C	1.353464	0.101586	0.500101
C63	C	1.068518	-0.368139	0.000127
C64	C	1.568518	0.131861	0.500127
C65	C	1.070078	-0.273990	0.000123
C66	C	1.570078	0.226010	0.500123
C67	C	0.999430	-0.221316	0.000108
C68	C	1.499430	0.278684	0.500108
C69	C	0.927223	-0.262791	0.000103
C70	C	1.427223	0.237209	0.500103
C71	C	0.856576	-0.210118	0.000094
C72	C	1.356576	0.289882	0.500094
C73	C	0.784368	-0.251593	0.000082
C74	C	1.284368	0.248407	0.500082
C75	C	0.782816	-0.345740	0.000086
C76	C	1.282816	0.154260	0.500086
C77	C	1.000982	-0.127169	0.000105
C78	C	1.500982	0.372831	0.500105
C79	C	0.858131	-0.115966	0.000091
C80	C	1.358131	0.384034	0.500091
C81	C	1.069804	0.193880	0.000122
C82	C	1.569804	0.693880	0.500122
C83	C	1.156857	0.201931	0.000127
C84	C	1.656857	0.701931	0.500127
C85	C	0.920900	0.354560	0.000110
C86	C	1.420900	0.854560	0.500110
C87	C	0.922556	0.454760	0.000112
C88	C	1.422556	0.954760	0.500112
N89	N	0.916666	0.200645	0.205406
N90	N	1.416666	0.700645	0.705406
N91	N	0.936231	0.179613	-0.205190
N92	N	1.436231	0.679613	0.294810
C93	C	0.967766	0.145545	0.250805
C94	C	1.467766	0.645545	0.750805
C95	C	0.963453	0.150201	0.341612
C96	C	1.463453	0.650201	0.841612
C97	C	0.908042	0.209961	0.387019
C98	C	1.408042	0.709961	0.887019
C99	C	0.856936	0.265063	0.341614
C100	C	1.356936	0.765063	0.841614
C101	C	0.861246	0.260402	0.250808
C102	C	1.361246	0.760402	0.750808
C103	C	0.889436	0.230054	0.658599
C104	C	1.389436	0.730054	1.158599
C105	C	0.885131	0.234713	0.749411
C106	C	1.385131	0.734713	1.249411
C107	C	0.991647	0.119849	0.749403
C108	C	1.491647	0.619849	1.249403
C109	C	0.995956	0.115198	0.658595
C110	C	1.495956	0.615198	1.158595
C111	C	0.944847	0.170296	0.613198
C112	C	1.444847	0.670296	1.113198
N113	N	0.903633	0.214723	0.479839
N114	N	1.403633	0.714723	0.979839
N115	N	0.949253	0.165529	0.520380
N116	N	1.449253	0.665529	1.020380
H117	H	0.329639	0.068566	0.000127
H118	H	0.829639	0.568566	0.500127
H119	H	0.296043	0.364161	0.000098
H120	H	0.796043	0.864161	0.500098
C121	C	0.547809	-0.008255	0.000102
C122	C	1.047809	0.491745	0.500102
H123	H	0.491912	-0.001640	0.000097
H124	H	0.991912	0.498360	0.500097
H125	H	0.562627	-0.037911	0.050408
H126	H	1.062627	0.462089	0.550408
H127	H	0.567412	-0.043059	-0.050213
H128	H	1.067412	0.456941	0.449787
H129	H	1.012891	0.096886	0.213840
H130	H	1.512891	0.596886	0.713840
H131	H	1.059772	-0.093404	0.000120
H132	H	1.559772	0.406596	0.500120
H133	H	0.726847	-0.208694	0.000081
H134	H	1.226847	0.291306	0.500081
C135	C	0.833240	0.290683	0.608669
C136	C	1.333240	0.790683	1.108669
H137	H	0.843739	0.279351	0.548085
H138	H	1.343739	0.779351	1.048085
H139	H	0.841128	0.352233	0.623554
H140	H	1.341128	0.852233	1.123554
H141	H	0.780184	0.277860	0.623554
H142	H	1.280184	0.777860	1.123554
H143	H	0.147649	0.350426	0.000119
H144	H	0.647649	0.850426	0.500119
C145	C	1.149502	-0.228377	0.000124
C146	C	1.649502	0.271623	0.500124
H147	H	1.191353	-0.273232	0.000124
H148	H	1.691353	0.226768	0.500124
H149	H	1.150685	-0.189298	0.050426
H150	H	1.650685	0.310702	0.550426
H151	H	1.155472	-0.194469	-0.050194
H152	H	1.655472	0.305531	0.449806
C153	C	0.795986	0.330799	0.391559
C154	C	1.295986	0.830799	0.891559
H155	H	0.800743	0.325692	0.452142
H156	H	1.300743	0.825692	0.952142
H157	H	0.744349	0.316441	0.376688
H158	H	1.244349	0.816441	0.876688
H159	H	0.805278	0.390831	0.376668
H160	H	1.305278	0.890831	0.876668
C161	C	0.805039	0.321011	0.200866
C162	C	1.305039	0.821011	0.700866
H163	H	0.815537	0.309671	0.140282
H164	H	1.315537	0.809671	0.640282
H165	H	0.812909	0.382569	0.215738
H166	H	1.312909	0.882569	0.715738
H167	H	0.751989	0.308170	0.215756
H168	H	1.251989	0.808170	0.715756
H169	H	0.671631	0.325425	0.000080
H170	H	1.171631	0.825425	0.500080
H171	H	1.005062	0.105334	0.378575
H172	H	1.505062	0.605334	0.878575
C173	C	1.047856	0.059236	0.799337
C174	C	1.547856	0.559236	1.299337
H175	H	1.081475	0.022982	0.759288
H176	H	1.581475	0.522982	1.259288
H177	H	1.017927	0.021473	0.834768
H178	H	1.517927	0.521473	1.334768
H179	H	1.078854	0.095863	0.834752
H180	H	1.578854	0.595863	1.334752
C181	C	0.508915	0.333884	0.000094
C182	C	1.008915	0.833884	0.500094
H183	H	0.539472	0.385736	0.000080
H184	H	1.039472	0.885736	0.500080
H185	H	0.474233	0.336899	0.050404
H186	H	0.974233	0.836899	0.550404
H187	H	0.479013	0.331737	-0.050216
H188	H	0.979013	0.831737	0.449784
H189	H	0.181257	0.054835	0.000127
H190	H	0.681257	0.554835	0.500127
C191	C	0.780417	-0.058032	0.000082
C192	C	1.280417	0.441968	0.500082
H193	H	0.737195	-0.096218	0.000082
H194	H	1.237195	0.403782	0.500082
H195	H	0.780452	-0.023647	-0.050223
H196	H	1.280452	0.476353	0.449777
H197	H	0.775656	-0.018499	0.050397
H198	H	1.275656	0.481501	0.550397
C199	C	1.072463	-0.561697	0.000131
C200	C	1.572463	-0.061697	0.500131
H201	H	1.061195	-0.623708	0.000129
H202	H	1.561195	-0.123708	0.500129
H203	H	1.099670	-0.545989	0.050439
H204	H	1.599670	-0.045989	0.550439
H205	H	1.104460	-0.551151	-0.050181
H206	H	1.604460	-0.051151	0.449819
C207	C	1.056903	0.049456	0.608654
C208	C	1.556903	0.549456	1.108654
H209	H	1.086715	0.017301	0.648698
H210	H	1.586715	0.517301	1.148698
H211	H	1.091259	0.082443	0.573221
H212	H	1.591259	0.582443	1.073221
H213	H	1.030331	0.008052	0.573241
H214	H	1.530331	0.508052	1.073241
H215	H	0.705238	0.029832	0.000092
H216	H	1.205238	0.529832	0.500092
C217	C	0.703395	-0.391358	0.000074
C218	C	1.203395	0.108642	0.500074
H219	H	0.661542	-0.346507	0.000058
H220	H	1.161542	0.153493	0.500058
H221	H	0.697420	-0.425275	0.050381
H222	H	1.197420	0.074725	0.550381
H223	H	0.702223	-0.430431	-0.050239
H224	H	1.202223	0.069569	0.449761
C225	C	0.772486	-0.538183	0.000094
C226	C	1.272486	-0.038183	0.500094
H227	H	0.781674	-0.601797	0.000102
H228	H	1.281674	-0.101797	0.500102
H229	H	0.745790	-0.523027	-0.050214
H230	H	1.245790	-0.023027	0.449786
H231	H	0.741000	-0.517874	0.050406
H232	H	1.241000	-0.017874	0.550406
C233	C	1.146221	-0.426078	0.000144
C234	C	1.646221	0.073922	0.500144
H235	H	1.134952	-0.488088	0.000134
H236	H	1.634952	0.011912	0.500134
H237	H	1.173423	-0.410374	0.050456
H238	H	1.673423	0.089626	0.550456
H239	H	1.178224	-0.415529	-0.050165
H240	H	1.678224	0.084471	0.449835
C241	C	0.824134	0.300401	0.799358
C242	C	1.324134	0.800401	1.299358
H243	H	0.794296	0.332528	0.759316
H244	H	1.294296	0.832528	1.259316
H245	H	0.850657	0.341820	0.834796
H246	H	1.350657	0.841820	1.334796
H247	H	0.789798	0.267356	0.834766
H248	H	1.289798	0.767356	1.334766
