data_functionalizedCrystal
_audit_creation_method	'MofGen! by Chris Wilmer'
_symmetry_space_group_name_H-M	'P1'
_symmetry_Int_Tables_number	1
_symmetry_cell_setting	triclinic
loop_
_symmetry_equiv_pos_as_xyz
  x,y,z
_cell_length_a	19.121102
_cell_length_b	15.297327
_cell_length_c	15.298259
_cell_angle_alpha	88.343348
_cell_angle_beta	96.832623
_cell_angle_gamma	97.700936
loop_
_atom_site_label
_atom_site_type_symbol
_atom_site_fract_x
_atom_site_fract_y
_atom_site_fract_z
Zn1	Zn	0.949840	-0.304847	-0.614818
Zn2	Zn	1.449840	0.195153	-0.114818
Zn3	Zn	0.943010	-0.476394	-0.493253
Zn4	Zn	1.443010	0.023606	0.006747
Zn5	Zn	0.850124	-0.325839	-0.462145
Zn6	Zn	1.350124	0.174161	0.037855
Zn7	Zn	0.811206	-0.445178	-0.631454
Zn8	Zn	1.311206	0.054822	-0.131454
O9	O	0.888545	-0.388065	-0.550418
O10	O	1.388545	0.111935	-0.050418
O11	O	1.045826	-0.331882	-0.604749
O12	O	1.545826	0.168118	-0.104749
O13	O	0.944117	-0.478272	-0.367394
O14	O	1.444117	0.021728	0.132606
O15	O	0.882497	-0.201318	-0.462416
O16	O	1.382497	0.298682	0.037584
O17	O	1.040808	-0.457917	-0.515436
O18	O	1.540808	0.042083	-0.015436
O19	O	0.955758	-0.185895	-0.574585
O20	O	1.455758	0.314105	-0.074585
O21	O	0.875874	-0.367660	-0.344539
O22	O	1.375874	0.132340	0.155461
O23	O	0.748069	-0.337391	-0.478547
O24	O	1.248069	0.162609	0.021453
O25	O	0.816167	-0.404713	-0.750979
O26	O	1.316167	0.095287	-0.250979
O27	O	0.719476	-0.425069	-0.602938
O28	O	1.219476	0.074931	-0.102938
O29	O	0.918021	-0.301613	-0.738757
O30	O	1.418021	0.198387	-0.238757
O31	O	0.906380	-0.593990	-0.531567
O32	O	1.406380	-0.093990	-0.031567
O33	O	0.809544	-0.571056	-0.633102
O34	O	1.309544	-0.071056	-0.133102
C35	C	0.708649	-0.380121	-0.539173
C36	C	1.208649	0.119879	-0.039173
C37	C	0.631684	-0.376740	-0.534386
C38	C	1.131684	0.123260	-0.034386
C39	C	0.853015	-0.614085	-0.587536
C40	C	1.353015	-0.114085	-0.087536
C41	C	0.837875	-0.710776	-0.603448
C42	C	1.337875	-0.210776	-0.103448
C43	C	0.997004	-1.030947	-0.437005
C44	C	1.497004	-0.530947	0.062995
C45	C	1.011229	-0.940103	-0.422050
C46	C	1.511229	-0.440103	0.077950
C47	C	0.967892	-0.882766	-0.467398
C48	C	1.467892	-0.382766	0.032602
C49	C	0.910327	-0.916284	-0.527704
C50	C	1.410327	-0.416284	-0.027704
C51	C	0.896098	-1.007138	-0.542655
C52	C	1.396098	-0.507138	-0.042655
C53	C	0.866985	-0.858957	-0.573048
C54	C	1.366985	-0.358957	-0.073048
C55	C	0.809421	-0.892474	-0.633354
C56	C	1.309421	-0.392474	-0.133354
C57	C	0.795194	-0.983320	-0.648303
C58	C	1.295194	-0.483320	-0.148303
C59	C	0.838531	-1.040656	-0.602954
C60	C	1.338531	-0.540656	-0.102954
C61	C	0.881215	-0.768103	-0.558097
C62	C	1.381215	-0.268103	-0.058097
C63	C	0.780308	-0.744294	-0.663747
C64	C	1.280308	-0.244294	-0.163747
C65	C	0.766084	-0.835138	-0.678702
C66	C	1.266084	-0.335138	-0.178702
C67	C	0.580653	-0.420900	-0.596828
C68	C	1.080653	0.079100	-0.096828
C69	C	0.508337	-0.417711	-0.592332
C70	C	1.008337	0.082289	-0.092332
C71	C	0.487053	-0.370366	-0.525392
C72	C	0.987053	0.129634	-0.025392
C73	C	0.538090	-0.326200	-0.462947
C74	C	1.038090	0.173800	0.037053
C75	C	0.610405	-0.329385	-0.467447
C76	C	1.110405	0.170615	0.032553
C77	C	0.269454	-0.358458	-0.508573
C78	C	0.769454	0.141542	-0.008573
C79	C	0.197133	-0.355279	-0.504077
C80	C	0.697133	0.144721	-0.004077
C81	C	0.167385	-0.446788	-0.633463
C82	C	0.667385	0.053212	-0.133463
C83	C	0.239703	-0.449972	-0.637954
C84	C	0.739703	0.050028	-0.137954
C85	C	0.290733	-0.405803	-0.575512
C86	C	0.790733	0.094197	-0.075512
C87	C	0.413135	-0.367107	-0.520794
C88	C	0.913135	0.132893	-0.020794
C89	C	0.364650	-0.409057	-0.580115
C90	C	0.864650	0.090943	-0.080115
C91	C	1.069142	-0.396040	-0.561707
C92	C	1.569142	0.103960	-0.061707
C93	C	1.146102	-0.399439	-0.566518
C94	C	1.646102	0.100561	-0.066518
C95	C	0.863515	-0.347339	-0.777315
C96	C	1.363515	0.152661	-0.277315
C97	C	0.852849	-0.329985	-0.874005
C98	C	1.352849	0.170015	-0.374005
C99	C	0.924230	-0.161159	-0.513175
C100	C	1.424230	0.338841	-0.013175
C101	C	0.939437	-0.064465	-0.497304
C102	C	1.439437	0.435535	0.002696
C103	C	0.964906	-0.511433	-1.194150
C104	C	1.464906	-0.011433	-0.694150
C105	C	0.974923	-0.527744	-1.103305
C106	C	1.474923	-0.027744	-0.603305
C107	C	0.944406	-0.478305	-1.045976
C108	C	1.444406	0.021695	-0.545976
C109	C	0.903869	-0.412553	-1.079499
C110	C	1.403869	0.087447	-0.579499
C111	C	0.893846	-0.396245	-1.170353
C112	C	1.393846	0.103755	-0.670353
C113	C	0.873346	-0.363118	-1.022179
C114	C	1.373346	0.136882	-0.522179
C115	C	0.832809	-0.297366	-1.055703
C116	C	1.332809	0.202634	-0.555703
C117	C	0.822789	-0.281060	-1.146548
C118	C	1.322789	0.218940	-0.646548
C119	C	0.853306	-0.330499	-1.203878
C120	C	1.353306	0.169501	-0.703878
C121	C	0.883368	-0.379426	-0.931326
C122	C	1.383368	0.120574	-0.431326
C123	C	0.812308	-0.264238	-0.907529
C124	C	1.312308	0.235762	-0.407529
C125	C	0.802291	-0.247927	-0.998374
C126	C	1.302291	0.252073	-0.498374
C127	C	0.913527	-0.428571	-0.324395
C128	C	1.413527	0.071429	0.175605
C129	C	0.924366	-0.445686	-0.227674
C130	C	1.424366	0.054314	0.272326
H131	H	0.928084	-0.740822	-0.508996
H132	H	1.428084	-0.240822	-0.008996
F133	F	0.983160	-0.786055	-0.451676
F134	F	1.483160	-0.286055	0.048324
H135	H	0.651954	-0.293420	-0.416604
H136	H	1.151954	0.206580	0.083396
F137	F	0.387304	-0.459442	-0.651356
F138	F	0.887304	0.040558	-0.151356
F139	F	0.779818	-0.211627	-0.846520
F140	F	1.279818	0.288373	-0.346520
H141	H	0.597976	-0.459457	-0.651336
H142	H	1.097976	0.040543	-0.151336
H143	H	1.058097	-0.912816	-0.372949
H144	H	1.558097	-0.412816	0.127051
F145	F	1.043118	-1.091972	-0.388747
F146	F	1.543118	-0.591972	0.111253
H147	H	0.466790	-0.453672	-0.643178
H148	H	0.966790	0.046328	-0.143178
F149	F	0.823205	-1.137384	-0.618577
F150	F	1.323205	-0.637384	-0.118577
H151	H	0.748314	-1.010607	-0.697397
H152	H	1.248314	-0.510607	-0.197397
F153	F	0.704821	-0.870821	-0.742882
F154	F	1.204821	-0.370821	-0.242882
H155	H	0.769286	-0.194391	-1.025682
H156	H	1.269286	0.305609	-0.525682
F157	F	0.262349	-0.500365	-0.709200
F158	F	0.762349	-0.000365	-0.209200
H159	H	0.745018	-0.697611	-0.700672
H160	H	1.245018	-0.197611	-0.200672
F161	F	0.955070	-0.495664	-0.949291
F162	F	1.455070	0.004336	-0.449291
F163	F	0.390476	-0.316721	-0.449552
F164	F	0.890476	0.183279	0.050448
F165	F	0.515436	-0.275806	-0.391708
F166	F	1.015436	0.224194	0.108292
F167	F	0.113071	-0.493794	-0.699912
F168	F	0.613071	0.006206	-0.199912
H169	H	1.007920	-0.581287	-1.076018
H170	H	1.507920	-0.081287	-0.576018
H171	H	0.989743	-0.551684	-1.240835
H172	H	1.489743	-0.051684	-0.740835
H173	H	0.845154	-0.317220	-1.277851
H174	H	1.345154	0.182780	-0.777851
F175	F	0.174483	-0.304892	-0.432821
F176	F	0.674483	0.195108	0.067179
H177	H	0.310995	-0.322499	-0.457723
H178	H	0.810995	0.177501	0.042277
H179	H	0.916379	-0.432957	-0.904039
H180	H	1.416379	0.067043	-0.404039
H181	H	0.789773	-0.227529	-1.173841
H182	H	1.289773	0.272471	-0.673841
