data_functionalizedCrystal
_audit_creation_method	'MofGen! by Chris Wilmer'
_symmetry_space_group_name_H-M	'P1'
_symmetry_Int_Tables_number	1
_symmetry_cell_setting	triclinic
loop_
_symmetry_equiv_pos_as_xyz
  x,y,z
_cell_length_a	14.044220
_cell_length_b	11.026607
_cell_length_c	10.065875
_cell_angle_alpha	79.268236
_cell_angle_beta	99.550528
_cell_angle_gamma	100.887447
loop_
_atom_site_label
_atom_site_type_symbol
_atom_site_fract_x
_atom_site_fract_y
_atom_site_fract_z
O1	O	-1.319580	-0.281448	-0.113335
O2	O	-1.041779	-0.270687	-0.113370
O3	O	-1.157655	-0.096922	-0.113350
O4	O	-1.203704	-0.455212	-0.113354
O5	O	-1.135584	-0.130202	0.113635
O6	O	-1.019708	-0.303966	0.113615
O7	O	-1.297509	-0.314727	0.113650
Zn8	Zn	-1.155104	-0.314631	0.149672
Zn9	Zn	-1.184184	-0.270783	-0.149391
O10	O	-1.181633	-0.488492	0.113631
C11	C	-0.994626	-0.282618	0.000118
C12	C	-0.887005	-0.268572	0.000105
C13	C	-1.138125	-0.067431	0.000140
C14	C	-1.112801	0.070025	0.000132
C15	C	-1.344662	-0.302796	0.000160
C16	C	-1.452284	-0.316840	0.000164
C17	C	-0.689960	-0.242901	0.000132
C18	C	-0.649322	-0.342506	0.000137
C19	C	-0.539680	-0.328222	0.000152
C20	C	-0.799612	-0.257183	0.000117
C21	C	-1.201163	-0.517982	0.000138
C22	C	-1.226488	-0.655438	0.000137
N23	N	-1.135265	-0.344556	0.353774
C24	C	-1.182725	0.136261	0.000139
C25	C	-1.156554	0.278330	0.000130
N26	N	-1.204029	-0.240849	-0.353493
C27	C	-1.177274	-0.281186	0.421560
C28	C	-1.162014	-0.304228	0.578725
H29	H	-0.696875	-0.438508	0.000129
C30	C	-1.332219	0.280192	0.000087
C31	C	-1.391657	0.368839	0.000060
C32	C	-1.489060	0.309591	-0.000004
H33	H	-1.337444	0.218422	0.079223
H34	H	-1.352754	0.241655	-0.079097
H35	H	-1.371128	0.407357	0.079235
H36	H	-1.386461	0.430614	-0.079070
H37	H	-1.509595	0.271053	-0.079188
H38	H	-1.494276	0.247822	0.079133
H39	H	-1.529402	0.369730	-0.000035
H40	H	-0.642410	-0.146907	0.000141
C41	C	-1.007202	0.134836	-0.000099
C42	C	-0.999982	0.225826	-0.116867
C43	C	-0.902720	0.285562	-0.117117
H44	H	-0.966627	0.075005	-0.000172
H45	H	-0.986701	0.173488	0.079011
H46	H	-1.020471	0.187174	-0.195955
H47	H	-1.040535	0.285682	-0.116818
H48	H	-0.882220	0.324214	-0.038008
H49	H	-0.862153	0.225722	-0.117186
H50	H	-0.897810	0.347313	-0.196335
H51	H	-1.087998	-0.415862	0.412092
H52	H	-1.261964	0.087789	0.000157
H53	H	-1.251291	-0.169529	0.588194
C54	C	-1.050949	0.343135	-0.000100
C55	C	-1.043730	0.434125	-0.116868
C56	C	-0.946467	0.493861	-0.117118
H57	H	-1.010374	0.283304	-0.000173
H58	H	-1.030449	0.381787	0.079009
H59	H	-1.064218	0.395473	-0.195957
H60	H	-1.084283	0.493981	-0.116820
H61	H	-0.925967	0.532513	-0.038009
H62	H	-0.905901	0.434021	-0.117188
H63	H	-0.941558	0.555612	-0.196337
H64	H	-1.224532	-0.209870	0.363244
H65	H	-1.114744	-0.375538	0.637037
