data_functionalizedCrystal
_audit_creation_method	'MofGen! by Chris Wilmer'
_symmetry_space_group_name_H-M	'P1'
_symmetry_Int_Tables_number	1
_symmetry_cell_setting	triclinic
loop_
_symmetry_equiv_pos_as_xyz
  x,y,z
_cell_length_a	8.497374
_cell_length_b	12.759401
_cell_length_c	12.759399
_cell_angle_alpha	89.983359
_cell_angle_beta	89.991562
_cell_angle_gamma	90.001753
loop_
_atom_site_label
_atom_site_type_symbol
_atom_site_fract_x
_atom_site_fract_y
_atom_site_fract_z
Zn1	Zn	0.891958	1.606064	0.418406
Zn2	Zn	0.628160	1.606013	0.594052
Zn3	Zn	0.628185	1.430422	0.418393
Zn4	Zn	0.891892	1.430354	0.594048
O5	O	0.760048	1.518213	0.506225
O6	O	0.856982	1.753079	0.441713
O7	O	0.407401	1.582728	0.570747
O8	O	0.663213	1.453771	0.271373
O9	O	0.663171	1.753041	0.570760
O10	O	0.857005	1.582815	0.271383
O11	O	0.407419	1.453722	0.441691
O12	O	0.663149	1.283392	0.441686
O13	O	1.112663	1.453655	0.570752
O14	O	0.856893	1.283342	0.570739
O15	O	1.112711	1.582749	0.441709
O16	O	0.663107	1.582661	0.741073
O17	O	0.856869	1.453605	0.741069
C18	C	0.760017	1.245246	0.506212
C19	C	0.760041	1.128469	0.506232
C20	C	0.860765	1.073609	0.573532
C21	C	0.860796	0.963885	0.573536
C22	C	0.659366	0.963891	0.438937
C23	C	0.659344	1.073613	0.438928
C24	C	1.046781	0.813947	0.611283
C25	C	1.147491	0.759083	0.678599
C26	C	1.171437	0.794674	0.781136
C27	C	1.094649	0.885128	0.816378
C28	C	0.993928	0.939987	0.749067
C29	C	0.970012	0.904397	0.646515
C30	C	0.473357	1.223553	0.401192
C31	C	0.372627	1.278414	0.333885
C32	C	0.348665	1.242824	0.231346
C33	C	0.425424	1.152367	0.196109
C34	C	0.526155	1.097506	0.263415
C35	C	0.550119	1.133103	0.365953
C36	C	0.760013	1.518149	0.779192
C37	C	0.760050	1.518217	0.895969
C38	C	1.171529	1.518205	0.506226
C39	C	1.350173	1.518208	0.506237
C40	C	0.760081	1.792246	0.506238
C41	C	0.760095	1.909023	0.506244
C42	C	0.760119	1.518307	0.232191
C43	C	0.760149	1.518346	0.115415
C44	C	0.659273	1.585494	0.950797
C45	C	0.659326	1.585561	1.060521
C46	C	0.860938	1.451067	1.060578
C47	C	0.860891	1.451006	0.950856
C48	C	0.603186	1.709582	1.210382
C49	C	0.502384	1.776849	1.265215
C50	C	0.348458	1.793046	1.229634
C51	C	0.295302	1.741961	1.139222
C52	C	0.396096	1.674686	1.084396
C53	C	0.550044	1.658509	1.119975
C54	C	0.917015	1.326983	0.800993
C55	C	1.017802	1.259702	0.746165
C56	C	1.171731	1.243495	0.781743
C57	C	1.224880	1.294561	0.872158
C58	C	1.124094	1.361842	0.926987
C59	C	0.970167	1.378052	0.891401
H60	H	0.588668	1.023856	0.234713
O61	O	1.222345	0.671293	0.644435
C62	C	1.386484	0.686087	0.650967
H63	H	1.413387	0.749340	0.711448
H64	H	1.445043	0.609531	0.675496
H65	H	1.433748	0.711350	0.571241
H66	H	0.310124	1.352069	0.362585
H67	H	0.974517	1.218127	0.672539
H68	H	0.352819	1.633096	1.010783
H69	H	0.791677	1.340183	0.772010
H70	H	0.169953	1.755146	1.110266
H71	H	0.405889	1.123377	0.112620
O72	O	1.023695	0.779525	0.511604
C73	C	1.071291	0.857773	0.440279
H74	H	1.159557	0.912139	0.479900
H75	H	1.128523	0.819533	0.369098
H76	H	0.964285	0.904921	0.414165
H77	H	0.577164	1.640223	0.906111
O78	O	0.250312	1.858321	1.282795
C79	C	0.103059	1.861684	1.231991
H80	H	0.086908	1.787683	1.183119
H81	H	0.005413	1.866745	1.293059
H82	H	0.097783	1.933341	1.178716
H83	H	0.266627	1.287497	0.176550
H84	H	0.577380	0.919214	0.384142
H85	H	0.728530	1.696411	1.239354
H86	H	0.545678	1.818443	1.338828
H87	H	1.167384	1.403428	1.000605
H88	H	0.943037	1.396344	1.105281
O89	O	0.496412	1.258246	0.500784
C90	C	0.407080	1.349858	0.517447
H91	H	0.304888	1.352109	0.459615
H92	H	0.359255	1.349901	0.600929
H93	H	0.484858	1.421643	0.505274
O94	O	1.269396	0.741551	0.846579
C95	C	1.392880	0.808059	0.878561
H96	H	1.354185	0.893234	0.870574
H97	H	1.423823	0.791030	0.963816
H98	H	1.500482	0.793694	0.827156
H99	H	1.350223	1.281365	0.901127
O100	O	1.269448	1.178013	0.728480
C101	C	1.203695	1.076589	0.725954
H102	H	1.070917	1.082029	0.737528
H103	H	1.229860	1.038609	0.646990
H104	H	1.257137	1.027114	0.791298
O105	O	0.958667	1.127012	0.638754
C106	C	1.060727	1.190484	0.579038
H107	H	1.005287	1.206934	0.499360
H108	H	1.081747	1.267633	0.621849
H109	H	1.177673	1.148211	0.567617
O110	O	0.919497	1.027846	0.783446
C111	C	0.962173	1.047475	0.888401
H112	H	1.079848	1.008285	0.905859
H113	H	0.973038	1.135586	0.901294
H114	H	0.868143	1.014430	0.942918
H115	H	1.114141	0.914093	0.899879
