data_functionalizedCrystal
_audit_creation_method	'MofGen! by Chris Wilmer'
_symmetry_space_group_name_H-M	'P1'
_symmetry_Int_Tables_number	1
_symmetry_cell_setting	triclinic
loop_
_symmetry_equiv_pos_as_xyz
  x,y,z
_cell_length_a	19.805407
_cell_length_b	19.805405
_cell_length_c	19.805399
_cell_angle_alpha	89.970699
_cell_angle_beta	89.980427
_cell_angle_gamma	90.026410
loop_
_atom_site_label
_atom_site_type_symbol
_atom_site_fract_x
_atom_site_fract_y
_atom_site_fract_z
Zn1	Zn	1.034736	-0.269479	-0.382712
Zn2	Zn	1.034651	-0.382667	-0.269520
Zn3	Zn	0.921550	-0.269498	-0.269536
Zn4	Zn	0.921514	-0.382631	-0.382667
O5	O	0.978113	-0.326069	-0.326109
O6	O	1.129441	-0.284501	-0.367708
O7	O	1.019627	-0.367678	-0.174805
O8	O	0.936616	-0.174778	-0.284575
O9	O	1.129378	-0.367660	-0.284547
O10	O	1.019772	-0.174765	-0.367724
O11	O	0.936533	-0.284533	-0.174817
O12	O	0.826829	-0.284498	-0.284531
O13	O	0.936553	-0.367598	-0.477389
O14	O	0.826802	-0.367617	-0.367648
O15	O	1.019737	-0.284466	-0.477422
O16	O	1.019592	-0.477379	-0.284503
O17	O	0.936471	-0.477353	-0.367632
C18	C	0.802257	-0.326056	-0.326087
C19	C	0.727025	-0.326067	-0.326093
C20	C	0.691684	-0.369412	-0.369302
C21	C	0.620996	-0.369413	-0.369312
C22	C	0.585649	-0.326072	-0.326109
C23	C	0.620994	-0.282722	-0.282898
C24	C	0.691681	-0.282718	-0.282892
C25	C	0.335921	-0.282737	-0.282920
C26	C	0.265229	-0.282746	-0.282928
C27	C	0.265235	-0.369432	-0.369340
C28	C	0.335922	-0.369428	-0.369334
C29	C	0.371262	-0.326076	-0.326126
C30	C	0.447910	-0.326074	-0.326117
C31	C	0.509002	-0.326076	-0.326114
C32	C	0.978036	-0.501925	-0.326076
C33	C	0.978066	-0.577157	-0.326084
C34	C	1.021389	-0.612492	-0.282845
C35	C	1.021418	-0.683181	-0.282860
C36	C	0.978119	-0.718532	-0.326111
C37	C	0.934794	-0.683192	-0.369356
C38	C	0.934769	-0.612505	-0.369344
C39	C	0.934894	-0.968265	-0.369406
C40	C	0.934921	-1.038957	-0.369413
C41	C	1.021542	-1.038941	-0.282922
C42	C	1.021517	-0.968254	-0.282910
C43	C	0.978195	-0.932920	-0.326157
C44	C	0.978166	-0.856271	-0.326141
C45	C	0.978145	-0.795179	-0.326124
C46	C	1.154655	-0.326082	-0.326131
C47	C	1.229887	-0.326088	-0.326140
C48	C	0.978151	-0.326026	-0.502651
C49	C	0.978167	-0.326008	-0.577883
C50	C	0.978207	-0.149526	-0.326156
C51	C	0.978248	-0.074294	-0.326177
C52	C	1.021481	-0.282719	-0.613246
C53	C	1.021488	-0.282699	-0.683934
C54	C	0.978184	-0.325973	-0.719259
C55	C	0.934864	-0.369264	-0.683892
C56	C	0.934854	-0.369279	-0.613204
C57	C	0.934902	-0.369201	-0.968965
C58	C	0.934917	-0.369183	-1.039657
C59	C	1.021536	-0.282620	-1.039695
C60	C	1.021527	-0.282636	-0.969008
C61	C	0.978205	-0.325924	-0.933647
C62	C	0.978197	-0.325944	-0.856998
C63	C	0.978194	-0.325957	-0.795906
C64	C	0.978114	-0.326062	-0.150253
C65	C	0.978229	-0.325890	-0.075021
H66	H	0.720458	-0.404707	-0.404481
O67	O	0.892734	-0.411322	-0.718099
C68	C	0.806847	-0.497218	-0.710595
C69	C	0.854512	-0.449606	-0.671774
H70	H	0.775942	-0.528193	-0.673158
H71	H	0.771432	-0.466167	-0.743675
H72	H	0.837920	-0.532576	-0.743702
H73	H	0.823493	-0.414239	-0.638631
H74	H	0.889929	-0.480699	-0.638737
H75	H	1.056820	-1.067719	-0.247711
O76	O	0.892841	-1.073194	-0.411498
C77	C	0.806898	-1.065755	-0.497269
C78	C	0.854527	-1.026898	-0.449657
H79	H	0.775898	-1.028341	-0.528122
H80	H	0.837936	-1.098783	-0.532734
H81	H	0.771563	-1.098917	-0.466156
H82	H	0.889871	-0.993700	-0.480715
H83	H	0.823446	-0.993913	-0.414190
O84	O	0.892903	-0.933921	-0.411482
C85	C	0.883698	-0.854040	-0.502825
C86	C	0.931335	-0.892906	-0.455225
H87	H	0.914750	-0.820859	-0.538194
H88	H	0.852769	-0.891425	-0.533783
H89	H	0.848298	-0.821026	-0.471699
H90	H	0.966776	-0.925921	-0.486299
H91	H	0.962217	-0.855485	-0.424265
H92	H	0.899576	-0.404523	-0.584413
H93	H	0.592225	-0.404709	-0.404496
O94	O	0.230978	-0.411504	-0.411414
C95	C	0.209360	-0.444482	-0.526493
C96	C	0.248208	-0.396806	-0.478923
H97	H	0.223264	-0.432606	-0.581085
H98	H	0.223241	-0.499055	-0.514563
H99	H	0.152770	-0.437049	-0.519046
H100	H	0.304806	-0.404178	-0.486344
H101	H	0.234270	-0.342250	-0.490865
H102	H	0.364698	-0.404723	-0.404512
O103	O	0.892807	-0.717501	-0.411469
C104	C	0.859865	-0.739050	-0.526573
C105	C	0.907470	-0.700167	-0.478959
H106	H	0.871694	-0.725039	-0.581148
H107	H	0.867326	-0.795650	-0.519212
H108	H	0.805294	-0.725211	-0.514600
H109	H	0.962059	-0.713949	-0.490902
H110	H	0.899951	-0.643576	-0.486329
O111	O	1.063663	-0.717484	-0.241002
C112	C	1.155215	-0.797087	-0.232161
C113	C	1.107361	-0.758302	-0.279610
H114	H	1.190547	-0.830109	-0.263355
H115	H	1.186199	-0.759649	-0.201322
H116	H	1.124287	-0.830252	-0.196669
H117	H	1.138237	-0.725136	-0.315143
H118	H	1.076375	-0.795777	-0.310402
H119	H	0.236452	-0.247448	-0.247747
H120	H	0.364686	-0.247442	-0.247733
H121	H	1.056773	-0.939473	-0.247688
O122	O	0.586556	-0.240680	-0.240955
C123	C	0.477659	-0.202232	-0.202699
C124	C	0.516573	-0.249891	-0.250222
H125	H	0.421071	-0.209653	-0.210185
H126	H	0.491478	-0.214042	-0.148082
H127	H	0.491626	-0.147678	-0.214681
H128	H	0.502627	-0.304461	-0.238301
H129	H	0.502751	-0.238023	-0.304825
O130	O	1.063655	-0.240691	-0.934659
C131	C	1.154985	-0.231588	-0.854822
C132	C	1.107336	-0.279174	-0.893693
H133	H	1.190304	-0.262681	-0.821681
H134	H	1.185995	-0.200647	-0.892203
H135	H	1.123895	-0.196196	-0.821768
H136	H	1.138374	-0.314607	-0.926748
H137	H	1.076324	-0.310067	-0.856276
O138	O	1.063551	-0.240584	-1.074151
C139	C	1.101986	-0.202215	-1.183064
C140	C	1.054361	-0.249840	-1.144130
H141	H	1.094583	-0.209692	-1.239649
H142	H	1.090128	-0.147625	-1.169225
H143	H	1.156548	-0.214103	-1.169133
H144	H	0.999783	-0.238013	-1.158040
H145	H	1.066277	-0.304416	-1.157972
O146	O	0.892782	-0.578146	-0.411418
C147	C	0.883601	-0.498251	-0.502751
C148	C	0.931226	-0.537132	-0.455151
H149	H	0.914663	-0.465071	-0.538112
H150	H	0.852668	-0.535626	-0.533717
H151	H	0.848204	-0.465235	-0.471624
H152	H	0.966664	-0.570149	-0.486226
H153	H	0.962111	-0.499720	-0.424183
O154	O	1.063570	-0.240618	-0.579039
C155	C	1.149515	-0.154781	-0.586545
C156	C	1.101873	-0.202417	-0.625366
H157	H	1.180505	-0.123892	-0.623984
H158	H	1.118487	-0.119349	-0.553474
H159	H	1.184857	-0.185876	-0.553431
H160	H	1.066522	-0.171376	-0.658516
H161	H	1.132943	-0.237850	-0.658395
O162	O	0.725985	-0.240688	-0.240819
C163	C	0.747551	-0.207657	-0.125746
C164	C	0.708673	-0.255310	-0.173315
H165	H	0.733558	-0.219452	-0.071160
H166	H	0.804152	-0.215102	-0.133106
H167	H	0.733689	-0.153100	-0.137766
H168	H	0.722479	-0.309886	-0.161325
H169	H	0.652082	-0.247807	-0.165947
O170	O	1.063512	-0.578259	-0.240806
C171	C	1.149405	-0.585712	-0.154987
C172	C	1.101745	-0.624562	-0.202573
H173	H	1.180318	-0.623131	-0.124053
H174	H	1.184812	-0.552586	-0.186055
H175	H	1.118327	-0.552651	-0.119590
H176	H	1.132768	-0.657660	-0.237980
H177	H	1.066335	-0.657646	-0.171463
O178	O	0.892754	-0.411152	-0.934584
C179	C	0.801385	-0.420257	-0.854721
C180	C	0.849065	-0.372671	-0.893635
H181	H	0.766060	-0.389165	-0.821593
H182	H	0.770384	-0.451176	-0.892074
H183	H	0.832450	-0.455669	-0.821649
H184	H	0.818052	-0.337218	-0.926707
H185	H	0.880068	-0.341799	-0.856245
H186	H	0.899650	-0.404423	-1.068417
H187	H	1.056761	-0.247450	-0.712723
