data_functionalizedCrystal
_audit_creation_method	'MofGen! by Chris Wilmer'
_symmetry_space_group_name_H-M	'P1'
_symmetry_Int_Tables_number	1
_symmetry_cell_setting	triclinic
loop_
_symmetry_equiv_pos_as_xyz
  x,y,z
_cell_length_a	6.817900
_cell_length_b	15.301126
_cell_length_c	16.418042
_cell_angle_alpha	95.179687
_cell_angle_beta	103.389568
_cell_angle_gamma	104.177575
loop_
_atom_site_label
_atom_site_type_symbol
_atom_site_fract_x
_atom_site_fract_y
_atom_site_fract_z
V1	V	-4.029051	-0.125492	-0.261410
O2	O	-4.012948	0.005276	-0.256172
O3	O	-3.983989	-0.248105	-0.259874
O4	O	-3.980081	-0.123893	-0.375305
O5	O	-4.016883	-0.119796	-0.139942
V6	V	-4.512320	-0.109812	-0.246851
O7	O	-4.290866	-0.159889	-0.293346
O8	O	-4.700703	-0.075415	-0.214914
O9	O	-4.334176	0.012801	-0.248386
O10	O	-4.645821	-0.240581	-0.252089
O11	O	-4.641886	-0.115509	-0.368319
O12	O	-4.338084	-0.111411	-0.132956
C13	C	-3.829821	-0.277985	-0.255815
C14	C	-3.874260	-0.378224	-0.255318
C15	C	-4.077354	-0.429922	-0.259272
C16	C	-4.119101	-0.524108	-0.258811
C17	C	-3.957747	-0.566594	-0.254389
C18	C	-3.754637	-0.514891	-0.250437
C19	C	-3.712897	-0.420707	-0.250905
C20	C	-3.841649	-0.711199	-0.249461
C21	C	-3.883391	-0.805388	-0.248991
C22	C	-4.247853	-0.814599	-0.257366
C23	C	-4.206113	-0.720416	-0.257834
C24	C	-4.003004	-0.668719	-0.253881
C25	C	-3.824834	-0.119539	-0.403057
C26	C	-3.866102	-0.119043	-0.496169
C27	C	-4.143216	-0.122397	-0.714661
C28	C	-4.181971	-0.121923	-0.802148
C29	C	-3.817512	-0.112903	-0.793587
C30	C	-3.778756	-0.113370	-0.706101
C31	C	-3.941617	-0.118122	-0.666641
C32	C	-4.019129	-0.117180	-0.841614
C33	C	-4.061148	-0.116666	-0.936470
C34	C	-3.899595	-0.118635	-0.571778
C35	C	-4.151687	0.042676	-0.252443
C36	C	-4.086485	0.142915	-0.252945
C37	C	-4.156673	-0.115768	-0.105199
C38	C	-4.094644	-0.116260	-0.012086
H39	H	-4.337502	-0.685826	-0.261430
H40	H	-3.752013	-0.839982	-0.245416
H41	H	-4.208749	-0.395335	-0.262865
H42	H	-4.275829	-0.126265	-0.682536
H43	H	-3.684923	-0.109036	-0.825726
C44	C	-4.468209	-0.870803	-0.261513
C45	C	-4.464785	-0.912797	-0.189074
C46	C	-4.667723	-0.964587	-0.192859
H47	H	-4.558498	-0.832103	-0.264164
H48	H	-4.517892	-0.916163	-0.310566
H49	H	-4.415130	-0.867443	-0.140035
H50	H	-4.374539	-0.951513	-0.186409
H51	H	-4.717406	-1.009947	-0.241911
H52	H	-4.757995	-0.925880	-0.195512
H53	H	-4.665424	-0.993093	-0.143715
C54	C	-3.559846	-0.108586	-0.653876
C55	C	-3.486820	-0.030626	-0.591943
C56	C	-3.285185	-0.026198	-0.543819
H57	H	-3.564156	-0.161378	-0.627265
H58	H	-3.468277	-0.105657	-0.689856
H59	H	-3.578365	-0.033563	-0.555968
H60	H	-3.482460	0.022179	-0.618531
H61	H	-3.193617	-0.023269	-0.579800
H62	H	-3.289515	-0.078993	-0.517214
H63	H	-3.235604	0.026702	-0.501798
C64	C	-4.339635	-0.580319	-0.263251
C65	C	-4.412306	-0.647010	-0.335652
C66	C	-4.615462	-0.698804	-0.339768
H67	H	-4.337938	-0.608956	-0.214210
H68	H	-4.429863	-0.541571	-0.265987
H69	H	-4.322102	-0.685752	-0.332909
H70	H	-4.414054	-0.618398	-0.384706
H71	H	-4.705690	-0.660056	-0.342505
H72	H	-4.613745	-0.727435	-0.290724
H73	H	-4.664803	-0.744054	-0.388896
C74	C	-3.492257	-0.364590	-0.246433
C75	C	-3.354478	-0.372341	-0.171361
C76	C	-3.151211	-0.320651	-0.167210
H77	H	-3.449690	-0.386454	-0.293660
H78	H	-3.490395	-0.302395	-0.247299
H79	H	-3.356333	-0.434523	-0.170502
H80	H	-3.396977	-0.350472	-0.124120
H81	H	-3.149349	-0.258456	-0.168076
H82	H	-3.108666	-0.342519	-0.214441
H83	H	-3.057707	-0.325896	-0.116271
C84	C	-4.400993	-0.126758	-0.854270
C85	C	-4.541555	-0.207576	-0.847042
C86	C	-4.743338	-0.212067	-0.895053
H87	H	-4.442650	-0.075908	-0.833978
H88	H	-4.400870	-0.125848	-0.912042
H89	H	-4.541686	-0.208478	-0.789282
H90	H	-4.499967	-0.258440	-0.867339
H91	H	-4.743215	-0.211156	-0.952826
H92	H	-4.784974	-0.161213	-0.874757
H93	H	-4.838731	-0.266905	-0.890162
H94	H	-3.676264	-0.669110	-0.246248
H95	H	-3.623266	-0.549491	-0.246842
