data_functionalizedCrystal
_audit_creation_method	'MofGen! by Chris Wilmer'
_symmetry_space_group_name_H-M	'P1'
_symmetry_Int_Tables_number	1
_symmetry_cell_setting	triclinic
loop_
_symmetry_equiv_pos_as_xyz
  x,y,z
_cell_length_a	8.597187
_cell_length_b	14.519731
_cell_length_c	7.088668
_cell_angle_alpha	96.957502
_cell_angle_beta	104.526127
_cell_angle_gamma	84.515377
loop_
_atom_site_label
_atom_site_type_symbol
_atom_site_fract_x
_atom_site_fract_y
_atom_site_fract_z
O1	O	2.129081	0.165167	0.509725
O2	O	2.629081	0.665167	1.009725
O3	O	1.665244	0.171601	0.433322
O4	O	2.165244	0.671601	0.933322
O5	O	1.909441	0.034353	0.473529
O6	O	2.409441	0.534353	0.973529
O7	O	1.884884	0.302416	0.469518
O8	O	2.384884	0.802416	0.969518
O9	O	1.880162	0.016928	0.150714
O10	O	2.380162	0.516928	0.650714
O11	O	1.635965	0.154177	0.110507
O12	O	2.135965	0.654177	0.610507
O13	O	2.099802	0.147743	0.186911
O14	O	2.599802	0.647743	0.686911
Cu15	Cu	1.865210	0.149369	0.119233
Cu16	Cu	2.365210	0.649369	0.619233
Cu17	Cu	1.899836	0.169975	0.500999
Cu18	Cu	2.399836	0.669975	1.000999
O19	O	1.855605	0.284992	0.146704
O20	O	2.355605	0.784992	0.646704
C21	C	1.591242	0.161227	0.262136
C22	C	2.091242	0.661227	0.762136
C23	C	1.414362	0.156264	0.232999
C24	C	1.914362	0.656264	0.732999
C25	C	1.893651	-0.008738	0.311931
C26	C	2.393651	0.491262	0.811931
C27	C	1.890202	-0.111177	0.311362
C28	C	2.390202	0.388823	0.811362
C29	C	1.887400	-0.194368	0.310905
C30	C	2.387400	0.305632	0.810905
C31	C	1.883901	-0.298734	0.310343
C32	C	2.383901	0.201266	0.810343
C33	C	1.881123	-0.381920	0.309898
C34	C	2.381123	0.118080	0.809898
C35	C	1.877623	-0.486293	0.309332
C36	C	2.377623	0.013707	0.809332
C37	C	2.173804	0.158117	0.358101
C38	C	2.673804	0.658117	0.858101
C39	C	2.350686	0.163081	0.387250
C40	C	2.850686	0.663081	0.887250
C41	C	1.871396	0.328083	0.308305
C42	C	2.371396	0.828083	0.808305
C43	C	1.874845	0.430522	0.308887
C44	C	2.374845	0.930522	0.808887
N45	N	1.840868	0.134875	-0.149278
N46	N	2.340868	0.634875	0.350722
N47	N	1.924191	0.184462	0.769513
N48	N	2.424191	0.684462	1.269513
H49	H	1.431497	0.172716	0.541600
H50	H	1.931497	0.672716	1.041600
H51	H	1.754559	0.083491	-0.245193
H52	H	2.254559	0.583491	0.254807
F53	F	1.308747	0.143686	0.031260
F54	F	1.808747	0.643686	0.531260
H55	H	2.010515	0.235844	-0.134561
H56	H	2.510515	0.735844	0.365439
