data_functionalizedCrystal
_audit_creation_method	'MofGen! by Chris Wilmer'
_symmetry_space_group_name_H-M	'P1'
_symmetry_Int_Tables_number	1
_symmetry_cell_setting	triclinic
loop_
_symmetry_equiv_pos_as_xyz
  x,y,z
_cell_length_a	13.339070
_cell_length_b	9.130313
_cell_length_c	10.654550
_cell_angle_alpha	89.995631
_cell_angle_beta	100.057112
_cell_angle_gamma	89.996199
loop_
_atom_site_label
_atom_site_type_symbol
_atom_site_fract_x
_atom_site_fract_y
_atom_site_fract_z
O1	O	1.346709	-0.121851	0.631121
O2	O	1.051601	-0.121843	0.548283
O3	O	1.205940	-0.121838	0.409254
O4	O	1.192370	-0.121856	0.770150
O5	O	1.205930	0.121761	0.409244
O6	O	1.051590	0.121756	0.548273
O7	O	1.346699	0.121748	0.631112
Cu8	Cu	1.199143	0.143994	0.589692
Cu9	Cu	1.199156	-0.144089	0.589703
O10	O	1.192359	0.121743	0.770141
C11	C	1.013808	-0.000042	0.534285
C12	C	0.901214	-0.000039	0.492575
N13	N	1.199142	0.346617	0.589686
N14	N	1.199166	-0.346712	0.589701
C15	C	0.538696	-0.000078	0.816889
C16	C	0.644484	-0.000086	0.856082
C17	C	0.708672	-0.000074	0.765208
C18	C	0.667061	-0.000054	0.635136
C19	C	0.561263	-0.000058	0.595939
C20	C	0.731238	-0.000054	0.544259
C21	C	0.689628	-0.000034	0.414186
C22	C	0.583840	-0.000037	0.374996
C23	C	0.519653	-0.000049	0.465870
C24	C	0.837036	-0.000050	0.583455
C25	C	0.859603	-0.000030	0.362505
C26	C	0.753816	-0.000022	0.323313
C27	C	1.384491	-0.000056	0.645110
C28	C	1.497086	-0.000069	0.686819
C29	C	1.204938	-0.000039	0.362115
C30	C	1.201957	-0.000041	0.221665
C31	C	1.267507	0.423271	0.528168
C32	C	1.267516	0.576608	0.528171
C33	C	1.130793	0.576623	0.651221
C34	C	1.130780	0.423289	0.651209
C35	C	1.292830	-0.000045	0.172863
C36	C	1.290023	-0.000062	0.040894
C37	C	1.105463	-0.000068	0.006540
C38	C	1.108271	-0.000060	0.138506
C39	C	1.193361	-0.000059	0.817280
C40	C	1.196342	-0.000066	0.957730
H41	H	0.794808	-0.000083	0.797127
O42	O	1.393873	-0.000037	0.262558
H43	H	1.399565	-0.099315	0.323521
H44	H	1.075136	0.639065	0.701314
O45	O	0.469464	-0.000079	0.914887
H46	H	0.420727	-0.099361	0.902307
H47	H	1.075104	0.360873	0.701304
O48	O	0.689366	-0.000074	0.996363
H49	H	0.626963	-0.000059	1.052969
O50	O	1.388034	-0.000047	-0.011748
H51	H	1.453647	-0.000019	0.068252
H52	H	1.029186	-0.000080	-0.061184
O53	O	0.928827	-0.000009	0.264484
H54	H	0.882121	-0.000017	0.167454
H55	H	1.034267	-0.000062	0.178239
H56	H	0.870905	-0.000060	0.689361
H57	H	0.719921	-0.000019	0.217405
H58	H	0.549965	-0.000038	0.269083
O59	O	0.405549	-0.000034	0.423590
H60	H	0.367912	-0.000043	0.508635
O61	O	1.341225	0.340567	0.461796
H62	H	1.388756	0.419637	0.419007
H63	H	1.323184	0.639015	0.478076
