data_functionalizedCrystal
_audit_creation_method	'MofGen! by Chris Wilmer'
_symmetry_space_group_name_H-M	'P1'
_symmetry_Int_Tables_number	1
_symmetry_cell_setting	triclinic
loop_
_symmetry_equiv_pos_as_xyz
  x,y,z
_cell_length_a	26.210047
_cell_length_b	17.038272
_cell_length_c	17.038272
_cell_angle_alpha	91.111556
_cell_angle_beta	89.981131
_cell_angle_gamma	89.985725
loop_
_atom_site_label
_atom_site_type_symbol
_atom_site_fract_x
_atom_site_fract_y
_atom_site_fract_z
O1	O	0.042366	-1.048772	-0.170553
O2	O	0.042381	-0.820961	-0.167845
O3	O	0.042369	-0.933513	-0.055293
O4	O	0.042377	-0.936221	-0.283105
O5	O	-0.042489	-0.933466	-0.055256
O6	O	-0.042477	-0.820914	-0.167808
O7	O	-0.042492	-1.048726	-0.170516
Cu8	Cu	-0.050233	-0.934816	-0.169159
Cu9	Cu	0.050121	-0.934871	-0.169202
O10	O	-0.042481	-0.936174	-0.283068
C11	C	-0.000047	-0.791645	-0.165364
C12	C	-0.000041	-0.704361	-0.158016
C13	C	-0.000060	-0.931027	-0.025982
C14	C	-0.000059	-0.923679	0.061301
N15	N	-0.120817	-0.934783	-0.169128
C16	C	-0.526793	-0.884059	-0.118339
C17	C	-0.313134	-0.884023	-0.118317
O18	O	-0.285523	-0.840843	-0.075067
N19	N	-0.286401	-0.934813	-0.169141
C20	C	-0.313085	-0.985620	-0.219971
O21	O	-0.285444	-1.028825	-0.263194
C22	C	-0.526743	-0.985659	-0.219989
C23	C	-0.553474	-0.934860	-0.169167
C24	C	-0.553524	-0.833265	-0.067520
C25	C	-0.606935	-0.833271	-0.067530
C26	C	-0.633616	-0.884072	-0.118357
C27	C	-0.606885	-0.934867	-0.169176
C28	C	-0.553426	-1.036469	-0.270814
C29	C	-0.606844	-1.036476	-0.270812
C30	C	-0.633575	-0.985677	-0.219990
C31	C	-0.686977	-0.985674	-0.220012
N32	N	-0.713711	-0.934884	-0.169188
C33	C	-0.687030	-0.884083	-0.118360
C34	C	-0.200912	-0.985594	-0.219959
C35	C	-0.147498	-0.985584	-0.219956
C36	C	-0.147551	-0.883988	-0.118300
C37	C	-0.200966	-0.883995	-0.118308
C38	C	-0.227645	-0.934804	-0.169135
C39	C	-0.799198	-0.884100	-0.118384
C40	C	-0.852614	-0.884109	-0.118400
C41	C	-0.852557	-0.985707	-0.220052
C42	C	-0.799145	-0.985696	-0.220039
C43	C	-0.772467	-0.934890	-0.169199
O44	O	-0.714622	-1.028838	-0.263233
O45	O	-0.714680	-0.840897	-0.075132
C46	C	-0.473382	-0.884053	-0.118330
C47	C	-0.446651	-0.934847	-0.169148
C48	C	-0.473331	-0.985648	-0.219976
C49	C	-0.393237	-0.934836	-0.169145
C50	C	-0.366556	-0.884036	-0.118318
C51	C	-0.393289	-0.833245	-0.067493
C52	C	-0.446701	-0.833252	-0.067502
C53	C	-0.446598	-1.036438	-0.270800
C54	C	-0.393186	-1.036427	-0.270788
C55	C	-0.366506	-0.985626	-0.219960
N56	N	0.120705	-0.934910	-0.169227
C57	C	-0.000064	-1.078042	-0.172997
C58	C	-0.000066	-1.165325	-0.180345
C59	C	-0.000039	-0.658752	-0.225479
C60	C	-0.000046	-0.576740	-0.218570
C61	C	-0.000052	-0.540339	-0.144197
C62	C	-0.000055	-0.585954	-0.076728
C63	C	-0.000052	-0.667965	-0.083638
C64	C	-0.000066	-0.292951	-0.119786
C65	C	-0.000068	-0.210935	-0.112882
C66	C	-0.000060	-0.201726	-0.254725
C67	C	-0.000054	-0.283739	-0.261628
C68	C	-0.000060	-0.329347	-0.194159
C69	C	-0.000058	-0.456510	-0.137133
C70	C	-0.000058	-0.413174	-0.201224
C71	C	-0.000051	-0.938660	-0.312379
C72	C	-0.000048	-0.946008	-0.399663
C73	C	-0.000064	-0.991142	0.106911
C74	C	-0.000059	-0.984233	0.188923
C75	C	-0.000052	-0.909860	0.225324
C76	C	-0.000046	-0.842391	0.179708
C77	C	-0.000047	-0.849301	0.097698
C78	C	-0.000043	-0.885449	0.472712
C79	C	-0.000043	-0.878545	0.554728
C80	C	-0.000056	-1.020387	0.563937
C81	C	-0.000060	-1.027291	0.481924
C82	C	-0.000051	-0.959822	0.436316
C83	C	-0.000048	-0.902796	0.309153
C84	C	-0.000051	-0.966886	0.352489
H85	H	-0.874376	-0.842739	-0.077014
F86	F	-0.475143	-0.779184	-0.013410
F87	F	-0.000065	-1.092187	0.612482
H88	H	-0.628695	-0.791908	-0.026142
H89	H	-0.371427	-1.077792	-0.312181
H90	H	-0.371557	-0.791878	-0.026111
H91	H	-0.000046	-0.817978	0.584363
F92	F	-0.000065	-0.547211	0.002426
H93	H	-0.000036	-0.830511	0.435587
H94	H	-0.000044	-0.539608	-0.273507
F95	F	-0.000076	-1.070301	0.068178
H96	H	-0.000064	-1.039170	0.226054
F97	F	-0.770813	-0.830029	-0.064271
H98	H	-0.874290	-1.027066	-0.261436
H99	H	-0.000053	-0.705099	-0.028702
F100	F	-0.000055	-1.046037	0.313746
H101	H	-0.531806	-0.791896	-0.026126
F102	F	-0.000039	-0.823644	0.347901
H103	H	-0.000043	-0.794365	0.060564
F104	F	-0.229410	-0.829930	-0.064216
F105	F	-0.119146	-0.829922	-0.064205
F106	F	-0.000054	-1.106449	0.443190
F107	F	-0.474986	-1.090510	-0.324902
F108	F	-0.000033	-0.763237	0.218451
F109	F	-0.000045	-0.322473	-0.340786
F110	F	-0.000055	-0.153181	-0.326524
F111	F	-0.770695	-1.039767	-0.274123
H112	H	-0.000056	-0.442816	-0.261778
F113	F	-0.000073	-0.341480	-0.047979
F114	F	-0.635235	-1.090557	-0.324909
H115	H	-0.222630	-1.026971	-0.261351
F116	F	-0.524989	-1.090524	-0.324920
F117	F	-0.000030	-0.697485	-0.304638
F118	F	-0.119055	-1.039637	-0.274061
H119	H	-0.000077	-0.426863	-0.076578
F120	F	-0.000083	-0.172196	-0.033720
