data_functionalizedCrystal
_audit_creation_method	'MofGen! by Chris Wilmer'
_symmetry_space_group_name_H-M	'P1'
_symmetry_Int_Tables_number	1
_symmetry_cell_setting	triclinic
loop_
_symmetry_equiv_pos_as_xyz
  x,y,z
_cell_length_a	12.759401
_cell_length_b	16.120531
_cell_length_c	12.759393
_cell_angle_alpha	87.140065
_cell_angle_beta	89.980789
_cell_angle_gamma	87.067419
loop_
_atom_site_label
_atom_site_type_symbol
_atom_site_fract_x
_atom_site_fract_y
_atom_site_fract_z
Zn1	Zn	1.584929	0.331852	-0.615123
Zn2	Zn	2.084929	0.831852	-0.115123
Zn3	Zn	1.575858	0.471288	-0.448326
Zn4	Zn	2.075858	0.971288	0.051674
Zn5	Zn	1.409226	0.331895	-0.439465
Zn6	Zn	1.909226	0.831895	0.060535
Zn7	Zn	1.400260	0.471226	-0.623963
Zn8	Zn	1.900260	0.971226	-0.123963
O9	O	1.492568	0.401565	-0.531719
O10	O	1.992568	0.901565	-0.031719
O11	O	1.730746	0.350356	-0.593006
O12	O	2.230746	0.850356	-0.093006
O13	O	1.553710	0.452841	-0.300132
O14	O	2.053710	0.952841	0.199868
O15	O	1.440082	0.215224	-0.455359
O16	O	1.940082	0.715224	0.044641
O17	O	1.724082	0.452800	-0.470461
O18	O	2.224082	0.952800	0.029539
O19	O	1.569170	0.215192	-0.584415
O20	O	2.069170	0.715192	-0.084415
O21	O	1.431286	0.350430	-0.293622
O22	O	1.931286	0.850430	0.206378
O23	O	1.261016	0.350369	-0.463930
O24	O	1.761016	0.850369	0.036070
O25	O	1.424800	0.452694	-0.769809
O26	O	1.924800	0.952694	-0.269809
O27	O	1.254429	0.452735	-0.599480
O28	O	1.754429	0.952735	-0.099480
O29	O	1.560476	0.350296	-0.763314
O30	O	2.060476	0.850296	-0.263314
O31	O	1.545016	0.587945	-0.479032
O32	O	2.045016	1.087945	0.020968
O33	O	1.416005	0.587899	-0.608071
O34	O	1.916005	1.087899	-0.108071
C35	C	1.219602	0.401551	-0.531704
C36	C	1.719602	0.901551	-0.031704
C37	C	1.102824	0.401565	-0.531723
C38	C	1.602824	0.901565	-0.031723
C39	C	1.051427	0.348319	-0.595642
C40	C	1.551427	0.848319	-0.095642
C41	C	0.941702	0.348327	-0.595650
C42	C	1.441702	0.848327	-0.095650
C43	C	0.934782	0.454835	-0.467816
C44	C	1.434782	0.954835	0.032184
C45	C	1.044505	0.454821	-0.467804
C46	C	1.544505	0.954821	0.032196
C47	C	1.478581	0.618172	-0.545495
C48	C	1.978581	1.118172	-0.045495
C49	C	1.472694	0.710838	-0.551424
C50	C	1.972694	1.210838	-0.051424
C51	C	1.461951	0.880499	-0.562269
C52	C	1.961951	1.380499	-0.062269
C53	C	1.523225	0.921791	-0.501110
C54	C	2.023225	1.421791	-0.001110
C55	C	1.517247	1.016196	-0.507145
C56	C	2.017247	1.516196	-0.007145
C57	C	1.467927	0.786085	-0.556236
C58	C	1.967927	1.286085	-0.056236
C59	C	1.766600	0.401580	-0.531736
C60	C	2.266600	0.901580	-0.031736
C61	C	1.883377	0.401586	-0.531743
C62	C	2.383377	0.901586	-0.031743
C63	C	1.492650	0.401483	-0.805748
C64	C	1.992650	0.901483	-0.305748
C65	C	1.492685	0.401448	-0.922522
C66	C	1.992685	0.901448	-0.422522
C67	C	1.506601	1.184112	-0.517893
C68	C	2.006601	1.684112	-0.017893
C69	C	1.512485	1.091447	-0.511952
C70	C	2.012485	1.591447	-0.011952
C71	C	1.563360	0.348089	-1.083733
C72	C	2.063360	0.848089	-0.583733
C73	C	1.563338	0.348122	-0.974011
C74	C	2.063338	0.848122	-0.474011
C75	C	1.422056	0.454751	-0.980762
C76	C	1.922056	0.954751	-0.480762
C77	C	1.422084	0.454723	-1.090482
C78	C	1.922084	0.954723	-0.590482
C79	C	1.492551	0.401587	-0.258753
C80	C	1.992551	0.901587	0.241247
C81	C	1.492735	0.401387	-0.141964
C82	C	1.992735	0.901387	0.358036
H83	H	0.887284	0.498195	-0.415777
H84	H	1.387284	0.998195	0.084223
C85	C	1.101045	0.513399	-0.397484
C86	C	1.601045	1.013399	0.102516
N87	N	1.143631	0.557516	-0.344519
N88	N	1.643631	1.057516	0.155481
C89	C	1.344335	0.513409	-0.924120
C90	C	1.844335	1.013409	-0.424120
N91	N	1.285790	0.557589	-0.881458
N92	N	1.785790	1.057589	-0.381458
H93	H	1.405008	0.916046	-0.619155
H94	H	1.905008	1.416046	-0.119155
C95	C	1.600151	0.873767	-0.424243
C96	C	2.100151	1.373767	0.075757
N97	N	1.658085	0.837592	-0.366345
N98	N	2.158085	1.337592	0.133655
C99	C	1.641086	0.289426	-1.140360
C100	C	2.141086	0.789426	-0.640360
N101	N	1.699634	0.245241	-1.183009
N102	N	2.199634	0.745241	-0.683009
C103	C	1.641026	0.289486	-0.909960
C104	C	2.141026	0.789486	-0.409960
N105	N	1.699543	0.245318	-0.861718
N106	N	2.199543	0.745318	-0.361718
C107	C	1.344385	0.513356	-1.154541
C108	C	1.844385	1.013356	-0.654541
N109	N	1.285866	0.557517	-1.202790
N110	N	1.785866	1.057517	-0.702790
H111	H	0.899860	0.304968	-0.647698
H112	H	1.399860	0.804968	-0.147698
C113	C	1.115575	0.289728	-0.665945
C114	C	1.615575	0.789728	-0.165945
N115	N	1.163889	0.245592	-0.718896
N116	N	1.663889	0.745592	-0.218896
