data_functionalizedCrystal
_audit_creation_method	'MofGen! by Chris Wilmer'
_symmetry_space_group_name_H-M	'P1'
_symmetry_Int_Tables_number	1
_symmetry_cell_setting	triclinic
loop_
_symmetry_equiv_pos_as_xyz
  x,y,z
_cell_length_a	19.288864
_cell_length_b	15.944551
_cell_length_c	17.766277
_cell_angle_alpha	89.992686
_cell_angle_beta	89.976791
_cell_angle_gamma	83.317492
loop_
_atom_site_label
_atom_site_type_symbol
_atom_site_fract_x
_atom_site_fract_y
_atom_site_fract_z
O1	O	0.921629	0.104784	-0.062837
O2	O	0.719406	0.118919	-0.062786
O3	O	0.826040	-0.010445	-0.062806
O4	O	0.814995	0.234147	-0.062817
O5	O	0.826021	-0.010451	0.062382
O6	O	0.719387	0.118912	0.062403
O7	O	0.921610	0.104777	0.062351
Cu8	Cu	0.820497	0.111844	0.073808
Cu9	Cu	0.820519	0.111852	-0.074242
O10	O	0.814976	0.234141	0.062372
C11	C	0.693519	0.118461	-0.000185
C12	C	0.616411	0.117095	-0.000165
C13	C	0.825572	-0.041740	-0.000212
C14	C	0.824197	-0.134981	-0.000211
C15	C	0.571915	0.193000	-0.000181
C16	C	0.499465	0.191717	-0.000189
C17	C	0.471514	0.114526	-0.000197
C18	C	0.516020	0.038611	-0.000178
C19	C	0.588469	0.039896	-0.000162
C20	C	0.363099	0.053847	-0.044079
C21	C	0.290651	0.052565	-0.044099
C22	C	0.248058	0.110560	-0.000242
C23	C	0.277920	0.169850	0.043625
C24	C	0.350369	0.171135	0.043641
C25	C	0.392956	0.113124	-0.000214
C26	C	0.125002	0.185079	-0.000265
C27	C	0.052550	0.183793	-0.000269
C28	C	0.069107	0.030684	-0.000265
C29	C	0.141557	0.031972	-0.000254
C30	C	0.169500	0.109172	-0.000258
C31	C	0.754815	-0.349571	-0.000204
C32	C	0.787024	-0.410715	0.061514
C33	C	0.821710	-0.305697	-0.000216
C34	C	0.787059	-0.410692	-0.061912
C35	C	0.819303	-0.470601	-0.000224
C36	C	0.853938	-0.365614	0.061552
C37	C	0.853963	-0.365585	-0.061929
C38	C	0.886222	-0.426712	-0.000197
C39	C	0.823095	-0.210700	-0.000211
C40	C	0.817924	-0.565597	-0.000224
C41	C	0.947497	0.105235	-0.000251
C42	C	1.024605	0.106600	-0.000276
C43	C	0.815444	0.265436	-0.000225
C44	C	0.816819	0.358677	-0.000230
N45	N	0.820486	0.111838	0.177938
N46	N	0.820535	0.111851	-0.178373
C47	C	0.867719	0.054584	0.217316
C48	C	0.867723	0.054580	0.296118
C49	C	0.820501	0.111845	0.335539
C50	C	0.773259	0.169103	0.296151
C51	C	0.773252	0.169100	0.217351
C52	C	0.811404	0.188378	0.460375
C53	C	0.811416	0.188382	0.539173
C54	C	0.820520	0.111855	0.578585
C55	C	0.829626	0.035319	0.539188
C56	C	0.829618	0.035316	0.460387
C57	C	0.820503	0.111854	0.420984
C58	C	0.867759	0.054592	0.703409
C59	C	0.867759	0.054587	0.782212
C60	C	0.773298	0.169117	0.782244
C61	C	0.773295	0.169115	0.703442
C62	C	0.820530	0.111853	0.664029
H63	H	0.594661	0.255862	-0.000185
H64	H	0.243242	0.217075	0.079338
N65	N	0.725065	0.227610	0.663202
N66	N	0.725068	0.227604	0.592846
H67	H	0.691004	0.268918	0.564425
N68	N	0.187023	-0.045556	-0.000240
N69	N	0.229268	-0.061921	0.052540
H70	H	0.261380	-0.116678	0.052553
H71	H	0.734846	0.215740	0.814340
N72	N	0.751521	-0.435831	0.126978
N73	N	0.745242	-0.512056	0.137722
H74	H	0.720164	-0.529794	0.183954
H75	H	0.837039	-0.026997	0.571275
N76	N	0.725014	0.227586	0.336415
N77	N	0.681907	0.201065	0.380414
H78	H	0.647829	0.242367	0.408851
H79	H	0.804006	0.250702	0.571244
N80	N	0.889434	-0.340470	-0.127411
N81	N	0.866644	-0.354655	-0.191449
H82	H	0.891691	-0.336917	-0.237702
N83	N	0.802124	0.266552	0.420116
N84	N	0.848524	0.285253	0.376118
H85	H	0.841973	0.340460	0.347684
H86	H	0.758764	-0.430657	-0.114093
N87	N	0.724996	0.227590	0.177135
N88	N	0.682831	0.278712	0.212336
H89	H	0.648749	0.320023	0.183933
N90	N	0.915982	-0.003883	0.336364
N91	N	0.915987	-0.003860	0.406721
H92	H	0.950074	-0.045145	0.435145
H93	H	0.463229	0.253530	-0.000199
N94	N	0.380862	0.231699	0.088451
N95	N	0.342832	0.283481	0.127605
H96	H	0.364367	0.326254	0.159254
N97	N	0.153539	0.263939	-0.000264
N98	N	0.113797	0.331708	-0.000269
H99	H	0.133949	0.387405	-0.000267
H100	H	0.906219	0.007963	0.671318
N101	N	0.889395	-0.340670	0.127075
N102	N	0.896149	-0.264547	0.137666
H103	H	0.921188	-0.246928	0.183942
H104	H	0.016321	0.245606	-0.000277
H105	H	0.699288	-0.316049	-0.000128
H106	H	0.906179	0.007956	0.185228
H107	H	0.837031	-0.027001	0.428314
N108	N	0.040554	-0.048159	-0.000260
N109	N	-0.024133	-0.049298	-0.000267
H110	H	-0.044302	-0.104983	-0.000258
N111	N	0.916008	-0.003913	0.822427
N112	N	0.958173	-0.055033	0.787223
H113	H	0.992250	-0.096351	0.815625
H114	H	0.266342	0.004291	-0.079822
H115	H	0.397773	0.006619	-0.079797
H116	H	0.493258	-0.024239	-0.000195
H117	H	0.941797	-0.460084	-0.000176
N118	N	0.633915	-0.037651	-0.000143
N119	N	0.608955	-0.106569	-0.000142
H120	H	0.641052	-0.161338	-0.000129
