data_functionalizedCrystal
_audit_creation_method	'MofGen! by Chris Wilmer'
_symmetry_space_group_name_H-M	'P1'
_symmetry_Int_Tables_number	1
_symmetry_cell_setting	triclinic
loop_
_symmetry_equiv_pos_as_xyz
  x,y,z
_cell_length_a	14.971486
_cell_length_b	14.971493
_cell_length_c	14.048226
_cell_angle_alpha	90.010449
_cell_angle_beta	89.993876
_cell_angle_gamma	83.615656
loop_
_atom_site_label
_atom_site_type_symbol
_atom_site_fract_x
_atom_site_fract_y
_atom_site_fract_z
O1	O	-1.186939	-0.116572	-0.079049
O2	O	-0.853606	0.216762	0.254284
O3	O	-0.520273	0.550095	0.587618
O4	O	-0.926540	-0.130531	-0.079075
O5	O	-0.593206	0.202803	0.254259
O6	O	-0.259873	0.536136	0.587592
O7	O	-1.063715	0.006648	-0.079057
O8	O	-0.730382	0.339982	0.254276
O9	O	-0.397049	0.673315	0.587609
O10	O	-1.049764	-0.253751	-0.079067
O11	O	-0.716430	0.079583	0.254267
O12	O	-0.383097	0.412916	0.587600
O13	O	-1.063720	0.006672	0.079264
O14	O	-0.730387	0.340005	0.412597
O15	O	-0.397054	0.673338	0.745931
O16	O	-0.926545	-0.130507	0.079246
O17	O	-0.593211	0.202826	0.412580
O18	O	-0.259878	0.536159	0.745913
O19	O	-1.186944	-0.116548	0.079272
O20	O	-0.853611	0.216785	0.412606
O21	O	-0.520278	0.550118	0.745939
Zn22	Zn	-1.056745	-0.123524	0.104396
Zn23	Zn	-0.723412	0.209809	0.437730
Zn24	Zn	-0.390079	0.543143	0.771063
Zn25	Zn	-1.056739	-0.123555	-0.104199
Zn26	Zn	-0.723405	0.209778	0.229134
Zn27	Zn	-0.390072	0.543112	0.562468
O28	O	-1.049769	-0.253727	0.079255
O29	O	-0.716435	0.079606	0.412588
O30	O	-0.383102	0.412939	0.745921
C31	C	-0.893217	-0.129895	0.000083
C32	C	-0.559884	0.203439	0.333416
C33	C	-0.226551	0.536772	0.666749
C34	C	-0.793920	-0.128024	0.000073
C35	C	-0.460587	0.205309	0.333406
C36	C	-0.127254	0.538643	0.666739
C37	C	-1.063093	0.039985	0.000102
C38	C	-0.729759	0.373318	0.333436
C39	C	-0.396426	0.706651	0.666769
C40	C	-1.061219	0.139281	0.000099
C41	C	-0.727886	0.472615	0.333433
C42	C	-0.394553	0.805948	0.666766
C43	C	-1.220267	-0.117184	0.000113
C44	C	-0.886933	0.216149	0.333446
C45	C	-0.553600	0.549482	0.666779
C46	C	-1.319564	-0.119055	0.000116
C47	C	-0.986230	0.214278	0.333450
C48	C	-0.652897	0.547612	0.666783
C49	C	-0.736697	-0.208613	0.000071
C50	C	-0.403364	0.124720	0.333405
C51	C	-0.070030	0.458054	0.666738
C52	C	-0.643398	-0.206850	0.000085
C53	C	-0.310064	0.126484	0.333419
C54	C	0.023269	0.459817	0.666752
C55	C	-0.607323	-0.124497	0.000094
C56	C	-0.273990	0.208837	0.333428
C57	C	0.059344	0.542170	0.666761
C58	C	-0.664554	-0.043902	0.000099
C59	C	-0.331220	0.289432	0.333432
C60	C	0.002113	0.622765	0.666766
C61	C	-0.757851	-0.045666	0.000091
C62	C	-0.424518	0.287668	0.333425
C63	C	-0.091185	0.621001	0.666758
C64	C	-0.470091	-0.040231	0.000112
C65	C	-0.136758	0.293103	0.333445
C66	C	0.196576	0.626436	0.666779
C67	C	-0.376787	-0.038466	0.000118
C68	C	-0.043454	0.294867	0.333451
C69	C	0.289880	0.628201	0.666784
C70	C	-0.355637	-0.201415	0.000106
C71	C	-0.022304	0.131919	0.333439
C72	C	0.311029	0.465252	0.666773
C73	C	-0.448935	-0.203179	0.000099
C74	C	-0.115602	0.130155	0.333432
C75	C	0.217732	0.463488	0.666765
C76	C	-0.506159	-0.122583	0.000101
C77	C	-0.172826	0.210750	0.333435
C78	C	0.160508	0.544084	0.666768
C79	C	-1.060339	0.185913	-0.086202
C80	C	-0.727005	0.519247	0.247131
C81	C	-0.393672	0.852580	0.580464
C82	C	-1.058573	0.279213	-0.086202
C83	C	-0.725239	0.612546	0.247131
C84	C	-0.391906	0.945879	0.580464
C85	C	-1.057694	0.325879	0.000100
C86	C	-0.724360	0.659212	0.333434
C87	C	-0.391027	0.992545	0.666767
C88	C	-1.058572	0.279240	0.086408
C89	C	-0.725239	0.612573	0.419742
C90	C	-0.391905	0.945906	0.753075
C91	C	-1.060332	0.185942	0.086407
C92	C	-0.726998	0.519275	0.419741
C93	C	-0.393665	0.852608	0.753074
C94	C	-1.054907	0.473703	0.086405
C95	C	-0.721573	0.807036	0.419738
C96	C	-0.388240	1.140370	0.753071
C97	C	-1.053149	0.567008	0.086406
C98	C	-0.719815	0.900341	0.419739
C99	C	-0.386482	1.233675	0.753073
C100	C	-1.053148	0.566974	-0.086205
C101	C	-0.719814	0.900307	0.247128
C102	C	-0.386481	1.233641	0.580462
C103	C	-1.054907	0.473676	-0.086206
C104	C	-0.721574	0.807009	0.247127
C105	C	-0.388241	1.140342	0.580461
C106	C	-1.055787	0.427044	0.000102
C107	C	-0.722454	0.760377	0.333436
C108	C	-0.389120	1.093710	0.666769
C109	C	-1.050392	0.712936	0.000097
C110	C	-0.717059	1.046270	0.333430
C111	C	-0.383725	1.379603	0.666763
C112	C	-1.052268	0.613640	0.000104
C113	C	-0.718935	0.946973	0.333438
C114	C	-0.385601	1.280307	0.666771
N115	N	-1.056735	-0.123569	-0.246560
N116	N	-0.723402	0.209764	0.086774
N117	N	-0.390068	0.543097	0.420107
C118	C	-1.002547	-0.069111	-0.296374
C119	C	-0.669214	0.264223	0.036960
C120	C	-0.335881	0.597556	0.370293
C121	C	-1.002555	-0.069093	-0.396031
C122	C	-0.669222	0.264240	-0.062698
C123	C	-0.335888	0.597574	0.270635
C124	C	-1.056746	-0.123539	-0.445873
C125	C	-0.723413	0.209794	-0.112540
C126	C	-0.390079	0.543127	0.220794
C127	C	-1.110939	-0.178000	-0.396052
C128	C	-0.777606	0.155333	-0.062719
C129	C	-0.444273	0.488667	0.270615
C130	C	-1.110936	-0.178012	-0.296396
C131	C	-0.777603	0.155321	0.036937
C132	C	-0.444269	0.488654	0.370270
C133	C	-1.110941	-0.177972	-0.603766
C134	C	-0.777608	0.155361	-0.270433
C135	C	-0.444275	0.488695	0.062900
C136	C	-1.110944	-0.177961	-0.703429
C137	C	-0.777610	0.155372	-0.370096
C138	C	-0.444277	0.488706	-0.036762
C139	C	-1.002560	-0.069053	-0.703401
C140	C	-0.669227	0.264281	-0.370068
C141	C	-0.335894	0.597614	-0.036735
C142	C	-1.002557	-0.069065	-0.603745
C143	C	-0.669223	0.264268	-0.270412
C144	C	-0.335890	0.597602	0.062921
C145	C	-1.056749	-0.123527	-0.553931
C146	C	-0.723416	0.209806	-0.220598
C147	C	-0.390083	0.543139	0.112735
N148	N	-1.056756	-0.123503	0.246757
N149	N	-0.723423	0.209831	0.580090
N150	N	-0.390090	0.543164	0.913424
H151	H	-0.766061	-0.275674	0.000063
H152	H	-0.432728	0.057659	0.333396
H153	H	-0.099394	0.390993	0.666730
F154	F	-0.944865	-0.011165	-0.243337
F155	F	-0.611531	0.322168	0.089997
F156	F	-0.278198	0.655502	0.423330
F157	F	-0.944883	-0.011090	-0.756418
F158	F	-0.611550	0.322243	-0.423084
F159	F	-0.278217	0.655576	-0.089751
H160	H	-0.596810	-0.272474	0.000083
H161	H	-0.263476	0.060860	0.333416
H162	H	0.069857	0.394193	0.666750
H163	H	-1.155067	-0.222327	-0.436641
H164	H	-0.821734	0.111007	-0.103308
H165	H	-0.488400	0.444340	0.230025
F166	F	-0.530991	0.045549	0.000118
F167	F	-0.197658	0.378882	0.333451
F168	F	0.135675	0.712216	0.666785
H169	H	-0.478303	-0.270238	0.000082
H170	H	-0.144970	0.063096	0.333416
H171	H	0.188363	0.396429	0.666749
H172	H	-0.309041	-0.267039	0.000108
H173	H	0.024293	0.066295	0.333442
H174	H	0.357626	0.399628	0.666775
H175	H	-1.057859	0.317177	-0.156477
H176	H	-0.724526	0.650510	0.176856
H177	H	-0.391193	0.983843	0.510189
H178	H	-1.155068	-0.222299	-0.744008
H179	H	-0.821734	0.111034	-0.410674
H180	H	-0.488401	0.444368	-0.077341
H181	H	-1.052430	0.604946	-0.156481
H182	H	-0.719096	0.938280	0.176853
H183	H	-0.385763	1.271613	0.510186
H184	H	-1.057851	0.317242	0.156677
H185	H	-0.724518	0.650575	0.490011
H186	H	-0.391184	0.983909	0.823344
H187	H	-1.055603	0.435735	0.156686
H188	H	-0.722270	0.769069	0.490019
H189	H	-0.388937	1.102402	0.823353
H190	H	-1.061036	0.147973	0.156683
H191	H	-0.727703	0.481307	0.490016
H192	H	-0.394369	0.814640	0.823350
H193	H	-1.155073	-0.222319	-0.563211
H194	H	-0.821739	0.111015	-0.229878
H195	H	-0.488406	0.444348	0.103456
F196	F	-1.168613	-0.235971	-0.243381
F197	F	-0.835280	0.097362	0.089952
F198	F	-0.501946	0.430696	0.423286
F199	F	-1.052215	0.616672	0.178259
F200	F	-0.718881	0.950005	0.511592
F201	F	-0.385548	1.283339	0.844925
H202	H	-0.347418	0.028593	0.000126
H203	H	-0.014085	0.361926	0.333460
H204	H	0.319248	0.695259	0.666793
F205	F	-0.818753	0.040108	0.000097
F206	F	-0.485419	0.373441	0.333430
F207	F	-0.152086	0.706775	0.666763
H208	H	-1.055630	0.435684	-0.156481
H209	H	-0.722296	0.769017	0.176852
H210	H	-0.388963	1.102350	0.510185
H211	H	-0.958433	-0.024745	-0.436585
H212	H	-0.625099	0.308588	-0.103252
H213	H	-0.291766	0.641922	0.230081
H214	H	-0.635174	0.023152	0.000120
H215	H	-0.301841	0.356485	0.333453
H216	H	0.031492	0.689818	0.666787
H217	H	-0.958425	-0.024735	-0.563167
H218	H	-0.625092	0.308599	-0.229833
H219	H	-0.291759	0.641932	0.103500
H220	H	-1.061059	0.147925	-0.156480
H221	H	-0.727726	0.481259	0.176853
H222	H	-0.394392	0.814592	0.510187
