data_functionalizedCrystal
_audit_creation_method	'MofGen! by Chris Wilmer'
_symmetry_space_group_name_H-M	'P1'
_symmetry_Int_Tables_number	1
_symmetry_cell_setting	triclinic
loop_
_symmetry_equiv_pos_as_xyz
  x,y,z
_cell_length_a	15.995350
_cell_length_b	17.038272
_cell_length_c	14.472310
_cell_angle_alpha	89.999298
_cell_angle_beta	89.990621
_cell_angle_gamma	87.301966
loop_
_atom_site_label
_atom_site_type_symbol
_atom_site_fract_x
_atom_site_fract_y
_atom_site_fract_z
O1	O	1.118175	0.100774	-0.076763
O2	O	1.618175	0.600774	0.423237
O3	O	0.875286	0.113219	-0.076782
O4	O	1.375286	0.613219	0.423218
O5	O	0.995287	-0.006819	-0.076766
O6	O	1.495287	0.493181	0.423234
O7	O	0.998174	0.220812	-0.076780
O8	O	1.498174	0.720812	0.423220
O9	O	0.995254	-0.006812	0.076916
O10	O	1.495254	0.493188	0.576916
O11	O	0.875253	0.113226	0.076900
O12	O	1.375253	0.613226	0.576900
O13	O	1.118142	0.100781	0.076919
O14	O	1.618142	0.600781	0.576919
Cu15	Cu	0.996695	0.107004	0.090942
Cu16	Cu	1.496695	0.607004	0.590942
Cu17	Cu	0.996733	0.106996	-0.090805
Cu18	Cu	1.496733	0.606996	0.409195
O19	O	0.998141	0.220819	0.076902
O20	O	1.498141	0.720819	0.576902
C21	C	0.844038	0.112708	0.000056
C22	C	1.344038	0.612708	0.500056
C23	C	0.750978	0.111165	0.000049
C24	C	1.250978	0.611165	0.500049
C25	C	0.412836	0.105626	0.000069
C26	C	0.912836	0.605626	0.500069
C27	C	0.454180	0.020137	0.000417
C28	C	0.954180	0.520137	0.500417
C29	C	0.550981	0.021680	0.000064
C30	C	1.050981	0.521680	0.500064
C31	C	0.580592	0.108374	0.000060
C32	C	1.080592	0.608374	0.500060
C33	C	0.542527	0.150536	-0.087699
C34	C	1.042527	0.650536	0.412301
C35	C	0.445739	0.148388	-0.087766
C36	C	0.945739	0.648388	0.412234
C37	C	0.445488	0.150162	0.086999
C38	C	0.945488	0.650162	0.586999
C39	C	0.542432	0.150142	0.088152
C40	C	1.042432	0.650142	0.588152
C41	C	0.675401	0.109931	0.000051
C42	C	1.175401	0.609931	0.500051
C43	C	0.318027	0.104071	0.000071
C44	C	0.818027	0.604071	0.500071
C45	C	0.992645	-0.035945	0.000075
C46	C	1.492645	0.464055	0.500075
C47	C	0.984810	-0.122740	0.000074
C48	C	1.484810	0.377260	0.500074
C49	C	1.056739	-0.172836	0.000081
C50	C	1.556739	0.327164	0.500081
C51	C	1.049373	-0.254389	0.000072
C52	C	1.549373	0.245611	0.500072
C53	C	0.970077	-0.285843	0.000062
C54	C	1.470077	0.214157	0.500062
C55	C	0.898143	-0.235740	0.000053
C56	C	1.398143	0.264260	0.500053
C57	C	0.905510	-0.154189	0.000056
C58	C	1.405510	0.345811	0.500056
C59	C	0.944051	-0.531607	0.000047
C60	C	1.444051	-0.031607	0.500047
C61	C	0.936689	-0.613164	0.000048
C62	C	1.436689	-0.113164	0.500048
C63	C	1.087920	-0.631807	0.000065
C64	C	1.587920	-0.131807	0.500065
C65	C	1.095280	-0.550254	0.000073
C66	C	1.595280	-0.050254	0.500073
C67	C	1.023346	-0.500158	0.000059
C68	C	1.523346	-0.000158	0.500059
C69	C	0.962546	-0.369202	0.000056
C70	C	1.462546	0.130798	0.500056
C71	C	1.030878	-0.416801	0.000059
C72	C	1.530878	0.083199	0.500059
C73	C	1.149390	0.101292	0.000078
C74	C	1.649390	0.601292	0.500078
C75	C	1.242450	0.102834	0.000079
C76	C	1.742450	0.602834	0.500079
C77	C	1.000784	0.249944	0.000059
C78	C	1.500784	0.749944	0.500059
C79	C	1.008618	0.336739	0.000054
C80	C	1.508618	0.836739	0.500054
N81	N	0.996674	0.107009	0.218773
N82	N	1.496674	0.607009	0.718773
N83	N	0.996761	0.106984	-0.218636
N84	N	1.496761	0.606984	0.281364
C85	C	0.996732	0.106993	0.592864
C86	C	1.496732	0.606993	1.092864
C87	C	0.932276	0.171007	0.553689
C88	C	1.432276	0.671007	1.053689
C89	C	0.932452	0.171241	0.446601
C90	C	1.432452	0.671241	0.946601
C91	C	0.996702	0.107001	0.407273
C92	C	1.496702	0.607001	0.907273
C93	C	1.085336	0.124819	0.446115
C94	C	1.585336	0.624819	0.946115
C95	C	1.084981	0.125274	0.553237
C96	C	1.584981	0.625274	1.053237
C97	C	0.973320	0.024970	0.553397
C98	C	1.473320	0.524970	1.053397
C99	C	0.971356	0.025517	0.446269
C100	C	1.471356	0.525517	0.946269
C101	C	0.996691	0.107004	0.302385
C102	C	1.496691	0.607004	0.802385
C103	C	0.996749	0.106991	0.697752
C104	C	1.496749	0.606991	1.197752
H105	H	0.433211	-0.014032	0.063353
H106	H	0.933211	0.485968	0.563353
Br107	Br	0.846425	-0.463630	0.000022
Br108	Br	1.346425	0.036370	0.500022
H109	H	0.897983	-0.394821	0.000050
H110	H	1.397983	0.105179	0.500050
Br111	Br	0.584161	0.098756	0.196364
Br112	Br	1.084161	0.598756	0.696364
H113	H	0.833579	-0.261356	0.000039
H114	H	1.333579	0.238644	0.500039
Br115	Br	0.807889	-0.086199	0.000039
Br116	Br	1.307889	0.413801	0.500039
H117	H	0.562300	0.213362	0.093450
H118	H	1.062300	0.713362	0.593450
H119	H	1.104724	0.185092	0.578210
H120	H	1.604724	0.685092	1.078210
H121	H	1.134751	0.080487	0.579149
H122	H	1.634751	0.580487	1.079149
H123	H	0.576475	-0.011692	-0.062951
H124	H	1.076475	0.488308	0.437049
Br125	Br	1.167596	0.049174	0.403662
Br126	Br	1.667596	0.549174	0.903662
Br127	Br	0.417501	-0.036570	-0.103886
Br128	Br	0.917501	0.463430	0.396114
Br129	Br	0.958339	0.272701	0.403862
Br130	Br	1.458339	0.772701	0.903862
H131	H	0.422948	0.122217	0.153518
H132	H	0.922948	0.622217	0.653518
Br133	Br	0.867393	-0.003572	0.598471
Br134	Br	1.367393	0.496428	1.098471
Br135	Br	1.051550	-0.054430	0.595617
Br136	Br	1.551550	0.445570	1.095617
Br137	Br	0.411591	0.097133	-0.197101
Br138	Br	0.911591	0.597133	0.302899
Br139	Br	0.957911	0.271891	0.598513
Br140	Br	1.457911	0.771891	1.098513
H141	H	1.095440	-0.391187	0.000046
H142	H	1.595440	0.108813	0.500046
Br143	Br	0.862634	0.002975	0.403961
Br144	Br	1.362634	0.502975	0.903961
H145	H	0.866756	0.160625	0.420341
H146	H	1.366756	0.660625	0.920341
H147	H	0.418217	0.213193	0.087589
H148	H	0.918217	0.713193	0.587589
H149	H	1.121310	-0.147233	0.000094
H150	H	1.621310	0.352767	0.500094
H151	H	0.417962	0.211153	-0.091752
H152	H	0.917962	0.711153	0.408248
H153	H	0.866382	0.160566	0.579472
H154	H	1.366382	0.660566	1.079472
Br155	Br	0.573656	0.256685	-0.093170
Br156	Br	1.073656	0.756685	0.406830
Br157	Br	1.118785	0.223383	0.401383
Br158	Br	1.618785	0.723383	0.901383
Br159	Br	0.586362	0.101721	-0.196556
Br160	Br	1.086362	0.601721	0.303444
H161	H	1.107945	-0.295174	0.000079
H162	H	1.607945	0.204826	0.500079
H163	H	1.159850	-0.524651	0.000081
H164	H	1.659850	-0.024651	0.500081
Br165	Br	1.043784	-0.057604	0.401669
Br166	Br	1.543784	0.442396	0.901669
H167	H	1.146484	-0.672604	0.000074
H168	H	1.646484	-0.172604	0.500074
Br169	Br	0.829067	-0.655851	0.000044
Br170	Br	1.329067	-0.155851	0.500044
H171	H	0.577035	-0.011462	0.062974
H172	H	1.077035	0.488538	0.562974
