data_functionalizedCrystal
_audit_creation_method	'MofGen! by Chris Wilmer'
_symmetry_space_group_name_H-M	'P1'
_symmetry_Int_Tables_number	1
_symmetry_cell_setting	triclinic
loop_
_symmetry_equiv_pos_as_xyz
  x,y,z
_cell_length_a	19.077105
_cell_length_b	21.295418
_cell_length_c	19.076919
_cell_angle_alpha	87.731568
_cell_angle_beta	89.923776
_cell_angle_gamma	87.723635
loop_
_atom_site_label
_atom_site_type_symbol
_atom_site_fract_x
_atom_site_fract_y
_atom_site_fract_z
Zn1	Zn	1.058254	-0.304535	0.440398
Zn2	Zn	1.308254	-0.054535	0.690398
Zn3	Zn	1.558254	0.195465	0.940398
Zn4	Zn	1.808254	0.445465	1.190398
Zn5	Zn	1.062888	-0.405749	0.322885
Zn6	Zn	1.312888	-0.155749	0.572885
Zn7	Zn	1.562888	0.094251	0.822885
Zn8	Zn	1.812888	0.344251	1.072885
Zn9	Zn	0.945472	-0.296103	0.318192
Zn10	Zn	1.195472	-0.046103	0.568192
Zn11	Zn	1.445472	0.203897	0.818192
Zn12	Zn	1.695472	0.453897	1.068192
Zn13	Zn	0.940710	-0.405369	0.435637
Zn14	Zn	1.190710	-0.155369	0.685637
Zn15	Zn	1.440710	0.094631	0.935637
Zn16	Zn	1.690710	0.344631	1.185637
O17	O	1.001831	-0.352939	0.379278
O18	O	1.251831	-0.102939	0.629278
O19	O	1.501831	0.147061	0.879278
O20	O	1.751831	0.397061	1.129278
O21	O	1.157200	-0.321650	0.428766
O22	O	1.407200	-0.071650	0.678766
O23	O	1.657200	0.178350	0.928766
O24	O	1.907200	0.428350	1.178766
O25	O	1.051245	-0.387834	0.223931
O26	O	1.301245	-0.137834	0.473931
O27	O	1.551245	0.112166	0.723931
O28	O	1.801245	0.362166	0.973931
O29	O	0.960486	-0.209135	0.334431
O30	O	1.210486	0.040865	0.584431
O31	O	1.460486	0.290865	0.834431
O32	O	1.710486	0.540865	1.084431
O33	O	1.160605	-0.396011	0.342429
O34	O	1.410605	-0.146011	0.592429
O35	O	1.660605	0.103989	0.842429
O36	O	1.910605	0.353989	1.092429
O37	O	1.043346	-0.215330	0.424216
O38	O	1.293346	0.034670	0.674216
O39	O	1.543346	0.284670	0.924216
O40	O	1.793346	0.534670	1.174216
O41	O	0.964980	-0.307277	0.220483
O42	O	1.214980	-0.057277	0.470483
O43	O	1.464980	0.192723	0.720483
O44	O	1.714980	0.442723	0.970483
O45	O	0.846509	-0.306909	0.329815
O46	O	1.096509	-0.056909	0.579815
O47	O	1.346509	0.193091	0.829815
O48	O	1.596509	0.443091	1.079815
O49	O	0.952370	-0.395364	0.534600
O50	O	1.202370	-0.145364	0.784600
O51	O	1.452370	0.104636	1.034600
O52	O	1.702370	0.354636	1.284600
O53	O	0.843010	-0.387187	0.416101
O54	O	1.093010	-0.137187	0.666101
O55	O	1.343010	0.112813	0.916101
O56	O	1.593010	0.362813	1.166101
O57	O	1.038729	-0.321282	0.538097
O58	O	1.288729	-0.071282	0.788097
O59	O	1.538729	0.178718	1.038097
O60	O	1.788729	0.428718	1.288097
O61	O	1.046627	-0.493785	0.337813
O62	O	1.296627	-0.243785	0.587813
O63	O	1.546627	0.006215	0.837813
O64	O	1.796627	0.256215	1.087813
O65	O	0.956863	-0.493506	0.420652
O66	O	1.206863	-0.243506	0.670652
O67	O	1.456863	0.006494	0.920652
O68	O	1.706863	0.256494	1.170652
C69	C	0.819263	-0.346092	0.371933
C70	C	1.069263	-0.096092	0.621933
C71	C	1.319263	0.153908	0.871933
C72	C	1.569263	0.403908	1.121933
C73	C	0.741159	-0.343179	0.368807
C74	C	0.991159	-0.093179	0.618807
C75	C	1.241159	0.156821	0.868807
C76	C	1.491159	0.406821	1.118807
C77	C	0.702665	-0.383665	0.412193
C78	C	0.952665	-0.133665	0.662193
C79	C	1.202665	0.116335	0.912193
C80	C	1.452665	0.366335	1.162193
C81	C	0.629278	-0.380919	0.409259
C82	C	0.879278	-0.130919	0.659259
C83	C	1.129278	0.119081	0.909259
C84	C	1.379278	0.369081	1.159259
C85	C	0.594386	-0.337690	0.362936
C86	C	0.844386	-0.087690	0.612936
C87	C	1.094386	0.162310	0.862936
C88	C	1.344386	0.412310	1.112936
C89	C	0.632885	-0.297200	0.319549
C90	C	0.882885	-0.047200	0.569549
C91	C	1.132885	0.202800	0.819549
C92	C	1.382885	0.452800	1.069549
C93	C	0.706271	-0.299943	0.322486
C94	C	0.956271	-0.049943	0.572486
C95	C	1.206271	0.200057	0.822486
C96	C	1.456271	0.450057	1.072486
C97	C	0.375100	-0.324995	0.349344
C98	C	0.625100	-0.074995	0.599344
C99	C	0.875100	0.175005	0.849344
C100	C	1.125100	0.425005	1.099344
C101	C	0.301709	-0.322257	0.346409
C102	C	0.551709	-0.072257	0.596409
C103	C	0.801709	0.177743	0.846409
C104	C	1.051709	0.427743	1.096409
C105	C	0.298107	-0.405975	0.436121
C106	C	0.548107	-0.155975	0.686121
C107	C	0.798107	0.094025	0.936121
C108	C	1.048107	0.344025	1.186121
C109	C	0.371494	-0.408717	0.439051
C110	C	0.621494	-0.158717	0.689051
C111	C	0.871494	0.091283	0.939051
C112	C	1.121494	0.341283	1.189051
C113	C	0.409986	-0.368225	0.395666
C114	C	0.659986	-0.118225	0.645666
C115	C	0.909986	0.131775	0.895666
C116	C	1.159986	0.381775	1.145666
N117	N	0.519373	-0.334884	0.359935
N118	N	0.769373	-0.084884	0.609935
N119	N	1.019373	0.165116	0.859935
N120	N	1.269373	0.415116	1.109935
N121	N	0.484998	-0.371028	0.398671
N122	N	0.734998	-0.121028	0.648671
N123	N	0.984998	0.128972	0.898671
N124	N	1.234998	0.378972	1.148671
C125	C	1.001750	-0.516486	0.379241
C126	C	1.251750	-0.266486	0.629241
C127	C	1.501750	-0.016486	0.879241
C128	C	1.751750	0.233514	1.129241
C129	C	1.001779	-0.586456	0.379251
C130	C	1.251779	-0.336456	0.629251
C131	C	1.501779	-0.086456	0.879251
C132	C	1.751779	0.163544	1.129251
C133	C	1.048735	-1.086051	0.336264
C134	C	1.298735	-0.836051	0.586264
C135	C	1.548735	-0.586051	0.836264
C136	C	1.798735	-0.336051	1.086264
C137	C	1.048709	-1.020307	0.336246
C138	C	1.298709	-0.770307	0.586246
C139	C	1.548709	-0.520307	0.836246
C140	C	1.798709	-0.270307	1.086246
C141	C	1.001928	-0.987304	0.379331
C142	C	1.251928	-0.737304	0.629331
C143	C	1.501928	-0.487304	0.879331
C144	C	1.751928	-0.237304	1.129331
C145	C	0.955157	-1.020049	0.422424
C146	C	1.205157	-0.770049	0.672424
C147	C	1.455157	-0.520049	0.922424
C148	C	1.705157	-0.270049	1.172424
C149	C	0.955180	-1.085791	0.422435
C150	C	1.205180	-0.835791	0.672435
C151	C	1.455180	-0.585791	0.922435
C152	C	1.705180	-0.335791	1.172435
N153	N	0.993992	-0.885967	0.440598
N154	N	1.243992	-0.635967	0.690598
N155	N	1.493992	-0.385967	0.940598
N156	N	1.743992	-0.135967	1.190598
N157	N	0.993974	-0.823515	0.440586
N158	N	1.243974	-0.573515	0.690586
N159	N	1.493974	-0.323515	0.940586
N160	N	1.743974	-0.073515	1.190586
C161	C	1.001856	-0.789225	0.379299
C162	C	1.251856	-0.539225	0.629299
C163	C	1.501856	-0.289225	0.879299
C164	C	1.751856	-0.039225	1.129299
N165	N	1.009769	-0.819748	0.318024
N166	N	1.259769	-0.569748	0.568024
N167	N	1.509769	-0.319748	0.818024
N168	N	1.759769	-0.069748	1.068024
N169	N	1.009790	-0.882206	0.318037
N170	N	1.259790	-0.632206	0.568037
N171	N	1.509790	-0.382206	0.818037
N172	N	1.759790	-0.132206	1.068037
C173	C	1.001898	-0.916017	0.379323
C174	C	1.251898	-0.666017	0.629323
C175	C	1.501898	-0.416017	0.879323
C176	C	1.751898	-0.166017	1.129323
C177	C	1.048592	-0.685201	0.336186
C178	C	1.298592	-0.435201	0.586186
C179	C	1.548592	-0.185201	0.836186
C180	C	1.798592	0.064799	1.086186
C181	C	1.048561	-0.619455	0.336167
C182	C	1.298561	-0.369455	0.586167
C183	C	1.548561	-0.119455	0.836167
C184	C	1.798561	0.130545	1.086167
C185	C	0.955013	-0.619198	0.422351
C186	C	1.205013	-0.369198	0.672351
C187	C	1.455013	-0.119198	0.922351
C188	C	1.705013	0.130802	1.172351
C189	C	0.955040	-0.684942	0.422364
C190	C	1.205040	-0.434942	0.672364
C191	C	1.455040	-0.184942	0.922364
C192	C	1.705040	0.065058	1.172364
C193	C	1.001834	-0.717939	0.379282
C194	C	1.251834	-0.467939	0.629282
C195	C	1.501834	-0.217939	0.879282
C196	C	1.751834	0.032061	1.129282
C197	C	1.185112	-0.359813	0.386652
C198	C	1.435112	-0.109813	0.636652
C199	C	1.685112	0.140187	0.886652
C200	C	1.935112	0.390187	1.136652
C201	C	1.263215	-0.362742	0.389794
C202	C	1.513215	-0.112742	0.639794
C203	C	1.763215	0.137258	0.889794
C204	C	2.013215	0.387258	1.139794
C205	C	0.994501	-0.359221	0.562558
C206	C	1.244501	-0.109221	0.812558
C207	C	1.494501	0.140779	1.062558
C208	C	1.744501	0.390779	1.312558
C209	C	0.991377	-0.361898	0.640661
C210	C	1.241377	-0.111898	0.890661
C211	C	1.491377	0.138102	1.140661
C212	C	1.741377	0.388102	1.390661
C213	C	1.001931	-0.188754	0.379331
C214	C	1.251931	0.061246	0.629331
C215	C	1.501931	0.311246	0.879331
C216	C	1.751931	0.561246	1.129331
C217	C	1.001973	-0.118788	0.379354
C218	C	1.251973	0.131212	0.629354
C219	C	1.501973	0.381212	0.879354
C220	C	1.751973	0.631212	1.129354
C221	C	1.009173	-0.346638	0.196713
C222	C	1.259173	-0.096638	0.446713
C223	C	1.509173	0.153362	0.696713
C224	C	1.759173	0.403362	0.946713
C225	C	1.012432	-0.343789	0.118616
C226	C	1.262432	-0.093789	0.368616
C227	C	1.512432	0.156211	0.618616
C228	C	1.762432	0.406211	0.868616
C229	C	1.034870	-0.324587	0.679176
C230	C	1.284870	-0.074587	0.929176
C231	C	1.534870	0.175413	1.179176
C232	C	1.784870	0.425413	1.429176
C233	C	1.031927	-0.327099	0.752561
C234	C	1.281927	-0.077099	1.002561
C235	C	1.531927	0.172901	1.252561
C236	C	1.781927	0.422901	1.502561
C237	C	0.985494	-0.366927	0.787431
C238	C	1.235494	-0.116927	1.037431
C239	C	1.485494	0.133073	1.287431
C240	C	1.735494	0.383073	1.537431
C241	C	0.941996	-0.404239	0.748910
C242	C	1.191996	-0.154239	0.998910
C243	C	1.441996	0.095761	1.248910
C244	C	1.691996	0.345761	1.498910
C245	C	0.944937	-0.401723	0.675526
C246	C	1.194937	-0.151723	0.925526
C247	C	1.444937	0.098277	1.175526
C248	C	1.694937	0.348277	1.425526
C249	C	0.971875	-0.378585	1.006711
C250	C	1.221875	-0.128585	1.256711
C251	C	1.471875	0.121415	1.506711
C252	C	1.721875	0.371415	1.756711
C253	C	0.968939	-0.381100	1.080101
C254	C	1.218939	-0.131100	1.330101
C255	C	1.468939	0.118900	1.580101
C256	C	1.718939	0.368900	1.830101
C257	C	1.058870	-0.303959	1.083747
C258	C	1.308870	-0.053959	1.333747
C259	C	1.558870	0.196041	1.583747
C260	C	1.808870	0.446041	1.833747
C261	C	1.061809	-0.301449	1.010361
C262	C	1.311809	-0.051449	1.260361
C263	C	1.561809	0.198551	1.510361
C264	C	1.811809	0.448551	1.760361
C265	C	1.018309	-0.338759	0.971847
C266	C	1.268309	-0.088759	1.221847
C267	C	1.518309	0.161241	1.471847
C268	C	1.768309	0.411241	1.721847
N269	N	0.982485	-0.369497	0.862443
N270	N	1.232485	-0.119497	1.112443
N271	N	1.482485	0.130503	1.362443
N272	N	1.732485	0.380503	1.612443
N273	N	1.021314	-0.336184	0.896836
N274	N	1.271314	-0.086184	1.146836
N275	N	1.521314	0.163816	1.396836
N276	N	1.771314	0.413816	1.646836
H277	H	0.399898	-0.443920	0.476771
H278	H	0.649898	-0.193920	0.726771
H279	H	0.899898	0.056080	0.976771
H280	H	1.149898	0.306080	1.226771
H281	H	1.099622	-0.269019	0.981975
H282	H	1.349622	-0.019019	1.231975
H283	H	1.599622	0.230981	1.481975
H284	H	1.849622	0.480981	1.731975
H285	H	0.931126	-0.413534	1.108489
H286	H	1.181126	-0.163534	1.358489
H287	H	1.431126	0.086466	1.608489
H288	H	1.681126	0.336466	1.858489
F289	F	0.925578	-0.418294	0.965731
F290	F	1.175578	-0.168294	1.215731
F291	F	1.425578	0.081706	1.465731
F292	F	1.675578	0.331706	1.715731
F293	F	0.257135	-0.449068	0.482289
F294	F	0.507135	-0.199068	0.732289
F295	F	0.757135	0.050932	0.982289
F296	F	1.007135	0.300932	1.232289
H297	H	1.086836	-1.112913	0.301181
H298	H	1.336836	-0.862913	0.551181
H299	H	1.586836	-0.612913	0.801181
H300	H	1.836836	-0.362913	1.051181
H301	H	0.917066	-0.993174	0.457503
H302	H	1.167066	-0.743174	0.707503
H303	H	1.417066	-0.493174	0.957503
H304	H	1.667066	-0.243174	1.207503
H305	H	0.917100	-1.112445	0.457526
H306	H	1.167100	-0.862445	0.707526
H307	H	1.417100	-0.612445	0.957526
H308	H	1.667100	-0.362445	1.207526
H309	H	1.067345	-0.296718	0.783917
H310	H	1.317345	-0.046718	1.033917
H311	H	1.567345	0.203282	1.283917
H312	H	1.817345	0.453282	1.533917
H313	H	0.916920	-0.592327	0.457429
H314	H	1.166920	-0.342327	0.707429
H315	H	1.416920	-0.092327	0.957429
H316	H	1.666920	0.157673	1.207429
F317	F	0.892575	-0.446624	0.786023
F318	F	1.142575	-0.196624	1.036023
F319	F	1.392575	0.053376	1.286023
F320	F	1.642575	0.303376	1.536023
H321	H	1.094284	-0.273582	1.115112
H322	H	1.344284	-0.023582	1.365112
H323	H	1.594284	0.226418	1.615112
H324	H	1.844284	0.476418	1.865112
H325	H	0.909513	-0.432099	0.644167
H326	H	1.159513	-0.182099	0.894167
H327	H	1.409513	0.067901	1.144167
H328	H	1.659513	0.317901	1.394167
F329	F	1.098389	-0.720321	0.290332
F330	F	1.348389	-0.470321	0.540332
F331	F	1.598389	-0.220321	0.790332
F332	F	1.848389	0.029679	1.040332
F333	F	0.416057	-0.281898	0.303172
F334	F	0.666057	-0.031898	0.553172
F335	F	0.916057	0.218102	0.803172
F336	F	1.166057	0.468102	1.053172
F337	F	0.739793	-0.429678	0.461493
F338	F	0.989793	-0.179678	0.711493
F339	F	1.239793	0.070322	0.961493
F340	F	1.489793	0.320322	1.211493
H341	H	1.086789	-0.993647	0.301156
H342	H	1.336789	-0.743647	0.551156
H343	H	1.586789	-0.493647	0.801156
H344	H	1.836789	-0.243647	1.051156
F345	F	0.747238	-0.256851	0.276310
F346	F	0.997238	-0.006851	0.526310
F347	F	1.247238	0.243149	0.776310
F348	F	1.497238	0.493149	1.026310
H349	H	1.072683	-0.292157	0.650790
H350	H	1.322683	-0.042157	0.900790
H351	H	1.572683	0.207843	1.150790
H352	H	1.822683	0.457843	1.400790
F353	F	0.905275	-0.719785	0.468233
F354	F	1.155275	-0.469785	0.718233
F355	F	1.405275	-0.219785	0.968233
F356	F	1.655275	0.030215	1.218233
F357	F	0.264576	-0.276248	0.297099
F358	F	0.514576	-0.026248	0.547099
F359	F	0.764576	0.223752	0.797099
F360	F	1.014576	0.473752	1.047099
F361	F	0.588313	-0.424009	0.455437
F362	F	0.838313	-0.174009	0.705437
F363	F	1.088313	0.075991	0.955437
F364	F	1.338313	0.325991	1.205437
F365	F	0.595749	-0.251189	0.270252
F366	F	0.845749	-0.001189	0.520252
F367	F	1.095749	0.248811	0.770252
F368	F	1.345749	0.498811	1.020252
H369	H	1.086638	-0.592800	0.301074
H370	H	1.336638	-0.342800	0.551074
H371	H	1.586638	-0.092800	0.801074
H372	H	1.836638	0.157200	1.051074
