data_functionalizedCrystal
_audit_creation_method	'MofGen! by Chris Wilmer'
_symmetry_space_group_name_H-M	'P1'
_symmetry_Int_Tables_number	1
_symmetry_cell_setting	triclinic
loop_
_symmetry_equiv_pos_as_xyz
  x,y,z
_cell_length_a	11.792241
_cell_length_b	17.038272
_cell_length_c	10.268362
_cell_angle_alpha	89.994496
_cell_angle_beta	89.999626
_cell_angle_gamma	87.652486
loop_
_atom_site_label
_atom_site_type_symbol
_atom_site_fract_x
_atom_site_fract_y
_atom_site_fract_z
O1	O	1.516303	0.107207	-0.108175
O2	O	2.016303	0.607207	0.391825
O3	O	1.186930	0.118256	-0.108205
O4	O	1.686930	0.618256	0.391795
O5	O	1.349659	-0.001093	-0.108180
O6	O	1.849659	0.498907	0.391820
O7	O	1.353574	0.226556	-0.108200
O8	O	1.853574	0.726556	0.391800
O9	O	1.349643	-0.001098	0.108421
O10	O	1.849643	0.498902	0.608421
O11	O	1.186914	0.118251	0.108396
O12	O	1.686914	0.618251	0.608396
O13	O	1.516287	0.107202	0.108426
O14	O	2.016287	0.607202	0.608426
Cu15	Cu	1.351600	0.112726	0.128188
Cu16	Cu	1.851600	0.612726	0.628188
Cu17	Cu	1.351618	0.112732	-0.127967
Cu18	Cu	1.851618	0.612732	0.372033
O19	O	1.353558	0.226551	0.108401
O20	O	1.853558	0.726551	0.608401
C21	C	1.144571	0.117559	0.000092
C22	C	1.644571	0.617559	0.500092
C23	C	1.018375	0.115482	0.000080
C24	C	1.518375	0.615482	0.500080
C25	C	0.787328	0.111662	0.000118
C26	C	1.287328	0.611662	0.500118
C27	C	0.915899	0.113785	0.000097
C28	C	1.415899	0.613785	0.500097
C29	C	1.346090	-0.030239	0.000120
C30	C	1.846090	0.469761	0.500120
C31	C	1.335466	-0.117079	0.000119
C32	C	1.835466	0.382921	0.500119
C33	C	1.433006	-0.166762	0.000129
C34	C	1.933006	0.333238	0.500129
C35	C	1.423017	-0.248357	0.000116
C36	C	1.923017	0.251643	0.500116
C37	C	1.315487	-0.280267	0.000102
C38	C	1.815487	0.219733	0.500102
C39	C	1.217940	-0.230577	0.000087
C40	C	1.717940	0.269423	0.500087
C41	C	1.227930	-0.148984	0.000091
C42	C	1.727930	0.351016	0.500091
C43	C	1.280194	-0.526181	0.000081
C44	C	1.780194	-0.026181	0.500081
C45	C	1.270211	-0.607780	0.000080
C46	C	1.770211	-0.107780	0.500080
C47	C	1.475289	-0.625554	0.000107
C48	C	1.975289	-0.125554	0.500107
C49	C	1.485270	-0.543958	0.000118
C50	C	1.985270	-0.043958	0.500118
C51	C	1.387723	-0.494276	0.000097
C52	C	1.887723	0.005724	0.500097
C53	C	1.305274	-0.363669	0.000092
C54	C	1.805274	0.136331	0.500092
C55	C	1.397937	-0.410875	0.000097
C56	C	1.897937	0.089125	0.500097
C57	C	1.558647	0.107899	0.000127
C58	C	2.058647	0.607899	0.500127
C59	C	1.684843	0.109976	0.000130
C60	C	2.184843	0.609976	0.500130
C61	C	1.357127	0.255697	0.000098
C62	C	1.857127	0.755697	0.500098
C63	C	1.367751	0.342537	0.000091
C64	C	1.867751	0.842537	0.500091
N65	N	1.351595	0.112721	0.308354
N66	N	1.851595	0.612721	0.808354
N67	N	1.351631	0.112730	-0.308133
N68	N	1.851631	0.612730	0.191867
C69	C	1.351612	0.112730	0.574025
C70	C	1.851612	0.612730	1.074025
C71	C	1.351599	0.112728	0.426187
C72	C	1.851599	0.612728	0.926187
H73	H	1.520568	-0.140788	0.000149
H74	H	2.020568	0.359212	0.500149
H75	H	1.217723	-0.389660	0.000083
H76	H	1.717723	0.110340	0.500083
C77	C	1.174324	-0.472212	-0.000202
C78	C	1.674324	0.027788	0.499798
C79	C	1.174052	-0.424860	-0.111657
C80	C	1.674052	0.075140	0.388343
C81	C	1.076529	-0.375139	-0.111969
C82	C	1.576529	0.124861	0.388031
H83	H	1.173843	-0.439942	0.075242
H84	H	1.673843	0.060058	0.575242
H85	H	1.108829	-0.502881	-0.000276
H86	H	1.608829	-0.002881	0.499724
H87	H	1.239530	-0.394194	-0.111570
H88	H	1.739530	0.105806	0.388430
H89	H	1.174516	-0.457108	-0.187118
H90	H	1.674516	0.042892	0.312882
H91	H	1.011034	-0.405808	-0.112044
H92	H	1.511034	0.094192	0.387956
H93	H	1.076057	-0.342875	-0.036521
H94	H	1.576057	0.157125	0.463479
H95	H	1.076327	-0.343010	-0.187596
H96	H	1.576327	0.156990	0.312404
C97	C	1.601951	-0.509213	-0.000078
C98	C	2.101951	-0.009213	0.499922
C99	C	1.613677	-0.462867	-0.111494
C100	C	2.113677	0.037133	0.388506
C101	C	1.721144	-0.430841	-0.111707
C102	C	2.221144	0.069159	0.388293
H103	H	1.658714	-0.550411	-0.000142
H104	H	2.158714	-0.050411	0.499858
H105	H	1.610123	-0.477715	0.075419
H106	H	2.110123	0.022285	0.575419
H107	H	1.605517	-0.494364	-0.186971
H108	H	2.105517	0.005636	0.313029
H109	H	1.556939	-0.421657	-0.111454
H110	H	2.056939	0.078343	0.388546
H111	H	1.729316	-0.399342	-0.036210
H112	H	2.229316	0.100658	0.463790
H113	H	1.777899	-0.472044	-0.111768
H114	H	2.277899	0.027956	0.388232
H115	H	1.729111	-0.399386	-0.187295
H116	H	2.229111	0.100614	0.312705
C117	C	1.529055	-0.302168	0.000204
C118	C	2.029055	0.197832	0.500204
C119	C	1.625362	-0.256759	0.000263
C120	C	2.125362	0.243241	0.500263
C121	C	1.723068	-0.306302	0.000362
C122	C	2.223068	0.193698	0.500362
H123	H	1.529596	-0.334379	-0.075310
H124	H	2.029596	0.165621	0.424690
H125	H	1.529471	-0.334360	0.075767
H126	H	2.029471	0.165640	0.575767
H127	H	1.624946	-0.224580	-0.075292
H128	H	2.124946	0.275420	0.424708
H129	H	1.624858	-0.224549	0.075771
H130	H	2.124858	0.275451	0.575771
H131	H	1.723484	-0.338495	0.075925
H132	H	2.223484	0.161505	0.575925
H133	H	1.723598	-0.338511	-0.075153
H134	H	2.223598	0.161489	0.424847
H135	H	1.788424	-0.275500	0.000414
H136	H	2.288424	0.224500	0.500414
C137	C	1.122069	-0.095000	-0.000186
C138	C	1.622069	0.405000	0.499814
C139	C	1.121812	-0.047647	-0.111640
C140	C	1.621812	0.452353	0.388360
C141	C	1.024300	0.002084	-0.111955
C142	C	1.524300	0.502084	0.388045
H143	H	1.121593	-0.062731	0.075258
H144	H	1.621593	0.437269	0.575258
H145	H	1.056566	-0.125661	-0.000263
H146	H	1.556566	0.374339	0.499737
H147	H	1.187297	-0.016989	-0.111550
H148	H	1.687297	0.483011	0.388450
H149	H	1.122270	-0.079895	-0.187102
H150	H	1.622270	0.420105	0.312898
H151	H	0.958797	-0.028577	-0.112033
H152	H	1.458797	0.471423	0.387967
H153	H	1.023834	0.034348	-0.036506
H154	H	1.523834	0.534348	0.463494
H155	H	1.024107	0.034214	-0.187581
H156	H	1.524107	0.534214	0.312419
C157	C	1.581152	-0.679534	-0.000154
C158	C	2.081152	-0.179534	0.499846
C159	C	1.581430	-0.726872	-0.111610
C160	C	2.081430	-0.226872	0.388390
C161	C	1.678944	-0.776600	-0.111909
C162	C	2.178944	-0.276600	0.388091
H163	H	1.581619	-0.711813	0.075289
H164	H	2.081619	-0.211813	0.575289
H165	H	1.646653	-0.648871	-0.000217
H166	H	2.146653	-0.148871	0.499783
H167	H	1.515946	-0.757533	-0.111535
H168	H	2.015946	-0.257533	0.388465
H169	H	1.580981	-0.694614	-0.187071
H170	H	2.080981	-0.194614	0.312929
H171	H	1.744445	-0.745937	-0.111973
H172	H	2.244445	-0.245937	0.388027
H173	H	1.679402	-0.808874	-0.036462
H174	H	2.179402	-0.308874	0.463538
H175	H	1.679151	-0.808720	-0.187536
H176	H	2.179151	-0.308720	0.312464
H177	H	1.182643	-0.633757	0.000090
H178	H	1.682643	-0.133757	0.500090
H179	H	1.485487	-0.384890	0.000080
H180	H	1.985487	0.115110	0.500080
H181	H	1.130387	-0.256565	0.000067
H182	H	1.630387	0.243435	0.500067
