data_functionalizedCrystal
_audit_creation_method	'MofGen! by Chris Wilmer'
_symmetry_space_group_name_H-M	'P1'
_symmetry_Int_Tables_number	1
_symmetry_cell_setting	triclinic
loop_
_symmetry_equiv_pos_as_xyz
  x,y,z
_cell_length_a	16.109301
_cell_length_b	13.596369
_cell_length_c	14.519709
_cell_angle_alpha	90.006934
_cell_angle_beta	83.570813
_cell_angle_gamma	90.002607
loop_
_atom_site_label
_atom_site_type_symbol
_atom_site_fract_x
_atom_site_fract_y
_atom_site_fract_z
O1	O	1.103338	0.081731	0.118543
O2	O	1.436671	0.415065	0.451876
O3	O	1.770005	0.748398	0.785209
O4	O	0.861301	0.081747	0.133295
O5	O	1.194635	0.415081	0.466628
O6	O	1.527968	0.748414	0.799961
O7	O	0.988737	0.081730	-0.008333
O8	O	1.322070	0.415063	0.325000
O9	O	1.655404	0.748397	0.658333
O10	O	0.975902	0.081749	0.260171
O11	O	1.309236	0.415082	0.593504
O12	O	1.642569	0.748415	0.926837
O13	O	0.988724	-0.081853	-0.008341
O14	O	1.322058	0.251480	0.324992
O15	O	1.655391	0.584814	0.658326
O16	O	0.861289	-0.081836	0.133287
O17	O	1.194622	0.251498	0.466621
O18	O	1.527955	0.584831	0.799954
O19	O	1.103325	-0.081852	0.118535
O20	O	1.436659	0.251482	0.451868
O21	O	1.769992	0.584815	0.785202
Zn22	Zn	0.982305	-0.107816	0.125910
Zn23	Zn	1.315638	0.225517	0.459243
Zn24	Zn	1.648972	0.558851	0.792577
Zn25	Zn	0.982322	0.107712	0.125920
Zn26	Zn	1.315655	0.441045	0.459253
Zn27	Zn	1.648988	0.774378	0.792586
O28	O	0.975890	-0.081834	0.260163
O29	O	1.309223	0.251499	0.593497
O30	O	1.642556	0.584832	0.926830
C31	C	0.830319	-0.000042	0.132693
C32	C	1.163653	0.333291	0.466027
C33	C	1.496986	0.666624	0.799360
C34	C	0.738021	-0.000037	0.130902
C35	C	1.071354	0.333297	0.464235
C36	C	1.404687	0.666630	0.797569
N37	N	0.982300	-0.254908	0.125903
N38	N	1.315633	0.078426	0.459236
N39	N	1.648966	0.411759	0.792569
C40	C	0.515887	-0.000042	0.210775
C41	C	0.849220	0.333291	0.544109
C42	C	1.182553	0.666624	0.877442
C43	C	0.429163	-0.000049	0.209085
C44	C	0.762497	0.333284	0.542418
C45	C	1.095830	0.666618	0.875752
C46	C	0.448747	-0.000056	0.041048
C47	C	0.782080	0.333277	0.374381
C48	C	1.115413	0.666610	0.707715
C49	C	0.535468	-0.000057	0.042739
C50	C	0.868802	0.333276	0.376073
C51	C	1.202135	0.666610	0.709406
C52	C	0.569036	-0.000045	0.127606
C53	C	0.902369	0.333288	0.460939
C54	C	1.235702	0.666622	0.794273
C55	C	0.395591	-0.000051	0.124224
C56	C	0.728924	0.333283	0.457557
C57	C	1.062258	0.666616	0.790891
C58	C	0.301562	-0.000058	0.122390
C59	C	0.634895	0.333276	0.455724
C60	C	0.968228	0.666609	0.789057
C61	C	0.663071	-0.000040	0.129440
C62	C	0.996404	0.333293	0.462773
C63	C	1.329738	0.666627	0.796107
C64	C	0.982321	-0.656199	0.125921
C65	C	1.315654	-0.322865	0.459254
C66	C	1.648987	0.010468	0.792587
C67	C	0.982312	-0.544547	0.125919
C68	C	1.315646	-0.211214	0.459252
C69	C	1.648979	0.122119	0.792586
C70	C	0.982311	-0.455557	0.125912
C71	C	1.315644	-0.122223	0.459246
C72	C	1.648977	0.211110	0.792579
C73	C	0.982301	-0.343898	0.125909
C74	C	1.315635	-0.010565	0.459242
C75	C	1.648968	0.322768	0.792576
C76	C	1.134307	-0.000060	0.119136
C77	C	1.467641	0.333273	0.452470
C78	C	1.800974	0.666607	0.785803
C79	C	1.226606	-0.000059	0.120928
C80	C	1.559939	0.333274	0.454261
C81	C	1.893273	0.666607	0.787595
C82	C	0.988132	-0.000062	-0.042696
C83	C	1.321466	0.333272	0.290638
C84	C	1.654799	0.666605	0.623971
C85	C	0.986340	-0.000062	-0.145073
C86	C	1.319673	0.333271	0.188260
C87	C	1.653007	0.666605	0.521594
N88	N	0.982334	0.254803	0.125920
N89	N	1.315667	0.588137	0.459253
N90	N	1.649000	0.921470	0.792586
C91	C	0.979741	-0.000036	-0.519955
C92	C	1.313075	0.333297	-0.186622
C93	C	1.646408	0.666631	0.146712
C94	C	0.981574	-0.000044	-0.415651
C95	C	1.314907	0.333290	-0.082318
C96	C	1.648241	0.666623	0.251016
C97	C	0.983041	-0.000050	-0.332517
C98	C	1.316374	0.333283	0.000816
C99	C	1.649707	0.666617	0.334149
C100	C	0.984873	-0.000056	-0.228207
C101	C	1.318207	0.333278	0.105127
C102	C	1.651540	0.666611	0.438460
C103	C	0.976494	-0.000041	0.294526
C104	C	1.309828	0.333293	0.627859
C105	C	1.643161	0.666626	0.961192
C106	C	0.978287	-0.000034	0.396903
C107	C	1.311620	0.333300	0.730236
C108	C	1.644953	0.666633	1.063570
H109	H	0.543214	-0.000040	0.279879
H110	H	0.876547	0.333293	0.613213
H111	H	1.209881	0.666627	0.946546
H112	H	0.578745	-0.000062	-0.024991
H113	H	0.912078	0.333271	0.308342
H114	H	1.245412	0.666605	0.641675
H115	H	0.421405	-0.000072	-0.028048
H116	H	0.754739	0.333261	0.305286
H117	H	1.088072	0.666595	0.638619
H118	H	0.385892	-0.000049	0.276810
H119	H	0.719226	0.333285	0.610143
H120	H	1.052559	0.666618	0.943477
