data_functionalizedCrystal
_audit_creation_method	'MofGen! by Chris Wilmer'
_symmetry_space_group_name_H-M	'P1'
_symmetry_Int_Tables_number	1
_symmetry_cell_setting	triclinic
loop_
_symmetry_equiv_pos_as_xyz
  x,y,z
_cell_length_a	19.805407
_cell_length_b	18.215404
_cell_length_c	18.215399
_cell_angle_alpha	89.972485
_cell_angle_beta	90.020634
_cell_angle_gamma	89.976177
loop_
_atom_site_label
_atom_site_type_symbol
_atom_site_fract_x
_atom_site_fract_y
_atom_site_fract_z
Zn1	Zn	1.034755	0.292992	0.416134
Zn2	Zn	1.368088	0.626325	0.749467
Zn3	Zn	1.701422	0.959658	1.082800
Zn4	Zn	1.034673	0.416063	0.293068
Zn5	Zn	1.368006	0.749396	0.626402
Zn6	Zn	1.701339	1.082730	0.959735
Zn7	Zn	0.921567	0.293015	0.293079
Zn8	Zn	1.254901	0.626348	0.626413
Zn9	Zn	1.588234	0.959682	0.959746
Zn10	Zn	0.921538	0.416021	0.416092
Zn11	Zn	1.254872	0.749354	0.749425
Zn12	Zn	1.588205	1.082688	1.082758
O13	O	0.978133	0.354523	0.354593
O14	O	1.311467	0.687856	0.687927
O15	O	1.644800	1.021189	1.021260
O16	O	1.129461	0.309325	0.399822
O17	O	1.462794	0.642659	0.733155
O18	O	1.796127	0.975992	1.066489
O19	O	1.019647	0.399768	0.190086
O20	O	1.352980	0.733101	0.523419
O21	O	1.686314	1.066434	0.856752
O22	O	0.936629	0.190028	0.309425
O23	O	1.269962	0.523361	0.642758
O24	O	1.603295	0.856694	0.976092
O25	O	1.129400	0.399745	0.309406
O26	O	1.462734	0.733079	0.642740
O27	O	1.796067	1.066412	0.976073
O28	O	1.019787	0.190011	0.399833
O29	O	1.353120	0.523344	0.733166
O30	O	1.686454	0.856677	1.066499
O31	O	0.936549	0.309365	0.190094
O32	O	1.269882	0.642698	0.523427
O33	O	1.603216	0.976031	0.856760
O34	O	0.826847	0.309324	0.309384
O35	O	1.160180	0.642657	0.642718
O36	O	1.493514	0.975991	0.976051
O37	O	0.936579	0.399674	0.519082
O38	O	1.269912	0.733007	0.852415
O39	O	1.603245	1.066340	1.185748
O40	O	0.826826	0.399696	0.399761
O41	O	1.160159	0.733030	0.733094
O42	O	1.493492	1.066363	1.066427
O43	O	1.019759	0.309285	0.519113
O44	O	1.353092	0.642618	0.852446
O45	O	1.686425	0.975951	1.185779
O46	O	1.019619	0.519042	0.309365
O47	O	1.352952	0.852375	0.642699
O48	O	1.686285	1.185708	0.976032
O49	O	0.936499	0.519011	0.399750
O50	O	1.269832	0.852344	0.733083
O51	O	1.603166	1.185678	1.066417
C52	C	0.802277	0.354509	0.354570
C53	C	1.135611	0.687842	0.687903
C54	C	1.468944	1.021175	1.021236
C55	C	0.727045	0.354520	0.354577
C56	C	1.060379	0.687854	0.687910
C57	C	1.393712	1.021187	1.021244
C58	C	0.978065	0.545729	0.354568
C59	C	1.311398	0.879062	0.687901
C60	C	1.644732	1.212396	1.021235
C61	C	0.978098	0.627528	0.354582
C62	C	1.311431	0.960861	0.687915
C63	C	1.644765	1.294195	1.021249
C64	C	1.021483	0.815713	0.307615
C65	C	1.354816	1.149047	0.640949
C66	C	1.688150	1.482380	0.974282
C67	C	1.021515	0.892572	0.307637
C68	C	1.354848	1.225905	0.640970
C69	C	1.688181	1.559239	0.974304
C70	C	0.934887	0.892580	0.401677
C71	C	1.268221	1.225913	0.735011
C72	C	1.601554	1.559247	1.068344
C73	C	0.934860	0.815723	0.401659
C74	C	1.268193	1.149056	0.734992
C75	C	1.601526	1.482389	1.068325
C76	C	0.978157	0.777291	0.354623
C77	C	1.311490	1.110625	0.687957
C78	C	1.644823	1.443958	1.021290
C79	C	0.978216	0.931007	0.354664
C80	C	1.311549	1.264341	0.687997
C81	C	1.644882	1.597674	1.021331
C82	C	0.978250	1.014341	0.354688
C83	C	1.311583	1.347674	0.688021
C84	C	1.644916	1.681008	1.021355
C85	C	0.978124	0.693952	0.354600
C86	C	1.311457	1.027286	0.687933
C87	C	1.644790	1.360619	1.021267
C88	C	0.691708	0.401648	0.401560
C89	C	1.025041	0.734981	0.734893
C90	C	1.358374	1.068315	1.068226
C91	C	0.621019	0.401649	0.401570
C92	C	0.954353	0.734983	0.734903
C93	C	1.287686	1.068316	1.068237
C94	C	0.585670	0.354526	0.354593
C95	C	0.919003	0.687859	0.687927
C96	C	1.252336	1.021193	1.021260
C97	C	0.621012	0.307393	0.307608
C98	C	0.954346	0.640727	0.640942
C99	C	1.287679	0.974060	0.974275
C100	C	0.691700	0.307389	0.307602
C101	C	1.025033	0.640722	0.640936
C102	C	1.358366	0.974056	0.974269
C103	C	0.335939	0.307410	0.307633
C104	C	0.669272	0.640743	0.640966
C105	C	1.002606	0.974076	0.974299
C106	C	0.265247	0.307419	0.307641
C107	C	0.598580	0.640753	0.640974
C108	C	0.931914	0.974086	0.974308
C109	C	0.265259	0.401670	0.401601
C110	C	0.598592	0.735003	0.734934
C111	C	0.931925	1.068337	1.068267
C112	C	0.335946	0.401666	0.401594
C113	C	0.669279	0.734999	0.734928
C114	C	1.002613	1.068332	1.068261
C115	C	0.371282	0.354530	0.354613
C116	C	0.704616	0.687864	0.687946
C117	C	1.037949	1.021197	1.021279
C118	C	0.447931	0.354529	0.354603
C119	C	0.781264	0.687862	0.687936
C120	C	1.114597	1.021195	1.021270
C121	C	0.509023	0.354531	0.354599
C122	C	0.842356	0.687864	0.687932
C123	C	1.175689	1.021198	1.021265
C124	C	1.154676	0.354537	0.354618
C125	C	1.488009	0.687871	0.687951
C126	C	1.821343	1.021204	1.021284
C127	C	1.229908	0.354544	0.354628
C128	C	1.563241	0.687877	0.687961
C129	C	1.896575	1.021210	1.021295
C130	C	0.978175	0.354472	0.546546
C131	C	1.311508	0.687805	0.879880
C132	C	1.644841	1.021139	1.213213
C133	C	0.978192	0.354450	0.628345
C134	C	1.311525	0.687784	0.961679
C135	C	1.644859	1.021117	1.295012
C136	C	0.978225	1.162570	0.354648
C137	C	1.311558	1.495903	0.687981
C138	C	1.644891	1.829236	1.021315
C139	C	0.978274	1.080771	0.354706
C140	C	1.311608	1.414104	0.688039
C141	C	1.644941	1.747438	1.021372
C142	C	0.978131	0.354520	0.163387
C143	C	1.311465	0.687854	0.496720
C144	C	1.644798	1.021187	0.830054
C145	C	0.978245	0.354334	0.081589
C146	C	1.311578	0.687668	0.414922
C147	C	1.644911	1.021001	0.748255
C148	C	1.021519	0.307341	0.816557
C149	C	1.354853	0.640674	1.149890
C150	C	1.688186	0.974007	1.483223
C151	C	1.021528	0.307319	0.893415
C152	C	1.354861	0.640653	1.226749
C153	C	1.688194	0.973986	1.560082
C154	C	0.934913	0.401446	0.893372
C155	C	1.268246	0.734780	1.226705
C156	C	1.601579	1.068113	1.560039
C157	C	0.934902	0.401463	0.816515
C158	C	1.268235	0.734797	1.149848
C159	C	1.601568	1.068130	1.483181
C160	C	0.978209	0.354412	0.778109
C161	C	1.311542	0.687745	1.111442
C162	C	1.644876	1.021078	1.444776
C163	C	0.978228	0.354373	0.931825
C164	C	1.311561	0.687706	1.265158
C165	C	1.644895	1.021040	1.598492
C166	C	0.978236	0.354350	1.015159
C167	C	1.311570	0.687684	1.348492
C168	C	1.644903	1.021017	1.681825
C169	C	0.978200	0.354433	0.694770
C170	C	1.311533	0.687767	1.028103
C171	C	1.644866	1.021100	1.361437
H172	H	1.056796	0.923852	0.269359
H173	H	1.390130	1.257185	0.602693
H174	H	1.723463	1.590519	0.936026
H175	H	0.364701	0.269035	0.269372
H176	H	0.698035	0.602368	0.602705
H177	H	1.031368	0.935701	0.936038
H178	H	0.899578	0.784437	0.439942
H179	H	1.232911	1.117771	0.773275
H180	H	1.566245	1.451104	1.106609
H181	H	0.899636	0.923880	0.439971
H182	H	1.232969	1.257213	0.773304
H183	H	1.566302	1.590547	1.106637
O184	O	0.582891	0.256584	0.256920
O185	O	0.916224	0.589917	0.590253
O186	O	1.249557	0.923250	0.923586
H187	H	0.527800	0.264516	0.264804
H188	H	0.861133	0.597849	0.598137
H189	H	1.194467	0.931182	0.931470
H190	H	0.364724	0.440041	0.439845
H191	H	0.698057	0.773374	0.773179
H192	H	1.031391	1.106707	1.106512
H193	H	0.236479	0.440047	0.439858
H194	H	0.569813	0.773380	0.773192
H195	H	0.903146	1.106714	1.106525
H196	H	1.056794	0.268988	0.924716
H197	H	1.390128	0.602322	1.258050
H198	H	1.723461	0.935655	1.591383
O199	O	0.227115	0.256585	0.256978
O200	O	0.560449	0.589918	0.590311
O201	O	0.893782	0.923252	0.923644
H202	H	0.263562	0.223802	0.224313
H203	H	0.596895	0.557135	0.557646
H204	H	0.930229	0.890468	0.890980
H205	H	0.720484	0.440024	0.439811
H206	H	1.053818	0.773357	0.773145
H207	H	1.387151	1.106690	1.106478
H208	H	0.720471	0.269009	0.269348
H209	H	1.053804	0.602342	0.602681
H210	H	1.387137	0.935675	0.936014
H211	H	0.592250	0.440026	0.439828
H212	H	0.925584	0.773359	0.773161
H213	H	1.258917	1.106693	1.106494
H214	H	0.899628	0.439794	0.785209
H215	H	1.232962	0.773127	1.118543
H216	H	1.566295	1.106460	1.451876
O217	O	1.068221	0.256590	0.775130
O218	O	1.401555	0.589923	1.108463
O219	O	1.734888	0.923256	1.441796
H220	H	1.098334	0.223850	0.814780
H221	H	1.431668	0.557183	1.148114
H222	H	1.765001	0.890517	1.481447
H223	H	0.899655	0.439756	0.924651
H224	H	1.232988	0.773089	1.257984
H225	H	1.566322	1.106422	1.591318
H226	H	1.056739	0.784424	0.269317
H227	H	1.390072	1.117758	0.602651
H228	H	1.723406	1.451091	0.935984
