data_functionalizedCrystal
_audit_creation_method	'MofGen! by Chris Wilmer'
_symmetry_space_group_name_H-M	'P1'
_symmetry_Int_Tables_number	1
_symmetry_cell_setting	triclinic
loop_
_symmetry_equiv_pos_as_xyz
  x,y,z
_cell_length_a	10.654544
_cell_length_b	17.019294
_cell_length_c	16.098678
_cell_angle_alpha	96.601795
_cell_angle_beta	87.251496
_cell_angle_gamma	83.938208
loop_
_atom_site_label
_atom_site_type_symbol
_atom_site_fract_x
_atom_site_fract_y
_atom_site_fract_z
O1	O	1.659822	0.114703	0.077500
O2	O	1.294116	0.125297	0.078257
O3	O	1.487839	0.004806	0.069614
O4	O	1.466098	0.235194	0.086144
O5	O	1.499098	-0.002209	-0.069400
O6	O	1.305375	0.118282	-0.060756
O7	O	1.671080	0.107688	-0.061513
Zn8	Zn	1.490015	0.111871	-0.083206
Zn9	Zn	1.475181	0.121114	0.099950
O10	O	1.477357	0.228179	-0.052870
C11	C	1.252964	0.121012	0.008694
C12	C	1.113571	0.118684	0.008526
C13	C	1.125820	0.111045	-0.143030
C14	C	1.066458	0.106134	-0.218883
C15	C	0.935486	0.103947	-0.219037
C16	C	0.863873	0.106667	-0.143328
C17	C	0.923235	0.111578	-0.067475
C18	C	1.054210	0.113768	-0.067330
C19	C	0.910987	0.119211	0.084079
C20	C	1.041958	0.121405	0.084234
C21	C	0.839374	0.121932	0.159787
C22	C	0.898735	0.126849	0.235643
C23	C	1.029715	0.129037	0.235793
C24	C	1.101320	0.126316	0.160088
C25	C	1.492866	-0.028202	-0.002008
C26	C	1.491057	-0.116103	-0.008309
C27	C	1.484073	-0.153570	0.064506
C28	C	1.482365	-0.236162	0.058582
C29	C	1.487650	-0.281285	-0.020157
C30	C	1.494631	-0.243812	-0.092978
C31	C	1.496330	-0.161221	-0.087053
C32	C	1.482819	-0.530848	-0.041836
C33	C	1.481123	-0.613445	-0.047755
C34	C	1.468855	-0.605789	0.103806
C35	C	1.470562	-0.523197	0.109724
C36	C	1.477536	-0.485730	0.036903
C37	C	1.485908	-0.365708	-0.026214
C38	C	1.479269	-0.401309	0.042961
C39	C	1.712232	0.111973	0.008052
C40	C	1.851625	0.114301	0.008225
C41	C	1.472330	0.261186	0.018754
C42	C	1.474139	0.349088	0.025061
N43	N	1.500147	0.105562	-0.208205
C44	C	1.417908	0.156684	-0.248144
C45	C	1.425033	0.152268	-0.335648
C46	C	1.514392	0.096725	-0.383212
C47	C	1.596640	0.045601	-0.343268
C48	C	1.589521	0.050022	-0.255765
C49	C	1.540187	0.080713	-0.647604
C50	C	1.547298	0.076294	-0.735113
C51	C	1.375692	0.182963	-0.727487
C52	C	1.368575	0.187375	-0.639983
C53	C	1.450827	0.136254	-0.600046
C54	C	1.521674	0.092208	-0.472655
C55	C	1.443550	0.140776	-0.510604
N56	N	1.465059	0.127416	0.224949
H57	H	0.887153	0.099954	-0.280803
H58	H	1.656490	0.008394	-0.223248
O59	O	1.620135	0.030968	-0.608952
C60	C	1.791138	-0.075272	-0.625756
C61	C	1.700652	-0.018992	-0.669642
H62	H	1.856277	-0.115668	-0.674803
H63	H	1.733966	-0.113128	-0.587684
H64	H	1.850218	-0.038640	-0.582279
H65	H	1.641551	-0.055563	-0.713160
H66	H	1.757898	0.018866	-0.707661
H67	H	1.594431	0.046982	-0.511390
O68	O	1.136181	0.103393	-0.292377
C69	C	1.305864	0.032943	-0.385109
C70	C	1.227025	0.035965	-0.301848
H71	H	1.379313	-0.021577	-0.392802
H72	H	1.355666	0.089049	-0.384867
H73	H	1.240907	0.029096	-0.439333
H74	H	1.291894	0.039785	-0.247579
H75	H	1.177210	-0.020140	-0.302163
H76	H	1.370798	0.186002	-0.471874
H77	H	1.232463	0.112837	-0.142912
H78	H	1.358068	0.193896	-0.368165
O79	O	1.087461	0.133668	0.309448
C80	C	1.243021	0.072130	0.392643
C81	C	1.177713	0.066777	0.309199
H82	H	1.316022	0.018066	0.392462
H83	H	1.169400	0.073649	0.446750
H84	H	1.292052	0.128679	0.400471
H85	H	1.128685	0.010234	0.301290
H86	H	1.251390	0.065303	0.255135
O87	O	1.478875	-0.109855	0.141061
C88	C	1.466594	-0.110993	0.290762
C89	C	1.472449	-0.160590	0.204115
H90	H	1.461424	-0.151994	0.341764
H91	H	1.379175	-0.065389	0.297865
H92	H	1.554949	-0.078876	0.296797
H93	H	1.384158	-0.192757	0.198020
H94	H	1.559925	-0.206147	0.197050
H95	H	1.501999	-0.130715	-0.146347
O96	O	1.281735	0.241401	-0.593905
C97	C	1.112224	0.346701	-0.595581
C98	C	1.210534	0.285571	-0.647863
H99	H	1.054614	0.382417	-0.639185
H100	H	1.162733	0.388694	-0.551763
H101	H	1.046483	0.314204	-0.557083
H102	H	1.276303	0.318001	-0.686412
H103	H	1.159943	0.243581	-0.691628
H104	H	1.466260	-0.486463	0.173842
O105	O	1.473904	-0.357502	0.119469
C106	C	1.355182	-0.317362	0.251441
C107	C	1.361080	-0.366999	0.164814
H108	H	1.263985	-0.325037	0.288133
H109	H	1.357508	-0.251877	0.243219
H110	H	1.439751	-0.338471	0.287124
H111	H	1.276529	-0.345960	0.129084
H112	H	1.358816	-0.432475	0.173095
O113	O	1.683377	-0.008461	-0.389389
C114	C	1.760118	-0.147051	-0.426032
C115	C	1.661841	-0.085905	-0.373740
H116	H	1.742724	-0.209680	-0.413412
H117	H	1.859245	-0.135348	-0.408026
H118	H	1.751086	-0.141390	-0.495425
H119	H	1.670756	-0.091532	-0.304333
H120	H	1.562753	-0.097627	-0.391817
O121	O	0.829281	0.129604	0.309238
C122	C	0.763899	0.203955	0.443620
C123	C	0.842639	0.200924	0.360319
H124	H	0.774650	0.261620	0.484935
H125	H	0.798556	0.151005	0.477111
H126	H	0.660112	0.201502	0.430455
H127	H	0.946442	0.203401	0.373410
H128	H	0.807877	0.253869	0.326853
O129	O	1.475769	-0.272674	0.129247
C130	C	1.575593	-0.369839	0.209902
C131	C	1.583200	-0.328558	0.129833
H132	H	1.662451	-0.415019	0.210412
H133	H	1.486669	-0.401613	0.211413
H134	H	1.572060	-0.323396	0.267195
H135	H	1.586782	-0.374950	0.072497
H136	H	1.672110	-0.296768	0.128397
H137	H	1.620069	0.031061	-0.773836
O138	O	1.462086	-0.642059	0.174623
C139	C	1.449926	-0.625734	0.325576
C140	C	1.457647	-0.584563	0.245440
H141	H	1.446308	-0.579265	0.382852
H142	H	1.536703	-0.670959	0.326191
H143	H	1.360951	-0.657461	0.327007
H144	H	1.546568	-0.552792	0.243956
H145	H	1.370807	-0.539382	0.244857
O146	O	1.486494	-0.657325	-0.124233
C147	C	1.600498	-0.763401	-0.219456
C148	C	1.594567	-0.713757	-0.132831
H149	H	1.687853	-0.809049	-0.226429
H150	H	1.605864	-0.722472	-0.270514
H151	H	1.512100	-0.795470	-0.225532
H152	H	1.682943	-0.681682	-0.126673
H153	H	1.589137	-0.754726	-0.081815
H154	H	1.488523	-0.500355	-0.101132
H155	H	1.207964	0.128102	0.160203
O156	O	1.499595	-0.287716	-0.169417
C157	C	1.395988	-0.377002	-0.263486
C158	C	1.390211	-0.327333	-0.176883
H159	H	1.307551	-0.409032	-0.269557
H160	H	1.483326	-0.422669	-0.270545
H161	H	1.401332	-0.336024	-0.314499
H162	H	1.384820	-0.368248	-0.125819
H163	H	1.302887	-0.281659	-0.169896
O164	O	1.490891	-0.409620	-0.102650
C165	C	1.387304	-0.498922	-0.196713
C166	C	1.381509	-0.449237	-0.110118
H167	H	1.298868	-0.530953	-0.202786
H168	H	1.474641	-0.544589	-0.203755
H169	H	1.392663	-0.457955	-0.247735
H170	H	1.376103	-0.490141	-0.059044
H171	H	1.294186	-0.403563	-0.103148
H172	H	1.308727	0.224584	-0.760011
O173	O	1.331066	0.210709	-0.202067
C174	C	1.161566	0.316015	-0.203751
C175	C	1.259872	0.254878	-0.256029
H176	H	1.103962	0.351731	-0.247358
H177	H	1.212079	0.358007	-0.159935
H178	H	1.095819	0.283523	-0.165251
H179	H	1.325647	0.287303	-0.294579
H180	H	1.209277	0.212889	-0.299792
H181	H	0.757231	0.104876	-0.143461
H182	H	0.732731	0.120145	0.159657
