data_functionalizedCrystal
_audit_creation_method	'MofGen! by Chris Wilmer'
_symmetry_space_group_name_H-M	'P1'
_symmetry_Int_Tables_number	1
_symmetry_cell_setting	triclinic
loop_
_symmetry_equiv_pos_as_xyz
  x,y,z
_cell_length_a	10.685901
_cell_length_b	16.959453
_cell_length_c	10.686551
_cell_angle_alpha	85.591100
_cell_angle_beta	89.651709
_cell_angle_gamma	85.656731
loop_
_atom_site_label
_atom_site_type_symbol
_atom_site_fract_x
_atom_site_fract_y
_atom_site_fract_z
Zn1	Zn	1.972164	-0.382221	-0.561841
Zn2	Zn	1.955914	-0.523727	-0.352074
Zn3	Zn	1.746290	-0.380736	-0.368217
Zn4	Zn	1.762354	-0.503525	-0.577903
O5	O	1.859181	-0.447552	-0.465009
O6	O	2.145543	-0.410068	-0.520536
O7	O	1.914584	-0.512592	-0.178672
O8	O	1.776331	-0.270324	-0.393935
O9	O	2.133604	-0.514032	-0.366421
O10	O	1.942279	-0.271415	-0.536190
O11	O	1.760574	-0.407537	-0.190533
O12	O	1.572887	-0.387948	-0.409510
O13	O	1.803709	-0.479601	-0.751315
O14	O	1.584689	-0.478161	-0.563566
O15	O	1.957855	-0.390479	-0.739514
O16	O	1.930160	-0.631656	-0.381997
O17	O	1.787952	-0.616814	-0.547913
C18	C	1.533274	-0.430702	-0.490034
C19	C	1.393851	-0.423511	-0.500769
C20	C	1.859072	-0.652915	-0.464971
C21	C	1.859144	-0.740775	-0.464988
C22	C	1.945704	-1.112759	-0.539224
C23	C	1.773022	-1.111752	-0.390952
C24	C	1.772973	-1.029206	-0.390927
C25	C	1.859290	-0.988431	-0.465053
C26	C	1.945656	-1.030204	-0.539204
C27	C	1.686600	-0.987426	-0.316787
C28	C	1.686547	-0.904874	-0.316760
C29	C	1.772871	-0.864098	-0.390880
C30	C	1.859241	-0.905876	-0.465033
C31	C	1.945558	-0.865102	-0.539159
C32	C	2.031936	-0.906879	-0.613306
C33	C	2.031980	-0.989429	-0.613324
C34	C	1.772827	-0.781549	-0.390862
C35	C	1.945510	-0.782547	-0.539139
C36	C	2.186360	-0.464469	-0.439886
C37	C	2.325785	-0.471678	-0.429181
C38	C	1.884387	-0.432952	-0.792204
C39	C	1.895128	-0.426730	-0.931635
C40	C	1.859325	-0.241388	-0.465071
C41	C	1.859387	-0.153533	-0.465098
C42	C	1.834145	-0.462043	-0.139081
C43	C	1.823647	-0.468054	0.000368
H44	H	1.345458	-0.376773	-0.570279
H45	H	1.754234	-0.508195	-0.951178
H46	H	2.015805	-0.749354	-0.599496
C47	C	2.039275	-1.158140	-0.619898
C48	C	1.974397	-1.198271	-0.705728
C49	C	2.060550	-1.240078	-0.780077
H50	H	2.090332	-1.195354	-0.567909
H51	H	2.090659	-1.122056	-0.664121
H52	H	1.923036	-1.234352	-0.661509
H53	H	1.923345	-1.161076	-0.757745
H54	H	2.111933	-1.203994	-0.824300
H55	H	2.111602	-1.277288	-0.728078
H56	H	2.016543	-1.267306	-0.838329
H57	H	2.102210	-0.873671	-0.673666
C58	C	1.987573	-0.373216	-0.996474
C59	C	1.980180	-0.377452	-1.126520
C60	C	2.065306	-0.328157	-1.186291
H61	H	2.070279	-0.390027	-0.968732
H62	H	1.967608	-0.320083	-0.976559
H63	H	2.000153	-0.430574	-1.146425
H64	H	1.897493	-0.360634	-1.154298
H65	H	2.045341	-0.275024	-1.166376
H66	H	2.148006	-0.344973	-1.158540
H67	H	2.060293	-0.331019	-1.274533
H68	H	1.374173	-0.518419	-0.359687
H69	H	2.102302	-1.023451	-0.673691
C70	C	1.679453	-1.156166	-0.310511
C71	C	1.698000	-1.237404	-0.326378
C72	C	1.611838	-1.278347	-0.252276
H73	H	1.596498	-1.137597	-0.335186
H74	H	1.691398	-1.147413	-0.224795
H75	H	1.686044	-1.246152	-0.412076
H76	H	1.780937	-1.255996	-0.301695
H77	H	1.623783	-1.269593	-0.166560
H78	H	1.528889	-1.259770	-0.276957
H79	H	1.624418	-1.333471	-0.263022
C80	C	1.592695	-1.031639	-0.236487
C81	C	1.470643	-1.004005	-0.273251
C82	C	1.384105	-1.044728	-0.199315
H83	H	1.604446	-1.022864	-0.150765
H84	H	1.605022	-1.086788	-0.247138
H85	H	1.458321	-0.948869	-0.262590
H86	H	1.458852	-1.012780	-0.358962
H87	H	1.396432	-1.099877	-0.209965
H88	H	1.395867	-1.035951	-0.113597
H89	H	1.301284	-1.025990	-0.224257
C90	C	1.592638	-0.859463	-0.236473
C91	C	1.517597	-0.804775	-0.313595
C92	C	1.431067	-0.762936	-0.239677
H93	H	1.636295	-0.832103	-0.178142
H94	H	1.541168	-0.895541	-0.192359
H95	H	1.569061	-0.768701	-0.357688
H96	H	1.473913	-0.832113	-0.371925
H97	H	1.379596	-0.799014	-0.195564
H98	H	1.474734	-0.735581	-0.181349
H99	H	1.380133	-0.725831	-0.291994
C100	C	1.678918	-0.736130	-0.310594
C101	C	1.603889	-0.681444	-0.387734
C102	C	1.517352	-0.639598	-0.313833
H103	H	1.722568	-0.708767	-0.252262
H104	H	1.627439	-0.772204	-0.266482
H105	H	1.655361	-0.645375	-0.431825
H106	H	1.560211	-0.708786	-0.446064
H107	H	1.465873	-0.675672	-0.269721
H108	H	1.561013	-0.612240	-0.255505
H109	H	1.466427	-0.602494	-0.366162
