data_functionalizedCrystal
_audit_creation_method	'MofGen! by Chris Wilmer'
_symmetry_space_group_name_H-M	'P1'
_symmetry_Int_Tables_number	1
_symmetry_cell_setting	triclinic
loop_
_symmetry_equiv_pos_as_xyz
  x,y,z
_cell_length_a	16.120256
_cell_length_b	17.077404
_cell_length_c	17.077402
_cell_angle_alpha	89.976892
_cell_angle_beta	92.872538
_cell_angle_gamma	87.121621
loop_
_atom_site_label
_atom_site_type_symbol
_atom_site_fract_x
_atom_site_fract_y
_atom_site_fract_z
Zn1	Zn	-0.471376	-1.177551	-0.335042
Zn2	Zn	0.028624	-0.677551	0.164958
Zn3	Zn	-0.331962	-1.184113	-0.459651
Zn4	Zn	0.168038	-0.684113	0.040349
Zn5	Zn	-0.331980	-1.052937	-0.328404
Zn6	Zn	0.168020	-0.552937	0.171596
Zn7	Zn	-0.471328	-1.046253	-0.466268
Zn8	Zn	0.028672	-0.546253	0.033732
O9	O	-0.401662	-1.115213	-0.397341
O10	O	0.098338	-0.615213	0.102659
O11	O	-0.452895	-1.288267	-0.351580
O12	O	0.047105	-0.788267	0.148420
O13	O	-0.215301	-1.172257	-0.436694
O14	O	0.284699	-0.672257	0.063306
O15	O	-0.350499	-1.069518	-0.219439
O16	O	0.149501	-0.569518	0.280561
O17	O	-0.350468	-1.293089	-0.443130
O18	O	0.149532	-0.793089	0.056870
O19	O	-0.452913	-1.161071	-0.224316
O20	O	0.047087	-0.661071	0.275684
O21	O	-0.215314	-1.075882	-0.340267
O22	O	0.284686	-0.575882	0.159733
O23	O	-0.350452	-0.942204	-0.346684
O24	O	0.149548	-0.442204	0.153316
O25	O	-0.587998	-1.058125	-0.454408
O26	O	-0.087998	-0.558125	0.045592
O27	O	-0.452831	-0.937293	-0.447971
O28	O	0.047169	-0.437293	0.052029
O29	O	-0.588033	-1.154589	-0.357996
O30	O	-0.088033	-0.654589	0.142004
O31	O	-0.350421	-1.165775	-0.570374
O32	O	0.149579	-0.665775	-0.070374
O33	O	-0.452813	-1.064489	-0.575236
O34	O	0.047187	-0.564489	-0.075236
C35	C	-0.401628	-1.115139	-0.601288
C36	C	0.098372	-0.615139	-0.101288
C37	C	-0.401642	-1.115178	-0.688538
C38	C	0.098358	-0.615178	-0.188538
C39	C	-0.401639	-0.911267	-0.397326
C40	C	0.098361	-0.411267	0.102674
C41	C	-0.401649	-0.824016	-0.397339
C42	C	0.098351	-0.324016	0.102661
C43	C	-0.619111	-1.104880	-0.407681
C44	C	-0.119111	-0.604880	0.092319
C45	C	-0.711775	-1.100476	-0.412087
C46	C	-0.211775	-0.600476	0.087913
C47	C	-0.922737	-1.138177	-0.374344
C48	C	-0.422737	-0.638177	0.125656
C49	C	-0.881427	-1.092410	-0.420098
C50	C	-0.381427	-0.592410	0.079902
C51	C	-0.787024	-1.096899	-0.415639
C52	C	-0.287024	-0.596899	0.084361
C53	C	-1.017149	-1.133688	-0.378802
C54	C	-0.517149	-0.633688	0.121198
C55	C	-0.185058	-1.125552	-0.386985
C56	C	0.314942	-0.625552	0.113015
C57	C	-0.092395	-1.130108	-0.382358
C58	C	0.407605	-0.630108	0.117642
C59	C	-0.401685	-1.319957	-0.397357
C60	C	0.098315	-0.819957	0.102643
C61	C	-0.401695	-1.407206	-0.397364
C62	C	0.098305	-0.907206	0.102636
C63	C	-0.454872	-0.780494	-0.450151
C64	C	0.045128	-0.280494	0.049849
C65	C	-0.454885	-0.698513	-0.450154
C66	C	0.045115	-0.198513	0.049846
C67	C	-0.401670	-0.660056	-0.397347
C68	C	0.098330	-0.160056	0.102653
C69	C	-0.348445	-0.703585	-0.344529
C70	C	0.151555	-0.203585	0.155471
C71	C	-0.348437	-0.785564	-0.344524
C72	C	0.151563	-0.285564	0.155476
C73	C	-0.348465	-0.532714	-0.344546
C74	C	0.151535	-0.032714	0.155454
C75	C	-0.348472	-0.450729	-0.344552
C76	C	0.151528	0.049271	0.155448
C77	C	-0.454913	-0.445662	-0.450176
C78	C	0.045087	0.054338	0.049824
C79	C	-0.454905	-0.527642	-0.450170
C80	C	0.045095	-0.027642	0.049830
C81	C	-0.401678	-0.571165	-0.397353
C82	C	0.098322	-0.071165	0.102647
C83	C	-0.348384	-1.167966	-0.726973
C84	C	0.151616	-0.667966	-0.226973
C85	C	-0.348405	-1.168003	-0.808955
C86	C	0.151595	-0.668003	-0.308955
C87	C	-0.401681	-1.115248	-0.852499
C88	C	0.098319	-0.615248	-0.352499
C89	C	-0.454945	-1.062458	-0.814058
C90	C	0.045055	-0.562458	-0.314058
C91	C	-0.454927	-1.062425	-0.732079
C92	C	0.045073	-0.562425	-0.232079
C93	C	-0.454977	-1.062529	-0.984930
C94	C	0.045023	-0.562529	-0.484930
C95	C	-0.454993	-1.062561	-1.066915
C96	C	0.045007	-0.562561	-0.566915
C97	C	-0.348454	-1.168108	-1.061806
C98	C	0.151546	-0.668108	-0.561806
C99	C	-0.348437	-1.168075	-0.979826
C100	C	0.151563	-0.668075	-0.479826
C101	C	-0.401700	-1.115283	-0.941391
C102	C	0.098300	-0.615283	-0.441391
C103	C	-0.401713	-1.115308	-0.192599
C104	C	0.098287	-0.615308	0.307401
C105	C	-0.401735	-1.115349	-0.105351
C106	C	0.098265	-0.615349	0.394649
H107	H	-0.916960	-1.049852	-0.462614
H108	H	-0.416960	-0.549852	0.037386
H109	H	-0.887207	-1.180728	-0.331828
H110	H	-0.387207	-0.680728	0.168172
H111	H	-0.498297	-1.019441	-0.700785
H112	H	0.001703	-0.519441	-0.200785
H113	H	-0.498327	-1.019507	-0.849519
H114	H	0.001673	-0.519507	-0.349519
O115	O	-0.506644	-0.817722	-0.501477
O116	O	-0.006644	-0.317722	-0.001477
C117	C	-0.553609	-0.761724	-0.548102
C118	C	-0.053609	-0.261724	-0.048102
H119	H	-0.556560	-0.703158	-0.516098
H120	H	-0.056560	-0.203158	-0.016098
H121	H	-0.619277	-0.782298	-0.559691
H122	H	-0.119277	-0.282298	-0.059691
H123	H	-0.522969	-0.754435	-0.606219
H124	H	-0.022969	-0.254435	-0.106219
H125	H	-0.305120	-0.672267	-0.301530
H126	H	0.194880	-0.172267	0.198470
O127	O	-0.296569	-1.219287	-0.937608
O128	O	0.203431	-0.719287	-0.437608
C129	C	-0.213464	-1.206142	-0.953719
C130	C	0.286536	-0.706142	-0.453719
H131	H	-0.211716	-1.176077	-1.013184
H132	H	0.288284	-0.676077	-0.513184
H133	H	-0.176138	-1.264598	-0.954714
H134	H	0.323862	-0.764598	-0.454714
H135	H	-0.185337	-1.167122	-0.906287
H136	H	0.314663	-0.667122	-0.406287
H137	H	-0.498224	-0.663080	-0.493159
H138	H	0.001776	-0.163080	0.006841
H139	H	-0.305101	-0.820999	-0.301515
H140	H	0.194899	-0.320999	0.198485
O141	O	-0.506673	-0.564875	-0.501496
O142	O	-0.006673	-0.064875	-0.001496
C143	C	-0.553640	-0.508884	-0.548128
C144	C	-0.053640	-0.008884	-0.048128
H145	H	-0.556599	-0.450316	-0.516128
H146	H	-0.056599	0.049684	-0.016128
H147	H	-0.619305	-0.529464	-0.559718
H148	H	-0.119305	-0.029464	-0.059718
H149	H	-0.522998	-0.501597	-0.606243
H150	H	-0.022998	-0.001597	-0.106243
H151	H	-0.305130	-0.568148	-0.301530
H152	H	0.194870	-0.068148	0.198470
O153	O	-0.296602	-1.219287	-0.684798
O154	O	0.203398	-0.719287	-0.184798
C155	C	-0.249585	-1.265873	-0.736305
C156	C	0.250415	-0.765873	-0.236305
H157	H	-0.283750	-1.266966	-0.796350
H158	H	0.216250	-0.766966	-0.296350
H159	H	-0.240745	-1.328137	-0.712152
H160	H	0.259255	-0.828137	-0.212152
H161	H	-0.186244	-1.240188	-0.742064
H162	H	0.313756	-0.740188	-0.242064
O163	O	-0.506596	-0.403268	-0.501404
O164	O	-0.006596	0.096732	-0.001404
C165	C	-0.495185	-0.322665	-0.490099
C166	C	0.004815	0.177335	0.009901
H167	H	-0.468001	-0.312775	-0.428187
H168	H	0.031999	0.187225	0.071813
H169	H	-0.557626	-0.288555	-0.498487
H170	H	-0.057626	0.211445	0.001513
H171	H	-0.450702	-0.301487	-0.534479
H172	H	0.049298	0.198513	-0.034479
H173	H	-0.305088	-1.211095	-1.093104
H174	H	0.194912	-0.711095	-0.593104
O175	O	-0.296682	-0.413448	-0.293285
O176	O	0.203318	0.086552	0.206715
C177	C	-0.213544	-0.437374	-0.306350
C178	C	0.286456	0.062626	0.193650
H179	H	-0.211723	-0.496978	-0.336419
H180	H	0.288277	0.003022	0.163581
H181	H	-0.176285	-0.441937	-0.247861
H182	H	0.323715	0.058063	0.252139
H183	H	-0.185396	-0.392554	-0.345334
H184	H	0.314604	0.107446	0.154666
O185	O	-0.506831	-1.011294	-1.109098
O186	O	-0.006831	-0.511294	-0.609098
C187	C	-0.553832	-0.964686	-1.057597
C188	C	-0.053832	-0.464686	-0.557597
H189	H	-0.556733	-0.996669	-0.999268
H190	H	-0.056733	-0.496669	-0.499268
H191	H	-0.619515	-0.953165	-1.084390
H192	H	-0.119515	-0.453165	-0.584390
H193	H	-0.523257	-0.906534	-1.047490
H194	H	-0.023257	-0.406534	-0.547490
O195	O	-0.506602	-1.011214	-0.947504
O196	O	-0.006602	-0.511214	-0.447504
C197	C	-0.459078	-0.962775	-0.897900
C198	C	0.040922	-0.462775	-0.397900
H199	H	-0.395924	-0.993505	-0.882616
H200	H	0.104076	-0.493505	-0.382616
H201	H	-0.493016	-0.950590	-0.841863
H202	H	0.006984	-0.450590	-0.341863
H203	H	-0.449866	-0.905062	-0.929110
H204	H	0.050134	-0.405062	-0.429110
H205	H	-0.305036	-1.210988	-0.840245
H206	H	0.194964	-0.710988	-0.340245
