data_functionalizedCrystal
_audit_creation_method	'MofGen! by Chris Wilmer'
_symmetry_space_group_name_H-M	'P1'
_symmetry_Int_Tables_number	1
_symmetry_cell_setting	triclinic
loop_
_symmetry_equiv_pos_as_xyz
  x,y,z
_cell_length_a	6.817900
_cell_length_b	12.840976
_cell_length_c	16.255699
_cell_angle_alpha	81.395844
_cell_angle_beta	103.489404
_cell_angle_gamma	88.343600
loop_
_atom_site_label
_atom_site_type_symbol
_atom_site_fract_x
_atom_site_fract_y
_atom_site_fract_z
V1	V	-3.898250	0.325564	-0.119080
O2	O	-3.888319	0.319010	0.003676
O3	O	-3.850541	0.323680	-0.234148
O4	O	-3.793849	0.467397	-0.118147
O5	O	-3.945404	0.174298	-0.113129
V6	V	-4.389045	0.307430	-0.104291
O7	O	-4.143557	0.365343	-0.151522
O8	O	-4.593936	0.267651	-0.071850
O9	O	-4.213548	0.309314	0.010777
O10	O	-4.516373	0.313983	-0.227047
O11	O	-4.459289	0.458696	-0.110243
O12	O	-4.270240	0.165596	-0.105225
C13	C	-3.697522	0.318632	-0.262171
C14	C	-3.739428	0.318037	-0.356246
C15	C	-3.621077	0.620089	-0.114213
C16	C	-3.625206	0.501956	-0.114207
C17	C	-4.085242	0.012910	-0.109215
C18	C	-4.102242	0.131036	-0.109190
C19	C	-3.652699	0.311218	-0.579031
C20	C	-3.769520	0.227166	-0.626136
C21	C	-3.816239	0.316998	-0.528494
C22	C	-3.774107	0.400000	-0.649016
C23	C	-3.890420	0.315998	-0.694877
C24	C	-3.932506	0.232882	-0.574350
C25	C	-3.937066	0.405794	-0.597235
C26	C	-4.054013	0.321725	-0.644315
C27	C	-3.773499	0.317573	-0.432644
C28	C	-3.933173	0.315416	-0.790724
V29	V	-3.881214	0.811731	-0.119112
O30	O	-3.917770	0.962924	-0.113174
O31	O	-3.786940	0.664542	-0.118165
O32	O	-3.831970	0.853454	-0.234180
O33	O	-3.872429	0.772704	0.003645
V34	V	-4.370067	0.849138	-0.104331
O35	O	-4.128456	0.796295	-0.151554
O36	O	-4.572231	0.887262	-0.071895
O37	O	-4.241528	0.985079	-0.105275
O38	O	-4.450702	0.703862	-0.110271
O39	O	-4.496043	0.894082	-0.227089
O40	O	-4.196498	0.796167	0.010740
C41	C	-4.029910	0.314359	0.038795
C42	C	-3.967240	0.314960	0.132869
C43	C	-3.678503	0.861066	-0.262197
C44	C	-3.719076	0.898318	-0.356273
C45	C	-4.013898	0.771586	0.038767
C46	C	-3.952600	0.733296	0.132844
C47	C	-3.918193	0.921279	-0.404799
C48	C	-3.956342	0.956297	-0.493192
C49	C	-3.795374	0.968347	-0.533057
C50	C	-3.596241	0.945386	-0.484524
C51	C	-3.558093	0.910376	-0.396132
C52	C	-3.749752	0.702903	0.172693
C53	C	-3.692125	0.666938	0.261090
C54	C	-3.837351	0.661360	0.309635
C55	C	-4.040215	0.691760	0.269781
C56	C	-4.097837	0.727731	0.181386
H57	H	-3.482666	0.306674	-0.550500
C58	C	-3.773947	0.621779	0.406865
H59	H	-3.632336	0.604468	0.423637
H60	H	-3.806976	0.675557	0.436575
H61	H	-3.843387	0.560872	0.420363
H62	H	-4.158444	0.687214	0.309320
C63	C	-3.684172	0.495394	-0.692907
H64	H	-3.541968	0.491524	-0.670411
H65	H	-3.712720	0.494714	-0.752875
H66	H	-3.742317	0.558796	-0.682494
C67	C	-3.468982	0.633490	0.304911
H68	H	-3.390763	0.641947	0.263332
H69	H	-3.421031	0.676279	0.347310
H70	H	-3.457489	0.561592	0.331114
C71	C	-3.419191	0.958632	-0.528382
H72	H	-3.295125	0.939949	-0.486826
H73	H	-3.432406	0.914094	-0.570789
H74	H	-3.420798	1.030032	-0.554579
H75	H	-4.118498	0.974985	-0.532696
H76	H	-3.826464	0.996855	-0.605033
H77	H	-3.395949	0.891678	-0.356629
C78	C	-4.095279	0.908032	-0.360964
H79	H	-4.219318	0.926735	-0.402532
H80	H	-4.093695	0.836638	-0.334769
H81	H	-4.082099	0.952575	-0.318556
C82	C	-3.589977	0.709038	0.119310
H83	H	-3.460919	0.685795	0.155715
H84	H	-3.623392	0.665214	0.076547
H85	H	-3.587016	0.779905	0.092749
H86	H	-3.699133	0.151636	-0.639280
C87	C	-4.022388	0.137369	-0.530592
H88	H	-4.086788	0.097167	-0.572519
H89	H	-3.917338	0.094585	-0.489712
H90	H	-4.118521	0.161436	-0.502560
C91	C	-4.283782	0.327690	-0.682637
H92	H	-4.340018	0.268281	-0.656719
H93	H	-4.343696	0.390579	-0.672175
H94	H	-4.309377	0.327865	-0.742664
C95	C	-4.320981	0.761144	0.137559
H96	H	-4.399206	0.752656	0.179135
H97	H	-4.332528	0.833034	0.111349
H98	H	-4.368891	0.718335	0.095166
H99	H	-4.007378	0.481323	-0.584068
