data_functionalizedCrystal
_audit_creation_method	'MofGen! by Chris Wilmer'
_symmetry_space_group_name_H-M	'P1'
_symmetry_Int_Tables_number	1
_symmetry_cell_setting	triclinic
loop_
_symmetry_equiv_pos_as_xyz
  x,y,z
_cell_length_a	19.077105
_cell_length_b	19.076808
_cell_length_c	19.076919
_cell_angle_alpha	90.121640
_cell_angle_beta	89.923776
_cell_angle_gamma	89.927608
loop_
_atom_site_label
_atom_site_type_symbol
_atom_site_fract_x
_atom_site_fract_y
_atom_site_fract_z
Zn1	Zn	1.045199	-0.339419	0.426239
Zn2	Zn	1.045494	-0.452227	0.304020
Zn3	Zn	0.932779	-0.330021	0.304425
Zn4	Zn	0.923332	-0.451803	0.416790
O5	O	0.986701	-0.393368	0.362869
O6	O	1.143411	-0.358494	0.413811
O7	O	1.034619	-0.432259	0.205899
O8	O	0.951521	-0.233091	0.324708
O9	O	1.143629	-0.441373	0.324017
O10	O	1.034116	-0.239996	0.414204
O11	O	0.951807	-0.342475	0.206197
O12	O	0.833352	-0.342065	0.315546
O13	O	0.935421	-0.440652	0.516218
O14	O	0.826412	-0.431538	0.398100
O15	O	1.024956	-0.358084	0.523160
O16	O	1.025460	-0.550347	0.314855
O17	O	0.935708	-0.550036	0.397707
C18	C	0.804427	-0.385736	0.355842
C19	C	0.726447	-0.382489	0.352852
C20	C	0.979609	-0.575649	0.355228
C21	C	0.976638	-0.653633	0.351985
C22	C	0.686218	-0.427613	0.394355
C23	C	0.612949	-0.424553	0.391549
C24	C	0.579910	-0.376372	0.347236
C25	C	0.620145	-0.331244	0.305731
C26	C	0.693413	-0.334301	0.308541
C27	C	0.361168	-0.362223	0.334234
C28	C	0.287894	-0.359171	0.331426
C29	C	0.280703	-0.452479	0.417246
C30	C	0.353973	-0.455535	0.420048
C31	C	0.394201	-0.410404	0.378546
N32	N	0.505017	-0.373244	0.344365
N33	N	0.469093	-0.413529	0.381421
C34	C	1.018210	-0.693805	0.397092
C35	C	1.015416	-0.767080	0.394047
C36	C	0.971053	-0.800181	0.345889
C37	C	0.929477	-0.760004	0.300780
C38	C	0.932268	-0.686731	0.303830
C39	C	0.958095	-1.018945	0.331771
C40	C	0.955309	-1.092224	0.328723
C41	C	1.041248	-1.099295	0.421991
C42	C	1.044038	-1.026020	0.425034
C43	C	1.002459	-0.985849	0.379927
N44	N	0.968198	-0.875079	0.342773
N45	N	1.005311	-0.910952	0.383047
C46	C	1.169687	-0.401029	0.369923
C47	C	1.247665	-0.404294	0.372929
C48	C	0.979102	-0.400369	0.545856
C49	C	0.975864	-0.403353	0.623835
C50	C	0.993839	-0.210376	0.370555
C51	C	0.996881	-0.132395	0.373831
C52	C	0.994313	-0.386344	0.180596
C53	C	0.997695	-0.383169	0.102632
C54	C	1.020956	-0.361767	0.664084
C55	C	1.017905	-0.364568	0.737353
C56	C	0.969764	-0.408957	0.770371
C57	C	0.924667	-0.450544	0.730116
C58	C	0.927715	-0.447740	0.656848
C59	C	0.955646	-0.421951	0.989109
C60	C	0.952602	-0.424754	1.062382
C61	C	1.045839	-0.338776	1.069614
C62	C	1.048886	-0.335979	0.996345
C63	C	1.003787	-0.377563	0.956097
N64	N	0.966646	-0.411822	0.845263
N65	N	1.006902	-0.374694	0.881206
H66	H	0.713113	-0.466849	0.430437
C67	C	1.073910	-0.312940	0.627768
H68	H	1.069274	-0.317229	0.578367
H69	H	1.064983	-0.265832	0.641360
H70	H	1.120149	-0.325646	0.641166
C71	C	1.067510	-0.318828	0.781625
H72	H	1.096623	-0.291997	0.751467
H73	H	1.040680	-0.288226	0.810455
H74	H	1.095841	-0.348046	0.810259
H75	H	0.898415	-0.654023	0.267099
C76	C	0.737668	-0.284667	0.262888
H77	H	0.786035	-0.293383	0.270914
H78	H	0.727215	-0.292552	0.214845
H79	H	0.727063	-0.237438	0.274755
H80	H	0.580197	-0.461297	0.425345
H81	H	1.088089	-0.299834	0.969468
C82	C	1.095439	-0.293033	1.113889
H83	H	1.086727	-0.301055	1.162253
H84	H	1.142675	-0.304812	1.103270
H85	H	1.087503	-0.245003	1.103464
H86	H	0.380868	-0.494770	0.456132
H87	H	0.247941	-0.489221	0.451035
C88	C	1.067001	-0.657400	0.450074
H89	H	1.091351	-0.691822	0.476509
H90	H	1.099797	-0.629047	0.425642
H91	H	1.039946	-0.628880	0.480773
C92	C	0.878131	-0.493501	0.612574
H93	H	0.849032	-0.520349	0.642730
H94	H	0.849794	-0.464304	0.583930
H95	H	0.904982	-0.524098	0.583753
H96	H	1.075098	-1.132009	0.458715
H97	H	0.393913	-0.325480	0.300435
C98	C	0.251553	-0.306165	0.282684
H99	H	0.286004	-0.279720	0.258374
H100	H	0.223195	-0.330589	0.249851
H101	H	0.223046	-0.275478	0.309764
C102	C	1.092849	-0.989613	0.477996
H103	H	1.117208	-1.024033	0.504425
H104	H	1.125635	-0.961271	0.453540
H105	H	1.065815	-0.961082	0.508703
H106	H	0.919180	-1.119172	0.289507
H107	H	0.913398	-0.460903	1.089262
H108	H	0.918932	-0.455822	0.956347
C109	C	0.871714	-0.499372	0.766433
H110	H	0.876361	-0.495093	0.815834
H111	H	0.825477	-0.486673	0.753038
H112	H	0.880648	-0.546483	0.752840
H113	H	0.593239	-0.292011	0.269653
H114	H	1.049274	-0.799785	0.430773
C115	C	0.912370	-0.974766	0.282147
H116	H	0.885558	-1.004977	0.253024
H117	H	0.881751	-0.945945	0.308961
H118	H	0.941596	-0.946127	0.253825
H119	H	0.893352	-0.786961	0.261572
