data_functionalizedCrystal
_audit_creation_method	'MofGen! by Chris Wilmer'
_symmetry_space_group_name_H-M	'P1'
_symmetry_Int_Tables_number	1
_symmetry_cell_setting	triclinic
loop_
_symmetry_equiv_pos_as_xyz
  x,y,z
_cell_length_a	34.408637
_cell_length_b	34.407814
_cell_length_c	34.404193
_cell_angle_alpha	60.004510
_cell_angle_beta	60.009006
_cell_angle_gamma	59.994604
loop_
_atom_site_label
_atom_site_type_symbol
_atom_site_fract_x
_atom_site_fract_y
_atom_site_fract_z
O1	O	0.053973	-0.567860	0.474801
O2	O	0.553973	-0.067860	0.974801
O3	O	0.020377	-0.442124	0.382567
O4	O	0.520377	0.057876	0.882567
O5	O	0.100004	-0.521670	0.382483
O6	O	0.600004	-0.021670	0.882483
O7	O	-0.025653	-0.488314	0.474886
O8	O	0.474347	0.011686	0.974886
O9	O	0.126426	-0.495253	0.408816
O10	O	0.626426	0.004747	0.908816
O11	O	0.046800	-0.415707	0.408900
O12	O	0.546800	0.084293	0.908900
O13	O	0.080396	-0.541443	0.501134
O14	O	0.580396	-0.041443	1.001134
Zn15	Zn	0.067793	-0.474381	0.459198
Zn16	Zn	0.567793	0.025619	0.959198
Zn17	Zn	0.032980	-0.509186	0.424503
Zn18	Zn	0.532980	-0.009186	0.924503
O19	O	0.000769	-0.461897	0.501219
O20	O	0.500769	0.038103	1.001219
N21	N	0.091552	-0.450631	0.482879
N22	N	0.591552	0.049369	0.982879
N23	N	0.009225	-0.532940	0.400823
N24	N	0.509225	-0.032940	0.900823
C25	C	0.142848	-0.268847	0.534081
C26	C	0.642848	0.231153	1.034081
C27	C	0.142979	-0.399386	0.664559
C28	C	0.642979	0.100614	1.164559
C29	C	0.142862	-0.399365	0.534081
C30	C	0.642862	0.100635	1.034081
C31	C	0.273409	-0.399338	0.533986
C32	C	0.773409	0.100662	1.033986
C33	C	0.157225	-0.311914	0.548422
C34	C	0.657225	0.188086	1.048422
C35	C	0.157300	-0.385019	0.621491
C36	C	0.657300	0.114981	1.121491
C37	C	0.230339	-0.384991	0.548370
C38	C	0.730339	0.115009	1.048370
C39	C	0.157235	-0.385007	0.548422
C40	C	0.657235	0.114993	1.048422
C41	C	0.124548	-0.214028	0.515827
C42	C	0.624548	0.285972	1.015827
C43	C	0.124571	-0.417639	0.515827
C44	C	0.624571	0.082361	1.015827
C45	C	0.175526	-0.366733	0.566676
C46	C	0.675526	0.133267	1.066676
C47	C	0.353121	-0.385580	0.491988
C48	C	0.853121	0.114420	0.991988
C49	C	0.402952	-0.402180	0.475348
C50	C	0.902952	0.097820	0.975348
C51	C	0.402981	-0.482812	0.506096
C52	C	0.902981	0.017188	1.006096
C53	C	0.353151	-0.466211	0.522737
C54	C	0.853151	0.033789	1.022737
C55	C	0.136544	-0.189099	0.466839
C56	C	0.636544	0.310901	0.966839
C57	C	0.119905	-0.139265	0.450247
C58	C	0.619905	0.360735	0.950247
C59	C	0.079280	-0.139291	0.531632
C60	C	0.579280	0.360709	1.031632
C61	C	0.095918	-0.189125	0.548224
C62	C	0.595918	0.310875	1.048224
C63	C	0.075577	-0.405615	0.527900
C64	C	0.575577	0.094385	1.027900
C65	C	0.058953	-0.422228	0.511301
C66	C	0.558953	0.077772	1.011301
C67	C	0.140315	-0.462889	0.470566
C68	C	0.640315	0.037111	0.970566
C69	C	0.156941	-0.446276	0.487159
C70	C	0.656941	0.053724	0.987159
C71	C	0.075772	-0.405653	0.744326
C72	C	0.575772	0.094347	1.244326
C73	C	0.059206	-0.422280	0.794159
C74	C	0.559206	0.077720	1.294159
C75	C	0.140607	-0.462951	0.794094
C76	C	0.640607	0.037049	1.294094
C77	C	0.157172	-0.446325	0.744260
C78	C	0.657172	0.053675	1.244260
C79	C	0.124753	-0.417674	0.719377
C80	C	0.624753	0.082326	1.219377
C81	C	0.328223	-0.417595	0.515681
C82	C	0.828223	0.082405	1.015681
C83	C	-0.172390	-0.583988	0.349141
C84	C	0.327610	-0.083988	0.849141
C85	C	-0.041751	-0.584138	0.218783
C86	C	0.458249	-0.084138	0.718783
C87	C	-0.041941	-0.584130	0.349402
C88	C	0.458059	-0.084130	0.849402
C89	C	-0.041957	-0.714607	0.349338
C90	C	0.458043	-0.214607	0.849338
C91	C	-0.129326	-0.598388	0.334853
C92	C	0.370674	-0.098388	0.834853
C93	C	-0.056165	-0.598473	0.261852
C94	C	0.443835	-0.098473	0.761852
C95	C	-0.056282	-0.671535	0.334962
C96	C	0.443718	-0.171535	0.834962
C97	C	-0.056272	-0.598469	0.334999
C98	C	0.443728	-0.098469	0.834999
C99	C	-0.227205	-0.565659	0.367327
C100	C	0.272795	-0.065659	0.867327
C101	C	-0.023703	-0.565882	0.367734
C102	C	0.476297	-0.065882	0.867734
C103	C	-0.074511	-0.616717	0.316667
C104	C	0.425489	-0.116717	0.816667
C105	C	-0.055754	-0.794298	0.391257
C106	C	0.444246	-0.294298	0.891257
C107	C	-0.039181	-0.844132	0.407888
C108	C	0.460819	-0.344132	0.907888
C109	C	0.041447	-0.844215	0.377269
C110	C	0.541447	-0.344215	0.877269
C111	C	0.024873	-0.794381	0.360637
C112	C	0.524873	-0.294381	0.860637
C113	C	-0.252183	-0.577666	0.416302
C114	C	0.247817	-0.077666	0.916302
C115	C	-0.302014	-0.561001	0.432833
C116	C	0.197986	-0.061001	0.932833
C117	C	-0.301886	-0.520329	0.351410
C118	C	0.198114	-0.020329	0.851410
C119	C	-0.252055	-0.536994	0.334880
C120	C	0.247945	-0.036994	0.834880
C121	C	-0.035709	-0.516892	0.355682
C122	C	0.464291	-0.016892	0.855682
C123	C	-0.019129	-0.500308	0.372353
C124	C	0.480871	-0.000308	0.872353
C125	C	0.021465	-0.581700	0.413115
C126	C	0.521465	-0.081700	0.913115
C127	C	0.004884	-0.598286	0.396450
C128	C	0.504884	-0.098286	0.896450
C129	C	-0.035389	-0.516907	0.139026
C130	C	0.464611	-0.016907	0.639026
C131	C	-0.018707	-0.500324	0.089193
C132	C	0.481293	-0.000324	0.589193
C133	C	0.021949	-0.581721	0.089240
C134	C	0.521949	-0.081721	0.589240
C135	C	0.005268	-0.598303	0.139074
C136	C	0.505268	-0.098303	0.639074
C137	C	-0.023402	-0.565894	0.163965
C138	C	0.476598	-0.065894	0.663965
C139	C	-0.023728	-0.769425	0.367633
C140	C	0.476272	-0.269425	0.867633
N141	N	0.427173	-0.450553	0.482630
N142	N	0.927173	0.049447	0.982630
O143	O	0.589997	-0.458460	0.365361
O144	O	1.089997	0.041540	0.865361
O145	O	0.590185	-0.550997	0.490963
O146	O	1.090185	-0.050997	0.990963
O147	O	0.590104	-0.550786	0.411309
O148	O	1.090104	-0.050786	0.911309
O149	O	0.590077	-0.458671	0.445016
O150	O	1.090077	0.041329	0.945016
O151	O	0.510940	-0.524462	0.437777
O152	O	1.010940	-0.024462	0.937777
O153	O	0.511020	-0.524674	0.517432
O154	O	1.011020	-0.024674	1.017432
O155	O	0.510832	-0.432136	0.391830
O156	O	1.010832	0.067864	0.891830
Zn157	Zn	0.498357	-0.474225	0.458833
Zn158	Zn	0.998357	0.025775	0.958833
Zn159	Zn	0.602660	-0.508908	0.423960
Zn160	Zn	1.102660	-0.008908	0.923960
O161	O	0.510913	-0.432348	0.471484
O162	O	1.010913	0.067652	0.971484
N163	N	0.673844	-0.532580	0.400158
N164	N	1.173844	-0.032580	0.900158
N165	N	0.091520	-0.115070	0.482873
N166	N	0.591520	0.384930	0.982873
O167	O	-0.025663	0.047841	0.474857
O168	O	0.474337	0.547841	0.974857
O169	O	0.099940	0.047877	0.382299
O170	O	0.599940	0.547877	0.882299
O171	O	0.020247	0.047844	0.382560
O172	O	0.520247	0.547844	0.882560
O173	O	0.054030	0.047874	0.474596
O174	O	0.554030	0.547874	0.974596
O175	O	0.046674	-0.031326	0.408942
O176	O	0.546674	0.468674	0.908942
O177	O	0.126367	-0.031293	0.408680
O178	O	0.626367	0.468707	0.908680
O179	O	0.000764	-0.031329	0.501238
O180	O	0.500764	0.468671	1.001238
Zn181	Zn	0.067761	-0.043881	0.459148
Zn182	Zn	0.567761	0.456119	0.959148
Zn183	Zn	0.032943	0.060429	0.424389
Zn184	Zn	0.532943	0.560429	0.924389
O185	O	0.080457	-0.031296	0.500977
O186	O	0.580457	0.468704	1.000977
N187	N	0.009178	0.131618	0.400665
N188	N	0.509178	0.631618	0.900665
N189	N	0.091852	-0.450680	0.818332
N190	N	0.591852	0.049320	1.318332
O191	O	0.083862	-0.567845	0.981235
O192	O	0.583862	-0.067845	1.481235
O193	O	-0.008657	-0.442198	0.981276
O194	O	0.491343	0.057802	1.481276
O195	O	-0.008441	-0.521875	0.981252
O196	O	0.491559	-0.021875	1.481252
O197	O	0.083646	-0.488168	0.981258
O198	O	0.583646	0.011832	1.481258
O199	O	0.017919	-0.495468	0.902085
O200	O	0.517919	0.004532	1.402085
O201	O	0.017703	-0.415791	0.902109
O202	O	0.517703	0.084209	1.402109
O203	O	0.110222	-0.541438	0.902067
O204	O	0.610222	-0.041438	1.402067
Zn205	Zn	0.068148	-0.474422	0.889518
Zn206	Zn	0.568148	0.025578	1.389518
Zn207	Zn	0.033417	-0.509214	0.993825
Zn208	Zn	0.533417	-0.009214	1.493825
O209	O	0.110006	-0.461761	0.902091
O210	O	0.610006	0.038239	1.402091
N211	N	0.009712	-0.532961	1.065011
N212	N	0.509712	-0.032961	1.565011
C213	C	0.030439	-0.413071	0.383027
C214	C	0.530439	0.086929	0.883027
C215	C	0.129046	-0.511580	0.382922
C216	C	0.629046	-0.011580	0.882922
C217	C	0.070334	-0.570496	0.500675
C218	C	0.570334	-0.070496	1.000675
C219	C	-0.028274	-0.471987	0.500780
C220	C	0.471726	0.028013	1.000780
C221	C	0.550625	-0.550579	0.520021
C222	C	1.050625	-0.050579	1.020021
C223	C	0.550527	-0.550317	0.421379
C224	C	1.050527	-0.050317	0.921379
C225	C	0.550389	-0.432554	0.362773
C226	C	1.050389	0.067446	0.862773
C227	C	0.550491	-0.432816	0.461414
C228	C	1.050491	0.067184	0.961414
C229	C	0.128944	0.008394	0.382712
C230	C	0.628944	0.508394	0.882712
C231	C	0.030287	0.008256	0.383068
C232	C	0.530287	0.508256	0.883068
C233	C	-0.028273	0.008252	0.500793
C234	C	0.471727	0.508252	1.000793
C235	C	0.070417	0.008292	0.500470
C236	C	0.570417	0.508292	1.000470
C237	C	-0.008218	-0.413165	0.941698
C238	C	0.491782	0.086835	1.441698
C239	C	-0.007945	-0.511830	0.941653
C240	C	0.492055	-0.011830	1.441653
C241	C	0.109783	-0.570471	0.941646
C242	C	0.609783	-0.070471	1.441646
C243	C	0.109516	-0.471800	0.941673
C244	C	0.609516	0.028200	1.441673
H245	H	0.019320	-0.412483	0.814467
H246	H	0.519320	0.087517	1.314467
H247	H	0.023260	-0.376951	0.354059
H248	H	0.523260	0.123049	0.854059
O249	O	-0.042489	-0.520422	0.941695
O250	O	0.457511	-0.020422	1.441695
C251	C	-0.082642	-0.515127	0.982683
C252	C	0.417358	-0.015127	1.482683
H253	H	-0.071265	-0.520301	1.011365
H254	H	0.428735	-0.020301	1.511365
H255	H	-0.109609	-0.477952	0.973416
H256	H	0.390391	0.022048	1.473416
C257	C	-0.119418	-0.546220	0.966000
C258	C	0.380582	-0.046220	1.466000
C259	C	-0.105444	-0.552578	1.001230
C260	C	0.394556	-0.052578	1.501230
H261	H	-0.133485	-0.569319	0.977441
H262	H	0.366515	-0.069319	1.477441
H263	H	-0.092368	-0.549785	0.938385
H264	H	0.407632	-0.049785	1.438385
H265	H	-0.141889	-0.515239	0.958281
H266	H	0.358111	-0.015239	1.458281
H267	H	-0.082970	-0.583556	1.008944
H268	H	0.417030	-0.083556	1.508944
H269	H	-0.132492	-0.549019	1.028847
H270	H	0.367508	-0.049019	1.528847
O271	O	-0.042918	-0.370136	0.941690
O272	O	0.457082	0.129864	1.441690
C273	C	-0.083893	-0.370152	0.941704
C274	C	0.416107	0.129848	1.441704
H275	H	-0.073341	-0.398340	0.926708
H276	H	0.426659	0.101660	1.426708
H277	H	-0.109757	-0.378469	0.979686
H278	H	0.390243	0.121531	1.479686
C279	C	-0.120929	-0.286235	0.929088
C280	C	0.379071	0.213765	1.429088
C281	C	-0.107968	-0.320853	0.910665
C282	C	0.392032	0.179147	1.410665
H283	H	-0.135782	-0.255825	0.909943
H284	H	0.364218	0.244175	1.409943
H285	H	-0.093324	-0.286224	0.929080
H286	H	0.406676	0.213776	1.429080
H287	H	-0.142481	-0.293172	0.960739
H288	H	0.357519	0.206828	1.460739
H289	H	-0.086413	-0.313920	0.879016
H290	H	0.413587	0.186080	1.379016
H291	H	-0.135570	-0.320862	0.910667
H292	H	0.364430	0.179138	1.410667
H293	H	-0.064344	0.008241	0.529850
H294	H	0.435656	0.508241	1.029850
H295	H	0.550485	-0.403881	0.468626
H296	H	1.050485	0.096119	0.968626
O297	O	0.171905	0.008692	0.348003
O298	O	0.671905	0.508692	0.848003
C299	C	0.201521	0.008785	0.365087
C300	C	0.701521	0.508785	0.865087
H301	H	0.178632	0.023614	0.395756
H302	H	0.678632	0.523614	0.895756
H303	H	0.225747	-0.029143	0.378129
H304	H	0.725747	0.470857	0.878129
C305	C	0.260181	0.021877	0.287035
C306	C	0.760181	0.521877	0.787035
C307	C	0.232068	0.040094	0.324701
C308	C	0.732068	0.540094	0.824701
H309	H	0.279026	0.041188	0.262122
H310	H	0.779026	0.541188	0.762122
H311	H	0.240230	0.021812	0.275525
H312	H	0.740230	0.521812	0.775525
H313	H	0.280365	-0.009730	0.297909
H314	H	0.780365	0.490270	0.797909
H315	H	0.211881	0.071698	0.313827
H316	H	0.711881	0.571698	0.813827
H317	H	0.252017	0.040165	0.336208
H318	H	0.752017	0.540165	0.836208
O319	O	0.021731	0.008268	0.348511
O320	O	0.521731	0.508268	0.848511
C321	C	0.062590	0.008264	0.307424
C322	C	0.562590	0.508264	0.807424
H323	H	0.085326	0.023265	0.307809
H324	H	0.585326	0.523265	0.807809
H325	H	0.084081	-0.029716	0.306851
H326	H	0.584081	0.470284	0.806851
C327	C	0.019556	0.020881	0.262324
C328	C	0.519556	0.520881	0.762324
C329	C	0.047478	0.039308	0.262795
C330	C	0.547478	0.539308	0.762795
H331	H	0.010235	0.040028	0.234794
H332	H	0.510235	0.540028	0.734794
H333	H	-0.007971	0.020881	0.290005
H334	H	0.492029	0.520881	0.790005
H335	H	0.037469	-0.010770	0.261848
H336	H	0.537469	0.489230	0.761848
H337	H	0.029563	0.070956	0.263277
H338	H	0.529563	0.570956	0.763277
H339	H	0.075002	0.039314	0.235113
H340	H	0.575002	0.539314	0.735113
H341	H	-0.064365	-0.464880	0.529794
H342	H	0.435635	0.035120	1.029794
H343	H	0.077653	0.008301	0.529384
H344	H	0.577653	0.508301	1.029384
O345	O	0.550476	-0.584857	0.412855
O346	O	1.050476	-0.084857	0.912855
C347	C	0.509506	-0.597696	0.445507
C348	C	1.009506	-0.097696	0.945507
H349	H	0.495862	-0.588220	0.478503
H350	H	0.995862	-0.088220	0.978503
H351	H	0.480762	-0.577620	0.428286
H352	H	0.980762	-0.077620	0.928286
C353	C	0.538766	-0.663281	0.419341
C354	C	1.038766	-0.163281	0.919341
C355	C	0.522012	-0.651646	0.459868
C356	C	1.022012	-0.151646	0.959868
H357	H	0.546480	-0.696559	0.428199
H358	H	1.046480	-0.196559	0.928199
H359	H	0.566368	-0.654631	0.397341
H360	H	1.066368	-0.154631	0.897341
H361	H	0.514811	-0.646547	0.404994
H362	H	1.014811	-0.146547	0.904994
H363	H	0.545970	-0.668376	0.474212
H364	H	1.045970	-0.168376	0.974212
H365	H	0.494414	-0.660301	0.481871
H366	H	0.994414	-0.160301	0.981871
O367	O	-0.063311	-0.485443	0.163225
O368	O	0.436689	0.014557	0.663225
C369	C	-0.107632	-0.492573	0.191990
C370	C	0.392368	0.007427	0.691990
H371	H	-0.114456	-0.510647	0.176939
H372	H	0.385544	-0.010647	0.676939
H373	H	-0.107247	-0.516082	0.229778
H374	H	0.392753	-0.016082	0.729778
C375	C	-0.138967	-0.421992	0.211183
C376	C	0.361033	0.078008	0.711183
C377	C	-0.147350	-0.444187	0.192695
C378	C	0.352650	0.055813	0.692695
H379	H	-0.163467	-0.392145	0.211620
H380	H	0.336533	0.107855	0.711620
H381	H	-0.109107	-0.417189	0.191805
H382	H	0.390893	0.082811	0.691805
H383	H	-0.138646	-0.441587	0.242671
H384	H	0.361354	0.058413	0.742671
H385	H	-0.147666	-0.424594	0.161205
H386	H	0.352334	0.075406	0.661205
H387	H	-0.177212	-0.448985	0.212068
H388	H	0.322788	0.051015	0.712068
H389	H	0.077514	-0.606615	0.529644
H390	H	0.577514	-0.106615	1.029644
H391	H	0.138832	-0.606554	0.941627
H392	H	0.638832	-0.106554	1.441627
O393	O	0.550339	-0.397950	0.319708
O394	O	1.050339	0.102050	0.819708
C395	C	0.550306	-0.415085	0.290096
C396	C	1.050306	0.084915	0.790096
H397	H	0.565338	-0.455632	0.302963
H398	H	1.065338	0.044368	0.802963
H399	H	0.512314	-0.403017	0.291426
H400	H	1.012314	0.096983	0.791426
C401	C	0.562822	-0.345531	0.222768
C402	C	1.062822	0.154469	0.722768
C403	C	0.581288	-0.395332	0.238569
C404	C	1.081288	0.104668	0.738569
H405	H	0.581931	-0.333345	0.190983
H406	H	1.081931	0.166655	0.690983
H407	H	0.562842	-0.333986	0.242718
H408	H	1.062842	0.166014	0.742718
H409	H	0.531162	-0.335481	0.223880
H410	H	1.031162	0.164519	0.723880
H411	H	0.612945	-0.405381	0.237462
H412	H	1.112945	0.094619	0.737462
H413	H	0.581273	-0.406879	0.218617
H414	H	1.081273	0.093121	0.718617
H415	H	0.138447	-0.464586	0.941669
H416	H	0.638447	0.035414	1.441669
H417	H	0.049370	-0.382321	0.724071
H418	H	0.549370	0.117679	1.224071
H419	H	0.129672	-0.118967	0.410356
H420	H	0.629672	0.381033	0.910356
H421	H	0.167007	-0.486271	0.814352
H422	H	0.667007	0.013729	1.314352
H423	H	0.197059	-0.456117	0.723950
H424	H	0.697059	0.043883	1.223950
H425	H	0.049217	-0.382297	0.551240
H426	H	0.549217	0.117703	1.051240
H427	H	0.166679	-0.486211	0.447227
H428	H	0.666679	0.013789	0.947227
O429	O	0.011344	-0.410526	0.523092
O430	O	0.511344	0.089474	1.023092
C431	C	-0.013663	-0.381685	0.551949
C432	C	0.486337	0.118315	1.051949
H433	H	0.010128	-0.388041	0.570041
H434	H	0.510128	0.111959	1.070041
H435	H	-0.024442	-0.342647	0.528980
H436	H	0.475558	0.157353	1.028980
C437	C	-0.087775	-0.386521	0.567840
C438	C	0.412225	0.113479	1.067840
C439	C	-0.058556	-0.394331	0.590064
C440	C	0.441444	0.105669	1.090064
H441	H	-0.115468	-0.394319	0.591349
H442	H	0.384532	0.105681	1.091349
H443	H	-0.070927	-0.405950	0.548397
H444	H	0.429073	0.094050	1.048397
H445	H	-0.096752	-0.353989	0.548700
H446	H	0.403248	0.146011	1.048700
H447	H	-0.049574	-0.426863	0.609199
H448	H	0.450426	0.073137	1.109199
H449	H	-0.075403	-0.374907	0.609511
H450	H	0.424597	0.125093	1.109511
H451	H	0.196836	-0.456064	0.477324
H452	H	0.696836	0.043936	0.977324
H453	H	0.332881	-0.492283	0.542031
H454	H	0.832881	0.007717	1.042031
O455	O	0.550708	-0.585193	0.563075
O456	O	1.050708	-0.085193	1.063075
C457	C	0.550712	-0.568048	0.592697
C458	C	1.050712	-0.068048	1.092697
H459	H	0.565660	-0.537470	0.569805
H460	H	1.065660	-0.037470	1.069805
H461	H	0.512742	-0.554859	0.616765
H462	H	1.012742	-0.054859	1.116765
C463	C	0.563455	-0.646001	0.651580
C464	C	1.063455	-0.146001	1.151580
C465	C	0.581818	-0.608447	0.623464
C466	C	1.081818	-0.108447	1.123464
H467	H	0.582640	-0.670920	0.670560
H468	H	1.082640	-0.170920	1.170560
H469	H	0.563450	-0.657552	0.631624
H470	H	1.063450	-0.157552	1.131624
H471	H	0.531814	-0.635003	0.671632
H472	H	1.031814	-0.135003	1.171632
H473	H	0.613456	-0.619443	0.603408
H474	H	1.113456	-0.119443	1.103408
H475	H	0.581828	-0.596899	0.643417
H476	H	1.081828	-0.096899	1.143417
O477	O	0.172102	-0.519979	0.348287
O478	O	0.672102	-0.019979	0.848287
C479	C	0.193212	-0.487293	0.335472
C480	C	0.693212	0.012707	0.835472
H481	H	0.164368	-0.454361	0.345064
H482	H	0.664368	0.045639	0.845064
H483	H	0.219177	-0.504533	0.355468
H484	H	0.719177	-0.004533	0.855468
C485	C	0.255589	-0.513235	0.269723
C486	C	0.755589	-0.013235	0.769723
C487	C	0.220162	-0.472786	0.281501
C488	C	0.720162	0.027214	0.781501
H489	H	0.272215	-0.504288	0.236432
H490	H	0.772215	-0.004288	0.736432
H491	H	0.241368	-0.535258	0.278358
H492	H	0.741368	-0.035258	0.778358
H493	H	0.277221	-0.527598	0.286391
H494	H	0.777221	-0.027598	0.786391
H495	H	0.198527	-0.458428	0.264839
H496	H	0.698527	0.041572	0.764839
H497	H	0.234380	-0.450761	0.272863
H498	H	0.734380	0.049239	0.772863
H499	H	0.423225	-0.376108	0.456057
H500	H	0.923225	0.123892	0.956057
O501	O	0.427144	-0.530039	0.512920
O502	O	0.927144	-0.030039	1.012920
C503	C	0.414956	-0.545256	0.490546
C504	C	0.914956	-0.045256	0.990546
H505	H	0.378760	-0.519991	0.486329
H506	H	0.878760	-0.019991	0.986329
H507	H	0.442977	-0.545333	0.453993
H508	H	0.942977	-0.045333	0.953993
C509	C	0.457140	-0.626937	0.526360
C510	C	0.957140	-0.126937	1.026360
C511	C	0.412682	-0.595908	0.521184
C512	C	0.912682	-0.095908	1.021184
H513	H	0.455740	-0.658182	0.545257
H514	H	0.955740	-0.158182	1.045257
H515	H	0.465354	-0.616684	0.541432
H516	H	0.965354	-0.116684	1.041432
H517	H	0.480486	-0.626994	0.495897
H518	H	0.980486	-0.126994	0.995897
H519	H	0.389338	-0.595846	0.551646
H520	H	0.889338	-0.095846	1.051646
H521	H	0.404465	-0.606162	0.506118
H522	H	0.904465	-0.106162	1.006118
O523	O	0.328956	-0.338335	0.485052
O524	O	0.828956	0.161665	0.985052
C525	C	0.341086	-0.312618	0.435852
C526	C	0.841086	0.187382	0.935852
H527	H	0.377261	-0.334386	0.416213
H528	H	0.877261	0.165614	0.916213
H529	H	0.313022	-0.305188	0.422291
H530	H	0.813022	0.194812	0.922291
C531	C	0.298951	-0.238424	0.451073
C532	C	0.798951	0.261576	0.951073
C533	C	0.343383	-0.265158	0.426954
C534	C	0.843383	0.234842	0.926954
H535	H	0.300366	-0.209148	0.445584
H536	H	0.800366	0.290852	0.945584
H537	H	0.290777	-0.255750	0.484221
H538	H	0.790777	0.244250	0.984221
H539	H	0.275569	-0.232237	0.439770
H540	H	0.775569	0.267763	0.939770
H541	H	0.366763	-0.271350	0.438261
H542	H	0.866763	0.228650	0.938261
H543	H	0.351561	-0.247833	0.393808
H544	H	0.851561	0.252167	0.893808
O545	O	0.164282	-0.213267	0.435349
O546	O	0.664282	0.286733	0.935349
C547	C	0.139090	-0.201083	0.406559
C548	C	0.639090	0.298917	0.906559
H549	H	0.099229	-0.187399	0.425827
H550	H	0.599229	0.312601	0.925827
H551	H	0.149667	-0.172145	0.371548
H552	H	0.649667	0.327855	0.871548
C553	C	0.200090	-0.262155	0.372711
C554	C	0.700090	0.237845	0.872711
C555	C	0.151131	-0.245352	0.396378
C556	C	0.651131	0.254648	0.896378
H557	H	0.207519	-0.289462	0.366429
H558	H	0.707519	0.210538	0.866429
H559	H	0.217064	-0.270363	0.392106
H560	H	0.717064	0.229637	0.892106
H561	H	0.208898	-0.238037	0.343538
H562	H	0.708898	0.261963	0.843538
H563	H	0.142326	-0.269468	0.425553
H564	H	0.642326	0.230532	0.925553
H565	H	0.134156	-0.237150	0.376988
H566	H	0.634156	0.262850	0.876988
O567	O	0.051460	-0.115172	0.563167
O568	O	0.551460	0.384828	1.063167
C569	C	0.044458	-0.147863	0.609964
C570	C	0.544458	0.352137	1.109964
H571	H	0.050030	-0.183386	0.609874
H572	H	0.550030	0.316614	1.109874
H573	H	0.071003	-0.153156	0.624212
H574	H	0.571003	0.346844	1.124212
C575	C	-0.013423	-0.084803	0.642067
C576	C	0.486577	0.415197	1.142067
C577	C	-0.006582	-0.128433	0.641957
C578	C	0.493418	0.371567	1.141957
H579	H	-0.044905	-0.072818	0.661803
H580	H	0.455095	0.427182	1.161803
H581	H	-0.008704	-0.062779	0.610539
H582	H	0.491296	0.437221	1.110539
H583	H	0.008702	-0.089220	0.653940
H584	H	0.508702	0.410780	1.153940
H585	H	-0.028702	-0.124015	0.630080
H586	H	0.471298	0.375985	1.130080
H587	H	-0.011306	-0.150457	0.673484
H588	H	0.488694	0.349543	1.173484
H589	H	-0.322352	-0.570775	0.472713
H590	H	0.177648	-0.070775	0.972713
H591	H	-0.028474	-0.460433	0.068892
H592	H	0.471526	0.039567	0.568892
O593	O	0.084322	-0.213413	0.595795
O594	O	0.584322	0.286587	1.095795
C595	C	0.105169	-0.262738	0.603496
C596	C	0.605169	0.237262	1.103496
H597	H	0.112630	-0.269546	0.570816
H598	H	0.612630	0.230454	1.070816
H599	H	0.139963	-0.276850	0.610071
H600	H	0.639963	0.223150	1.110071
C601	C	0.061702	-0.279997	0.687311
C602	C	0.561702	0.220003	1.187311
C603	C	0.070861	-0.288359	0.647174
C604	C	0.570861	0.211641	1.147174
H605	H	0.040541	-0.295802	0.714255
H606	H	0.540541	0.204198	1.214255
H607	H	0.047658	-0.246766	0.682123
H608	H	0.547658	0.253234	1.182123
H609	H	0.090699	-0.291757	0.692784
H610	H	0.590699	0.208243	1.192784
H611	H	0.041865	-0.276593	0.641698
H612	H	0.541865	0.223407	1.141698
H613	H	0.084900	-0.321589	0.652362
H614	H	0.584900	0.178411	1.152362
O615	O	0.049802	-0.613268	0.065135
O616	O	0.549802	-0.113268	0.565135
C617	C	0.056791	-0.660062	0.097833
C618	C	0.556791	-0.160062	0.597833
H619	H	0.051176	-0.659967	0.133372
H620	H	0.551176	-0.159967	0.633372
H621	H	0.030267	-0.674301	0.103078
H622	H	0.530267	-0.174301	0.603078
C623	C	0.114737	-0.692189	0.034807
C624	C	0.614737	-0.192189	0.534807
C625	C	0.107845	-0.692073	0.078456
C626	C	0.607845	-0.192073	0.578456
H627	H	0.146228	-0.711936	0.022854
H628	H	0.646228	-0.211936	0.522854
H629	H	0.110027	-0.660663	0.012777
H630	H	0.610027	-0.160663	0.512777
H631	H	0.092630	-0.704054	0.039184
H632	H	0.592630	-0.204054	0.539184
H633	H	0.129947	-0.680203	0.074078
H634	H	0.629947	-0.180203	0.574078
H635	H	0.112560	-0.723598	0.100485
H636	H	0.612560	-0.223598	0.600485
H637	H	0.015032	-0.638195	0.159378
H638	H	0.515032	-0.138195	0.659378
H639	H	-0.028907	-0.460416	0.362542
H640	H	0.471093	0.039584	0.862542
O641	O	-0.063550	-0.485394	0.327865
O642	O	0.436450	0.014606	0.827865
C643	C	-0.105351	-0.456542	0.352979
C644	C	0.394649	0.043458	0.852979
H645	H	-0.112334	-0.475774	0.392856
H646	H	0.387666	0.024226	0.892856
H647	H	-0.100806	-0.421548	0.342390
H648	H	0.399194	0.078452	0.842390
C649	C	-0.139139	-0.422698	0.291872
C650	C	0.360861	0.077302	0.791872
C651	C	-0.147719	-0.446320	0.340850
C652	C	0.352281	0.053680	0.840850
H653	H	-0.165274	-0.416390	0.284389
H654	H	0.334726	0.083610	0.784389
H655	H	-0.110977	-0.442134	0.274951
H656	H	0.389023	0.057866	0.774951
H657	H	-0.135352	-0.393539	0.283054
H658	H	0.364648	0.106461	0.783054
H659	H	-0.151500	-0.475481	0.349666
H660	H	0.348500	0.024519	0.849666
H661	H	-0.175883	-0.426889	0.357773
H662	H	0.324117	0.073111	0.857773
O663	O	0.049217	-0.613245	0.441018
O664	O	0.549217	-0.113245	0.941018
C665	C	0.056271	-0.660041	0.448065
C666	C	0.556271	-0.160041	0.948065
H667	H	0.026250	-0.659921	0.442434
H668	H	0.526250	-0.159921	0.942434
H669	H	0.091790	-0.674350	0.421582
H670	H	0.591790	-0.174350	0.921582
C671	C	0.093420	-0.692138	0.506060
C672	C	0.593420	-0.192138	1.006060
C673	C	0.056546	-0.691991	0.499147
C674	C	0.556546	-0.191991	0.999147
H675	H	0.093591	-0.711848	0.537568
H676	H	0.593591	-0.211848	1.037568
H677	H	0.088669	-0.660611	0.501311
H678	H	0.588669	-0.160611	1.001311
H679	H	0.123015	-0.704062	0.483987
H680	H	0.623015	-0.204062	0.983987
H681	H	0.026951	-0.680062	0.521215
H682	H	0.526951	-0.180062	1.021215
H683	H	0.061291	-0.723517	0.503901
H684	H	0.561291	-0.223517	1.003901
H685	H	0.014660	-0.638178	0.406265
H686	H	0.514660	-0.138178	0.906265
H687	H	0.081021	-0.864532	0.371574
H688	H	0.581021	-0.364532	0.871574
O689	O	0.056040	-0.770275	0.337640
O690	O	0.556040	-0.270275	0.837640
C691	C	0.089902	-0.782477	0.296577
C692	C	0.589902	-0.282477	0.796577
H693	H	0.092234	-0.818649	0.301067
H694	H	0.592234	-0.318649	0.801067
H695	H	0.078695	-0.754428	0.264262
H696	H	0.578695	-0.254428	0.764262
C697	C	0.136016	-0.740409	0.283792
C698	C	0.636016	-0.240409	0.783792
C699	C	0.138883	-0.784838	0.289309
C700	C	0.638883	-0.284838	0.789309
H701	H	0.166229	-0.741863	0.279308
H702	H	0.666229	-0.241863	0.779308
H703	H	0.113202	-0.732186	0.311457
H704	H	0.613202	-0.232186	0.811457
H705	H	0.126675	-0.717039	0.256864
H706	H	0.626675	-0.217039	0.756864
H707	H	0.148218	-0.808205	0.316240
H708	H	0.648218	-0.308205	0.816240
H709	H	0.161700	-0.793065	0.261649
H710	H	0.661700	-0.293065	0.761649
O711	O	-0.070328	-0.868246	0.430776
O712	O	0.429672	-0.368246	0.930776
C713	C	-0.093604	-0.856064	0.400217
C714	C	0.406396	-0.356064	0.900217
H715	H	-0.092415	-0.819894	0.371849
H716	H	0.407585	-0.319894	0.871849
H717	H	-0.074980	-0.884122	0.382380
H718	H	0.425020	-0.384122	0.882380
C719	C	-0.147255	-0.898137	0.464091
C720	C	0.352745	-0.398137	0.964091
C721	C	-0.145798	-0.853711	0.429251
C722	C	0.354202	-0.353711	0.929251
H723	H	-0.179450	-0.896688	0.482000
H724	H	0.320550	-0.396688	0.982000
H725	H	-0.131573	-0.906347	0.484679
H726	H	0.368427	-0.406347	0.984679
H727	H	-0.131732	-0.921514	0.449221
H728	H	0.368268	-0.421514	0.949221
H729	H	-0.161316	-0.830336	0.444121
H730	H	0.338684	-0.330336	0.944121
H731	H	-0.161484	-0.845498	0.408666
H732	H	0.338516	-0.345498	0.908666
O733	O	-0.102946	-0.769995	0.397961
O734	O	0.397054	-0.269995	0.897961
C735	C	-0.109644	-0.741183	0.353443
C736	C	0.390356	-0.241183	0.853443
H737	H	-0.075356	-0.733763	0.325726
H738	H	0.424644	-0.233763	0.825726
H739	H	-0.119445	-0.760370	0.342330
H740	H	0.380555	-0.260370	0.842330
C741	C	-0.192152	-0.702929	0.391310
C742	C	0.307848	-0.202929	0.891310
C743	C	-0.150040	-0.693812	0.357268
C744	C	0.349960	-0.193812	0.857268
H745	H	-0.217072	-0.673709	0.393670
H746	H	0.282928	-0.173709	0.893670
H747	H	-0.187641	-0.722342	0.421303
H748	H	0.312359	-0.222342	0.921303
H749	H	-0.200313	-0.718919	0.382045
H750	H	0.299687	-0.218919	0.882045
H751	H	-0.141877	-0.677828	0.366537
H752	H	0.358123	-0.177828	0.866537
H753	H	-0.154551	-0.674395	0.327277
H754	H	0.345449	-0.174395	0.827277
H755	H	-0.231954	-0.601008	0.442726
H756	H	0.268046	-0.101008	0.942726
H757	H	-0.322118	-0.496994	0.324987
H758	H	0.177882	0.003006	0.824987
H759	H	-0.231721	-0.527215	0.295000
H760	H	0.268279	-0.027215	0.795000
