data_functionalizedCrystal
_audit_creation_method	'MofGen! by Chris Wilmer'
_symmetry_space_group_name_H-M	'P1'
_symmetry_Int_Tables_number	1
_symmetry_cell_setting	triclinic
loop_
_symmetry_equiv_pos_as_xyz
  x,y,z
_cell_length_a	12.759401
_cell_length_b	21.295417
_cell_length_c	12.759393
_cell_angle_alpha	89.960626
_cell_angle_beta	89.982620
_cell_angle_gamma	90.030668
loop_
_atom_site_label
_atom_site_type_symbol
_atom_site_fract_x
_atom_site_fract_y
_atom_site_fract_z
Zn1	Zn	1.606128	-0.250568	-0.593926
Zn2	Zn	2.106128	0.249432	-0.093926
Zn3	Zn	1.605978	-0.355853	-0.418223
Zn4	Zn	2.105978	0.144147	0.081777
Zn5	Zn	1.430434	-0.250601	-0.418265
Zn6	Zn	1.930434	0.249399	0.081735
Zn7	Zn	1.430371	-0.355804	-0.593864
Zn8	Zn	1.930371	0.144196	-0.093864
O9	O	1.518228	-0.303206	-0.506069
O10	O	2.018228	0.196794	-0.006069
O11	O	1.753129	-0.264541	-0.570626
O12	O	2.253129	0.235459	-0.070626
O13	O	1.582655	-0.341925	-0.271207
O14	O	2.082655	0.158075	0.228793
O15	O	1.453830	-0.162508	-0.441611
O16	O	1.953830	0.337492	0.058389
O17	O	1.753019	-0.341893	-0.441538
O18	O	2.253019	0.158107	0.058462
O19	O	1.582912	-0.162483	-0.570668
O20	O	2.082912	0.337517	-0.070668
O21	O	1.453683	-0.264598	-0.271238
O22	O	1.953683	0.235402	0.228762
O23	O	1.283404	-0.264550	-0.441551
O24	O	1.783404	0.235450	0.058449
O25	O	1.453722	-0.341810	-0.740893
O26	O	1.953722	0.158190	-0.240893
O27	O	1.283358	-0.341842	-0.570562
O28	O	1.783358	0.158158	-0.070562
O29	O	1.582850	-0.264493	-0.740939
O30	O	2.082850	0.235507	-0.240939
O31	O	1.582593	-0.443935	-0.441478
O32	O	2.082593	0.056065	0.058522
O33	O	1.453576	-0.443900	-0.570521
O34	O	1.953576	0.056100	-0.070521
C35	C	1.245260	-0.303195	-0.506055
C36	C	1.745260	0.196805	-0.006055
C37	C	1.128484	-0.303205	-0.506074
C38	C	1.628484	0.196795	-0.006074
C39	C	1.073625	-0.343515	-0.573139
C40	C	1.573625	0.156485	-0.073139
C41	C	0.963901	-0.343523	-0.573151
C42	C	1.463901	0.156477	-0.073151
C43	C	0.963904	-0.262909	-0.439022
C44	C	1.463904	0.237091	0.060978
C45	C	1.073626	-0.262898	-0.439017
C46	C	1.573626	0.237102	0.060983
C47	C	1.073622	-0.390059	-0.650574
C48	C	1.573622	0.109941	-0.150574
C49	C	0.963898	-0.390067	-0.650585
C50	C	1.463898	0.109933	-0.150585
C51	C	1.518090	-0.466758	-0.506011
C52	C	2.018090	0.033242	-0.006011
C53	C	1.518127	-0.536726	-0.506021
C54	C	2.018127	-0.036726	-0.006021
C55	C	1.585366	-0.569591	-0.438898
C56	C	2.085366	-0.069591	0.061102
C57	C	1.585416	-0.635333	-0.438921
C58	C	2.085416	-0.135333	0.061079
C59	C	1.518207	-0.668209	-0.506058
C60	C	2.018207	-0.168209	-0.006058
C61	C	1.450963	-0.635336	-0.573195
C62	C	1.950963	-0.135336	-0.073195
C63	C	1.450923	-0.569595	-0.573177
C64	C	1.950923	-0.069595	-0.073177
N65	N	1.426299	-0.771474	-0.514062
N66	N	1.926299	-0.271474	-0.014062
N67	N	1.426340	-0.833925	-0.514073
N68	N	1.926340	-0.333925	-0.014073
C69	C	1.518324	-0.866283	-0.506118
C70	C	2.018324	-0.366283	-0.006118
N71	N	1.610268	-0.833831	-0.498130
N72	N	2.110268	-0.333831	0.001870
N73	N	1.610226	-0.771373	-0.498114
N74	N	2.110226	-0.271373	0.001886
C75	C	1.518243	-0.739494	-0.506085
C76	C	2.018243	-0.239494	-0.006085
C77	C	1.585623	-0.970433	-0.439016
C78	C	2.085623	-0.470433	0.060984
C79	C	1.585674	-1.036177	-0.439047
C80	C	2.085674	-0.536177	0.060953
C81	C	1.451212	-1.036179	-0.573315
C82	C	1.951212	-0.536179	-0.073315
C83	C	1.451170	-0.970437	-0.573289
C84	C	1.951170	-0.470437	-0.073289
C85	C	1.518374	-0.937568	-0.506134
C86	C	2.018374	-0.437568	-0.006134
C87	C	1.792261	-0.303219	-0.506084
C88	C	2.292261	0.196781	-0.006084
C89	C	1.909037	-0.303224	-0.506091
C90	C	2.409037	0.196776	-0.006091
C91	C	1.518296	-0.303142	-0.780103
C92	C	2.018296	0.196858	-0.280103
C93	C	1.518325	-0.303115	-0.896880
C94	C	2.018325	0.196885	-0.396880
C95	C	1.518395	-0.139016	-0.506151
C96	C	2.018395	0.360984	-0.006151
C97	C	1.518466	-0.069048	-0.506185
C98	C	2.018466	0.430952	-0.006185
C99	C	1.451198	-0.262843	-0.951764
C100	C	1.951198	0.237157	-0.451764
C101	C	1.451230	-0.262824	-1.061488
C102	C	1.951230	0.237176	-0.561488
C103	C	1.585524	-0.343351	-1.061434
C104	C	2.085524	0.156649	-0.561434
C105	C	1.585487	-0.343373	-0.951712
C106	C	2.085487	0.156627	-0.451712
C107	C	1.373667	-0.216350	-0.951796
C108	C	1.873667	0.283650	-0.451796
C109	C	1.373699	-0.216331	-1.061520
C110	C	1.873699	0.283669	-0.561520
C111	C	1.518220	-0.303225	-0.233102
C112	C	2.018220	0.196775	0.266898
C113	C	1.518395	-0.303075	-0.116326
C114	C	2.018395	0.196925	0.383674
H115	H	0.919225	-0.230092	-0.384428
H116	H	1.419225	0.269908	0.115572
F117	F	1.402127	-0.152580	-1.100487
F118	F	1.902127	0.347420	-0.600487
F119	F	1.272664	-0.239150	-1.105995
F120	F	1.772664	0.260850	-0.605995
F121	F	1.656983	-0.670317	-0.367475
F122	F	2.156983	-0.170317	0.132525
H123	H	1.396243	-0.662108	-0.627859
H124	H	1.896243	-0.162108	-0.127859
F125	F	1.657146	-0.935450	-0.367544
F126	F	2.157146	-0.435450	0.132456
F127	F	1.132007	-0.219985	-0.367654
F128	F	1.632007	0.280015	0.132346
F129	F	1.656997	-0.386194	-1.119799
F130	F	2.156997	0.113806	-0.619799
H131	H	1.396494	-1.062946	-0.627983
H132	H	1.896494	-0.562946	-0.127983
H133	H	1.640132	-0.376175	-0.907029
H134	H	2.140132	0.123825	-0.407029
F135	F	1.112595	-0.373066	-0.756980
F136	F	1.612595	0.126934	-0.256980
F137	F	0.924919	-0.453770	-0.621877
F138	F	1.424919	0.046230	-0.121877
H139	H	1.640435	-1.062934	-0.384389
H140	H	2.140435	-0.562934	0.115611
H141	H	1.402853	-0.170047	-0.917790
H142	H	1.902853	0.329953	-0.417790
H143	H	1.396413	-0.943677	-0.627944
H144	H	1.896413	-0.443677	-0.127944
F145	F	1.267281	-0.233416	-0.912866
F146	F	1.767281	0.266584	-0.412866
H147	H	1.107616	-0.436346	-0.621279
H148	H	1.607616	0.063654	-0.121279
H149	H	0.929907	-0.372665	-0.727941
H150	H	1.429907	0.127335	-0.227941
H151	H	1.396168	-0.542836	-0.627838
H152	H	1.896168	-0.042836	-0.127838
H153	H	1.640090	-0.542831	-0.384219
H154	H	2.140090	-0.042831	0.115781
