data_functionalizedCrystal
_audit_creation_method	'MofGen! by Chris Wilmer'
_symmetry_space_group_name_H-M	'P1'
_symmetry_Int_Tables_number	1
_symmetry_cell_setting	triclinic
loop_
_symmetry_equiv_pos_as_xyz
  x,y,z
_cell_length_a	19.188925
_cell_length_b	19.188930
_cell_length_c	9.730223
_cell_angle_alpha	89.990488
_cell_angle_beta	89.995762
_cell_angle_gamma	83.143665
loop_
_atom_site_label
_atom_site_type_symbol
_atom_site_fract_x
_atom_site_fract_y
_atom_site_fract_z
O1	O	0.926146	0.087149	-0.114335
O2	O	0.722834	0.098887	-0.114333
O3	O	0.830357	-0.008637	-0.114307
O4	O	0.818623	0.194674	-0.114361
O5	O	0.830350	-0.008640	0.114273
O6	O	0.722827	0.098885	0.114247
O7	O	0.926139	0.087146	0.114245
Zn8	Zn	0.824482	0.093015	0.150538
Zn9	Zn	0.824491	0.093019	-0.150626
O10	O	0.818616	0.194671	0.114219
C11	C	0.696820	0.098507	-0.000043
C12	C	0.619315	0.097367	-0.000041
C13	C	0.057545	0.152831	-0.000059
C14	C	0.130368	0.153908	-0.000066
C15	C	0.175302	0.090816	-0.000047
C16	C	0.147408	0.026642	-0.000056
C17	C	0.074586	0.025568	-0.000062
N18	N	0.295977	0.045139	0.077775
N19	N	0.365155	0.046164	0.077784
C20	C	0.394712	0.094050	-0.000032
N21	N	0.352477	0.140883	-0.077839
N22	N	0.283293	0.139859	-0.077842
C23	C	0.254267	0.091974	-0.000041
C24	C	0.501561	0.159386	-0.000041
C25	C	0.574385	0.160460	-0.000058
C26	C	0.591425	0.033193	-0.000033
C27	C	0.518601	0.032121	-0.000031
C28	C	0.473673	0.095220	-0.000028
C29	C	0.829974	-0.034650	-0.000013
C30	C	0.828833	-0.112154	-0.000001
C31	C	0.891924	-0.157079	0.000005
C32	C	0.890852	-0.229903	-0.000017
C33	C	0.826686	-0.257799	-0.000018
C34	C	0.763587	-0.212864	-0.000032
C35	C	0.764660	-0.140041	-0.000023
N36	N	0.777636	-0.365804	0.077773
N37	N	0.776621	-0.434982	0.077768
C38	C	0.823448	-0.477207	-0.000046
N39	N	0.871340	-0.447642	-0.077837
N40	N	0.872357	-0.378457	-0.077826
C41	C	0.825515	-0.336761	-0.000028
C42	C	0.885381	-0.601097	-0.000065
C43	C	0.884307	-0.673922	-0.000096
C44	C	0.757040	-0.656880	-0.000096
C45	C	0.758116	-0.584057	-0.000080
C46	C	0.822289	-0.556170	-0.000058
C47	C	0.952154	0.087527	-0.000049
C48	C	1.029658	0.088666	-0.000059
C49	C	0.819000	0.220684	-0.000078
C50	C	0.820140	0.298188	-0.000099
N51	N	0.824481	0.093012	0.356074
N52	N	0.824498	0.093016	-0.356162
C53	C	0.872108	0.045420	0.428012
C54	C	0.872115	0.045420	0.571895
C55	C	0.776866	0.140611	0.571890
C56	C	0.776856	0.140607	0.428010
H57	H	0.153078	0.206160	-0.000053
C58	C	0.724463	0.192962	0.348866
C59	C	0.672107	0.245345	0.427983
C60	C	0.619715	0.297695	0.348837
C61	C	0.619680	0.297662	0.190575
C62	C	0.672038	0.245277	0.111449
C63	C	0.724430	0.192927	0.190594
H64	H	0.672131	0.245371	0.545146
H65	H	0.580956	0.336474	0.407413
H66	H	0.580897	0.336414	0.131987
H67	H	0.672014	0.245251	-0.005715
H68	H	0.763189	0.154148	0.132019
C69	C	0.924508	-0.006930	0.651028
C70	C	0.976902	-0.059269	0.571898
C71	C	1.029296	-0.111623	0.651031
C72	C	1.029296	-0.111636	0.809294
C73	C	0.976899	-0.059295	0.888432
C74	C	0.924505	-0.006942	0.809299
H75	H	0.976904	-0.059261	0.454735
H76	H	1.068084	-0.150369	0.592447
H77	H	1.068081	-0.150391	0.867873
H78	H	0.976897	-0.059303	1.005596
H79	H	0.885718	0.031805	0.867884
C80	C	0.688714	-0.534634	-0.000069
C81	C	0.689891	-0.454532	-0.000062
C82	C	0.620486	-0.405109	-0.000057
C83	C	0.549902	-0.435788	-0.000059
C84	C	0.548722	-0.515894	-0.000066
C85	C	0.618127	-0.565317	-0.000071
H86	H	0.742144	-0.431818	-0.000060
H87	H	0.621360	-0.345809	-0.000052
H88	H	0.498524	-0.399202	-0.000056
H89	H	0.496469	-0.538608	-0.000068
H90	H	0.617253	-0.624617	-0.000077
C91	C	0.960256	-0.279333	-0.000004
C92	C	0.959074	-0.359434	-0.000012
C93	C	1.028477	-0.408861	0.000002
C94	C	1.099063	-0.378187	0.000024
C95	C	1.100248	-0.298082	0.000031
C96	C	1.030845	-0.248655	0.000017
H97	H	0.906819	-0.382145	-0.000027
H98	H	1.027599	-0.468161	-0.000003
H99	H	1.150439	-0.414776	0.000034
H100	H	1.152502	-0.275371	0.000047
H101	H	1.031723	-0.189355	0.000022
C102	C	0.196833	-0.042760	-0.000033
C103	C	0.276935	-0.041582	-0.000018
C104	C	0.326359	-0.110987	-0.000003
C105	C	0.295681	-0.181571	-0.000004
C106	C	0.215575	-0.182752	-0.000019
C107	C	0.166151	-0.113347	-0.000034
H108	H	0.299648	0.010671	-0.000017
H109	H	0.385658	-0.110112	0.000008
H110	H	0.332267	-0.232949	0.000007
H111	H	0.192861	-0.235005	-0.000019
H112	H	0.106851	-0.114222	-0.000045
H113	H	0.910887	0.006664	0.369445
H114	H	0.704794	-0.679592	-0.000104
C115	C	0.955967	-0.570413	-0.000055
C116	C	1.008312	-0.587470	0.118637
C117	C	1.078898	-0.556788	0.118649
C118	C	1.097138	-0.509047	-0.000031
C119	C	1.044791	-0.491987	-0.118732
C120	C	0.974206	-0.522670	-0.118744
H121	H	0.994811	-0.622813	0.206499
H122	H	1.117648	-0.569417	0.206519
H123	H	1.149389	-0.486334	-0.000023
H124	H	1.058292	-0.456645	-0.206594
H125	H	0.935456	-0.510040	-0.206614
H126	H	0.020968	0.204211	-0.000063
H127	H	0.051883	-0.026685	-0.000063
H128	H	0.738091	0.179362	0.630474
C129	C	0.452134	0.228792	-0.000064
C130	C	0.482813	0.299375	-0.000092
C131	C	0.433389	0.368781	-0.000119
C132	C	0.353287	0.367602	-0.000118
C133	C	0.322605	0.297016	-0.000091
C134	C	0.372028	0.227610	-0.000064
H135	H	0.542112	0.300250	-0.000092
H136	H	0.456102	0.421034	-0.000139
H137	H	0.316700	0.418980	-0.000138
H138	H	0.263305	0.296141	-0.000090
H139	H	0.349315	0.175358	-0.000043
H140	H	0.495896	-0.020129	-0.000023
C141	C	0.693003	-0.243546	-0.000030
C142	C	0.640649	-0.226515	0.118660
C143	C	0.570063	-0.257197	0.118654
C144	C	0.551831	-0.304908	-0.000043
C145	C	0.604187	-0.321941	-0.118742
C146	C	0.674773	-0.291260	-0.118736
H147	H	0.654144	-0.191194	0.206535
H148	H	0.531306	-0.244588	0.206524
H149	H	0.499579	-0.327621	-0.000048
H150	H	0.590692	-0.357262	-0.206617
H151	H	0.713530	-0.303869	-0.206606
H152	H	0.628010	-0.018178	-0.000028
H153	H	0.597088	0.212713	-0.000068
H154	H	0.944179	-0.134379	0.000018
H155	H	0.713282	-0.103462	-0.000028
H156	H	0.935686	-0.710500	-0.000099
