data_functionalizedCrystal
_audit_creation_method	'MofGen! by Chris Wilmer'
_symmetry_space_group_name_H-M	'P1'
_symmetry_Int_Tables_number	1
_symmetry_cell_setting	triclinic
loop_
_symmetry_equiv_pos_as_xyz
  x,y,z
_cell_length_a	16.625546
_cell_length_b	16.625548
_cell_length_c	16.625539
_cell_angle_alpha	90.018832
_cell_angle_beta	89.971468
_cell_angle_gamma	89.977673
loop_
_atom_site_label
_atom_site_type_symbol
_atom_site_fract_x
_atom_site_fract_y
_atom_site_fract_z
Zn1	Zn	-0.321018	-1.232653	-0.455936
Zn2	Zn	-0.071018	-0.982653	-0.205936
Zn3	Zn	0.178982	-0.732653	0.044064
Zn4	Zn	0.428982	-0.482653	0.294064
Zn5	Zn	-0.455857	-1.232564	-0.321098
Zn6	Zn	-0.205857	-0.982564	-0.071098
Zn7	Zn	0.044143	-0.732564	0.178902
Zn8	Zn	0.294143	-0.482564	0.428902
Zn9	Zn	-0.321042	-1.097823	-0.321112
Zn10	Zn	-0.071042	-0.847823	-0.071112
Zn11	Zn	0.178958	-0.597823	0.178888
Zn12	Zn	0.428958	-0.347823	0.428888
Zn13	Zn	-0.455812	-1.097785	-0.455884
Zn14	Zn	-0.205812	-0.847785	-0.205884
Zn15	Zn	0.044188	-0.597785	0.044116
Zn16	Zn	0.294188	-0.347785	0.294116
O17	O	-0.388432	-1.165206	-0.388507
O18	O	-0.138432	-0.915206	-0.138507
O19	O	0.111568	-0.665206	0.111493
O20	O	0.361568	-0.415206	0.361493
O21	O	-0.338914	-1.345473	-0.438065
O22	O	-0.088914	-1.095473	-0.188065
O23	O	0.161086	-0.845473	0.061935
O24	O	0.411086	-0.595473	0.311935
O25	O	-0.438002	-1.214669	-0.208268
O26	O	-0.188002	-0.964669	0.041732
O27	O	0.061998	-0.714669	0.291732
O28	O	0.311998	-0.464669	0.541732
O29	O	-0.208206	-1.115761	-0.339024
O30	O	0.041794	-0.865761	-0.089024
O31	O	0.291794	-0.615761	0.160976
O32	O	0.541794	-0.365761	0.410976
O33	O	-0.437979	-1.345408	-0.339001
O34	O	-0.187979	-1.095408	-0.089001
O35	O	0.062021	-0.845408	0.160999
O36	O	0.312021	-0.595408	0.410999
O37	O	-0.208189	-1.214820	-0.438079
O38	O	0.041811	-0.964820	-0.188079
O39	O	0.291811	-0.714820	0.061921
O40	O	0.541811	-0.464820	0.311921
O41	O	-0.338954	-1.115675	-0.208278
O42	O	-0.088954	-0.865675	0.041722
O43	O	0.161046	-0.615675	0.291722
O44	O	0.411046	-0.365675	0.541722
O45	O	-0.338910	-0.984985	-0.338974
O46	O	-0.088910	-0.734985	-0.088974
O47	O	0.161090	-0.484985	0.161026
O48	O	0.411090	-0.234985	0.411026
O49	O	-0.437903	-1.115696	-0.568723
O50	O	-0.187903	-0.865696	-0.318723
O51	O	0.062097	-0.615696	-0.068723
O52	O	0.312097	-0.365696	0.181277
O53	O	-0.437926	-0.984957	-0.437990
O54	O	-0.187926	-0.734957	-0.187990
O55	O	0.062074	-0.484957	0.062010
O56	O	0.312074	-0.234957	0.312010
O57	O	-0.338870	-1.214783	-0.568761
O58	O	-0.088870	-0.964783	-0.318761
O59	O	0.161130	-0.714783	-0.068761
O60	O	0.411130	-0.464783	0.181239
O61	O	-0.568683	-1.214632	-0.338950
O62	O	-0.318683	-0.964632	-0.088950
O63	O	-0.068683	-0.714632	0.161050
O64	O	0.181317	-0.464632	0.411050
O65	O	-0.568650	-1.115611	-0.437977
O66	O	-0.318650	-0.865611	-0.187977
O67	O	-0.068650	-0.615611	0.062023
O68	O	0.181350	-0.365611	0.312023
C69	C	-0.388416	-0.955715	-0.388478
C70	C	-0.138416	-0.705715	-0.138478
C71	C	0.111584	-0.455715	0.111522
C72	C	0.361584	-0.205715	0.361522
C73	C	-0.388429	-0.866094	-0.388485
C74	C	-0.138429	-0.616094	-0.138485
C75	C	0.111571	-0.366094	0.111515
C76	C	0.361571	-0.116094	0.361515
C77	C	-0.388427	-0.537918	-0.388509
C78	C	-0.138427	-0.287918	-0.138509
C79	C	0.111573	-0.037918	0.111491
C80	C	0.361573	0.212082	0.361491
C81	C	-0.388425	-0.629227	-0.388500
C82	C	-0.138425	-0.379227	-0.138500
C83	C	0.111575	-0.129227	0.111500
C84	C	0.361575	0.120773	0.361500
C85	C	-0.388428	-0.702003	-0.388497
C86	C	-0.138428	-0.452003	-0.138497
C87	C	0.111572	-0.202003	0.111503
C88	C	0.361572	0.047997	0.361503
C89	C	-0.388426	-0.793318	-0.388489
C90	C	-0.138426	-0.543318	-0.138489
C91	C	0.111574	-0.293318	0.111511
C92	C	0.361574	-0.043318	0.361511
C93	C	-0.597923	-1.165130	-0.388474
C94	C	-0.347923	-0.915130	-0.138474
C95	C	-0.097923	-0.665130	0.111526
C96	C	0.152077	-0.415130	0.361526
C97	C	-0.687544	-1.165171	-0.388486
C98	C	-0.437544	-0.915171	-0.138486
C99	C	-0.187544	-0.665171	0.111514
C100	C	0.062456	-0.415171	0.361514
C101	C	-1.015720	-1.165311	-0.388570
C102	C	-0.765720	-0.915311	-0.138570
C103	C	-0.515720	-0.665311	0.111430
C104	C	-0.265720	-0.415311	0.361430
C105	C	-0.924411	-1.165270	-0.388549
C106	C	-0.674411	-0.915270	-0.138549
C107	C	-0.424411	-0.665270	0.111451
C108	C	-0.174411	-0.415270	0.361451
C109	C	-0.851635	-1.165240	-0.388528
C110	C	-0.601635	-0.915240	-0.138528
C111	C	-0.351635	-0.665240	0.111472
C112	C	-0.101635	-0.415240	0.361472
C113	C	-0.760321	-1.165200	-0.388508
C114	C	-0.510321	-0.915200	-0.138508
C115	C	-0.260321	-0.665200	0.111492
C116	C	-0.010321	-0.415200	0.361492
C117	C	-0.178123	-1.165305	-0.388559
C118	C	0.071877	-0.915305	-0.138559
C119	C	0.321877	-0.665305	0.111441
C120	C	0.571877	-0.415305	0.361441
C121	C	-0.088502	-1.165347	-0.388581
C122	C	0.161498	-0.915347	-0.138581
C123	C	0.411498	-0.665347	0.111419
C124	C	0.661498	-0.415347	0.361419
C125	C	-0.388379	-1.165245	-0.598816
C126	C	-0.138379	-0.915245	-0.348816
C127	C	0.111621	-0.665245	-0.098816
C128	C	0.361621	-0.415245	0.151184
C129	C	-0.388356	-1.165262	-0.688438
C130	C	-0.138356	-0.915262	-0.438438
C131	C	0.111644	-0.665262	-0.188438
C132	C	0.361644	-0.415262	0.061562
C133	C	-0.388443	-0.375515	-0.388529
C134	C	-0.138443	-0.125515	-0.138529
C135	C	0.111557	0.124485	0.111471
C136	C	0.361557	0.374485	0.361471
C137	C	-0.388435	-0.465136	-0.388519
C138	C	-0.138435	-0.215136	-0.138519
C139	C	0.111565	0.034864	0.111481
C140	C	0.361565	0.284864	0.361481
C141	C	-0.388338	-1.165275	-0.761220
C142	C	-0.138338	-0.915275	-0.511220
C143	C	0.111662	-0.665275	-0.261220
C144	C	0.361662	-0.415275	-0.011220
C145	C	-0.388308	-1.165294	-0.852529
C146	C	-0.138308	-0.915294	-0.602529
C147	C	0.111692	-0.665294	-0.352529
C148	C	0.361692	-0.415294	-0.102529
C149	C	-0.388280	-1.165313	-0.925305
C150	C	-0.138280	-0.915313	-0.675305
C151	C	0.111720	-0.665313	-0.425305
C152	C	0.361720	-0.415313	-0.175305
C153	C	-0.388251	-1.165333	-1.016620
C154	C	-0.138251	-0.915333	-0.766620
C155	C	0.111749	-0.665333	-0.516620
C156	C	0.361749	-0.415333	-0.266620
C157	C	-0.388427	-1.165213	-0.179017
C158	C	-0.138427	-0.915213	0.070983
C159	C	0.111573	-0.665213	0.320983
C160	C	0.361573	-0.415213	0.570983
C161	C	-0.388222	-1.165352	-0.089396
C162	C	-0.138222	-0.915352	0.160604
C163	C	0.111778	-0.665352	0.410604
C164	C	0.361778	-0.415352	0.660604
