data_functionalizedCrystal
_audit_creation_method	'MofGen! by Chris Wilmer'
_symmetry_space_group_name_H-M	'P1'
_symmetry_Int_Tables_number	1
_symmetry_cell_setting	triclinic
loop_
_symmetry_equiv_pos_as_xyz
  x,y,z
_cell_length_a	17.699097
_cell_length_b	16.974813
_cell_length_c	16.776229
_cell_angle_alpha	86.338786
_cell_angle_beta	89.989262
_cell_angle_gamma	83.341721
loop_
_atom_site_label
_atom_site_type_symbol
_atom_site_fract_x
_atom_site_fract_y
_atom_site_fract_z
O1	O	1.004145	0.100042	-0.072807
O2	O	1.504145	0.600042	0.427193
O3	O	0.783777	0.113040	-0.073632
O4	O	1.283777	0.613040	0.426368
O5	O	0.900104	-0.008574	-0.065790
O6	O	1.400104	0.491426	0.434210
O7	O	0.887818	0.221656	-0.080649
O8	O	1.387818	0.721656	0.419351
O9	O	0.900088	-0.008582	0.066787
O10	O	1.400088	0.491418	0.566787
O11	O	0.783762	0.113033	0.058945
O12	O	1.283762	0.613033	0.558945
O13	O	1.004129	0.100035	0.059770
O14	O	1.504129	0.600035	0.559770
Zn15	Zn	0.893943	0.106533	0.080407
Zn16	Zn	1.393943	0.606533	0.580407
Zn17	Zn	0.893963	0.106542	-0.094269
Zn18	Zn	1.393963	0.606542	0.405731
O19	O	0.887802	0.221649	0.051928
O20	O	1.387802	0.721649	0.551928
C21	C	0.755572	0.112569	-0.007312
C22	C	1.255572	0.612569	0.492688
C23	C	0.671554	0.111166	-0.007216
C24	C	1.171554	0.611166	0.492784
C25	C	0.155837	0.102573	-0.078961
C26	C	0.655837	0.602573	0.421039
C27	C	0.234782	0.103886	-0.079042
C28	C	0.734782	0.603886	0.420958
C29	C	0.274241	0.104539	-0.006813
C30	C	0.774241	0.604539	0.493187
C31	C	0.234750	0.103872	0.065501
C32	C	0.734750	0.603872	0.565501
C33	C	0.155808	0.102554	0.065581
C34	C	0.655808	0.602554	0.565581
C35	C	0.553118	0.109187	0.065179
C36	C	1.053118	0.609187	0.565179
C37	C	0.632066	0.110507	0.065093
C38	C	1.132066	0.610507	0.565093
C39	C	0.632093	0.110519	-0.079444
C40	C	1.132093	0.610519	0.420556
C41	C	0.553150	0.109200	-0.079364
C42	C	1.053150	0.609200	0.420636
C43	C	0.513668	0.108529	-0.007050
C44	C	1.013668	0.608529	0.492950
C45	C	0.428067	0.107105	-0.006963
C46	C	0.928067	0.607105	0.493037
C47	C	0.359839	0.105969	-0.006900
C48	C	0.859839	0.605969	0.493100
C49	C	0.899628	-0.038035	0.002398
C50	C	1.399628	0.461965	0.502398
C51	C	0.898226	-0.125810	0.008058
C52	C	1.398226	0.374190	0.508058
C53	C	0.897578	-0.167038	-0.061550
C54	C	1.397578	0.332962	0.438450
C55	C	0.896256	-0.249511	-0.056229
C56	C	1.396256	0.250489	0.443771
C57	C	0.895587	-0.290754	0.018700
C58	C	1.395587	0.209246	0.518700
C59	C	0.896234	-0.249520	0.088313
C60	C	1.396234	0.250480	0.588313
C61	C	0.897550	-0.167048	0.082992
C62	C	1.397550	0.332952	0.582992
C63	C	0.891643	-0.537409	0.042365
C64	C	1.391643	-0.037409	0.542365
C65	C	0.890328	-0.619887	0.047681
C66	C	1.390328	-0.119887	0.547681
C67	C	0.890349	-0.619872	-0.096862
C68	C	1.390349	-0.119872	0.403138
C69	C	0.891670	-0.537399	-0.102177
C70	C	1.391670	-0.037399	0.397823
C71	C	0.892313	-0.496171	-0.032564
C72	C	1.392313	0.003829	0.467436
N73	N	0.894238	-0.375055	0.024141
N74	N	1.394238	0.124945	0.524141
N75	N	0.893656	-0.411871	-0.038005
N76	N	1.393656	0.088129	0.461995
C77	C	1.032334	0.100506	-0.006552
C78	C	1.532334	0.600506	0.493448
C79	C	1.116353	0.101908	-0.006653
C80	C	1.616353	0.601908	0.493347
C81	C	0.888278	0.251110	-0.016261
C82	C	1.388278	0.751110	0.483739
C83	C	0.889680	0.338885	-0.021927
C84	C	1.389680	0.838885	0.478073
N85	N	0.893935	0.106525	0.199619
N86	N	1.393935	0.606525	0.699619
N87	N	0.893978	0.106543	-0.213480
N88	N	1.393978	0.606543	0.286520
C89	C	0.945460	0.052697	0.244807
C90	C	1.445460	0.552697	0.744807
C91	C	0.945464	0.052696	0.328259
C92	C	1.445464	0.552696	0.828259
C93	C	0.893946	0.106528	0.366521
C94	C	1.393946	0.606528	0.866521
C95	C	0.842415	0.160360	0.321327
C96	C	1.342415	0.660360	0.821327
C97	C	0.842408	0.160356	0.237877
C98	C	1.342408	0.660356	0.737877
C99	C	0.842443	0.160375	0.657874
C100	C	1.342443	0.660375	1.157874
C101	C	0.842455	0.160376	0.741330
C102	C	1.342455	0.660376	1.241330
C103	C	0.945498	0.052715	0.748256
C104	C	1.445498	0.552715	1.248256
C105	C	0.945491	0.052711	0.664805
C106	C	1.445491	0.552711	1.164805
C107	C	0.893958	0.106540	0.619619
C108	C	1.393958	0.606540	1.119619
C109	C	0.893953	0.106539	0.529130
C110	C	1.393953	0.606539	1.029130
C111	C	0.893954	0.106534	0.457008
C112	C	1.393954	0.606534	0.957008
H113	H	0.123716	0.102047	-0.137779
H114	H	0.623716	0.602047	0.362221
H115	H	0.889780	-0.653465	0.108701
H116	H	1.389780	-0.153465	0.608701
N117	N	0.895589	-0.294019	-0.131283
N118	N	1.395589	0.205981	0.368717
H119	H	0.941947	-0.334727	-0.131828
H120	H	1.441947	0.165273	0.368172
H121	H	0.848126	-0.321704	-0.132668
H122	H	1.348126	0.178296	0.367332
N123	N	0.898246	-0.122576	0.158068
N124	N	1.398246	0.377424	0.658068
H125	H	0.897624	-0.161217	0.206344
H126	H	1.397624	0.338783	0.706344
H127	H	0.945687	-0.094853	0.159427
H128	H	1.445687	0.405147	0.659427
N129	N	0.510598	0.108490	-0.157270
N130	N	1.010598	0.608490	0.342730
H131	H	0.484033	0.058946	-0.157292
H132	H	0.984033	0.558946	0.342708
H133	H	0.471698	0.156972	-0.163579
H134	H	0.971698	0.656972	0.336421
H135	H	0.664191	0.111039	0.123914
H136	H	1.164191	0.611039	0.623914
H137	H	0.800500	0.204215	0.772481
H138	H	1.300500	0.704215	1.272481
H139	H	0.895685	-0.283107	0.149323
H140	H	1.395685	0.216893	0.649323
H141	H	0.892181	-0.503854	0.099049
H142	H	1.392181	-0.003854	0.599049
H143	H	0.987419	0.008864	0.365051
H144	H	1.487419	0.508864	0.865051
H145	H	0.987415	0.008863	0.213659
H146	H	1.487415	0.508863	0.713659
H147	H	0.800465	0.204189	0.352485
H148	H	1.300465	0.704189	0.852485
H149	H	0.889824	-0.653448	-0.153537
H150	H	1.389824	-0.153448	0.346463
N151	N	0.510536	0.108465	0.143170
N152	N	1.010536	0.608465	0.643170
H153	H	0.547580	0.108522	0.188948
H154	H	1.047580	0.608522	0.688948
H155	H	0.471959	0.157199	0.143416
H156	H	0.971959	0.657199	0.643416
N157	N	1.001060	-0.005347	0.623536
N158	N	1.501060	0.494653	1.123536
H159	H	1.033701	-0.039449	0.664827
H160	H	1.533701	0.460551	1.164827
H161	H	0.972119	-0.040267	0.591179
H162	H	1.472119	0.459733	1.091179
H163	H	0.800484	0.204205	0.621089
H164	H	1.300484	0.704205	1.121089
N165	N	0.277305	0.104574	0.143407
N166	N	0.777305	0.604574	0.643407
H167	H	0.333306	0.105514	0.132385
H168	H	0.833306	0.605514	0.632385
H169	H	0.257310	0.153340	0.171816
H170	H	0.757310	0.653340	0.671816
N171	N	1.001082	-0.005346	0.796993
N172	N	1.501082	0.494654	1.296993
H173	H	0.993271	0.002820	0.855665
H174	H	1.493271	0.502820	1.355665
H175	H	0.992403	-0.061430	0.786033
H176	H	1.492403	0.438570	1.286033
H177	H	0.800450	0.204188	0.201085
H178	H	1.300450	0.704188	0.701085
H179	H	0.266928	0.104422	-0.137923
H180	H	0.766928	0.604422	0.362077
N181	N	0.113219	0.101832	0.143573
N182	N	0.613219	0.601832	0.643573
H183	H	0.150263	0.101892	0.189350
H184	H	0.650263	0.601892	0.689350
H185	H	0.074638	0.150563	0.143820
H186	H	0.574638	0.650563	0.643820
H187	H	0.892215	-0.503824	-0.163193
H188	H	1.392215	-0.003824	0.336807
N189	N	0.674678	0.111238	-0.157444
N190	N	1.174678	0.611238	0.342556
H191	H	0.730676	0.112169	-0.146539
H192	H	1.230676	0.612169	0.353461
H193	H	0.667069	0.062014	-0.185828
H194	H	1.167069	0.562014	0.314172
N195	N	0.898305	-0.122557	-0.142368
N196	N	1.398305	0.377443	0.357632
H197	H	0.897693	-0.161192	-0.185656
H198	H	1.397693	0.338808	0.314344
H199	H	0.851957	-0.081841	-0.148142
H200	H	1.351957	0.418159	0.351858
