data_functionalizedCrystal
_audit_creation_method	'MofGen! by Chris Wilmer'
_symmetry_space_group_name_H-M	'P1'
_symmetry_Int_Tables_number	1
_symmetry_cell_setting	triclinic
loop_
_symmetry_equiv_pos_as_xyz
  x,y,z
_cell_length_a	14.853567
_cell_length_b	15.944551
_cell_length_c	13.930277
_cell_angle_alpha	89.994493
_cell_angle_beta	89.995755
_cell_angle_gamma	83.566834
loop_
_atom_site_label
_atom_site_type_symbol
_atom_site_fract_x
_atom_site_fract_y
_atom_site_fract_z
O1	O	1.196228	0.109664	-0.079767
O2	O	1.696228	0.609664	0.420233
O3	O	0.933751	0.122728	-0.079783
O4	O	1.433751	0.622728	0.420217
O5	O	1.072157	-0.006071	-0.079766
O6	O	1.572157	0.493929	0.420234
O7	O	1.057822	0.238463	-0.079784
O8	O	1.557822	0.738463	0.420216
O9	O	1.072138	-0.006073	0.079896
O10	O	1.572138	0.493927	0.579896
O11	O	0.933732	0.122725	0.079878
O12	O	1.433732	0.622725	0.579878
O13	O	1.196208	0.109662	0.079895
O14	O	1.696208	0.609662	0.579895
Zn15	Zn	1.064967	0.116193	0.105236
Zn16	Zn	1.564967	0.616193	0.605236
Zn17	Zn	1.064993	0.116197	-0.105125
Zn18	Zn	1.564993	0.616197	0.394875
O19	O	1.057803	0.238460	0.079878
O20	O	1.557803	0.738460	0.579878
C21	C	0.900154	0.122135	0.000045
C22	C	1.400154	0.622135	0.500045
C23	C	0.800072	0.120361	0.000039
C24	C	1.300072	0.620361	0.500039
C25	C	0.387646	0.036354	0.000067
C26	C	0.887646	0.536354	0.500067
C27	C	0.366169	0.189369	0.000055
C28	C	0.866169	0.689369	0.500055
C29	C	0.460201	0.191037	0.000051
C30	C	0.960201	0.691037	0.500051
C31	C	0.517960	0.115362	0.000055
C32	C	1.017960	0.615362	0.500055
C33	C	0.481687	0.038019	0.000061
C34	C	0.981687	0.538019	0.500061
C35	C	0.496480	0.268379	0.000035
C36	C	0.996480	0.768379	0.500035
C37	C	0.590517	0.270050	0.000031
C38	C	1.090517	0.770050	0.500031
C39	C	0.648278	0.194374	0.000041
C40	C	1.148278	0.694374	0.500041
C41	C	0.612000	0.117028	0.000049
C42	C	1.112000	0.617028	0.500049
C43	C	0.669759	0.041353	0.000052
C44	C	1.169759	0.541353	0.500052
C45	C	0.633483	-0.035994	0.000066
C46	C	1.133483	0.464006	0.500066
C47	C	0.539448	-0.037657	0.000071
C48	C	1.039448	0.462343	0.500071
C49	C	0.742313	0.196036	0.000036
C50	C	1.242313	0.696036	0.500036
C51	C	0.763800	0.043018	0.000046
C52	C	1.263800	0.543018	0.500046
C53	C	1.071552	-0.037367	0.000065
C54	C	1.571552	0.462633	0.500065
C55	C	1.069768	-0.130615	0.000065
C56	C	1.569768	0.369385	0.500065
C57	C	0.979713	-0.345572	0.000047
C58	C	1.479713	0.154428	0.500047
C59	C	1.021522	-0.406544	0.078772
C60	C	1.521522	0.093456	0.578772
C61	C	1.066541	-0.301344	0.000058
C62	C	1.566541	0.198656	0.500058
C63	C	1.021562	-0.406524	-0.078642
C64	C	1.521562	0.093476	0.421358
C65	C	1.063416	-0.466260	0.000046
C66	C	1.563416	0.033740	0.500046
C67	C	1.108373	-0.361088	0.078848
C68	C	1.608373	0.138912	0.578848
C69	C	1.108401	-0.361062	-0.078636
C70	C	1.608401	0.138938	0.421364
C71	C	1.150273	-0.422017	0.000109
C72	C	1.650273	0.077983	0.500109
C73	C	1.068338	-0.206340	0.000065
C74	C	1.568338	0.293660	0.500065
C75	C	1.061626	-0.561263	0.000046
C76	C	1.561626	-0.061263	0.500046
C77	C	1.229806	0.110255	0.000064
C78	C	1.729806	0.610255	0.500064
C79	C	1.329887	0.112029	0.000064
C80	C	1.829887	0.612029	0.500064
C81	C	1.058407	0.269756	0.000044
C82	C	1.558407	0.769756	0.500044
C83	C	1.060191	0.363004	0.000038
C84	C	1.560191	0.863004	0.500038
N85	N	1.064957	0.116190	0.248803
N86	N	1.564957	0.616190	0.748803
N87	N	1.065010	0.116193	-0.248691
N88	N	1.565010	0.616193	0.251309
C89	C	1.003704	0.173206	0.701064
C90	C	1.503704	0.673206	1.201064
C91	C	1.126306	0.059181	0.701049
C92	C	1.626306	0.559181	1.201049
C93	C	1.126295	0.059178	0.600553
C94	C	1.626295	0.559178	1.100553
C95	C	1.064989	0.116191	0.550308
C96	C	1.564989	0.616191	1.050308
C97	C	1.003693	0.173207	0.600559
C98	C	1.503693	0.673207	1.100559
C99	C	1.187596	0.002169	0.550295
C100	C	1.687596	0.502169	1.050295
C101	C	1.187588	0.002164	0.449793
C102	C	1.687588	0.502164	0.949793
C103	C	1.126277	0.059174	0.399546
C104	C	1.626277	0.559174	0.899546
C105	C	1.064978	0.116192	0.449803
C106	C	1.564978	0.616192	0.949803
C107	C	1.003672	0.173205	0.399558
C108	C	1.503672	0.673205	0.899558
C109	C	0.942368	0.230220	0.449814
C110	C	1.442368	0.730220	0.949814
C111	C	0.942382	0.230217	0.550312
C112	C	1.442382	0.730217	1.050312
C113	C	1.126263	0.059177	0.299047
C114	C	1.626263	0.559177	0.799047
C115	C	1.003661	0.173206	0.299053
C116	C	1.503661	0.673206	0.799053
H117	H	0.620045	0.333030	0.000019
H118	H	1.120045	0.833030	0.500019
H119	H	0.771845	0.259011	0.000026
H120	H	1.271845	0.759011	0.500026
N121	N	1.188862	0.000946	0.247699
N122	N	1.688862	0.500946	0.747699
N123	N	1.188841	0.000949	0.157968
N124	N	1.688841	0.500949	0.657968
H125	H	1.233053	-0.040180	0.121702
H126	H	1.733053	0.459820	0.621702
H127	H	0.810822	-0.018607	0.000052
H128	H	1.310822	0.481393	0.500052
H129	H	0.907643	-0.312344	0.000121
H130	H	1.407643	0.187656	0.500121
H131	H	0.358106	-0.026620	0.000082
H132	H	0.858106	0.473380	0.500082
N133	N	0.975435	-0.431818	0.162257
N134	N	1.475435	0.068182	0.662257
N135	N	0.894405	-0.404145	0.176278
N136	N	1.394405	0.095855	0.676278
H137	H	0.861849	-0.421992	0.235235
H138	H	1.361849	0.078008	0.735235
N139	N	0.941087	0.231432	0.752406
N140	N	1.441087	0.731432	1.252406
N141	N	0.941096	0.231423	0.842137
N142	N	1.441096	0.731423	1.342137
H143	H	0.896871	0.272544	0.878400
H144	H	1.396871	0.772544	1.378400
H145	H	1.145059	-0.341058	0.145478
H146	H	1.645059	0.158942	0.645478
N147	N	1.250199	-0.056052	0.398431
N148	N	1.750199	0.443948	0.898431
N149	N	1.306134	-0.029287	0.342331
N150	N	1.806134	0.470713	0.842331
H151	H	1.350351	-0.070399	0.306047
H152	H	1.850351	0.429601	0.806047
N153	N	1.188940	0.000971	0.752384
N154	N	1.688940	0.500971	1.252384
N155	N	1.188953	0.000992	0.842114
N156	N	1.688953	0.500992	1.342114
H157	H	1.233195	-0.040117	0.878375
H158	H	1.733195	0.459883	1.378375
H159	H	0.984834	-0.426641	-0.145203
H160	H	1.484834	0.073359	0.354797
N161	N	1.240766	-0.463506	0.000174
N162	N	1.740766	0.036494	0.500174
N163	N	1.293181	-0.451735	0.067828
N164	N	1.793181	0.048265	0.567828
H165	H	1.357092	-0.481037	0.067879
H166	H	1.857092	0.018963	0.567879
H167	H	0.680523	-0.097609	0.000062
H168	H	1.180523	0.402391	0.500062
H169	H	0.953734	0.219631	0.258150
H170	H	1.453734	0.719631	0.758150
N171	N	0.502377	-0.116651	0.000085
N172	N	1.002377	0.383349	0.500085
N173	N	0.418416	-0.118124	0.000085
N174	N	0.918416	0.381876	0.500085
H175	H	0.392230	-0.173913	0.000092
H176	H	0.892230	0.326087	0.500092
H177	H	1.237514	-0.044246	0.591208
H178	H	1.737514	0.455754	1.091208
H179	H	0.892471	0.276637	0.591236
H180	H	1.392471	0.776637	1.091236
N181	N	0.307161	0.266658	0.000031
N182	N	0.807161	0.766658	0.500031
N183	N	0.223204	0.265159	0.000024
N184	N	0.723204	0.765159	0.500024
H185	H	0.181524	0.319746	0.000004
H186	H	0.681524	0.819746	0.500004
N187	N	0.437464	0.345662	0.000027
N188	N	0.937464	0.845662	0.500027
N189	N	0.382587	0.361801	0.067326
N190	N	0.882587	0.861801	0.567326
H191	H	0.340899	0.416384	0.067317
H192	H	0.840899	0.916384	0.567317
N193	N	1.154438	-0.335762	-0.162135
N194	N	1.654438	0.164238	0.337865
N195	N	1.124854	-0.350070	-0.243817
N196	N	1.624854	0.149930	0.256183
H197	H	1.157362	-0.332200	-0.302796
H198	H	1.657362	0.167800	0.197204
H199	H	0.892456	0.276644	0.408893
H200	H	1.392456	0.776644	0.908893
