data_functionalizedCrystal
_audit_creation_method	'MofGen! by Chris Wilmer'
_symmetry_space_group_name_H-M	'P1'
_symmetry_Int_Tables_number	1
_symmetry_cell_setting	triclinic
loop_
_symmetry_equiv_pos_as_xyz
  x,y,z
_cell_length_a	10.723024
_cell_length_b	12.837942
_cell_length_c	9.198806
_cell_angle_alpha	89.997396
_cell_angle_beta	89.996352
_cell_angle_gamma	89.648405
loop_
_atom_site_label
_atom_site_type_symbol
_atom_site_fract_x
_atom_site_fract_y
_atom_site_fract_z
O1	O	1.672992	0.145513	-0.120882
O2	O	1.311352	0.159441	-0.120887
O3	O	1.484153	0.001517	-0.120876
O4	O	1.500191	0.303437	-0.120894
O5	O	1.484138	0.001517	0.120909
O6	O	1.311337	0.159441	0.120898
O7	O	1.672977	0.145512	0.120903
Cu8	Cu	1.492155	0.152477	0.142977
Cu9	Cu	1.492173	0.152477	-0.142962
O10	O	1.500176	0.303436	0.120892
C11	C	1.264735	0.158427	0.000005
C12	C	1.125851	0.155395	0.000003
C13	C	1.060466	0.243761	-0.000003
C14	C	0.916922	0.240629	-0.000005
C15	C	1.478728	-0.037142	0.000016
C16	C	1.462569	-0.152334	0.000013
C17	C	1.656825	-0.391911	-0.000015
C18	C	1.641648	-0.500145	-0.000017
C19	C	1.417040	-0.477037	-0.000005
C20	C	1.432217	-0.368804	-0.000002
C21	C	1.552113	-0.326245	-0.000005
C22	C	1.567289	-0.218009	0.000008
C23	C	1.342681	-0.194904	0.000010
C24	C	1.327505	-0.303137	0.000007
C25	C	1.719594	0.146526	0.000008
C26	C	1.858478	0.149559	-0.000000
C27	C	1.505601	0.342096	-0.000003
C28	C	1.521760	0.457288	-0.000010
N29	N	1.492152	0.152476	0.344091
N30	N	1.492186	0.152470	-0.344076
C31	C	1.564674	0.085875	0.416293
C32	C	1.564693	0.085872	0.583705
H33	H	0.860706	0.316277	-0.000016
O34	O	1.417974	0.220536	0.417967
C35	C	1.350563	0.282480	0.318330
H36	H	1.343866	0.240027	0.209793
H37	H	1.252793	0.297745	0.362441
H38	H	1.400518	0.359757	0.302187
O39	O	1.418284	0.220546	0.581712
C40	C	1.493050	0.284847	0.493682
H41	H	1.585745	0.244037	0.471008
H42	H	1.442995	0.300913	0.386599
H43	H	1.510867	0.361586	0.552251
H44	H	1.110757	0.321733	0.000001
H45	H	0.914686	0.073907	-0.000004
O46	O	1.743327	-0.563976	-0.000280
C47	C	1.741255	-0.627286	-0.125486
H48	H	1.682100	-0.588110	-0.213005
H49	H	1.840408	-0.638729	-0.167526
H50	H	1.699583	-0.706213	-0.097174
H51	H	1.626788	0.028856	0.645796
H52	H	1.626745	0.028855	0.354171
H53	H	1.664914	-0.183360	0.000011
O54	O	1.066064	0.062280	0.000070
C55	C	1.154729	-0.019274	0.000035
H56	H	1.246725	0.010332	0.045810
H57	H	1.119468	-0.086090	0.070232
H58	H	1.169691	-0.048013	-0.115962
O59	O	1.773373	-0.350734	-0.000080
C60	C	1.862544	-0.431904	-0.000044
H61	H	1.818807	-0.505670	-0.045817
H62	H	1.945474	-0.408708	-0.070244
H63	H	1.895456	-0.446968	0.115952
H64	H	1.319426	-0.511708	-0.000019
O65	O	1.211108	-0.344608	-0.000181
C66	C	1.195595	-0.406494	-0.125424
H67	H	1.290825	-0.432735	-0.167186
H68	H	1.137396	-0.477717	-0.097259
H69	H	1.146020	-0.359075	-0.213100
O70	O	1.240859	-0.131222	-0.000175
C71	C	1.168846	-0.150613	-0.125412
H72	H	1.189763	-0.232478	-0.167173
H73	H	1.065591	-0.143754	-0.097238
H74	H	1.192952	-0.091289	-0.213092
