data_functionalizedCrystal
_audit_creation_method	'MofGen! by Chris Wilmer'
_symmetry_space_group_name_H-M	'P1'
_symmetry_Int_Tables_number	1
_symmetry_cell_setting	triclinic
loop_
_symmetry_equiv_pos_as_xyz
  x,y,z
_cell_length_a	21.295417
_cell_length_b	11.169417
_cell_length_c	11.169409
_cell_angle_alpha	90.019824
_cell_angle_beta	89.958601
_cell_angle_gamma	89.968614
loop_
_atom_site_label
_atom_site_type_symbol
_atom_site_fract_x
_atom_site_fract_y
_atom_site_fract_z
Zn1	Zn	-0.250543	-1.834794	-0.678467
Zn2	Zn	-0.355832	-1.834613	-0.477752
Zn3	Zn	-0.250582	-1.634080	-0.477802
Zn4	Zn	-0.355780	-1.634017	-0.678397
O5	O	-0.303184	-1.734376	-0.578105
O6	O	-0.264516	-2.002720	-0.651851
O7	O	-0.341908	-1.807962	-0.309809
O8	O	-0.162487	-1.660807	-0.504470
O9	O	-0.341870	-2.002587	-0.504386
O10	O	-0.162459	-1.808271	-0.651898
O11	O	-0.264581	-1.660632	-0.309845
O12	O	-0.264531	-1.466122	-0.504402
O13	O	-0.341783	-1.660700	-0.846356
O14	O	-0.341820	-1.466076	-0.651779
O15	O	-0.264466	-1.808210	-0.846408
O16	O	-0.443914	-1.807901	-0.504318
O17	O	-0.443877	-1.660524	-0.651731
C18	C	-0.303175	-1.422551	-0.578089
C19	C	-0.303186	-1.289151	-0.578111
C20	C	-0.466736	-1.734219	-0.578038
C21	C	-0.536704	-1.734261	-0.578050
C22	C	-0.303114	-1.734468	-0.891147
C23	C	-0.303085	-1.734507	-1.024547
C24	C	-0.569569	-1.811069	-0.501371
C25	C	-0.635312	-1.811125	-0.501398
C26	C	-0.668187	-1.734352	-0.578091
C27	C	-0.635313	-1.657539	-0.654785
C28	C	-0.569572	-1.657494	-0.654765
N29	N	-0.771452	-1.629362	-0.587235
N30	N	-0.833904	-1.629409	-0.587248
C31	C	-0.866261	-1.734487	-0.578160
N32	N	-0.833808	-1.839518	-0.569035
N33	N	-0.771351	-1.839470	-0.569016
C34	C	-0.739472	-1.734394	-0.578123
C35	C	-0.970412	-1.811362	-0.501506
C36	C	-1.036156	-1.811420	-0.501541
C37	C	-1.036156	-1.657824	-0.654923
C38	C	-0.970413	-1.657776	-0.654894
C39	C	-0.937546	-1.734543	-0.578179
C40	C	-0.138994	-1.734567	-0.578198
C41	C	-0.069026	-1.734648	-0.578237
C42	C	-0.303194	-2.047418	-0.578121
C43	C	-0.303199	-2.180818	-0.578128
C44	C	-0.303209	-1.734353	-0.266280
C45	C	-0.303061	-1.734547	-0.132880
H46	H	-0.662076	-1.873675	-0.438956
O47	O	-0.670765	-1.574718	-0.737495
H48	H	-0.722001	-1.587640	-0.724615
O49	O	-0.534118	-1.893869	-0.418637
H50	H	-0.504110	-1.954878	-0.472397
H51	H	-0.542813	-1.594947	-0.717208
H52	H	-0.943650	-1.873874	-0.439044
H53	H	-0.943653	-1.595227	-0.717328
H54	H	-1.062914	-1.873973	-0.439102
H55	H	-1.062922	-1.595319	-0.717374
