data_functionalizedCrystal
_audit_creation_method	'MofGen! by Chris Wilmer'
_symmetry_space_group_name_H-M	'P1'
_symmetry_Int_Tables_number	1
_symmetry_cell_setting	triclinic
loop_
_symmetry_equiv_pos_as_xyz
  x,y,z
_cell_length_a	15.995343
_cell_length_b	15.995350
_cell_length_c	17.766277
_cell_angle_alpha	89.995869
_cell_angle_beta	89.994960
_cell_angle_gamma	83.490779
loop_
_atom_site_label
_atom_site_type_symbol
_atom_site_fract_x
_atom_site_fract_y
_atom_site_fract_z
O1	O	1.110995	0.107897	-0.062515
O2	O	0.867219	0.121231	-0.062533
O3	O	0.995771	-0.007324	-0.062523
O4	O	0.982444	0.236452	-0.062525
O5	O	0.995748	-0.007330	0.062666
O6	O	0.867197	0.121225	0.062656
O7	O	1.110973	0.107890	0.062674
Cu8	Cu	0.989083	0.114557	0.074095
Cu9	Cu	0.989109	0.114565	-0.073954
O10	O	0.982421	0.236445	0.062664
C11	C	0.836013	0.120678	0.000059
C12	C	0.743062	0.119028	0.000053
C13	C	0.995209	-0.038522	0.000070
C14	C	0.993557	-0.131472	0.000066
C15	C	0.572876	0.116035	0.000063
C16	C	0.549530	0.023238	0.000063
C17	C	0.452852	0.021492	0.000352
C18	C	0.405316	0.113086	0.000072
C19	C	0.434395	0.159742	0.071418
C20	C	0.531187	0.160843	0.071473
C21	C	0.531123	0.162209	-0.070894
C22	C	0.434629	0.158784	-0.071828
C23	C	0.310618	0.111425	0.000079
C24	C	0.667574	0.117699	0.000060
C25	C	0.987625	-0.469220	0.000068
C26	C	0.896072	-0.421783	-0.000219
C27	C	0.897725	-0.325093	0.000063
C28	C	0.990567	-0.301659	0.000067
C29	C	1.035711	-0.342742	0.071557
C30	C	1.033411	-0.439377	0.071617
C31	C	1.035328	-0.439728	-0.070746
C32	C	1.035307	-0.342783	-0.071690
C33	C	0.992235	-0.206962	0.000068
C34	C	0.985960	-0.563917	0.000071
C35	C	1.142179	0.108444	0.000080
C36	C	1.235130	0.110093	0.000082
C37	C	0.982983	0.267643	0.000069
C38	C	0.984635	0.360594	0.000069
N39	N	0.989070	0.114551	0.178226
N40	N	0.989129	0.114564	-0.178085
C41	C	1.046011	0.057655	0.217617
C42	C	1.046016	0.057651	0.296419
C43	C	0.989088	0.114557	0.335826
C44	C	0.932136	0.171458	0.296426
C45	C	0.932127	0.171455	0.217625
C46	C	0.978117	0.190814	0.460663
C47	C	0.978132	0.190819	0.539462
C48	C	0.989110	0.114568	0.578873
C49	C	1.000092	0.038309	0.539475
C50	C	1.000083	0.038305	0.460675
C51	C	0.989090	0.114567	0.421272
C52	C	1.046060	0.057662	0.703710
C53	C	1.046059	0.057657	0.782513
C54	C	0.932182	0.171472	0.782518
C55	C	0.932179	0.171470	0.703717
C56	C	0.989122	0.114566	0.664317
H57	H	0.433842	-0.015030	-0.050781
H58	H	1.102829	-0.471491	-0.071223
H59	H	0.545137	0.230514	-0.071583
N60	N	0.991643	-0.306630	-0.141751
H61	H	0.943086	-0.263790	-0.127079
H62	H	1.032873	-0.278630	-0.173474
N63	N	0.847602	-0.446328	-0.068122
H64	H	0.829694	-0.394693	-0.099441
H65	H	0.884559	-0.488454	-0.099301
N66	N	0.994149	-0.305165	0.142027
H67	H	1.023641	-0.332008	0.187723
H68	H	0.997871	-0.242560	0.142773
H69	H	0.859633	-0.441379	0.050757
N70	N	0.566662	0.118526	0.142380
H71	H	0.629766	0.118813	0.143125
H72	H	0.541226	0.149911	0.187717
N73	N	1.124994	-0.322447	-0.077410
H74	H	1.125501	-0.259463	-0.080599
H75	H	1.157423	-0.344622	-0.031447
N76	N	0.870738	0.232839	0.338926
H77	H	0.834662	0.268883	0.302011
H78	H	0.833732	0.200762	0.371632
N79	N	0.870718	0.232829	0.175129
H80	H	0.833649	0.200809	0.142443
H81	H	0.834707	0.268866	0.212092
H82	H	0.578506	-0.012148	0.051151
N83	N	1.107421	-0.003725	0.175125
H84	H	1.098778	0.004905	0.119227
H85	H	1.166815	0.005988	0.188889
N86	N	0.850388	-0.288173	0.068057
H87	H	0.790216	-0.301523	0.065856
H88	H	0.878036	-0.313142	0.115316
H89	H	1.092386	0.011317	0.328497
H90	H	1.092424	0.011321	0.814586
H91	H	1.009022	-0.023787	0.428600
H92	H	1.000473	-0.457681	0.125055
N93	N	0.995700	-0.466930	-0.142524
H94	H	0.946417	-0.498651	-0.129862
H95	H	0.975536	-0.415672	-0.173546
N96	N	1.107443	-0.003726	0.661196
H97	H	1.144512	0.028280	0.628487
H98	H	1.143457	-0.039774	0.698149
N99	N	0.410063	0.113784	-0.141749
H100	H	0.380070	0.064006	-0.126922
H101	H	0.371460	0.153724	-0.173591
N102	N	0.870768	0.232850	0.661233
H103	H	0.902757	0.269940	0.628529
H104	H	0.833707	0.200774	0.628592
H105	H	1.009031	-0.023782	0.571561
N106	N	0.870773	0.232846	0.825010
H107	H	0.879416	0.224213	0.880908
H108	H	0.880438	0.292251	0.811230
N109	N	0.550500	0.250979	0.075504
H110	H	0.496158	0.289822	0.077240
H111	H	0.584449	0.259077	0.122338
H112	H	0.401672	0.225616	-0.076357
H113	H	0.969195	0.252913	0.571534
N114	N	1.126063	-0.324046	0.075106
H115	H	1.164677	-0.378569	0.074407
H116	H	1.138570	-0.288653	0.030291
H117	H	1.100627	-0.471627	0.074863
H118	H	0.414293	0.127725	0.124716
H119	H	0.559403	0.132935	-0.124989
H120	H	0.402548	0.227153	0.073870
N121	N	0.586652	-0.024417	-0.067687
H122	H	0.618964	0.013682	-0.099040
H123	H	0.625882	-0.074677	-0.050399
N124	N	0.428408	-0.026663	0.068494
H125	H	0.480465	-0.046833	0.098464
H126	H	0.388490	0.011309	0.100895
N127	N	0.850718	-0.287437	-0.067819
H128	H	0.878453	-0.311973	-0.115205
H129	H	0.790512	-0.300714	-0.065896
N130	N	0.966277	0.273061	0.418159
H131	H	0.959331	0.321369	0.455072
H132	H	1.017139	0.277973	0.385457
