data_functionalizedCrystal
_audit_creation_method	'MofGen! by Chris Wilmer'
_symmetry_space_group_name_H-M	'P1'
_symmetry_Int_Tables_number	1
_symmetry_cell_setting	triclinic
loop_
_symmetry_equiv_pos_as_xyz
  x,y,z
_cell_length_a	14.853558
_cell_length_b	13.339070
_cell_length_c	11.804365
_cell_angle_alpha	74.887832
_cell_angle_beta	78.135926
_cell_angle_gamma	80.369786
loop_
_atom_site_label
_atom_site_type_symbol
_atom_site_fract_x
_atom_site_fract_y
_atom_site_fract_z
O1	O	1.242367	-0.111673	-0.099008
O2	O	0.983828	-0.127420	-0.099013
O3	O	1.083425	0.027757	-0.099008
O4	O	1.142770	-0.266850	-0.099014
O5	O	1.057195	-0.013054	0.099047
O6	O	0.957598	-0.168231	0.099041
O7	O	1.216136	-0.152484	0.099046
Cu8	Cu	1.084472	-0.164084	0.117128
Cu9	Cu	1.115493	-0.115820	-0.117095
O10	O	1.116540	-0.307661	0.099041
C11	C	0.936947	-0.147114	0.000013
C12	C	0.836332	-0.144980	0.000011
C13	C	0.803362	-0.121733	-0.107953
C14	C	0.774760	-0.166214	0.107974
C15	C	0.680225	-0.164205	0.107976
C16	C	0.647255	-0.140958	0.000012
C17	C	0.708818	-0.119719	-0.107954
C18	C	0.618653	-0.185432	0.215940
C19	C	0.524112	-0.183423	0.215946
C20	C	0.491141	-0.160182	0.107981
C21	C	0.552711	-0.138944	0.000011
C22	C	0.519741	-0.115697	-0.107953
C23	C	0.581311	-0.094466	-0.215925
C24	C	0.675847	-0.096479	-0.215919
C25	C	0.396605	-0.158169	0.107975
C26	C	0.425198	-0.113684	-0.107955
C27	C	1.060286	0.045055	0.000018
C28	C	1.030407	0.157398	0.000012
C29	C	1.263018	-0.132790	0.000017
C30	C	1.363634	-0.134922	0.000011
C31	C	1.139679	-0.324958	0.000013
C32	C	1.169560	-0.437301	0.000010
N33	N	1.062661	-0.198030	0.281867
C34	C	1.262738	0.521873	0.000018
C35	C	1.290813	0.416319	0.000029
C36	C	1.225714	0.351584	0.000025
C37	C	1.132535	0.392412	0.000009
C38	C	1.104456	0.497974	0.000007
C39	C	1.067431	0.327686	0.000014
C40	C	0.974252	0.368514	-0.000002
C41	C	0.946178	0.474066	-0.000005
C42	C	1.011277	0.538801	-0.000000
C43	C	1.095511	0.222124	0.000016
C44	C	0.937228	0.198225	0.000005
C45	C	0.909153	0.303779	-0.000007
N46	N	1.137309	-0.081867	-0.281834
C47	C	1.189682	-0.000332	0.655823
C48	C	1.206181	0.025352	0.531162
C49	C	1.170302	-0.030491	0.468832
C50	C	1.117922	-0.112023	0.531175
C51	C	1.101428	-0.137715	0.655848
C52	C	1.082048	-0.167874	0.468858
C53	C	1.029668	-0.249406	0.531201
C54	C	1.013176	-0.275093	0.655862
C55	C	1.049055	-0.219250	0.718192
C56	C	1.098542	-0.142182	0.344185
C57	C	1.010288	-0.279565	0.344210
C58	C	0.993789	-0.305249	0.468871
H59	H	0.473989	-0.200709	0.303863
H60	H	0.970535	-0.341488	0.706622
O61	O	1.155007	-0.054225	0.276957
H62	H	1.160449	-0.045735	0.179797
O63	O	1.391311	0.372296	0.000022
H64	H	1.413185	0.381666	0.080737
H65	H	1.315730	0.574586	0.000031
H66	H	0.554453	-0.075532	-0.303829
H67	H	0.884218	0.145516	0.000007
O68	O	0.980988	0.652649	0.000002
H69	H	1.041911	0.690797	0.000014
H70	H	0.346480	-0.175465	0.195884
H71	H	0.870304	0.507303	-0.000009
H72	H	0.833285	0.337036	-0.000019
H73	H	0.951141	-0.371634	0.519646
H74	H	0.853496	-0.104451	-0.195860
H75	H	1.183737	-0.009575	0.367328
H76	H	1.248828	0.091734	0.480407
H77	H	1.218896	0.045124	0.706580
O78	O	1.031267	-0.246965	0.852652
H79	H	1.065019	-0.194437	0.885514
H80	H	0.725985	-0.079192	-0.303824
O81	O	0.971573	-0.339787	0.276990
H82	H	1.029352	-0.377332	0.220165
O83	O	0.389633	-0.088585	-0.224403
H84	H	0.448327	-0.074146	-0.299474
H85	H	0.801610	-0.185134	0.195873
H86	H	0.645504	-0.204350	0.303838
O87	O	1.196008	0.178101	0.000011
H88	H	1.217880	0.187469	0.080728
O89	O	1.255989	0.237738	0.000026
H90	H	1.331720	0.220224	0.000026
