data_functionalizedCrystal
_audit_creation_method	'MofGen! by Chris Wilmer'
_symmetry_space_group_name_H-M	'P1'
_symmetry_Int_Tables_number	1
_symmetry_cell_setting	triclinic
loop_
_symmetry_equiv_pos_as_xyz
  x,y,z
_cell_length_a	14.971486
_cell_length_b	15.072220
_cell_length_c	14.971494
_cell_angle_alpha	89.999404
_cell_angle_beta	83.615843
_cell_angle_gamma	90.007545
loop_
_atom_site_label
_atom_site_type_symbol
_atom_site_fract_x
_atom_site_fract_y
_atom_site_fract_z
O1	O	1.186959	0.073677	0.116556
O2	O	0.926559	0.073701	0.130515
O3	O	1.063735	0.073686	-0.006664
O4	O	1.049784	0.073692	0.253735
O5	O	1.063701	-0.073879	-0.006656
O6	O	0.926526	-0.073864	0.130523
O7	O	1.186925	-0.073888	0.116564
Zn8	Zn	1.056720	-0.097305	0.123544
Zn9	Zn	1.056765	0.097118	0.123534
O10	O	1.049750	-0.073874	0.253743
C11	C	0.893218	-0.000079	0.129895
C12	C	0.793921	-0.000070	0.128024
N13	N	1.056696	-0.229994	0.123551
C14	C	0.736698	-0.000069	0.208613
C15	C	0.643398	-0.000082	0.206850
C16	C	0.607323	-0.000090	0.124497
C17	C	0.664554	-0.000093	0.043902
C18	C	0.757851	-0.000086	0.045666
C19	C	0.470091	-0.000105	0.040231
C20	C	0.376787	-0.000110	0.038466
C21	C	0.355638	-0.000102	0.201415
C22	C	0.448936	-0.000095	0.203179
C23	C	0.506159	-0.000096	0.122583
C24	C	1.056763	-0.589196	0.123531
C25	C	0.983116	-0.551581	0.196686
C26	C	0.983285	-0.448755	0.196954
C27	C	1.056729	-0.410992	0.123541
C28	C	1.150080	-0.448291	0.144025
C29	C	1.149667	-0.551149	0.144545
C30	C	1.037891	-0.551296	0.029676
C31	C	1.035750	-0.448432	0.030299
C32	C	1.056716	-0.310278	0.123545
C33	C	1.056782	-0.689909	0.123529
C34	C	1.220267	-0.000107	0.117184
C35	C	1.319564	-0.000110	0.119055
C36	C	1.063093	-0.000095	-0.039985
C37	C	1.061219	-0.000091	-0.139281
N38	N	1.056796	0.229807	0.123521
C39	C	1.060359	0.080348	-0.185930
C40	C	1.058593	0.080350	-0.279229
C41	C	1.057693	-0.000089	-0.325879
C42	C	1.058550	-0.080534	-0.279223
C43	C	1.060310	-0.080534	-0.185925
C44	C	1.054884	-0.080528	-0.473686
C45	C	1.053126	-0.080528	-0.566991
C46	C	1.053167	0.080356	-0.566991
C47	C	1.054927	0.080356	-0.473692
C48	C	1.055786	-0.000090	-0.427043
C49	C	1.050392	-0.000091	0.287064
C50	C	1.052266	-0.000089	0.386360
H51	H	0.766062	-0.000063	0.275674
H52	H	0.995347	-0.424141	0.266600
H53	H	1.052466	0.145858	-0.604977
C54	C	1.225952	-0.584764	0.075331
N55	N	1.283420	-0.610079	0.023210
H56	H	0.971293	-0.577280	0.010004
H57	H	1.060997	-0.146036	-0.147943
H58	H	0.913899	-0.423538	0.184734
C59	C	1.225893	-0.415241	0.073966
N60	N	1.282995	-0.390346	0.021197
C61	C	1.055832	-0.169022	-0.422375
N62	N	1.056552	-0.235675	-0.383728
H63	H	0.967080	-0.424054	0.014756
C64	C	0.889076	-0.585044	0.180466
N65	N	0.818243	-0.610261	0.168251
H66	H	0.516681	-0.000108	-0.025399
H67	H	1.085899	-0.422729	-0.026697
H68	H	0.635174	-0.000111	-0.023152
H69	H	0.347418	-0.000117	-0.028593
H70	H	1.052385	-0.146028	-0.604969
C71	C	1.172095	-0.583550	0.237025
N72	N	1.188981	-0.607949	0.306686
C73	C	1.110440	-0.584163	-0.043873
N74	N	1.165085	-0.608924	-0.099263
C75	C	1.061349	0.168839	-0.134625
N76	N	1.062091	0.235492	-0.095983
C77	C	0.488616	-0.000090	0.293771
N78	N	0.518502	-0.000092	0.362007
C79	C	1.055921	0.168842	-0.422380
N80	N	1.056667	0.235492	-0.383732
H81	H	0.804442	-0.000086	-0.019958
H82	H	1.057811	-0.146029	-0.317211
C83	C	0.999185	-0.586486	0.290247
N84	N	1.011291	-0.612777	0.360716
C85	C	1.173053	-0.413491	0.235452
N86	N	1.190350	-0.387285	0.304320
H87	H	0.309041	-0.000105	0.267038
H88	H	0.596810	-0.000081	0.272473
H89	H	1.057897	0.145851	-0.317207
