data_functionalizedCrystal
_audit_creation_method	'MofGen! by Chris Wilmer'
_symmetry_space_group_name_H-M	'P1'
_symmetry_Int_Tables_number	1
_symmetry_cell_setting	triclinic
loop_
_symmetry_equiv_pos_as_xyz
  x,y,z
_cell_length_a	19.902436
_cell_length_b	18.760492
_cell_length_c	18.760490
_cell_angle_alpha	90.015487
_cell_angle_beta	60.027017
_cell_angle_gamma	59.993066
loop_
_atom_site_label
_atom_site_type_symbol
_atom_site_fract_x
_atom_site_fract_y
_atom_site_fract_z
Zr1	Zr	0.735753	-0.093538	0.686561
O2	O	0.875889	-0.207382	0.572778
O3	O	0.595587	-0.058629	0.721440
O4	O	0.735767	-0.207351	0.721451
O5	O	0.735709	0.058642	0.572761
O6	O	0.735813	-0.207337	0.838729
O7	O	0.735709	-0.058661	0.572767
O8	O	0.485056	0.058699	0.838710
O9	O	0.986466	-0.207394	0.572780
O10	O	0.653285	-0.043743	0.823842
O11	O	0.653251	0.043789	0.736314
O12	O	0.818295	-0.131312	0.736326
O13	O	0.818261	-0.043780	0.648798
Zr14	Zr	0.735826	0.093568	0.873597
Zr15	Zr	0.735826	-0.093517	0.873607
Zr16	Zr	0.735753	0.093546	0.686552
Zr17	Zr	0.912110	-0.093556	0.686565
Zr18	Zr	0.559469	0.093586	0.873594
O19	O	0.875993	0.058659	0.838719
O20	O	0.875993	-0.207352	0.838733
O21	O	0.875889	0.058628	0.572764
O22	O	0.595690	0.207412	0.987381
O23	O	0.595691	-0.058598	0.987395
O24	O	0.595586	0.207381	0.721426
O25	O	0.735871	-0.058613	0.987398
O26	O	0.735812	0.207380	0.838708
O27	O	0.735767	0.207367	0.721429
O28	O	0.735871	0.058690	0.987392
O29	O	0.986524	-0.207376	0.721457
O30	O	0.485056	0.207406	0.838702
O31	O	0.485114	0.207423	0.987379
O32	O	0.485114	0.058716	0.987386
O33	O	0.986465	-0.058686	0.572772
O34	O	0.986523	-0.058669	0.721449
O35	O	0.653285	0.131341	0.823833
O36	O	0.653319	0.043809	0.911361
O37	O	0.818329	-0.043760	0.823845
O38	O	0.818295	0.043772	0.736317
C39	C	0.515194	0.000037	0.780075
C40	C	0.440326	0.000045	0.780073
C41	C	0.735698	-0.000012	0.546114
C42	C	0.735667	-0.000022	0.466708
C43	C	0.735789	0.234029	0.780067
C44	C	0.735789	0.313451	0.780063
C45	C	0.168316	0.000004	0.780082
C46	C	0.196533	0.055488	0.725134
C47	C	0.274652	0.055259	0.724836
C48	C	0.303263	0.000025	0.780077
C49	C	0.338811	-0.095111	0.739817
C50	C	0.260973	-0.094819	0.739403
C51	C	0.133838	0.038894	0.875317
C52	C	0.210890	0.040831	0.875178
C53	C	0.379532	0.000032	0.780075
C54	C	0.092052	-0.000009	0.780080
C55	C	0.956385	-0.000008	0.780084
C56	C	1.031253	-0.000016	0.780086
C57	C	0.735790	-0.233999	0.780092
C58	C	0.735790	-0.313422	0.780096
C59	C	0.649653	0.694978	0.825777
C60	C	0.821926	0.603550	0.734409
C61	C	0.821928	0.528928	0.734401
C62	C	0.735790	0.537329	0.780082
C63	C	0.649652	0.620351	0.825772
C64	C	0.908065	0.445901	0.688719
C65	C	0.908070	0.371273	0.688709
C66	C	0.821931	0.379672	0.734386
C67	C	0.735789	0.462701	0.780077
C68	C	0.649652	0.471101	0.825758
C69	C	0.563509	0.554129	0.871445
C70	C	0.563513	0.628750	0.871449
C71	C	0.821927	0.305051	0.734382
C72	C	0.649651	0.396473	0.825753
C73	C	0.735887	-0.064583	0.130724
C74	C	0.735887	0.064670	0.130833
C75	C	0.735840	0.064656	0.205479
C76	C	0.735815	0.000022	0.242752
C77	C	0.735837	-0.064597	0.205378
C78	C	0.735808	0.129279	0.242864
C79	C	0.735759	0.129268	0.317515
C80	C	0.735741	0.064630	0.354786
C81	C	0.735765	0.000007	0.317407
C82	C	0.735740	-0.064626	0.354680
C83	C	0.735770	-0.129253	0.317299
C84	C	0.735819	-0.129235	0.242649
C85	C	0.735692	0.064612	0.429435
C86	C	0.735690	-0.064641	0.429334
C87	C	0.735881	0.000042	1.014045
C88	C	0.735912	0.000051	1.093451
C89	C	0.515286	0.000064	1.014040
C90	C	0.440449	0.000081	1.093444
C91	C	0.515194	0.234052	0.780062
C92	C	0.440326	0.313482	0.780057
C93	C	0.515285	0.234079	1.014028
C94	C	0.440448	0.313518	1.093428
C95	C	0.956294	-0.234049	0.546131
C96	C	1.031131	-0.313488	0.466731
C97	C	0.956294	-0.000035	0.546119
C98	C	1.031131	-0.000052	0.466715
C99	C	0.956385	-0.234022	0.780097
C100	C	1.031254	-0.313452	0.780102
C101	C	0.405287	-0.045620	1.085049
C102	C	0.334979	-0.045621	1.159651
C103	C	0.299830	0.000084	1.242646
C104	C	0.334999	0.045786	1.251040
C105	C	0.405310	0.045782	1.176439
C106	C	0.405185	0.396492	0.825738
C107	C	0.334848	0.471132	0.825729
C108	C	0.299649	0.462760	0.780044
C109	C	0.334797	0.379741	0.734357
C110	C	0.405137	0.305103	0.734361
C111	C	0.405322	0.305133	1.176412
C112	C	0.335014	0.379767	1.251024
C113	C	0.299829	0.462786	1.242650
C114	C	0.334963	0.471169	1.159658
C115	C	0.405274	0.396536	1.085048
C116	C	1.066266	-0.305103	0.383747
C117	C	1.136596	-0.379738	0.309135
C118	C	1.171784	-0.462756	0.317509
C119	C	1.136646	-0.471140	0.400501
C120	C	1.066323	-0.396506	0.475111
C121	C	1.066300	0.045641	0.475110
C122	C	1.136627	0.045622	0.400508
C123	C	1.171779	-0.000085	0.317512
C124	C	1.136607	-0.045784	0.309119
C125	C	1.066286	-0.045770	0.383720
C126	C	1.066430	-0.305052	0.825797
C127	C	1.136768	-0.379678	0.825819
C128	C	1.171932	-0.462703	0.780142
C129	C	1.136748	-0.471101	0.734446
C130	C	1.066407	-0.396476	0.734429
H131	H	0.248016	0.125314	0.751842
F132	F	1.173977	-0.370797	0.220817
H133	H	1.037620	-0.237512	0.376912
H134	H	0.306353	-0.082838	1.152800
H135	H	0.306370	0.082997	1.318625
H136	H	0.290488	-0.125951	0.669323
F137	F	0.913599	0.216694	0.685770
F138	F	0.442525	0.216759	0.685742
H139	H	1.165407	-0.372823	0.863029
F140	F	0.735652	0.133392	0.469219
F141	F	1.174045	0.094267	0.409459
H142	H	0.735675	-0.117276	0.459675
H143	H	0.433959	0.237541	1.183247
F144	F	0.109215	-0.013676	0.929080
F145	F	0.442646	0.405473	0.996732
F146	F	1.246621	-0.000092	0.238123
F147	F	0.442685	-0.094271	0.996726
H148	H	0.306127	0.372937	0.697161
H149	H	1.037685	0.082868	0.542682
H150	H	0.892055	0.596718	0.697224
F151	F	0.735826	0.198068	0.203200
F152	F	1.174188	-0.559470	0.685829
H153	H	0.132038	0.125719	0.751997
H154	H	1.037811	-0.237456	0.862993
H155	H	0.339083	0.028296	0.654588
H156	H	0.735736	0.181889	0.347946
F157	F	0.366181	-0.151499	0.789589
H158	H	1.037774	-0.403328	0.697215
F159	F	0.297632	0.370826	1.339342
H160	H	0.222466	0.028752	0.655300
F161	F	0.224997	0.000081	1.322036
F162	F	1.246629	-0.542181	0.238094
F163	F	0.240137	-0.151781	0.788343
F164	F	1.246797	-0.542118	0.780166
F165	F	0.426355	-0.136086	0.649092
F166	F	0.044939	0.129073	0.919270
F167	F	0.442720	0.094432	1.185387
H168	H	0.493380	0.696356	0.908645
F169	F	0.442631	0.405422	0.874369
F170	F	0.297451	0.559478	0.874360
H171	H	0.182158	0.110919	0.905256
F172	F	1.174025	-0.094424	0.220782
H173	H	0.226514	0.004622	0.919567
H174	H	0.493376	0.560959	0.908642
F175	F	0.557969	0.405423	0.874369
H176	H	0.242373	0.523542	0.780047
H177	H	0.579517	0.762582	0.862971
H178	H	0.306305	0.538773	1.152852
F179	F	0.999731	0.436968	0.640111
H180	H	0.978213	0.303675	0.651508
H181	H	1.165306	-0.538742	0.407309
F182	F	0.224996	0.542211	1.322065
H183	H	1.037717	-0.403344	0.542678
F184	F	0.735735	-0.198034	0.356979
F185	F	1.028858	-0.094401	0.374772
H186	H	0.735842	-0.181851	0.212209
H187	H	0.735900	0.117296	0.100487
F188	F	0.735924	-0.133363	0.090939
