data_functionalizedCrystal
_audit_creation_method	'MofGen! by Chris Wilmer'
_symmetry_space_group_name_H-M	'P1'
_symmetry_Int_Tables_number	1
_symmetry_cell_setting	triclinic
loop_
_symmetry_equiv_pos_as_xyz
  x,y,z
_cell_length_a	10.654562
_cell_length_b	16.109301
_cell_length_c	9.130313
_cell_angle_alpha	89.997330
_cell_angle_beta	89.996930
_cell_angle_gamma	83.975792
loop_
_atom_site_label
_atom_site_type_symbol
_atom_site_fract_x
_atom_site_fract_y
_atom_site_fract_z
O1	O	1.666240	0.116820	-0.121901
O2	O	1.300613	0.127935	-0.121883
O3	O	1.493470	0.001407	-0.121878
O4	O	1.473382	0.243349	-0.121906
O5	O	1.493468	0.001410	0.121721
O6	O	1.300610	0.127938	0.121716
O7	O	1.666238	0.116824	0.121698
Cu8	Cu	1.483424	0.122381	0.143949
Cu9	Cu	1.483427	0.122377	-0.144134
O10	O	1.473380	0.243352	0.121692
C11	C	1.253825	0.127118	-0.000081
C12	C	1.114416	0.124670	-0.000074
C13	C	1.048899	0.123530	0.132700
C14	C	0.917908	0.121236	0.132676
C15	C	0.917961	0.121226	-0.132909
C16	C	1.048951	0.123514	-0.132883
C17	C	1.048867	0.123539	0.286034
C18	C	0.917876	0.121246	0.286010
C19	C	1.492656	-0.029571	-0.000077
C20	C	1.490216	-0.121881	-0.000075
C21	C	1.598981	-0.343504	-0.000104
C22	C	1.596679	-0.430238	-0.000116
C23	C	1.367860	-0.411731	-0.000099
C24	C	1.370164	-0.324998	-0.000097
C25	C	1.485728	-0.290887	-0.000092
C26	C	1.481122	-0.464354	-0.000106
C27	C	1.478626	-0.558395	-0.000119
C28	C	1.488225	-0.196840	-0.000082
C29	C	1.713025	0.117640	-0.000107
C30	C	1.852435	0.120089	-0.000124
C31	C	1.474195	0.274330	-0.000111
C32	C	1.476634	0.366640	-0.000123
N33	N	1.483431	0.122384	0.346572
N34	N	1.483429	0.122368	-0.346757
C35	C	1.568850	0.066376	0.423226
C36	C	1.568847	0.066366	0.576563
C37	C	1.398001	0.178379	0.576578
C38	C	1.397999	0.178384	0.423244
C39	C	1.667490	0.001709	0.423219
C40	C	1.667487	0.001699	0.576556
H41	H	0.870810	0.178705	0.344868
C42	C	1.240747	-0.449252	-0.000099
H43	H	1.173627	-0.405491	-0.000109
H44	H	1.235088	-0.482706	0.084846
H45	H	1.235096	-0.482697	-0.085061
H46	H	1.328434	0.223982	0.360833
H47	H	1.277933	-0.282156	-0.000092
C48	C	1.639658	-0.084606	0.366987
H49	H	1.639662	-0.084597	0.262934
H50	H	1.559400	-0.096476	0.401672
H51	H	1.702755	-0.125991	0.401647
C52	C	1.721258	-0.488112	-0.000119
H53	H	1.790409	-0.455372	-0.000105
H54	H	1.725122	-0.522329	-0.085068
H55	H	1.725113	-0.522333	0.084839
C56	C	1.304042	0.239978	0.660921
H57	H	1.316279	0.231958	0.763221
H58	H	1.220239	0.230433	0.635794
H59	H	1.317660	0.295555	0.635795
C60	C	1.790299	0.029058	0.358951
H61	H	1.844992	0.041230	0.436436
H62	H	1.771131	0.077470	0.300388
H63	H	1.830552	-0.014665	0.300393
H64	H	1.637793	-0.058690	0.624112
H65	H	1.102292	0.124429	-0.241001
C66	C	0.845944	0.119962	-0.278986
H67	H	0.758546	0.118441	-0.259988
H68	H	0.877009	0.071940	-0.333539
H69	H	0.857833	0.168741	-0.333545
C70	C	1.726096	-0.305984	-0.000115
H71	H	1.793215	-0.349745	-0.000137
H72	H	1.731758	-0.272536	0.084832
H73	H	1.731745	-0.272532	-0.085075
H74	H	1.763804	0.015947	0.618166
H75	H	1.095906	0.066083	0.344924
H76	H	1.077618	0.184175	0.333603
H77	H	0.889110	0.060612	0.333596
