data_functionalizedCrystal
_audit_creation_method	'MofGen! by Chris Wilmer'
_symmetry_space_group_name_H-M	'P1'
_symmetry_Int_Tables_number	1
_symmetry_cell_setting	triclinic
loop_
_symmetry_equiv_pos_as_xyz
  x,y,z
_cell_length_a	17.000383
_cell_length_b	15.500215
_cell_length_c	17.699083
_cell_angle_alpha	93.188936
_cell_angle_beta	79.441659
_cell_angle_gamma	93.374105
loop_
_atom_site_label
_atom_site_type_symbol
_atom_site_fract_x
_atom_site_fract_y
_atom_site_fract_z
O1	O	1.059345	0.072005	0.030207
O2	O	0.827559	0.071994	0.057677
O3	O	0.950000	0.071992	-0.066672
O4	O	0.936904	0.072007	0.154556
O5	O	0.943400	-0.071898	-0.072512
O6	O	0.820959	-0.071896	0.051837
O7	O	1.052744	-0.071885	0.024366
Cu8	Cu	0.936249	-0.085029	0.037568
Cu9	Cu	0.944055	0.085138	0.044475
O10	O	0.930303	-0.071883	0.148715
C11	C	0.794602	0.000047	0.056232
C12	C	0.706235	0.000043	0.060619
C13	C	0.205965	0.000077	0.088949
C14	C	0.288996	0.000076	0.084821
C15	C	0.340129	0.000065	0.013167
C16	C	0.308228	0.000063	-0.054362
C17	C	0.225198	0.000071	-0.050232
C18	C	0.591305	0.000049	-0.002781
C19	C	0.674339	0.000039	-0.006905
C20	C	0.655102	0.000053	0.132278
C21	C	0.572072	0.000055	0.136400
C22	C	0.540178	0.000058	0.068872
C23	C	0.425000	0.000061	0.008946
C24	C	0.455308	0.000068	0.073094
N25	N	0.930764	-0.204715	0.032709
C26	C	0.976879	-0.249983	0.073598
C27	C	0.972741	-0.340556	0.069918
C28	C	0.922485	-0.385861	0.025352
C29	C	0.876369	-0.340587	-0.015541
C30	C	0.880511	-0.250015	-0.011865
C31	C	0.907572	-0.659330	0.012111
C32	C	0.903432	-0.749909	0.008439
C33	C	0.999805	-0.749872	0.093897
C34	C	1.003939	-0.659298	0.097573
C35	C	0.957827	-0.614032	0.056676
C36	C	0.918253	-0.478441	0.021591
C37	C	0.962063	-0.521453	0.060434
C38	C	1.085701	0.000063	0.025811
C39	C	1.174069	0.000073	0.021425
C40	C	0.946231	0.000047	-0.097759
C41	C	0.944823	0.000046	-0.181686
N42	N	0.949546	0.204824	0.049328
C43	C	1.016693	0.000049	-0.234963
C44	C	1.015366	0.000056	-0.313820
C45	C	0.942167	0.000055	-0.339398
C46	C	0.870291	0.000056	-0.286114
C47	C	0.871620	0.000055	-0.207258
C48	C	0.864933	0.000063	-0.604129
C49	C	0.863610	0.000061	-0.682992
C50	C	1.008679	0.000064	-0.710691
C51	C	1.010007	0.000063	-0.631836
C52	C	0.938132	0.000068	-0.578558
C53	C	0.939572	0.000061	-0.493053
C54	C	0.940726	0.000056	-0.424902
C55	C	0.934073	0.000064	0.179802
C56	C	0.935481	0.000070	0.263729
H57	H	0.413673	0.000081	0.131434
H58	H	0.803999	0.000059	-0.703813
H59	H	0.565347	0.000049	-0.057768
H60	H	0.715971	0.000034	-0.065256
H61	H	0.349867	0.000059	-0.112703
H62	H	0.314962	0.000088	0.139806
H63	H	1.076300	0.000044	-0.214145
H64	H	1.002985	-0.484563	0.096715
H65	H	1.069613	0.000059	-0.611016
H66	H	0.842960	-0.213159	-0.045161
H67	H	0.877334	-0.515338	-0.014693
H68	H	0.813095	0.000053	-0.163879
H69	H	0.835453	-0.377481	-0.051831
H70	H	1.010294	-0.377409	0.103212
H71	H	1.073890	0.000056	-0.357197
H72	H	1.017798	-0.213102	0.109893
H73	H	0.164337	0.000080	0.147296
H74	H	0.806407	0.000067	-0.560759
H75	H	0.530444	0.000067	0.194748
H76	H	0.810692	0.000061	-0.306945
H77	H	0.681079	0.000052	0.187256
H78	H	0.199230	0.000069	-0.105218
H79	H	1.067203	0.000065	-0.754080
H80	H	1.044866	-0.622418	0.133861
H81	H	1.037348	-0.786738	0.127192
H82	H	0.466641	0.000049	-0.049394
H83	H	0.862503	-0.786793	-0.027851
H84	H	0.870024	-0.622486	-0.021191
