data_functionalizedCrystal
_audit_creation_method	'MofGen! by Chris Wilmer'
_symmetry_space_group_name_H-M	'P1'
_symmetry_Int_Tables_number	1
_symmetry_cell_setting	triclinic
loop_
_symmetry_equiv_pos_as_xyz
  x,y,z
_cell_length_a	18.050591
_cell_length_b	18.050589
_cell_length_c	18.050582
_cell_angle_alpha	89.981795
_cell_angle_beta	89.979078
_cell_angle_gamma	90.024227
loop_
_atom_site_label
_atom_site_type_symbol
_atom_site_fract_x
_atom_site_fract_y
_atom_site_fract_z
Zn1	Zn	1.135293	-0.295786	-0.420054
Zn2	Zn	1.135203	-0.419969	-0.295873
Zn3	Zn	1.011112	-0.295789	-0.295865
Zn4	Zn	1.011060	-0.419930	-0.420009
O5	O	1.073167	-0.357868	-0.357950
O6	O	1.239205	-0.312274	-0.403603
O7	O	1.118727	-0.403514	-0.191948
O8	O	1.027644	-0.191864	-0.312354
O9	O	1.239140	-0.403511	-0.312369
O10	O	1.118879	-0.191862	-0.403595
O11	O	1.027557	-0.312279	-0.191942
O12	O	0.907180	-0.312241	-0.312311
O13	O	1.027555	-0.403444	-0.523940
O14	O	0.907142	-0.403447	-0.403519
O15	O	1.118828	-0.312236	-0.523973
O16	O	1.118676	-0.523888	-0.312325
O17	O	1.027468	-0.523860	-0.403527
C18	C	0.880215	-0.357841	-0.357909
C19	C	0.797669	-0.357847	-0.357909
C20	C	1.073077	-0.550820	-0.357938
C21	C	1.073107	-0.633366	-0.357958
C22	C	0.598217	-0.308191	-0.308425
C23	C	0.548798	-0.375927	-0.290154
C24	C	0.646539	-0.357869	-0.357943
C25	C	0.548877	-0.290157	-0.376212
C26	C	0.500553	-0.357885	-0.357974
C27	C	0.598206	-0.425641	-0.339637
C28	C	0.598289	-0.339825	-0.425726
C29	C	0.548892	-0.407607	-0.407481
C30	C	0.730637	-0.357859	-0.357923
C31	C	0.416457	-0.357903	-0.357994
C32	C	1.023557	-0.832828	-0.407536
C33	C	1.005459	-0.882261	-0.339767
C34	C	1.073180	-0.784497	-0.357967
C35	C	1.091314	-0.882146	-0.425744
C36	C	1.073249	-0.930482	-0.357983
C37	C	1.055046	-0.832842	-0.290162
C38	C	1.140933	-0.832722	-0.376186
C39	C	1.122861	-0.882133	-0.308370
C40	C	1.073138	-0.700398	-0.357959
C41	C	1.073291	-1.014578	-0.357983
C42	C	1.266872	-0.357897	-0.357992
C43	C	1.349418	-0.357909	-0.358010
C44	C	1.073196	-0.357835	-0.551656
C45	C	1.073208	-0.357821	-0.634202
C46	C	1.073277	-0.164163	-0.357979
C47	C	1.073324	-0.081617	-0.357991
C48	C	1.023612	-0.407353	-0.833635
C49	C	1.091367	-0.425511	-0.883034
C50	C	1.073245	-0.357765	-0.785332
C51	C	1.005527	-0.339586	-0.883014
C52	C	1.073274	-0.357711	-0.931317
C53	C	1.141036	-0.375958	-0.833645
C54	C	1.055150	-0.290002	-0.833620
C55	C	1.122952	-0.308134	-0.882998
C56	C	1.073227	-0.357797	-0.701234
C57	C	1.073300	-0.357679	-1.015414
C58	C	1.073181	-0.357848	-0.164998
C59	C	1.073312	-0.357652	-0.082453
H60	H	0.527060	-0.391202	-0.232844
H61	H	0.620045	-0.324530	-0.483019
H62	H	0.981678	-0.449342	-0.811961
H63	H	1.106625	-0.903802	-0.483056
H64	H	0.619875	-0.266226	-0.266503
H65	H	0.981531	-0.811178	-0.449395
C66	C	1.111656	-0.501941	-0.911942
C67	C	1.059494	-0.553664	-0.886951
C68	C	1.078149	-0.624078	-0.913571
H69	H	1.159407	-0.515279	-0.894329
H70	H	1.111931	-0.501285	-0.964570
H71	H	1.059227	-0.554322	-0.834334
H72	H	1.011739	-0.540350	-0.904562
H73	H	1.078424	-0.623422	-0.966199
H74	H	1.125901	-0.637408	-0.895956
H75	H	1.042757	-0.659179	-0.896625
C76	C	0.627116	-0.501966	-0.318936
C77	C	0.704678	-0.501054	-0.319114
C78	C	0.731337	-0.571346	-0.300037
H79	H	0.609911	-0.537350	-0.353873
H80	H	0.609800	-0.514879	-0.270927
H81	H	0.721987	-0.488151	-0.367116
H82	H	0.721903	-0.465686	-0.284176
H83	H	0.714021	-0.584258	-0.252028
H84	H	0.714127	-0.606724	-0.334976
H85	H	0.783964	-0.570735	-0.300148
C86	C	1.217374	-0.396549	-0.804712
C87	C	1.216454	-0.396386	-0.727151
C88	C	1.286758	-0.415363	-0.700471
H89	H	1.252733	-0.361557	-0.821929
H90	H	1.230324	-0.444535	-0.822002
H91	H	1.203513	-0.348406	-0.709868
H92	H	1.181110	-0.431379	-0.709914
H93	H	1.299708	-0.463349	-0.717760
H94	H	1.322111	-0.380368	-0.717693
H95	H	1.286141	-0.415262	-0.647844
H96	H	1.164986	-0.266177	-0.904535
C97	C	1.034542	-0.213671	-0.804688
C98	C	0.963539	-0.194952	-0.829641
C99	C	0.944517	-0.124647	-0.802993
H100	H	1.069246	-0.178226	-0.822305
H101	H	1.035086	-0.214130	-0.752059
H102	H	0.963001	-0.194488	-0.882259
H103	H	0.928820	-0.230379	-0.812025
H104	H	0.945061	-0.125105	-0.750365
H105	H	0.979226	-0.089207	-0.820613
H106	H	0.896338	-0.111940	-0.819914
H107	H	0.527370	-0.449673	-0.449370
H108	H	0.948246	-0.324232	-0.904701
H109	H	0.527169	-0.232894	-0.391625
C110	C	0.929109	-0.911382	-0.319341
C111	C	0.901847	-0.955135	-0.377284
C112	C	0.831519	-0.981978	-0.358497
H113	H	0.896510	-0.870918	-0.311088
H114	H	0.932497	-0.940391	-0.275548
H115	H	0.898454	-0.926128	-0.421065
H116	H	0.934425	-0.995610	-0.385546
H117	H	0.834907	-1.010987	-0.314703
H118	H	0.798927	-0.941510	-0.350243
H119	H	0.813016	-1.011673	-0.397804
C120	C	1.034516	-0.803947	-0.213782
C121	C	1.034669	-0.726385	-0.214678
C122	C	1.015748	-0.699739	-0.144336
H123	H	1.069539	-0.821143	-0.178484
H124	H	0.986541	-0.821280	-0.200760
H125	H	1.082637	-0.709059	-0.227691
H126	H	0.999646	-0.709168	-0.249960
H127	H	0.967774	-0.717073	-0.131314
H128	H	1.050773	-0.716941	-0.109044
H129	H	1.015843	-0.647112	-0.144936
C130	C	1.178758	-0.910785	-0.252306
C131	C	1.159464	-0.885684	-0.181499
C132	C	1.210930	-0.912073	-0.129832
H133	H	1.226747	-0.893090	-0.264733
H134	H	1.178756	-0.963415	-0.252856
H135	H	1.159474	-0.833065	-0.180951
H136	H	1.111483	-0.903377	-0.169049
H137	H	1.210928	-0.964703	-0.130382
H138	H	1.258916	-0.894376	-0.142266
H139	H	1.197843	-0.895052	-0.081783
H140	H	1.198184	-0.810948	-0.391613
