data_functionalizedCrystal
_audit_creation_method	'MofGen! by Chris Wilmer'
_symmetry_space_group_name_H-M	'P1'
_symmetry_Int_Tables_number	1
_symmetry_cell_setting	triclinic
loop_
_symmetry_equiv_pos_as_xyz
  x,y,z
_cell_length_a	25.639243
_cell_length_b	25.639240
_cell_length_c	25.639233
_cell_angle_alpha	89.986272
_cell_angle_beta	89.984038
_cell_angle_gamma	90.034783
loop_
_atom_site_label
_atom_site_type_symbol
_atom_site_fract_x
_atom_site_fract_y
_atom_site_fract_z
Zn1	Zn	0.799249	-0.208176	-0.295674
Zn2	Zn	1.299249	0.291824	0.204326
Zn3	Zn	0.799183	-0.295595	-0.208246
Zn4	Zn	1.299183	0.204405	0.291754
Zn5	Zn	0.711825	-0.208180	-0.208248
Zn6	Zn	1.211825	0.291820	0.291752
Zn7	Zn	0.711781	-0.295587	-0.295645
Zn8	Zn	1.211781	0.204413	0.204355
O9	O	0.755510	-0.251885	-0.251953
O10	O	1.255510	0.248115	0.248047
O11	O	0.872406	-0.219775	-0.284088
O12	O	1.372406	0.280225	0.215912
O13	O	0.787586	-0.284004	-0.135081
O14	O	1.287586	0.215996	0.364919
O15	O	0.723469	-0.135014	-0.219857
O16	O	1.223469	0.364986	0.280143
O17	O	0.872357	-0.284001	-0.219855
O18	O	1.372357	0.215999	0.280145
O19	O	0.787699	-0.135012	-0.284089
O20	O	1.287699	0.364988	0.215911
O21	O	0.723405	-0.219780	-0.135082
O22	O	1.223405	0.280220	0.364918
O23	O	0.638654	-0.219772	-0.219830
O24	O	1.138654	0.280228	0.280170
O25	O	0.723393	-0.283987	-0.368814
O26	O	1.223393	0.216013	0.131186
O27	O	0.638621	-0.283990	-0.284040
O28	O	1.138621	0.216010	0.215960
O29	O	0.787655	-0.219767	-0.368835
O30	O	1.287655	0.280233	0.131165
O31	O	0.787542	-0.368759	-0.219827
O32	O	1.287542	0.131241	0.280173
O33	O	0.723328	-0.368753	-0.284039
O34	O	1.223328	0.131247	0.215961
C35	C	0.619667	-0.251881	-0.251932
C36	C	1.119667	0.248119	0.248068
C37	C	0.561553	-0.251892	-0.251936
C38	C	1.061553	0.248108	0.248064
C39	C	0.201210	-0.218494	-0.285455
C40	C	0.701210	0.281506	0.214545
C41	C	0.146605	-0.218494	-0.285458
C42	C	0.646605	0.281506	0.214542
O43	O	0.118385	-0.190088	-0.313932
O44	O	0.618385	0.309912	0.186068
N45	N	0.119270	-0.251883	-0.251968
N46	N	0.619270	0.248117	0.248032
C47	C	0.146543	-0.285271	-0.218468
C48	C	0.646543	0.214729	0.281532
O49	O	0.118278	-0.313670	-0.189981
O50	O	0.618278	0.186330	0.310019
C51	C	0.201146	-0.285268	-0.218462
C52	C	0.701146	0.214732	0.281538
C53	C	0.228478	-0.251881	-0.251959
C54	C	0.728478	0.248119	0.248041
C55	C	0.228542	-0.185109	-0.318949
C56	C	0.728542	0.314891	0.181051
C57	C	0.283142	-0.185111	-0.318946
C58	C	0.783142	0.314889	0.181054
C59	C	0.310411	-0.218497	-0.285450
C60	C	0.810411	0.281503	0.214550
C61	C	0.283079	-0.251882	-0.251956
C62	C	0.783079	0.248118	0.248044
C63	C	0.228417	-0.318653	-0.184960
C64	C	0.728417	0.181347	0.315040
C65	C	0.283024	-0.318647	-0.184957
C66	C	0.783024	0.181353	0.315043
C67	C	0.310356	-0.285260	-0.218454
C68	C	0.810356	0.214740	0.281546
C69	C	0.364948	-0.285270	-0.218457
C70	C	0.864948	0.214730	0.281543
N71	N	0.392282	-0.251881	-0.251948
N72	N	0.892282	0.248119	0.248052
C73	C	0.365014	-0.218494	-0.285444
C74	C	0.865014	0.281506	0.214556
C75	C	0.031872	-0.285273	-0.218481
C76	C	0.531872	0.214727	0.281519
C77	C	-0.022730	-0.285279	-0.218489
C78	C	0.477270	0.214721	0.281511
C79	C	-0.022664	-0.218501	-0.285479
C80	C	0.477336	0.281499	0.214521
C81	C	0.031939	-0.218498	-0.285473
C82	C	0.531939	0.281502	0.214527
C83	C	0.059207	-0.251884	-0.251972
C84	C	0.559207	0.248116	0.248028
C85	C	0.479679	-0.218500	-0.285436
C86	C	0.979679	0.281500	0.214564
C87	C	0.534285	-0.218506	-0.285432
C88	C	1.034285	0.281494	0.214568
C89	C	0.534213	-0.285281	-0.218440
C90	C	1.034213	0.214719	0.281560
C91	C	0.479613	-0.285278	-0.218446
C92	C	0.979613	0.214722	0.281554
C93	C	0.452347	-0.251883	-0.251946
C94	C	0.952347	0.248117	0.248054
O95	O	0.393202	-0.313659	-0.189997
O96	O	0.893202	0.186341	0.310003
O97	O	0.393285	-0.190095	-0.313921
O98	O	0.893285	0.309905	0.186079
C99	C	0.755437	-0.387727	-0.251941
C100	C	1.255437	0.112273	0.248059
C101	C	0.755454	-0.445841	-0.251953
C102	C	1.255454	0.054159	0.248047
C103	C	0.788951	-0.696982	-0.285433
C104	C	1.288951	-0.196982	0.214567
C105	C	0.788935	-0.642378	-0.285429
C106	C	1.288935	-0.142378	0.214571
O107	O	0.817355	-0.614096	-0.313877
O108	O	1.317355	-0.114096	0.186123
N109	N	0.755511	-0.615115	-0.251960
N110	N	1.255511	-0.115115	0.248040
C111	C	0.722105	-0.642459	-0.218489
C112	C	1.222105	-0.142459	0.281511
O113	O	0.693674	-0.614256	-0.190021
O114	O	1.193674	-0.114256	0.309979
C115	C	0.722124	-0.697063	-0.218491
C116	C	1.222124	-0.197063	0.281509
C117	C	0.755546	-0.724323	-0.251966
C118	C	1.255546	-0.224323	0.248034
C119	C	0.822371	-0.724242	-0.318905
C120	C	1.322371	-0.224242	0.181095
C121	C	0.822386	-0.778842	-0.318909
C122	C	1.322386	-0.278842	0.181091
C123	C	0.788981	-0.806183	-0.285442
C124	C	1.288981	-0.306183	0.214558
C125	C	0.755561	-0.778923	-0.251970
C126	C	1.255561	-0.278923	0.248030
C127	C	0.688720	-0.724406	-0.185018
C128	C	1.188720	-0.224406	0.314982
C129	C	0.688742	-0.779013	-0.185022
C130	C	1.188742	-0.279013	0.314978
C131	C	0.722164	-0.806273	-0.218497
C132	C	1.222164	-0.306273	0.281503
C133	C	0.722171	-0.860864	-0.218508
C134	C	1.222171	-0.360864	0.281492
N135	N	0.755594	-0.888127	-0.251976
N136	N	1.255594	-0.388127	0.248024
C137	C	0.788999	-0.860786	-0.285444
C138	C	1.288999	-0.360786	0.214556
C139	C	0.722069	-0.527789	-0.218487
C140	C	1.222069	-0.027789	0.281513
C141	C	0.722047	-0.473186	-0.218488
C142	C	1.222047	0.026814	0.281512
C143	C	0.788878	-0.473109	-0.285427
C144	C	1.288878	0.026891	0.214573
C145	C	0.788897	-0.527712	-0.285429
C146	C	1.288897	-0.027712	0.214571
C147	C	0.755493	-0.555052	-0.251956
C148	C	1.255493	-0.055052	0.248044
C149	C	0.789028	-0.975451	-0.285451
C150	C	1.289028	-0.475451	0.214549
C151	C	0.789038	-1.030057	-0.285454
C152	C	1.289038	-0.530057	0.214546
C153	C	0.722209	-1.030130	-0.218513
C154	C	1.222209	-0.530130	0.281487
C155	C	0.722197	-0.975529	-0.218512
C156	C	1.222197	-0.475529	0.281488
C157	C	0.755610	-0.948191	-0.251982
C158	C	1.255610	-0.448191	0.248018
O159	O	0.693767	-0.889180	-0.190073
O160	O	1.193767	-0.389180	0.309927
O161	O	0.817430	-0.888996	-0.313903
O162	O	1.317430	-0.388996	0.186097
C163	C	0.891882	-0.251888	-0.251974
C164	C	1.391882	0.248112	0.248026
C165	C	0.949997	-0.251890	-0.251983
C166	C	1.449997	0.248110	0.248017
C167	C	0.755526	-0.251875	-0.388326
C168	C	1.255526	0.248125	0.111674
C169	C	0.755534	-0.251871	-0.446440
C170	C	1.255534	0.248129	0.053560
C171	C	0.755596	-0.115511	-0.251977
C172	C	1.255596	0.384489	0.248023
C173	C	0.755633	-0.057397	-0.251987
C174	C	1.255633	0.442603	0.248013
C175	C	0.789038	-0.218333	-0.806820
C176	C	1.289038	0.281667	-0.306820
C177	C	0.789044	-0.218318	-0.861424
C178	C	1.289044	0.281682	-0.361424
O179	O	0.817488	-0.189864	-0.889675
O180	O	1.317488	0.310136	-0.389675
N181	N	0.755591	-0.251749	-0.888723
N182	N	1.255591	0.248251	-0.388723
C183	C	0.722126	-0.285192	-0.861414
C184	C	1.222126	0.214808	-0.361414
O185	O	0.693672	-0.313626	-0.889648
O186	O	1.193672	0.186374	-0.389648
C187	C	0.722117	-0.285204	-0.806811
C188	C	1.222117	0.214796	-0.306811
C189	C	0.755576	-0.251775	-0.779515
C190	C	1.255576	0.248225	-0.279515
C191	C	0.822493	-0.184906	-0.779524
C192	C	1.322493	0.315094	-0.279524
C193	C	0.822487	-0.184921	-0.724924
C194	C	1.322487	0.315079	-0.224924
C195	C	0.789026	-0.218363	-0.697619
C196	C	1.289026	0.281637	-0.197619
C197	C	0.755570	-0.251790	-0.724915
C198	C	1.255570	0.248210	-0.224915
C199	C	0.688650	-0.318644	-0.779503
C200	C	1.188650	0.181356	-0.279503
C201	C	0.688644	-0.318652	-0.724896
C202	C	1.188644	0.181348	-0.224896
C203	C	0.722102	-0.285223	-0.697601
C204	C	1.222102	0.214777	-0.197601
C205	C	0.722103	-0.285247	-0.643009
C206	C	1.222103	0.214753	-0.143009
N207	N	0.755556	-0.251817	-0.615711
N208	N	1.255556	0.248183	-0.115711
C209	C	0.789017	-0.218375	-0.643016
C210	C	1.289017	0.281625	-0.143016
C211	C	0.722146	-0.285165	-0.976085
C212	C	1.222146	0.214835	-0.476085
C213	C	0.722157	-0.285157	-1.030687
C214	C	1.222157	0.214843	-0.530687
C215	C	0.789075	-0.218282	-1.030694
C216	C	1.289075	0.281718	-0.530694
C217	C	0.789066	-0.218293	-0.976090
C218	C	1.289066	0.281707	-0.476090
C219	C	0.755599	-0.251735	-0.948786
C220	C	1.255599	0.248265	-0.448786
C221	C	0.789002	-0.218410	-0.528350
C222	C	1.289002	0.281590	-0.028350
C223	C	0.788995	-0.218429	-0.473745
C224	C	1.288995	0.281571	0.026255
C225	C	0.722076	-0.285302	-0.473744
C226	C	1.222076	0.214698	0.026256
C227	C	0.722085	-0.285285	-0.528344
C228	C	1.222085	0.214715	-0.028344
C229	C	0.755550	-0.251834	-0.555646
C230	C	1.255550	0.248166	-0.055646
O231	O	0.693672	-0.313685	-0.614724
O232	O	1.193672	0.186315	-0.114724
O233	O	0.817461	-0.189941	-0.614775
O234	O	1.317461	0.310059	-0.114775
C235	C	0.755523	-0.251856	-0.116111
C236	C	1.255523	0.248144	0.383889
C237	C	0.755617	-0.251713	-0.057997
C238	C	1.255617	0.248287	0.442003
H239	H	0.457358	-0.312470	-0.191177
H240	H	0.957358	0.187530	0.308823
H241	H	0.305391	-0.157922	-0.346222
H242	H	0.805391	0.342078	0.153778
H243	H	0.556425	-0.312465	-0.191170
H244	H	1.056425	0.187535	0.308830
H245	H	0.694834	-0.312531	-0.451502
H246	H	1.194834	0.187469	0.048498
H247	H	0.457486	-0.191305	-0.312713
H248	H	0.957486	0.308695	0.187287
C249	C	-0.052664	-0.181773	-0.322326
C250	C	0.447336	0.318227	0.177674
C251	C	-0.090203	-0.204492	-0.363335
C252	C	0.409797	0.295508	0.136665
C253	C	-0.120204	-0.167767	-0.400181
C254	C	0.379796	0.332233	0.099819
C255	C	-0.112665	-0.108323	-0.396018
C256	C	0.387335	0.391677	0.103982
C257	C	-0.075125	-0.085600	-0.355007
C258	C	0.424875	0.414400	0.144993
C259	C	-0.045124	-0.122325	-0.318161
C260	C	0.454876	0.377675	0.181839
H261	H	-0.095785	-0.248499	-0.366419
H262	H	0.404215	0.251501	0.133581
H263	H	-0.147994	-0.184588	-0.430540
H264	H	0.352006	0.315412	0.069460
H265	H	-0.134874	-0.081137	-0.423294
H266	H	0.365126	0.418863	0.076706
H267	H	-0.069543	-0.041593	-0.351924
H268	H	0.430457	0.458407	0.148076
H269	H	-0.017334	-0.105504	-0.287802
H270	H	0.482666	0.394496	0.212198
H271	H	0.661505	-0.702219	-0.157759
H272	H	1.161505	-0.202219	0.342241
C273	C	0.825780	-0.945386	-0.322271
C274	C	1.325780	-0.445386	0.177729
C275	C	0.803087	-0.907857	-0.363298
C276	C	1.303087	-0.407857	0.136702
C277	C	0.839835	-0.877792	-0.400121
C278	C	1.339835	-0.377792	0.099879
C279	C	0.899277	-0.885255	-0.395917
C280	C	1.399277	-0.385255	0.104083
C281	C	0.921974	-0.922785	-0.354889
C282	C	1.421974	-0.422785	0.145111
C283	C	0.885225	-0.952850	-0.318066
C284	C	1.385225	-0.452850	0.181934
H285	H	0.759081	-0.902331	-0.366412
H286	H	1.259081	-0.402331	0.133588
H287	H	0.823034	-0.850010	-0.430493
H288	H	1.323034	-0.350010	0.069507
H289	H	0.926481	-0.862998	-0.423176
H290	H	1.426481	-0.362998	0.076824
H291	H	0.965979	-0.928310	-0.351775
H292	H	1.465979	-0.428310	0.148225
H293	H	0.902027	-0.980632	-0.287693
H294	H	1.402027	-0.480632	0.212307
C295	C	0.685279	-0.443204	-0.181669
C296	C	1.185279	0.056796	0.318331
C297	C	0.644200	-0.405696	-0.204278
C298	C	1.144200	0.094304	0.295722
C299	C	0.607434	-0.375715	-0.167455
C300	C	1.107434	0.124285	0.332545
C301	C	0.611745	-0.383242	-0.108023
C302	C	1.111745	0.116758	0.391977
C303	C	0.652825	-0.420751	-0.085410
C304	C	1.152825	0.079249	0.414590
C305	C	0.689592	-0.450732	-0.122234
C306	C	1.189592	0.049268	0.377766
H307	H	0.641007	-0.400123	-0.248276
H308	H	1.141007	0.099877	0.251724
H309	H	0.577024	-0.347948	-0.184194
H310	H	1.077024	0.152052	0.315806
H311	H	0.584528	-0.361048	-0.080764
H312	H	1.084528	0.138952	0.419236
H313	H	0.656018	-0.426324	-0.041413
H314	H	1.156018	0.073676	0.458587
H315	H	0.720002	-0.478499	-0.105494
H316	H	1.220002	0.021501	0.394506
C317	C	0.859118	-0.694174	-0.355726
C318	C	1.359118	-0.194174	0.144274
C319	C	0.918560	-0.701634	-0.351524
C320	C	1.418560	-0.201634	0.148476
C321	C	0.955306	-0.671571	-0.388353
C322	C	1.455306	-0.171571	0.111647
C323	C	0.932609	-0.634049	-0.429383
C324	C	1.432609	-0.134049	0.070617
C325	C	0.873163	-0.626588	-0.433587
C326	C	1.373163	-0.126588	0.066413
C327	C	0.836417	-0.656650	-0.396758
C328	C	1.336417	-0.156650	0.103242
H329	H	0.935365	-0.729412	-0.321150
H330	H	1.435365	-0.229412	0.178850
H331	H	0.999311	-0.677095	-0.385241
H332	H	1.499311	-0.177095	0.114759
H333	H	0.959810	-0.611795	-0.456646
H334	H	1.459810	-0.111795	0.043354
H335	H	0.856358	-0.598810	-0.463961
H336	H	1.356358	-0.098810	0.036039
H337	H	0.792412	-0.651127	-0.399870
H338	H	1.292412	-0.151127	0.100130
C339	C	0.825629	-0.443027	-0.322239
C340	C	1.325629	0.056973	0.177761
C341	C	0.825609	-0.382966	-0.322229
C342	C	1.325609	0.117034	0.177771
C343	C	0.862357	-0.352883	-0.359038
C344	C	1.362357	0.147117	0.140962
C345	C	0.899126	-0.382861	-0.395857
C346	C	1.399126	0.117139	0.104143
C347	C	0.899148	-0.442926	-0.395868
C348	C	1.399148	0.057074	0.104132
C349	C	0.862399	-0.473009	-0.359059
C350	C	1.362399	0.026991	0.140941
H351	H	0.798389	-0.360771	-0.294972
H352	H	1.298389	0.139229	0.205028
H353	H	0.862341	-0.308419	-0.359030
H354	H	1.362341	0.191581	0.140970
H355	H	0.926329	-0.360592	-0.423105
H356	H	1.426329	0.139408	0.076895
H357	H	0.926367	-0.465121	-0.423125
H358	H	1.426367	0.034879	0.076875
H359	H	0.862415	-0.517473	-0.359067
H360	H	1.362415	-0.017473	0.140933
H361	H	0.816254	-1.052249	-0.312716
H362	H	1.316254	-0.552249	0.187284
C363	C	0.685314	-0.557860	-0.181671
C364	C	1.185314	-0.057860	0.318329
C365	C	0.689613	-0.550359	-0.122238
C366	C	1.189613	-0.050359	0.377762
C367	C	0.652859	-0.580426	-0.085422
C368	C	1.152859	-0.080426	0.414578
C369	C	0.611805	-0.617994	-0.108039
C370	C	1.111805	-0.117994	0.391961
C371	C	0.607504	-0.625497	-0.167476
C372	C	1.107504	-0.125497	0.332524
C373	C	0.644258	-0.595429	-0.204292
C374	C	1.144258	-0.095429	0.295708
H375	H	0.720006	-0.522547	-0.105492
H376	H	1.220006	-0.022547	0.394508
H377	H	0.656044	-0.574872	-0.041423
H378	H	1.156044	-0.074872	0.458577
H379	H	0.584597	-0.640252	-0.080786
H380	H	1.084597	-0.140252	0.419214
H381	H	0.577112	-0.653308	-0.184221
H382	H	1.077112	-0.153308	0.315779
H383	H	0.641074	-0.600983	-0.248291
H384	H	1.141074	-0.100983	0.251709
C385	C	0.859285	-0.148142	-0.694901
C386	C	1.359285	0.351858	-0.194901
C387	C	0.900320	-0.170796	-0.657368
C388	C	1.400320	0.329204	-0.157368
C389	C	0.937117	-0.134013	-0.627349
C390	C	1.437117	0.365987	-0.127349
C391	C	0.932879	-0.074575	-0.634863
C392	C	1.432879	0.425425	-0.134863
C393	C	0.891843	-0.051918	-0.672399
C394	C	1.391843	0.448082	-0.172399
C395	C	0.855046	-0.088701	-0.702418
C396	C	1.355046	0.411299	-0.202418
H397	H	0.903458	-0.214798	-0.651803
H398	H	1.403458	0.285202	-0.151803
H399	H	0.967494	-0.150785	-0.599562
H400	H	1.467494	0.349215	-0.099562
H401	H	0.960119	-0.047345	-0.612642
H402	H	1.460119	0.452655	-0.112642
H403	H	0.888705	-0.007915	-0.677963
H404	H	1.388705	0.492085	-0.177963
H405	H	0.824669	-0.071929	-0.730204
H406	H	1.324669	0.428071	-0.230204
H407	H	0.661540	-0.801270	-0.157763
H408	H	1.161540	-0.301270	0.342237
C409	C	0.061864	-0.322007	-0.181633
C410	C	0.561864	0.177993	0.318367
C411	C	0.099386	-0.363089	-0.204214
C412	C	0.599386	0.136911	0.295786
C413	C	0.129374	-0.399822	-0.167365
C414	C	0.629374	0.100178	0.332635
C415	C	0.121842	-0.395472	-0.107936
C416	C	0.621842	0.104528	0.392064
C417	C	0.084319	-0.354387	-0.085352
C418	C	0.584319	0.145613	0.414648
C419	C	0.054330	-0.317655	-0.122201
C420	C	0.554330	0.182345	0.377799
H421	H	0.104963	-0.366311	-0.248209
H422	H	0.604963	0.133689	0.251791
H423	H	0.157151	-0.430235	-0.184084
H424	H	0.657151	0.069765	0.315916
H425	H	0.144041	-0.422663	-0.080659
H426	H	0.644041	0.077337	0.419341
H427	H	0.078741	-0.351165	-0.041357
H428	H	0.578741	0.148835	0.458643
H429	H	0.026553	-0.287241	-0.105482
H430	H	0.526553	0.212759	0.394518
C431	C	0.685430	-0.945538	-0.181695
C432	C	1.185430	-0.445538	0.318305
C433	C	0.689740	-0.953062	-0.122262
C434	C	1.189740	-0.453062	0.377738
C435	C	0.652977	-0.923074	-0.085441
C436	C	1.152977	-0.423074	0.414559
C437	C	0.611905	-0.885561	-0.108052
C438	C	1.111905	-0.385561	0.391948
C439	C	0.607594	-0.878035	-0.167488
C440	C	1.107594	-0.378035	0.332512
C441	C	0.644356	-0.908023	-0.204309
C442	C	1.144356	-0.408023	0.295691
H443	H	0.720145	-0.980833	-0.105521
H444	H	1.220145	-0.480833	0.394479
H445	H	0.656168	-0.928645	-0.041443
H446	H	1.156168	-0.428645	0.458557
H447	H	0.584691	-0.863362	-0.080795
H448	H	1.084691	-0.363362	0.419205
H449	H	0.577188	-0.850264	-0.184229
H450	H	1.077188	-0.350264	0.315771
H451	H	0.641165	-0.902452	-0.248307
H452	H	1.141165	-0.402452	0.251693
C453	C	0.685468	-1.060213	-0.181699
C454	C	1.185468	-0.560213	0.318301
C455	C	0.708174	-1.097743	-0.140681
C456	C	1.208174	-0.597743	0.359319
C457	C	0.671436	-1.127828	-0.103863
C458	C	1.171436	-0.627828	0.396137
C459	C	0.611992	-1.120383	-0.108064
C460	C	1.111992	-0.620383	0.391936
C461	C	0.589282	-1.082852	-0.149084
C462	C	1.089282	-0.582852	0.350916
C463	C	0.626020	-1.052767	-0.185901
C464	C	1.126020	-0.552767	0.314099
H465	H	0.752181	-1.103255	-0.137569
H466	H	1.252181	-0.603255	0.362431
H467	H	0.688248	-1.155611	-0.073497
H468	H	1.188248	-0.655611	0.426503
H469	H	0.584796	-1.142654	-0.080809
H470	H	1.084796	-0.642654	0.419191
H471	H	0.545275	-1.077340	-0.152195
H472	H	1.045275	-0.577340	0.347805
H473	H	0.609208	-1.024984	-0.216267
H474	H	1.109208	-0.524984	0.283733
H475	H	0.816310	-0.191071	-0.953870
H476	H	1.316310	0.308929	-0.453870
H477	H	0.816243	-0.191207	-0.451523
H478	H	1.316243	0.308793	0.048477
C479	C	0.825881	-0.181491	-1.060736
C480	C	1.325881	0.318509	-0.560736
C481	C	0.825883	-0.181479	-1.120797
C482	C	1.325883	0.318521	-0.620797
C483	C	0.862687	-0.144691	-1.150841
C484	C	1.362687	0.355309	-0.650841
C485	C	0.899489	-0.107915	-1.120823
C486	C	1.399489	0.392085	-0.620823
C487	C	0.899488	-0.107926	-1.060758
C488	C	1.399488	0.392074	-0.560758
C489	C	0.862684	-0.144714	-1.030714
C490	C	1.362684	0.355286	-0.530714
H491	H	0.798639	-0.208703	-1.143021
H492	H	1.298639	0.291297	-0.643021
H493	H	0.862687	-0.144683	-1.195305
H494	H	1.362687	0.355317	-0.695305
H495	H	0.926733	-0.080682	-1.143063
H496	H	1.426733	0.419318	-0.643063
H497	H	0.926732	-0.080701	-1.038534
H498	H	1.426732	0.419299	-0.538534
H499	H	0.862683	-0.144722	-0.986250
H500	H	1.362683	0.355278	-0.486250
C501	C	0.859307	-0.148117	-0.809553
C502	C	1.359307	0.351883	-0.309553
C503	C	0.918739	-0.152394	-0.802042
C504	C	1.418739	0.347606	-0.302042
C505	C	0.955558	-0.115606	-0.832065
C506	C	1.455558	0.384394	-0.332065
C507	C	0.932946	-0.074540	-0.869600
C508	C	1.432946	0.425460	-0.369600
C509	C	0.873512	-0.070262	-0.877113
C510	C	1.373512	0.429738	-0.377113
C511	C	0.836692	-0.107050	-0.847090
C512	C	1.336692	0.392950	-0.347090
H513	H	0.935480	-0.182794	-0.774254
H514	H	1.435480	0.317206	-0.274254
H515	H	0.999556	-0.118773	-0.826503
H516	H	1.499556	0.381227	-0.326503
H517	H	0.960203	-0.047307	-0.891825
H518	H	1.460203	0.452693	-0.391825
H519	H	0.856770	-0.039861	-0.904900
H520	H	1.356770	0.460139	-0.404900
H521	H	0.792694	-0.103883	-0.852651
H522	H	1.292694	0.396117	-0.352651
C523	C	0.685335	-0.321960	-0.946054
C524	C	1.185335	0.178040	-0.446054
C525	C	0.625902	-0.317693	-0.953562
C526	C	1.125902	0.182307	-0.453562
C527	C	0.589090	-0.354487	-0.923535
C528	C	1.089090	0.145513	-0.423535
C529	C	0.611712	-0.395548	-0.886001
C530	C	1.111712	0.104452	-0.386001
C531	C	0.671148	-0.399817	-0.878492
C532	C	1.171148	0.100183	-0.378492
C533	C	0.707959	-0.363023	-0.908519
C534	C	1.207959	0.136977	-0.408519
H535	H	0.609154	-0.287296	-0.981348
H536	H	1.109154	0.212704	-0.481348
H537	H	0.545092	-0.351327	-0.929094
H538	H	1.045092	0.148673	-0.429094
H539	H	0.584461	-0.422785	-0.863774
H540	H	1.084461	0.077215	-0.363774
H541	H	0.687896	-0.430214	-0.850705
H542	H	1.187896	0.069786	-0.350705
H543	H	0.751958	-0.366183	-0.902959
H544	H	1.251958	0.133817	-0.402959
H545	H	0.816251	-0.191169	-0.550573
H546	H	1.316251	0.308831	-0.050573
H547	H	0.206346	-0.157919	-0.346225
H548	H	0.706346	0.342081	0.153775
C549	C	0.651832	-0.355441	-0.694861
C550	C	1.151832	0.144559	-0.194861
C551	C	0.592398	-0.351171	-0.702360
C552	C	1.092398	0.148829	-0.202360
C553	C	0.555588	-0.387960	-0.672325
C554	C	1.055588	0.112040	-0.172325
C555	C	0.578212	-0.429020	-0.634791
C556	C	1.078212	0.070980	-0.134791
C557	C	0.637649	-0.433292	-0.627291
C558	C	1.137649	0.066708	-0.127291
C559	C	0.674459	-0.396503	-0.657326
C560	C	1.174459	0.103497	-0.157326
H561	H	0.575647	-0.320774	-0.730146
H562	H	1.075647	0.179226	-0.230146
H563	H	0.511589	-0.384797	-0.677877
H564	H	1.011589	0.115203	-0.177877
H565	H	0.550964	-0.456253	-0.612558
H566	H	1.050964	0.043747	-0.112558
H567	H	0.654400	-0.463689	-0.599505
H568	H	1.154400	0.036311	-0.099505
H569	H	0.718458	-0.399666	-0.651774
H570	H	1.218458	0.100334	-0.151774
H571	H	0.556536	-0.191317	-0.312711
H572	H	1.056536	0.308683	0.187289
H573	H	0.816110	-0.549903	-0.312689
H574	H	1.316110	-0.049903	0.187311
C575	C	0.313018	-0.355374	-0.148105
C576	C	0.813018	0.144626	0.351895
C577	C	0.305490	-0.351017	-0.088676
C578	C	0.805490	0.148983	0.411324
C579	C	0.335483	-0.387744	-0.051826
C580	C	0.835483	0.112256	0.448174
C581	C	0.373003	-0.428829	-0.074404
C582	C	0.873003	0.071171	0.425596
C583	C	0.380533	-0.433188	-0.133836
C584	C	0.880533	0.066812	0.366164
C585	C	0.350540	-0.396460	-0.170687
C586	C	0.850540	0.103540	0.329313
H587	H	0.277713	-0.320602	-0.071959
H588	H	0.777713	0.179398	0.428041
H589	H	0.329908	-0.384517	-0.007830
H590	H	0.829908	0.115483	0.492170
H591	H	0.395206	-0.456016	-0.047125
H592	H	0.895206	0.043984	0.452875
H593	H	0.408310	-0.463602	-0.150553
H594	H	0.908310	0.036398	0.349447
H595	H	0.356115	-0.399687	-0.214683
H596	H	0.856115	0.100313	0.285317
H597	H	-0.044979	-0.312472	-0.191218
H598	H	0.455021	0.187528	0.308782
H599	H	0.054190	-0.191310	-0.312748
H600	H	0.554190	0.308690	0.187252
H601	H	0.849606	-0.801033	-0.346164
H602	H	1.349606	-0.301033	0.153836
H603	H	0.694917	-0.312384	-1.052907
H604	H	1.194917	0.187616	-0.552907
H605	H	0.206173	-0.345840	-0.157683
H606	H	0.706173	0.154160	0.342317
H607	H	0.661404	-0.345866	-0.801718
H608	H	1.161404	0.154134	-0.301718
H609	H	0.694845	-0.312510	-0.550569
H610	H	1.194845	0.187490	-0.050569
