data_functionalizedCrystal
_audit_creation_method	'MofGen! by Chris Wilmer'
_symmetry_space_group_name_H-M	'P1'
_symmetry_Int_Tables_number	1
_symmetry_cell_setting	triclinic
loop_
_symmetry_equiv_pos_as_xyz
  x,y,z
_cell_length_a	16.120484
_cell_length_b	12.827893
_cell_length_c	12.827885
_cell_angle_alpha	89.978811
_cell_angle_beta	87.136072
_cell_angle_gamma	87.076421
loop_
_atom_site_label
_atom_site_type_symbol
_atom_site_fract_x
_atom_site_fract_y
_atom_site_fract_z
Zn1	Zn	-0.331909	-1.576501	0.611951
Zn2	Zn	-0.471344	-1.567502	0.446054
Zn3	Zn	-0.331945	-1.401740	0.437221
Zn4	Zn	-0.471277	-1.392839	0.620743
O5	O	-0.401619	-1.484646	0.528992
O6	O	-0.350418	-1.721542	0.589961
O7	O	-0.452895	-1.545473	0.298648
O8	O	-0.215275	-1.432414	0.453023
O9	O	-0.452861	-1.714931	0.468077
O10	O	-0.215249	-1.560810	0.581396
O11	O	-0.350479	-1.423688	0.292159
O12	O	-0.350415	-1.254324	0.461549
O13	O	-0.452747	-1.417243	0.765810
O14	O	-0.452782	-1.247784	0.596382
O15	O	-0.350354	-1.552179	0.759350
O16	O	-0.588000	-1.536841	0.476603
O17	O	-0.587951	-1.408517	0.604947
C18	C	-0.401595	-1.213137	0.528962
C19	C	-0.401605	-1.096983	0.528975
C20	C	-0.452338	-1.041985	0.595600
C21	C	-0.452349	-0.921934	0.595615
C22	C	-0.618226	-1.470765	0.542710
C23	C	-0.710891	-1.464923	0.548614
C24	C	-0.880552	-1.454262	0.559414
C25	C	-0.921845	-1.515216	0.498588
C26	C	-1.016250	-1.509284	0.504597
C27	C	-0.786138	-1.460193	0.553406
C28	C	-0.184166	-1.498608	0.515243
C29	C	-0.091501	-1.504559	0.509384
C30	C	-0.401539	-1.484722	0.801557
C31	C	-0.401505	-1.484754	0.917708
C32	C	-0.401636	-0.757214	0.529015
C33	C	-0.401626	-0.873368	0.529001
C34	C	-0.401638	-1.484634	0.257483
C35	C	-0.401438	-1.484818	0.141318
C36	C	-0.350827	-1.551532	0.966296
C37	C	-0.350791	-1.551567	1.086344
H38	H	-0.886298	-1.571854	0.441999
H39	H	-0.307407	-1.608742	1.128141
H40	H	-0.444830	-1.427648	1.099529
C41	C	-0.459431	-1.408722	0.980796
C42	C	-0.512820	-1.464542	1.046819
C43	C	-0.566203	-1.394536	1.104936
H44	H	-0.427592	-1.365261	1.021444
H45	H	-0.491279	-1.366840	0.934780
H46	H	-0.480975	-1.506407	1.092830
H47	H	-0.544677	-1.508000	1.006198
H48	H	-0.598052	-1.352653	1.058920
H49	H	-0.534358	-1.351078	1.145577
H50	H	-0.602439	-1.432400	1.149732
C51	C	-0.510404	-0.858943	0.671560
C52	C	-0.592888	-0.880113	0.653869
C53	C	-0.646392	-0.822094	0.723804
H54	H	-0.498387	-0.877538	0.741088
H55	H	-0.502771	-0.786620	0.661458
H56	H	-0.600517	-0.952420	0.663979
H57	H	-0.604931	-0.861514	0.584355
H58	H	-0.638760	-0.749771	0.713701
H59	H	-0.634368	-0.840693	0.793327
H60	H	-0.702364	-0.836442	0.711804
H61	H	-0.307465	-1.608674	0.919018
H62	H	-0.358193	-0.920646	0.471955
C63	C	-0.510108	-1.097842	0.671698
C64	C	-0.462916	-1.163572	0.735704
C65	C	-0.516107	-1.215051	0.805810
H66	H	-0.541959	-1.047889	0.713601
H67	H	-0.546346	-1.138146	0.633927
H68	H	-0.426692	-1.123270	0.773472
H69	H	-0.431066	-1.213544	0.693830
H70	H	-0.552345	-1.255356	0.768039
H71	H	-0.547955	-1.165091	0.847706
H72	H	-0.484095	-1.259662	0.849240
H73	H	-0.916097	-1.397627	0.615996
C74	C	-0.343843	-1.041213	0.452795
C75	C	-0.391045	-0.975528	0.388756
C76	C	-0.337864	-0.924153	0.318550
H77	H	-0.307568	-1.000883	0.490456
H78	H	-0.312033	-1.091258	0.410932
H79	H	-0.422841	-0.925491	0.430613
H80	H	-0.427318	-1.015833	0.351071
H81	H	-0.306054	-0.974198	0.276687
H82	H	-0.301592	-0.883829	0.356220
H83	H	-0.369883	-0.879588	0.275085
