data_functionalizedCrystal
_audit_creation_method	'MofGen! by Chris Wilmer'
_symmetry_space_group_name_H-M	'P1'
_symmetry_Int_Tables_number	1
_symmetry_cell_setting	triclinic
loop_
_symmetry_equiv_pos_as_xyz
  x,y,z
_cell_length_a	19.077142
_cell_length_b	19.077068
_cell_length_c	19.076919
_cell_angle_alpha	85.529249
_cell_angle_beta	89.925643
_cell_angle_gamma	90.114550
loop_
_atom_site_label
_atom_site_type_symbol
_atom_site_fract_x
_atom_site_fract_y
_atom_site_fract_z
Zn1	Zn	-1.044046	0.340467	-0.453535
Zn2	Zn	-1.043960	0.453617	-0.340376
Zn3	Zn	-0.931658	0.331038	-0.330962
Zn4	Zn	-0.921799	0.453191	-0.453108
O5	O	-0.985366	0.394578	-0.394495
O6	O	-1.142194	0.359601	-0.442642
O7	O	-1.033152	0.433589	-0.240651
O8	O	-0.950729	0.233814	-0.343461
O9	O	-1.142130	0.442732	-0.359505
O10	O	-1.033300	0.240742	-0.433514
O11	O	-0.950645	0.343531	-0.233735
O12	O	-0.832191	0.343117	-0.343047
O13	O	-0.933926	0.442005	-0.551640
O14	O	-0.824948	0.432862	-0.432787
O15	O	-1.023740	0.359188	-0.551954
O16	O	-1.023592	0.552035	-0.359091
O17	O	-0.933842	0.551722	-0.441915
C18	C	-0.803118	0.386921	-0.386849
C19	C	-0.725150	0.383663	-0.383596
C20	C	-0.684768	0.428922	-0.428722
C21	C	-0.611509	0.425852	-0.425668
C22	C	-0.578633	0.377525	-0.377484
C23	C	-0.619021	0.332260	-0.332356
C24	C	-0.692278	0.335328	-0.335414
C25	C	-0.359939	0.363329	-0.363338
C26	C	-0.286676	0.360266	-0.360282
C27	C	-0.279169	0.453858	-0.453596
C28	C	-0.352428	0.456924	-0.456647
C29	C	-0.392810	0.411657	-0.411521
N30	N	-0.503751	0.374386	-0.374359
N31	N	-0.467691	0.414792	-0.414650
C32	C	-0.977656	0.577413	-0.401494
C33	C	-0.974421	0.655634	-0.404515
C34	C	-0.977743	0.401601	-0.578045
C35	C	-0.974495	0.404593	-0.656263
C36	C	-0.168326	0.402262	-0.402163
C37	C	-0.246294	0.405526	-0.405409
C38	C	-0.993124	0.211031	-0.387485
C39	C	-0.996430	0.132814	-0.384498
C40	C	-1.019663	0.692526	-0.362850
C41	C	-1.016624	0.766023	-0.365696
C42	C	-0.968340	0.802628	-0.410202
C43	C	-0.923096	0.765732	-0.451871
C44	C	-0.926139	0.692236	-0.449029
C45	C	-0.954229	1.022422	-0.423325
C46	C	-0.951188	1.095922	-0.426162
C47	C	-1.044718	1.096209	-0.339988
C48	C	-1.047753	1.022711	-0.337147
C49	C	-1.002512	0.985822	-0.378818
N50	N	-0.965231	0.877754	-0.413109
N51	N	-1.005625	0.910697	-0.375914
C52	C	-1.019728	0.362883	-0.693174
C53	C	-1.016667	0.365691	-0.766668
C54	C	-0.968376	0.410215	-0.803249
C55	C	-0.923138	0.451927	-0.766332
C56	C	-0.926196	0.449114	-0.692840
C57	C	-0.954214	0.423248	-1.023031
C58	C	-0.951161	0.426060	-1.096528
C59	C	-1.044689	0.339822	-1.096859
C60	C	-1.047745	0.337016	-1.023365
C61	C	-1.002505	0.378726	-0.986454
N62	N	-0.965248	0.413089	-0.878372
N63	N	-1.005630	0.375848	-0.911333
C64	C	-0.993001	0.387534	-0.211659
C65	C	-0.996394	0.384349	-0.133440
H66	H	-0.711529	0.468278	-0.467956
C67	C	-0.250515	0.307099	-0.307275
N68	N	-0.223279	0.267057	-0.267350
C69	C	-0.736699	0.285540	-0.285770
N70	N	-0.770155	0.248037	-0.248377
C71	C	-0.904496	0.981856	-0.469202
N72	N	-0.867047	0.951300	-0.503774
H73	H	-0.578632	0.462708	-0.462414
H74	H	-1.081552	1.126252	-0.306062
C75	C	-0.904446	0.469128	-0.982438
N76	N	-0.866956	0.503686	-0.951862
H77	H	-0.883816	0.488177	-0.796123
C78	C	-0.388585	0.510091	-0.509650
N79	N	-0.415819	0.550140	-0.549570
C80	C	-1.066390	0.806600	-0.319857
N81	N	-1.103875	0.837161	-0.285328
C82	C	-0.234744	0.503643	-0.503236
N83	N	-0.201283	0.541141	-0.540629
C84	C	-1.100862	0.288029	-0.983131
N85	N	-1.140870	0.251131	-0.952826
C86	C	-1.072851	0.313902	-0.652942
N87	N	-1.112863	0.277006	-0.622640
C88	C	-0.898074	1.136187	-0.475129
N89	N	-0.858070	1.166513	-0.512010
C90	C	-0.898033	0.475039	-1.136766
N91	N	-0.858019	0.511929	-1.167073
C92	C	-0.869980	0.805999	-0.500825
N93	N	-0.829970	0.836328	-0.537696
H94	H	-1.053502	0.331728	-0.796718
H95	H	-0.392809	0.326474	-0.326589
C96	C	-0.582855	0.279097	-0.279354
N97	N	-0.555616	0.239056	-0.239431
H98	H	-1.081520	0.305864	-1.126919
H99	H	-1.058978	0.662727	-0.326606
C100	C	-1.100853	0.982450	-0.288167
N101	N	-1.140840	0.952125	-0.251267
C102	C	-0.876369	0.651656	-0.494863
N103	N	-0.838883	0.621092	-0.529389
H104	H	-0.889356	0.483072	-0.662787
