data_functionalizedCrystal
_audit_creation_method	'MofGen! by Chris Wilmer'
_symmetry_space_group_name_H-M	'P1'
_symmetry_Int_Tables_number	1
_symmetry_cell_setting	triclinic
loop_
_symmetry_equiv_pos_as_xyz
  x,y,z
_cell_length_a	15.944551
_cell_length_b	14.044220
_cell_length_c	12.503572
_cell_angle_alpha	86.164750
_cell_angle_beta	86.471578
_cell_angle_gamma	91.656193
loop_
_atom_site_label
_atom_site_type_symbol
_atom_site_fract_x
_atom_site_fract_y
_atom_site_fract_z
O1	O	-0.198063	1.263177	-0.089184
O2	O	-0.190754	0.987209	-0.089212
O3	O	-0.072698	1.132729	-0.089204
O4	O	-0.316119	1.117656	-0.089193
O5	O	-0.081592	1.121785	0.089437
O6	O	-0.199649	0.976265	0.089429
O7	O	-0.206958	1.252233	0.089457
Cu8	Cu	-0.204115	1.113250	0.105754
Cu9	Cu	-0.193596	1.126192	-0.105510
O10	O	-0.325014	1.106712	0.089448
C11	C	-0.192002	0.946423	0.000104
C12	C	-0.182461	0.841197	0.000093
C13	C	-0.165018	0.648533	0.000114
C14	C	-0.232689	0.590904	0.000121
C15	C	-0.222984	0.483699	0.000133
C16	C	-0.174722	0.755748	0.000102
C17	C	-0.351908	1.112810	0.000129
C18	C	-0.445294	1.114686	0.000134
C19	C	-0.667240	1.209371	0.000127
C20	C	-0.729350	1.160006	0.088203
C21	C	-0.616274	1.118080	0.000125
C22	C	-0.720564	1.170775	-0.087923
C23	C	-0.781432	1.121365	0.000111
C24	C	-0.677157	1.068686	0.088274
C25	C	-0.668362	1.079472	-0.087932
C26	C	-0.730450	1.030040	0.000166
C27	C	-0.521130	1.116190	0.000134
C28	C	-0.876574	1.123248	0.000110
C29	C	-0.045804	1.126632	0.000113
C30	C	0.047583	1.124757	0.000101
C31	C	-0.205709	1.293019	0.000138
C32	C	-0.215251	1.398246	0.000142
N33	N	-0.211514	1.104153	0.254346
N34	N	-0.186192	1.135296	-0.254102
C35	C	-0.222404	1.090773	0.473460
C36	C	-0.175304	1.148674	0.526791
C37	C	-0.181364	1.141228	0.648714
C38	C	-0.216346	1.098217	0.351527
H39	H	-0.297913	0.622079	0.000119
O40	O	-0.281858	1.017719	0.534258
H41	H	-0.245615	0.968492	0.585508
O42	O	-0.632928	1.034450	-0.186590
H43	H	-0.685086	1.014023	-0.236187
O44	O	-0.746094	1.227982	-0.186553
H45	H	-0.783996	1.181558	-0.234977
H46	H	-0.099799	0.617360	0.000117
H47	H	-0.756056	1.194056	0.162673
O48	O	-0.630629	1.309730	0.000246
H49	H	-0.655144	1.342913	0.073479
H50	H	-0.657988	1.025537	0.162815
O51	O	-0.766868	0.929584	0.000215
H52	H	-0.749538	0.887445	0.073395
H53	H	-0.130430	1.203837	0.480881
