data_functionalizedCrystal
_audit_creation_method	'MofGen! by Chris Wilmer'
_symmetry_space_group_name_H-M	'P1'
_symmetry_Int_Tables_number	1
_symmetry_cell_setting	triclinic
loop_
_symmetry_equiv_pos_as_xyz
  x,y,z
_cell_length_a	27.732048
_cell_length_b	11.792241
_cell_length_c	10.268362
_cell_angle_alpha	90.005428
_cell_angle_beta	89.992929
_cell_angle_gamma	96.581965
loop_
_atom_site_label
_atom_site_type_symbol
_atom_site_fract_x
_atom_site_fract_y
_atom_site_fract_z
O1	O	0.641711	-0.135041	-0.108375
O2	O	0.501036	-0.155574	-0.108361
O3	O	0.574787	0.019972	-0.108359
O4	O	0.567960	-0.310587	-0.108377
O5	O	0.574781	0.019979	0.108242
O6	O	0.501030	-0.155567	0.108239
O7	O	0.641704	-0.135034	0.108226
Cu8	Cu	0.571366	-0.145300	0.128010
Cu9	Cu	0.571374	-0.145308	-0.128145
O10	O	0.567953	-0.310580	0.108224
C11	C	0.483024	-0.155140	-0.000059
C12	C	0.429361	-0.153842	-0.000054
C13	C	0.574355	0.062253	-0.000059
C14	C	0.573071	0.188226	-0.000060
C15	C	0.659717	-0.135469	-0.000079
C16	C	0.713379	-0.136766	-0.000093
C17	C	1.051640	-0.041201	-0.000043
C18	C	1.253327	-0.046016	-0.000039
O19	O	1.284076	0.041372	0.000021
N20	N	1.273055	-0.150108	-0.000048
C21	C	1.242357	-0.253003	-0.000050
O22	O	1.263765	-0.341650	-0.000045
C23	C	1.040671	-0.248186	-0.000045
C24	C	1.020946	-0.144088	-0.000049
C25	C	1.031915	0.062889	-0.000045
C26	C	0.981496	0.064092	-0.000054
C27	C	0.950802	-0.038795	-0.000059
C28	C	0.970527	-0.142885	-0.000057
C29	C	1.009974	-0.351080	-0.000037
C30	C	0.959550	-0.349867	-0.000033
C31	C	0.939825	-0.245769	-0.000037
C32	C	0.889415	-0.244570	-0.000071
N33	N	0.869687	-0.140478	-0.000061
C34	C	0.900381	-0.037591	-0.000056
C35	C	1.348246	-0.255524	-0.000056
C36	C	1.398668	-0.256729	-0.000059
C37	C	1.409634	-0.049742	-0.000046
C38	C	1.359212	-0.048538	-0.000051
C39	C	1.328518	-0.151433	-0.000046
C40	C	0.794497	-0.035073	-0.000074
C41	C	0.744073	-0.033879	-0.000087
C42	C	0.733111	-0.240866	-0.000094
C43	C	0.783530	-0.242060	-0.000087
C44	C	0.814223	-0.139154	-0.000073
O45	O	0.858637	-0.331911	-0.000117
O46	O	0.878964	0.051043	-0.000032
C47	C	1.102059	-0.042404	-0.000035
C48	C	1.121784	-0.146493	-0.000033
C49	C	1.091090	-0.249381	-0.000038
C50	C	1.172205	-0.147698	-0.000036
C51	C	1.202899	-0.044811	-0.000031
C52	C	1.183171	0.059281	-0.000021
C53	C	1.132752	0.060484	-0.000029
C54	C	1.110818	-0.353472	-0.000048
C55	C	1.161237	-0.354667	-0.000041
C56	C	1.191931	-0.251779	-0.000035
C57	C	0.568385	-0.352861	-0.000079
C58	C	0.569669	-0.478834	-0.000086
N59	N	0.571365	-0.145293	0.308176
C60	C	0.570711	0.418862	-0.000082
C61	C	0.572023	0.290519	-0.000070
N62	N	0.571380	-0.145306	-0.308311
C63	C	0.571372	-0.145306	0.573847
C64	C	0.571366	-0.145302	0.426009
H65	H	0.728016	0.050894	-0.000094
H66	H	1.343156	0.036228	-0.000054
O67	O	1.080958	-0.453350	-0.000238
C68	C	1.051482	-0.458865	-0.112444
H69	H	1.048686	-0.368830	-0.149829
H70	H	1.013705	-0.501838	-0.087235
H71	H	1.068220	-0.510385	-0.191000
H72	H	1.434634	0.034033	-0.000046
H73	H	0.965441	0.148859	-0.000051
H74	H	1.208171	0.143055	-0.000024
O75	O	1.061747	0.162812	0.000183
C76	C	1.091249	0.168328	0.112337
H77	H	1.072946	0.109966	0.190755
H78	H	1.096664	0.259853	0.149982
H79	H	1.127993	0.139627	0.086968
O80	O	1.417745	-0.357950	-0.000013
C81	C	1.379836	-0.448494	-0.000048
H82	H	1.345502	-0.417284	0.040961
H83	H	1.390562	-0.521225	0.062835
H84	H	1.372790	-0.480191	-0.103963
O85	O	0.802748	-0.343110	0.000090
C86	C	0.831562	-0.350004	0.112303
H87	H	0.843878	-0.260326	0.149698
H88	H	0.864698	-0.394665	0.087099
H89	H	0.809412	-0.400594	0.190849
H90	H	0.934561	-0.433658	-0.000023
H91	H	1.177292	-0.439442	-0.000047
O92	O	0.703359	-0.340910	-0.000156
C93	C	0.731577	-0.433053	-0.000119
H94	H	0.769130	-0.403588	-0.041127
H95	H	0.713171	-0.505089	-0.063000
H96	H	0.735246	-0.464993	0.103797
H97	H	1.026025	-0.435848	-0.000040
O98	O	0.824237	0.064992	-0.000128
C99	C	0.796006	0.157110	-0.000103
H100	H	0.758459	0.127608	-0.041107
H101	H	0.814408	0.229142	-0.062994
H102	H	0.792324	0.189072	0.103809
O103	O	1.113653	0.161678	-0.000198
C104	C	1.129311	0.224324	-0.112389
H105	H	1.164359	0.194005	-0.149791
H106	H	1.136060	0.318958	-0.087152
H107	H	1.100176	0.210667	-0.190942
O108	O	1.318386	-0.355411	-0.000239
C109	C	1.288906	-0.360928	-0.112438
H110	H	1.286108	-0.270894	-0.149821
H111	H	1.251130	-0.403902	-0.087218
H112	H	1.305641	-0.412448	-0.190998
