data_functionalizedCrystal
_audit_creation_method	'MofGen! by Chris Wilmer'
_symmetry_space_group_name_H-M	'P1'
_symmetry_Int_Tables_number	1
_symmetry_cell_setting	triclinic
loop_
_symmetry_equiv_pos_as_xyz
  x,y,z
_cell_length_a	29.839134
_cell_length_b	12.594516
_cell_length_c	29.839126
_cell_angle_alpha	90.015384
_cell_angle_beta	89.970362
_cell_angle_gamma	89.989085
loop_
_atom_site_label
_atom_site_type_symbol
_atom_site_fract_x
_atom_site_fract_y
_atom_site_fract_z
Zn1	Zn	0.686833	0.423969	-0.254152
Zn2	Zn	0.686788	0.601946	-0.179034
Zn3	Zn	0.611706	0.423966	-0.179022
Zn4	Zn	0.611697	0.601890	-0.254122
O5	O	0.649256	0.512943	-0.216583
O6	O	0.749694	0.447603	-0.244205
O7	O	0.676813	0.578359	-0.116165
O8	O	0.621694	0.275021	-0.188996
O9	O	0.749661	0.578362	-0.189016
O10	O	0.676889	0.275023	-0.244194
O11	O	0.621651	0.447597	-0.116156
O12	O	0.548837	0.447543	-0.188967
O13	O	0.621679	0.578267	-0.316993
O14	O	0.548831	0.578264	-0.244143
O15	O	0.676881	0.447549	-0.317016
O16	O	0.676805	0.750884	-0.188987
O17	O	0.621635	0.750844	-0.244154
C18	C	0.532533	0.512898	-0.216550
C19	C	0.482599	0.512904	-0.216547
C20	C	0.649226	0.789484	-0.216578
C21	C	0.649255	0.907789	-0.216591
C22	C	0.649284	0.512902	-0.333761
C23	C	0.649295	0.512885	-0.383695
C24	C	0.172961	0.581110	-0.245278
C25	C	-0.014712	0.581140	-0.245298
O26	O	-0.038971	0.639080	-0.269706
N27	N	-0.038186	0.512982	-0.216616
C28	C	-0.014740	0.444807	-0.187931
O29	O	-0.039013	0.386828	-0.163539
C30	C	0.172932	0.444773	-0.187913
C31	C	0.196405	0.512942	-0.216593
C32	C	0.196434	0.649273	-0.273955
C33	C	0.243349	0.649269	-0.273948
C34	C	0.266792	0.581102	-0.245264
C35	C	0.243320	0.512938	-0.216586
C36	C	0.196378	0.376593	-0.159230
C37	C	0.243299	0.376589	-0.159229
C38	C	0.266771	0.444758	-0.187908
C39	C	0.313679	0.444767	-0.187894
N40	N	0.337153	0.512924	-0.216575
C41	C	0.313710	0.581092	-0.245260
C42	C	-0.113270	0.444832	-0.187941
C43	C	-0.160188	0.444841	-0.187945
C44	C	-0.160157	0.581173	-0.245312
C45	C	-0.113238	0.581168	-0.245306
C46	C	-0.089796	0.512989	-0.216622
C47	C	0.412236	0.581079	-0.245243
C48	C	0.459156	0.581072	-0.245232
C49	C	0.459120	0.444737	-0.187866
C50	C	0.412205	0.444747	-0.187875
C51	C	0.388764	0.512922	-0.216567
O52	O	0.337967	0.386848	-0.163502
O53	O	0.337991	0.639046	-0.269654
C54	C	0.126046	0.581114	-0.245285
C55	C	0.102574	0.512950	-0.216607
C56	C	0.126017	0.444783	-0.187922
C57	C	0.055656	0.512960	-0.216611
C58	C	0.032213	0.581128	-0.245295
C59	C	0.055687	0.649285	-0.273976
C60	C	0.102603	0.649281	-0.273969
C61	C	0.102542	0.376625	-0.159241
C62	C	0.055627	0.376636	-0.159250
C63	C	0.032184	0.444803	-0.187935
C64	C	0.766434	0.512989	-0.216615
C65	C	0.816369	0.513009	-0.216629
C66	C	0.649298	0.235322	-0.216597
C67	C	0.649315	0.117017	-0.216603
C68	C	0.619245	0.977059	-0.246576
C69	C	0.608300	1.047904	-0.205580
C70	C	0.660241	1.047744	-0.257594
C71	C	0.638288	0.977076	-0.175574
C72	C	0.690248	0.976910	-0.227616
C73	C	0.679318	1.047722	-0.186592
C74	C	0.620581	0.444691	-0.693337
C75	C	0.620594	0.444617	-0.881010
O76	O	0.596157	0.386742	-0.905274
N77	N	0.649317	0.512685	-0.904481
C78	C	0.678036	0.580781	-0.881030
O79	O	0.702464	0.638683	-0.905299
C80	C	0.678021	0.580860	-0.693358
C81	C	0.649300	0.512780	-0.669890
C82	C	0.591861	0.376617	-0.669869
C83	C	0.591860	0.376632	-0.622954
C84	C	0.620579	0.444721	-0.599506
C85	C	0.649298	0.512795	-0.622974
C86	C	0.706738	0.648961	-0.669908
C87	C	0.706731	0.648976	-0.622987
C88	C	0.678009	0.580896	-0.599519
C89	C	0.678016	0.580899	-0.552611
N90	N	0.649293	0.512831	-0.529141
C91	C	0.620574	0.444742	-0.552589
C92	C	0.678043	0.580734	-0.979561
C93	C	0.678048	0.580713	-1.026478
C94	C	0.620604	0.444550	-1.026456
C95	C	0.620602	0.444566	-0.979537
C96	C	0.649320	0.512666	-0.956090
C97	C	0.620574	0.444778	-0.454063
C98	C	0.620577	0.444796	-0.407143
C99	C	0.678018	0.580963	-0.407170
C100	C	0.678018	0.580941	-0.454085
C101	C	0.649292	0.512845	-0.477531
O102	O	0.702436	0.638752	-0.528319
O103	O	0.596143	0.386865	-0.528311
C104	C	0.620582	0.444676	-0.740253
C105	C	0.649302	0.512750	-0.763721
C106	C	0.678020	0.580838	-0.740273
C107	C	0.649306	0.512729	-0.810639
C108	C	0.620588	0.444640	-0.834086
C109	C	0.591865	0.376572	-0.810616
C110	C	0.591864	0.376587	-0.763700
C111	C	0.706743	0.648906	-0.763744
C112	C	0.706742	0.648885	-0.810659
C113	C	0.678024	0.580796	-0.834107
C114	C	0.649254	0.512907	-0.099860
C115	C	0.649329	0.512624	-0.049926
H116	H	0.478265	0.636588	-0.268587
H117	H	0.573661	1.079111	-0.196265
H118	H	-0.094188	0.389311	-0.164581
H119	H	0.597215	0.389129	-0.960433
H120	H	0.177351	0.704783	-0.297316
C121	C	0.584903	0.935129	-0.280781
C122	C	0.589412	0.964584	-0.330664
C123	C	0.555069	0.922652	-0.364866
C124	C	0.516216	0.851266	-0.349185
C125	C	0.511705	0.821807	-0.299299
C126	C	0.546048	0.863739	-0.265097
H127	H	0.618175	1.017432	-0.342275
H128	H	0.558408	0.944460	-0.401795
H129	H	0.490793	0.820225	-0.374503
H130	H	0.482943	0.768960	-0.287689
H131	H	0.542709	0.841932	-0.228168
H132	H	0.568483	0.321128	-0.829715
H133	H	0.121625	0.321114	-0.135882
C134	C	0.588980	0.369906	-0.381329
C135	C	0.588976	0.369910	-0.329721
C136	C	0.557380	0.295024	-0.303909
C137	C	0.525789	0.220134	-0.329705
C138	C	0.525793	0.220127	-0.381315
C139	C	0.557388	0.295013	-0.407128
H140	H	0.612362	0.425351	-0.310623
H141	H	0.557377	0.295029	-0.265703
H142	H	0.502400	0.164698	-0.310597
H143	H	0.502406	0.164686	-0.400414
H144	H	0.557391	0.295007	-0.445333
H145	H	0.393156	0.636590	-0.268607
H146	H	0.669509	1.078785	-0.292265
H147	H	0.724879	0.945705	-0.236950
C148	C	0.588979	0.369867	-0.479848
C149	C	0.608459	0.286293	-0.512114
C150	C	0.576866	0.211377	-0.537898
C151	C	0.525793	0.220034	-0.531417
C152	C	0.506310	0.303611	-0.499149
C153	C	0.537903	0.378528	-0.473364
H154	H	0.646268	0.279882	-0.516913
H155	H	0.591288	0.149508	-0.561785
H156	H	0.502406	0.164577	-0.550504
H157	H	0.468501	0.310023	-0.494350
H158	H	0.523481	0.440397	-0.449478
H159	H	0.730128	0.704358	-0.744657
C160	C	0.560270	0.301705	-0.695656
C161	C	0.509197	0.310360	-0.689177
C162	C	0.477606	0.235434	-0.714959
C163	C	0.497089	0.151854	-0.747220
C164	C	0.548164	0.143196	-0.753701
C165	C	0.579755	0.218121	-0.727919
H166	H	0.494772	0.372234	-0.665293
H167	H	0.439796	0.241844	-0.710161
H168	H	0.473703	0.096389	-0.766306
H169	H	0.562589	0.081321	-0.777584
H170	H	0.617565	0.211712	-0.732716
C171	C	-0.087421	0.656148	-0.276857
C172	C	-0.093882	0.777136	-0.273106
C173	C	-0.068067	0.852117	-0.304659
C174	C	-0.035791	0.806111	-0.339963
C175	C	-0.029329	0.685116	-0.343715
C176	C	-0.055144	0.610135	-0.312162
H177	H	-0.117776	0.811198	-0.246971
H178	H	-0.072851	0.941685	-0.301881
H179	H	-0.016682	0.861616	-0.363320
H180	H	-0.005435	0.651054	-0.369850
H181	H	-0.050359	0.520567	-0.314940
C182	C	0.269163	0.724247	-0.305502
C183	C	0.262698	0.845235	-0.301757
C184	C	0.288508	0.920213	-0.333315
C185	C	0.320783	0.874204	-0.368619
C186	C	0.327250	0.753211	-0.372365
C187	C	0.301440	0.678232	-0.340807
H188	H	0.238804	0.879299	-0.275622
H189	H	0.283720	1.009781	-0.330541
H190	H	0.339889	0.929708	-0.391980
H191	H	0.351143	0.719146	-0.398501
H192	H	0.306228	0.588664	-0.343581
C193	C	0.589010	0.369656	-1.052253
C194	C	0.553740	0.415772	-1.084490
C195	C	0.522145	0.340889	-1.110290
C196	C	0.525821	0.219890	-1.103852
C197	C	0.561093	0.173768	-1.071613
C198	C	0.592688	0.248651	-1.045814
H199	H	0.551018	0.505348	-1.089257
H200	H	0.496035	0.375032	-1.134155
H201	H	0.502433	0.164457	-1.122950
H202	H	0.563815	0.084192	-1.066846
H203	H	0.618798	0.214507	-1.021948
H204	H	0.568470	0.321199	-0.603851
C205	C	0.269084	0.301590	-0.127674
C206	C	0.301313	0.347580	-0.092363
C207	C	0.327096	0.272585	-0.060807
C208	C	0.320651	0.151600	-0.064562
C209	C	0.288421	0.105604	-0.099874
C210	C	0.262637	0.180599	-0.131430
H211	H	0.306085	0.437146	-0.089582
H212	H	0.350955	0.306634	-0.034667
H213	H	0.339737	0.096083	-0.041203
H214	H	0.283648	0.016038	-0.102655
H215	H	0.238778	0.146549	-0.157570
H216	H	0.730135	0.704322	-0.829763
H217	H	0.628980	0.946163	-0.140894
C218	C	0.709648	0.655590	-1.052288
C219	C	0.705965	0.776590	-1.045828
C220	C	0.737566	0.851473	-1.071635
C221	C	0.772851	0.805355	-1.103903
C222	C	0.776536	0.684349	-1.110365
C223	C	0.744935	0.609466	-1.084558
H224	H	0.679843	0.810734	-1.021940
H225	H	0.734838	0.941050	-1.066851
H226	H	0.796244	0.860788	-1.123007
H227	H	0.802657	0.650205	-1.134253
H228	H	0.747663	0.519889	-1.089342
C229	C	0.709643	0.655642	-0.953777
C230	C	0.760714	0.646951	-0.960263
C231	C	0.792317	0.721854	-0.934485
C232	C	0.772849	0.805448	-0.902221
C233	C	0.721775	0.814142	-0.895734
C234	C	0.690172	0.739239	-0.921512
H235	H	0.775127	0.585066	-0.984148
H236	H	0.830125	0.715417	-0.939287
H237	H	0.796244	0.860896	-0.883138
H238	H	0.707362	0.876027	-0.871848
H239	H	0.652364	0.745676	-0.916710
C240	C	0.713633	1.089401	-0.152306
C241	C	0.708590	1.061261	-0.102338
C242	C	0.742900	1.102950	-0.068050
C243	C	0.782255	1.172779	-0.083730
C244	C	0.787300	1.200922	-0.133701
C245	C	0.752989	1.159234	-0.167988
H246	H	0.679456	1.009567	-0.090728
H247	H	0.739165	1.082116	-0.031059
H248	H	0.807653	1.203639	-0.058349
H249	H	0.816434	1.252617	-0.145310
H250	H	0.756725	1.180068	-0.204979
H251	H	0.730126	0.704400	-0.689007
H252	H	-0.179252	0.636677	-0.268669
H253	H	0.701410	0.636366	-0.473194
C254	C	0.170570	0.301604	-0.127678
C255	C	0.177039	0.180619	-0.131430
C256	C	0.151234	0.105627	-0.099874
C257	C	0.118961	0.151619	-0.064565
C258	C	0.112491	0.272611	-0.060811
C259	C	0.138295	0.347604	-0.092367
H260	H	0.200931	0.146567	-0.157569
H261	H	0.156024	0.016060	-0.102653
H262	H	0.099858	0.096105	-0.041205
H263	H	0.088599	0.306663	-0.034672
H264	H	0.133506	0.437170	-0.089588
C265	C	0.738322	0.723886	-0.597194
C266	C	0.789395	0.715225	-0.603670
C267	C	0.820986	0.790132	-0.577878
C268	C	0.801503	0.873700	-0.545610
C269	C	0.750427	0.882364	-0.539134
C270	C	0.718837	0.807457	-0.564926
H271	H	0.803820	0.653361	-0.627557
H272	H	0.858796	0.783718	-0.582672
H273	H	0.824889	0.929150	-0.526518
H274	H	0.736003	0.944229	-0.515246
H275	H	0.681027	0.813872	-0.560131
H276	H	-0.179295	0.389341	-0.164586
H277	H	0.701402	0.636396	-0.388070
C278	C	0.128418	0.724265	-0.305520
C279	C	0.160653	0.807772	-0.285996
C280	C	0.186465	0.882759	-0.317550
C281	C	0.180040	0.874238	-0.368628
C282	C	0.147803	0.790728	-0.388154
C283	C	0.121992	0.715741	-0.356600
H284	H	0.165411	0.814082	-0.248184
H285	H	0.210329	0.944579	-0.303095
H286	H	0.199147	0.929748	-0.391985
H287	H	0.143046	0.784417	-0.425967
H288	H	0.098128	0.653921	-0.371056
C289	C	0.029812	0.301645	-0.127698
C290	C	0.036279	0.180660	-0.131452
C291	C	0.010466	0.105665	-0.099903
C292	C	-0.021813	0.151655	-0.064600
C293	C	-0.028282	0.272647	-0.060843
C294	C	-0.002470	0.347642	-0.092393
H295	H	0.060176	0.146609	-0.157587
H296	H	0.015255	0.016098	-0.102684
H297	H	-0.040921	0.096140	-0.041245
H298	H	-0.052179	0.306697	-0.034708
H299	H	-0.007259	0.437208	-0.089612
H300	H	0.393092	0.389240	-0.164521
H301	H	0.478216	0.389240	-0.164510
H302	H	0.036592	0.704793	-0.297331
H303	H	0.568476	0.321149	-0.744597
