data_functionalizedCrystal
_audit_creation_method	'MofGen! by Chris Wilmer'
_symmetry_space_group_name_H-M	'P1'
_symmetry_Int_Tables_number	1
_symmetry_cell_setting	triclinic
loop_
_symmetry_equiv_pos_as_xyz
  x,y,z
_cell_length_a	27.731994
_cell_length_b	19.188930
_cell_length_c	17.666332
_cell_angle_alpha	90.011603
_cell_angle_beta	89.996730
_cell_angle_gamma	97.117342
loop_
_atom_site_label
_atom_site_type_symbol
_atom_site_fract_x
_atom_site_fract_y
_atom_site_fract_z
O1	O	0.641201	-0.082899	-0.062849
O2	O	0.500443	-0.095570	-0.062875
O3	O	0.574884	0.012448	-0.062846
O4	O	0.566760	-0.190917	-0.062877
O5	O	0.574871	0.012454	0.063050
O6	O	0.500430	-0.095565	0.063022
O7	O	0.641188	-0.082893	0.063048
Cu8	Cu	0.570808	-0.089229	0.074530
Cu9	Cu	0.570823	-0.089235	-0.074357
O10	O	0.566747	-0.190912	0.063019
C11	C	0.482428	-0.095308	0.000070
C12	C	0.428769	-0.094524	0.000061
C13	C	0.096029	-0.089587	0.068717
C14	C	-0.105639	-0.086610	0.068726
O15	O	-0.131719	-0.086192	0.127090
N16	N	-0.130848	-0.086243	0.000100
C17	C	-0.105636	-0.086616	-0.068533
O18	O	-0.131704	-0.086228	-0.126904
C19	C	0.096031	-0.089589	-0.068542
C20	C	0.121236	-0.089963	0.000089
C21	C	0.121234	-0.089961	0.137342
C22	C	0.171648	-0.090709	0.137339
C23	C	0.196855	-0.091084	0.068711
C24	C	0.171650	-0.090711	0.000086
C25	C	0.121242	-0.089957	-0.137174
C26	C	0.171662	-0.090698	-0.137170
C27	C	0.196867	-0.091072	-0.068540
C28	C	0.247271	-0.091834	-0.068545
N29	N	0.272480	-0.092201	0.000081
C30	C	0.247272	-0.091826	0.068709
C31	C	-0.211514	-0.085057	-0.068524
C32	C	-0.261931	-0.084315	-0.068522
C33	C	-0.261930	-0.084307	0.068737
C34	C	-0.211513	-0.085054	0.068735
C35	C	-0.186305	-0.085423	0.000102
C36	C	0.353144	-0.093398	0.068698
C37	C	0.403561	-0.094149	0.068689
C38	C	0.403556	-0.094153	-0.068571
C39	C	0.353143	-0.093405	-0.068562
C40	C	0.327938	-0.093026	0.000078
O41	O	0.273383	-0.092244	-0.126878
O42	O	0.273351	-0.092198	0.127071
C43	C	0.045615	-0.088839	0.068720
C44	C	0.020409	-0.088466	0.000095
C45	C	0.045617	-0.088841	-0.068533
C46	C	-0.030007	-0.087724	0.000097
C47	C	-0.055215	-0.087349	0.068725
C48	C	-0.030006	-0.087716	0.137351
C49	C	0.020407	-0.088464	0.137348
C50	C	0.020408	-0.088475	-0.137159
C51	C	-0.030005	-0.087727	-0.137151
C52	C	-0.055213	-0.087352	-0.068523
C53	C	0.574614	0.038460	0.000104
C54	C	0.573825	0.115959	0.000111
C55	C	0.659203	-0.083156	0.000101
C56	C	0.712862	-0.083939	0.000106
C57	C	0.567016	-0.216924	0.000067
C58	C	0.567806	-0.294423	0.000056
N59	N	0.570800	-0.089223	0.179250
C60	C	0.617504	0.161174	0.000122
C61	C	0.616762	0.233993	0.000110
C62	C	0.572338	0.261594	0.000101
C63	C	0.528653	0.216369	0.000085
C64	C	0.529396	0.143552	0.000090
N65	N	0.538377	0.369375	0.042940
N66	N	0.537674	0.438548	0.042937
C67	C	0.570096	0.480987	0.000085
N68	N	0.603256	0.451641	-0.042754
N69	N	0.603960	0.382461	-0.042748
C70	C	0.571527	0.340551	0.000096
C71	C	0.612974	0.605161	0.000083
C72	C	0.612231	0.677981	0.000066
C73	C	0.524120	0.660356	0.000049
C74	C	0.524865	0.587537	0.000058
C75	C	0.569294	0.559945	0.000079
N76	N	0.570834	-0.089235	-0.179077
C77	C	0.603774	-0.041416	0.218872
C78	C	0.603776	-0.041413	0.298120
C79	C	0.570811	-0.089229	0.337742
C80	C	0.537831	-0.137040	0.298110
C81	C	0.537826	-0.137037	0.218864
N82	N	0.564527	-0.151078	0.462150
N83	N	0.564535	-0.151078	0.537431
C84	C	0.570823	-0.089238	0.576506
N85	N	0.577114	-0.027396	0.537457
N86	N	0.577108	-0.027397	0.462169
C87	C	0.570812	-0.089236	0.423671
C88	C	0.603801	-0.041423	0.702058
C89	C	0.603801	-0.041419	0.781307
C90	C	0.537858	-0.137052	0.781295
C91	C	0.537856	-0.137050	0.702048
C92	C	0.570830	-0.089237	0.662434
H93	H	-0.190995	-0.085357	-0.124417
H94	H	0.332627	-0.093095	0.124591
H95	H	0.511008	-0.175983	0.669785
H96	H	0.493825	0.106737	0.000080
H97	H	0.489296	0.550722	0.000053
H98	H	0.100716	-0.089653	0.193230
H99	H	0.652333	0.270814	0.000117
H100	H	0.647801	0.714795	0.000071
H101	H	-0.050539	-0.087414	0.193230
H102	H	0.510989	-0.175971	0.330374
N103	N	0.483275	0.244561	0.000096
N104	N	0.453858	0.230539	0.053163
H105	H	0.421808	0.250449	0.053170
H106	H	0.040925	-0.088768	0.193234
H107	H	-0.282463	-0.084003	0.124617
N108	N	0.478737	0.688528	0.000046
N109	N	0.439739	0.648145	0.000042
H110	H	0.407685	0.668043	0.000038
H111	H	0.192166	-0.091009	0.193225
H112	H	0.630650	-0.002485	0.813568
H113	H	-0.190994	-0.085359	0.124620
H114	H	0.510975	-0.175968	0.186602
H115	H	0.630622	-0.002482	0.186621
H116	H	0.630628	-0.002480	0.330386
H117	H	-0.282450	-0.084021	-0.124408
H118	H	0.100728	-0.089652	-0.193061
H119	H	0.511015	-0.175982	0.813555
H120	H	0.653681	0.138714	0.000137
N121	N	0.197408	-0.091092	-0.207280
N122	N	0.220974	-0.140746	-0.222608
H123	H	0.239156	-0.141026	-0.272122
N124	N	0.637425	0.007506	0.661599
N125	N	0.666821	0.050252	0.696990
H126	H	0.690545	0.084842	0.668419
H127	H	0.424081	-0.094456	0.124579
N128	N	0.327400	-0.093033	-0.138671
N129	N	0.349915	-0.093370	-0.199941
H130	H	0.331738	-0.093100	-0.249458
N131	N	0.429301	-0.094541	-0.138678
N132	N	0.419109	-0.143690	-0.184643
H133	H	0.437292	-0.143961	-0.234159
N134	N	-0.055742	-0.087354	-0.207268
N135	N	-0.033223	-0.087688	-0.268534
H136	H	-0.051398	-0.087420	-0.318054
N137	N	0.046151	-0.088844	-0.207268
N138	N	0.045078	-0.039526	-0.253208
H139	H	0.063256	-0.039787	-0.302729
N140	N	0.658359	0.576982	0.000106
N141	N	0.697357	0.617365	0.000112
H142	H	0.729411	0.597466	0.000130
