data_functionalizedCrystal
_audit_creation_method	'MofGen! by Chris Wilmer'
_symmetry_space_group_name_H-M	'P1'
_symmetry_Int_Tables_number	1
_symmetry_cell_setting	triclinic
loop_
_symmetry_equiv_pos_as_xyz
  x,y,z
_cell_length_a	11.792241
_cell_length_b	11.026607
_cell_length_c	9.482900
_cell_angle_alpha	78.636152
_cell_angle_beta	80.596456
_cell_angle_gamma	83.610284
loop_
_atom_site_label
_atom_site_type_symbol
_atom_site_fract_x
_atom_site_fract_y
_atom_site_fract_z
O1	O	-0.461989	1.632110	-0.120853
O2	O	-0.128656	1.965443	0.212480
O3	O	0.204677	2.298777	0.545813
O4	O	-0.407797	1.278448	-0.120860
O5	O	-0.074464	1.611782	0.212473
O6	O	0.258870	1.945115	0.545806
O7	O	-0.271426	1.463863	-0.120865
O8	O	0.061908	1.797196	0.212468
O9	O	0.395241	2.130530	0.545801
O10	O	-0.598360	1.446696	-0.120848
O11	O	-0.265027	1.780029	0.212485
O12	O	0.068306	2.113362	0.545818
O13	O	-0.299268	1.426202	0.120928
O14	O	0.034065	1.759535	0.454262
O15	O	0.367399	2.092869	0.787595
O16	O	-0.435639	1.240788	0.120933
O17	O	-0.102306	1.574121	0.454267
O18	O	0.231027	1.907454	0.787600
O19	O	-0.489832	1.594449	0.120940
O20	O	-0.156498	1.927782	0.454273
O21	O	0.176835	2.261116	0.787607
Cu22	Cu	-0.465278	1.414180	0.143014
Cu23	Cu	-0.131944	1.747513	0.476348
Cu24	Cu	0.201389	2.080846	0.809681
Cu25	Cu	-0.432351	1.458718	-0.142934
Cu26	Cu	-0.099018	1.792051	0.190399
Cu27	Cu	0.234316	2.125385	0.523732
O28	O	-0.626203	1.409035	0.120945
O29	O	-0.292869	1.742368	0.454279
O30	O	0.040464	2.075701	0.787612
C31	C	-0.411720	1.214342	0.000035
C32	C	-0.078387	1.547675	0.333369
C33	C	0.254946	1.881008	0.666702
C34	C	-0.381917	1.079432	0.000032
C35	C	-0.048584	1.412765	0.333365
C36	C	0.284749	1.746099	0.666699
C37	C	-0.464208	1.006167	0.000035
C38	C	-0.130875	1.339501	0.333369
C39	C	0.202459	1.672834	0.666702
C40	C	-0.433407	0.866731	0.000032
C41	C	-0.100074	1.200064	0.333365
C42	C	0.233260	1.533397	0.666698
C43	C	-0.654787	1.428943	0.000051
C44	C	-0.321454	1.762276	0.333384
C45	C	0.011880	2.095610	0.666717
C46	C	-0.781442	1.432169	0.000057
C47	C	-0.448109	1.765503	0.333390
C48	C	-0.114776	2.098836	0.666724
C49	C	-1.013328	1.438109	0.000021
C50	C	-0.679995	1.771442	0.333354
C51	C	-0.346662	2.104776	0.666687
C52	C	-0.884291	1.434809	0.000041
C53	C	-0.550958	1.768142	0.333374
C54	C	-0.217624	2.101475	0.666707
C55	C	-0.242841	1.443955	0.000026
C56	C	0.090492	1.777289	0.333359
C57	C	0.423825	2.110622	0.666693
C58	C	-0.116185	1.440730	0.000010
C59	C	0.217148	1.774064	0.333343
C60	C	0.550482	2.107397	0.666677
C61	C	-0.485908	1.658557	0.000041
C62	C	-0.152574	1.991890	0.333375
C63	C	0.180759	2.325223	0.666708
C64	C	-0.515710	1.793468	0.000035
C65	C	-0.182376	2.126801	0.333369
C66	C	0.150957	2.460134	0.666702
N67	N	-0.488438	1.382862	0.344135
N68	N	-0.155104	1.716196	0.677469
N69	N	0.178229	2.049529	1.010802
N70	N	-0.409184	1.490045	-0.344056
N71	N	-0.075851	1.823378	-0.010722
N72	N	0.257483	2.156711	0.322611
C73	C	-0.439174	1.449472	0.416333
C74	C	-0.105841	1.782806	0.749666
C75	C	0.227492	2.116139	1.082999
C76	C	-0.458454	1.423425	0.583751
C77	C	-0.125121	1.756758	0.917084
C78	C	0.208212	2.090092	1.250418
H79	H	-0.288659	1.038934	-0.000010
H80	H	0.044675	1.372267	0.333323
H81	H	0.378008	1.705600	0.666657
H82	H	-0.557463	1.046670	0.000049
H83	H	-0.224130	1.380003	0.333382
H84	H	0.109203	1.713337	0.666715
H85	H	-0.544882	1.306547	0.406268
H86	H	-0.211549	1.639880	0.739601
H87	H	0.121784	1.973214	1.072934
O88	O	-0.309868	0.813104	0.000026
O89	O	0.023465	1.146437	0.333359
O90	O	0.356798	1.479770	0.666692
H91	H	-0.305061	0.712002	0.000015
H92	H	0.028273	1.045336	0.333348
H93	H	0.361606	1.378669	0.666682
H94	H	-0.608972	0.833963	0.000050
H95	H	-0.275639	1.167296	0.333383
H96	H	0.057695	1.500630	0.666716
H97	H	-0.382719	1.525779	0.354203
H98	H	-0.049386	1.859113	0.687536
H99	H	0.283947	2.192446	1.020869
H100	H	-0.514903	1.347105	0.645877
H101	H	-0.181570	1.680438	0.979211
H102	H	0.151764	2.013771	1.312544
H103	H	-0.352725	1.566356	0.593818
H104	H	-0.019392	1.899690	0.927151
H105	H	0.313941	2.233023	1.260485
