data_functionalizedCrystal
_audit_creation_method	'MofGen! by Chris Wilmer'
_symmetry_space_group_name_H-M	'P1'
_symmetry_Int_Tables_number	1
_symmetry_cell_setting	triclinic
loop_
_symmetry_equiv_pos_as_xyz
  x,y,z
_cell_length_a	15.944551
_cell_length_b	10.908937
_cell_length_c	10.065875
_cell_angle_alpha	96.607309
_cell_angle_beta	81.256662
_cell_angle_gamma	71.792347
loop_
_atom_site_label
_atom_site_type_symbol
_atom_site_fract_x
_atom_site_fract_y
_atom_site_fract_z
O1	O	1.106292	0.146763	-0.113348
O2	O	0.858895	0.167175	-0.113382
O3	O	1.015387	-0.029957	-0.113357
O4	O	0.949800	0.343895	-0.113374
O5	O	0.985525	0.007784	0.113627
O6	O	0.829032	0.204917	0.113601
O7	O	1.076430	0.184504	0.113635
Zn8	Zn	0.947990	0.200703	0.149657
Zn9	Zn	0.987335	0.150977	-0.149404
O10	O	0.919938	0.381636	0.113610
C11	C	0.812788	0.185198	0.000105
C12	C	0.719899	0.182654	0.000093
C13	C	1.006586	-0.058927	0.000134
C14	C	1.024841	-0.201477	0.000131
C15	C	0.977093	-0.397825	0.000120
C16	C	0.958224	-0.250492	0.000121
C17	C	0.522959	0.054391	0.000125
C18	C	0.468341	0.095346	-0.111793
C19	C	0.549813	0.178060	0.000109
C20	C	0.438918	0.132585	0.111995
C21	C	0.385520	0.173613	0.000131
C22	C	0.496431	0.219033	-0.111901
C23	C	0.467003	0.256272	0.111987
C24	C	0.412393	0.297312	0.000042
C25	C	0.644460	0.180617	0.000095
C26	C	0.290874	0.171064	0.000135
C27	C	1.122537	0.166481	0.000145
C28	C	1.215427	0.169023	0.000149
C29	C	0.928739	0.410606	0.000116
C30	C	0.910486	0.553155	0.000110
N31	N	0.921145	0.234638	0.353758
N32	N	1.014188	0.117031	-0.353505
C33	C	0.977990	0.162776	0.421546
C34	C	0.957334	0.188904	0.578710
H35	H	1.048085	-0.464931	0.000137
H36	H	0.887225	-0.183387	0.000121
F37	F	1.117641	-0.289178	0.000147
H38	H	0.521577	0.255552	-0.206622
F39	F	1.097905	0.011537	0.570286
F40	F	0.817689	-0.359135	0.000108
F41	F	0.467503	0.345150	0.235661
H42	H	1.041948	0.081903	0.363233
F43	F	0.585259	-0.079805	-0.000009
F44	F	0.405951	0.084752	0.235666
H45	H	0.857182	0.315501	0.412074
F46	F	0.467879	0.006417	-0.235463
F47	F	0.873725	0.294605	0.654922
H48	H	0.364889	0.400044	-0.000025
