data_functionalizedCrystal
_audit_creation_method	'MofGen! by Chris Wilmer'
_symmetry_space_group_name_H-M	'P1'
_symmetry_Int_Tables_number	1
_symmetry_cell_setting	triclinic
loop_
_symmetry_equiv_pos_as_xyz
  x,y,z
_cell_length_a	12.837943
_cell_length_b	14.519709
_cell_length_c	11.892095
_cell_angle_alpha	93.895429
_cell_angle_beta	85.689438
_cell_angle_gamma	89.254542
loop_
_atom_site_label
_atom_site_type_symbol
_atom_site_fract_x
_atom_site_fract_y
_atom_site_fract_z
O1	O	1.382515	0.234472	-0.093988
O2	O	1.080688	0.222627	-0.093995
O3	O	1.239604	0.095003	-0.093981
O4	O	1.223600	0.362096	-0.094002
O5	O	1.226354	0.105626	0.094025
O6	O	1.067438	0.233250	0.094012
O7	O	1.369265	0.245095	0.094018
Zn8	Zn	1.216248	0.240859	0.123865
Zn9	Zn	1.233706	0.226863	-0.123842
O10	O	1.210350	0.372719	0.094005
C11	C	1.035435	0.223937	0.000008
C12	C	0.920336	0.212002	0.000006
C13	C	0.679644	0.355473	0.000011
C14	C	0.571497	0.344264	0.000010
C15	C	0.595894	0.178377	0.000010
C16	C	0.704041	0.189586	0.000012
C17	C	0.745911	0.278137	0.000010
C18	C	0.854060	0.289344	0.000003
C19	C	0.878455	0.123458	0.000012
C20	C	0.770308	0.112249	0.000011
C21	C	1.232233	0.065890	0.000022
C22	C	1.229998	-0.036684	0.000023
C23	C	1.221771	-0.412293	-0.000007
C24	C	1.224055	-0.307787	0.000002
C25	C	1.225884	-0.224492	0.000009
C26	C	1.228169	-0.119979	0.000016
C27	C	1.414519	0.243785	0.000013
C28	C	1.529618	0.255719	0.000008
C29	C	1.217721	0.401831	-0.000001
C30	C	1.219957	0.504405	-0.000009
N31	N	1.204341	0.250411	0.292918
N32	N	1.245621	0.217304	-0.292895
C33	C	1.328473	0.150784	0.529576
C34	C	1.320158	0.157468	0.647918
C35	C	1.179391	0.270458	0.647944
C36	C	1.187707	0.263774	0.529603
C37	C	1.262251	0.203936	0.470423
C38	C	1.270570	0.197257	0.352080
C39	C	1.129800	0.310242	0.352108
C40	C	1.121484	0.316926	0.470449
H41	H	0.888149	0.361447	0.000004
H42	H	1.060789	0.365642	0.518647
H43	H	1.075880	0.353524	0.303932
O44	O	1.107070	0.328561	0.705616
C45	C	1.113914	0.323037	0.822750
H46	H	1.195142	0.296756	0.838891
H47	H	1.052788	0.273483	0.856342
C48	C	0.994471	0.451722	0.863696
C49	C	1.094240	0.419451	0.883521
H50	H	0.982331	0.511193	0.901184
H51	H	0.989857	0.455442	0.784780
H52	H	0.943545	0.410419	0.891689
H53	H	1.145165	0.460747	0.855515
H54	H	1.098862	0.415740	0.962433
O55	O	0.729593	0.026244	-0.000191
C56	C	0.674603	0.009314	-0.097546
H57	H	0.705067	0.055920	-0.165599
H58	H	0.587813	0.024346	-0.075529
C59	C	0.653208	-0.149685	-0.058120
C60	C	0.690630	-0.092447	-0.141708
H61	H	0.663089	-0.212456	-0.085359
H62	H	0.690253	-0.138279	0.007473
H63	H	0.580886	-0.137147	-0.039780
H64	H	0.762953	-0.104977	-0.160036
H65	H	0.653598	-0.103858	-0.207305
H66	H	0.713735	0.427575	0.000008
O67	O	0.507182	0.419406	-0.000195
C68	C	0.533068	0.467118	-0.097551
H69	H	0.574731	0.417826	-0.165606
H70	H	0.586686	0.526583	-0.075536
C71	C	0.381466	0.566034	-0.058121
C72	C	0.432629	0.505491	-0.141710
H73	H	0.319512	0.589709	-0.085358
H74	H	0.364027	0.533892	0.007473
H75	H	0.426158	0.615581	-0.039782
H76	H	0.387942	0.455940	-0.160036
H77	H	0.450058	0.537625	-0.207307
O78	O	0.555041	0.092429	-0.000026
C79	C	0.445375	0.099127	0.000014
H80	H	0.422633	0.166867	-0.035587
H81	H	0.408917	0.097119	0.090215
C82	C	0.433486	-0.065545	-0.029971
C83	C	0.405554	0.017650	-0.073706
H84	H	0.408920	-0.115806	-0.075440
H85	H	0.507370	-0.070060	-0.029993
H86	H	0.403102	-0.067206	0.045196
H87	H	0.435949	0.019315	-0.148866
H88	H	0.331674	0.022162	-0.073698
H89	H	1.374081	0.114185	0.696077
H90	H	1.331271	0.148537	0.303897
O91	O	1.400911	0.092590	0.472258
C92	C	1.457603	0.047131	0.549846
H93	H	1.409170	0.047093	0.634215
H94	H	1.533788	0.084601	0.562412
C95	C	1.541529	-0.053047	0.400034
C96	C	1.482038	-0.053100	0.503655
H97	H	1.556607	-0.114872	0.371540
H98	H	1.503338	-0.022419	0.347760
H99	H	1.605009	-0.021817	0.410520
H100	H	1.418554	-0.084319	0.493165
H101	H	1.520220	-0.083736	0.555926
H102	H	0.932423	0.060485	0.000004
