data_functionalizedCrystal
_audit_creation_method	'MofGen! by Chris Wilmer'
_symmetry_space_group_name_H-M	'P1'
_symmetry_Int_Tables_number	1
_symmetry_cell_setting	triclinic
loop_
_symmetry_equiv_pos_as_xyz
  x,y,z
_cell_length_a	15.995292
_cell_length_b	15.995292
_cell_length_c	13.930277
_cell_angle_alpha	90.007830
_cell_angle_beta	89.992232
_cell_angle_gamma	83.468616
loop_
_atom_site_label
_atom_site_type_symbol
_atom_site_fract_x
_atom_site_fract_y
_atom_site_fract_z
O1	O	1.110997	0.107686	-0.079850
O2	O	0.867213	0.121065	-0.079845
O3	O	0.995794	-0.007517	-0.079849
O4	O	0.982416	0.236268	-0.079846
O5	O	0.995775	-0.007497	0.079813
O6	O	0.867194	0.121084	0.079817
O7	O	1.110978	0.107706	0.079812
Zn8	Zn	0.989083	0.114398	0.105164
Zn9	Zn	0.989108	0.114372	-0.105197
O10	O	0.982397	0.236287	0.079816
C11	C	0.836008	0.120530	-0.000014
C12	C	0.743055	0.118898	-0.000012
C13	C	0.405318	0.112896	-0.000023
C14	C	0.428611	0.205703	-0.000379
C15	C	0.525286	0.207467	-0.000015
C16	C	0.572873	0.115874	-0.000018
C17	C	0.543770	0.069486	0.091152
C18	C	0.446980	0.068369	0.091225
C19	C	0.447146	0.066451	-0.090341
C20	C	0.543638	0.069891	-0.091542
C21	C	0.667569	0.117552	-0.000013
C22	C	0.310622	0.111215	-0.000023
C23	C	0.995240	-0.038703	-0.000021
C24	C	0.993608	-0.131655	-0.000028
C25	C	0.987607	-0.469393	-0.000019
C26	C	1.080413	-0.446100	0.000336
C27	C	1.082177	-0.349424	-0.000027
C28	C	0.990584	-0.301837	-0.000023
C29	C	0.944196	-0.330940	-0.091194
C30	C	0.943079	-0.427730	-0.091267
C31	C	0.941162	-0.427564	0.090299
C32	C	0.944601	-0.331072	0.091500
C33	C	0.992263	-0.207141	-0.000028
C34	C	0.985926	-0.564088	-0.000020
C35	C	1.142183	0.108240	-0.000022
C36	C	1.235136	0.109873	-0.000029
C37	C	0.982951	0.267473	-0.000015
C38	C	0.984583	0.360426	-0.000014
N39	N	0.989072	0.114415	0.248730
N40	N	0.989125	0.114348	-0.248763
C41	C	1.039889	0.165160	0.700989
C42	C	0.938352	0.063550	0.700979
C43	C	0.938340	0.063563	0.600483
C44	C	0.989103	0.114375	0.550236
C45	C	1.039880	0.165173	0.600484
C46	C	0.887570	0.012759	0.550228
C47	C	0.887556	0.012770	0.449726
C48	C	0.938316	0.063587	0.399476
C49	C	0.989094	0.114388	0.449731
C50	C	1.039858	0.165200	0.399483
C51	C	1.090632	0.216007	0.449736
C52	C	1.090640	0.215991	0.550234
C53	C	0.938308	0.063603	0.298978
C54	C	1.039849	0.165214	0.298978
H55	H	0.433168	-0.001861	-0.090960
C56	C	1.128483	-0.485318	-0.087501
N57	N	1.164687	-0.514859	-0.153661
H58	H	1.131979	0.257352	0.591159
C59	C	0.851154	-0.447371	-0.096871
N60	N	0.781918	-0.462161	-0.101101
C61	C	0.853144	-0.287864	-0.095777
N62	N	0.784564	-0.255416	-0.099229
C63	C	1.146476	0.271892	0.394450
N64	N	1.188538	0.313983	0.352805
H65	H	0.400615	0.241467	-0.065762
H66	H	0.575652	0.002087	0.094540
H67	H	0.418821	0.095451	-0.159443
C68	C	0.848879	-0.446459	0.091143
N69	N	0.779376	-0.460699	0.091775
H70	H	0.877747	-0.298088	0.097010
H71	H	0.563814	0.101716	0.159004
H72	H	0.399577	0.241284	0.064638
H73	H	0.846212	-0.028599	0.408819
C74	C	0.986514	-0.463982	-0.183333
N75	N	1.019236	-0.491283	-0.252677
C76	C	0.882461	0.007720	0.243705
N77	N	0.840392	-0.034373	0.202074
H78	H	0.562209	0.103666	-0.158989
C79	C	1.131565	-0.324578	-0.088479
N80	N	1.168764	-0.305864	-0.155106
H81	H	0.544313	0.243792	-0.065372
C82	C	0.990213	-0.305961	0.182622
N83	N	1.024563	-0.287032	0.251254
C84	C	0.427339	-0.023556	0.096820
N85	N	0.412549	-0.092793	0.101041
H86	H	0.846248	-0.028616	0.591147
C87	C	1.095739	0.221043	0.756267
N88	N	1.137807	0.263134	0.797903
H89	H	0.543674	0.244032	0.065453
C90	C	0.410727	0.111808	0.183289
N91	N	0.383425	0.144534	0.252630
C92	C	1.131259	-0.323720	0.088262
N93	N	1.168233	-0.304364	0.154763
C94	C	1.095695	0.221111	0.243714
N95	N	1.137760	0.263213	0.202089
H96	H	0.576623	0.003036	-0.097051
H97	H	1.116178	-0.474096	0.065718
H98	H	0.976425	-0.310894	-0.159046
H99	H	0.970381	-0.455651	0.159406
H100	H	0.897028	0.022175	0.741897
