data_functionalizedCrystal
_audit_creation_method	'MofGen! by Chris Wilmer'
_symmetry_space_group_name_H-M	'P1'
_symmetry_Int_Tables_number	1
_symmetry_cell_setting	triclinic
loop_
_symmetry_equiv_pos_as_xyz
  x,y,z
_cell_length_a	12.759401
_cell_length_b	25.639240
_cell_length_c	12.759393
_cell_angle_alpha	89.956840
_cell_angle_beta	89.979062
_cell_angle_gamma	90.034283
loop_
_atom_site_label
_atom_site_type_symbol
_atom_site_fract_x
_atom_site_fract_y
_atom_site_fract_z
Zn1	Zn	1.606135	-0.208104	-0.593928
Zn2	Zn	1.605970	-0.295549	-0.418209
Zn3	Zn	1.430433	-0.208132	-0.418263
Zn4	Zn	1.430370	-0.295513	-0.593846
O5	O	1.518227	-0.251825	-0.506061
O6	O	1.753134	-0.219708	-0.570630
O7	O	1.582643	-0.283980	-0.271195
O8	O	1.453836	-0.134963	-0.441622
O9	O	1.753013	-0.283953	-0.441530
O10	O	1.582923	-0.134943	-0.570682
O11	O	1.453676	-0.219755	-0.271235
O12	O	1.283404	-0.219720	-0.441543
O13	O	1.453728	-0.283891	-0.740878
O14	O	1.283357	-0.283918	-0.570543
O15	O	1.582861	-0.219672	-0.740938
O16	O	1.582581	-0.368710	-0.441451
O17	O	1.453568	-0.368683	-0.570491
C18	C	1.245260	-0.251818	-0.506041
C19	C	1.128483	-0.251828	-0.506057
C20	C	1.518078	-0.387667	-0.505979
C21	C	1.518111	-0.445781	-0.505979
C22	C	1.073624	-0.285307	-0.573121
C23	C	0.963900	-0.285309	-0.573142
C24	C	0.963903	-0.218352	-0.439024
C25	C	1.073625	-0.218347	-0.439010
C26	C	0.813992	-0.304070	-0.696994
C27	C	0.759130	-0.337557	-0.764050
C28	C	0.794695	-0.388581	-0.779975
C29	C	0.885121	-0.406129	-0.728829
C30	C	0.939978	-0.372645	-0.661766
C31	C	0.904414	-0.321613	-0.645861
C32	C	1.223535	-0.199592	-0.315156
C33	C	1.278394	-0.166110	-0.248087
C34	C	1.242831	-0.115085	-0.232151
C35	C	1.152401	-0.097539	-0.283278
C36	C	1.097542	-0.131021	-0.350347
C37	C	1.133113	-0.182046	-0.366285
C38	C	1.585476	-0.806095	-0.573384
C39	C	1.585507	-0.860699	-0.573406
O40	O	1.642606	-0.888894	-0.630631
N41	N	1.518373	-0.888064	-0.506163
C42	C	1.451196	-0.860821	-0.438902
O43	O	1.394095	-0.889110	-0.381710
C44	C	1.451160	-0.806217	-0.438887
C45	C	1.518306	-0.778856	-0.506126
C46	C	1.652616	-0.778734	-0.640619
C47	C	1.652586	-0.724133	-0.640596
C48	C	1.585416	-0.696894	-0.573338
C49	C	1.518276	-0.724255	-0.506103
C50	C	1.383979	-0.778975	-0.371632
C51	C	1.383948	-0.724368	-0.371623
C52	C	1.451094	-0.697007	-0.438863
C53	C	1.451077	-0.642416	-0.438822
N54	N	1.518211	-0.615052	-0.506065
C55	C	1.585381	-0.642291	-0.573323
C56	C	1.451274	-0.975491	-0.438941
C57	C	1.451314	-1.030094	-0.438950
C58	C	1.585624	-1.029969	-0.573455
C59	C	1.585589	-0.975365	-0.573440
C60	C	1.518408	-0.948127	-0.506183
C61	C	1.585314	-0.527626	-0.573269
C62	C	1.585281	-0.473020	-0.573237
C63	C	1.450967	-0.473150	-0.438736
C64	C	1.451003	-0.527751	-0.438764
C65	C	1.518180	-0.554987	-0.506039
O66	O	1.394004	-0.614186	-0.381629
O67	O	1.642462	-0.613995	-0.630516
C68	C	1.792260	-0.251831	-0.506083
C69	C	1.909037	-0.251834	-0.506092
C70	C	1.518306	-0.251774	-0.780095
C71	C	1.518339	-0.251753	-0.896872
C72	C	1.518405	-0.115452	-0.506167
C73	C	1.518480	-0.057337	-0.506212
C74	C	1.585584	-0.218309	-0.951766
C75	C	1.585602	-0.218286	-1.061491
C76	C	1.451127	-0.285156	-1.061415
C77	C	1.451105	-0.285176	-0.951693
C78	C	1.623253	-0.156599	-1.211496
C79	C	1.690514	-0.123160	-1.266395
C80	C	1.793032	-0.115142	-1.230807
C81	C	1.828310	-0.140572	-1.140322
C82	C	1.761054	-0.174015	-1.085429
C83	C	1.658521	-0.182023	-1.121016
C84	C	1.413464	-0.346864	-0.801686
C85	C	1.346213	-0.380310	-0.746791
C86	C	1.243693	-0.388333	-0.782377
C87	C	1.208420	-0.362913	-0.872865
C88	C	1.275671	-0.329466	-0.927760
C89	C	1.378190	-0.321443	-0.892166
C90	C	1.518209	-0.251837	-0.233094
C91	C	1.518379	-0.251711	-0.116318
H92	H	1.118286	-0.312568	-0.627718
C93	C	1.526238	-0.338039	-0.762538
H94	H	1.537618	-0.357975	-0.700794
H95	H	1.536249	-0.302099	-0.747506
H96	H	1.574423	-0.348611	-0.815163
H97	H	0.750019	-0.415847	-0.834574
H98	H	1.287502	-0.087826	-0.177528
C99	C	1.799843	-0.201988	-0.985907
H100	H	1.745104	-0.223054	-0.958314
H101	H	1.820098	-0.176831	-0.935177
H102	H	1.858253	-0.223346	-1.002837
H103	H	1.640328	-0.191092	-0.907134
C104	C	1.726515	-0.808688	-0.714603
H105	H	1.766495	-0.784565	-0.754631
H106	H	1.686332	-0.829990	-0.760360
H107	H	1.772335	-0.829982	-0.674452
H108	H	0.914065	-0.447681	-0.741792
H109	H	1.707259	-0.701859	-0.695351
C110	C	1.377082	-0.443180	-0.364763
H111	H	1.386677	-0.406743	-0.374394
H112	H	1.392487	-0.452151	-0.294185
H113	H	1.306486	-0.452152	-0.380094
C114	C	1.651708	-0.095185	-1.365915
H115	H	1.581010	-0.104740	-1.379239
H116	H	1.694157	-0.105033	-1.423779
H117	H	1.656005	-0.058520	-1.356113
C118	C	1.941084	-0.131754	-1.101183
H119	H	1.976083	-0.108191	-1.146829
H120	H	1.977458	-0.164066	-1.100111
H121	H	1.939281	-0.117552	-1.032459
C122	C	1.310104	-0.809064	-0.297684
H123	H	1.319734	-0.845486	-0.307313
H124	H	1.239509	-0.800132	-0.313012
H125	H	1.325504	-0.800140	-0.227097
C126	C	1.310050	-0.694410	-0.297637
H127	H	1.270076	-0.718529	-0.257594
H128	H	1.264241	-0.673109	-0.337776
H129	H	1.350254	-0.673114	-0.251878
H130	H	1.396336	-0.550030	-0.384003
C131	C	1.867015	-0.078358	-1.291190
H132	H	1.831322	-0.064360	-1.350170
H133	H	1.926759	-0.097262	-1.314153
H134	H	1.888585	-0.050749	-1.246499
H135	H	1.013601	-0.386932	-0.620124
H136	H	1.124941	-0.369447	-0.901842
H137	H	1.396648	-1.052367	-0.384185
H138	H	1.396571	-0.953317	-0.384163
H139	H	1.188942	-0.415573	-0.737676
C140	C	1.113273	-0.041411	-0.265757
H141	H	1.051555	-0.035759	-0.305806
H142	H	1.165924	-0.017439	-0.287099
H143	H	1.098180	-0.036413	-0.193546
C144	C	1.385013	-0.408273	-0.647256
H145	H	1.455699	-0.398700	-0.633913
H146	H	1.380736	-0.444937	-0.657040
H147	H	1.342547	-0.398423	-0.589399
H148	H	1.539772	-0.163120	-1.240475
C149	C	1.377185	-0.321923	-1.121722
H150	H	1.386835	-0.317126	-1.194932
H151	H	1.306600	-0.314274	-1.103738
H152	H	1.392519	-0.357058	-1.103712
C153	C	1.236875	-0.301500	-1.027293
H154	H	1.291613	-0.280436	-1.054892
H155	H	1.178455	-0.280151	-1.010378
H156	H	1.216640	-0.326665	-1.078025
C157	C	0.903562	-0.181528	-0.365271
H158	H	0.951951	-0.161585	-0.325335
H159	H	0.860715	-0.201502	-0.319421
H160	H	0.860804	-0.158771	-0.405563
H161	H	0.785033	-0.262520	-0.684045
C162	C	0.998077	-0.111719	-0.406596
H163	H	0.984755	-0.076533	-0.387508
H164	H	0.940184	-0.132840	-0.386723
H165	H	1.007942	-0.113868	-0.480268
C166	C	1.377860	-0.185412	-0.191839
H167	H	1.391194	-0.220595	-0.210943
H168	H	1.368004	-0.183262	-0.118172
H169	H	1.435754	-0.164288	-0.211721
H170	H	1.640316	-1.052157	-0.628222
H171	H	0.685505	-0.323264	-0.805693
H172	H	1.252506	-0.241140	-0.328135
H173	H	1.640008	-0.549795	-0.628058
C174	C	1.659135	-0.442926	-0.647212
H175	H	1.699132	-0.466972	-0.687280
H176	H	1.704926	-0.421622	-0.607065
H177	H	1.618898	-0.421623	-0.692948
C178	C	1.659430	-0.945273	-0.647421
H179	H	1.699428	-0.969320	-0.687483
H180	H	1.705220	-0.923964	-0.607283
H181	H	1.619187	-0.923976	-0.693161
