data_functionalizedCrystal
_audit_creation_method	'MofGen! by Chris Wilmer'
_symmetry_space_group_name_H-M	'P1'
_symmetry_Int_Tables_number	1
_symmetry_cell_setting	triclinic
loop_
_symmetry_equiv_pos_as_xyz
  x,y,z
_cell_length_a	13.032831
_cell_length_b	17.077403
_cell_length_c	17.077396
_cell_angle_alpha	90.017592
_cell_angle_beta	97.190844
_cell_angle_gamma	82.806784
loop_
_atom_site_label
_atom_site_type_symbol
_atom_site_fract_x
_atom_site_fract_y
_atom_site_fract_z
Zn1	Zn	1.597871	-0.465169	0.596089
Zn2	Zn	1.597815	-0.596438	0.464843
Zn3	Zn	1.423105	-0.448499	0.448192
Zn4	Zn	1.423130	-0.579702	0.579429
O5	O	1.510480	-0.522452	0.522138
O6	O	1.744110	-0.496563	0.592620
O7	O	1.574606	-0.576841	0.352784
O8	O	1.446301	-0.340864	0.467815
O9	O	1.744069	-0.593006	0.496194
O10	O	1.574701	-0.353112	0.576474
O11	O	1.446247	-0.468151	0.340550
O12	O	1.276862	-0.451922	0.451660
O13	O	1.446344	-0.564481	0.691489
O14	O	1.276881	-0.548317	0.548079
O15	O	1.574725	-0.480334	0.703729
O16	O	1.574630	-0.704064	0.480039
O17	O	1.446290	-0.691768	0.564225
C18	C	1.238951	-0.496495	0.496255
C19	C	1.122790	-0.485409	0.485201
C20	C	1.510485	-0.726400	0.522151
C21	C	1.510582	-0.813659	0.522191
C22	C	1.510544	-0.522400	0.726889
C23	C	1.510571	-0.522378	0.814141
C24	C	1.071039	-0.528238	0.527907
C25	C	0.950980	-0.516781	0.516483
C26	C	1.783070	-0.548511	0.548123
C27	C	1.899231	-0.559615	0.559196
C28	C	1.510505	-0.317710	0.522146
C29	C	1.510515	-0.230461	0.522149
C30	C	1.443673	-0.183094	0.465579
C31	C	1.443681	-0.101114	0.465590
C32	C	1.510537	-0.066504	0.522167
C33	C	1.577382	-0.113877	0.578743
C34	C	1.577368	-0.195855	0.578735
C35	C	1.577408	0.056991	0.578754
C36	C	1.577424	0.138974	0.578761
C37	C	1.443722	0.151731	0.465609
C38	C	1.443707	0.069753	0.465601
C39	C	1.510554	0.022386	0.522176
C40	C	1.510478	-0.522453	0.318190
C41	C	1.510653	-0.522273	0.230957
C42	C	1.577421	-0.478559	0.861506
C43	C	1.577434	-0.478534	0.943488
C44	C	1.510600	-0.522333	0.978103
C45	C	1.443742	-0.566154	0.930732
C46	C	1.443725	-0.566174	0.848751
C47	C	1.443784	-0.566111	1.101606
C48	C	1.443802	-0.566092	1.183592
C49	C	1.577493	-0.478471	1.196343
C50	C	1.577476	-0.478491	1.114362
C51	C	1.510619	-0.522313	1.066996
H52	H	1.115615	-0.573383	0.572930
O53	O	1.069662	-0.431441	0.431577
C54	C	1.036042	-0.294690	0.390468
C55	C	1.096255	-0.355722	0.451264
H56	H	1.057537	-0.233459	0.406353
H57	H	0.948677	-0.294982	0.390830
H58	H	1.057390	-0.310460	0.329172
H59	H	1.074995	-0.339993	0.512589
H60	H	1.183606	-0.355417	0.450832
H61	H	1.389235	-0.211268	0.419505
O62	O	1.378813	-0.608513	1.217294
C63	C	1.237678	-0.605522	1.296345
C64	C	1.311237	-0.557391	1.258240
H65	H	1.183009	-0.564208	1.329445
H66	H	1.285585	-0.651134	1.339350
H67	H	1.189933	-0.636856	1.248394
H68	H	1.358997	-0.526007	1.306136
H69	H	1.263269	-0.511825	1.215218
O70	O	1.378726	-0.055221	0.410555
C71	C	1.246087	-0.051217	0.298339
C72	C	1.319612	-0.103284	0.360614
H73	H	1.198258	-0.090052	0.257955
H74	H	1.294021	-0.017452	0.261819
H75	H	1.191495	-0.007585	0.329181
H76	H	1.374219	-0.146959	0.329836
H77	H	1.271613	-0.136993	0.397130
H78	H	1.389326	-0.601781	1.063041
H79	H	0.906407	-0.471627	0.471463
H80	H	1.389278	-0.601847	0.810186
H81	H	0.943802	-0.604763	0.604224
O82	O	1.642179	-0.080156	0.633727
C83	C	1.656279	0.011045	0.741087
C84	C	1.582777	-0.027068	0.678844
H85	H	1.608281	0.053963	0.777591
H86	H	1.710904	0.044246	0.710300
H87	H	1.704075	-0.036908	0.781486
H88	H	1.534914	0.020836	0.638426
H89	H	1.528221	-0.060287	0.709682
H90	H	1.389273	0.041576	0.419527
H91	H	1.631848	-0.442895	0.833329
H92	H	1.389321	-0.601813	0.958922
H93	H	1.631873	-0.442854	0.982050
O94	O	1.642432	-0.435875	1.080860
C95	C	1.775079	-0.349001	1.102157
C96	C	1.701555	-0.397215	1.140199
H97	H	1.822916	-0.317745	1.150117
H98	H	1.727143	-0.303333	1.059227
H99	H	1.829664	-0.390285	1.068959
H100	H	1.646956	-0.355994	1.173438
H101	H	1.749557	-0.442892	1.183086
O102	O	1.378637	0.197666	0.410676
C103	C	1.200859	0.239767	0.355645
C104	C	1.274439	0.187693	0.417882
H105	H	1.116599	0.231734	0.361460
H106	H	1.219113	0.221872	0.294076
H107	H	1.212398	0.304295	0.365358
H108	H	1.262941	0.123150	0.408242
H109	H	1.256168	0.205654	0.479428
O110	O	1.642238	0.172578	0.633828
C111	C	1.693001	0.192822	0.772200
C112	C	1.619526	0.154734	0.709917
H113	H	1.674679	0.178395	0.833732
H114	H	1.681515	0.259558	0.762547
H115	H	1.777266	0.168661	0.766425
H116	H	1.535232	0.178831	0.715655
H117	H	1.631103	0.088000	0.719589
H118	H	1.631928	-0.442788	1.234912
H119	H	1.631829	0.018427	0.624832
O120	O	1.642389	-0.241757	0.633726
C121	C	1.774938	-0.245757	0.746002
C122	C	1.701381	-0.193685	0.683750
H123	H	1.822636	-0.206911	0.786473
H124	H	1.829641	-0.289363	0.715224
H125	H	1.726929	-0.279552	0.782430
H126	H	1.749305	-0.159839	0.647304
H127	H	1.646674	-0.150129	0.714577
