data_functionalizedCrystal
_audit_creation_method	'MofGen! by Chris Wilmer'
_symmetry_space_group_name_H-M	'P1'
_symmetry_Int_Tables_number	1
_symmetry_cell_setting	triclinic
loop_
_symmetry_equiv_pos_as_xyz
  x,y,z
_cell_length_a	15.538191
_cell_length_b	16.109301
_cell_length_c	15.186229
_cell_angle_alpha	90.005167
_cell_angle_beta	90.004670
_cell_angle_gamma	65.366787
loop_
_atom_site_label
_atom_site_type_symbol
_atom_site_fract_x
_atom_site_fract_y
_atom_site_fract_z
O1	O	-1.249993	0.270055	-0.073231
O2	O	-0.975705	0.174047	-0.073233
O3	O	-1.120384	0.345355	-0.073223
O4	O	-1.105314	0.098748	-0.073241
O5	O	-1.120375	0.345353	0.073234
O6	O	-0.975695	0.174046	0.073224
O7	O	-1.249984	0.270054	0.073226
Zn8	Zn	-1.112838	0.222050	0.096479
Zn9	Zn	-1.112851	0.222052	-0.096485
O10	O	-1.105305	0.098747	0.073216
C11	C	-0.940602	0.164002	-0.000005
C12	C	-0.836019	0.134081	-0.000005
C13	C	-1.119769	0.376145	0.000006
C14	C	-1.117939	0.467888	0.000007
C15	C	-1.285087	0.280100	-0.000004
C16	C	-1.389670	0.310020	-0.000009
C17	C	-0.548320	0.431335	0.000003
C18	C	-0.450045	0.403199	0.000000
C19	C	-0.427554	0.244941	-0.000011
C20	C	-0.525828	0.273063	-0.000004
C21	C	-0.586204	0.366262	0.000002
C22	C	-0.563712	0.207990	-0.000005
C23	C	-0.661978	0.236111	-0.000003
C24	C	-0.722360	0.329305	0.000000
C25	C	-0.684470	0.394382	0.000004
C26	C	-0.503335	0.114793	-0.000018
C27	C	-0.541219	0.049719	-0.000019
C28	C	-0.639487	0.077840	-0.000010
C29	C	-0.699869	0.171034	-0.000007
C30	C	-0.677377	0.012763	-0.000014
C31	C	-0.775643	0.040883	-0.000011
C32	C	-0.798135	0.199155	-0.000004
C33	C	-1.105920	0.067957	-0.000015
C34	C	-1.107750	-0.023786	-0.000022
N35	N	-1.112836	0.222052	0.228171
C36	C	-1.199533	0.714764	-0.000006
C37	C	-1.197806	0.800964	-0.000013
C38	C	-1.026149	0.729329	-0.000011
C39	C	-1.027877	0.643131	-0.000010
C40	C	-1.114572	0.635852	-0.000003
C41	C	-1.111117	0.808250	-0.000011
C42	C	-1.109244	0.901711	-0.000019
C43	C	-1.116446	0.542385	0.000003
N44	N	-1.112860	0.222059	-0.228178
C45	C	-1.176922	0.297894	0.453899
C46	C	-1.176925	0.297897	0.546088
C47	C	-1.048768	0.146212	0.546088
C48	C	-1.048761	0.146212	0.453900
C49	C	-1.112843	0.222054	0.407808
C50	C	-1.112853	0.222056	0.592185
C51	C	-1.112856	0.222059	0.692142
C52	C	-1.112840	0.222053	0.307845
H53	H	-0.847297	0.275046	0.000006
H54	H	-0.802374	0.352199	-0.000009
H55	H	-0.423321	0.091900	-0.000022
O56	O	-0.476100	-0.050799	-0.000012
H57	H	-0.401404	-0.059423	-0.000005
O58	O	-1.293039	0.706916	-0.000007
H59	H	-1.279970	0.633721	0.000002
O60	O	-0.932645	0.737178	0.000000
H61	H	-0.945715	0.810374	0.000012
H62	H	-1.229101	0.359650	0.416372
H63	H	-0.958687	0.578874	-0.000011
H64	H	-0.996594	0.084462	0.583626
H65	H	-0.733632	0.470273	0.000014
H66	H	-0.597482	0.507226	0.000013
O67	O	-0.816507	-0.029303	-0.000003
H68	H	-0.860738	-0.020285	-0.059699
H69	H	-1.229102	0.359653	0.583613
O70	O	-0.979644	0.064415	0.404173
H71	H	-0.991628	0.003208	0.421842
O72	O	-0.409182	0.473390	0.000013
H73	H	-0.433443	0.516740	-0.059673
O74	O	-0.362434	0.144423	-0.000005
H75	H	-0.287738	0.135799	0.000002
H76	H	-0.628205	-0.063119	-0.000027
H77	H	-1.266990	0.865214	-0.000017
