data_functionalizedCrystal
_audit_creation_method	'MofGen! by Chris Wilmer'
_symmetry_space_group_name_H-M	'P1'
_symmetry_Int_Tables_number	1
_symmetry_cell_setting	triclinic
loop_
_symmetry_equiv_pos_as_xyz
  x,y,z
_cell_length_a	13.339070
_cell_length_b	10.489741
_cell_length_c	12.376457
_cell_angle_alpha	101.393369
_cell_angle_beta	75.589755
_cell_angle_gamma	100.084234
loop_
_atom_site_label
_atom_site_type_symbol
_atom_site_fract_x
_atom_site_fract_y
_atom_site_fract_z
O1	O	1.366233	0.623457	-0.094044
O2	O	1.071092	0.539311	-0.094038
O3	O	1.225377	0.398086	-0.094035
O4	O	1.211948	0.764681	-0.094048
O5	O	1.186819	0.433330	0.093977
O6	O	1.032534	0.574555	0.093973
O7	O	1.327675	0.658701	0.093967
Zn8	Zn	1.173983	0.622224	0.123821
Zn9	Zn	1.224784	0.575788	-0.123892
O10	O	1.173390	0.799925	0.093964
C11	C	1.014020	0.542719	-0.000031
C12	C	0.901409	0.500351	-0.000029
C13	C	0.539022	0.829783	-0.000059
C14	C	0.644826	0.869593	-0.000065
C15	C	0.708977	0.777286	-0.000055
C16	C	0.667313	0.645161	-0.000041
C17	C	0.561501	0.605345	-0.000044
C18	C	0.731456	0.552849	-0.000040
C19	C	0.689792	0.420724	-0.000026
C20	C	0.583990	0.380915	-0.000028
C21	C	0.519839	0.473222	-0.000037
C22	C	0.837268	0.592665	-0.000037
C23	C	0.859747	0.368227	-0.000022
C24	C	0.753943	0.328417	-0.000016
C25	C	1.205084	0.367829	-0.000030
C26	C	1.202049	0.225160	-0.000032
C27	C	1.103883	0.123412	-0.000038
C28	C	1.131245	0.064542	0.092661
C29	C	1.169284	0.029828	-0.092704
C30	C	1.229436	0.168184	0.092743
C31	C	1.267478	0.133459	-0.092704
C32	C	1.294907	0.074645	0.000017
C33	C	1.384748	0.655292	-0.000042
C34	C	1.497360	0.697659	-0.000052
C35	C	1.193684	0.830182	-0.000044
C36	C	1.196720	0.972849	-0.000049
N37	N	1.139319	0.653917	0.292879
N38	N	1.259456	0.544088	-0.292950
C39	C	1.339921	0.470493	0.647868
C40	C	1.364176	0.448309	0.529529
C41	C	1.307963	0.499709	0.470360
C42	C	1.227492	0.573297	0.529543
C43	C	1.203240	0.595492	0.647894
C44	C	1.171283	0.624708	0.470386
C45	C	1.090812	0.698296	0.529569
C46	C	1.066563	0.720486	0.647908
C47	C	1.122775	0.669087	0.707076
C48	C	1.195535	0.602512	0.352035
C49	C	1.058855	0.727511	0.352061
C50	C	1.034599	0.749696	0.470400
H51	H	0.678742	0.977167	-0.000085
O52	O	1.394643	0.420512	0.705168
C53	C	1.532708	0.294095	0.692672
C54	C	1.470832	0.350660	0.627640
H55	H	1.594306	0.237584	0.630019
H56	H	1.572498	0.377607	0.748037
H57	H	1.477065	0.225136	0.748119
H58	H	1.526404	0.419602	0.572131
H59	H	1.431027	0.267082	0.572346
O60	O	1.259807	0.239255	0.186381
C61	C	1.312490	0.234346	0.357995
C62	C	1.278136	0.153700	0.251987
H63	H	1.327298	0.165208	0.411079
H64	H	1.387221	0.303038	0.331475
H65	H	1.248303	0.294506	0.409950
H66	H	1.342251	0.093462	0.199984
H67	H	1.203376	0.085090	0.278584
O68	O	1.099046	0.690711	0.822035
C69	C	0.989287	0.791196	0.991879
C70	C	1.016034	0.766787	0.861690
H71	H	0.922185	0.852728	1.023980
H72	H	0.965262	0.693261	1.024072
H73	H	1.060678	0.845748	1.023968
H74	H	0.944685	0.712278	0.829504
H75	H	1.040100	0.864763	0.829574
H76	H	1.001046	0.780419	0.696095
O77	O	1.331331	0.478101	0.355406
C78	C	1.269659	0.386029	0.185602
C79	C	1.243048	0.410447	0.315791
H80	H	1.198305	0.331304	0.153533
H81	H	1.293548	0.483965	0.153400
H82	H	1.336862	0.324657	0.153489
H83	H	1.175827	0.471774	0.348000
H84	H	1.219222	0.312463	0.347916
O85	O	0.543671	0.252504	-0.000172
C86	C	0.550455	0.030247	-0.097598
C87	C	0.596225	0.175619	-0.097561
H88	H	0.592910	-0.031953	-0.176340
H89	H	0.560703	-0.002598	-0.018964
H90	H	0.463805	0.017684	-0.097548
H91	H	0.682885	0.188291	-0.097651
H92	H	0.585896	0.208396	-0.176188
O93	O	0.922050	0.278462	-0.000211
C94	C	0.993576	0.080520	-0.097570
C95	C	0.923000	0.182090	-0.097505
H96	H	0.994350	0.002563	-0.176211
H97	H	1.076388	0.131589	-0.097639
H98	H	0.962176	0.032167	-0.018850
H99	H	0.954306	0.230476	-0.176211
H100	H	0.840199	0.130950	-0.097377
O101	O	1.007516	0.149686	0.000269
C102	C	0.826882	0.144689	0.098317
C103	C	0.935962	0.114896	0.098117
H104	H	0.768997	0.116549	0.177407
H105	H	0.830186	0.253860	0.097583
H106	H	0.800697	0.085626	0.020051
H107	H	0.962213	0.173874	0.176370
H108	H	0.932597	0.005701	0.098792
H109	H	1.429695	0.388396	0.481346
O110	O	0.956498	0.821204	0.528071
C111	C	0.858528	0.910714	0.710403
C112	C	0.947017	0.829735	0.645233
H113	H	0.850819	0.917614	0.805140
H114	H	0.877233	1.013507	0.687216
H115	H	0.781964	0.860886	0.687089
H116	H	1.023616	0.879449	0.668512
H117	H	0.928222	0.726945	0.668426
H118	H	1.375682	0.052887	0.000066
H119	H	0.871179	0.700242	-0.000045
H120	H	0.720008	0.220837	-0.000014
H121	H	1.073636	0.034002	0.171032
O122	O	1.004168	0.777587	0.294773
C123	C	0.866003	0.903847	0.307278
C124	C	0.927858	0.847240	0.372306
H125	H	0.804277	0.960150	0.369934
H126	H	0.921550	0.972940	0.251887
H127	H	0.826342	0.820263	0.251858
H128	H	0.967524	0.930737	0.427787
H129	H	0.872262	0.778112	0.427625
O130	O	0.476784	0.919587	0.000077
C131	C	0.405152	1.117444	0.097487
C132	C	0.475684	1.015842	0.097465
H133	H	0.404222	1.195276	0.176228
H134	H	0.436555	1.165957	0.018853
H135	H	0.322394	1.066251	0.097427
H136	H	0.558458	1.066935	0.097565
H137	H	0.444195	0.967334	0.176092
H138	H	1.325053	0.164019	-0.171080
H139	H	0.795127	0.809707	-0.000063
H140	H	0.433684	0.440814	-0.000032
O141	O	1.139066	-0.041558	-0.186318
C142	C	1.175529	-0.085910	-0.389880
C143	C	1.209891	-0.005006	-0.283965
H144	H	1.232762	-0.056368	-0.468855
H145	H	1.174290	-0.194769	-0.389505
H146	H	1.094039	-0.066422	-0.389683
H147	H	1.291390	-0.024381	-0.284093
H148	H	1.211056	0.103828	-0.284381
H149	H	1.261055	0.542597	0.303859
