data_functionalizedCrystal
_audit_creation_method	'MofGen! by Chris Wilmer'
_symmetry_space_group_name_H-M	'P1'
_symmetry_Int_Tables_number	1
_symmetry_cell_setting	triclinic
loop_
_symmetry_equiv_pos_as_xyz
  x,y,z
_cell_length_a	21.295411
_cell_length_b	15.298093
_cell_length_c	21.295419
_cell_angle_alpha	80.325640
_cell_angle_beta	89.994777
_cell_angle_gamma	99.657499
loop_
_atom_site_label
_atom_site_type_symbol
_atom_site_fract_x
_atom_site_fract_y
_atom_site_fract_z
Zn1	Zn	-0.189337	1.379255	-0.417231
Zn2	Zn	0.310663	1.879255	0.082769
Zn3	Zn	-0.084100	1.379191	-0.522475
Zn4	Zn	0.415900	1.879191	-0.022475
Zn5	Zn	-0.102310	1.228391	-0.399014
Zn6	Zn	0.397690	1.728391	0.100986
Zn7	Zn	-0.207548	1.228423	-0.504253
Zn8	Zn	0.292452	1.728423	-0.004253
O9	O	-0.145824	1.303815	-0.460743
O10	O	0.354176	1.803815	0.039257
O11	O	-0.160135	1.505480	-0.446442
O12	O	0.339865	2.005480	0.053558
O13	O	0.001569	1.359147	-0.506100
O14	O	0.501569	1.859147	-0.006100
O15	O	-0.113854	1.248417	-0.313343
O16	O	0.386146	1.748417	0.186657
O17	O	-0.082818	1.505433	-0.523764
O18	O	0.417182	2.005433	-0.023764
O19	O	-0.177792	1.359256	-0.326727
O20	O	0.322208	1.859256	0.173273
O21	O	-0.011810	1.248355	-0.415394
O22	O	0.488190	1.748355	0.084606
O23	O	-0.131512	1.102161	-0.397724
O24	O	0.368488	1.602161	0.102276
O25	O	-0.293217	1.248471	-0.492707
O26	O	0.206783	1.748471	0.007293
O27	O	-0.208830	1.102185	-0.475042
O28	O	0.291170	1.602185	0.024958
O29	O	-0.279837	1.359287	-0.428772
O30	O	0.220163	1.859287	0.071228
O31	O	-0.100477	1.359178	-0.608145
O32	O	0.399523	1.859178	-0.108145
O33	O	-0.191173	1.248409	-0.594758
O34	O	0.308827	1.748409	-0.094758
C35	C	-0.145836	1.303814	-0.624295
C36	C	0.354164	1.803814	-0.124295
C37	C	-0.145852	1.303897	-0.694273
C38	C	0.354148	1.803897	-0.194273
C39	C	-0.310005	1.303890	-0.460739
C40	C	0.189995	1.803890	0.039261
C41	C	-0.379969	1.303922	-0.460737
C42	C	0.120031	1.803922	0.039263
C43	C	-0.174124	1.069442	-0.432430
C44	C	0.325876	1.569442	0.067570
C45	C	-0.186246	0.969177	-0.420332
C46	C	0.313754	1.469177	0.079668
C47	C	-0.405871	1.361621	-0.427444
C48	C	0.094129	1.861621	0.072556
C49	C	-0.471613	1.361620	-0.427417
C50	C	0.028387	1.861620	0.072583
C51	C	-0.511451	1.303929	-0.460694
C52	C	-0.011451	1.803929	0.039306
C53	C	-0.485543	1.246218	-0.493989
C54	C	0.014457	1.746218	0.006011
C55	C	-0.419803	1.246215	-0.494010
C56	C	0.080197	1.746215	0.005990
N57	N	-0.615518	1.297009	-0.514927
N58	N	-0.115518	1.797009	-0.014927
N59	N	-0.677969	1.297017	-0.514905
N60	N	-0.177969	1.797017	-0.014905
C61	C	-0.709525	1.303934	-0.460631
C62	C	-0.209525	1.803934	0.039369
N63	N	-0.676270	1.310860	-0.406380
N64	N	-0.176270	1.810860	0.093620
N65	N	-0.613813	1.310856	-0.406403
N66	N	-0.113813	1.810856	0.093597
C67	C	-0.582737	1.303926	-0.460675
C68	C	-0.082737	1.803926	0.039325
C69	C	-0.806712	1.361635	-0.427306
C70	C	-0.306712	1.861635	0.072694
C71	C	-0.872456	1.361628	-0.427276
C72	C	-0.372456	1.861628	0.072724
C73	C	-0.886385	1.246231	-0.493855
C74	C	-0.386385	1.746231	0.006145
C75	C	-0.820642	1.246234	-0.493878
C76	C	-0.320642	1.746234	0.006122
C77	C	-0.780809	1.303941	-0.460605
C78	C	-0.280809	1.803941	0.039395
C79	C	0.017725	1.303792	-0.460708
C80	C	0.517725	1.803792	0.039292
C81	C	0.087710	1.303935	-0.460554
C82	C	0.587710	1.803935	0.039446
C83	C	-0.117414	1.539103	-0.489167
C84	C	0.382586	2.039103	0.010833
C85	C	-0.105307	1.639368	-0.501280
C86	C	0.394693	2.139368	-0.001280
C87	C	-0.232189	1.922099	-0.374383
C88	C	0.267811	2.422099	0.125617
C89	C	-0.243565	1.827894	-0.363000
C90	C	0.256435	2.327894	0.137000
C91	C	-0.209002	1.780758	-0.397569
C92	C	0.290998	2.280758	0.102431
C93	C	-0.163060	1.827836	-0.443523
C94	C	0.336940	2.327836	0.056477
C95	C	-0.151680	1.922050	-0.454903
C96	C	0.348320	2.422050	0.045097
C97	C	-0.128492	1.780709	-0.478090
C98	C	0.371508	2.280709	0.021910
C99	C	-0.082551	1.827787	-0.524043
C100	C	0.417449	2.327787	-0.024043
C101	C	-0.071173	1.921991	-0.535422
C102	C	0.428827	2.421991	-0.035422
C103	C	-0.105737	1.969127	-0.500853
C104	C	0.394263	2.469127	-0.000853
C105	C	-0.139873	1.686495	-0.466709
C106	C	0.360127	2.186495	0.033291
C107	C	-0.059364	1.686446	-0.547230
C108	C	0.440636	2.186446	-0.047230
C109	C	-0.047988	1.780651	-0.558612
C110	C	0.452012	2.280651	-0.058612
C111	C	-0.145823	1.303840	-0.296556
C112	C	0.354177	1.803840	0.203444
C113	C	-0.145822	1.303851	-0.226589
C114	C	0.354178	1.803851	0.273411
C115	C	-0.193040	1.246180	-0.186757
C116	C	0.306960	1.746180	0.313243
C117	C	-0.193047	1.246188	-0.121015
C118	C	0.306953	1.746188	0.378985
C119	C	-0.145828	1.303858	-0.095107
C120	C	0.354172	1.803858	0.404893
C121	C	-0.098606	1.361540	-0.134949
C122	C	0.401394	1.861540	0.365051
C123	C	-0.098603	1.361537	-0.200690
C124	C	0.401397	1.861537	0.299310
N125	N	-0.089898	1.310756	0.007277
N126	N	0.410102	1.810756	0.507277
N127	N	-0.089903	1.310755	0.069729
N128	N	0.410097	1.810755	0.569729
C129	C	-0.145834	1.303875	0.102965
C130	C	0.354166	1.803875	0.602965
N131	N	-0.201763	1.296979	0.071393
N132	N	0.298237	1.796979	0.571393
N133	N	-0.201758	1.296976	0.008936
N134	N	0.298242	1.796976	0.508936
C135	C	-0.145826	1.303869	-0.023823
C136	C	0.354174	1.803869	0.476177
C137	C	-0.193064	1.246210	0.214083
C138	C	0.306936	1.746210	0.714083
C139	C	-0.193072	1.246225	0.279824
C140	C	0.306928	1.746225	0.779824
C141	C	-0.098625	1.361573	0.265890
C142	C	0.401375	1.861573	0.765890
C143	C	-0.098622	1.361562	0.200149
C144	C	0.401378	1.861562	0.700149
C145	C	-0.145841	1.303876	0.174249
C146	C	0.354159	1.803876	0.674249
H147	H	-0.373442	1.408609	-0.400350
H148	H	0.126558	1.908609	0.099650
H149	H	-0.060152	1.408501	-0.233122
H150	H	0.439848	1.908501	0.266878
H151	H	-0.799553	1.199254	-0.520993
H152	H	-0.299553	1.699254	-0.020993
H153	H	-0.060180	1.408532	0.286983
H154	H	0.439820	1.908532	0.786983
H155	H	-0.231519	1.199251	0.192993
H156	H	0.268481	1.699251	0.692993
H157	H	-0.231525	1.199265	0.312257
H158	H	0.268475	1.699265	0.812257
H159	H	-0.492707	1.408603	-0.400302
H160	H	0.007293	1.908603	0.099698
H161	H	-0.280971	1.789570	-0.325585
H162	H	0.219029	2.289570	0.174415
H163	H	-0.010582	1.818995	-0.596028
H164	H	0.489418	2.318995	-0.096028
H165	H	-0.398716	1.199225	-0.521120
H166	H	0.101284	1.699225	-0.021120
H167	H	-0.517984	1.199243	-0.521081
H168	H	-0.017984	1.699243	-0.021081
H169	H	-0.231499	1.199224	-0.088578
H170	H	0.268501	1.699224	0.411422
H171	H	-0.033760	1.960319	-0.572835
H172	H	0.466240	2.460319	-0.072835
H173	H	-0.918821	1.199249	-0.520943
H174	H	-0.418821	1.699249	-0.020943
H175	H	-0.031220	1.648068	-0.575379
H176	H	0.468780	2.148068	-0.075379
H177	H	-0.774278	1.408618	-0.400209
H178	H	-0.274278	1.908618	0.099791
H179	H	-0.177278	1.648174	-0.429292
H180	H	0.322722	2.148174	0.070708
H181	H	-0.231488	1.199204	-0.207839
H182	H	0.268512	1.699204	0.292161
H183	H	-0.060170	1.408520	0.167716
H184	H	0.439830	1.908520	0.667716
H185	H	-0.218264	1.704053	-0.388297
H186	H	0.281736	2.204053	0.111703
H187	H	-0.260322	1.960486	-0.346238
H188	H	0.239678	2.460486	0.153762
H189	H	-0.096485	2.045837	-0.510126
H190	H	0.403515	2.545837	-0.010126
H191	H	-0.060159	1.408498	-0.113852
H192	H	0.439841	1.908498	0.386148
H193	H	-0.893543	1.408612	-0.400162
H194	H	-0.393543	1.908612	0.099838
