data_functionalizedCrystal
_audit_creation_method	'MofGen! by Chris Wilmer'
_symmetry_space_group_name_H-M	'P1'
_symmetry_Int_Tables_number	1
_symmetry_cell_setting	triclinic
loop_
_symmetry_equiv_pos_as_xyz
  x,y,z
_cell_length_a	21.395362
_cell_length_b	11.169416
_cell_length_c	21.395356
_cell_angle_alpha	90.020097
_cell_angle_beta	90.042977
_cell_angle_gamma	90.026221
loop_
_atom_site_label
_atom_site_type_symbol
_atom_site_fract_x
_atom_site_fract_y
_atom_site_fract_z
Zn1	Zn	0.957942	-0.477329	0.354619
Zn2	Zn	0.957884	-0.678032	0.249855
Zn3	Zn	0.853159	-0.477417	0.249820
Zn4	Zn	0.853164	-0.678024	0.354560
O5	O	0.905537	-0.577700	0.302213
O6	O	1.045612	-0.503919	0.340761
O7	O	0.943965	-0.651459	0.162172
O8	O	0.867081	-0.309455	0.263732
O9	O	1.045569	-0.651374	0.263792
O10	O	0.944065	-0.309391	0.340727
O11	O	0.867024	-0.504069	0.162147
O12	O	0.765482	-0.504061	0.263675
O13	O	0.867089	-0.651362	0.442246
O14	O	0.765485	-0.651447	0.340626
O15	O	0.944070	-0.503911	0.442289
O16	O	0.943970	-0.845980	0.263734
O17	O	0.867032	-0.845975	0.340661
C18	C	0.742749	-0.577764	0.302141
C19	C	0.673108	-0.577820	0.302124
C20	C	0.640413	-0.654665	0.342133
C21	C	0.574978	-0.654636	0.342161
C22	C	0.542240	-0.577774	0.302169
C23	C	0.574943	-0.500913	0.262157
C24	C	0.640377	-0.500937	0.262135
C25	C	0.438514	-0.568122	0.245763
C26	C	0.373081	-0.568108	0.245784
C27	C	0.340419	-0.577695	0.302238
C28	C	0.373198	-0.587323	0.358673
C29	C	0.438632	-0.587346	0.358650
C30	C	0.471287	-0.577739	0.302189
C31	C	0.236772	-0.654513	0.342281
C32	C	0.171335	-0.654475	0.342310
C33	C	0.171301	-0.500759	0.262300
C34	C	0.236737	-0.500790	0.262277
C35	C	0.269468	-0.577674	0.302266
C36	C	0.905512	-0.889525	0.302209
C37	C	0.905559	-1.022925	0.302228
C38	C	1.068960	-0.577637	0.302287
C39	C	1.138602	-0.577611	0.302318
C40	C	0.905586	-0.577626	0.465637
C41	C	0.905607	-0.577594	0.535278
C42	C	0.905579	-0.264658	0.302232
C43	C	0.905597	-0.131258	0.302240
C44	C	0.905524	-0.577688	0.139426
C45	C	0.905624	-0.577381	0.069785
C46	C	0.865555	-0.500839	0.567968
C47	C	0.865553	-0.500817	0.633403
C48	C	0.905614	-0.577537	0.666146
C49	C	0.945669	-0.654307	0.633449
C50	C	0.945666	-0.654336	0.568014
C51	C	0.962068	-0.586943	0.769852
C52	C	0.962073	-0.586906	0.835285
C53	C	0.905625	-0.577456	0.867967
C54	C	0.849170	-0.568018	0.835208
C55	C	0.849167	-0.568046	0.769774
C56	C	0.905622	-0.577515	0.737099
C57	C	0.865566	-0.500673	0.971610
C58	C	0.865563	-0.500659	1.037046
C59	C	0.945686	-0.654143	1.037090
C60	C	0.945683	-0.654163	0.971655
C61	C	0.905624	-0.577422	0.938919
H62	H	0.144647	-0.438171	0.229741
Cl63	Cl	1.033042	-0.598784	0.876462
Cl64	Cl	0.815211	-0.404291	0.674508
Cl65	Cl	0.815192	-0.404370	0.526817
Cl66	Cl	0.681481	-0.404323	0.211834
Cl67	Cl	0.681558	-0.751313	0.392408
H68	H	0.978306	-0.716607	1.063749
Cl69	Cl	0.533867	-0.751249	0.392462
H70	H	0.346398	-0.560276	0.199832
H71	H	0.263357	-0.438221	0.229694
Cl72	Cl	0.479568	-0.556073	0.174785
Cl73	Cl	0.778199	-0.556190	0.728593
Cl74	Cl	0.996042	-0.750652	0.930557
Cl75	Cl	1.033038	-0.598833	0.728774
Cl76	Cl	0.815189	-0.404192	1.078143
H77	H	0.803205	-0.560315	0.861816
H78	H	0.978288	-0.716773	0.660112
H79	H	0.263423	-0.717110	0.374846
Cl80	Cl	0.130232	-0.751083	0.392615
H81	H	0.978284	-0.716838	0.541399
H82	H	0.832948	-0.438186	0.944954
H83	H	0.465318	-0.595182	0.404601
H84	H	0.346606	-0.595128	0.404643
Cl85	Cl	0.533787	-0.404281	0.211885
