data_functionalizedCrystal
_audit_creation_method	'MofGen! by Chris Wilmer'
_symmetry_space_group_name_H-M	'P1'
_symmetry_Int_Tables_number	1
_symmetry_cell_setting	triclinic
loop_
_symmetry_equiv_pos_as_xyz
  x,y,z
_cell_length_a	15.538191
_cell_length_b	17.699083
_cell_length_c	16.176319
_cell_angle_alpha	90.007696
_cell_angle_beta	89.990661
_cell_angle_gamma	114.722446
loop_
_atom_site_label
_atom_site_type_symbol
_atom_site_fract_x
_atom_site_fract_y
_atom_site_fract_z
O1	O	1.250479	0.245973	-0.068751
O2	O	0.976020	0.158526	-0.068752
O3	O	1.121003	0.314557	-0.068745
O4	O	1.105495	0.089941	-0.068759
O5	O	1.120983	0.314559	0.068749
O6	O	0.976000	0.158528	0.068741
O7	O	1.250459	0.245975	0.068742
Cu8	Cu	1.113227	0.202251	0.081296
Cu9	Cu	1.113251	0.202249	-0.081306
O10	O	1.105475	0.089943	0.068734
C11	C	0.940893	0.149378	-0.000006
C12	C	0.836257	0.122125	-0.000006
C13	C	1.120438	0.342603	0.000002
C14	C	1.118771	0.426166	0.000003
N15	N	1.113218	0.202255	0.195661
C16	C	0.549086	0.392872	-0.000001
C17	C	0.450762	0.367245	-0.000004
C18	C	0.427989	0.223099	-0.000013
C19	C	0.526313	0.248714	-0.000007
C20	C	0.586855	0.333602	-0.000002
C21	C	0.564082	0.189444	-0.000007
C22	C	0.662398	0.215057	-0.000005
C23	C	0.722945	0.299940	-0.000003
C24	C	0.685171	0.359215	0.000000
C25	C	0.503539	0.104556	-0.000018
C26	C	0.541308	0.045286	-0.000018
C27	C	0.639625	0.070899	-0.000010
C28	C	0.700173	0.155782	-0.000008
C29	C	0.677400	0.011624	-0.000013
C30	C	0.775716	0.037238	-0.000011
C31	C	0.798489	0.181396	-0.000006
C32	C	1.285585	0.255123	-0.000006
C33	C	1.390221	0.282375	-0.000012
C34	C	1.106041	0.061897	-0.000014
C35	C	1.107708	-0.021665	-0.000020
C36	C	1.203873	0.498041	0.000004
C37	C	1.202301	0.576554	-0.000003
C38	C	1.115626	0.583192	-0.000006
C39	C	1.030517	0.511309	-0.000010
C40	C	1.032090	0.432797	-0.000009
C41	C	1.024171	0.827938	-0.000017
C42	C	1.022605	0.906458	-0.000016
C43	C	1.194382	0.971696	-0.000011
C44	C	1.195955	0.893184	-0.000010
C45	C	1.110847	0.821308	-0.000018
C46	C	1.112552	0.736175	-0.000012
C47	C	1.113919	0.668323	-0.000007
N48	N	1.113268	0.202253	-0.195671
C49	C	1.177436	0.271330	0.238928
C50	C	1.177441	0.271332	0.325476
C51	C	1.113231	0.202256	0.368753
C52	C	1.049006	0.133177	0.325480
C53	C	1.048998	0.133178	0.238934
C54	C	1.049038	0.133172	0.674508
C55	C	1.049054	0.133175	0.761059
C56	C	1.177481	0.271326	0.761049
C57	C	1.177473	0.271327	0.674504
C58	C	1.113245	0.202250	0.631238
C59	C	1.113239	0.202249	0.537393
C60	C	1.113240	0.202254	0.462596
H61	H	0.803000	0.320793	-0.000012
H62	H	0.420016	0.415517	-0.000005
O63	O	1.297359	0.490883	-0.000001
H64	H	1.356271	0.554055	-0.000012
O65	O	0.979759	0.058668	0.372155
H66	H	0.906300	0.048165	0.355571
H67	H	1.271600	0.635075	-0.000000
H68	H	1.229776	0.327574	0.796286
H69	H	0.734468	0.428339	0.000009
O70	O	0.612092	-0.079928	-0.000025
H71	H	0.654873	-0.116841	-0.000031
O72	O	1.246717	0.345834	0.627822
H73	H	1.320177	0.356348	0.644415
H74	H	0.996704	0.076931	0.203706
H75	H	0.598383	0.461996	0.000007
O76	O	0.816459	-0.026687	-0.000001
H77	H	0.792135	-0.066176	-0.056037
O78	O	0.932381	0.750421	-0.000005
H79	H	0.871849	0.768230	0.000008
H80	H	1.263682	1.030228	-0.000009
H81	H	0.996744	0.076926	0.639287
H82	H	1.229726	0.327578	0.203697
O83	O	1.289439	0.886022	-0.000019
H84	H	1.348354	0.949193	-0.000030
O85	O	0.863799	0.272954	0.000014
H86	H	0.909155	0.288072	-0.056020
O87	O	0.937028	0.518462	-0.000016
H88	H	0.896134	0.487745	0.056020
H89	H	0.378683	0.153983	-0.000020
H90	H	0.962790	0.374274	-0.000010
H91	H	0.423484	0.083705	-0.000022
H92	H	1.229731	0.327579	0.360704
H93	H	0.996763	0.076923	0.796295
O94	O	0.476003	-0.046267	-0.000011
H95	H	0.430666	-0.061393	-0.056046
O96	O	0.929115	0.913621	-0.000026
H97	H	0.870197	0.850451	-0.000039
