data_functionalizedCrystal
_audit_creation_method	'MofGen! by Chris Wilmer'
_symmetry_space_group_name_H-M	'P1'
_symmetry_Int_Tables_number	1
_symmetry_cell_setting	triclinic
loop_
_symmetry_equiv_pos_as_xyz
  x,y,z
_cell_length_a	16.109302
_cell_length_b	13.339070
_cell_length_c	15.186229
_cell_angle_alpha	89.998719
_cell_angle_beta	89.994701
_cell_angle_gamma	99.545538
loop_
_atom_site_label
_atom_site_type_symbol
_atom_site_fract_x
_atom_site_fract_y
_atom_site_fract_z
O1	O	1.133153	0.130024	-0.073266
O2	O	0.894828	0.146204	-0.073259
O3	O	0.986638	-0.009140	-0.073259
O4	O	1.041343	0.285369	-0.073266
O5	O	0.986629	-0.009143	0.073198
O6	O	0.894819	0.146202	0.073198
O7	O	1.133144	0.130022	0.073191
Zn8	Zn	1.013980	0.138112	0.096448
Zn9	Zn	1.013992	0.138115	-0.096516
O10	O	1.041334	0.285367	0.073191
C11	C	0.863697	0.145548	-0.000030
C12	C	0.770948	0.143582	-0.000027
C13	C	0.557553	0.139037	0.079798
C14	C	0.470404	0.137179	0.079795
C15	C	0.470425	0.137187	-0.079880
C16	C	0.557572	0.139037	-0.079876
C17	C	0.601134	0.139967	-0.000034
C18	C	0.426838	0.136259	-0.000041
C19	C	0.332348	0.134245	-0.000045
C20	C	0.695630	0.141979	-0.000030
C21	C	0.977393	-0.046828	-0.000031
C22	C	0.949849	-0.159121	-0.000034
C23	C	1.164017	-0.523983	-0.000040
C24	C	1.189899	-0.418479	-0.000033
C25	C	1.129889	-0.353634	-0.000033
C26	C	1.043992	-0.394304	-0.000041
C27	C	1.018108	-0.499819	-0.000042
C28	C	0.983980	-0.329470	-0.000035
C29	C	0.898083	-0.370139	-0.000042
C30	C	0.872203	-0.475644	-0.000044
C31	C	0.932214	-0.540489	-0.000043
C32	C	1.009864	-0.223955	-0.000034
C33	C	0.863955	-0.199790	-0.000036
C34	C	0.838073	-0.305295	-0.000043
C35	C	1.164275	0.130679	-0.000040
C36	C	1.257024	0.132644	-0.000049
C37	C	1.050579	0.323054	-0.000038
C38	C	1.078123	0.435347	-0.000041
N39	N	1.013978	0.138109	0.228141
N40	N	1.013999	0.138109	-0.228209
C41	C	1.054656	0.069346	0.453863
C42	C	1.054658	0.069343	0.546053
C43	C	0.973315	0.206876	0.546062
C44	C	0.973309	0.206873	0.453874
C45	C	1.013984	0.138109	0.407777
C46	C	1.013993	0.138110	0.592155
C47	C	1.013995	0.138107	0.692111
C48	C	1.013981	0.138109	0.307815
H49	H	0.593056	0.139792	-0.144890
F50	F	0.424053	0.136177	-0.164849
H51	H	0.434924	0.136422	0.144803
F52	F	0.800082	-0.130783	-0.000031
F53	F	1.227874	-0.593000	-0.000026
F54	F	0.930013	0.280059	0.404822
H55	H	1.087775	0.013352	0.416333
H56	H	1.087776	0.013349	0.583574
H57	H	0.593018	0.139794	0.144811
H58	H	0.940200	0.262863	0.583604
H59	H	1.079801	-0.190853	-0.000028
F60	F	1.157437	-0.241347	-0.000028
F61	F	1.281312	-0.375203	-0.000039
H62	H	0.911145	-0.626400	-0.000052
F63	F	0.780785	-0.518925	-0.000040
H64	H	0.768135	-0.338423	-0.000049
