data_functionalizedCrystal
_audit_creation_method	'MofGen! by Chris Wilmer'
_symmetry_space_group_name_H-M	'P1'
_symmetry_Int_Tables_number	1
_symmetry_cell_setting	triclinic
loop_
_symmetry_equiv_pos_as_xyz
  x,y,z
_cell_length_a	10.723024
_cell_length_b	10.723023
_cell_length_c	16.176319
_cell_angle_alpha	90.002418
_cell_angle_beta	90.005687
_cell_angle_gamma	84.467709
loop_
_atom_site_label
_atom_site_type_symbol
_atom_site_fract_x
_atom_site_fract_y
_atom_site_fract_z
O1	O	1.657191	0.175025	0.068739
O2	O	2.157191	0.675025	0.568739
O3	O	1.294039	0.191778	0.068742
O4	O	1.794039	0.691778	0.568742
O5	O	1.483992	0.001825	0.068737
O6	O	1.983992	0.501825	0.568737
O7	O	1.467238	0.364978	0.068744
O8	O	1.967238	0.864978	0.568744
O9	O	1.483969	0.001824	-0.068756
O10	O	1.983969	0.501824	0.431244
O11	O	1.294016	0.191777	-0.068751
O12	O	1.794016	0.691777	0.431249
O13	O	1.657168	0.175024	-0.068754
O14	O	2.157168	0.675024	0.431246
Cu15	Cu	1.475590	0.183401	-0.081307
Cu16	Cu	1.975590	0.683401	0.418693
Cu17	Cu	1.475617	0.183401	0.081295
Cu18	Cu	1.975617	0.683401	0.581295
O19	O	1.467215	0.364977	-0.068749
O20	O	1.967215	0.864977	0.431251
C21	C	1.482762	-0.044675	-0.000009
C22	C	1.982762	0.455325	0.499991
C23	C	1.479114	-0.183229	-0.000006
C24	C	1.979114	0.316771	0.499994
C25	C	1.247528	0.190558	-0.000004
C26	C	1.747528	0.690558	0.499996
C27	C	1.108973	0.186911	-0.000003
C28	C	1.608973	0.686911	0.499997
C29	C	1.477500	-0.244995	0.071221
C30	C	1.977500	0.255005	0.571221
C31	C	1.473730	-0.388198	0.071225
C32	C	1.973730	0.111802	0.571225
C33	C	1.033991	0.293198	-0.000001
C34	C	1.533991	0.793198	0.499999
C35	C	0.890787	0.289431	0.000000
C36	C	1.390787	0.789431	0.500000
C37	C	1.703679	0.176243	-0.000006
C38	C	2.203679	0.676243	0.499994
C39	C	1.842234	0.179891	-0.000001
C40	C	2.342234	0.679891	0.499999
C41	C	1.468445	0.411477	-0.000002
C42	C	1.968445	0.911477	0.499998
C43	C	1.472093	0.550031	0.000001
C44	C	1.972093	1.050031	0.500001
N45	N	1.475581	0.183399	-0.195672
N46	N	1.975581	0.683399	0.304328
C47	C	1.551907	0.259781	-0.238932
C48	C	2.051907	0.759781	0.261068
C49	C	1.551921	0.259777	-0.325479
C50	C	2.051921	0.759777	0.174521
C51	C	1.475600	0.183396	-0.368765
C52	C	1.975600	0.683396	0.131235
C53	C	1.399270	0.107005	-0.325499
C54	C	1.899270	0.607005	0.174501
C55	C	1.399264	0.107004	-0.238953
C56	C	1.899264	0.607004	0.261047
C57	C	1.399293	0.107007	-0.674527
C58	C	1.899293	0.607007	-0.174527
C59	C	1.399302	0.107016	-0.761079
C60	C	1.899302	0.607016	-0.261079
C61	C	1.551950	0.259780	-0.761053
C62	C	2.051950	0.759780	-0.261053
C63	C	1.551944	0.259778	-0.674507
C64	C	2.051944	0.759778	-0.174507
C65	C	1.475619	0.183383	-0.631249
C66	C	1.975619	0.683383	-0.131249
C67	C	1.475608	0.183387	-0.537405
C68	C	1.975608	0.683387	-0.037405
C69	C	1.475604	0.183397	-0.462607
C70	C	1.975604	0.683397	0.037393
N71	N	1.475636	0.183393	0.195660
N72	N	1.975636	0.683393	0.695660
H73	H	1.478903	-0.191856	0.132197
H74	H	1.978903	0.308144	0.632197
H75	H	0.826354	0.380421	0.000006
H76	H	1.326354	0.880421	0.500006
C77	C	0.929269	0.056957	-0.000006
C78	C	1.429269	0.556957	0.499994
N79	N	0.994833	-0.035637	-0.000012
N80	N	1.494833	0.464363	0.499988
H81	H	1.472348	-0.441315	0.132205
H82	H	1.972348	0.058685	0.632205
H83	H	1.614076	0.321972	-0.360697
H84	H	2.114076	0.821972	0.139303
C85	C	1.315323	0.022981	-0.626954
C86	C	1.815323	0.522981	-0.126954
N87	N	1.252069	-0.040309	-0.591120
N88	N	1.752069	0.459691	-0.091120
H89	H	1.337134	0.044808	-0.360749
H90	H	1.837134	0.544808	0.139251
H91	H	1.067152	0.093125	0.000016
H92	H	1.567152	0.593125	0.500016
C93	C	1.090483	0.419904	-0.000002
C94	C	1.590483	0.919904	0.499998
N95	N	1.133032	0.515342	-0.000002
N96	N	1.633032	1.015342	0.499998
H97	H	1.473487	-0.396861	-0.060982
H98	H	1.973487	0.103139	0.439018
H99	H	1.614049	0.321987	-0.203695
H100	H	2.114049	0.821987	0.296305
H101	H	1.614087	0.321980	-0.639268
H102	H	2.114087	0.821980	-0.139268
H103	H	1.477698	-0.236366	-0.060982
H104	H	1.977698	0.263634	0.439018
C105	C	1.635920	0.343805	-0.808644
C106	C	2.135920	0.843805	-0.308644
N107	N	1.699164	0.407093	-0.844489
N108	N	2.199164	0.907093	-0.344489
H109	H	1.337149	0.044813	-0.796320
H110	H	1.837149	0.544813	-0.296320
H111	H	1.337111	0.044806	-0.203733
H112	H	1.837111	0.544806	0.296267
