data_functionalizedCrystal
_audit_creation_method	'MofGen! by Chris Wilmer'
_symmetry_space_group_name_H-M	'P1'
_symmetry_Int_Tables_number	1
_symmetry_cell_setting	triclinic
loop_
_symmetry_equiv_pos_as_xyz
  x,y,z
_cell_length_a	12.759400
_cell_length_b	29.839134
_cell_length_c	12.759393
_cell_angle_alpha	90.034807
_cell_angle_beta	90.030452
_cell_angle_gamma	90.007318
loop_
_atom_site_label
_atom_site_type_symbol
_atom_site_fract_x
_atom_site_fract_y
_atom_site_fract_z
Zn1	Zn	-0.418419	0.686850	0.594409
Zn2	Zn	-0.594134	0.686804	0.418729
Zn3	Zn	-0.418448	0.611719	0.418702
Zn4	Zn	-0.594034	0.611716	0.594324
O5	O	-0.506259	0.649272	0.506541
O6	O	-0.441757	0.749711	0.571152
O7	O	-0.570883	0.676825	0.271705
O8	O	-0.271423	0.621706	0.442034
O9	O	-0.570855	0.749677	0.442081
O10	O	-0.271401	0.676905	0.571125
O11	O	-0.441807	0.621661	0.271684
O12	O	-0.441710	0.548852	0.441951
O13	O	-0.570684	0.621701	0.741356
O14	O	-0.570712	0.548849	0.570980
O15	O	-0.441660	0.676901	0.741419
O16	O	-0.741142	0.676822	0.441998
O17	O	-0.741068	0.621656	0.571007
C18	C	-0.506204	0.532550	0.506454
C19	C	-0.506206	0.482615	0.506442
C20	C	-0.779226	0.649246	0.506519
C21	C	-0.896003	0.649275	0.506545
C22	C	-0.438988	0.126017	0.439493
C23	C	-0.438958	0.313690	0.439429
O24	O	-0.381718	0.337945	0.382409
N25	N	-0.506223	0.337170	0.506495
C26	C	-0.573495	0.313729	0.573586
O27	O	-0.630700	0.338007	0.630636
C28	C	-0.573519	0.126057	0.573654
C29	C	-0.506257	0.102579	0.506577
C30	C	-0.371731	0.102539	0.372422
C31	C	-0.371743	0.055623	0.372434
C32	C	-0.439012	0.032186	0.439518
C33	C	-0.506269	0.055664	0.506589
C34	C	-0.640785	0.102617	0.640750
C35	C	-0.640783	0.055696	0.640763
C36	C	-0.573521	0.032218	0.573686
C37	C	-0.573550	-0.014689	0.573686
N38	N	-0.506286	-0.038170	0.506620
C39	C	-0.439016	-0.014732	0.439536
C40	C	-0.573479	0.412260	0.573544
C41	C	-0.573475	0.459177	0.573526
C42	C	-0.438936	0.459135	0.439370
C43	C	-0.438947	0.412216	0.439384
C44	C	-0.506215	0.388779	0.506478
C45	C	-0.439047	-0.113258	0.439567
C46	C	-0.439069	-0.160177	0.439583
C47	C	-0.573603	-0.160131	0.573742
C48	C	-0.573586	-0.113215	0.573723
C49	C	-0.506300	-0.089780	0.506632
O50	O	-0.630753	-0.038973	0.630684
O51	O	-0.381804	-0.039018	0.382512
C52	C	-0.438976	0.172932	0.439480
C53	C	-0.506233	0.196410	0.506552
C54	C	-0.573502	0.172972	0.573635
C55	C	-0.506228	0.243328	0.506533
C56	C	-0.438959	0.266765	0.439450
C57	C	-0.371694	0.243285	0.372384
C58	C	-0.371706	0.196370	0.372396
C59	C	-0.640767	0.196453	0.640701
C60	C	-0.640750	0.243368	0.640682
C61	C	-0.573481	0.266806	0.573598
C62	C	-1.060599	0.678060	0.439478
C63	C	-0.950875	0.678033	0.439445
C64	C	-0.950860	0.620540	0.573675
C65	C	-1.060582	0.620565	0.573702
C66	C	-0.232225	0.649311	0.506586
C67	C	-0.115449	0.649327	0.506605
C68	C	-0.506158	0.649306	0.780575
C69	C	-0.506115	0.649320	0.897351
C70	C	-0.506314	0.766450	0.506629
C71	C	-0.506338	0.816385	0.506666
C72	C	-0.506283	0.649264	0.233574
C73	C	-0.506030	0.649337	0.116798
C74	C	-0.438921	0.678065	0.952248
C75	C	-0.438876	0.678073	1.061972
C76	C	-0.573227	0.620589	1.061894
C77	C	-0.573266	0.620579	0.952172
H78	H	-0.384294	-0.179291	0.384957
H79	H	-0.316971	0.036512	0.317813
H80	H	-0.384159	0.701479	1.106663
H81	H	-0.906220	0.701429	0.384783
C82	C	-0.647180	0.588959	0.891777
H83	H	-0.637576	0.593066	0.818579
H84	H	-0.717769	0.595522	0.909748
H85	H	-0.631772	0.558776	0.909732
C86	C	-0.647097	0.588979	1.122194
H87	H	-0.687114	0.571855	1.073782
H88	H	-0.692867	0.606162	1.165005
H89	H	-0.606877	0.569413	1.164985
C90	C	-1.120925	0.588959	0.647546
H91	H	-1.194129	0.593091	0.637943
H92	H	-1.102882	0.595513	0.718150
H93	H	-1.103004	0.558772	0.632080
C94	C	-0.890503	0.588908	0.647485
H95	H	-0.817300	0.593011	0.637864
H96	H	-0.908540	0.558730	0.632039
H97	H	-0.908423	0.595475	0.718100
C98	C	-0.365053	0.709675	0.891944
H99	H	-0.374705	0.705556	0.818734
H100	H	-0.294454	0.703112	0.909932
H101	H	-0.380445	0.739860	0.909953
H102	H	-0.316946	0.121617	0.317794
C103	C	-0.365037	-0.087486	0.365767
H104	H	-0.324994	-0.108193	0.325823
H105	H	-0.319296	-0.069169	0.406019
H106	H	-0.405174	-0.069199	0.319909
H107	H	-0.628261	0.393182	0.628183
C108	C	-0.714765	0.128432	0.714546
H109	H	-0.754811	0.107748	0.754505
H110	H	-0.760504	0.146723	0.674293
H111	H	-0.674613	0.146747	0.760389
H112	H	-0.384173	0.393104	0.384767
H113	H	-1.105268	0.701480	0.384843
C114	C	-0.714758	0.269191	0.714454
H115	H	-0.705133	0.300491	0.704838
H116	H	-0.699474	0.261523	0.785074
H117	H	-0.785332	0.261492	0.698944
H118	H	-0.384164	0.478226	0.384747
H119	H	-0.628376	-0.179222	0.628356
C120	C	-0.647484	0.485000	0.647285
H121	H	-0.637864	0.516300	0.637664
H122	H	-0.632203	0.477336	0.717907
H123	H	-0.718056	0.477298	0.631772
H124	H	-0.628364	-0.094099	0.628335
C125	C	-0.714740	0.029918	0.714609
H126	H	-0.754785	0.050623	0.754557
H127	H	-0.674569	0.011639	0.760443
H128	H	-0.760498	0.011594	0.674385
H129	H	-0.316925	0.262376	0.317758
C130	C	-0.297710	0.170550	0.298619
H131	H	-0.257644	0.191234	0.258677
H132	H	-0.337839	0.152231	0.252774
H133	H	-0.251973	0.152264	0.338896
H134	H	-0.695546	0.177374	0.695331
