data_functionalizedCrystal
_audit_creation_method	'MofGen! by Chris Wilmer'
_symmetry_space_group_name_H-M	'P1'
_symmetry_Int_Tables_number	1
_symmetry_cell_setting	triclinic
loop_
_symmetry_equiv_pos_as_xyz
  x,y,z
_cell_length_a	21.395362
_cell_length_b	14.908520
_cell_length_c	21.395356
_cell_angle_alpha	93.271115
_cell_angle_beta	89.957023
_cell_angle_gamma	93.337688
loop_
_atom_site_label
_atom_site_type_symbol
_atom_site_fract_x
_atom_site_fract_y
_atom_site_fract_z
Zn1	Zn	0.943511	-0.358806	-0.368962
Zn2	Zn	0.937384	-0.509674	-0.270229
Zn3	Zn	0.838725	-0.358873	-0.264166
Zn4	Zn	0.832664	-0.509669	-0.374933
O5	O	0.888071	-0.434255	-0.319572
O6	O	1.030377	-0.378794	-0.355903
O7	O	0.924269	-0.489700	-0.181748
O8	O	0.857725	-0.232617	-0.273030
O9	O	1.025876	-0.489636	-0.283364
O10	O	0.934711	-0.232568	-0.350023
O11	O	0.851784	-0.378907	-0.177293
O12	O	0.750242	-0.378901	-0.278821
O13	O	0.847396	-0.489626	-0.461818
O14	O	0.745789	-0.489690	-0.360201
O15	O	0.928834	-0.378789	-0.457430
O16	O	0.918392	-0.635921	-0.289155
O17	O	0.841455	-0.635917	-0.366081
C18	C	0.725281	-0.434303	-0.319502
C19	C	0.655638	-0.434345	-0.319487
C20	C	0.620620	-0.492110	-0.361805
C21	C	0.555186	-0.492088	-0.361832
C22	C	0.524771	-0.434311	-0.319530
C23	C	0.559798	-0.376535	-0.277209
C24	C	0.625231	-0.376552	-0.277187
C25	C	0.421338	-0.427056	-0.262834
C26	C	0.355905	-0.427045	-0.262855
C27	C	0.322953	-0.434252	-0.319597
C28	C	0.355441	-0.441489	-0.376321
C29	C	0.420874	-0.441506	-0.376299
C30	C	0.453820	-0.434285	-0.319549
C31	C	0.216983	-0.491995	-0.361948
C32	C	0.151548	-0.491967	-0.361976
C33	C	0.156161	-0.376419	-0.277347
C34	C	0.221596	-0.376443	-0.277325
C35	C	0.252002	-0.434235	-0.319624
C36	C	0.878618	-0.668653	-0.328937
C37	C	0.874632	-0.768929	-0.332965
C38	C	0.947338	-0.957302	-0.260494
C39	C	0.943594	-1.051521	-0.264276
C40	C	0.863405	-1.051586	-0.344314
C41	C	0.867148	-0.957368	-0.340532
C42	C	0.909116	-0.910229	-0.298620
C43	C	0.912856	-0.816009	-0.294835
C44	C	0.832670	-0.816076	-0.374875
C45	C	0.828926	-0.910295	-0.378657
C46	C	1.051496	-0.434208	-0.319644
C47	C	1.121138	-0.434188	-0.319674
C48	C	0.888122	-0.434199	-0.482993
C49	C	0.888144	-0.434176	-0.552634
C50	C	0.897577	-0.198942	-0.310184
C51	C	0.901629	-0.098666	-0.306184
C52	C	0.850413	-0.376479	-0.583017
C53	C	0.850411	-0.376462	-0.648452
C54	C	0.888153	-0.434133	-0.683500
C55	C	0.925887	-0.491840	-0.653110
C56	C	0.925883	-0.491862	-0.587676
C57	C	0.944322	-0.441203	-0.787489
C58	C	0.944328	-0.441175	-0.852921
C59	C	0.888166	-0.434072	-0.885319
C60	C	0.831997	-0.426977	-0.852276
C61	C	0.831993	-0.426999	-0.786843
C62	C	0.888162	-0.434116	-0.754452
C63	C	0.850429	-0.376354	-0.986654
C64	C	0.850426	-0.376344	-1.052090
C65	C	0.925908	-0.491717	-1.056746
C66	C	0.925905	-0.491732	-0.991312
C67	C	0.888167	-0.434046	-0.956269
C68	C	0.888058	-0.434246	-0.156784
C69	C	0.888168	-0.434016	-0.087134
H70	H	0.447323	-0.447396	-0.422485
H71	H	0.801544	-0.777739	-0.405918
Br72	Br	0.755772	-0.417327	-0.896235
Br73	Br	0.969806	-0.752035	-0.237952
H74	H	0.819680	-0.329510	-0.554490
Br75	Br	0.806464	-1.115576	-0.401199
H76	H	0.819687	-0.329474	-0.673195
Br77	Br	1.004280	-0.893324	-0.203604
Br78	Br	0.771977	-0.974277	-0.435538
Br79	Br	0.311821	-0.417225	-0.185875
Br80	Br	0.258254	-0.570422	-0.419355
Br81	Br	0.799192	-0.298065	-1.093328
H82	H	0.974720	-1.089844	-0.233232
H83	H	0.786258	-0.421224	-0.759942
H84	H	0.819700	-0.329383	-0.958121
Br85	Br	0.977124	-0.569994	-1.104305
Br86	Br	0.977119	-0.570035	-0.950074
H87	H	0.990064	-0.446948	-0.879819
Br88	Br	0.114893	-0.297997	-0.219942
H89	H	0.990061	-0.446980	-0.761116
Br90	Br	0.466052	-0.417275	-0.185820
H91	H	0.956617	-0.538796	-0.681650
H92	H	0.645373	-0.539168	-0.396249
Br93	Br	0.507651	-0.570486	-0.419269
Br94	Br	0.977094	-0.570171	-0.546438
Br95	Br	0.518524	-0.298115	-0.219804
Br96	Br	0.310729	-0.451268	-0.453333
H97	H	0.653743	-0.329511	-0.242727
H98	H	0.123037	-0.539004	-0.396440
Br99	Br	0.269124	-0.298044	-0.219890
