data_functionalizedCrystal
_audit_creation_method	'MofGen! by Chris Wilmer'
_symmetry_space_group_name_H-M	'P1'
_symmetry_Int_Tables_number	1
_symmetry_cell_setting	triclinic
loop_
_symmetry_equiv_pos_as_xyz
  x,y,z
_cell_length_a	15.995350
_cell_length_b	11.026607
_cell_length_c	10.065875
_cell_angle_alpha	79.268236
_cell_angle_beta	98.743618
_cell_angle_gamma	96.039196
loop_
_atom_site_label
_atom_site_type_symbol
_atom_site_fract_x
_atom_site_fract_y
_atom_site_fract_z
O1	O	-1.144114	-0.138601	-0.113371
O2	O	-0.644114	0.361399	0.386629
O3	O	-0.903252	-0.157912	-0.113398
O4	O	-0.403252	0.342088	0.386602
O5	O	-1.003720	0.028396	-0.113382
O6	O	-0.503720	0.528396	0.386618
O7	O	-1.043646	-0.324909	-0.113387
O8	O	-0.543646	0.175091	0.386613
O9	O	-0.984584	-0.007273	0.113604
O10	O	-0.484584	0.492727	0.613604
O11	O	-0.884116	-0.193581	0.113587
O12	O	-0.384116	0.306419	0.613587
O13	O	-1.124978	-0.174270	0.113615
O14	O	-0.624978	0.325730	0.613615
Zn15	Zn	-1.001509	-0.189589	0.149640
Zn16	Zn	-0.501509	0.310411	0.649640
Zn17	Zn	-1.026722	-0.142593	-0.149423
Zn18	Zn	-0.526722	0.357407	0.350577
O19	O	-1.024510	-0.360578	0.113598
O20	O	-0.524510	0.139422	0.613598
C21	C	-0.862369	-0.174948	0.000091
C22	C	-0.362369	0.325052	0.500091
C23	C	-0.769059	-0.172552	0.000080
C24	C	-0.269059	0.327448	0.500080
C25	C	-1.165861	-0.157234	0.000123
C26	C	-0.665861	0.342766	0.500123
C27	C	-1.259172	-0.159628	0.000124
C28	C	-0.759172	0.340372	0.500124
C29	C	-0.986787	0.055773	0.000108
C30	C	-0.486787	0.555773	0.500108
C31	C	-0.964831	0.190488	0.000101
C32	C	-0.464831	0.690488	0.500101
C33	C	-0.430013	-0.163959	0.000109
C34	C	0.069987	0.336041	0.500109
C35	C	-0.457405	-0.031352	0.000617
C36	C	0.042595	0.468648	0.500617
C37	C	-0.554500	-0.033664	0.000096
C38	C	-0.054500	0.466336	0.500096
C39	C	-0.598218	-0.168221	0.000096
C40	C	-0.098218	0.331779	0.500096
C41	C	-0.577923	-0.213299	-0.129520
C42	C	-0.077923	0.286701	0.370480
C43	C	-0.480793	-0.209950	-0.129619
C44	C	0.019207	0.290050	0.370381
C45	C	-0.459105	-0.253254	0.128506
C46	C	0.040895	0.246746	0.628506
C47	C	-0.555902	-0.253491	0.130210
C48	C	-0.055902	0.246509	0.630210
C49	C	-0.693281	-0.170637	0.000083
C50	C	-0.193281	0.329363	0.500083
C51	C	-0.334952	-0.161546	0.000112
C52	C	0.165048	0.338454	0.500112
C53	C	-1.041443	-0.387955	0.000105
C54	C	-0.541443	0.112045	0.500105
C55	C	-1.063400	-0.522668	0.000103
C56	C	-0.563400	-0.022668	0.500103
N57	N	-0.984307	-0.221661	0.353743
N58	N	-0.484307	0.278339	0.853743
C59	C	-1.025457	0.264293	0.000106
C60	C	-0.525457	0.764293	0.500106
C61	C	-1.002765	0.403528	0.000098
C62	C	-0.502765	0.903528	0.500098
N63	N	-1.043928	-0.110511	-0.353526
N64	N	-0.543928	0.389489	0.146474
C65	C	-1.020730	-0.153745	0.421527
C66	C	-0.520730	0.346255	0.921527
C67	C	-1.007500	-0.178438	0.578693
C68	C	-0.507500	0.321562	1.078693
H69	H	-0.567342	0.003179	0.093010
H70	H	-0.067342	0.503179	0.593010
Cl71	Cl	-0.858756	0.252070	0.000075
Cl72	Cl	-0.358756	0.752070	0.500075
Cl73	Cl	-1.169482	0.415762	0.000109
Cl74	Cl	-0.669482	0.915762	0.500109
H75	H	-1.084905	-0.034075	0.588160
H76	H	-0.584905	0.465925	1.088160
Cl77	Cl	-1.083769	-0.035472	0.331497
Cl78	Cl	-0.583769	0.464528	0.831497
Cl79	Cl	-0.944223	-0.296438	0.668719
Cl80	Cl	-0.444223	0.203562	1.168719
H81	H	-0.934059	0.443417	0.000082
H82	H	-0.434059	0.943417	0.500082
Cl83	Cl	-0.921033	-0.339656	0.443774
Cl84	Cl	-0.421033	0.160344	0.943774
H85	H	-0.423749	-0.225314	0.226752
H86	H	0.076251	0.274686	0.726752
Cl87	Cl	-0.404361	0.027986	0.144129
Cl88	Cl	0.095639	0.527986	0.644129
H89	H	-0.463459	-0.146999	-0.226509
H90	H	0.036541	0.353001	0.273491
H91	H	-0.437647	0.035968	-0.091821
H92	H	0.062353	0.535968	0.408179
Cl93	Cl	-0.574356	-0.202872	0.278256
Cl94	Cl	-0.074356	0.297128	0.778256
Cl95	Cl	-0.597621	0.068568	-0.143850
Cl96	Cl	-0.097621	0.568568	0.356150
H97	H	-0.463723	-0.306443	-0.135502
H98	H	0.036277	0.193557	0.364498
Cl99	Cl	-0.623388	-0.364738	-0.136997
Cl100	Cl	-0.123388	0.135262	0.363003
H101	H	-0.607578	-0.152685	-0.225982
H102	H	-0.107578	0.347315	0.274018
H103	H	-0.585397	-0.352844	0.138038
H104	H	-0.085397	0.147156	0.638038
Cl105	Cl	-1.131533	0.202714	0.000110
Cl106	Cl	-0.631533	0.702714	0.500110
Cl107	Cl	-0.432721	-0.404507	0.129861
Cl108	Cl	0.067279	0.095493	0.629861
