data_functionalizedCrystal
_audit_creation_method	'MofGen! by Chris Wilmer'
_symmetry_space_group_name_H-M	'P1'
_symmetry_Int_Tables_number	1
_symmetry_cell_setting	triclinic
loop_
_symmetry_equiv_pos_as_xyz
  x,y,z
_cell_length_a	12.645331
_cell_length_b	18.050589
_cell_length_c	12.645331
_cell_angle_alpha	89.999012
_cell_angle_beta	89.999107
_cell_angle_gamma	90.027456
loop_
_atom_site_label
_atom_site_type_symbol
_atom_site_fract_x
_atom_site_fract_y
_atom_site_fract_z
Zn1	Zn	1.620480	-0.295863	0.599245
Zn2	Zn	2.120480	0.204137	1.099245
Zn3	Zn	1.620380	-0.420004	0.421984
Zn4	Zn	2.120380	0.079996	0.921984
Zn5	Zn	1.443246	-0.295831	0.422011
Zn6	Zn	1.943246	0.204169	0.922011
Zn7	Zn	1.443143	-0.420014	0.599220
Zn8	Zn	1.943143	0.079986	1.099220
O9	O	1.531812	-0.357928	0.510615
O10	O	2.031812	0.142072	1.010615
O11	O	1.768814	-0.312340	0.575730
O12	O	2.268814	0.187660	1.075730
O13	O	1.596884	-0.403515	0.273640
O14	O	2.096884	0.096485	0.773640
O15	O	1.466840	-0.191910	0.445544
O16	O	1.966840	0.308090	0.945544
O17	O	1.768741	-0.403546	0.445497
O18	O	2.268741	0.096454	0.945497
O19	O	1.597053	-0.191934	0.575757
O20	O	2.097053	0.308066	1.075757
O21	O	1.466744	-0.312286	0.273660
O22	O	1.966744	0.187714	0.773660
O23	O	1.294885	-0.312295	0.445520
O24	O	1.794885	0.187705	0.945520
O25	O	1.466666	-0.403562	0.747571
O26	O	1.966666	0.096438	1.247571
O27	O	1.294810	-0.403531	0.575714
O28	O	1.794810	0.096469	1.075714
O29	O	1.596954	-0.312349	0.747589
O30	O	2.096954	0.187651	1.247589
O31	O	1.596785	-0.523930	0.445473
O32	O	2.096785	-0.023930	0.945473
O33	O	1.466570	-0.523937	0.575688
O34	O	1.966570	-0.023937	1.075688
C35	C	1.256382	-0.357911	0.510618
C36	C	1.756382	0.142089	1.010618
C37	C	1.138552	-0.357922	0.510644
C38	C	1.638552	0.142078	1.010644
C39	C	0.970977	-0.415633	0.592123
C40	C	1.470977	0.084367	1.092123
C41	C	1.093537	-0.415447	0.592463
C42	C	1.593537	0.084553	1.092463
C43	C	1.094086	-0.279712	0.541167
C44	C	1.594086	0.220288	1.041167
C45	C	0.971488	-0.280064	0.541741
C46	C	1.471488	0.219936	1.041741
C47	C	0.971334	-0.377790	0.398385
C48	C	1.471334	0.122210	0.898385
C49	C	1.093939	-0.379501	0.398990
C50	C	1.593939	0.120499	0.898990
C51	C	1.531684	-0.550880	0.510598
C52	C	2.031684	-0.050880	1.010598
C53	C	1.531726	-0.633426	0.510626
C54	C	2.031726	-0.133426	1.010626
C55	C	1.460985	-0.832907	0.581412
C56	C	1.960985	-0.332907	1.081412
C57	C	1.435166	-0.882318	0.484680
C58	C	1.935166	-0.382318	0.984680
C59	C	1.531831	-0.784556	0.510639
C60	C	2.031831	-0.284556	1.010639
C61	C	1.557701	-0.882227	0.607382
C62	C	2.057701	-0.382227	1.107382
C63	C	1.531929	-0.930541	0.510661
C64	C	2.031929	-0.430541	1.010661
C65	C	1.505961	-0.832880	0.413857
C66	C	2.005961	-0.332880	0.913857
C67	C	1.628541	-0.832784	0.536624
C68	C	2.128541	-0.332784	1.036624
C69	C	1.602759	-0.882173	0.439825
C70	C	2.102759	-0.382173	0.939825
C71	C	1.531771	-0.700458	0.510628
C72	C	2.031771	-0.200458	1.010628
C73	C	1.531989	-1.014638	0.510662
C74	C	2.031989	-0.514638	1.010662
C75	C	1.808317	-0.357945	0.510613
C76	C	2.308317	0.142055	1.010613
C77	C	1.926147	-0.357953	0.510612
C78	C	2.426147	0.142047	1.010612
C79	C	1.531810	-0.357960	0.787120
C80	C	2.031810	0.142040	1.287120
C81	C	1.531809	-0.357973	0.904950
C82	C	2.031809	0.142027	1.404950
C83	C	1.531969	-0.164222	0.510656
C84	C	2.031969	0.335778	1.010656
C85	C	1.532037	-0.081676	0.510673
C86	C	2.032037	0.418324	1.010673
C87	C	1.449543	-0.415139	1.072503
C88	C	1.949543	0.084861	1.572503
C89	C	1.449794	-0.415382	0.949943
C90	C	1.949794	0.084618	1.449943
C91	C	1.643490	-0.379228	0.949456
C92	C	2.143490	0.120772	1.449456
C93	C	1.643003	-0.379626	1.072055
C94	C	2.143003	0.120374	1.572055
C95	C	1.503340	-0.279356	1.072153
C96	C	2.003340	0.220644	1.572153
C97	C	1.500883	-0.279787	0.949547
C98	C	2.000883	0.220213	1.449547
C99	C	1.531802	-0.357924	1.235185
C100	C	2.031802	0.142076	1.735185
C101	C	1.531791	-0.357943	1.117355
C102	C	2.031791	0.142057	1.617355
H103	H	0.941835	-0.235549	0.485094
H104	H	1.441835	0.264451	0.985094
H105	H	1.124792	-0.262574	0.622321
H106	H	1.624792	0.237426	1.122321
H107	H	1.122865	-0.402321	0.675620
H108	H	1.622865	0.097679	1.175620
H109	H	1.668043	-0.436055	0.918764
H110	H	2.168043	0.063945	1.418764
H111	H	0.940165	-0.402677	0.674795
H112	H	1.440165	0.097323	1.174795
H113	H	1.556431	-0.234898	0.918919
H114	H	2.056431	0.265102	1.418919
H115	H	1.423303	-0.260004	1.103067
H116	H	1.923303	0.239996	1.603067
H117	H	1.662713	-0.903669	0.379916
H118	H	2.162713	-0.403669	0.879916
H119	H	1.563246	-0.236740	1.101160
H120	H	2.063246	0.263260	1.601160
H121	H	1.123014	-0.437052	0.375970
H122	H	1.623014	0.062948	0.875970
H123	H	1.667125	-0.437073	1.100662
H124	H	2.167125	0.062927	1.600662
H125	H	1.366977	-0.402081	0.919851
H126	H	1.866977	0.097919	1.419851
H127	H	1.123599	-0.473445	0.573334
H128	H	1.623599	0.026555	1.073334
H129	H	1.353428	-0.904092	0.462723
H130	H	1.853428	-0.404092	0.962723
H131	H	0.940406	-0.433846	0.370642
H132	H	1.440406	0.066154	0.870642
H133	H	1.468592	-0.473622	0.920626
H134	H	1.968592	0.026378	1.420626
H135	H	1.579543	-0.903902	0.689187
H136	H	2.079543	-0.403902	1.189187
H137	H	1.400985	-0.811274	0.641177
H138	H	1.900985	-0.311274	1.141177
H139	H	1.418695	-0.263759	0.920458
H140	H	1.918695	0.236241	1.420458
H141	H	0.942893	-0.263233	0.623784
H142	H	1.442893	0.236767	1.123784
H143	H	1.484025	-0.811294	0.332029
H144	H	1.984025	-0.311294	0.832029
H145	H	0.941475	-0.473823	0.573205
H146	H	1.441475	0.026177	1.073205
H147	H	1.710261	-0.811012	0.558628
H148	H	2.210261	-0.311012	1.058628
H149	H	1.706432	-0.338867	0.920314
H150	H	2.206432	0.161133	1.420314
H151	H	1.366464	-0.401985	1.101987
H152	H	1.866464	0.098015	1.601987
H153	H	1.468140	-0.473035	1.103319
H154	H	1.968140	0.026965	1.603319
H155	H	1.123247	-0.235569	0.483653
H156	H	1.623247	0.264431	0.983653
H157	H	1.124585	-0.340534	0.335001
H158	H	1.624585	0.159466	0.835001
H159	H	0.942346	-0.335776	0.337652
H160	H	1.442346	0.164224	0.837652
H161	H	1.706363	-0.339775	1.101726
H162	H	2.206363	0.160225	1.601726
