data_functionalizedCrystal
_audit_creation_method	'MofGen! by Chris Wilmer'
_symmetry_space_group_name_H-M	'P1'
_symmetry_Int_Tables_number	1
_symmetry_cell_setting	triclinic
loop_
_symmetry_equiv_pos_as_xyz
  x,y,z
_cell_length_a	17.077404
_cell_length_b	21.295417
_cell_length_c	17.077395
_cell_angle_alpha	89.968068
_cell_angle_beta	89.984359
_cell_angle_gamma	90.030732
loop_
_atom_site_label
_atom_site_type_symbol
_atom_site_fract_x
_atom_site_fract_y
_atom_site_fract_z
Zn1	Zn	1.199983	-0.250613	-0.443817
Zn2	Zn	1.199882	-0.355884	-0.312540
Zn3	Zn	1.068724	-0.250633	-0.312565
Zn4	Zn	1.068665	-0.355849	-0.443764
O5	O	1.134314	-0.303245	-0.378171
O6	O	1.309817	-0.264584	-0.426415
O7	O	1.182465	-0.341945	-0.202697
O8	O	1.086203	-0.162541	-0.330008
O9	O	1.309742	-0.341926	-0.329966
O10	O	1.182638	-0.162526	-0.426439
O11	O	1.086104	-0.264618	-0.202715
O12	O	0.958869	-0.264584	-0.329957
O13	O	1.086103	-0.341866	-0.553618
O14	O	0.958826	-0.341885	-0.426348
O15	O	1.182582	-0.264550	-0.553657
O16	O	1.182409	-0.443969	-0.329915
O17	O	1.086005	-0.443943	-0.426324
C18	C	0.930366	-0.303233	-0.378150
C19	C	0.843116	-0.303244	-0.378159
C20	C	0.802124	-0.343555	-0.428270
C21	C	0.720143	-0.343557	-0.428282
C22	C	0.679156	-0.303249	-0.378180
C23	C	0.720154	-0.262933	-0.328067
C24	C	0.802133	-0.262929	-0.328059
C25	C	0.549284	-0.262945	-0.328086
C26	C	0.467299	-0.262950	-0.328093
C27	C	0.467294	-0.343573	-0.428309
C28	C	0.549273	-0.343569	-0.428301
C29	C	0.590265	-0.303254	-0.378187
C30	C	1.134211	-0.466796	-0.378128
C31	C	1.134238	-0.536765	-0.378136
C32	C	1.184481	-0.569624	-0.327987
C33	C	1.184517	-0.635366	-0.328004
C34	C	1.134298	-0.668247	-0.378163
C35	C	1.084052	-0.635380	-0.428321
C36	C	1.084023	-0.569639	-0.428308
N37	N	1.065629	-0.771513	-0.384140
N38	N	1.065659	-0.833964	-0.384148
C39	C	1.134386	-0.866322	-0.378208
N40	N	1.203082	-0.833868	-0.372244
N41	N	1.203051	-0.771411	-0.372231
C42	C	1.134325	-0.739532	-0.378183
C43	C	1.184672	-0.970466	-0.328075
C44	C	1.184710	-1.036210	-0.328098
C45	C	1.084238	-1.036223	-0.428411
C46	C	1.084207	-0.970480	-0.428392
C47	C	1.134423	-0.937606	-0.378220
C48	C	1.339058	-0.303257	-0.378194
C49	C	1.426308	-0.303262	-0.378203
C50	C	1.134347	-0.303202	-0.582916
C51	C	1.134362	-0.303184	-0.670166
C52	C	1.134438	-0.139055	-0.378232
C53	C	1.134491	-0.069086	-0.378258
C54	C	1.184685	-0.262840	-1.046002
C55	C	1.184669	-0.262862	-0.964021
C56	C	1.134426	-0.303124	-0.923015
C57	C	1.084202	-0.343372	-0.963993
C58	C	1.084222	-0.343352	-1.045972
C59	C	1.084161	-0.343408	-0.793123
C60	C	1.084139	-0.343427	-0.711138
C61	C	1.184608	-0.262918	-0.711172
C62	C	1.184628	-0.262898	-0.793151
C63	C	1.134403	-0.303145	-0.834124
C64	C	1.134325	-0.303242	-0.174224
C65	C	1.134463	-0.303083	-0.086974
H66	H	0.835508	-0.230100	-0.287258
H67	H	1.225537	-0.230110	-0.826537
H68	H	0.686776	-0.230111	-0.287276
H69	H	1.043292	-0.943724	-0.469225
H70	H	1.225371	-0.542859	-0.287136
H71	H	0.835490	-0.376381	-0.469066
H72	H	1.225564	-0.943699	-0.287224
H73	H	1.043352	-1.062994	-0.469255
H74	H	1.225433	-0.662125	-0.287167
H75	H	1.225567	-0.230094	-0.930665
H76	H	1.043327	-0.376123	-1.079331
H77	H	0.433915	-0.376398	-0.469116
H78	H	0.686771	-0.376383	-0.469086
H79	H	1.043165	-0.662156	-0.469162
H80	H	1.225502	-0.230146	-0.677809
H81	H	1.043209	-0.376198	-0.677753
H82	H	1.043264	-0.376183	-0.826480
H83	H	0.582643	-0.376395	-0.469094
H84	H	0.433930	-0.230121	-0.287304
H85	H	1.225594	-0.230049	-1.079384
H86	H	1.225628	-1.062963	-0.287263
H87	H	1.043297	-0.376157	-0.930599
H88	H	0.582657	-0.230111	-0.287285
H89	H	1.043109	-0.542884	-0.469146
