data_functionalizedCrystal
_audit_creation_method	'MofGen! by Chris Wilmer'
_symmetry_space_group_name_H-M	'P1'
_symmetry_Int_Tables_number	1
_symmetry_cell_setting	triclinic
loop_
_symmetry_equiv_pos_as_xyz
  x,y,z
_cell_length_a	14.628931
_cell_length_b	20.875641
_cell_length_c	20.875641
_cell_angle_alpha	60.089808
_cell_angle_beta	90.001412
_cell_angle_gamma	62.439816
loop_
_atom_site_label
_atom_site_type_symbol
_atom_site_fract_x
_atom_site_fract_y
_atom_site_fract_z
Zr1	Zr	0.922464	0.694345	-0.105770
O2	O	0.788502	0.820586	-0.209034
O3	O	0.958518	0.563090	-0.070838
O4	O	0.971980	0.687113	-0.204310
O5	O	0.770122	0.704016	0.025997
O6	O	1.122412	0.687113	-0.204310
O7	O	0.775040	0.696562	-0.075562
O8	O	1.098331	0.465258	0.034447
O9	O	0.794204	0.925871	-0.212760
O10	O	1.092216	0.618934	-0.059897
O11	O	0.976280	0.624497	0.015895
O12	O	0.992130	0.770518	-0.141251
O13	O	0.876194	0.776081	-0.065459
Zr14	Zr	1.154543	0.706232	0.056206
Zr15	Zr	1.162385	0.694345	-0.105769
Zr16	Zr	0.914621	0.706233	0.056206
Zr17	Zr	0.931557	0.862263	-0.111712
Zr18	Zr	1.145449	0.538314	0.062148
O19	O	1.118488	0.837487	0.021274
O20	O	1.129640	0.820585	-0.209034
O21	O	0.777350	0.837488	0.021274
O22	O	1.288504	0.579992	0.159470
O23	O	1.299656	0.563089	-0.070838
O24	O	0.947366	0.579992	0.159470
O25	O	1.306884	0.696561	-0.075561
O26	O	1.105026	0.713464	0.154746
O27	O	0.954594	0.713464	0.154746
O28	O	1.301966	0.704015	0.025998
O29	O	0.984910	0.925870	-0.212760
O30	O	1.092097	0.474707	0.163196
O31	O	1.282803	0.474706	0.163196
O32	O	1.289037	0.465258	0.034447
O33	O	0.787970	0.935320	-0.084011
O34	O	0.978675	0.935319	-0.084011
O35	O	1.084876	0.630059	0.091688
O36	O	1.200812	0.624496	0.015895
O37	O	1.100726	0.776080	-0.065459
O38	O	0.984790	0.781643	0.010334
C39	C	1.027129	0.490249	-0.017349
C40	C	1.023268	0.418964	-0.014826
C41	C	1.081969	0.382570	-0.053204
C42	C	1.078344	0.315586	-0.050826
C43	C	1.016012	0.285000	-0.010075
C44	C	0.957309	0.321397	0.028308
C45	C	0.960941	0.388376	0.025934
C46	C	0.998667	0.084989	0.001271
C47	C	0.995037	0.018007	0.003640
C48	C	1.116074	0.012199	-0.075493
C49	C	1.119695	0.079183	-0.077867
C50	C	1.060997	0.115571	-0.039481
N51	N	1.012302	0.216533	-0.007645
N52	N	1.064713	0.184032	-0.041906
C53	C	0.738397	0.700289	-0.024782
C54	C	0.636544	0.700289	-0.024782
C55	C	0.640784	0.625094	0.015575
C56	C	0.535515	0.625092	0.015576
C57	C	1.338609	0.700288	-0.024782
C58	C	1.440462	0.700288	-0.024781
C59	C	1.048313	0.685419	-0.227388
C60	C	1.051643	0.680373	-0.296151
C61	C	1.049878	0.910328	-0.032215
C62	C	1.053738	0.981613	-0.034738
C63	C	1.000965	0.757125	-0.370921
C64	C	1.004108	0.752378	-0.435528
C65	C	1.057922	0.670878	-0.425363
C66	C	1.108606	0.594120	-0.350585
C67	C	1.105470	0.598868	-0.285979
C68	C	1.072911	0.648194	-0.614029
C69	C	1.076041	0.643452	-0.678642
C70	C	0.971544	0.801711	-0.763582
C71	C	0.968406	0.806451	-0.698971
C72	C	1.019095	0.729693	-0.624199
N73	N	1.061133	0.666024	-0.491401
N74	N	1.015891	0.734548	-0.558163
C75	C	1.028693	0.715158	0.177824
C76	C	1.025363	0.720204	0.246587
C77	C	1.327234	0.490249	-0.017348
C78	C	1.425227	0.418963	-0.014826
C79	C	1.017318	0.505119	0.185257
C80	C	1.010128	0.438880	0.256543
C81	C	1.317424	0.505118	0.185258
C82	C	1.412087	0.438879	0.256543
C83	C	0.759582	0.895459	-0.234822
C84	C	0.664919	0.961698	-0.306107
C85	C	0.749772	0.910329	-0.032215
C86	C	0.651779	0.981614	-0.034738
C87	C	1.059688	0.895459	-0.234821
C88	C	1.066878	0.961698	-0.306107
C89	C	1.414560	0.382583	-0.053210
C90	C	1.506627	0.315610	-0.050855
C91	C	1.609359	0.285016	-0.010110
C92	C	1.620024	0.321403	0.028275
C93	C	1.527959	0.388378	0.025915
C94	C	1.063438	0.410677	0.329589
C95	C	1.056678	0.348448	0.396575
C96	C	0.996615	0.314419	0.390514
C97	C	0.943299	0.342627	0.317460
C98	C	0.950053	0.404860	0.250475
C99	C	1.517069	0.404869	0.250457
C100	C	1.606025	0.342639	0.317431
C101	C	1.589997	0.314416	0.390490
C102	C	1.485004	0.348432	0.396575
C103	C	1.396050	0.410666	0.329602
C104	C	0.559937	0.995717	-0.300021
C105	C	0.470982	1.057967	-0.366996
C106	C	0.487011	1.086194	-0.440055
C107	C	0.592004	1.052173	-0.446140
C108	C	0.680957	0.989928	-0.379166
C109	C	0.662447	1.018001	0.003640
C110	C	0.570382	1.084991	0.001266
C111	C	0.467650	1.115588	-0.039481
C112	C	0.456985	1.079198	-0.077864
C113	C	0.549049	1.012214	-0.075495
C114	C	1.126950	0.995708	-0.300020
C115	C	1.133727	1.057938	-0.366994
C116	C	1.080424	1.086161	-0.440054
C117	C	1.020350	1.052145	-0.446138
C118	C	1.013580	0.989911	-0.379165
H119	H	1.170451	0.104084	-0.111050
C120	C	0.542279	0.964686	-0.219662
N121	N	0.528971	0.941322	-0.159137
C122	C	0.750972	0.538120	0.062248
N123	N	0.833966	0.472608	0.097402
C124	C	1.167800	0.504469	-0.339405
N125	N	1.212381	0.436941	-0.330982
H126	H	1.182643	1.085628	-0.362024
H127	H	0.579087	1.114609	0.032525
H128	H	0.924589	0.872818	-0.707257
C129	C	1.733040	0.287732	0.073099
N130	N	1.818165	0.262364	0.106865
C131	C	1.534728	0.435907	0.170097
N132	N	1.548037	0.459285	0.109572
H133	H	0.385501	1.085657	-0.362026
H134	H	1.536659	0.417991	0.057178
H135	H	1.112347	0.438378	0.334539
H136	H	1.085945	1.136837	-0.494581
H137	H	0.894396	0.314911	0.312536
C138	C	1.185600	0.964669	-0.219661
N139	N	1.229785	0.941291	-0.159135
H140	H	0.373328	1.104120	-0.111040
H141	H	0.540347	0.982589	-0.106745
C142	C	1.161217	0.514434	-0.203729
N143	N	1.203209	0.450835	-0.141777
C144	C	0.961767	1.083168	-0.526511
N145	N	0.917654	1.106527	-0.587049
C146	C	1.142891	0.275575	-0.093066
N147	N	1.191502	0.245447	-0.124890
C148	C	1.115345	0.317422	0.476927
N149	N	1.159538	0.294053	0.537446
H150	H	1.684315	0.230479	-0.008194
C151	C	0.989207	0.245953	0.464207
N152	N	0.983638	0.194381	0.519716
C153	C	1.721508	0.305223	0.310721
N154	N	1.808487	0.277041	0.305664
C155	C	0.915799	0.886139	-0.845834
N156	N	0.873815	0.949734	-0.907788
H157	H	0.964658	0.962227	-0.384132
H158	H	1.119862	0.577081	-0.670357
C159	C	1.687860	0.245950	0.464156
N160	N	1.761575	0.194378	0.519639
H161	H	0.392694	1.170131	-0.041404
C162	C	0.934135	0.124981	0.043525
N163	N	0.885540	0.155095	0.075364
C164	C	1.467390	0.317371	0.476949
N165	N	1.454126	0.293967	0.537488
H166	H	0.906645	0.427813	0.191000
H167	H	0.414570	1.136878	-0.494583
C168	C	0.435780	0.787266	-0.071463
N169	N	0.432261	0.852779	-0.106622
H170	H	1.132721	0.407472	-0.086392
H171	H	1.163865	-0.017435	-0.106744
H172	H	0.538971	0.560714	0.050121
H173	H	1.310572	0.438349	0.334568
H174	H	0.944274	-0.006891	0.036824
H175	H	0.957136	0.823492	-0.379208
C176	C	0.948309	0.836813	-0.517777
N177	N	0.906263	0.900412	-0.579728
C178	C	0.609617	1.083223	-0.526513
N179	N	0.622880	1.106606	-0.587052
H180	H	0.554980	0.764666	-0.059331
H181	H	0.766436	0.962230	-0.384131
H182	H	0.913138	0.418009	0.057183
C183	C	1.128660	0.563757	-0.531786
N184	N	1.170650	0.500155	-0.469837
H185	H	1.330919	0.407491	-0.086399
H186	H	1.497921	0.285992	-0.082114
H187	H	0.906563	0.296485	0.061493
H188	H	0.746088	0.993095	0.036826
