data_functionalizedCrystal
_audit_creation_method	'MofGen! by Chris Wilmer'
_symmetry_space_group_name_H-M	'P1'
_symmetry_Int_Tables_number	1
_symmetry_cell_setting	triclinic
loop_
_symmetry_equiv_pos_as_xyz
  x,y,z
_cell_length_a	14.519709
_cell_length_b	15.538191
_cell_length_c	14.750135
_cell_angle_alpha	82.421981
_cell_angle_beta	77.334344
_cell_angle_gamma	114.523881
loop_
_atom_site_label
_atom_site_type_symbol
_atom_site_fract_x
_atom_site_fract_y
_atom_site_fract_z
O1	O	-0.326211	-1.269810	0.079837
O2	O	-0.219786	-0.995731	0.079838
O3	O	-0.409679	-1.140035	0.079829
O4	O	-0.136319	-1.125506	0.079846
O5	O	-0.355976	-1.099220	-0.079835
O6	O	-0.166084	-0.954916	-0.079825
O7	O	-0.272509	-1.228995	-0.079827
Zn8	Zn	-0.210770	-1.085476	-0.105176
Zn9	Zn	-0.281525	-1.139251	0.105187
O10	O	-0.082617	-1.084691	-0.079817
C11	C	-0.416959	-1.118950	-0.000003
C12	C	-0.518658	-1.116921	-0.000004
C13	C	-0.181800	-0.940247	0.000007
C14	C	-0.148633	-0.835729	0.000007
C15	C	-0.310496	-1.284480	0.000007
C16	C	-0.343665	-1.388999	0.000013
C17	C	-0.891049	-1.109455	0.000021
C18	C	-0.787436	-1.111528	0.000014
C19	C	-0.704856	-1.113187	0.000008
C20	C	-0.601238	-1.115261	0.000003
C21	C	-0.075337	-1.105776	0.000017
C22	C	0.026360	-1.107808	0.000024
N23	N	-0.162484	-1.048782	-0.248743
C24	C	-0.478139	-0.547382	0.000001
C25	C	-0.446951	-0.449169	0.000004
C26	C	-0.271524	-0.427025	0.000015
C27	C	-0.302696	-0.525236	0.000007
C28	C	-0.406005	-0.585408	0.000002
C29	C	-0.230562	-0.563262	0.000008
C30	C	-0.261733	-0.661466	0.000005
C31	C	-0.365039	-0.721645	0.000003
C32	C	-0.437177	-0.683612	-0.000001
C33	C	-0.127256	-0.503090	0.000020
C34	C	-0.055122	-0.541116	0.000021
C35	C	-0.086290	-0.639321	0.000012
C36	C	-0.189596	-0.699499	0.000009
C37	C	-0.014152	-0.677353	0.000015
C38	C	-0.045324	-0.775557	0.000013
C39	C	-0.220767	-0.797703	0.000006
C40	C	-0.464576	-1.278412	-0.600488
C41	C	-0.430768	-1.252703	-0.700995
C42	C	-0.262639	-1.124882	-0.700999
C43	C	-0.296431	-1.150584	-0.600490
C44	C	-0.397400	-1.227349	-0.550242
C45	C	-0.229255	-1.099521	-0.550244
C46	C	-0.263047	-1.125217	-0.449743
C47	C	-0.364013	-1.201977	-0.399488
C48	C	-0.431192	-1.253045	-0.449741
C49	C	-0.128289	-1.022752	-0.600493
C50	C	-0.061114	-0.971688	-0.550247
C51	C	-0.094902	-0.997389	-0.449745
C52	C	-0.195868	-1.074149	-0.399490
C53	C	-0.027723	-0.946321	-0.399491
C54	C	-0.061515	-0.972017	-0.298991
C55	C	-0.229660	-1.099845	-0.298989
N56	N	-0.329821	-1.175951	0.248755
H57	H	-0.304890	-0.846697	-0.000004
H58	H	-0.100782	-1.001830	-0.682327
Br59	Br	-0.521954	-1.322010	-0.769180
Br60	Br	-0.407351	-0.854927	0.000009
H61	H	-0.521299	-0.732606	-0.000011
Br62	Br	0.029651	-0.902710	-0.230797
Br63	Br	-0.618341	-0.629049	-0.000023
H64	H	-0.505700	-0.418215	0.000005
H65	H	-0.180430	-1.062377	-0.741922
Br66	Br	0.109294	-0.842131	-0.467694
H67	H	-0.187411	-0.378021	0.000023
H68	H	0.021096	-0.909183	-0.591170
H69	H	-0.391527	-1.222895	-0.317654
Br70	Br	-0.084952	-0.369812	0.000027
H71	H	0.028992	-0.492113	0.000029
H72	H	0.069959	-0.628350	0.000029
H73	H	-0.546791	-1.340928	-0.559575
H74	H	0.013418	-0.806516	0.000004
H75	H	-0.311875	-1.162362	-0.258076
H76	H	-0.513407	-1.315561	-0.408828
