data_functionalizedCrystal
_audit_creation_method	'MofGen! by Chris Wilmer'
_symmetry_space_group_name_H-M	'P1'
_symmetry_Int_Tables_number	1
_symmetry_cell_setting	triclinic
loop_
_symmetry_equiv_pos_as_xyz
  x,y,z
_cell_length_a	6.817900
_cell_length_b	17.284672
_cell_length_c	9.514088
_cell_angle_alpha	88.447654
_cell_angle_beta	118.843545
_cell_angle_gamma	103.040903
loop_
_atom_site_label
_atom_site_type_symbol
_atom_site_fract_x
_atom_site_fract_y
_atom_site_fract_z
V1	V	-4.205230	-0.110417	-0.486883
O2	O	-4.201791	0.003869	-0.491696
O3	O	-4.143557	-0.217555	-0.470010
O4	O	-4.240126	-0.109349	-0.705408
O5	O	-4.104554	-0.105087	-0.254668
V6	V	-4.679785	-0.096672	-0.460754
O7	O	-4.486162	-0.140566	-0.544200
O8	O	-4.849050	-0.066523	-0.403436
O9	O	-4.518251	0.010466	-0.477627
O10	O	-4.800620	-0.210958	-0.455940
O11	O	-4.897858	-0.102002	-0.692968
O12	O	-4.421682	-0.097740	-0.242228
C13	C	-3.982634	-0.243654	-0.458835
C14	C	-4.014051	-0.331245	-0.446495
C15	C	-4.123779	-0.384061	-0.586303
C16	C	-4.153270	-0.466361	-0.574694
C17	C	-4.073048	-0.495843	-0.423276
C18	C	-3.963305	-0.443021	-0.283458
C19	C	-3.933800	-0.360722	-0.295068
C20	C	-4.151091	-0.740728	-0.372939
C21	C	-4.180611	-0.823033	-0.361339
C22	C	-4.370571	-0.846368	-0.652576
C23	C	-4.341070	-0.764067	-0.664173
C24	C	-4.231319	-0.711251	-0.524355
N25	N	-4.103197	-0.579967	-0.411407
N26	N	-4.201157	-0.627129	-0.536225
C27	C	-4.105816	-0.105625	-0.759107
C28	C	-4.215543	-0.105461	-0.937663
C29	C	-4.342514	0.036561	-0.488797
C30	C	-4.290339	0.124151	-0.501147
C31	C	-4.219331	-0.101467	-0.188521
C32	C	-4.088842	-0.101627	-0.009963
H33	H	-4.189136	-0.360064	-0.709604
H34	H	-3.896427	-0.098478	-0.935263
H35	H	-4.407977	-0.108619	-1.012374
C36	C	-4.273982	-0.524456	-0.728494
N37	N	-4.364907	-0.568213	-0.844344
C38	C	-4.429285	-0.731642	-0.830742
N39	N	-4.495723	-0.707220	-0.956205
C40	C	-4.092341	-0.855460	-0.194761
N41	N	-4.025860	-0.879885	-0.069300
C42	C	-4.030367	-0.682641	-0.219132
N43	N	-3.939429	-0.638886	-0.103278
C44	C	-4.491255	-0.904470	-0.806364
N45	N	-4.582143	-0.948233	-0.922203
H46	H	-3.844441	-0.317719	-0.181221
C47	C	-3.875109	-0.475456	-0.116899
N48	N	-3.808705	-0.499885	0.008556
