data_functionalizedCrystal
_audit_creation_method	'MofGen! by Chris Wilmer'
_symmetry_space_group_name_H-M	'P1'
_symmetry_Int_Tables_number	1
_symmetry_cell_setting	triclinic
loop_
_symmetry_equiv_pos_as_xyz
  x,y,z
_cell_length_a	18.101395
_cell_length_b	12.759401
_cell_length_c	12.759393
_cell_angle_alpha	90.021019
_cell_angle_beta	89.966555
_cell_angle_gamma	89.969961
loop_
_atom_site_label
_atom_site_type_symbol
_atom_site_fract_x
_atom_site_fract_y
_atom_site_fract_z
Zn1	Zn	-0.294807	-1.606136	-0.594038
Zn2	Zn	-0.418669	-1.605980	-0.418353
Zn3	Zn	-0.294843	-1.430438	-0.418370
Zn4	Zn	-0.418609	-1.430376	-0.593986
O5	O	-0.356732	-1.518232	-0.506187
O6	O	-0.311247	-1.753136	-0.570748
O7	O	-0.402283	-1.582654	-0.271334
O8	O	-0.191205	-1.453835	-0.441702
O9	O	-0.402248	-1.753021	-0.441672
O10	O	-0.191179	-1.582920	-0.570764
O11	O	-0.311309	-1.453684	-0.271347
O12	O	-0.311251	-1.283408	-0.441651
O13	O	-0.402146	-1.453730	-0.741014
O14	O	-0.402181	-1.283363	-0.570676
O15	O	-0.311189	-1.582860	-0.741053
O16	O	-0.522294	-1.582594	-0.441622
O17	O	-0.522250	-1.453579	-0.570659
C18	C	-0.356714	-1.245265	-0.506161
C19	C	-0.356724	-1.128488	-0.506174
C20	C	-0.404032	-1.073570	-0.438872
C21	C	-0.404043	-0.963846	-0.438887
C22	C	-0.309433	-0.963968	-0.573511
C23	C	-0.309426	-1.073690	-0.573500
C24	C	-0.451330	-1.128369	-0.371546
C25	C	-0.498640	-1.073450	-0.304237
C26	C	-0.498651	-0.963726	-0.304252
C27	C	-0.451352	-0.908920	-0.371577
C28	C	-0.549142	-1.518092	-0.506156
C29	C	-0.631457	-1.518128	-0.506178
C30	C	-0.930547	-1.518358	-0.506234
C31	C	-0.899225	-1.437374	-0.587623
C32	C	-0.813608	-1.436989	-0.587368
C33	C	-0.782165	-1.518244	-0.506207
C34	C	-0.813324	-1.488263	-0.395481
C35	C	-0.898969	-1.487741	-0.395968
C36	C	-0.898890	-1.629501	-0.534598
C37	C	-0.813239	-1.628847	-0.537026
C38	C	-0.698305	-1.518181	-0.506185
C39	C	-1.014407	-1.518418	-0.506249
C40	C	-0.163570	-1.518402	-0.506241
C41	C	-0.081256	-1.518474	-0.506264
C42	C	-0.356657	-1.518306	-0.780220
C43	C	-0.356625	-1.518337	-0.896997
C44	C	-0.356746	-0.792265	-0.506208
C45	C	-0.356742	-0.909042	-0.506201
C46	C	-0.309260	-1.585584	-0.951881
C47	C	-0.309233	-1.585609	-1.061605
C48	C	-0.403944	-1.451137	-1.061552
C49	C	-0.403966	-1.451108	-0.951830
C50	C	-0.261919	-1.652814	-0.897048
C51	C	-0.214550	-1.720068	-0.951931
C52	C	-0.214523	-1.720093	-1.061656
C53	C	-0.261865	-1.652864	-1.116496
C54	C	-0.356753	-1.518219	-0.233219
C55	C	-0.356576	-1.518392	-0.116443
H56	H	-0.451325	-1.217711	-0.371524
H57	H	-0.442524	-1.396333	-0.907143
H58	H	-0.451370	-0.819576	-0.371591
H59	H	-0.537155	-1.118080	-0.249431
C60	C	-0.261836	-1.652894	-1.237190
H61	H	-0.226848	-1.702576	-1.262026
H62	H	-0.249021	-1.585114	-1.262013
H63	H	-0.309625	-1.671034	-1.261991
H64	H	-0.270923	-0.919336	-0.628322
C65	C	-0.926051	-1.377987	-0.363521
H66	H	-0.884710	-1.334137	-0.350172
H67	H	-0.955308	-1.383362	-0.301929
H68	H	-0.954831	-1.348740	-0.418463
C69	C	-0.456021	-1.377198	-1.121869
H70	H	-0.484231	-1.337137	-1.073466
H71	H	-0.488282	-1.417371	-1.164662
H72	H	-0.427675	-1.331455	-1.164678
H73	H	-0.270903	-1.118405	-0.628301
C74	C	-0.785140	-1.462291	-0.698287
H75	H	-0.825918	-1.472897	-0.743909
H76	H	-0.755836	-1.524036	-0.696151
H77	H	-0.756113	-1.405522	-0.723243
H78	H	-0.919767	-1.455945	-0.669991
C79	C	-0.550690	-0.903319	-0.230219
H80	H	-0.578852	-0.951673	-0.190119
H81	H	-0.582997	-0.860515	-0.270327
H82	H	-0.522319	-0.860513	-0.184517
C83	C	-0.785714	-1.659404	-0.647100
H84	H	-0.755407	-1.604994	-0.674168
H85	H	-0.826843	-1.669653	-0.692154
H86	H	-0.757892	-1.722412	-0.642879
H87	H	-0.920433	-1.656833	-0.613963
C88	C	-0.162476	-1.794010	-0.891612
H89	H	-0.169280	-1.784373	-0.818405
H90	H	-0.112712	-1.778687	-0.909608
H91	H	-0.173323	-1.864598	-0.909601
C92	C	-0.928377	-1.326757	-0.562561
H93	H	-0.959552	-1.329713	-0.502711
H94	H	-0.955616	-1.300947	-0.620704
H95	H	-0.887942	-1.281370	-0.548784
C96	C	-0.786012	-1.325705	-0.561974
H97	H	-0.827146	-1.280558	-0.551763
H98	H	-0.756859	-1.300468	-0.618506
H99	H	-0.757017	-1.327431	-0.499962
H100	H	-0.919692	-1.544168	-0.333260
H101	H	-0.791940	-1.407879	-0.371024
C102	C	-0.785811	-1.565429	-0.311321
H103	H	-0.755000	-1.616736	-0.343040
H104	H	-0.826924	-1.598830	-0.279314
H105	H	-0.758519	-1.528324	-0.259695
H106	H	-0.791832	-1.692377	-0.482068
H107	H	-0.919146	-1.689837	-0.475320
C108	C	-0.261943	-1.652786	-0.776356
H109	H	-0.226962	-1.702449	-0.751558
H110	H	-0.309741	-1.670897	-0.751517
H111	H	-0.249128	-1.584990	-0.751533
C112	C	-0.162420	-1.794065	-1.122025
H113	H	-0.134235	-1.834102	-1.073651
H114	H	-0.130137	-1.753922	-1.164837
H115	H	-0.190750	-1.839828	-1.164820
