data_functionalizedCrystal
_audit_creation_method	'MofGen! by Chris Wilmer'
_symmetry_space_group_name_H-M	'P1'
_symmetry_Int_Tables_number	1
_symmetry_cell_setting	triclinic
loop_
_symmetry_equiv_pos_as_xyz
  x,y,z
_cell_length_a	19.077105
_cell_length_b	14.908520
_cell_length_c	19.077314
_cell_angle_alpha	90.840876
_cell_angle_beta	89.892247
_cell_angle_gamma	91.150228
loop_
_atom_site_label
_atom_site_type_symbol
_atom_site_fract_x
_atom_site_fract_y
_atom_site_fract_z
Zn1	Zn	1.040090	-0.389295	-0.457212
Zn2	Zn	1.540090	0.110705	0.042788
Zn3	Zn	1.037418	-0.545725	-0.346448
Zn4	Zn	1.537418	-0.045725	0.153552
Zn5	Zn	0.927282	-0.389791	-0.335024
Zn6	Zn	1.427282	0.110209	0.164976
Zn7	Zn	0.915807	-0.533627	-0.458681
Zn8	Zn	1.415807	-0.033627	0.041319
O9	O	0.980149	-0.464610	-0.399341
O10	O	1.480149	0.035390	0.100659
O11	O	1.137840	-0.414902	-0.446685
O12	O	1.637840	0.085098	0.053315
O13	O	1.026492	-0.530310	-0.246827
O14	O	1.526492	-0.030310	0.253173
O15	O	0.948166	-0.264063	-0.345837
O16	O	1.448166	0.235937	0.154163
O17	O	1.135877	-0.529830	-0.365307
O18	O	1.635877	-0.029830	0.134693
O19	O	1.031046	-0.263699	-0.435607
O20	O	1.531046	0.236301	0.064393
O21	O	0.945575	-0.415747	-0.238434
O22	O	1.445575	0.084253	0.261566
O23	O	0.827655	-0.404016	-0.347262
O24	O	1.327655	0.095984	0.152738
O25	O	0.928610	-0.509211	-0.556592
O26	O	1.428610	-0.009211	-0.056592
O27	O	0.819224	-0.509691	-0.438112
O28	O	1.319224	-0.009691	0.061888
O29	O	1.019919	-0.403171	-0.555512
O30	O	1.519919	0.096829	-0.055512
O31	O	1.015366	-0.669782	-0.366732
O32	O	1.515366	-0.169782	0.133268
O33	O	0.926019	-0.660894	-0.449189
O34	O	1.426019	-0.160894	0.050811
C35	C	0.798002	-0.455595	-0.391607
C36	C	1.298002	0.044405	0.108393
C37	C	0.720077	-0.451759	-0.388316
C38	C	1.220077	0.048241	0.111684
C39	C	0.679095	-0.505067	-0.434003
C40	C	1.179095	-0.005067	0.065997
C41	C	0.605877	-0.501451	-0.430914
C42	C	1.105877	-0.001451	0.069086
C43	C	0.573641	-0.444531	-0.382133
C44	C	1.073641	0.055469	0.117867
C45	C	0.614628	-0.391217	-0.336443
C46	C	1.114628	0.108783	0.163557
C47	C	0.687846	-0.394829	-0.339536
C48	C	1.187846	0.105171	0.160464
C49	C	0.355135	-0.427815	-0.367819
C50	C	0.855135	0.072185	0.132181
C51	C	0.281912	-0.424209	-0.364727
C52	C	0.781912	0.075791	0.135273
C53	C	0.273166	-0.534442	-0.459200
C54	C	0.773166	-0.034442	0.040800
C55	C	0.346385	-0.538053	-0.462286
C56	C	0.846385	-0.038053	0.037714
C57	C	0.387365	-0.484735	-0.416599
C58	C	0.887365	0.015265	0.083401
N59	N	0.498801	-0.440836	-0.378972
N60	N	0.998801	0.059164	0.121028
N61	N	0.462205	-0.488427	-0.419763
N62	N	0.962205	0.011573	0.080237
C63	C	0.969176	-0.697921	-0.409376
C64	C	1.469176	-0.197921	0.090624
C65	C	0.964544	-0.797734	-0.413694
C66	C	1.464544	-0.297734	0.086306
C67	C	1.048968	-0.994489	-0.336024
C68	C	1.548968	-0.494489	0.163976
C69	C	1.044619	-1.088273	-0.340080
C70	C	1.544619	-0.588273	0.159920
C71	C	0.951501	-1.079088	-0.425865
C72	C	1.451501	-0.579088	0.074135
C73	C	0.955850	-0.985304	-0.421809
C74	C	1.455850	-0.485304	0.078191
C75	C	1.004584	-0.943008	-0.376886
C76	C	1.504584	-0.443008	0.123114
C77	C	1.008930	-0.849223	-0.372827
C78	C	1.508930	-0.349223	0.127173
C79	C	0.915816	-0.840039	-0.458616
C80	C	1.415816	-0.340039	0.041384
C81	C	0.911467	-0.933823	-0.462672
C82	C	1.411467	-0.433823	0.037328
C83	C	1.163008	-0.473660	-0.407106
C84	C	1.663008	0.026340	0.092894
C85	C	1.240931	-0.477517	-0.410415
C86	C	1.740931	0.022483	0.089585
C87	C	0.973283	-0.454786	-0.582201
C88	C	1.473283	0.045214	-0.082201
C89	C	0.970357	-0.450600	-0.660125
C90	C	1.470357	0.049400	-0.160125
C91	C	0.991184	-0.230387	-0.389284
C92	C	1.491184	0.269613	0.110716
C93	C	0.995886	-0.130576	-0.384998
C94	C	1.495886	0.369424	0.115002
C95	C	1.011107	-0.508277	-0.701106
C96	C	1.511107	-0.008277	-0.201106
C97	C	1.008359	-0.504333	-0.774323
C98	C	1.508359	-0.004333	-0.274323
C99	C	0.964855	-0.442715	-0.806558
C100	C	1.464855	0.057285	-0.306558
C101	C	0.924102	-0.385031	-0.765571
C102	C	1.424102	0.114969	-0.265571
C103	C	0.926855	-0.388972	-0.692355
C104	C	1.426855	0.111028	-0.192355
C105	C	0.952107	-0.424529	-1.025061
C106	C	1.452107	0.075471	-0.525061
C107	C	0.949355	-0.420595	-1.098282
C108	C	1.449355	0.079405	-0.598282
C109	C	1.033613	-0.539896	-1.107029
C110	C	1.533613	-0.039896	-0.607029
C111	C	1.036359	-0.543834	-1.033811
C112	C	1.536359	-0.043834	-0.533811
C113	C	0.995609	-0.486148	-0.992831
C114	C	1.495609	0.013852	-0.492831
N115	N	0.962042	-0.438684	-0.881398
N116	N	1.462042	0.061316	-0.381398
N117	N	0.998426	-0.490175	-0.917993
N118	N	1.498426	0.009825	-0.417993
C119	C	0.987032	-0.474332	-0.217192
C120	C	1.487032	0.025668	0.282808
C121	C	0.990106	-0.478272	-0.139263
C122	C	1.490106	0.021728	0.360737
H123	H	0.721212	-0.351415	-0.302336
H124	H	1.221212	0.148585	0.197664
Cl125	Cl	0.860007	-0.775314	-0.509979
Cl126	Cl	1.360007	-0.275314	-0.009979
Cl127	Cl	0.554360	-0.568470	-0.488353
Cl128	Cl	1.054360	-0.068470	0.011647
Cl129	Cl	1.065797	-0.585749	-0.660590
Cl130	Cl	1.565797	-0.085749	-0.160590
H131	H	1.048610	-0.814786	-0.336247
H132	H	1.548610	-0.314786	0.163753
Cl133	Cl	1.091054	-0.621298	-0.993293
Cl134	Cl	1.591054	-0.121298	-0.493293
H135	H	0.911829	-1.113541	-0.462444
H136	H	1.411829	-0.613541	0.037556
H137	H	0.255669	-0.377847	-0.325008
H138	H	0.755669	0.122153	0.174992
H139	H	0.913931	-0.370411	-1.124525
H140	H	1.413931	0.129589	-0.624525
H141	H	1.066790	-0.586859	-1.140403
H142	H	1.566790	-0.086859	-0.640403
Cl143	Cl	0.719613	-0.576632	-0.495329
Cl144	Cl	1.219613	-0.076632	0.004671
Cl145	Cl	0.850206	-0.987003	-0.519145
Cl146	Cl	1.350206	-0.487003	-0.019145
Cl147	Cl	1.059586	-0.576851	-0.825840
Cl148	Cl	1.559586	-0.076851	-0.325840
Cl149	Cl	1.110222	-0.941314	-0.279540
Cl150	Cl	1.610222	-0.441314	0.220460
H151	H	0.588377	-0.344868	-0.296727
H152	H	1.088377	0.155132	0.203273
H153	H	1.080762	-1.130186	-0.306807
H154	H	1.580762	-0.630186	0.193193
Cl155	Cl	0.900876	-0.352011	-0.973552
Cl156	Cl	1.400876	0.147989	-0.473552
H157	H	0.888683	-0.334857	-0.791823
H158	H	1.388683	0.165143	-0.291823
Cl159	Cl	0.875626	-0.316457	-0.640836
Cl160	Cl	1.375626	0.183543	-0.140836
H161	H	0.239792	-0.577848	-0.496397
H162	H	0.739792	-0.077848	0.003603
Cl163	Cl	0.406644	-0.360784	-0.310385
Cl164	Cl	0.906644	0.139216	0.189615
Cl165	Cl	0.386904	-0.609615	-0.523612
Cl166	Cl	0.886904	-0.109615	-0.023612
