data_functionalizedCrystal
_audit_creation_method	'MofGen! by Chris Wilmer'
_symmetry_space_group_name_H-M	'P1'
_symmetry_Int_Tables_number	1
_symmetry_cell_setting	triclinic
loop_
_symmetry_equiv_pos_as_xyz
  x,y,z
_cell_length_a	15.995350
_cell_length_b	10.654550
_cell_length_c	9.130313
_cell_angle_alpha	90.004369
_cell_angle_beta	90.002845
_cell_angle_gamma	96.011347
loop_
_atom_site_label
_atom_site_type_symbol
_atom_site_fract_x
_atom_site_fract_y
_atom_site_fract_z
O1	O	1.111924	-0.161873	-0.121582
O2	O	0.868265	-0.181862	-0.121633
O3	O	0.995697	0.010945	-0.121597
O4	O	0.984493	-0.354680	-0.121618
O5	O	0.995688	0.010951	0.122002
O6	O	0.868256	-0.181856	0.121966
O7	O	1.111916	-0.161867	0.122017
Cu8	Cu	0.990085	-0.171861	0.144234
Cu9	Cu	0.990096	-0.171868	-0.143850
O10	O	0.984484	-0.354674	0.121981
C11	C	0.994870	0.057735	0.000201
C12	C	0.992409	0.197146	0.000199
C13	C	0.837061	-0.181033	0.000160
C14	C	0.744096	-0.178555	0.000141
C15	C	1.143120	-0.162696	0.000220
C16	C	1.236084	-0.165174	0.000230
C17	C	1.573883	-0.174071	0.000170
C18	C	1.527247	-0.311385	0.000713
C19	C	1.430542	-0.308907	0.000180
C20	C	1.406297	-0.169658	0.000201
C21	C	1.446970	-0.101933	-0.138905
C22	C	1.543625	-0.105382	-0.139037
C23	C	1.543991	-0.102540	0.137981
C24	C	1.447046	-0.102573	0.139835
C25	C	1.311585	-0.167156	0.000213
C26	C	1.668596	-0.176569	0.000148
C27	C	0.985311	-0.401464	0.000179
C28	C	0.987772	-0.540875	0.000172
N29	N	0.990084	-0.171856	0.346857
C30	C	1.067438	0.277612	0.000214
C31	C	1.065121	0.408602	0.000195
C32	C	0.912737	0.378649	0.000153
C33	C	0.915055	0.247661	0.000161
N34	N	0.990103	-0.171863	-0.346473
C35	C	1.046530	-0.086517	0.423524
C36	C	1.046538	-0.086517	0.576861
C37	C	0.933651	-0.257207	0.576849
C38	C	0.933640	-0.257200	0.423515
H39	H	1.402437	-0.362150	0.099891
H40	H	1.547149	-0.366026	-0.098494
Cl41	Cl	1.556905	-0.396474	0.154053
Cl42	Cl	1.387983	-0.391649	-0.154044
Cl43	Cl	1.572314	-0.181641	-0.299590
Cl44	Cl	1.159449	0.509755	0.000211
H45	H	0.887697	-0.326693	0.639280
Cl46	Cl	0.820724	0.146496	0.000129
H47	H	1.092500	-0.017025	0.639280
Cl48	Cl	0.862670	-0.364486	0.327123
Cl49	Cl	1.117485	0.020777	0.327160
H50	H	1.575287	-0.004570	-0.145364
H51	H	1.432250	0.000370	-0.144063
H52	H	1.418829	-0.148944	-0.242425
Cl53	Cl	1.576120	-0.171848	0.300752
H54	H	1.420043	-0.152025	0.242743
H55	H	1.431097	-0.001025	0.148246
H56	H	1.575161	-0.001298	0.138920
H57	H	1.130424	0.236488	0.000241
H58	H	0.849758	0.419794	0.000125
