data_functionalizedCrystal
_audit_creation_method	'MofGen! by Chris Wilmer'
_symmetry_space_group_name_H-M	'P1'
_symmetry_Int_Tables_number	1
_symmetry_cell_setting	triclinic
loop_
_symmetry_equiv_pos_as_xyz
  x,y,z
_cell_length_a	7.088929
_cell_length_b	17.699083
_cell_length_c	17.699083
_cell_angle_alpha	96.716985
_cell_angle_beta	96.211898
_cell_angle_gamma	96.196973
loop_
_atom_site_label
_atom_site_type_symbol
_atom_site_fract_x
_atom_site_fract_y
_atom_site_fract_z
O1	O	0.158727	-0.996305	0.103493
O2	O	0.658727	-0.496305	0.603493
O3	O	0.158790	-0.775923	0.115949
O4	O	0.658790	-0.275923	0.615949
O5	O	0.158740	-0.892341	-0.000469
O6	O	0.658740	-0.392341	0.499531
O7	O	0.158777	-0.879887	0.219911
O8	O	0.658777	-0.379887	0.719911
O9	O	-0.159242	-0.907899	-0.016062
O10	O	0.340758	-0.407899	0.483938
O11	O	-0.159192	-0.791481	0.100355
O12	O	0.340808	-0.291481	0.600355
O13	O	-0.159255	-1.011863	0.087900
O14	O	0.340745	-0.511863	0.587900
Cu15	Cu	-0.188258	-0.903093	0.092704
Cu16	Cu	0.311742	-0.403093	0.592704
Cu17	Cu	0.187792	-0.884693	0.111145
Cu18	Cu	0.687792	-0.384693	0.611145
O19	O	-0.159205	-0.895445	0.204318
O20	O	0.340795	-0.395445	0.704318
C21	C	-0.000193	-0.755505	0.107706
C22	C	0.499807	-0.255505	0.607706
C23	C	-0.000170	-0.671486	0.106369
C24	C	0.499830	-0.171486	0.606369
N25	N	-0.452752	-0.916039	0.079733
N26	N	0.047248	-0.416039	0.579733
C27	C	-0.000252	-0.899674	-0.036463
C28	C	0.499748	-0.399674	0.463537
C29	C	-0.000252	-0.898335	-0.120481
C30	C	0.499748	-0.398335	0.379519
N31	N	0.452286	-0.871753	0.124109
N32	N	0.952286	-0.371753	0.624109
C33	C	-0.000268	-1.032281	0.096142
C34	C	0.499732	-0.532281	0.596142
C35	C	-0.000279	-1.116300	0.097481
C36	C	0.499721	-0.616300	0.597481
C37	C	-0.000159	-0.622864	0.174703
C38	C	0.499841	-0.122864	0.674703
C39	C	-0.000184	-0.543922	0.173439
C40	C	0.499816	-0.043922	0.673439
C41	C	-0.000206	-0.513602	0.103842
C42	C	0.499794	-0.013602	0.603842
C43	C	-0.000223	-0.562230	0.035502
C44	C	0.499777	-0.062230	0.535502
C45	C	-0.000211	-0.641172	0.036766
C46	C	0.499789	-0.141172	0.536766
C47	C	-0.000271	-0.243870	0.030405
C48	C	0.499729	0.256130	0.530405
C49	C	-0.000276	-0.164922	0.029146
C50	C	0.499724	0.335078	0.529146
C51	C	-0.000243	-0.146620	0.167078
C52	C	0.499757	0.353380	0.667078
C53	C	-0.000232	-0.225561	0.168342
C54	C	0.499768	0.274439	0.668342
C55	C	-0.000259	-0.274183	0.100002
C56	C	0.499741	0.225817	0.600002
C57	C	-0.000235	-0.359781	0.101373
C58	C	0.499765	0.140219	0.601373
C59	C	-0.000216	-0.428005	0.102471
C60	C	0.499784	0.071995	0.602471
C61	C	-0.000274	-0.966670	-0.169103
C62	C	0.499726	-0.466670	0.330897
C63	C	-0.000257	-0.965407	-0.248045
C64	C	0.499743	-0.465407	0.251955
C65	C	-0.000231	-0.895809	-0.278365
C66	C	0.499769	-0.395809	0.221635
C67	C	-0.000203	-0.827469	-0.229736
C68	C	0.499797	-0.327469	0.270264
C69	C	-0.000207	-0.828732	-0.150795
C70	C	0.499793	-0.328732	0.349205
C71	C	-0.000186	-0.822373	-0.548099
C72	C	0.499814	-0.322373	-0.048099
C73	C	-0.000188	-0.821115	-0.627047
C74	C	0.499812	-0.321115	-0.127047
C75	C	-0.000236	-0.959047	-0.645349
C76	C	0.499764	-0.459047	-0.145349
C77	C	-0.000240	-0.960311	-0.566408
C78	C	0.499760	-0.460311	-0.066408
C79	C	-0.000202	-0.891971	-0.517786
C80	C	0.499798	-0.391971	-0.017786
C81	C	-0.000217	-0.893341	-0.432187
C82	C	0.499783	-0.393341	0.067813
C83	C	-0.000230	-0.894439	-0.363963
C84	C	0.499770	-0.394439	0.136037
C85	C	-0.000210	-0.888112	0.240312
C86	C	0.499790	-0.388112	0.740312
C87	C	-0.000197	-0.889450	0.324330
C88	C	0.499803	-0.389450	0.824330
H89	H	-0.466048	-0.825855	0.170096
H90	H	0.033952	-0.325855	0.670096
C91	C	0.163201	-1.036019	-0.339407
C92	C	0.663201	-0.536019	0.160593
C93	C	-0.000275	-1.040525	-0.301487
C94	C	0.499725	-0.540525	0.198513
H95	H	0.163197	-1.082399	-0.372394
H96	H	0.663197	-0.582399	0.127606
H97	H	0.163207	-0.994398	-0.368763
H98	H	0.663207	-0.494398	0.131237
H99	H	0.274067	-1.028216	-0.302778
H100	H	0.774067	-0.528216	0.197222
H101	H	-0.111142	-1.048322	-0.338115
H102	H	0.388858	-0.548322	0.161885
H103	H	-0.000299	-1.082158	-0.272128
H104	H	0.499701	-0.582158	0.227872
H105	H	-0.000232	-0.107023	0.222723
H106	H	0.499768	0.392977	0.722723
C107	C	0.163299	-0.295695	0.257802
C108	C	0.663299	0.204305	0.757802
C109	C	-0.000183	-0.258880	0.244850
C110	C	0.499817	0.241120	0.744850
H111	H	0.163332	-0.316258	0.305039
H112	H	0.663332	0.183742	0.805039
H113	H	0.163275	-0.335952	0.217292
H114	H	0.663275	0.164048	0.717292
H115	H	0.274161	-0.259838	0.259870
H116	H	0.774161	0.240162	0.759870
H117	H	-0.111046	-0.294739	0.242775
H118	H	0.388954	0.205261	0.742775
H119	H	-0.000177	-0.218619	0.285369
H120	H	0.499823	0.281381	0.785369
C121	C	-0.163682	-0.748572	-0.049852
C122	C	0.336318	-0.248572	0.450148
C123	C	-0.000220	-0.694618	-0.038350
C124	C	0.499780	-0.194618	0.461650
H125	H	-0.163695	-0.781563	-0.096230
H126	H	0.336305	-0.281563	0.403770
H127	H	-0.163654	-0.777923	-0.008227
H128	H	0.336346	-0.277923	0.491773
H129	H	-0.274557	-0.722817	-0.052912
H130	H	0.225443	-0.222817	0.447088
H131	H	0.110656	-0.720372	-0.035284
H132	H	0.610656	-0.220372	0.464716
H133	H	-0.000230	-0.665263	-0.079986
H134	H	0.499770	-0.165263	0.420014
C135	C	-0.514758	-0.963569	-0.054412
C136	C	-0.014758	-0.463569	0.445588
C137	C	-0.562993	-0.978007	0.017649
C138	C	-0.062993	-0.478007	0.517649
H139	H	-0.582811	-1.001827	-0.092738
H140	H	-0.082811	-0.501827	0.407262
H141	H	-0.547491	-0.914652	-0.064082
H142	H	-0.047491	-0.414652	0.435918
H143	H	-0.381259	-0.964449	-0.055290
H144	H	0.118741	-0.464449	0.444710
H145	H	-0.696491	-0.977122	0.018528
H146	H	-0.196491	-0.477122	0.518528
H147	H	-0.530273	-1.026937	0.027321
H148	H	-0.030273	-0.526937	0.527321
H149	H	-0.000139	-0.647544	0.231377
H150	H	0.499861	-0.147544	0.731377
H151	H	-0.000294	-0.283448	-0.025242
H152	H	0.499706	0.216552	0.474758
H153	H	-0.000173	-0.504337	0.229084
H154	H	0.499827	-0.004337	0.729084
C155	C	-0.000354	-0.190941	-0.107081
C156	C	0.499646	0.309059	0.392919
C157	C	-0.000321	-0.131594	-0.047362
C158	C	0.499679	0.368406	0.452638
H159	H	-0.000392	-0.170364	-0.154310
H160	H	0.499608	0.329636	0.345690
H161	H	0.110530	-0.215919	-0.098290
H162	H	0.610530	0.284081	0.401710
H163	H	-0.111246	-0.226783	-0.109148
H164	H	0.388754	0.273217	0.390852
H165	H	0.110579	-0.095755	-0.045291
H166	H	0.610579	0.404245	0.454709
H167	H	-0.111216	-0.106604	-0.056155
H168	H	0.388784	0.393396	0.443845
H169	H	-0.000268	-0.537539	-0.021167
H170	H	0.499732	-0.037539	0.478833
C171	C	0.163317	-0.735761	-0.440700
C172	C	0.663317	-0.235761	0.059300
C173	C	-0.000154	-0.747252	-0.494665
C174	C	0.499846	-0.247252	0.005335
H175	H	0.163339	-0.689379	-0.407714
H176	H	0.663339	-0.189379	0.092286
H177	H	0.163291	-0.777381	-0.411342
H178	H	0.663291	-0.277381	0.088658
H179	H	0.274187	-0.732717	-0.466447
H180	H	0.774187	-0.232717	0.033553
H181	H	-0.111024	-0.750302	-0.468917
H182	H	0.388976	-0.250302	0.031083
H183	H	-0.000145	-0.705621	-0.524026
H184	H	0.499855	-0.205621	-0.024026
H185	H	-0.000171	-0.764437	-0.651729
H186	H	0.499829	-0.264437	-0.151729
C187	C	0.163167	-1.076625	-0.152377
C188	C	0.663167	-0.576625	0.347623
C189	C	-0.000292	-1.043173	-0.135777
C190	C	0.499708	-0.543173	0.364223
H191	H	0.163164	-1.123853	-0.131799
H192	H	0.663164	-0.623853	0.368201
H193	H	0.163150	-1.085652	-0.206345
H194	H	0.663150	-0.585652	0.293655
H195	H	0.274044	-1.043059	-0.130234
H196	H	0.774044	-0.543059	0.369766
H197	H	-0.111171	-1.076737	-0.157925
H198	H	0.388829	-0.576737	0.342075
H199	H	-0.000293	-1.034149	-0.081798
H200	H	0.499707	-0.534149	0.418202
C201	C	-0.000264	-1.096528	-0.592430
C202	C	0.499736	-0.596528	-0.092430
C203	C	-0.000259	-1.036814	-0.533081
C204	C	0.499741	-0.536814	-0.033081
H205	H	-0.000258	-1.143757	-0.571854
H206	H	0.499742	-0.643757	-0.071854
H207	H	-0.111145	-1.098596	-0.628277
H208	H	0.388855	-0.598596	-0.128277
H209	H	0.110631	-1.087734	-0.617400
H210	H	0.610631	-0.587734	-0.117400
H211	H	-0.111161	-1.045606	-0.508115
H212	H	0.388839	-0.545606	-0.008115
H213	H	0.110633	-1.034748	-0.497220
H214	H	0.610633	-0.534748	0.002780
H215	H	-0.000170	-0.770801	-0.254428
H216	H	0.499830	-0.270801	0.245572
H217	H	-0.000258	-1.014693	-0.684947
H218	H	0.499742	-0.514693	-0.184947
C219	C	0.163290	-0.703555	-0.102869
C220	C	0.663290	-0.203555	0.397131
C221	C	-0.000184	-0.753617	-0.097347
C222	C	0.499816	-0.253617	0.402653
H223	H	0.163301	-0.657179	-0.069875
H224	H	0.663301	-0.157179	0.430125
H225	H	0.274145	-0.726677	-0.088251
H226	H	0.774145	-0.226677	0.411749
H227	H	0.163270	-0.692849	-0.154225
H228	H	0.663270	-0.192849	0.345775
H229	H	-0.000158	-0.764327	-0.045991
H230	H	0.499842	-0.264327	0.454009
H231	H	-0.111068	-0.730490	-0.111961
H232	H	0.388932	-0.230490	0.388039
