data_functionalizedCrystal
_audit_creation_method	'MofGen! by Chris Wilmer'
_symmetry_space_group_name_H-M	'P1'
_symmetry_Int_Tables_number	1
_symmetry_cell_setting	triclinic
loop_
_symmetry_equiv_pos_as_xyz
  x,y,z
_cell_length_a	12.759395
_cell_length_b	12.645330
_cell_length_c	12.759387
_cell_angle_alpha	89.970586
_cell_angle_beta	89.979491
_cell_angle_gamma	90.019229
loop_
_atom_site_label
_atom_site_type_symbol
_atom_site_fract_x
_atom_site_fract_y
_atom_site_fract_z
Zn1	Zn	1.606247	-0.421940	-0.594015
Zn2	Zn	1.606128	-0.599242	-0.418340
Zn3	Zn	1.430545	-0.421998	-0.418352
Zn4	Zn	1.430528	-0.599167	-0.593979
O5	O	1.518362	-0.510587	-0.506172
O6	O	1.753252	-0.445467	-0.570722
O7	O	1.582794	-0.575786	-0.271320
O8	O	1.453909	-0.273643	-0.441674
O9	O	1.753165	-0.575730	-0.441654
O10	O	1.582996	-0.273600	-0.570733
O11	O	1.453794	-0.445565	-0.271329
O12	O	1.283522	-0.445492	-0.441639
O13	O	1.453880	-0.575601	-0.741005
O14	O	1.283509	-0.575657	-0.570672
O15	O	1.582980	-0.445394	-0.741032
O16	O	1.582778	-0.747579	-0.441619
O17	O	1.453765	-0.747524	-0.570660
C18	C	1.245395	-0.510574	-0.506153
C19	C	1.128618	-0.510594	-0.506171
C20	C	1.128644	-0.646354	-0.640315
C21	C	1.073796	-0.714242	-0.707390
C22	C	0.964074	-0.714255	-0.707403
C23	C	0.909198	-0.646370	-0.640335
C24	C	0.964046	-0.578482	-0.573260
C25	C	1.073770	-0.578478	-0.573253
C26	C	0.964020	-0.442718	-0.439123
C27	C	1.073742	-0.442709	-0.439103
C28	C	0.909144	-0.374833	-0.372056
C29	C	0.963992	-0.306948	-0.304974
C30	C	1.073720	-0.306939	-0.304963
C31	C	1.128590	-0.374820	-0.372028
C32	C	1.518285	-0.786016	-0.506157
C33	C	1.518349	-0.903846	-0.506186
C34	C	1.437522	-1.071420	-0.587616
C35	C	1.437108	-0.948860	-0.587354
C36	C	1.488373	-0.948450	-0.395464
C37	C	1.487880	-1.071049	-0.395958
C38	C	1.629646	-1.070930	-0.534579
C39	C	1.628964	-0.948323	-0.537001
C40	C	1.792395	-0.510600	-0.506190
C41	C	1.909172	-0.510606	-0.506198
C42	C	1.518441	-0.510483	-0.780205
C43	C	1.518475	-0.510438	-0.896982
C44	C	1.518468	-0.234081	-0.506209
C45	C	1.518513	-0.116251	-0.506225
C46	C	1.652916	-0.374862	-0.897029
C47	C	1.720151	-0.307058	-0.951914
C48	C	1.720176	-0.307019	-1.061636
C49	C	1.652958	-0.374790	-1.116475
C50	C	1.585723	-0.442594	-1.061591
C51	C	1.585707	-0.442627	-0.951867
C52	C	1.451278	-0.578163	-1.061543
C53	C	1.451256	-0.578209	-0.951822
C54	C	1.384059	-0.645934	-1.116383
C55	C	1.316828	-0.713745	-1.061498
C56	C	1.316806	-0.713781	-0.951770
C57	C	1.384021	-0.646013	-0.896937
C58	C	1.518344	-0.510614	-0.233204
C59	C	1.518513	-0.510359	-0.116428
H60	H	1.217931	-0.374822	-0.372023
H61	H	1.689986	-1.099922	-0.475299
N62	N	1.792693	-0.233897	-1.120845
H63	H	1.750025	-0.184753	-1.166373
H64	H	1.835258	-0.191038	-1.069399
N65	N	1.244340	-0.786823	-1.120660
H66	H	1.260614	-0.862580	-1.101569
H67	H	1.169305	-0.770267	-1.101535
N68	N	1.381876	-0.907929	-0.363074
H69	H	1.363285	-0.937072	-0.291733
H70	H	1.383387	-0.828136	-0.360021
N71	N	1.713114	-0.907727	-0.464206
H72	H	1.680578	-0.859718	-0.409974
H73	H	1.748127	-0.969398	-0.428098
N74	N	1.652902	-0.374918	-0.778688
H75	H	1.705686	-0.321703	-0.752275
H76	H	1.580801	-0.355462	-0.752326
H77	H	1.656990	-1.101767	-0.613945
N78	N	1.462119	-1.110376	-0.696725
H79	H	1.476342	-1.047988	-0.744103
H80	H	1.525982	-1.157481	-0.694364
N81	N	1.792675	-0.233991	-0.892768
H82	H	1.782472	-0.244312	-0.814931
H83	H	1.867693	-0.250529	-0.911974
N84	N	1.132871	-0.233719	-0.232610
H85	H	1.210707	-0.244010	-0.242773
H86	H	1.113719	-0.158031	-0.249101
N87	N	1.461936	-0.908902	-0.696105
H88	H	1.461709	-0.829031	-0.696143
H89	H	1.533338	-0.935323	-0.718032
N90	N	1.132979	-0.787466	-0.779719
H91	H	1.178541	-0.744450	-0.828479
H92	H	1.178406	-0.836518	-0.736849
N93	N	1.246985	-0.646354	-0.640286
H94	H	1.273426	-0.699660	-0.692945
H95	H	1.273366	-0.573621	-0.659693
H96	H	1.355647	-1.102324	-0.569071
N97	N	1.383981	-0.646062	-0.778595
H98	H	1.456034	-0.665570	-0.752162
H99	H	1.364652	-0.573330	-0.752262
H100	H	1.262044	-0.768984	-0.907089
H101	H	0.919417	-0.769531	-0.762026
N102	N	1.327980	-0.910127	-0.562465
H103	H	1.279957	-0.972695	-0.551615
H104	H	1.329851	-0.865966	-0.496560
H105	H	1.652975	-0.374743	-1.205816
H106	H	1.406640	-1.099744	-0.371938
H107	H	0.819857	-0.646378	-0.640361
H108	H	1.545493	-0.919295	-0.333165
N109	N	0.790802	-0.374849	-0.372058
H110	H	0.764381	-0.428162	-0.424719
H111	H	0.764436	-0.394213	-0.299912
N112	N	0.904808	-0.233750	-0.232631
H113	H	0.826978	-0.244061	-0.242817
H114	H	0.923951	-0.250174	-0.157571
H115	H	1.544310	-1.100709	-0.333248
N116	N	1.658920	-0.909705	-0.644935
H117	H	1.601088	-0.863588	-0.673759
H118	H	1.725923	-0.867410	-0.640416
N119	N	1.384061	-0.645875	-1.234725
H120	H	1.436849	-0.592636	-1.261175
H121	H	1.403302	-0.718624	-1.261076
