data_functionalizedCrystal
_audit_creation_method	'MofGen! by Chris Wilmer'
_symmetry_space_group_name_H-M	'P1'
_symmetry_Int_Tables_number	1
_symmetry_cell_setting	triclinic
loop_
_symmetry_equiv_pos_as_xyz
  x,y,z
_cell_length_a	21.295419
_cell_length_b	29.839131
_cell_length_c	21.295411
_cell_angle_alpha	90.028018
_cell_angle_beta	90.024539
_cell_angle_gamma	90.050029
loop_
_atom_site_label
_atom_site_type_symbol
_atom_site_fract_x
_atom_site_fract_y
_atom_site_fract_z
Zn1	Zn	0.962335	-0.178727	0.355883
Zn2	Zn	0.962229	-0.253843	0.250597
Zn3	Zn	0.857058	-0.178747	0.250628
Zn4	Zn	0.857019	-0.253850	0.355829
O5	O	0.909660	-0.216292	0.303234
O6	O	1.050410	-0.188680	0.341927
O7	O	0.948249	-0.243886	0.162512
O8	O	0.871084	-0.115877	0.264627
O9	O	1.050332	-0.243867	0.264573
O10	O	0.948431	-0.115863	0.341957
O11	O	0.870981	-0.188714	0.162535
O12	O	0.768963	-0.188721	0.264574
O13	O	0.871017	-0.243880	0.443925
O14	O	0.768935	-0.243899	0.341864
O15	O	0.948392	-0.188687	0.443965
O16	O	0.948211	-0.316711	0.264520
O17	O	0.870914	-0.316716	0.341834
C18	C	0.746108	-0.216313	0.303217
C19	C	0.676140	-0.216333	0.303224
C20	C	0.643337	-0.187644	0.343564
C21	C	0.577594	-0.187632	0.343567
C22	C	0.544658	-0.216317	0.303235
C23	C	0.577469	-0.245008	0.262888
C24	C	0.643211	-0.245016	0.262882
N25	N	0.441378	-0.255624	0.298310
N26	N	0.378926	-0.255615	0.298319
C27	C	0.346583	-0.216294	0.303249
N28	N	0.379051	-0.176981	0.308183
N29	N	0.441508	-0.176990	0.308177
C30	C	0.473372	-0.216311	0.303237
C31	C	0.242494	-0.187590	0.343594
C32	C	0.176750	-0.187577	0.343592
C33	C	0.176627	-0.244956	0.262917
C34	C	0.242369	-0.244965	0.262915
C35	C	0.275299	-0.216282	0.303257
C36	C	0.909564	-0.333014	0.303181
C37	C	0.909581	-0.382949	0.303180
C38	C	0.949926	-0.692550	0.343558
C39	C	0.949994	-0.880223	0.343595
O40	O	0.984203	-0.904451	0.377887
N41	N	0.909767	-0.903734	0.303304
C42	C	0.869517	-0.880324	0.263003
O43	O	0.835299	-0.904628	0.228739
C44	C	0.869446	-0.692651	0.262969
C45	C	0.909680	-0.669143	0.303259
C46	C	0.990156	-0.669041	0.383844
C47	C	0.990141	-0.622126	0.383832
C48	C	0.949895	-0.598719	0.343533
C49	C	0.909665	-0.622227	0.303246
C50	C	0.829194	-0.669242	0.222672
C51	C	0.829178	-0.622321	0.222668
C52	C	0.869412	-0.598813	0.262958
C53	C	0.869405	-0.551905	0.262935
N54	N	0.909632	-0.528394	0.303227
C55	C	0.949877	-0.551801	0.343525
C56	C	0.869558	-0.978854	0.263023
C57	C	0.869577	-1.025772	0.263031
C58	C	0.950053	-1.025668	0.343624
C59	C	0.950037	-0.978749	0.343613
C60	C	0.909785	-0.955343	0.303315
C61	C	0.949843	-0.453275	0.343496
C62	C	0.949826	-0.406356	0.343478
C63	C	0.869348	-0.406464	0.262888
C64	C	0.869367	-0.453379	0.262903
C65	C	0.909616	-0.476784	0.303212
O66	O	0.835209	-0.527648	0.228667
O67	O	0.984081	-0.527489	0.377795
C68	C	0.949941	-0.739465	0.343570
C69	C	0.909710	-0.762974	0.303283
C70	C	0.869465	-0.739567	0.262984
C71	C	0.909729	-0.809892	0.303291
C72	C	0.949974	-0.833298	0.343590
C73	C	0.990201	-0.809787	0.383881
C74	C	0.990186	-0.762872	0.383869
C75	C	0.829238	-0.763078	0.222693
C76	C	0.829257	-0.809994	0.222708
C77	C	0.869502	-0.833400	0.263007
C78	C	1.073850	-0.216270	0.303252
C79	C	1.143818	-0.216261	0.303260
C80	C	0.909712	-0.216282	0.467425
C81	C	0.909735	-0.216278	0.537393
C82	C	0.909774	-0.099113	0.303301
C83	C	0.909822	-0.049179	0.303330
C84	C	0.909644	-0.216269	0.139683
C85	C	0.909744	-0.216146	0.069715
C86	C	0.950022	-0.187538	0.570281
C87	C	0.950021	-0.187519	0.636024
C88	C	0.909739	-0.216247	0.668875
C89	C	0.869444	-0.244989	0.635979
C90	C	0.869442	-0.245005	0.570238
N91	N	0.904878	-0.255549	0.772085
N92	N	0.904884	-0.255533	0.834536
C93	C	0.909743	-0.216202	0.866950
N94	N	0.914609	-0.176886	0.834554
N95	N	0.914606	-0.176903	0.772096
C96	C	0.909737	-0.216233	0.740161
C97	C	0.950032	-0.187438	0.971124
C98	C	0.950027	-0.187418	1.036868
C99	C	0.869453	-0.244893	1.036822
C100	C	0.869455	-0.244909	0.971079
C101	C	0.909748	-0.216182	0.938235
H102	H	0.269078	-0.268329	0.230068
H103	H	1.022972	-0.828853	0.416692
H104	H	0.550648	-0.268363	0.230049
O105	O	0.830546	-0.956071	0.223841
C106	C	0.866394	-0.928929	0.183200
H107	H	0.914083	-0.921846	0.205446
H108	H	0.873346	-0.947029	0.136563
C109	C	0.773170	-0.893098	0.144429
C110	C	0.831740	-0.884396	0.171755
H111	H	0.751793	-0.865629	0.137367
H112	H	0.749017	-0.911385	0.171808
H113	H	0.778971	-0.908183	0.105568
H114	H	0.825937	-0.869317	0.210619
H115	H	0.855891	-0.866105	0.144382
O116	O	0.988976	-0.383500	0.382530
C117	C	1.029636	-0.356337	0.346726
H118	H	1.033554	-0.370495	0.297154
H119	H	1.010164	-0.320794	0.344533
C120	C	1.090246	-0.338165	0.438429
C121	C	1.095063	-0.355555	0.377545
H122	H	1.130604	-0.337680	0.457440
H123	H	1.062851	-0.356463	0.462551
H124	H	1.074017	-0.308547	0.436593
H125	H	1.111284	-0.385174	0.379382
H126	H	1.122461	-0.337262	0.353423
O127	O	0.989220	-0.159586	0.667884
C128	C	1.024769	-0.134226	0.624796
H129	H	1.026927	-0.152636	0.577928
H130	H	1.001756	-0.100109	0.617807
C131	C	1.089123	-0.105133	0.708048
C132	C	1.091778	-0.127745	0.650485
H133	H	1.130457	-0.101133	0.723894
H134	H	1.065172	-0.122217	0.737077
H135	H	1.069943	-0.076704	0.702215
H136	H	1.110951	-0.156176	0.656320
H137	H	1.115735	-0.110666	0.621457
O138	O	0.790125	-0.740414	0.183482
C139	C	0.754616	-0.771231	0.147939
H140	H	0.780416	-0.804656	0.145801
H141	H	0.706796	-0.776248	0.170943
C142	C	0.713889	-0.711915	0.083548
C143	C	0.745579	-0.752966	0.080919
H144	H	0.708312	-0.700648	0.042209
H145	H	0.737810	-0.691152	0.107496
H146	H	0.674042	-0.716101	0.102722
H147	H	0.785428	-0.748779	0.061754
H148	H	0.721665	-0.773728	0.056967
O149	O	0.144667	-0.272773	0.223649
C150	C	0.160726	-0.262899	0.160936
H151	H	0.178852	-0.227008	0.157854
H152	H	0.198842	-0.286973	0.144412
C153	C	0.080036	-0.312155	0.122699
C154	C	0.102292	-0.268073	0.118914
H155	H	0.043992	-0.315349	0.096777
H156	H	0.069218	-0.318809	0.164950
H157	H	0.111804	-0.332212	0.108930
H158	H	0.070527	-0.248017	0.132690
H159	H	0.113104	-0.261416	0.076664
O160	O	0.988997	-0.475936	0.382674
C161	C	1.024485	-0.445118	0.418238
H162	H	1.026664	-0.411687	0.392441
H163	H	1.001403	-0.440120	0.466022
C164	C	1.088808	-0.504428	0.459071
C165	C	1.091489	-0.463368	0.427383
H166	H	1.130139	-0.515685	0.464715
H167	H	1.064899	-0.525191	0.435113
H168	H	1.069571	-0.500257	0.498887
H169	H	1.110718	-0.467540	0.387565
H170	H	1.115404	-0.442606	0.451335
H171	H	1.022901	-0.602988	0.416641
H172	H	1.022928	-0.688094	0.416664
O173	O	0.790164	-0.599537	0.183489
C174	C	0.826009	-0.572397	0.142843
H175	H	0.873702	-0.565316	0.165083
H176	H	0.832954	-0.590497	0.096205
C177	C	0.732783	-0.536562	0.104084
C178	C	0.791358	-0.527862	0.131403
H179	H	0.711408	-0.509092	0.097025
H180	H	0.708633	-0.554848	0.131467
H181	H	0.738578	-0.551647	0.065223
H182	H	0.785561	-0.512783	0.170267
H183	H	0.815506	-0.509573	0.104026
O184	O	0.989135	-0.955984	0.382814
C185	C	1.024670	-0.986710	0.418369
H186	H	0.998896	-1.020175	0.420522
H187	H	1.072493	-0.991670	0.395363
C188	C	1.065355	-0.927268	0.482729
C189	C	1.033697	-0.968369	0.485379
H190	H	1.070927	-0.915953	0.524064
H191	H	1.041417	-0.906566	0.458774
H192	H	1.105204	-0.931406	0.463555
H193	H	0.993846	-0.964229	0.504546
H194	H	1.057629	-0.989069	0.509339
H195	H	0.982833	-0.164012	1.063645
H196	H	0.982823	-1.044734	0.376436
H197	H	0.150043	-0.164212	0.376441
H198	H	0.982831	-0.164146	0.543543
O199	O	0.830406	-0.272946	0.667915
C200	C	0.866219	-0.301942	0.705959
H201	H	0.915793	-0.304715	0.686165
H202	H	0.868404	-0.288041	0.755788
C203	C	0.774531	-0.345243	0.731257
C204	C	0.835418	-0.348652	0.706942
H205	H	0.755532	-0.374055	0.731866
H206	H	0.750403	-0.325707	0.705628
H207	H	0.776361	-0.333657	0.772779
H208	H	0.833588	-0.360232	0.665418
H209	H	0.859546	-0.368191	0.732564
O210	O	0.830289	-0.272970	0.538384
C211	C	0.794720	-0.298315	0.581473
H212	H	0.820500	-0.299853	0.628348
H213	H	0.746926	-0.281869	0.588444
C214	C	0.753942	-0.344247	0.498231
C215	C	0.785608	-0.346140	0.555802
H216	H	0.748318	-0.373747	0.482396
H217	H	0.777903	-0.327171	0.469200
H218	H	0.714117	-0.330540	0.504048
H219	H	0.825435	-0.359841	0.549983
H220	H	0.761653	-0.363220	0.584831
H221	H	0.982838	-0.164045	0.944381
H222	H	0.836652	-0.268315	0.944301
H223	H	0.836821	-1.044909	0.230217
H224	H	0.550880	-0.164268	0.376415
O225	O	0.830274	-0.383652	0.223804
C226	C	0.838902	-0.337201	0.232429
H227	H	0.859499	-0.330760	0.281025
H228	H	0.872436	-0.323876	0.195117
C229	C	0.749910	-0.321075	0.166921
C230	C	0.775202	-0.313163	0.226610
H231	H	0.710617	-0.306246	0.163328
H232	H	0.744098	-0.352369	0.161108
H233	H	0.777860	-0.309970	0.135834
H234	H	0.747255	-0.324272	0.257695
H235	H	0.781007	-0.281869	0.232428
H236	H	0.796431	-0.688375	0.189864
O237	O	1.029287	-0.740108	0.423069
C238	C	1.064817	-0.770837	0.458624
H239	H	1.039039	-0.804299	0.460780
H240	H	1.112639	-0.775800	0.435618
C241	C	1.105512	-0.711396	0.522982
C242	C	1.073849	-0.752494	0.525634
H243	H	1.111086	-0.700081	0.564316
H244	H	1.081577	-0.690693	0.499027
H245	H	1.145361	-0.715538	0.503808
H246	H	1.033998	-0.748351	0.544801
H247	H	1.097778	-0.773196	0.549595
H248	H	0.670144	-0.164288	0.376414
H249	H	0.836648	-0.268279	1.063569
H250	H	0.269307	-0.164231	0.376439
H251	H	0.669919	-0.268379	0.230031
H252	H	0.836610	-0.472521	0.230091
H253	H	0.796494	-0.829130	0.189894
