data_functionalizedCrystal
_audit_creation_method	'MofGen! by Chris Wilmer'
_symmetry_space_group_name_H-M	'P1'
_symmetry_Int_Tables_number	1
_symmetry_cell_setting	triclinic
loop_
_symmetry_equiv_pos_as_xyz
  x,y,z
_cell_length_a	13.339070
_cell_length_b	13.262508
_cell_length_c	11.295483
_cell_angle_alpha	109.979812
_cell_angle_beta	84.780254
_cell_angle_gamma	99.430496
loop_
_atom_site_label
_atom_site_type_symbol
_atom_site_fract_x
_atom_site_fract_y
_atom_site_fract_z
O1	O	1.339499	0.530563	0.072782
O2	O	1.046244	0.460244	0.050012
O3	O	1.203694	0.342227	0.011790
O4	O	1.182049	0.648581	0.111004
O5	O	1.189865	0.352570	0.213191
O6	O	1.032415	0.470588	0.251413
O7	O	1.325670	0.540907	0.274183
Cu8	Cu	1.177780	0.506692	0.281187
Cu9	Cu	1.194134	0.494459	0.043008
O10	O	1.168220	0.658924	0.312405
C11	C	1.001855	0.453538	0.146866
C12	C	0.890194	0.418131	0.135401
C13	C	0.520422	0.693431	0.224539
C14	C	0.625333	0.726700	0.235308
C15	C	0.691553	0.649561	0.210333
C16	C	0.652852	0.539147	0.174585
C17	C	0.547931	0.505874	0.163805
C18	C	0.719063	0.462003	0.149599
C19	C	0.680362	0.351589	0.113852
C20	C	0.575451	0.318322	0.103074
C21	C	0.509231	0.395461	0.128050
C22	C	0.823984	0.495276	0.160379
C23	C	0.851493	0.307719	0.099646
C24	C	0.746582	0.274450	0.088876
C25	C	1.196838	0.307387	0.099531
C26	C	1.197000	0.188163	0.060912
C27	C	1.167297	-0.125370	0.391201
C28	C	1.167137	-0.013355	0.427486
C29	C	1.174603	0.037031	0.335845
C30	C	1.182229	-0.024611	0.207914
C31	C	1.182381	-0.136639	0.171626
C32	C	1.189686	0.025761	0.116270
C33	C	1.197312	-0.035880	-0.011661
C34	C	1.197464	-0.147897	-0.047943
C35	C	1.189999	-0.198282	0.043697
C36	C	1.189534	0.137789	0.152559
C37	C	1.204618	0.126520	-0.067017
C38	C	1.204778	0.014505	-0.103301
C39	C	1.370059	0.547613	0.177326
C40	C	1.481721	0.583019	0.188783
C41	C	1.175077	0.693763	0.224662
C42	C	1.174915	0.812987	0.263272
N43	N	1.166285	0.515297	0.448711
N44	N	1.205638	0.485848	-0.124518
C45	C	1.288388	0.423843	0.668381
C46	C	1.279708	0.430356	0.795154
C47	C	1.140241	0.534828	0.829029
C48	C	1.148921	0.528315	0.702256
C49	C	1.222998	0.472822	0.621937
C50	C	1.231682	0.466317	0.495164
C51	C	1.092211	0.570782	0.529039
C52	C	1.083530	0.577294	0.655812
H53	H	0.905411	0.244905	0.079303
H54	H	1.160939	0.036828	0.531648
C55	C	0.667908	0.848147	0.274651
C56	C	0.743442	0.891448	0.185843
C57	C	0.786021	1.012901	0.225198
C58	C	0.753067	1.091053	0.353361
C59	C	0.677529	1.047753	0.442177
C60	C	0.634950	0.926300	0.402822
H61	H	0.767840	0.833594	0.090962
H62	H	0.841939	1.044954	0.159450
H63	H	0.784587	1.180960	0.382494
H64	H	0.653131	1.105607	0.537058
H65	H	0.579032	0.894246	0.468570
C66	C	1.159075	-0.180809	0.491980
C67	C	1.069562	-0.270172	0.492689
C68	C	1.061332	-0.325618	0.593471
C69	C	1.142616	-0.291703	0.693544
C70	C	1.232136	-0.202336	0.692839
C71	C	1.240365	-0.146889	0.592057
H72	H	1.009385	-0.295282	0.418606
H73	H	0.995064	-0.391774	0.593992
H74	H	1.136525	-0.332748	0.768149
H75	H	1.292313	-0.177225	0.766922
H76	H	1.306634	-0.080733	0.591535
C77	C	0.447579	0.778272	0.252003
C78	C	0.378856	0.775805	0.148354
C79	C	0.306011	0.860652	0.175819
C80	C	0.301889	0.947967	0.306932
C81	C	0.370615	0.950437	0.410590
C82	C	0.443460	0.865590	0.383125
H83	H	0.381905	0.711166	0.051289
H84	H	0.255135	0.858823	0.099084
H85	H	0.247965	1.010776	0.327263
H86	H	0.367566	1.015075	0.507656
H87	H	0.494336	0.867419	0.459860
H88	H	0.715057	0.184548	0.059760
H89	H	1.023216	0.622472	0.721221
C90	C	1.020277	0.624663	0.477946
C91	C	1.029827	0.617505	0.338503
C92	C	0.957899	0.671388	0.287409
C93	C	0.876422	0.732430	0.375758
C94	C	0.866868	0.739590	0.515210
C95	C	0.938796	0.685707	0.566304
H96	H	1.090144	0.572316	0.273093
H97	H	0.964972	0.666088	0.184177
H98	H	0.823177	0.772318	0.337936
H99	H	0.806551	0.784779	0.580619
H100	H	0.931723	0.691008	0.669536
H101	H	1.183317	0.187966	0.256721
H102	H	1.332954	0.390471	0.832964
H103	H	1.348711	0.378668	0.602986
C104	C	1.212833	0.181930	-0.167833
C105	C	1.302341	0.271287	-0.168582
C106	C	1.310553	0.326704	-0.269390
C107	C	1.229255	0.292764	-0.369450
C108	C	1.139740	0.203403	-0.368705
C109	C	1.131529	0.147986	-0.267897
H110	H	1.362528	0.296415	-0.094509
H111	H	1.376818	0.392855	-0.269941
H112	H	1.235333	0.333787	-0.444074
H113	H	1.079553	0.178275	-0.442778
H114	H	1.065264	0.081835	-0.267346
H115	H	0.855483	0.585176	0.189490
H116	H	1.079922	0.580000	0.894438
H117	H	1.292001	0.421136	0.429769
H118	H	0.776976	0.676655	0.219101
H119	H	0.423802	0.368379	0.119283
H120	H	0.543946	0.228415	0.073953
H121	H	1.190134	-0.289493	0.014160
H122	H	1.174471	0.128239	0.365396
H123	H	1.203664	-0.198085	-0.152114
H124	H	1.210985	-0.035700	-0.207465
