data_functionalizedCrystal
_audit_creation_method	'MofGen! by Chris Wilmer'
_symmetry_space_group_name_H-M	'P1'
_symmetry_Int_Tables_number	1
_symmetry_cell_setting	triclinic
loop_
_symmetry_equiv_pos_as_xyz
  x,y,z
_cell_length_a	18.050590
_cell_length_b	21.295417
_cell_length_c	18.050582
_cell_angle_alpha	90.025708
_cell_angle_beta	89.999233
_cell_angle_gamma	90.018869
loop_
_atom_site_label
_atom_site_type_symbol
_atom_site_fract_x
_atom_site_fract_y
_atom_site_fract_z
Zn1	Zn	1.135285	-0.250831	0.419585
Zn2	Zn	1.635285	0.249169	0.919585
Zn3	Zn	1.135192	-0.356092	0.295389
Zn4	Zn	1.635192	0.143908	0.795389
Zn5	Zn	1.011104	-0.250821	0.295444
Zn6	Zn	1.511104	0.249179	0.795444
Zn7	Zn	1.011049	-0.356047	0.419571
Zn8	Zn	1.511049	0.143953	0.919571
O9	O	1.073157	-0.303448	0.357497
O10	O	1.573157	0.196552	0.857497
O11	O	1.239197	-0.264818	0.403093
O12	O	1.739197	0.235182	0.903093
O13	O	1.118716	-0.342143	0.191471
O14	O	1.618716	0.157857	0.691471
O15	O	1.027639	-0.162733	0.311940
O16	O	1.527639	0.337267	0.811940
O17	O	1.239129	-0.342153	0.311847
O18	O	1.739129	0.157847	0.811847
O19	O	1.118874	-0.162741	0.403147
O20	O	1.618874	0.337259	0.903147
O21	O	1.027549	-0.264801	0.191512
O22	O	1.527549	0.235199	0.691512
O23	O	0.907172	-0.264756	0.311926
O24	O	1.407172	0.235244	0.811926
O25	O	1.027545	-0.342075	0.523498
O26	O	1.527545	0.157925	1.023498
O27	O	0.907132	-0.342065	0.403122
O28	O	1.407132	0.157935	0.903122
O29	O	1.118820	-0.264773	0.523508
O30	O	1.618820	0.235227	1.023508
O31	O	1.118663	-0.444176	0.311833
O32	O	1.618663	0.055824	0.811833
O33	O	1.027455	-0.444142	0.403069
O34	O	1.527455	0.055858	0.903069
C35	C	0.880205	-0.303405	0.357529
C36	C	1.380205	0.196595	0.857529
C37	C	0.797660	-0.303402	0.357560
C38	C	1.297660	0.196598	0.857560
C39	C	0.598208	-0.345562	0.407035
C40	C	1.098208	0.154438	0.907035
C41	C	0.548817	-0.288165	0.425314
C42	C	1.048817	0.211835	0.925314
C43	C	0.646529	-0.303437	0.357524
C44	C	1.146529	0.196563	0.857524
C45	C	0.548839	-0.360867	0.339245
C46	C	1.048839	0.139133	0.839245
C47	C	0.500544	-0.303476	0.357491
C48	C	1.000544	0.196524	0.857491
C49	C	0.598225	-0.246009	0.375838
C50	C	1.098225	0.253991	0.875838
C51	C	0.598251	-0.318749	0.289738
C52	C	1.098251	0.181251	0.789738
C53	C	0.548882	-0.261313	0.307991
C54	C	1.048882	0.238687	0.807991
C55	C	0.730627	-0.303415	0.357545
C56	C	1.230627	0.196585	0.857545
C57	C	0.416448	-0.303491	0.357469
C58	C	0.916448	0.196509	0.857469
C59	C	1.073063	-0.467000	0.357460
C60	C	1.573063	0.033000	0.857460
C61	C	1.073090	-0.536968	0.357468
C62	C	1.573090	-0.036968	0.857468
C63	C	1.120569	-0.569781	0.404994
C64	C	1.620569	-0.069781	0.904994
C65	C	1.120595	-0.635523	0.405012
C66	C	1.620595	-0.135523	0.905012
C67	C	1.073150	-0.668450	0.357492
C68	C	1.573150	-0.168450	0.857492
C69	C	1.025662	-0.635629	0.309963
C70	C	1.525662	-0.135629	0.809963
C71	C	1.025632	-0.569888	0.309952
C72	C	1.525632	-0.069888	0.809952
N73	N	1.067546	-0.771706	0.292499
N74	N	1.567546	-0.271706	0.792499
N75	N	1.067579	-0.834158	0.292512
N76	N	1.567579	-0.334158	0.792512
C77	C	1.073237	-0.866525	0.357525
C78	C	1.573237	-0.366525	0.857525
N79	N	1.078875	-0.834081	0.422526
N80	N	1.578875	-0.334081	0.922526
N81	N	1.078846	-0.771624	0.422512
N82	N	1.578846	-0.271624	0.922512
C83	C	1.073178	-0.739735	0.357499
C84	C	1.573178	-0.239735	0.857499
C85	C	1.120747	-0.970624	0.405074
C86	C	1.620747	-0.470624	0.905074
C87	C	1.120768	-1.036367	0.405094
C88	C	1.620768	-0.536367	0.905094
C89	C	1.025839	-1.036472	0.310039
C90	C	1.525839	-0.536472	0.810039
C91	C	1.025814	-0.970729	0.310026
C92	C	1.525814	-0.470729	0.810026
C93	C	1.073272	-0.937809	0.357542
C94	C	1.573272	-0.437809	0.857542
C95	C	1.266863	-0.303492	0.357465
C96	C	1.766863	0.196508	0.857465
C97	C	1.349409	-0.303510	0.357452
C98	C	1.849409	0.196490	0.857452
C99	C	1.073187	-0.303420	0.551203
C100	C	1.573187	0.196580	1.051203
C101	C	1.073199	-0.303408	0.633749
C102	C	1.573199	0.196592	1.133749
C103	C	1.073273	-0.139258	0.357551
C104	C	1.573273	0.360742	0.857551
C105	C	1.073322	-0.069290	0.357574
C106	C	1.573322	0.430710	0.857574
C107	C	1.073171	-0.303430	0.164545
C108	C	1.573171	0.196570	0.664545
C109	C	1.073303	-0.303265	0.082000
C110	C	1.573303	0.196735	0.582000
C111	C	1.023601	-0.345387	0.833194
C112	C	1.523601	0.154613	1.333194
C113	C	1.091356	-0.360785	0.882566
C114	C	1.591356	0.139215	1.382566
C115	C	1.073236	-0.303360	0.784879
C116	C	1.573236	0.196640	1.284879
C117	C	1.005518	-0.287944	0.882589
C118	C	1.505518	0.212056	1.382589
C119	C	1.073265	-0.303315	0.930864
C120	C	1.573265	0.196685	1.430864
C121	C	1.141026	-0.318788	0.833164
C122	C	1.641026	0.181212	1.333164
C123	C	1.055142	-0.245921	0.833183
C124	C	1.555142	0.254079	1.333183
C125	C	1.122944	-0.261297	0.882532
C126	C	1.622944	0.238703	1.382532
C127	C	1.073218	-0.303388	0.700781
C128	C	1.573218	0.196612	1.200781
C129	C	1.073291	-0.303287	1.014961
C130	C	1.573291	0.196713	1.514961
H131	H	0.527360	-0.225664	0.266107
H132	H	1.027360	0.274336	0.766107
O133	O	0.979676	-0.938948	0.263782
O134	O	1.479676	-0.438948	0.763782
C135	C	0.937791	-0.982104	0.221855
C136	C	1.437791	-0.482104	0.721855
H137	H	0.968232	-1.028951	0.219313
H138	H	1.468232	-0.528951	0.719313
H139	H	0.929902	-0.963145	0.163333
H140	H	1.429902	-0.463145	0.663333
H141	H	0.881372	-0.989115	0.249013
H142	H	1.381372	-0.489115	0.749013
O143	O	1.209386	-0.334480	0.807469
O144	O	1.709386	0.165520	1.307469
C145	C	1.228467	-0.394841	0.833227
C146	C	1.728467	0.105159	1.333227
H147	H	1.195347	-0.405928	0.885383
H148	H	1.695347	0.094072	1.385383
H149	H	1.290189	-0.396309	0.846490
H150	H	1.790189	0.103691	1.346490
H151	H	1.215294	-0.431095	0.788639
H152	H	1.715294	0.068905	1.288639
H153	H	0.986968	-0.543170	0.271250
H154	H	1.486968	-0.043170	0.771250
O155	O	0.624114	-0.188115	0.394370
O156	O	1.124114	0.311885	0.894370
C157	C	0.702220	-0.188796	0.394176
C158	C	1.202220	0.311204	0.894176
H159	H	0.722662	-0.238963	0.402332
H160	H	1.222662	0.261037	0.902332
H161	H	0.723777	-0.157946	0.441095
H162	H	1.223777	0.342054	0.941095
H163	H	0.723379	-0.170029	0.338947
H164	H	1.223379	0.329971	0.838947
H165	H	0.619869	-0.381124	0.448952
H166	H	1.119869	0.118876	0.948952
H167	H	1.159388	-0.943819	0.443768
H168	H	1.659388	-0.443819	0.943768
O169	O	1.173188	-0.218945	0.908187
O170	O	1.673188	0.281055	1.408187
C171	C	1.244477	-0.235399	0.882850
C172	C	1.744477	0.264601	1.382850
H173	H	1.245849	-0.287630	0.869055
H174	H	1.745849	0.212370	1.369055
H175	H	1.286947	-0.224830	0.927908
H176	H	1.786947	0.275170	1.427908
H177	H	1.258279	-0.207042	0.831100
H178	H	1.758279	0.292958	1.331100
H179	H	1.039801	-0.197379	0.811475
H180	H	1.539801	0.302621	1.311475
H181	H	0.987031	-0.662442	0.271274
H182	H	1.487031	-0.162442	0.771274
H183	H	0.619981	-0.331705	0.232443
H184	H	1.119981	0.168295	0.732443
O185	O	1.109530	-0.418704	0.908540
O186	O	1.609530	0.081296	1.408540
C187	C	1.051171	-0.441996	0.952590
C188	C	1.551171	0.058004	1.452590
H189	H	1.016639	-0.401111	0.974256
H190	H	1.516639	0.098889	1.474256
H191	H	1.075001	-0.469416	1.001297
H192	H	1.575001	0.030584	1.501297
H193	H	1.014682	-0.474294	0.917838
H194	H	1.514682	0.025706	1.417838
H195	H	1.159431	-1.063083	0.443798
H196	H	1.659431	-0.563083	0.943798
O197	O	0.523040	-0.418833	0.320901
O198	O	1.023040	0.081167	0.820901
C199	C	0.548154	-0.463069	0.373281
C200	C	1.048154	0.036931	0.873281
H201	H	0.600153	-0.444441	0.401617
H202	H	1.100153	0.055559	0.901617
H203	H	0.561461	-0.509180	0.344072
H204	H	1.061461	-0.009180	0.844072
H205	H	0.503157	-0.471357	0.416508
H206	H	1.003157	0.028643	0.916508
O207	O	0.979709	-1.068516	0.263983
O208	O	1.479709	-0.568516	0.763983
C209	C	0.931719	-1.106534	0.306246
C210	C	1.431719	-0.606534	0.806246
H211	H	0.957882	-1.116340	0.362543
H212	H	1.457882	-0.616340	0.862543
H213	H	0.921799	-1.152784	0.275999
H214	H	1.421799	-0.652784	0.775999
H215	H	0.876670	-1.081222	0.314369
H216	H	1.376670	-0.581222	0.814369
O217	O	0.973657	-0.387924	0.807378
O218	O	1.473657	0.112076	1.307378
C219	C	0.993021	-0.448396	0.832558
C220	C	1.493021	0.051604	1.332558
H221	H	1.054624	-0.449594	0.846397
H222	H	1.554624	0.050406	1.346397
H223	H	0.980598	-0.484318	0.787387
H224	H	1.480598	0.015682	1.287387
H225	H	0.959500	-0.460175	0.884248
H226	H	1.459500	0.039825	1.384248
H227	H	0.948238	-0.274925	0.904300
H228	H	1.448238	0.225075	1.404300
H229	H	0.527103	-0.275226	0.482625
H230	H	1.027103	0.224774	0.982625
H231	H	1.159210	-0.542979	0.443686
H232	H	1.659210	-0.042979	0.943686
O233	O	1.166675	-0.667343	0.451285
O234	O	1.666675	-0.167343	0.951285
C235	C	1.150376	-0.651266	0.525291
C236	C	1.650376	-0.151266	1.025291
H237	H	1.121815	-0.603546	0.526808
H238	H	1.621815	-0.103546	1.026808
H239	H	1.203950	-0.648979	0.558629
H240	H	1.703950	-0.148979	1.058629
H241	H	1.112186	-0.688273	0.550280
H242	H	1.612186	-0.188273	1.050280
