data_functionalizedCrystal
_audit_creation_method	'MofGen! by Chris Wilmer'
_symmetry_space_group_name_H-M	'P1'
_symmetry_Int_Tables_number	1
_symmetry_cell_setting	triclinic
loop_
_symmetry_equiv_pos_as_xyz
  x,y,z
_cell_length_a	11.026607
_cell_length_b	10.908878
_cell_length_c	11.295487
_cell_angle_alpha	93.074138
_cell_angle_beta	95.010655
_cell_angle_gamma	95.664596
loop_
_atom_site_label
_atom_site_type_symbol
_atom_site_fract_x
_atom_site_fract_y
_atom_site_fract_z
O1	O	-1.515966	0.507310	-0.099016
O2	O	-1.174466	0.448808	-0.099019
O3	O	-1.390486	0.301592	-0.099016
O4	O	-1.299946	0.654526	-0.099020
O5	O	-1.371505	0.314485	0.099035
O6	O	-1.155485	0.461701	0.099032
O7	O	-1.496985	0.520203	0.099035
Cu8	Cu	-1.324502	0.492129	0.117117
Cu9	Cu	-1.346949	0.476882	-0.117101
O10	O	-1.280965	0.667419	0.099031
C11	C	-1.121943	0.444462	0.000006
C12	C	-0.993721	0.412289	0.000005
C13	C	-1.389457	0.262152	0.000008
C14	C	-1.414656	0.125424	0.000002
C15	C	-1.549508	0.524549	0.000007
C16	C	-1.677730	0.556721	0.000000
N17	N	-1.308723	0.502855	0.281853
C18	C	-0.901989	0.501124	0.000003
C19	C	-0.769464	0.467873	0.000002
C20	C	-1.281994	0.706858	0.000005
C21	C	-1.256796	0.843586	0.000003
C22	C	-1.348740	0.913848	0.000004
C23	C	-1.322699	1.055164	0.000002
C24	C	-1.195194	0.580202	0.468874
C25	C	-1.207101	0.572073	0.344210
C26	C	-1.398442	0.441758	0.344169
C27	C	-1.386534	0.449887	0.468833
C28	C	-1.284908	0.519113	0.531181
C29	C	-1.273005	0.527248	0.655847
C30	C	-1.464341	0.396926	0.655804
C31	C	-1.476248	0.388797	0.531140
N32	N	-1.362724	0.466151	0.718162
H33	H	-0.921563	0.601795	0.000009
Br34	Br	-0.736858	0.300070	0.000017
H35	H	-0.697296	0.657400	0.000007
H36	H	-0.974149	0.311616	-0.000024
H37	H	-1.158799	0.888052	0.000010
Br38	Br	-1.085337	0.654977	0.259652
H39	H	-1.190259	0.583619	0.706609
H40	H	-1.446736	0.869383	0.000012
H41	H	-1.224695	1.099624	0.000008
H42	H	-1.112451	0.636579	0.519638
H43	H	-1.537394	0.347187	0.706548
Br44	Br	-1.578004	1.051336	0.000012
Br45	Br	-1.536343	0.347793	0.259543
H46	H	-1.558988	0.332431	0.480362
