data_functionalizedCrystal
_audit_creation_method	'MofGen! by Chris Wilmer'
_symmetry_space_group_name_H-M	'P1'
_symmetry_Int_Tables_number	1
_symmetry_cell_setting	triclinic
loop_
_symmetry_equiv_pos_as_xyz
  x,y,z
_cell_length_a	9.130313
_cell_length_b	10.654543
_cell_length_c	10.654550
_cell_angle_alpha	95.516525
_cell_angle_beta	90.005090
_cell_angle_gamma	89.999665
loop_
_atom_site_label
_atom_site_type_symbol
_atom_site_fract_x
_atom_site_fract_y
_atom_site_fract_z
O1	O	0.121795	-1.667839	0.176358
O2	O	0.621795	-1.167839	0.676358
O3	O	0.121798	-1.302359	0.193173
O4	O	0.621798	-0.802359	0.693173
O5	O	0.121787	-1.493502	0.002026
O6	O	0.621787	-0.993502	0.502026
O7	O	0.121806	-1.476696	0.367505
O8	O	0.621806	-0.976696	0.867505
O9	O	-0.121812	-1.493500	0.002017
O10	O	0.378188	-0.993500	0.502017
O11	O	-0.121800	-1.302358	0.193164
O12	O	0.378200	-0.802358	0.693164
O13	O	-0.121804	-1.667837	0.176349
O14	O	0.378196	-1.167837	0.676349
Cu15	Cu	-0.144045	-1.485097	0.184756
Cu16	Cu	0.355955	-0.985097	0.684756
Cu17	Cu	0.144039	-1.485099	0.184767
Cu18	Cu	0.644039	-0.985099	0.684767
O19	O	-0.121793	-1.476694	0.367496
O20	O	0.378207	-0.976694	0.867496
C21	C	-0.000000	-1.255560	0.191936
C22	C	0.500000	-0.755560	0.691936
C23	C	0.000001	-1.116117	0.188248
C24	C	0.500001	-0.616117	0.688248
N25	N	-0.346667	-1.485105	0.184747
N26	N	0.153333	-0.985105	0.684747
N27	N	0.346662	-1.485102	0.184765
N28	N	0.846662	-0.985102	0.684765
C29	C	-0.000003	-0.905601	0.297316
C30	C	0.499997	-0.405601	0.797316
C31	C	0.000008	-1.036622	0.300791
C32	C	0.500008	-0.536622	0.800791
C33	C	-0.000003	-1.064584	0.072221
C34	C	0.499997	-0.564584	0.572221
C35	C	-0.000004	-0.933565	0.068747
C36	C	0.499996	-0.433565	0.568747
C37	C	0.423309	-1.569900	0.100293
C38	C	0.923309	-1.069900	0.600293
C39	C	0.576645	-1.569905	0.100287
C40	C	1.076645	-1.069905	0.600287
C41	C	0.576675	-1.400302	0.269228
C42	C	1.076675	-0.900302	0.769228
C43	C	0.423341	-1.400304	0.269240
C44	C	0.923341	-0.900304	0.769240
C45	C	-0.000006	-0.714635	0.177592
C46	C	0.499994	-0.214635	0.677592
C47	C	-0.000011	-0.854077	0.181299
C48	C	0.499989	-0.354077	0.681299
C49	C	-0.000011	-1.492267	-0.044776
C50	C	0.499989	-0.992267	0.455224
C51	C	-0.000009	-1.488575	-0.184219
C52	C	0.499991	-0.988575	0.315781
C53	C	-0.000010	-1.601117	-0.263708
C54	C	0.499990	-1.101117	0.236292
C55	C	0.000008	-1.597641	-0.394729
C56	C	0.500008	-1.097641	0.105271
C57	C	0.000021	-1.369071	-0.366760
C58	C	0.500021	-0.869071	0.133240
C59	C	0.000014	-1.372548	-0.235741
C60	C	0.500014	-0.872548	0.264259
C61	C	0.000009	-1.477929	0.414299
C62	C	0.500009	-0.977929	0.914299
C63	C	0.000016	-1.481621	0.553742
C64	C	0.500016	-0.981621	1.053742
H65	H	-0.000008	-0.840885	0.388963
H66	H	0.499992	-0.340885	0.888963
H67	H	-0.000025	-1.695594	-0.221763
H68	H	0.499975	-1.195594	0.278237
Cl69	Cl	0.000006	-0.868787	-0.077115
Cl70	Cl	0.500006	-0.368787	0.422885
Cl71	Cl	-0.000009	-1.164520	-0.069264
Cl72	Cl	0.499991	-0.664520	0.430736
Cl73	Cl	0.326918	-1.676507	-0.005898
Cl74	Cl	0.826918	-1.176507	0.494102
H75	H	0.639047	-1.638957	0.031504
H76	H	1.139047	-1.138957	0.531504
Cl77	Cl	0.673078	-1.293700	0.375415
Cl78	Cl	1.173078	-0.793700	0.875415
H79	H	0.360931	-1.331250	0.338033
H80	H	0.860931	-0.831250	0.838033
Cl81	Cl	0.000049	-1.223216	-0.431540
Cl82	Cl	0.500049	-0.723216	0.068460
Cl83	Cl	0.000024	-1.101390	0.446649
Cl84	Cl	0.500024	-0.601390	0.946649
Cl85	Cl	0.000010	-1.739129	-0.494652
Cl86	Cl	0.500010	-1.239129	0.005348
H87	H	0.000019	-1.280897	-0.171018
H88	H	0.500019	-0.780897	0.328982
