data_functionalizedCrystal
_audit_creation_method	'MofGen! by Chris Wilmer'
_symmetry_space_group_name_H-M	'P1'
_symmetry_Int_Tables_number	1
_symmetry_cell_setting	triclinic
loop_
_symmetry_equiv_pos_as_xyz
  x,y,z
_cell_length_a	21.395362
_cell_length_b	19.805405
_cell_length_c	21.395355
_cell_angle_alpha	89.980090
_cell_angle_beta	89.956060
_cell_angle_gamma	90.042288
loop_
_atom_site_label
_atom_site_type_symbol
_atom_site_fract_x
_atom_site_fract_y
_atom_site_fract_z
Zn1	Zn	0.957878	-0.269255	-0.354580
Zn2	Zn	0.957789	-0.382425	-0.249800
Zn3	Zn	0.853093	-0.269286	-0.249781
Zn4	Zn	0.853070	-0.382438	-0.354504
O5	O	0.905458	-0.325851	-0.302166
O6	O	1.045544	-0.284248	-0.340720
O7	O	0.943873	-0.367424	-0.162119
O8	O	0.867040	-0.174565	-0.263706
O9	O	1.045478	-0.367393	-0.263738
O10	O	0.944025	-0.174542	-0.340701
O11	O	0.866953	-0.284302	-0.162105
O12	O	0.765412	-0.284315	-0.263633
O13	O	0.867001	-0.367417	-0.442192
O14	O	0.765395	-0.367448	-0.340573
O15	O	0.944003	-0.284261	-0.442247
O16	O	0.943850	-0.477143	-0.263665
O17	O	0.866914	-0.477153	-0.340591
C18	C	0.742670	-0.325887	-0.302093
C19	C	0.673029	-0.325918	-0.302077
C20	C	0.905387	-0.501707	-0.302136
C21	C	0.905414	-0.576939	-0.302144
C22	C	0.640323	-0.369263	-0.342080
C23	C	0.574888	-0.369246	-0.342108
C24	C	0.542160	-0.325892	-0.302122
C25	C	0.574874	-0.282539	-0.262116
C26	C	0.640308	-0.282553	-0.262094
C27	C	0.438435	-0.320440	-0.245717
C28	C	0.373002	-0.320431	-0.245738
C29	C	0.340340	-0.325848	-0.302191
C30	C	0.373118	-0.331287	-0.358624
C31	C	0.438552	-0.331301	-0.358602
C32	C	0.471208	-0.325873	-0.302142
C33	C	0.236682	-0.369177	-0.342227
C34	C	0.171245	-0.369156	-0.342256
C35	C	0.171232	-0.282452	-0.262259
C36	C	0.236668	-0.282470	-0.262236
C37	C	0.269388	-0.325836	-0.302219
C38	C	0.945514	-0.612255	-0.262130
C39	C	0.945540	-0.682944	-0.262144
C40	C	0.905464	-0.718315	-0.302169
C41	C	0.865362	-0.682993	-0.342187
C42	C	0.865339	-0.612306	-0.342175
C43	C	0.865455	-0.968067	-0.342233
C44	C	0.865480	-1.038759	-0.342240
C45	C	0.945656	-1.038704	-0.262202
C46	C	0.945633	-0.968017	-0.262191
C47	C	0.905534	-0.932702	-0.302210
C48	C	0.905507	-0.856053	-0.302196
C49	C	0.905488	-0.794962	-0.302181
C50	C	1.068881	-0.325816	-0.302239
C51	C	1.138522	-0.325800	-0.302271
C52	C	0.905510	-0.325837	-0.465589
C53	C	0.905532	-0.325831	-0.535231
C54	C	0.905545	-0.149308	-0.302210
C55	C	0.905583	-0.074076	-0.302229
C56	C	0.945625	-0.282530	-0.567974
C57	C	0.945624	-0.282501	-0.633409
C58	C	0.905537	-0.325785	-0.666099
C59	C	0.865436	-0.369089	-0.633348
C60	C	0.865433	-0.369112	-0.567914
C61	C	0.900565	-0.386731	-0.769762
C62	C	0.900572	-0.386709	-0.835195
C63	C	0.905540	-0.325714	-0.867920
C64	C	0.910516	-0.264738	-0.835204
C65	C	0.910513	-0.264762	-0.769770
C66	C	0.905534	-0.325765	-0.737051
C67	C	0.945635	-0.282378	-0.971615
C68	C	0.945630	-0.282347	-1.037052
C69	C	0.865444	-0.368941	-1.036990
C70	C	0.865446	-0.368966	-0.971555
C71	C	0.905545	-0.325685	-0.938871
C72	C	0.905442	-0.325816	-0.139378
C73	C	0.905541	-0.325631	-0.069738
H74	H	0.666960	-0.404574	-0.374638
H75	H	0.144586	-0.247150	-0.229705
C76	C	0.989600	-0.573354	-0.218103
H77	H	1.013489	-0.604514	-0.194280
H78	H	0.965639	-0.545821	-0.190768
H79	H	1.016881	-0.545735	-0.242106
H80	H	0.978193	-0.711695	-0.229561
H81	H	0.666936	-0.247254	-0.229519
C82	C	0.989728	-0.234871	-0.669437
H83	H	0.983983	-0.241054	-0.713088
H84	H	1.031820	-0.244773	-0.658745
H85	H	0.980580	-0.189395	-0.658709
H86	H	0.978308	-1.067466	-0.229618
H87	H	0.465024	-0.316026	-0.199743
C88	C	0.538876	-0.234852	-0.218133
H89	H	0.495222	-0.241056	-0.223871
H90	H	0.549648	-0.189391	-0.227376
H91	H	0.549546	-0.244695	-0.176013
H92	H	0.914563	-0.215070	-0.861848
H93	H	0.914562	-0.215113	-0.743136
H94	H	0.263297	-0.247178	-0.229658
H95	H	0.832782	-0.404372	-0.541255
C96	C	0.821353	-0.416557	-1.072941
H97	H	0.827099	-0.410347	-1.116601
H98	H	0.779259	-0.406671	-1.062188
H99	H	0.830509	-0.462037	-1.062222
H100	H	0.346526	-0.335697	-0.404594
H101	H	0.832845	-1.067556	-0.374837
H102	H	0.978265	-0.939220	-0.229597
C103	C	0.821337	-0.929229	-0.386242
H104	H	0.797467	-0.960420	-0.410072
H105	H	0.845274	-0.901607	-0.413572
H106	H	0.794040	-0.901703	-0.362227
H107	H	0.263324	-0.404485	-0.374787
H108	H	0.978277	-0.247083	-1.063710
H109	H	0.978282	-0.247132	-0.945003
H110	H	0.832734	-0.711798	-0.374778
C111	C	0.821348	-0.416602	-0.935536
H112	H	0.797475	-0.442381	-0.964374
H113	H	0.794061	-0.390726	-0.909990
H114	H	0.845304	-0.446100	-0.910028
H115	H	0.548254	-0.404542	-0.374685
C116	C	0.336952	-0.314447	-0.183665
H117	H	0.365775	-0.311210	-0.150042
H118	H	0.311387	-0.353223	-0.178095
H119	H	0.311461	-0.275205	-0.184560
C120	C	0.474606	-0.337273	-0.420674
H121	H	0.445786	-0.340493	-0.454301
H122	H	0.500100	-0.376509	-0.419787
H123	H	0.500168	-0.298489	-0.426232
H124	H	0.144617	-0.404451	-0.374835
C125	C	0.821231	-0.573458	-0.386191
H126	H	0.797363	-0.604646	-0.410027
H127	H	0.845179	-0.545841	-0.413515
H128	H	0.793931	-0.545928	-0.362184
H129	H	0.978276	-0.247287	-0.541367
H130	H	0.896524	-0.436359	-0.861827
C131	C	0.894962	-0.453817	-0.733770
H132	H	0.891968	-0.490124	-0.762624
H133	H	0.858610	-0.452858	-0.708268
H134	H	0.930822	-0.459857	-0.708220
C135	C	0.821344	-0.416703	-0.669304
H136	H	0.827092	-0.410494	-0.712965
H137	H	0.779250	-0.406813	-0.658553
H138	H	0.830495	-0.462184	-0.658584
