data_functionalizedCrystal
_audit_creation_method	'MofGen! by Chris Wilmer'
_symmetry_space_group_name_H-M	'P1'
_symmetry_Int_Tables_number	1
_symmetry_cell_setting	triclinic
loop_
_symmetry_equiv_pos_as_xyz
  x,y,z
_cell_length_a	11.792254
_cell_length_b	11.792254
_cell_length_c	16.776229
_cell_angle_alpha	89.993192
_cell_angle_beta	89.992926
_cell_angle_gamma	84.198598
loop_
_atom_site_label
_atom_site_type_symbol
_atom_site_fract_x
_atom_site_fract_y
_atom_site_fract_z
O1	O	1.506911	0.155638	-0.066288
O2	O	1.176573	0.171656	-0.066290
O3	O	1.349751	-0.001522	-0.066283
O4	O	1.333733	0.328816	-0.066295
O5	O	1.349728	-0.001533	0.066293
O6	O	1.176550	0.171645	0.066287
O7	O	1.506888	0.155627	0.066289
Zn8	Zn	1.341715	0.163634	0.087337
Zn9	Zn	1.341746	0.163649	-0.087338
O10	O	1.333710	0.328805	0.066282
C11	C	1.134271	0.170642	-0.000002
C12	C	1.008257	0.167621	-0.000002
C13	C	0.905921	0.165168	-0.000006
C14	C	0.777534	0.162099	-0.000006
C15	C	1.348730	-0.043818	0.000005
C16	C	1.345710	-0.169832	0.000004
C17	C	1.343256	-0.272168	0.000001
C18	C	1.340188	-0.400555	-0.000006
C19	C	1.549190	0.156642	-0.000001
C20	C	1.675204	0.159662	-0.000006
C21	C	1.334731	0.371102	-0.000008
C22	C	1.337751	0.497115	-0.000012
N23	N	1.341703	0.163624	0.206548
N24	N	1.341767	0.163650	-0.206549
C25	C	1.418410	0.086973	0.248268
C26	C	1.418416	0.086972	0.331720
C27	C	1.341720	0.163629	0.373451
C28	C	1.265005	0.240284	0.331725
C29	C	1.264994	0.240278	0.248275
C30	C	1.265046	0.240306	0.668273
C31	C	1.265065	0.240308	0.751729
C32	C	1.418468	0.087000	0.751718
C33	C	1.418457	0.086994	0.668268
C34	C	1.341738	0.163645	0.626549
C35	C	1.341731	0.163643	0.536061
C36	C	1.341732	0.163636	0.463938
H37	H	1.480869	0.024555	0.214297
N38	N	1.501189	0.004337	0.376719
H39	H	1.549791	-0.044206	0.337620
H40	H	1.551612	0.048181	0.411315
N41	N	1.182258	0.322958	0.203280
H42	H	1.225928	0.373506	0.168640
H43	H	1.131754	0.279157	0.168718
N44	N	1.182279	0.322956	0.376737
H45	H	1.225963	0.373510	0.411346
H46	H	1.133698	0.371436	0.337595
H47	H	1.480933	0.024583	0.785695
N48	N	1.501183	0.004320	0.623258
H49	H	1.549778	-0.044242	0.662351
H50	H	1.457418	-0.046153	0.588647
N51	N	1.182332	0.322985	0.796742
H52	H	1.133725	0.371538	0.757651
H53	H	1.131908	0.279179	0.831379
H54	H	1.202581	0.302720	0.634312
