data_functionalizedCrystal
_audit_creation_method	'MofGen! by Chris Wilmer'
_symmetry_space_group_name_H-M	'P1'
_symmetry_Int_Tables_number	1
_symmetry_cell_setting	triclinic
loop_
_symmetry_equiv_pos_as_xyz
  x,y,z
_cell_length_a	29.839131
_cell_length_b	12.759401
_cell_length_c	12.759401
_cell_angle_alpha	89.997822
_cell_angle_beta	90.016818
_cell_angle_gamma	89.958419
loop_
_atom_site_label
_atom_site_type_symbol
_atom_site_fract_x
_atom_site_fract_y
_atom_site_fract_z
Zn1	Zn	-0.178918	-1.605891	0.593935
Zn2	Zn	-0.254029	-1.605753	0.418235
Zn3	Zn	-0.178914	-1.430243	0.418274
Zn4	Zn	-0.254022	-1.430100	0.593877
O5	O	-0.216471	-1.517997	0.506080
O6	O	-0.188887	-1.752894	0.570636
O7	O	-0.244066	-1.582474	0.271220
O8	O	-0.116048	-1.453661	0.441616
O9	O	-0.244070	-1.752793	0.441550
O10	O	-0.116051	-1.582708	0.570673
O11	O	-0.188880	-1.453527	0.271248
O12	O	-0.188873	-1.283203	0.441560
O13	O	-0.244058	-1.453416	0.740905
O14	O	-0.244054	-1.283098	0.570575
O15	O	-0.188880	-1.582570	0.740948
O16	O	-0.316895	-1.582335	0.441494
O17	O	-0.316890	-1.453283	0.570537
C18	C	-0.216463	-1.245029	0.506066
C19	C	-0.216470	-1.128253	0.506085
C20	C	-0.333194	-1.517807	0.506028
C21	C	-0.383128	-1.517822	0.506041
C22	C	-0.216469	-1.517992	0.780113
C23	C	-0.216468	-1.517990	0.896890
C24	C	-0.692761	-1.585316	0.438986
C25	C	-0.880434	-1.585446	0.439027
O26	O	-0.904691	-1.642682	0.381974
N27	N	-0.903913	-1.518215	0.506159
C28	C	-0.880471	-1.450951	0.573292
O29	O	-0.904747	-1.393777	0.630401
C30	C	-0.692798	-1.450827	0.573256
C31	C	-0.669322	-1.518056	0.506111
C32	C	-0.669285	-1.652540	0.371847
C33	C	-0.622370	-1.652503	0.371834
C34	C	-0.598931	-1.585242	0.438959
C35	C	-0.622407	-1.518018	0.506097
C36	C	-0.669357	-1.383570	0.640393
C37	C	-0.622436	-1.383547	0.640379
C38	C	-0.598960	-1.450775	0.573235
C39	C	-0.552052	-1.450721	0.573209
N40	N	-0.528573	-1.517952	0.506076
C41	C	-0.552013	-1.585213	0.438951
C42	C	-0.979001	-1.451019	0.573305
C43	C	-1.025919	-1.451048	0.573313
C44	C	-1.025880	-1.585545	0.439048
C45	C	-0.978961	-1.585510	0.439036
C46	C	-0.955523	-1.518250	0.506172
C47	C	-0.453487	-1.585129	0.438927
C48	C	-0.406567	-1.585083	0.438916
C49	C	-0.406611	-1.450590	0.573184
C50	C	-0.453526	-1.450632	0.573191
C51	C	-0.476963	-1.517910	0.506059
O52	O	-0.527767	-1.393523	0.630240
O53	O	-0.527728	-1.642394	0.381866
C54	C	-0.739677	-1.585353	0.438999
C55	C	-0.763153	-1.518130	0.506138
C56	C	-0.739714	-1.450869	0.573263
C57	C	-0.810071	-1.518159	0.506146
C58	C	-0.833510	-1.585420	0.439021
C59	C	-0.810032	-1.652651	0.371888
C60	C	-0.763116	-1.652614	0.371874
C61	C	-0.763192	-1.383638	0.640396
C62	C	-0.810108	-1.383680	0.640403
C63	C	-0.833547	-1.450940	0.573278
C64	C	-0.099293	-1.518216	0.506156
C65	C	-0.049358	-1.518309	0.506188
C66	C	-0.216480	-1.792030	0.506095
C67	C	-0.216483	-1.908807	0.506102
C68	C	-0.245249	-1.073363	0.573152
C69	C	-0.245255	-0.963639	0.573163
C70	C	-0.187701	-0.963704	0.439032
C71	C	-0.187694	-1.073426	0.439027
C72	C	-0.278479	-1.073325	0.650588
C73	C	-0.278484	-0.963601	0.650599
C74	C	-0.187742	-1.585234	0.951776
C75	C	-0.187743	-1.585228	1.061500
C76	C	-0.245199	-1.450731	1.061443
C77	C	-0.245196	-1.450733	0.951721
C78	C	-0.154572	-1.662888	0.951810
C79	C	-0.154573	-1.662882	1.061534
C80	C	-0.216480	-1.517990	1.233113
C81	C	-0.216473	-1.517982	1.116336
H82	H	-0.387454	-1.639828	0.384235
H83	H	-0.311507	-1.107312	0.621295
H84	H	-0.387519	-1.395824	0.627833
O85	O	-0.115179	-1.628164	1.102346
C86	C	-0.072827	-1.590927	1.258784
C87	C	-0.117462	-1.630253	1.212702
H88	H	-0.074654	-1.592624	1.348012
H89	H	-0.066384	-1.507277	1.231270
H90	H	-0.044383	-1.643841	1.231174
H91	H	-0.145933	-1.577416	1.240291
H92	H	-0.123866	-1.713920	1.240210
H93	H	-0.268588	-1.395970	1.106099
O94	O	-0.263690	-0.923195	0.742960
C95	C	-0.235819	-0.959666	0.916449
C96	C	-0.252578	-1.005567	0.811921
H97	H	-0.226821	-1.026241	0.972225
H98	H	-0.263294	-0.909378	0.952907
H99	H	-0.204903	-0.909384	0.901566
H100	H	-0.283486	-1.055896	0.826715
H101	H	-0.225076	-1.055795	0.775496
H102	H	-0.119775	-1.641166	0.922063
O103	O	-0.159688	-1.126795	0.374036
C104	C	-0.099034	-1.250804	0.360175
C105	C	-0.130717	-1.190409	0.433898
H106	H	-0.075609	-1.302267	0.408542
H107	H	-0.078436	-1.192818	0.312266
H108	H	-0.119626	-1.302095	0.305124
H109	H	-0.110158	-1.139116	0.489013
H110	H	-0.151316	-1.248452	0.481733
O111	O	-0.319997	-0.928184	0.624359
C112	C	-0.395644	-0.973891	0.576676
C113	C	-0.348652	-1.014143	0.606353
H114	H	-0.418827	-1.043368	0.562132
H115	H	-0.393356	-0.924285	0.502558
H116	H	-0.409545	-0.924209	0.643449
H117	H	-0.334723	-1.063868	0.539649
H118	H	-0.350968	-1.063692	0.680504
H119	H	-1.044972	-1.640312	0.384393
O120	O	-0.956138	-1.650669	0.373706
C121	C	-0.903165	-1.664902	0.231899
C122	C	-0.928989	-1.590985	0.305804
H123	H	-0.881202	-1.616678	0.176997
H124	H	-0.927962	-1.712956	0.183849
H125	H	-0.881190	-1.719810	0.280198
H126	H	-0.950965	-1.536013	0.257587
H127	H	-0.904169	-1.543005	0.353858
O128	O	-0.273135	-1.385363	0.898566
C129	C	-0.330090	-1.251882	0.910093
C130	C	-0.298481	-1.325887	0.970420
H131	H	-0.350584	-1.203760	0.968160
H132	H	-0.353616	-1.300001	0.858727
H133	H	-0.309444	-1.197042	0.858718
H134	H	-0.319090	-1.380741	1.021852
H135	H	-0.274954	-1.277702	1.021720
O136	O	-0.267373	-1.109010	0.747624
C137	C	-0.215623	-1.210695	0.851095
C138	C	-0.228154	-1.170371	0.741146
H139	H	-0.183909	-1.260295	0.845898
H140	H	-0.244197	-1.260360	0.883428
H141	H	-0.209472	-1.141207	0.905374
H142	H	-0.234297	-1.239796	0.686787
H143	H	-0.199573	-1.120674	0.708899
H144	H	-0.167039	-1.740156	0.917771
O145	O	-0.165725	-1.759975	1.096890
C146	C	-0.185984	-1.936923	1.051071
C147	C	-0.173370	-1.827015	1.010889
H148	H	-0.192160	-1.991161	0.981560
H149	H	-0.217684	-1.931612	1.100644
H150	H	-0.157412	-1.969379	1.100769
H151	H	-0.201914	-1.794495	0.961148
H152	H	-0.141656	-1.832392	0.961373
O153	O	-1.048701	-1.385847	0.638680
C154	C	-1.063019	-1.334669	0.817353
C155	C	-1.037202	-1.408588	0.743437
H156	H	-1.053724	-1.353014	0.902063
H157	H	-1.100585	-1.346239	0.805930
H158	H	-1.053836	-1.249970	0.798774
H159	H	-1.046347	-1.493315	0.761970
H160	H	-0.999642	-1.396927	0.754873
O161	O	-0.476196	-1.650631	0.373764
C162	C	-0.490477	-1.829407	0.322956
C163	C	-0.464726	-1.755348	0.396807
H164	H	-0.481221	-1.914087	0.341574
H165	H	-0.481260	-1.811101	0.238209
H166	H	-0.528043	-1.817854	0.334459
H167	H	-0.427154	-1.766860	0.385397
H168	H	-0.473980	-1.773672	0.481526
O169	O	-0.599619	-1.717769	0.306472
C170	C	-0.585263	-1.768894	0.127801
C171	C	-0.611059	-1.694921	0.201704
H172	H	-0.594495	-1.750434	0.043079
H173	H	-0.594463	-1.853612	0.146253
H174	H	-0.547703	-1.757352	0.139365
H175	H	-0.648624	-1.706370	0.190181
H176	H	-0.601821	-1.610231	0.183234
O177	O	-0.691986	-1.718055	0.306687
C178	C	-0.706233	-1.896853	0.255904
C179	C	-0.680503	-1.822758	0.329759
H180	H	-0.696966	-1.981522	0.274546
H181	H	-0.697007	-1.878556	0.171160
H182	H	-0.743802	-1.885329	0.267377
H183	H	-0.642928	-1.834241	0.318379
H184	H	-0.689766	-1.841074	0.414475
H185	H	-0.959921	-1.396246	0.627976
H186	H	-0.744005	-1.707358	0.317199
H187	H	-0.603354	-1.328777	0.695053
O188	O	-0.692133	-1.318379	0.705775
C189	C	-0.706440	-1.267222	0.884459
C190	C	-0.680628	-1.341134	0.810525
H191	H	-0.697141	-1.285578	0.969163
H192	H	-0.744007	-1.278786	0.873046
H193	H	-0.697256	-1.182522	0.865887
H194	H	-0.689774	-1.425863	0.829051
H195	H	-0.643067	-1.329479	0.821951
O196	O	-0.476264	-1.385292	0.638509
C197	C	-0.471346	-1.251852	0.771645
C198	C	-0.445544	-1.325803	0.697731
H199	H	-0.446520	-1.203720	0.819529
H200	H	-0.493264	-1.300015	0.826701
H201	H	-0.493361	-1.197019	0.723360
H202	H	-0.423504	-1.380651	0.745930
H203	H	-0.423654	-1.277574	0.642671
H204	H	-0.164272	-0.919050	0.384436
H205	H	-0.829124	-1.707415	0.317229
H206	H	-0.744112	-1.328867	0.695058
O207	O	-0.832840	-1.318334	0.705731
C208	C	-0.827915	-1.184900	0.838871
C209	C	-0.802117	-1.258855	0.764953
H210	H	-0.803086	-1.136777	0.886756
H211	H	-0.849834	-1.233060	0.893927
H212	H	-0.849928	-1.130060	0.790590
H213	H	-0.780079	-1.313710	0.813150
H214	H	-0.780226	-1.210630	0.709894
