data_functionalizedCrystal
_audit_creation_method	'MofGen! by Chris Wilmer'
_symmetry_space_group_name_H-M	'P1'
_symmetry_Int_Tables_number	1
_symmetry_cell_setting	triclinic
loop_
_symmetry_equiv_pos_as_xyz
  x,y,z
_cell_length_a	18.050591
_cell_length_b	18.050590
_cell_length_c	18.050582
_cell_angle_alpha	90.013008
_cell_angle_beta	90.020922
_cell_angle_gamma	90.004047
loop_
_atom_site_label
_atom_site_type_symbol
_atom_site_fract_x
_atom_site_fract_y
_atom_site_fract_z
Zn1	Zn	1.135397	-0.295786	0.420081
Zn2	Zn	1.635397	0.204214	0.920081
Zn3	Zn	1.135351	-0.419969	0.295912
Zn4	Zn	1.635351	0.080031	0.795912
Zn5	Zn	1.011216	-0.295789	0.295892
Zn6	Zn	1.511216	0.204211	0.795892
Zn7	Zn	1.011208	-0.419930	0.420047
Zn8	Zn	1.511208	0.080070	0.920047
O9	O	1.073293	-0.357868	0.357983
O10	O	1.573293	0.142132	0.857983
O11	O	1.239315	-0.312274	0.403632
O12	O	1.739315	0.187726	0.903632
O13	O	1.118869	-0.403514	0.191984
O14	O	1.618869	0.096486	0.691984
O15	O	1.027711	-0.191864	0.312372
O16	O	1.527711	0.308136	0.812372
O17	O	1.239282	-0.403511	0.312405
O18	O	1.739282	0.096489	0.812405
O19	O	1.118946	-0.191861	0.403613
O20	O	1.618946	0.308139	0.903613
O21	O	1.027667	-0.312279	0.191970
O22	O	1.527667	0.187721	0.691970
O23	O	0.907290	-0.312241	0.312339
O24	O	1.407290	0.187759	0.812339
O25	O	1.027697	-0.403444	0.523976
O26	O	1.527697	0.096556	1.023976
O27	O	0.907284	-0.403447	0.403555
O28	O	1.407284	0.096553	0.903555
O29	O	1.118938	-0.312236	0.524001
O30	O	1.618938	0.187764	1.024001
O31	O	1.118861	-0.523888	0.312372
O32	O	1.618861	-0.023888	0.812372
O33	O	1.027653	-0.523859	0.403574
O34	O	1.527653	-0.023859	0.903574
C35	C	0.880341	-0.357841	0.357942
C36	C	1.380341	0.142159	0.857942
C37	C	0.797795	-0.357847	0.357942
C38	C	1.297795	0.142153	0.857942
C39	C	1.073271	-0.550820	0.357988
C40	C	1.573271	-0.050820	0.857988
C41	C	1.073330	-0.633366	0.358015
C42	C	1.573330	-0.133366	0.858015
C43	C	1.073322	-0.357835	0.551689
C44	C	1.573322	0.142165	1.051689
C45	C	1.073334	-0.357821	0.634234
C46	C	1.573334	0.142179	1.134234
C47	C	0.598326	-0.308191	0.308453
C48	C	1.098326	0.191809	0.808453
C49	C	0.548930	-0.375927	0.290188
C50	C	1.048930	0.124073	0.790188
C51	C	0.646665	-0.357869	0.357975
C52	C	1.146665	0.142131	0.857975
C53	C	0.548979	-0.290157	0.376238
C54	C	1.048979	0.209843	0.876238
C55	C	0.500679	-0.357885	0.358006
C56	C	1.000679	0.142115	0.858006
C57	C	0.598356	-0.425641	0.339675
C58	C	1.098356	0.074359	0.839675
C59	C	0.598409	-0.339825	0.425757
C60	C	1.098409	0.160175	0.925757
C61	C	0.549035	-0.407607	0.407518
C62	C	1.049035	0.092393	0.907518
C63	C	0.730763	-0.357859	0.357956
C64	C	1.230763	0.142141	0.857956
C65	C	0.416583	-0.357903	0.358026
C66	C	0.916583	0.142097	0.858026
C67	C	1.266998	-0.357897	0.358024
C68	C	1.766998	0.142103	0.858024
C69	C	1.349544	-0.357909	0.358042
C70	C	1.849544	0.142091	0.858042
C71	C	1.073335	-0.164163	0.357994
C72	C	1.573335	0.335837	0.857994
C73	C	1.073353	-0.081617	0.357999
C74	C	1.573353	0.418383	0.857999
C75	C	1.122964	0.117835	0.407631
C76	C	1.622964	0.617835	0.907631
C77	C	1.141118	0.167214	0.339883
C78	C	1.641118	0.667214	0.839883
C79	C	1.073345	0.069513	0.358003
C80	C	1.573345	0.569513	0.858003
C81	C	1.055218	0.167216	0.425753
C82	C	1.555218	0.667216	0.925753
C83	C	1.073340	0.215499	0.358012
C84	C	1.573340	0.715499	0.858012
C85	C	1.091535	0.117805	0.290218
C86	C	1.591535	0.617805	0.790218
C87	C	1.005604	0.117803	0.376135
C88	C	1.505604	0.617803	0.876135
C89	C	1.023732	0.167160	0.308339
C90	C	1.523732	0.667160	0.808339
C91	C	1.073351	-0.014585	0.357998
C92	C	1.573351	0.485415	0.857998
C93	C	1.073334	0.299595	0.358009
C94	C	1.573334	0.799595	0.858009
C95	C	1.073307	-0.357847	0.165031
C96	C	1.573307	0.142153	0.665031
C97	C	1.073438	-0.357652	0.082485
C98	C	1.573438	0.142348	0.582485
C99	C	1.023755	-0.407352	0.833672
C100	C	1.523755	0.092648	1.333672
C101	C	1.091517	-0.425511	0.883073
C102	C	1.591517	0.074489	1.383073
C103	C	1.073371	-0.357765	0.785365
C104	C	1.573371	0.142235	1.285365
C105	C	1.005647	-0.339586	0.883045
C106	C	1.505647	0.160414	1.383045
C107	C	1.073400	-0.357711	0.931350
C108	C	1.573400	0.142289	1.431350
C109	C	1.141168	-0.375958	0.833679
C110	C	1.641168	0.124042	1.333679
C111	C	1.055252	-0.290002	0.833647
C112	C	1.555252	0.209998	1.333647
C113	C	1.123060	-0.308134	0.883026
C114	C	1.623060	0.191866	1.383026
C115	C	1.073353	-0.357797	0.701266
C116	C	1.573353	0.142203	1.201266
C117	C	1.073426	-0.357679	1.015447
C118	C	1.573426	0.142321	1.515447
H119	H	0.619969	-0.266226	0.266528
H120	H	1.119969	0.233774	0.766528
Cl121	Cl	0.631989	-0.316212	0.514213
Cl122	Cl	1.131989	0.183788	1.014213
Cl123	Cl	0.631698	-0.514087	0.315743
Cl124	Cl	1.131698	-0.014087	0.815743
Cl125	Cl	0.958952	0.200403	0.243475
Cl126	Cl	1.458952	0.700403	0.743475
Cl127	Cl	1.031533	-0.201586	0.800099
Cl128	Cl	1.531533	0.298414	1.300099
Cl129	Cl	0.515374	-0.399510	0.201710
Cl130	Cl	1.015374	0.100490	0.701710
H131	H	0.948334	0.096085	0.391491
H132	H	1.448334	0.596085	0.891491
Cl133	Cl	1.187797	0.084391	0.472340
Cl134	Cl	1.687797	0.584391	0.972340
Cl135	Cl	1.229560	0.200725	0.316202
Cl136	Cl	1.729560	0.700725	0.816202
H137	H	0.948361	-0.324232	0.904730
H138	H	1.448361	0.175768	1.404730
Cl139	Cl	0.515827	-0.472551	0.472199
Cl140	Cl	1.015827	0.027449	0.972199
H141	H	0.527251	-0.232894	0.391646
H142	H	1.027251	0.267106	0.891646
Cl143	Cl	1.115207	-0.513949	0.916594
Cl144	Cl	1.615207	-0.013949	1.416594
H145	H	1.039890	0.188921	0.483045
H146	H	1.539890	0.688921	0.983045
Cl147	Cl	1.115295	0.084441	0.201735
Cl148	Cl	1.615295	0.584441	0.701735
H149	H	0.981836	-0.449342	0.812002
H150	H	1.481836	0.050658	1.312002
H151	H	1.198471	-0.391377	0.812085
H152	H	1.698471	0.108623	1.312085
Cl153	Cl	1.187932	-0.243356	0.916279
Cl154	Cl	1.687932	0.256644	1.416279
