data_functionalizedCrystal
_audit_creation_method	'MofGen! by Chris Wilmer'
_symmetry_space_group_name_H-M	'P1'
_symmetry_Int_Tables_number	1
_symmetry_cell_setting	triclinic
loop_
_symmetry_equiv_pos_as_xyz
  x,y,z
_cell_length_a	10.489746
_cell_length_b	10.489741
_cell_length_c	16.776229
_cell_angle_alpha	89.993659
_cell_angle_beta	89.995805
_cell_angle_gamma	84.540238
loop_
_atom_site_label
_atom_site_type_symbol
_atom_site_fract_x
_atom_site_fract_y
_atom_site_fract_z
O1	O	1.694054	0.180003	-0.066234
O2	O	1.322860	0.196888	-0.066247
O3	O	1.516903	0.002848	-0.066236
O4	O	1.500011	0.374043	-0.066246
O5	O	1.516877	0.002836	0.066341
O6	O	1.322833	0.196876	0.066329
O7	O	1.694028	0.179990	0.066342
Zn8	Zn	1.508427	0.188431	0.087385
Zn9	Zn	1.508461	0.188447	-0.087290
O10	O	1.499985	0.374031	0.066331
C11	C	1.275315	0.195606	0.000039
C12	C	1.133686	0.191786	0.000034
C13	C	0.980828	0.066062	0.000049
C14	C	1.058209	0.128913	0.065412
C15	C	1.058190	0.128954	-0.065298
C16	C	0.958717	0.247894	0.065471
C17	C	0.958693	0.247918	-0.065298
C18	C	1.036025	0.310856	0.000081
C19	C	1.515614	-0.044690	0.000052
C20	C	1.511797	-0.186320	0.000050
C21	C	1.388333	-0.254462	0.000040
C22	C	1.446643	-0.346589	0.065409
C23	C	1.446698	-0.346552	-0.065301
C24	C	1.570159	-0.276582	0.065474
C25	C	1.570196	-0.276535	-0.065295
C26	C	1.628597	-0.368635	0.000090
C27	C	1.741573	0.181273	0.000054
C28	C	1.883202	0.185093	0.000054
C29	C	1.501273	0.421569	0.000041
C30	C	1.505091	0.563198	0.000038
N31	N	1.508413	0.188420	0.206596
N32	N	1.508485	0.188449	-0.206501
C33	C	1.594362	0.102534	0.248319
C34	C	1.594369	0.102533	0.331771
C35	C	1.508432	0.188425	0.373499
C36	C	1.422473	0.274314	0.331771
C37	C	1.422461	0.274308	0.248320
C38	C	1.422520	0.274340	0.668318
C39	C	1.422541	0.274342	0.751775
C40	C	1.594428	0.102565	0.751769
C41	C	1.594415	0.102559	0.668318
C42	C	1.508453	0.188443	0.626597
C43	C	1.508445	0.188441	0.536109
C44	C	1.508445	0.188433	0.463986
H45	H	0.915204	0.298127	-0.120564
O46	O	1.115790	0.062349	0.138614
H47	H	1.165616	0.131329	0.174534
O48	O	1.377486	-0.387593	-0.138500
H49	H	1.443347	-0.453822	-0.174430
O50	O	1.687047	0.009889	0.203312
H51	H	1.746803	-0.049842	0.246348
O52	O	0.948052	-0.071026	0.000154
H53	H	0.842407	-0.072620	-0.000395
O54	O	1.253882	-0.188668	0.000118
H55	H	1.184105	-0.261845	0.000717
O56	O	1.377447	-0.387679	0.138614
H57	H	1.277735	-0.341535	0.138480
O58	O	1.687100	0.009907	0.623316
H59	H	1.632820	-0.052608	0.585308
H60	H	1.352556	0.344287	0.785749
O61	O	1.329746	0.366921	0.203310
H62	H	1.383984	0.429436	0.165264
H63	H	0.915427	0.298104	0.120795
H64	H	1.060501	0.414436	0.000114
H65	H	1.664355	0.032598	0.365741
H66	H	1.664419	0.032629	0.785747
H67	H	1.101644	0.078688	-0.120559
H68	H	1.730200	-0.418057	0.000130
O69	O	1.639278	-0.235765	0.138766
H70	H	1.641524	-0.130193	0.138212
H71	H	1.352528	0.344272	0.634356
O72	O	1.329785	0.366964	0.376772
H73	H	1.344242	0.352552	0.441811
H74	H	1.622404	-0.245484	-0.120559
