data_functionalizedCrystal
_audit_creation_method	'MofGen! by Chris Wilmer'
_symmetry_space_group_name_H-M	'P1'
_symmetry_Int_Tables_number	1
_symmetry_cell_setting	triclinic
loop_
_symmetry_equiv_pos_as_xyz
  x,y,z
_cell_length_a	12.827893
_cell_length_b	21.295417
_cell_length_c	12.827885
_cell_angle_alpha	90.037053
_cell_angle_beta	90.019272
_cell_angle_gamma	90.029673
loop_
_atom_site_label
_atom_site_type_symbol
_atom_site_fract_x
_atom_site_fract_y
_atom_site_fract_z
Zn1	Zn	1.597566	-0.250579	0.590796
Zn2	Zn	2.097566	0.249421	1.090796
Zn3	Zn	1.597416	-0.355861	0.416034
Zn4	Zn	2.097416	0.144139	0.916034
Zn5	Zn	1.422807	-0.250610	0.416070
Zn6	Zn	1.922807	0.249390	0.916070
Zn7	Zn	1.422749	-0.355814	0.590734
Zn8	Zn	1.922749	0.144186	1.090734
O9	O	1.510134	-0.303216	0.503408
O10	O	2.010134	0.196784	1.003408
O11	O	1.743782	-0.264552	0.567624
O12	O	2.243782	0.235448	1.067624
O13	O	1.574216	-0.341932	0.269803
O14	O	2.074216	0.158068	0.769803
O15	O	1.446076	-0.162516	0.439288
O16	O	1.946076	0.337484	0.939288
O17	O	1.743672	-0.341902	0.439228
O18	O	2.243672	0.158098	0.939228
O19	O	1.574471	-0.162494	0.567659
O20	O	2.074471	0.337506	1.067659
O21	O	1.445931	-0.264604	0.269829
O22	O	1.945931	0.235396	0.769829
O23	O	1.276563	-0.264559	0.439228
O24	O	1.776563	0.235441	0.939228
O25	O	1.445977	-0.341822	0.736978
O26	O	1.945977	0.158178	1.236978
O27	O	1.276520	-0.341852	0.567553
O28	O	1.776520	0.158148	1.067553
O29	O	1.574414	-0.264506	0.737024
O30	O	2.074414	0.235494	1.237024
O31	O	1.574159	-0.443944	0.439168
O32	O	2.074159	0.056056	0.939168
O33	O	1.445832	-0.443910	0.567519
O34	O	1.945832	0.056090	1.067519
C35	C	1.238625	-0.303204	0.503388
C36	C	1.738625	0.196796	1.003388
C37	C	1.122471	-0.303214	0.503405
C38	C	1.622471	0.196786	1.003405
C39	C	1.070693	-0.341521	0.566806
C40	C	1.570693	0.158479	1.066806
C41	C	0.950643	-0.341532	0.566824
C42	C	1.450643	0.158468	1.066824
C43	C	1.510001	-0.466768	0.503355
C44	C	2.010001	0.033232	1.003355
C45	C	1.510040	-0.536736	0.503368
C46	C	2.010040	-0.036736	1.003368
C47	C	1.576857	-0.569534	0.570258
C48	C	2.076857	-0.069534	1.070258
C49	C	1.576893	-0.635276	0.570284
C50	C	2.076893	-0.135276	1.070284
C51	C	1.510125	-0.668218	0.503401
C52	C	2.010125	-0.168218	1.003401
C53	C	1.443295	-0.635413	0.436506
C54	C	1.943295	-0.135413	0.936506
C55	C	1.443253	-0.569672	0.436489
C56	C	1.943253	-0.069672	0.936489
N57	N	1.502229	-0.771487	0.411945
N58	N	2.002229	-0.271487	0.911945
N59	N	1.502275	-0.833938	0.411964
N60	N	2.002275	-0.333938	0.911964
C61	C	1.510247	-0.866293	0.503448
C62	C	2.010247	-0.366293	1.003448
N63	N	1.518191	-0.833838	0.594915
N64	N	2.018191	-0.333838	1.094915
N65	N	1.518150	-0.771380	0.594895
N66	N	2.018150	-0.271380	1.094895
C67	C	1.510163	-0.739504	0.503412
C68	C	2.010163	-0.239504	1.003412
C69	C	1.577107	-0.970376	0.570372
C70	C	2.077107	-0.470376	1.070372
C71	C	1.577136	-1.036120	0.570399
C72	C	2.077136	-0.536120	1.070399
C73	C	1.443543	-1.036255	0.436612
C74	C	1.943543	-0.536255	0.936612
C75	C	1.443508	-0.970513	0.436594
C76	C	1.943508	-0.470513	0.936594
C77	C	1.510296	-0.937577	0.503472
C78	C	2.010296	-0.437577	1.003472
C79	C	1.782704	-0.303229	0.503429
C80	C	2.282704	0.196771	1.003429
C81	C	1.898858	-0.303234	0.503438
C82	C	2.398858	0.196766	1.003438
C83	C	1.510206	-0.303156	0.775979
C84	C	2.010206	0.196844	1.275979
C85	C	1.510236	-0.303130	0.892132
C86	C	2.010236	0.196870	1.392132
C87	C	1.510297	-0.139026	0.503484
C88	C	2.010297	0.360974	1.003484
C89	C	1.510366	-0.069058	0.503517
C90	C	2.010366	0.430942	1.003517
C91	C	1.510124	-0.303231	0.231898
C92	C	2.010124	0.196769	0.731898
C93	C	1.510296	-0.303079	0.115746
C94	C	2.010296	0.196921	0.615746
C95	C	1.573798	-0.264864	0.943939
C96	C	2.073798	0.235136	1.443939
C97	C	1.573830	-0.264837	1.063990
C98	C	2.073830	0.235163	1.563990
H99	H	1.115240	-0.374306	0.621077
H100	H	1.615240	0.125694	1.121077
Cl101	Cl	1.661130	-1.077352	0.654511
Cl102	Cl	2.161130	-0.577352	1.154511
Cl103	Cl	1.426247	-0.353678	0.960863
Cl104	Cl	1.926247	0.146322	1.460863
H105	H	1.455879	-0.335844	1.071200
H106	H	1.955879	0.164156	1.571200
Cl107	Cl	1.657755	-0.214297	0.875208
Cl108	Cl	2.157755	0.285703	1.375208
Cl109	Cl	0.881901	-0.392173	0.650628
Cl110	Cl	1.381901	0.107827	1.150628
H111	H	1.628251	-0.232078	1.108542
H112	H	2.128251	0.267922	1.608542
Cl113	Cl	1.359601	-1.077662	0.352532
Cl114	Cl	1.859601	-0.577662	0.852532
H115	H	1.077924	-0.270424	0.449142
H116	H	1.577924	0.229576	0.949142
H117	H	1.631486	-0.943559	0.624832
H118	H	2.131486	-0.443559	1.124832
H119	H	1.631236	-0.542719	0.624717
H120	H	2.131236	-0.042719	1.124717
Cl121	Cl	0.967593	-0.252599	0.419620
Cl122	Cl	1.467593	0.247401	0.919620
Cl123	Cl	1.660905	-0.676516	0.654374
Cl124	Cl	2.160905	-0.176516	1.154374
Cl125	Cl	1.359505	-0.929279	0.352497
Cl126	Cl	1.859505	-0.429279	0.852497
H127	H	1.388929	-0.662239	0.382051
H128	H	1.888929	-0.162239	0.882051
H129	H	1.388841	-0.542967	0.382018
H130	H	1.888841	-0.042967	0.882018
