data_functionalizedCrystal
_audit_creation_method	'MofGen! by Chris Wilmer'
_symmetry_space_group_name_H-M	'P1'
_symmetry_Int_Tables_number	1
_symmetry_cell_setting	triclinic
loop_
_symmetry_equiv_pos_as_xyz
  x,y,z
_cell_length_a	12.759401
_cell_length_b	19.121063
_cell_length_c	12.759393
_cell_angle_alpha	92.402917
_cell_angle_beta	89.981504
_cell_angle_gamma	92.469017
loop_
_atom_site_label
_atom_site_type_symbol
_atom_site_fract_x
_atom_site_fract_y
_atom_site_fract_z
Zn1	Zn	1.588321	-0.279568	-0.611771
Zn2	Zn	1.580680	-0.397037	-0.443567
Zn3	Zn	1.412621	-0.279605	-0.436113
Zn4	Zn	1.405080	-0.396983	-0.619205
O5	O	1.496676	-0.338298	-0.527664
O6	O	1.734328	-0.295158	-0.589467
O7	O	1.558345	-0.381497	-0.295559
O8	O	1.442282	-0.181316	-0.453184
O9	O	1.728714	-0.381462	-0.465888
O10	O	1.571368	-0.181289	-0.582240
O11	O	1.434872	-0.295221	-0.290083
O12	O	1.264600	-0.295168	-0.460392
O13	O	1.429429	-0.381370	-0.765237
O14	O	1.259060	-0.381405	-0.594909
O15	O	1.564056	-0.295106	-0.759776
O16	O	1.551032	-0.495314	-0.473095
O17	O	1.422020	-0.495274	-0.602136
C18	C	1.223709	-0.338285	-0.527649
C19	C	1.106932	-0.338297	-0.527668
C20	C	1.049208	-0.383272	-0.597605
C21	C	0.939483	-0.383281	-0.597616
C22	C	0.945216	-0.293337	-0.457747
C23	C	1.054939	-0.293325	-0.457741
C24	C	1.101200	-0.428244	-0.667532
C25	C	1.043476	-0.473224	-0.737473
C26	C	0.933751	-0.473233	-0.737485
C27	C	0.881751	-0.428262	-0.667556
C28	C	1.484907	-0.520778	-0.539254
C29	C	1.479969	-0.598844	-0.544247
C30	C	1.544871	-0.635516	-0.479464
C31	C	1.540233	-0.708867	-0.484167
C32	C	1.470686	-0.745544	-0.553648
C33	C	1.405781	-0.708866	-0.618438
C34	C	1.410426	-0.635517	-0.613740
C35	C	1.453305	-0.967013	-0.571195
C36	C	1.448663	-1.040368	-0.575886
C37	C	1.583116	-1.040364	-0.441616
C38	C	1.587750	-0.967013	-0.436920
C39	C	1.522849	-0.930341	-0.501714
C40	C	1.465941	-0.820521	-0.558454
C41	C	1.527600	-0.855366	-0.496912
C42	C	1.770708	-0.338312	-0.527680
C43	C	1.887484	-0.338318	-0.527686
C44	C	1.496754	-0.338227	-0.801693
C45	C	1.496787	-0.338197	-0.918468
C46	C	1.508518	-0.155106	-0.516052
C47	C	1.513565	-0.077040	-0.511103
C48	C	1.566897	-0.293275	-0.970488
C49	C	1.566923	-0.293250	-1.080210
C50	C	1.426727	-0.383075	-1.085884
C51	C	1.426696	-0.383096	-0.976163
C52	C	1.636987	-0.248377	-0.912792
C53	C	1.707103	-0.203452	-0.964812
C54	C	1.707130	-0.203426	-1.074535
C55	C	1.637040	-0.248326	-1.132237
C56	C	1.496661	-0.338318	-0.254698
C57	C	1.496844	-0.338151	-0.137911
H58	H	0.886755	-0.509852	-0.794441
C59	C	1.659483	-0.315241	-0.759888
C60	C	1.637015	-0.248413	-0.792185
H61	H	1.659522	-0.315265	-0.685431
H62	H	1.607691	-0.348398	-0.786777
H63	H	1.726485	-0.327378	-0.785542
H64	H	1.570009	-0.236278	-0.766538
H65	H	1.688810	-0.215246	-0.765286
C66	C	1.284700	-0.392884	-0.853393
C67	C	1.349632	-0.432483	-0.918989
H68	H	1.237118	-0.423376	-0.818106
H69	H	1.326426	-0.366155	-0.803326
H70	H	1.246508	-0.362273	-0.894268
H71	H	1.387831	-0.463090	-0.878112
H72	H	1.307901	-0.459224	-0.969062
H73	H	1.764161	-0.166892	-0.917823
C74	C	1.660033	-0.862728	-0.364657
C75	C	1.604043	-0.815054	-0.420537
H76	H	1.707227	-0.837835	-0.317509
H77	H	1.612465	-0.891383	-0.326269
H78	H	1.698394	-0.891292	-0.412300
H79	H	1.565676	-0.786493	-0.372895
H80	H	1.651618	-0.786387	-0.458928
C81	C	1.727867	-0.108916	-1.191931
C82	C	1.784191	-0.154039	-1.131712
H83	H	1.775446	-0.078423	-1.227221
H84	H	1.686147	-0.135651	-1.241997
H85	H	1.683820	-0.082062	-1.147410
H86	H	1.828233	-0.180896	-1.176234
H87	H	1.825929	-0.127301	-1.081641
C88	C	1.385889	-0.791292	-0.765020
C89	C	1.329334	-0.749182	-0.694811
H90	H	1.338689	-0.816183	-0.812163
H91	H	1.433446	-0.762631	-0.803411
H92	H	1.423875	-0.823627	-0.727096
H93	H	1.291355	-0.716843	-0.732735
H94	H	1.281759	-0.777846	-0.656416
H95	H	0.902869	-0.256725	-0.400813
H96	H	1.190543	-0.428243	-0.667528
H97	H	1.392042	-1.070228	-0.632484
C98	C	1.406064	-0.477527	-1.215241
C99	C	1.349698	-0.432434	-1.149306
H100	H	1.358509	-0.508004	-1.254388
H101	H	1.447811	-0.450768	-1.261923
H102	H	1.450086	-0.504398	-1.174125
H103	H	1.305681	-0.405559	-1.190423
H104	H	1.307932	-0.459195	-1.102619
C105	C	1.735861	-0.266207	-1.290555
C106	C	1.637067	-0.248303	-1.252847
H107	H	1.735875	-0.266199	-1.365013
H108	H	1.787620	-0.233034	-1.263646
H109	H	1.751080	-0.311536	-1.268591
H110	H	1.621851	-0.202971	-1.274805
H111	H	1.585292	-0.281478	-1.279767
C112	C	0.721452	-0.477208	-0.743775
C113	C	0.761141	-0.428247	-0.667604
H114	H	0.646994	-0.477195	-0.743807
H115	H	0.747113	-0.465117	-0.810812
H116	H	0.743320	-0.522519	-0.728352
H117	H	0.739279	-0.382934	-0.683031
H118	H	0.735469	-0.440333	-0.600552
H119	H	1.085822	-0.509833	-0.794413
C120	C	1.277059	-0.642883	-0.746930
C121	C	1.339085	-0.595203	-0.684953
H122	H	1.233016	-0.617995	-0.790894
H123	H	1.321005	-0.671446	-0.788978
H124	H	1.235077	-0.671538	-0.702946
H125	H	1.381072	-0.566552	-0.728937
H126	H	1.295134	-0.566628	-0.642901
H127	H	1.101940	-0.256697	-0.400800
H128	H	1.409314	-0.850391	-0.615023
C129	C	1.677309	-0.642888	-0.347223
C130	C	1.621319	-0.595205	-0.403087
H131	H	1.724511	-0.618001	-0.300076
H132	H	1.629741	-0.671543	-0.308834
H133	H	1.715660	-0.671450	-0.394875
H134	H	1.582962	-0.566645	-0.355436
H135	H	1.668893	-0.566538	-0.441478
C136	C	1.635719	-1.152801	-0.389215
C137	C	1.654471	-1.080675	-0.370416
H138	H	1.679783	-1.177685	-0.345265
H139	H	1.564386	-1.164870	-0.374536
H140	H	1.650290	-1.164764	-0.460592
H141	H	1.639893	-1.068710	-0.299041
H142	H	1.725820	-1.068601	-0.385088
H143	H	1.593082	-0.738723	-0.431413
C144	C	1.317202	-0.884596	-0.580385
C145	C	1.381962	-0.926703	-0.642403
H146	H	1.273161	-0.859704	-0.624348
H147	H	1.275228	-0.913257	-0.536420
H148	H	1.359302	-0.852260	-0.538340
H149	H	1.339862	-0.959043	-0.684443
H150	H	1.423940	-0.898039	-0.686386
H151	H	1.644380	-0.937152	-0.380343
