data_functionalizedCrystal
_audit_creation_method	'MofGen! by Chris Wilmer'
_symmetry_space_group_name_H-M	'P1'
_symmetry_Int_Tables_number	1
_symmetry_cell_setting	triclinic
loop_
_symmetry_equiv_pos_as_xyz
  x,y,z
_cell_length_a	21.395364
_cell_length_b	16.625546
_cell_length_c	21.395356
_cell_angle_alpha	89.972354
_cell_angle_beta	89.976411
_cell_angle_gamma	90.037419
loop_
_atom_site_label
_atom_site_type_symbol
_atom_site_fract_x
_atom_site_fract_y
_atom_site_fract_z
Zn1	Zn	0.957889	-0.320700	-0.354262
Zn2	Zn	1.207889	-0.070700	-0.104262
Zn3	Zn	1.457889	0.179300	0.145738
Zn4	Zn	1.707889	0.429300	0.395738
Zn5	Zn	0.957808	-0.455537	-0.249484
Zn6	Zn	1.207808	-0.205537	0.000516
Zn7	Zn	1.457808	0.044463	0.250516
Zn8	Zn	1.707808	0.294463	0.500516
Zn9	Zn	0.853106	-0.320757	-0.249498
Zn10	Zn	1.103106	-0.070757	0.000502
Zn11	Zn	1.353106	0.179243	0.250502
Zn12	Zn	1.603106	0.429243	0.500502
Zn13	Zn	0.853088	-0.455530	-0.354224
Zn14	Zn	1.103088	-0.205530	-0.104224
Zn15	Zn	1.353088	0.044470	0.145776
Zn16	Zn	1.603088	0.294470	0.395776
O17	O	0.905473	-0.388131	-0.301867
O18	O	1.155473	-0.138131	-0.051867
O19	O	1.405473	0.111869	0.198133
O20	O	1.655473	0.361869	0.448133
O21	O	1.045556	-0.338566	-0.340372
O22	O	1.295556	-0.088566	-0.090372
O23	O	1.545556	0.161434	0.159628
O24	O	1.795556	0.411434	0.409628
O25	O	0.943893	-0.437685	-0.161808
O26	O	1.193893	-0.187685	0.088192
O27	O	1.443893	0.062315	0.338192
O28	O	1.693893	0.312315	0.588192
O29	O	0.867047	-0.207917	-0.263417
O30	O	1.117047	0.042083	-0.013417
O31	O	1.367047	0.292083	0.236583
O32	O	1.617047	0.542083	0.486583
O33	O	1.045497	-0.437630	-0.263393
O34	O	1.295497	-0.187630	-0.013393
O35	O	1.545497	0.062370	0.236607
O36	O	1.795497	0.312370	0.486607
O37	O	0.944031	-0.207876	-0.340386
O38	O	1.194031	0.042124	-0.090386
O39	O	1.444031	0.292124	0.159614
O40	O	1.694031	0.542124	0.409614
O41	O	0.866968	-0.338663	-0.161819
O42	O	1.116968	-0.088663	0.088181
O43	O	1.366968	0.161337	0.338181
O44	O	1.616968	0.411337	0.588181
O45	O	0.765426	-0.338656	-0.263381
O46	O	1.015426	-0.088656	-0.013381
O47	O	1.265426	0.161344	0.236619
O48	O	1.515426	0.411344	0.486619
O49	O	0.867017	-0.437618	-0.441907
O50	O	1.117017	-0.187618	-0.191907
O51	O	1.367017	0.062382	0.058093
O52	O	1.617017	0.312382	0.308093
O53	O	0.765413	-0.437673	-0.340323
O54	O	1.015413	-0.187673	-0.090323
O55	O	1.265413	0.062327	0.159677
O56	O	1.515413	0.312327	0.409677
O57	O	0.944014	-0.338559	-0.441935
O58	O	1.194014	-0.088559	-0.191935
O59	O	1.444014	0.161441	0.058065
O60	O	1.694014	0.411441	0.308065
O61	O	0.943876	-0.568369	-0.263357
O62	O	1.193876	-0.318369	-0.013357
O63	O	1.443876	-0.068369	0.236643
O64	O	1.693876	0.181631	0.486643
O65	O	0.866939	-0.568363	-0.340309
O66	O	1.116939	-0.318363	-0.090309
O67	O	1.366939	-0.068363	0.159691
O68	O	1.616939	0.181637	0.409691
C69	C	0.742685	-0.388170	-0.301850
C70	C	0.992685	-0.138170	-0.051850
C71	C	1.242685	0.111830	0.198150
C72	C	1.492685	0.361830	0.448150
C73	C	0.673044	-0.388207	-0.301857
C74	C	0.923044	-0.138207	-0.051857
C75	C	1.173044	0.111793	0.198143
C76	C	1.423044	0.361793	0.448143
C77	C	0.640384	-0.336708	-0.342002
C78	C	0.890384	-0.086708	-0.092002
C79	C	1.140384	0.163292	0.157998
C80	C	1.390384	0.413292	0.407998
C81	C	0.574949	-0.336687	-0.342005
C82	C	0.824949	-0.086687	-0.092005
C83	C	1.074949	0.163313	0.157995
C84	C	1.324949	0.413313	0.407995
C85	C	0.542176	-0.388178	-0.301868
C86	C	0.792176	-0.138178	-0.051868
C87	C	1.042176	0.111822	0.198132
C88	C	1.292176	0.361822	0.448132
C89	C	0.574844	-0.439680	-0.261715
C90	C	0.824844	-0.189680	-0.011715
C91	C	1.074844	0.060320	0.238285
C92	C	1.324844	0.310320	0.488285
C93	C	0.640278	-0.439694	-0.261710
C94	C	0.890278	-0.189694	-0.011710
C95	C	1.140278	0.060306	0.238290
C96	C	1.390278	0.310306	0.488290
C97	C	0.438460	-0.460792	-0.296831
C98	C	0.688460	-0.210792	-0.046831
C99	C	0.938460	0.039208	0.203169
C100	C	1.188460	0.289208	0.453169
C101	C	0.373027	-0.460779	-0.296841
C102	C	0.623027	-0.210779	-0.046841
C103	C	0.873027	0.039221	0.203159
C104	C	1.123027	0.289221	0.453159
C105	C	0.340355	-0.388134	-0.301882
C106	C	0.590355	-0.138134	-0.051882
C107	C	0.840355	0.111866	0.198118
C108	C	1.090355	0.361866	0.448118
C109	C	0.373124	-0.315499	-0.306927
C110	C	0.623124	-0.065499	-0.056927
C111	C	0.873124	0.184501	0.193073
C112	C	1.123124	0.434501	0.443073
C113	C	0.438559	-0.315513	-0.306921
C114	C	0.688559	-0.065513	-0.056921
C115	C	0.938559	0.184487	0.193079
C116	C	1.188559	0.434487	0.443079
C117	C	0.471223	-0.388168	-0.301870
C118	C	0.721223	-0.138168	-0.051870
C119	C	0.971223	0.111832	0.198130
C120	C	1.221223	0.361832	0.448130
C121	C	0.236743	-0.336608	-0.342032
C122	C	0.486743	-0.086608	-0.092032
C123	C	0.736743	0.163392	0.157968
C124	C	0.986743	0.413392	0.407968
C125	C	0.171306	-0.336585	-0.342030
C126	C	0.421306	-0.086585	-0.092030
C127	C	0.671306	0.163415	0.157970
C128	C	0.921306	0.413415	0.407970
C129	C	0.171202	-0.439585	-0.261744
C130	C	0.421202	-0.189585	-0.011744
C131	C	0.671202	0.060415	0.238256
C132	C	0.921202	0.310415	0.488256
C133	C	0.236637	-0.439601	-0.261743
C134	C	0.486637	-0.189601	-0.011743
C135	C	0.736637	0.060399	0.238257
C136	C	0.986637	0.310399	0.488257
C137	C	0.269404	-0.388113	-0.301890
C138	C	0.519404	-0.138113	-0.051890
C139	C	0.769404	0.111887	0.198110
C140	C	1.019404	0.361887	0.448110
C141	C	0.905414	-0.597622	-0.301841
C142	C	1.155414	-0.347622	-0.051841
C143	C	1.405414	-0.097622	0.198159
C144	C	1.655414	0.152378	0.448159
C145	C	0.905446	-0.687243	-0.301851
C146	C	1.155446	-0.437243	-0.051851
C147	C	1.405446	-0.187243	0.198149
C148	C	1.655446	0.062757	0.448149
C149	C	0.905555	-1.015419	-0.301916
C150	C	1.155555	-0.765419	-0.051916
C151	C	1.405555	-0.515419	0.198084
C152	C	1.655555	-0.265419	0.448084
C153	C	0.905523	-0.924110	-0.301900
C154	C	1.155523	-0.674110	-0.051900
C155	C	1.405523	-0.424110	0.198100
C156	C	1.655523	-0.174110	0.448100
C157	C	0.905500	-0.851334	-0.301883
C158	C	1.155500	-0.601334	-0.051883
C159	C	1.405500	-0.351334	0.198117
C160	C	1.655500	-0.101334	0.448117
C161	C	0.905468	-0.760020	-0.301867
C162	C	1.155468	-0.510020	-0.051867
C163	C	1.405468	-0.260020	0.198133
C164	C	1.655468	-0.010020	0.448133
C165	C	1.068896	-0.388092	-0.301885
C166	C	1.318896	-0.138092	-0.051885
C167	C	1.568896	0.111908	0.198115
C168	C	1.818896	0.361908	0.448115
C169	C	1.138538	-0.388076	-0.301893
C170	C	1.388538	-0.138076	-0.051893
C171	C	1.638538	0.111924	0.198107
C172	C	1.888538	0.361924	0.448107
C173	C	0.905522	-0.388081	-0.465291
C174	C	1.155522	-0.138081	-0.215291
C175	C	1.405522	0.111919	0.034709
C176	C	1.655522	0.361919	0.284709
C177	C	0.905543	-0.388060	-0.534932
C178	C	1.155543	-0.138060	-0.284932
C179	C	1.405543	0.111940	-0.034932
C180	C	1.655543	0.361940	0.215068
C181	C	0.905550	-0.177822	-0.301907
C182	C	1.155550	0.072178	-0.051907
C183	C	1.405550	0.322178	0.198093
C184	C	1.655550	0.572178	0.448093
C185	C	0.905582	-0.088201	-0.301924
C186	C	1.155582	0.161799	-0.051924
C187	C	1.405582	0.411799	0.198076
C188	C	1.655582	0.661799	0.448076
C189	C	0.865499	-0.336493	-0.567640
C190	C	1.115499	-0.086493	-0.317640
C191	C	1.365499	0.163507	-0.067640
C192	C	1.615499	0.413507	0.182360
C193	C	0.865497	-0.336478	-0.633076
C194	C	1.115497	-0.086478	-0.383076
C195	C	1.365497	0.163522	-0.133076
C196	C	1.615497	0.413522	0.116924
C197	C	0.905550	-0.388022	-0.665800
C198	C	1.155550	-0.138022	-0.415800
C199	C	1.405550	0.111978	-0.165800
C200	C	1.655550	0.361978	0.084200
C201	C	0.945597	-0.439598	-0.633084
C202	C	1.195597	-0.189598	-0.383084
C203	C	1.445597	0.060402	-0.133084
C204	C	1.695597	0.310402	0.116916
C205	C	0.945593	-0.439617	-0.567649
C206	C	1.195593	-0.189617	-0.317649
C207	C	1.445593	0.060383	-0.067649
C208	C	1.695593	0.310383	0.182351
C209	C	0.962003	-0.394342	-0.769487
C210	C	1.212003	-0.144342	-0.519487
C211	C	1.462003	0.105658	-0.269487
C212	C	1.712003	0.355658	-0.019487
C213	C	0.962007	-0.394317	-0.834920
C214	C	1.212007	-0.144317	-0.584920
C215	C	1.462007	0.105683	-0.334920
C216	C	1.712007	0.355683	-0.084920
C217	C	0.905560	-0.387967	-0.867621
C218	C	1.155560	-0.137967	-0.617621
C219	C	1.405560	0.112033	-0.367621
C220	C	1.655560	0.362033	-0.117621
C221	C	0.849107	-0.381625	-0.834882
C222	C	1.099107	-0.131625	-0.584882
C223	C	1.349107	0.118375	-0.334882
C224	C	1.599107	0.368375	-0.084882
C225	C	0.849104	-0.381644	-0.769447
C226	C	1.099104	-0.131644	-0.519447
C227	C	1.349104	0.118356	-0.269447
C228	C	1.599104	0.368356	-0.019447
C229	C	0.905558	-0.388007	-0.736753
C230	C	1.155558	-0.138007	-0.486753
C231	C	1.405558	0.111993	-0.236753
C232	C	1.655558	0.361993	0.013247
C233	C	0.865511	-0.336381	-0.971282
C234	C	1.115511	-0.086381	-0.721282
C235	C	1.365511	0.163619	-0.471282
C236	C	1.615511	0.413619	-0.221282
C237	C	0.865508	-0.336372	-1.036719
C238	C	1.115508	-0.086372	-0.786719
C239	C	1.365508	0.163628	-0.536719
C240	C	1.615508	0.413628	-0.286719
C241	C	0.945613	-0.439488	-1.036725
C242	C	1.195613	-0.189488	-0.786725
C243	C	1.445613	0.060512	-0.536725
C244	C	1.695613	0.310512	-0.286725
C245	C	0.945611	-0.439501	-0.971290
C246	C	1.195611	-0.189501	-0.721290
C247	C	1.445611	0.060499	-0.471290
C248	C	1.695611	0.310499	-0.221290
C249	C	0.905560	-0.387944	-0.938572
C250	C	1.155560	-0.137944	-0.688572
C251	C	1.405560	0.112056	-0.438572
C252	C	1.655560	0.362056	-0.188572
C253	C	0.905460	-0.388123	-0.139080
C254	C	1.155460	-0.138123	0.110920
C255	C	1.405460	0.111877	0.360920
C256	C	1.655460	0.361877	0.610920
C257	C	0.905560	-0.387917	-0.069439
C258	C	1.155560	-0.137917	0.180561
C259	C	1.405560	0.112083	0.430561
C260	C	1.655560	0.362083	0.680561
H261	H	0.346351	-0.519922	-0.292736
H262	H	0.596351	-0.269922	-0.042736
H263	H	0.846351	-0.019922	0.207264
H264	H	1.096351	0.230078	0.457264
H265	H	0.978226	-0.481454	-1.063369
H266	H	1.228226	-0.231454	-0.813369
H267	H	1.478226	0.018546	-0.563369
H268	H	1.728226	0.268546	-0.313369
H269	H	0.667059	-0.294783	-0.374693
H270	H	0.917059	-0.044783	-0.124693
H271	H	1.167059	0.205217	0.125307
H272	H	1.417059	0.455217	0.375307
H273	H	0.263229	-0.481540	-0.229055
H274	H	0.513229	-0.231540	0.020945
H275	H	0.763229	0.018460	0.270945
H276	H	1.013229	0.268460	0.520945
H277	H	0.548352	-0.294747	-0.374695
H278	H	0.798352	-0.044747	-0.124695
H279	H	1.048352	0.205253	0.125305
H280	H	1.298352	0.455253	0.375305
H281	H	0.548156	-0.481604	-0.229036
H282	H	0.798156	-0.231604	0.020964
H283	H	1.048156	0.018396	0.270964
H284	H	1.298156	0.268396	0.520964
H285	H	0.263422	-0.294679	-0.374719
H286	H	0.513422	-0.044679	-0.124719
H287	H	0.763422	0.205321	0.125281
H288	H	1.013422	0.455321	0.375281
H289	H	0.144715	-0.294644	-0.374720
H290	H	0.394715	-0.044644	-0.124720
H291	H	0.644715	0.205356	0.125280
H292	H	0.894715	0.455356	0.375280
H293	H	0.978220	-0.481491	-0.944658
H294	H	1.228220	-0.231491	-0.694658
H295	H	1.478220	0.018509	-0.444658
H296	H	1.728220	0.268509	-0.194658
H297	H	0.666869	-0.481632	-0.229018
H298	H	0.916869	-0.231632	0.020982
H299	H	1.166869	0.018368	0.270982
H300	H	1.416869	0.268368	0.520982
H301	H	0.832899	-0.294401	-0.944642
H302	H	1.082899	-0.044401	-0.694642
H303	H	1.332899	0.205599	-0.444642
H304	H	1.582899	0.455599	-0.194642
H305	H	0.144519	-0.481510	-0.229065
H306	H	0.394519	-0.231510	0.020935
H307	H	0.644519	0.018490	0.270935
H308	H	0.894519	0.268490	0.520935
H309	H	1.007973	-0.399506	-0.742866
H310	H	1.257973	-0.149506	-0.492866
H311	H	1.507973	0.100494	-0.242866
H312	H	1.757973	0.350494	0.007134
H313	H	1.007975	-0.399477	-0.861571
H314	H	1.257975	-0.149477	-0.611571
H315	H	1.507975	0.100523	-0.361571
H316	H	1.757975	0.350523	-0.111571
H317	H	0.465055	-0.519953	-0.292725
H318	H	0.715055	-0.269953	-0.042725
H319	H	0.965055	-0.019953	0.207275
H320	H	1.215055	0.230047	0.457275
H321	H	0.832885	-0.294514	-0.541006
H322	H	1.082885	-0.044514	-0.291006
H323	H	1.332885	0.205486	-0.041006
H324	H	1.582885	0.455486	0.208994
H325	H	0.832890	-0.294483	-0.659713
H326	H	1.082890	-0.044483	-0.409713
H327	H	1.332890	0.205517	-0.159713
H328	H	1.582890	0.455517	0.090287
H329	H	0.465237	-0.256372	-0.311026
H330	H	0.715237	-0.006372	-0.061026
H331	H	0.965237	0.243628	0.188974
H332	H	1.215237	0.493628	0.438974
H333	H	0.978208	-0.481565	-0.659732
H334	H	1.228208	-0.231565	-0.409732
H335	H	1.478208	0.018435	-0.159732
H336	H	1.728208	0.268435	0.090268
H337	H	0.803138	-0.376482	-0.742794
H338	H	1.053138	-0.126482	-0.492794
H339	H	1.303138	0.123518	-0.242794
H340	H	1.553138	0.373518	0.007206
H341	H	0.803143	-0.376449	-0.861506
H342	H	1.053143	-0.126449	-0.611506
H343	H	1.303143	0.123551	-0.361506
H344	H	1.553143	0.373551	-0.111506
H345	H	0.832895	-0.294383	-1.063349
H346	H	1.082895	-0.044383	-0.813349
H347	H	1.332895	0.205617	-0.563349
H348	H	1.582895	0.455617	-0.313349
H349	H	0.346525	-0.256344	-0.311032
H350	H	0.596525	-0.006344	-0.061032
H351	H	0.846525	0.243656	0.188968
H352	H	1.096525	0.493656	0.438968
H353	H	0.978205	-0.481608	-0.541018
H354	H	1.228205	-0.231608	-0.291018
H355	H	1.478205	0.018392	-0.041018
H356	H	1.728205	0.268392	0.208982
