data_functionalizedCrystal
_audit_creation_method	'MofGen! by Chris Wilmer'
_symmetry_space_group_name_H-M	'P1'
_symmetry_Int_Tables_number	1
_symmetry_cell_setting	triclinic
loop_
_symmetry_equiv_pos_as_xyz
  x,y,z
_cell_length_a	19.121241
_cell_length_b	19.121063
_cell_length_c	14.908308
_cell_angle_alpha	95.554627
_cell_angle_beta	90.695553
_cell_angle_gamma	95.003121
loop_
_atom_site_label
_atom_site_type_symbol
_atom_site_fract_x
_atom_site_fract_y
_atom_site_fract_z
Zn1	Zn	1.036454	-0.261590	-0.581287
Zn2	Zn	1.038135	-0.372478	-0.436588
Zn3	Zn	0.926158	-0.259259	-0.424264
Zn4	Zn	0.913733	-0.384226	-0.581210
O5	O	0.978620	-0.319389	-0.505838
O6	O	1.134899	-0.272359	-0.567282
O7	O	1.029185	-0.351568	-0.308714
O8	O	0.945285	-0.160862	-0.439968
O9	O	1.136135	-0.353828	-0.460973
O10	O	1.026320	-0.162575	-0.555332
O11	O	0.946915	-0.268386	-0.299660
O12	O	0.826288	-0.279778	-0.439894
O13	O	0.924109	-0.373850	-0.707460
O14	O	0.817159	-0.371590	-0.555201
O15	O	1.014272	-0.283750	-0.707516
O16	O	1.017137	-0.472743	-0.460898
O17	O	0.925739	-0.481374	-0.567151
C18	C	0.796256	-0.326706	-0.496203
C19	C	0.718237	-0.329855	-0.492103
C20	C	0.680935	-0.288993	-0.545619
C21	C	0.607629	-0.291948	-0.541759
C22	C	0.571627	-0.335768	-0.484387
C23	C	0.608935	-0.376631	-0.430866
C24	C	0.682240	-0.373673	-0.434721
C25	C	0.350326	-0.346817	-0.469967
C26	C	0.277016	-0.349774	-0.466117
C27	C	0.275715	-0.265089	-0.577009
C28	C	0.349021	-0.262137	-0.580864
C29	C	0.386323	-0.302998	-0.527339
C30	C	0.496696	-0.338791	-0.480442
C31	C	0.461253	-0.299971	-0.531280
C32	C	0.970290	-0.502652	-0.515374
C33	C	0.966790	-0.581052	-0.519488
C34	C	1.012764	-0.613368	-0.466150
C35	C	1.009475	-0.687033	-0.470024
C36	C	0.960209	-0.728381	-0.527232
C37	C	0.914233	-0.696060	-0.580577
C38	C	0.917525	-0.622396	-0.576706
C39	C	0.947889	-0.951024	-0.541687
C40	C	0.944598	-1.024693	-0.545551
C41	C	1.039842	-1.015661	-0.434999
C42	C	1.043127	-0.941996	-0.431130
C43	C	0.997154	-0.909681	-0.484478
C44	C	0.956845	-0.803679	-0.531192
C45	C	1.000521	-0.834385	-0.480523
C46	C	1.161697	-0.312043	-0.515511
C47	C	1.239713	-0.308913	-0.519633
C48	C	0.967617	-0.330371	-0.741136
C49	C	0.962928	-0.335051	-0.841406
C50	C	0.987001	-0.135410	-0.496284
C51	C	0.990572	-0.057009	-0.492213
C52	C	1.048002	-0.250007	-1.029884
C53	C	1.043599	-0.254402	-1.124097
C54	C	0.949715	-0.348231	-1.124046
C55	C	0.954118	-0.343836	-1.029833
C56	C	1.003264	-0.294723	-0.982756
C57	C	1.007670	-0.290333	-0.888541
C58	C	0.913784	-0.384158	-0.888492
C59	C	0.909381	-0.388552	-0.982705
C60	C	0.989623	-0.308397	-0.271454
C61	C	0.994457	-0.303513	-0.171181
H62	H	0.247705	-0.385462	-0.419398
H63	H	1.088022	-0.210021	-0.991553
O64	O	1.091854	-0.206177	-1.174933
H65	H	1.126770	-0.171294	-1.126366
H66	H	0.710242	-0.253312	-0.592339
O67	O	1.053658	-0.789789	-0.418825
H68	H	1.085080	-0.824632	-0.382384
O69	O	0.896700	-0.401188	-1.174827
H70	H	0.901154	-0.396727	-1.248256
H71	H	1.083243	-0.908332	-0.384547
H72	H	0.877357	-0.420571	-0.850110
H73	H	0.869366	-0.428537	-1.021048
H74	H	0.245336	-0.231822	-0.620585
O75	O	0.567392	-0.247875	-0.599477
H76	H	0.604741	-0.216914	-0.640026
H77	H	1.077272	-1.041979	-0.391568
H78	H	0.904487	-1.058357	-0.592153
O79	O	1.060679	-0.237364	-0.837766
H80	H	1.056233	-0.241825	-0.764336
O81	O	0.722474	-0.417744	-0.376996
H82	H	0.779496	-0.408318	-0.389306
O83	O	0.387854	-0.214863	-0.642729
H84	H	0.349599	-0.186937	-0.679285
H85	H	0.880089	-0.596085	-0.620141
H86	H	0.380689	-0.380089	-0.426384
O87	O	1.065910	-0.568780	-0.404451
H88	H	1.101202	-0.535629	-0.444993
O89	O	0.500077	-0.252704	-0.593156
H90	H	0.529901	-0.285124	-0.642390
O91	O	0.570105	-0.423894	-0.368985
H92	H	0.588022	-0.407833	-0.298314
H93	H	1.046911	-0.713341	-0.426590
O94	O	0.457865	-0.386054	-0.418563
H95	H	0.420960	-0.425218	-0.458980
H96	H	0.910454	-0.924720	-0.585123
H97	H	0.874122	-0.729731	-0.627161
H98	H	0.916731	-0.837352	-0.577769
