data_functionalizedCrystal
_audit_creation_method	'MofGen! by Chris Wilmer'
_symmetry_space_group_name_H-M	'P1'
_symmetry_Int_Tables_number	1
_symmetry_cell_setting	triclinic
loop_
_symmetry_equiv_pos_as_xyz
  x,y,z
_cell_length_a	14.908520
_cell_length_b	14.908932
_cell_length_c	17.077396
_cell_angle_alpha	86.725961
_cell_angle_beta	93.268321
_cell_angle_gamma	83.580804
loop_
_atom_site_label
_atom_site_type_symbol
_atom_site_fract_x
_atom_site_fract_y
_atom_site_fract_z
Zn1	Zn	-0.280480	-1.362988	-0.389591
Zn2	Zn	0.219520	-0.862988	0.110409
Zn3	Zn	-0.431862	-1.354147	-0.266366
Zn4	Zn	0.068138	-0.854147	0.233634
Zn5	Zn	-0.289249	-1.211621	-0.266367
Zn6	Zn	0.210751	-0.711621	0.233633
Zn7	Zn	-0.440541	-1.202855	-0.405609
Zn8	Zn	0.059459	-0.702855	0.094391
O9	O	-0.360533	-1.282903	-0.331984
O10	O	0.139467	-0.782903	0.168016
O11	O	-0.293259	-1.488479	-0.366541
O12	O	0.206741	-0.988479	0.133459
O13	O	-0.412981	-1.335209	-0.156523
O14	O	0.087019	-0.835209	0.343477
O15	O	-0.161415	-1.239069	-0.276010
O16	O	0.338585	-0.739069	0.223990
O17	O	-0.404479	-1.481983	-0.276008
O18	O	0.095521	-0.981983	0.223992
O19	O	-0.154973	-1.350277	-0.366542
O20	O	0.345027	-0.850277	0.133458
O21	O	-0.308204	-1.230496	-0.156524
O22	O	0.191796	-0.730496	0.343476
O23	O	-0.316620	-1.083795	-0.291543
O24	O	0.183380	-0.583795	0.208457
O25	O	-0.419271	-1.224129	-0.513328
O26	O	0.080729	-0.724129	-0.013328
O27	O	-0.427774	-1.077355	-0.393843
O28	O	0.072226	-0.577355	0.106157
O29	O	-0.301675	-1.341778	-0.501560
O30	O	0.198325	-0.841778	-0.001560
O31	O	-0.559683	-1.326709	-0.291540
O32	O	-0.059683	-0.826709	0.208460
O33	O	-0.566060	-1.215556	-0.393841
O34	O	-0.066060	-0.715556	0.106159
C35	C	-0.374091	-1.047732	-0.344432
C36	C	0.125909	-0.547732	0.155568
C37	C	-0.379913	-0.947124	-0.349777
C38	C	0.120087	-0.447124	0.150223
C39	C	-0.446079	-0.801987	-0.410487
C40	C	0.053921	-0.301987	0.089513
C41	C	-0.440609	-0.896517	-0.405472
C42	C	0.059391	-0.396517	0.094528
C43	C	-0.324685	-0.903194	-0.299092
C44	C	0.175315	-0.403194	0.200908
C45	C	-0.330155	-0.808663	-0.304107
C46	C	0.169845	-0.308663	0.195893
C47	C	-0.390853	-0.758063	-0.359808
C48	C	0.109147	-0.258063	0.140192
C49	C	-0.396317	-0.663531	-0.364826
C50	C	0.103683	-0.163531	0.135174
C51	C	-0.280399	-0.670209	-0.258443
C52	C	0.219601	-0.170209	0.241557
C53	C	-0.274929	-0.764739	-0.253428
C54	C	0.225071	-0.264739	0.246572
C55	C	-0.595714	-1.269247	-0.344444
C56	C	-0.095714	-0.769247	0.155556
C57	C	-0.696321	-1.263487	-0.349797
C58	C	-0.196321	-0.763487	0.150203
C59	C	-0.878664	-1.368528	-0.253403
C60	C	-0.378664	-0.868528	0.246597
C61	C	-0.973193	-1.363119	-0.258430
C62	C	-0.473193	-0.863119	0.241570
C63	C	-0.979910	-1.247267	-0.364880
C64	C	-0.479910	-0.747267	0.135120
C65	C	-0.885381	-1.252675	-0.359854
C66	C	-0.385381	-0.752675	0.140146
C67	C	-0.834761	-1.313307	-0.304112
C68	C	-0.334761	-0.813307	0.195888
C69	C	-0.740231	-1.318710	-0.299083
C70	C	-0.240231	-0.818710	0.200917
C71	C	-0.746949	-1.202863	-0.405536
C72	C	-0.246949	-0.702863	0.094464
C73	C	-0.841478	-1.197455	-0.410563
C74	C	-0.341478	-0.697455	0.089437
C75	C	-0.124432	-1.296637	-0.319490
C76	C	0.375568	-0.796637	0.180510
C77	C	-0.023819	-1.302490	-0.314166
C78	C	0.476181	-0.802490	0.185834
C79	C	-0.360463	-1.282962	-0.536721
C80	C	0.139537	-0.782962	-0.036721
C81	C	-0.360433	-1.282987	-0.623969
C82	C	0.139567	-0.782987	-0.123969
C83	C	-0.346914	-0.518992	-0.319482
C84	C	0.153086	-0.018992	0.180518
C85	C	-0.341089	-0.619601	-0.314141
C86	C	0.158911	-0.119601	0.185859
C87	C	-0.299196	-1.344249	-0.658832
C88	C	0.200804	-0.844249	-0.158832
C89	C	-0.299165	-1.344261	-0.740810
C90	C	0.200835	-0.844261	-0.240810
C91	C	-0.360377	-1.283015	-0.787924
C92	C	0.139623	-0.783015	-0.287924
C93	C	-0.421617	-1.221747	-0.753055
C94	C	0.078383	-0.721747	-0.253055
C95	C	-0.421643	-1.221731	-0.671078
C96	C	0.078357	-0.721731	-0.171078
C97	C	-0.421560	-1.221786	-0.923921
C98	C	0.078440	-0.721786	-0.423921
C99	C	-0.421536	-1.221803	-1.005903
C100	C	0.078464	-0.721803	-0.505903
C101	C	-0.299083	-1.344317	-0.993652
C102	C	0.200917	-0.844317	-0.493652
C103	C	-0.299109	-1.344301	-0.911675
C104	C	0.200891	-0.844301	-0.411675
C105	C	-0.360350	-1.283033	-0.876813
C106	C	0.139650	-0.783033	-0.376813
C107	C	-0.360534	-1.282900	-0.128036
C108	C	0.139466	-0.782900	0.371964
C109	C	-0.360299	-1.283065	-0.040766
C110	C	0.139701	-0.783065	0.459234
H111	H	-0.235426	-0.634437	-0.217179
H112	H	0.264574	-0.134437	0.282821
H113	H	-0.249270	-1.394177	-0.873317
H114	H	0.250730	-0.894177	-0.373317
Cl115	Cl	-0.510041	-0.951733	-0.469184
Cl116	Cl	-0.010041	-0.451733	0.030816
Cl117	Cl	-0.222244	-1.421252	-0.599611
Cl118	Cl	0.277756	-0.921252	-0.099611
H119	H	-0.699017	-1.368077	-0.253694
H120	H	-0.199017	-0.868077	0.246306
Cl121	Cl	-0.815026	-1.444734	-0.183320
Cl122	Cl	-0.315026	-0.944734	0.316680
H123	H	-0.471417	-1.171882	-0.895538
H124	H	0.028583	-0.671882	-0.395538
Cl125	Cl	-1.043560	-1.171063	-0.434958
Cl126	Cl	-0.543560	-0.671063	0.065042
Cl127	Cl	-0.905121	-1.121240	-0.480635
Cl128	Cl	-0.405121	-0.621240	0.019365
H129	H	-0.225513	-0.805951	-0.208076
H130	H	0.274487	-0.305951	0.291924
H131	H	-1.008935	-1.408087	-0.217139
H132	H	-0.508935	-0.908087	0.282861
Cl133	Cl	-0.691752	-1.133427	-0.469279
Cl134	Cl	-0.191752	-0.633427	0.030721
Cl135	Cl	-0.498627	-1.144709	-0.627250
Cl136	Cl	0.001373	-0.644709	-0.127250
H137	H	-0.249216	-1.394202	-1.022041
H138	H	0.250784	-0.894202	-0.522041
H139	H	-0.471453	-1.171876	-0.791422
H140	H	0.028547	-0.671876	-0.291422
Cl141	Cl	-0.222215	-1.421318	-0.784634
Cl142	Cl	0.277785	-0.921318	-0.284634
Cl143	Cl	-0.472620	-0.599920	-0.434850
Cl144	Cl	0.027380	-0.099920	0.065150
Cl145	Cl	-0.498479	-1.144798	-1.065131
Cl146	Cl	0.001521	-0.644798	-0.565131
H147	H	-0.495494	-0.760788	-0.455847
H148	H	0.004506	-0.260788	0.044153
Cl149	Cl	-0.248392	-0.966820	-0.229070
Cl150	Cl	0.251608	-0.466820	0.270930
