data_functionalizedCrystal
_audit_creation_method	'MofGen! by Chris Wilmer'
_symmetry_space_group_name_H-M	'P1'
_symmetry_Int_Tables_number	1
_symmetry_cell_setting	triclinic
loop_
_symmetry_equiv_pos_as_xyz
  x,y,z
_cell_length_a	14.044191
_cell_length_b	10.540539
_cell_length_c	13.101039
_cell_angle_alpha	93.398267
_cell_angle_beta	86.337551
_cell_angle_gamma	88.858634
loop_
_atom_site_label
_atom_site_type_symbol
_atom_site_fract_x
_atom_site_fract_y
_atom_site_fract_z
O1	O	1.264949	0.299888	-0.085156
O2	O	0.988906	0.288826	-0.085169
O3	O	1.133225	0.110288	-0.085161
O4	O	1.120630	0.478427	-0.085164
O5	O	1.122871	0.123121	0.085269
O6	O	0.978551	0.301659	0.085260
O7	O	1.254595	0.312721	0.085274
Zn8	Zn	1.114929	0.309228	0.112326
Zn9	Zn	1.128572	0.292320	-0.112222
O10	O	1.110275	0.491260	0.085265
C11	C	0.948381	0.290404	0.000044
C12	C	0.843058	0.275970	0.000039
C13	C	0.593285	0.351949	0.000048
C14	C	0.650221	0.249604	0.000047
C15	C	0.757525	0.264277	0.000043
C16	C	0.485971	0.337277	0.000053
C17	C	1.127103	0.069305	0.000052
C18	C	1.124278	-0.071929	0.000046
C19	C	1.016012	-0.266336	-0.000341
C20	C	1.018853	-0.119400	0.000042
C21	C	1.169100	-0.121127	0.097372
C22	C	1.165497	-0.268029	0.097454
C23	C	1.179416	-0.282924	-0.096356
C24	C	1.180465	-0.135941	-0.097642
C25	C	1.295119	0.311143	0.000058
C26	C	1.400443	0.325577	0.000057
C27	C	1.116397	0.532242	0.000050
C28	C	1.119223	0.673475	0.000049
N29	N	1.105625	0.320767	0.265574
N30	N	1.137883	0.280771	-0.265470
C31	C	1.092967	0.336478	0.474616
C32	C	1.150538	0.265063	0.525495
C33	C	1.143495	0.273805	0.641813
C34	C	1.100009	0.327738	0.358288
H35	H	0.983171	-0.086087	-0.069725
O36	O	0.608057	0.118935	0.000046
H37	H	0.567682	0.102147	-0.069423
H38	H	0.625127	0.450581	0.000044
O39	O	1.020684	0.426175	0.532619
H40	H	1.026438	0.419062	0.616201
O41	O	0.959987	-0.062485	0.092606
H42	H	1.006048	-0.003581	0.141258
O43	O	0.966443	-0.316777	-0.092774
H44	H	1.014834	-0.385289	-0.139425
H45	H	0.970319	-0.295513	0.069058
H46	H	1.246301	-0.090671	0.100995
O47	O	1.109967	-0.303167	0.193809
H48	H	1.085930	-0.215282	0.239906
H49	H	1.205116	0.197359	0.481696
H50	H	1.241048	-0.307997	0.101873
H51	H	1.149777	-0.323482	-0.170122
O52	O	1.116596	-0.062198	0.193311
H53	H	1.040414	-0.088456	0.194271
O54	O	1.282754	-0.094154	-0.105427
H55	H	1.331248	-0.178460	-0.104470
O56	O	1.137162	-0.093870	-0.193024
H57	H	1.141011	0.011033	-0.195062
O58	O	1.280334	-0.335349	-0.097235
H59	H	1.287634	-0.392188	-0.029383
