data_functionalizedCrystal
_audit_creation_method	'MofGen! by Chris Wilmer'
_symmetry_space_group_name_H-M	'P1'
_symmetry_Int_Tables_number	1
_symmetry_cell_setting	triclinic
loop_
_symmetry_equiv_pos_as_xyz
  x,y,z
_cell_length_a	14.908571
_cell_length_b	25.639239
_cell_length_c	14.908694
_cell_angle_alpha	93.266315
_cell_angle_beta	83.592472
_cell_angle_gamma	86.734636
loop_
_atom_site_label
_atom_site_type_symbol
_atom_site_fract_x
_atom_site_fract_y
_atom_site_fract_z
Zn1	Zn	1.413187	-0.275253	-0.591468
Zn2	Zn	1.404309	-0.357334	-0.440091
Zn3	Zn	1.253095	-0.264559	-0.431405
Zn4	Zn	1.261741	-0.357293	-0.582690
O5	O	1.333083	-0.313610	-0.511414
O6	O	1.538674	-0.290634	-0.578697
O7	O	1.376916	-0.340569	-0.312274
O8	O	1.274428	-0.192817	-0.452676
O9	O	1.532151	-0.350938	-0.467481
O10	O	1.392047	-0.200674	-0.570274
O11	O	1.265820	-0.272407	-0.305892
O12	O	1.127577	-0.272368	-0.444164
O13	O	1.289164	-0.350869	-0.710519
O14	O	1.133929	-0.340499	-0.555312
O15	O	1.400431	-0.290594	-0.716969
O16	O	1.385300	-0.430489	-0.458969
O17	O	1.280555	-0.430459	-0.563735
C18	C	1.097911	-0.305269	-0.497844
C19	C	0.997304	-0.301715	-0.492060
C20	C	0.814908	-0.366078	-0.596774
C21	C	0.720379	-0.362740	-0.591343
C22	C	0.713717	-0.291698	-0.475771
C23	C	0.808246	-0.295036	-0.481202
C24	C	0.858838	-0.332228	-0.541705
C25	C	0.953368	-0.335568	-0.547131
C26	C	0.946704	-0.264524	-0.431564
C27	C	0.852176	-0.261186	-0.426133
C28	C	1.332928	-0.449446	-0.511363
C29	C	1.332947	-0.507561	-0.511377
C30	C	1.387780	-0.867941	-0.456969
C31	C	1.387816	-0.922547	-0.456983
O32	O	1.434276	-0.950792	-0.410669
N33	N	1.333245	-0.949857	-0.511483
C34	C	1.278643	-0.922558	-0.565979
O35	O	1.232230	-0.950801	-0.612337
C36	C	1.278612	-0.867953	-0.565969
C37	C	1.333179	-0.840646	-0.511459
C38	C	1.442343	-0.840634	-0.402464
C39	C	1.442306	-0.786032	-0.402449
C40	C	1.387705	-0.758737	-0.456939
C41	C	1.333142	-0.786044	-0.511443
C42	C	1.224015	-0.840655	-0.620469
C43	C	1.223990	-0.786047	-0.620454
C44	C	1.278557	-0.758740	-0.565945
C45	C	1.278504	-0.704146	-0.565918
N46	N	1.333074	-0.676837	-0.511418
C47	C	1.387675	-0.704132	-0.456929
C48	C	1.278712	-1.037231	-0.565996
C49	C	1.278736	-1.091834	-0.566002
C50	C	1.387911	-1.091820	-0.457008
C51	C	1.387881	-1.037216	-0.456998
C52	C	1.333282	-1.009922	-0.511497
C53	C	1.387592	-0.589463	-0.456900
C54	C	1.387547	-0.534856	-0.456887
C55	C	1.278377	-0.534875	-0.565885
C56	C	1.278417	-0.589477	-0.565895
C57	C	1.333032	-0.616770	-0.511400
O58	O	1.232070	-0.675867	-0.612211
O59	O	1.434088	-0.675883	-0.410587
C60	C	1.569173	-0.321983	-0.525037
C61	C	1.669781	-0.325552	-0.530843
C62	C	1.346752	-0.321920	-0.747505
C63	C	1.352577	-0.325461	-0.848113
C64	C	1.333264	-0.177245	-0.511485
C65	C	1.333341	-0.119135	-0.511516
C66	C	1.247818	-0.261140	-1.030521
C67	C	1.253288	-0.264466	-1.125051
C68	C	1.368982	-0.335440	-1.131705
C69	C	1.363512	-0.332114	-1.037175
C70	C	1.302929	-0.294963	-0.986586
C71	C	1.297464	-0.291635	-0.892055
C72	C	1.413153	-0.362612	-0.898709
C73	C	1.418624	-0.365937	-0.993240
C74	C	1.319519	-0.305296	-0.276244
C75	C	1.313869	-0.301614	-0.175646
H76	H	0.982482	-0.236962	-0.386721
H77	H	1.418294	-0.365694	-1.172909
H78	H	1.234243	-1.015011	-0.610373
H79	H	1.467946	-0.396186	-1.034441
H80	H	1.431982	-0.512624	-0.412496
C81	C	1.278814	-0.217120	-0.785060
C82	C	1.230870	-0.250799	-0.836447
H83	H	1.237697	-0.191908	-0.750737
H84	H	1.310844	-0.236785	-0.745363
H85	H	1.320405	-0.199817	-0.824233
H86	H	1.189282	-0.268105	-0.797273
H87	H	1.198825	-0.231131	-0.876147
C88	C	1.456143	-0.389032	-0.756758
C89	C	1.473734	-0.399794	-0.850414
H90	H	1.493540	-0.411988	-0.726944
H91	H	1.468540	-0.353833	-0.742055
H92	H	1.394418	-0.393984	-0.737758
H93	H	1.535458	-0.394838	-0.869415
H94	H	1.461344	-0.435002	-0.865124
C95	C	1.495492	-0.583949	-0.349151
C96	C	1.447618	-0.619458	-0.396992
H97	H	1.532541	-0.602466	-0.312160
H98	H	1.532353	-0.565238	-0.390609
H99	H	1.454046	-0.560064	-0.312227
H100	H	1.489064	-0.643340	-0.433922
H101	H	1.410754	-0.638177	-0.355530
H102	H	0.994559	-0.365853	-0.596394
H103	H	0.810971	-0.230904	-0.376876
C104	C	0.812002	-0.435967	-0.710465
C105	C	0.870525	-0.406958	-0.663276
H106	H	0.846339	-0.461202	-0.751524
H107	H	0.772822	-0.453238	-0.668846
H108	H	0.777166	-0.413133	-0.743040
H109	H	0.905356	-0.429792	-0.630695
H110	H	0.909720	-0.389686	-0.704900
H111	H	1.233988	-0.611712	-0.610284
H112	H	1.486810	-0.862852	-0.358092
C113	C	1.550235	-0.791521	-0.294733
C114	C	1.502303	-0.756022	-0.342544
H115	H	1.587283	-0.772996	-0.257756
H116	H	1.508831	-0.810229	-0.257806
H117	H	1.587109	-0.815408	-0.336216
H118	H	1.465423	-0.732137	-0.301060
H119	H	1.543711	-0.737305	-0.379474
H120	H	1.198496	-0.230885	-0.989331
H121	H	1.179576	-0.862879	-0.664852
H122	H	1.233918	-0.512643	-0.610247
C123	C	1.138386	-0.193974	-1.108976
C124	C	1.192712	-0.227284	-1.173346
H125	H	1.100991	-0.171018	-1.138793
H126	H	1.101602	-0.214229	-1.070099
H127	H	1.175724	-0.174079	-1.074389
H128	H	1.155374	-0.247183	-1.207928
H129	H	1.229499	-0.207027	-1.212238
H130	H	0.684616	-0.390304	-0.636188
H131	H	1.432314	-1.014986	-0.412612
C132	C	0.565852	-0.255011	-0.416191
C133	C	0.658098	-0.250799	-0.409307
H134	H	0.531518	-0.229758	-0.375165
H135	H	0.553936	-0.249026	-0.476150
H136	H	0.549542	-0.289104	-0.401912
H137	H	0.674410	-0.216707	-0.423593
H138	H	0.670020	-0.256780	-0.349335
H139	H	1.432373	-1.114054	-0.412643
C140	C	1.170822	-1.086350	-0.673737
C141	C	1.218749	-1.121846	-0.625916
H142	H	1.133795	-1.104878	-0.710732
H143	H	1.133936	-1.062470	-0.632267
H144	H	1.212236	-1.067635	-0.710655
H145	H	1.177335	-1.140559	-0.588992
H146	H	1.255639	-1.145736	-0.667391
C147	C	1.116090	-0.791551	-0.728206
C148	C	1.163972	-0.756047	-0.680364
H149	H	1.079035	-0.773029	-0.765186
H150	H	1.157523	-0.815432	-0.765132
H151	H	1.079226	-0.810264	-0.686741
H152	H	1.200841	-0.737336	-0.721829
H153	H	1.122533	-0.732156	-0.643434
