data_functionalizedCrystal
_audit_creation_method	'MofGen! by Chris Wilmer'
_symmetry_space_group_name_H-M	'P1'
_symmetry_Int_Tables_number	1
_symmetry_cell_setting	triclinic
loop_
_symmetry_equiv_pos_as_xyz
  x,y,z
_cell_length_a	14.044220
_cell_length_b	10.654549
_cell_length_c	9.730217
_cell_angle_alpha	89.999023
_cell_angle_beta	89.995579
_cell_angle_gamma	88.837898
loop_
_atom_site_label
_atom_site_type_symbol
_atom_site_fract_x
_atom_site_fract_y
_atom_site_fract_z
O1	O	0.133252	1.681224	-0.114281
O2	O	0.633252	2.181224	0.385719
O3	O	0.145941	1.317021	-0.114287
O4	O	0.645941	1.817021	0.385713
O5	O	0.001576	1.493656	-0.114271
O6	O	0.501576	1.993656	0.385729
O7	O	0.277617	1.504589	-0.114298
O8	O	0.777617	2.004589	0.385702
O9	O	0.001575	1.493650	0.114310
O10	O	0.501575	1.993650	0.614310
O11	O	0.145940	1.317015	0.114293
O12	O	0.645940	1.817015	0.614293
O13	O	0.133251	1.681218	0.114299
O14	O	0.633251	2.181218	0.614299
Zn15	Zn	0.139595	1.499115	0.150588
Zn16	Zn	0.639595	1.999115	0.650588
Zn17	Zn	0.139597	1.499123	-0.150576
Zn18	Zn	0.639597	1.999123	0.349424
O19	O	0.277616	1.504583	0.114283
O20	O	0.777616	2.004583	0.614283
C21	C	-0.033771	1.488867	0.000020
C22	C	0.466229	1.988867	0.500020
C23	C	-0.139090	1.474591	0.000021
C24	C	0.360910	1.974591	0.500021
C25	C	0.145008	1.270126	0.000002
C26	C	0.645008	1.770126	0.500002
C27	C	0.142217	1.130403	0.000000
C28	C	0.642217	1.630403	0.500000
C29	C	0.134184	1.728112	0.000007
C30	C	0.634184	2.228112	0.500007
C31	C	0.136975	1.867836	-0.000001
C32	C	0.636975	2.367836	0.499999
C33	C	-0.331924	1.448492	0.000001
C34	C	0.168076	1.948492	0.500001
C35	C	-0.388890	1.549740	-0.000001
C36	C	0.111110	2.049740	0.499999
C37	C	-0.496189	1.535219	-0.000013
C38	C	0.003811	2.035219	0.499987
C39	C	-0.224615	1.463012	0.000012
C40	C	0.275385	1.963012	0.500012
C41	C	0.312963	1.509372	-0.000011
C42	C	0.812963	2.009372	0.499989
C43	C	0.418282	1.523647	-0.000021
C44	C	0.918282	2.023647	0.499979
C45	C	-0.030415	2.140999	0.000001
C46	C	0.469585	2.640999	0.500001
C47	C	-0.118042	2.080657	0.000009
C48	C	0.381958	2.580657	0.500009
C49	C	-0.120667	1.949375	0.000016
C50	C	0.379333	2.449375	0.500016
C51	C	-0.035655	1.878432	0.000010
C52	C	0.464345	2.378432	0.500010
C53	C	0.051972	1.938775	0.000001
C54	C	0.551972	2.438775	0.500001
C55	C	0.054588	2.070060	-0.000001
C56	C	0.554588	2.570060	0.499999
C57	C	0.224602	1.928178	-0.000009
C58	C	0.724602	2.428178	0.499991
C59	C	0.227229	2.059460	-0.000005
C60	C	0.727229	2.559460	0.499995
C61	C	0.309614	1.857236	-0.000015
C62	C	0.809614	2.357236	0.499985
C63	C	0.397243	1.917578	-0.000013
C64	C	0.897243	2.417578	0.499987
C65	C	0.399865	2.048868	-0.000018
C66	C	0.899865	2.548868	0.499982
C67	C	0.314857	2.119803	-0.000014
C68	C	0.814857	2.619803	0.499986
N69	N	0.139593	1.499119	0.356125
N70	N	0.639593	1.999119	0.856125
N71	N	0.139591	1.499129	-0.356113
N72	N	0.639591	1.999129	0.143887
C73	C	0.011796	1.655603	0.356130
C74	C	0.511796	2.155603	0.856130
C75	C	-0.052100	1.733853	0.428072
C76	C	0.447900	2.233853	0.928072
C77	C	-0.052101	1.733866	0.571952
C78	C	0.447899	2.233866	1.071952
C79	C	0.011800	1.655617	0.643893
C80	C	0.511800	2.155617	1.143893
C81	C	0.075696	1.577366	0.571950
C82	C	0.575696	2.077366	1.071950
C83	C	0.075691	1.577365	0.428067
C84	C	0.575691	2.077365	0.928067
C85	C	0.203487	1.420878	0.571945
C86	C	0.703487	1.920878	1.071945
C87	C	0.203494	1.420870	0.428065
C88	C	0.703494	1.920870	0.928065
C89	C	0.267388	1.342629	0.643885
C90	C	0.767388	1.842629	1.143885
C91	C	0.331290	1.264383	0.571943
C92	C	0.831290	1.764383	1.071943
C93	C	0.331288	1.264375	0.428054
C94	C	0.831288	1.764375	0.928054
C95	C	0.267390	1.342620	0.356123
C96	C	0.767390	1.842620	0.856123
H97	H	-0.357076	1.647328	-0.000092
H98	H	0.142924	2.147328	0.499908
H99	H	0.471222	2.097991	-0.000026
H100	H	0.971222	2.597991	0.499974
H101	H	0.466453	1.859807	-0.000027
H102	H	0.966453	2.359807	0.499973
F103	F	-0.038453	1.738710	-0.000010
F104	F	0.461547	2.238710	0.499990
F105	F	-0.373504	1.320947	-0.000008
F106	F	0.126496	1.820947	0.499992
H107	H	-0.028286	2.247896	0.000012
H108	H	0.471714	2.747896	0.500012
F109	F	-0.208513	2.156167	0.000015
F110	F	0.291487	2.656167	0.500015
H111	H	0.383317	1.200649	0.369486
H112	H	0.883317	1.700649	0.869486
H113	H	-0.192021	1.900244	0.000015
H114	H	0.307979	2.400244	0.500015
F115	F	0.306818	1.717514	-0.000022
F116	F	0.806818	2.217514	0.499978
H117	H	0.316983	2.226700	-0.000011
H118	H	0.816983	2.726700	0.499989
H119	H	0.011798	1.655611	0.238975
H120	H	0.511798	2.155611	0.738975
F121	F	-0.120108	1.817124	0.351502
F122	F	0.379892	2.317124	0.851502
H123	H	-0.104134	1.797579	0.630528
H124	H	0.395866	2.297579	1.130528
H125	H	0.011787	1.655621	0.761047
H126	H	0.511787	2.155621	1.261047
F127	F	0.267383	1.342636	0.797016
F128	F	0.767383	1.842636	1.297016
F129	F	0.399284	1.181107	0.648512
F130	F	0.899284	1.681107	1.148512
F131	F	0.267386	1.342623	0.202993
F132	F	0.767386	1.842623	0.702993
