data_functionalizedCrystal
_audit_creation_method	'MofGen! by Chris Wilmer'
_symmetry_space_group_name_H-M	'P1'
_symmetry_Int_Tables_number	1
_symmetry_cell_setting	triclinic
loop_
_symmetry_equiv_pos_as_xyz
  x,y,z
_cell_length_a	18.050590
_cell_length_b	21.295417
_cell_length_c	18.050582
_cell_angle_alpha	89.974292
_cell_angle_beta	90.000767
_cell_angle_gamma	90.018869
loop_
_atom_site_label
_atom_site_type_symbol
_atom_site_fract_x
_atom_site_fract_y
_atom_site_fract_z
Zn1	Zn	1.135285	-0.250831	-0.419585
Zn2	Zn	1.135192	-0.356092	-0.295389
Zn3	Zn	1.011104	-0.250821	-0.295444
Zn4	Zn	1.011049	-0.356047	-0.419571
O5	O	1.073157	-0.303448	-0.357497
O6	O	1.239197	-0.264818	-0.403093
O7	O	1.118716	-0.342143	-0.191471
O8	O	1.027639	-0.162733	-0.311940
O9	O	1.239129	-0.342153	-0.311847
O10	O	1.118874	-0.162741	-0.403147
O11	O	1.027549	-0.264801	-0.191512
O12	O	0.907172	-0.264756	-0.311926
O13	O	1.027545	-0.342075	-0.523498
O14	O	0.907132	-0.342065	-0.403122
O15	O	1.118820	-0.264773	-0.523508
O16	O	1.118663	-0.444176	-0.311833
O17	O	1.027455	-0.444142	-0.403069
C18	C	0.880205	-0.303405	-0.357529
C19	C	0.797660	-0.303402	-0.357560
C20	C	0.598208	-0.345562	-0.407035
C21	C	0.548817	-0.288165	-0.425314
C22	C	0.646529	-0.303437	-0.357524
C23	C	0.548839	-0.360867	-0.339245
C24	C	0.500544	-0.303476	-0.357491
C25	C	0.598225	-0.246009	-0.375838
C26	C	0.598251	-0.318749	-0.289738
C27	C	0.548882	-0.261313	-0.307991
C28	C	0.730627	-0.303415	-0.357545
C29	C	0.416448	-0.303491	-0.357469
C30	C	1.073063	-0.467000	-0.357460
C31	C	1.073090	-0.536968	-0.357468
C32	C	1.120569	-0.569781	-0.404994
C33	C	1.120595	-0.635523	-0.405012
C34	C	1.073150	-0.668450	-0.357492
C35	C	1.025662	-0.635629	-0.309963
C36	C	1.025632	-0.569888	-0.309952
N37	N	1.067546	-0.771706	-0.292499
N38	N	1.067579	-0.834158	-0.292512
C39	C	1.073237	-0.866525	-0.357525
N40	N	1.078875	-0.834081	-0.422526
N41	N	1.078846	-0.771624	-0.422512
C42	C	1.073178	-0.739735	-0.357499
C43	C	1.120747	-0.970624	-0.405074
C44	C	1.120768	-1.036367	-0.405094
C45	C	1.025839	-1.036472	-0.310039
C46	C	1.025814	-0.970729	-0.310026
C47	C	1.073272	-0.937809	-0.357542
C48	C	1.266863	-0.303492	-0.357465
C49	C	1.349409	-0.303510	-0.357452
C50	C	1.073187	-0.303420	-0.551203
C51	C	1.073199	-0.303408	-0.633749
C52	C	1.073273	-0.139258	-0.357551
C53	C	1.073322	-0.069290	-0.357574
C54	C	1.023601	-0.345387	-0.833194
C55	C	1.091356	-0.360785	-0.882566
C56	C	1.073236	-0.303360	-0.784879
C57	C	1.005518	-0.287944	-0.882589
C58	C	1.073265	-0.303315	-0.930864
C59	C	1.141026	-0.318788	-0.833164
C60	C	1.055142	-0.245921	-0.833183
C61	C	1.122944	-0.261297	-0.882532
C62	C	1.073218	-0.303388	-0.700781
C63	C	1.073291	-0.303287	-1.014961
C64	C	1.073171	-0.303430	-0.164545
C65	C	1.073303	-0.303265	-0.082000
H66	H	0.527103	-0.275226	-0.482625
C67	C	1.217364	-0.336249	-0.804199
C68	C	1.216444	-0.336111	-0.726638
C69	C	1.286747	-0.352203	-0.699929
H70	H	1.252724	-0.306592	-0.821408
H71	H	1.230312	-0.376925	-0.821478
H72	H	1.203504	-0.295441	-0.709367
H73	H	1.181099	-0.365768	-0.709410
H74	H	1.299696	-0.392880	-0.717208
H75	H	1.322101	-0.322545	-0.717143
H76	H	1.286130	-0.352118	-0.647302
H77	H	1.159210	-0.542979	-0.443686
C78	C	0.967589	-0.392734	-0.804258
C79	C	0.914202	-0.361622	-0.761638
C80	C	0.862591	-0.405217	-0.734977
H81	H	0.992190	-0.423062	-0.774521
H82	H	0.944181	-0.413077	-0.844827
H83	H	0.937608	-0.341290	-0.721075
H84	H	0.889583	-0.331298	-0.791359
H85	H	0.839183	-0.425559	-0.775547
H86	H	0.887199	-0.435542	-0.705244
H87	H	0.826359	-0.384113	-0.706063
H88	H	0.527142	-0.409418	-0.323800
C89	C	0.974112	-0.534144	-0.258427
C90	C	0.984231	-0.469524	-0.268598
C91	C	0.936778	-0.436577	-0.221153
H92	H	0.984970	-0.544862	-0.208507
H93	H	0.924195	-0.544904	-0.269274
H94	H	1.034137	-0.458769	-0.257746
H95	H	0.973368	-0.458788	-0.318508
H96	H	0.886861	-0.447337	-0.232000
H97	H	0.947639	-0.447300	-0.171236
H98	H	0.943632	-0.392729	-0.228052
H99	H	1.159252	-0.662245	-0.443721
H100	H	0.527360	-0.225664	-0.266107
C101	C	1.111907	-0.425530	-0.911400
C102	C	1.182330	-0.441926	-0.885272
C103	C	1.201275	-0.501567	-0.911810
H104	H	1.112273	-0.425012	-0.964019
H105	H	1.076624	-0.455388	-0.894492
H106	H	1.217603	-0.412076	-0.902183
H107	H	1.181981	-0.442458	-0.832656
H108	H	1.165993	-0.531426	-0.894903
H109	H	1.201638	-0.501043	-0.964429
H110	H	1.249056	-0.512702	-0.894081
H111	H	0.987155	-0.944011	-0.271323
H112	H	0.948238	-0.274925	-0.904300
H113	H	1.164979	-0.225737	-0.904059
H114	H	1.039801	-0.197379	-0.811475
C115	C	0.974231	-0.671488	-0.258397
C116	C	0.984434	-0.736086	-0.268564
C117	C	0.937071	-0.769137	-0.221069
H118	H	0.924290	-0.660816	-0.269186
H119	H	0.985134	-0.660768	-0.208488
H120	H	0.973526	-0.746801	-0.318462
H121	H	1.034365	-0.746776	-0.257770
H122	H	0.947973	-0.758417	-0.171159
H123	H	0.887133	-0.758460	-0.231862
H124	H	0.943992	-0.812970	-0.227956
C125	C	1.172166	-0.934907	-0.456795
C126	C	1.155933	-0.950856	-0.530266
C127	C	1.203275	-0.917962	-0.577933
H128	H	1.222105	-0.945628	-0.446066
H129	H	1.165342	-0.891049	-0.450028
H130	H	1.162763	-0.994705	-0.537030
H131	H	1.106002	-0.940134	-0.541018
H132	H	1.196451	-0.874103	-0.571166
H133	H	1.253211	-0.928685	-0.567198
H134	H	1.192263	-0.928774	-0.627788
C135	C	0.627057	-0.392898	-0.463040
C136	C	0.602023	-0.376588	-0.533895
C137	C	0.628593	-0.420169	-0.585507
H138	H	0.609440	-0.433604	-0.450639
H139	H	0.679686	-0.392811	-0.462394
H140	H	0.549405	-0.376682	-0.534539
H141	H	0.619638	-0.335889	-0.546319
H142	H	0.681222	-0.420082	-0.584862
H143	H	0.610975	-0.460873	-0.573100
H144	H	0.611617	-0.409106	-0.633589
C145	C	1.172238	-1.072110	-0.456669
C146	C	1.162092	-1.136730	-0.446528
C147	C	1.209487	-1.169676	-0.494033
H148	H	1.222169	-1.061389	-0.445873
H149	H	1.161329	-1.061351	-0.506575
H150	H	1.173007	-1.147484	-0.396633
H151	H	1.112172	-1.147469	-0.457329
H152	H	1.198578	-1.158917	-0.543939
H153	H	1.259415	-1.158950	-0.483233
H154	H	1.202605	-1.213524	-0.487164
C155	C	0.627167	-0.181304	-0.396552
C156	C	0.704729	-0.182049	-0.396376
C157	C	0.731417	-0.122459	-0.415466
H158	H	0.609963	-0.151317	-0.361621
H159	H	0.609871	-0.170367	-0.444562
H160	H	0.722018	-0.192979	-0.348373
H161	H	0.721953	-0.212024	-0.431308
H162	H	0.714121	-0.111522	-0.463476
H163	H	0.714208	-0.092477	-0.380532
H164	H	0.784044	-0.122958	-0.415356
C165	C	0.627192	-0.336149	-0.213366
C166	C	0.601098	-0.395852	-0.193948
C167	C	0.627753	-0.411912	-0.123605
H168	H	0.610352	-0.306268	-0.178133
H169	H	0.679819	-0.336437	-0.214060
H170	H	0.548482	-0.395559	-0.193249
H171	H	0.617936	-0.425747	-0.229162
H172	H	0.680380	-0.412200	-0.124298
H173	H	0.610911	-0.382027	-0.088378
H174	H	0.610058	-0.452423	-0.110423
C175	C	0.974401	-1.072326	-0.258478
C176	C	0.984597	-1.136923	-0.268650
C177	C	0.937226	-1.169974	-0.221162
H178	H	0.924462	-1.061649	-0.269270
H179	H	0.985300	-1.061610	-0.208567
H180	H	0.973692	-1.147635	-0.318551
H181	H	1.034525	-1.147619	-0.257853
H182	H	0.948125	-1.159259	-0.171251
H183	H	0.887290	-1.159292	-0.231958
H184	H	0.944142	-1.213807	-0.228053
