data_functionalizedCrystal
_audit_creation_method	'MofGen! by Chris Wilmer'
_symmetry_space_group_name_H-M	'P1'
_symmetry_Int_Tables_number	1
_symmetry_cell_setting	triclinic
loop_
_symmetry_equiv_pos_as_xyz
  x,y,z
_cell_length_a	6.817900
_cell_length_b	9.582860
_cell_length_c	11.168136
_cell_angle_alpha	91.014244
_cell_angle_beta	108.508683
_cell_angle_gamma	111.206767
loop_
_atom_site_label
_atom_site_type_symbol
_atom_site_fract_x
_atom_site_fract_y
_atom_site_fract_z
V1	V	-4.124186	-0.207078	-0.393468
O2	O	-4.068781	0.009928	-0.386216
O3	O	-4.114531	-0.410579	-0.390548
O4	O	-4.100258	-0.203903	-0.565177
O5	O	-4.083153	-0.198179	-0.210378
V6	V	-4.599623	-0.181120	-0.371597
O7	O	-4.403183	-0.264018	-0.441444
O8	O	-4.770824	-0.124180	-0.323620
O9	O	-4.386071	0.022380	-0.374517
O10	O	-4.772426	-0.398126	-0.378848
O11	O	-4.758053	-0.190020	-0.554687
O12	O	-4.400345	-0.184296	-0.199887
C13	C	-3.968166	-0.460188	-0.384281
C14	C	-4.041722	-0.626552	-0.383039
C15	C	-3.949957	-0.196550	-0.607037
C16	C	-4.011932	-0.195301	-0.747409
C17	C	-4.214892	-0.201841	-0.816093
C18	C	-4.278951	-0.200550	-0.961175
C19	C	-4.195780	0.071981	-0.380779
C20	C	-4.101464	0.238344	-0.382030
C21	C	-4.213988	-0.191653	-0.158021
C22	C	-4.131250	-0.192895	-0.017648
H23	H	-4.452823	-0.206157	-1.020220
H24	H	-3.957382	-0.187305	-0.958613
O25	O	-4.365682	-0.209928	-0.758096
C26	C	-4.579404	-0.350113	-0.633380
C27	C	-4.408655	-0.341160	-0.699027
H28	H	-4.614165	-0.456189	-0.585583
H29	H	-4.742287	-0.354939	-0.707615
H30	H	-4.508037	-0.245761	-0.558263
H31	H	-4.479815	-0.445486	-0.774137
H32	H	-4.245798	-0.336259	-0.624716
O33	O	-3.861286	-0.187280	-0.805498
C34	C	-3.647345	-0.046990	-0.930073
C35	C	-3.818012	-0.055907	-0.864374
H36	H	-3.612269	0.059233	-0.977668
H37	H	-3.718654	-0.151215	-1.005318
H38	H	-3.484630	-0.042342	-0.855783
H39	H	-3.980775	-0.060507	-0.938571
H40	H	-3.746521	0.048316	-0.789105
