data_functionalizedCrystal
_audit_creation_method	'MofGen! by Chris Wilmer'
_symmetry_space_group_name_H-M	'P1'
_symmetry_Int_Tables_number	1
_symmetry_cell_setting	triclinic
loop_
_symmetry_equiv_pos_as_xyz
  x,y,z
_cell_length_a	18.101398
_cell_length_b	18.101395
_cell_length_c	18.101390
_cell_angle_alpha	89.968664
_cell_angle_beta	89.985301
_cell_angle_gamma	90.029256
loop_
_atom_site_label
_atom_site_type_symbol
_atom_site_fract_x
_atom_site_fract_y
_atom_site_fract_z
Zn1	Zn	1.132124	-0.294838	-0.418650
Zn2	Zn	1.465457	0.038495	-0.085316
Zn3	Zn	1.798790	0.371829	0.248017
Zn4	Zn	1.132019	-0.418695	-0.294812
Zn5	Zn	1.465352	-0.085362	0.038522
Zn6	Zn	1.798685	0.247972	0.371855
Zn7	Zn	1.008282	-0.294868	-0.294832
Zn8	Zn	1.341615	0.038466	0.038501
Zn9	Zn	1.674948	0.371799	0.371834
Zn10	Zn	1.008233	-0.418638	-0.418622
Zn11	Zn	1.341567	-0.085305	-0.085288
Zn12	Zn	1.674900	0.248029	0.248045
O13	O	1.070164	-0.356760	-0.356729
O14	O	1.403498	-0.023426	-0.023395
O15	O	1.736831	0.309907	0.309938
O16	O	1.235743	-0.311279	-0.402225
O17	O	1.569076	0.022054	-0.068892
O18	O	1.902409	0.355388	0.264441
O19	O	1.115581	-0.402305	-0.191181
O20	O	1.448914	-0.068972	0.142152
O21	O	1.782248	0.264361	0.475485
O22	O	1.024774	-0.191231	-0.311277
O23	O	1.358107	0.142102	0.022056
O24	O	1.691440	0.475436	0.355389
O25	O	1.235665	-0.402276	-0.311242
O26	O	1.568999	-0.068943	0.022091
O27	O	1.902332	0.264390	0.355425
O28	O	1.115760	-0.191209	-0.402245
O29	O	1.449093	0.142124	-0.068912
O30	O	1.782427	0.475458	0.264421
O31	O	1.024672	-0.311330	-0.191197
O32	O	1.358005	0.022003	0.142137
O33	O	1.691339	0.355337	0.475470
O34	O	0.904642	-0.311275	-0.311250
O35	O	1.237976	0.022058	0.022083
O36	O	1.571309	0.355392	0.355416
O37	O	1.024691	-0.402179	-0.522258
O38	O	1.358025	-0.068846	-0.188925
O39	O	1.691358	0.264487	0.144408
O40	O	0.904607	-0.402208	-0.402198
O41	O	1.237940	-0.068875	-0.068864
O42	O	1.571273	0.264458	0.264469
O43	O	1.115713	-0.311224	-0.522279
O44	O	1.449046	0.022109	-0.188946
O45	O	1.782380	0.355443	0.144388
O46	O	1.115534	-0.522320	-0.311215
O47	O	1.448867	-0.188987	0.022119
O48	O	1.782201	0.144346	0.355452
O49	O	1.024589	-0.522279	-0.402178
O50	O	1.357923	-0.188945	-0.068844
O51	O	1.691256	0.144388	0.264489
C52	C	0.877754	-0.356739	-0.356724
C53	C	1.211087	-0.023406	-0.023390
C54	C	1.544420	0.309927	0.309943
C55	C	0.795440	-0.356748	-0.356739
C56	C	1.128773	-0.023415	-0.023406
C57	C	1.462106	0.309918	0.309928
C58	C	1.070065	-0.549170	-0.356707
C59	C	1.403399	-0.215837	-0.023374
C60	C	1.736732	0.117496	0.309960
C61	C	1.070091	-0.631484	-0.356722
C62	C	1.403424	-0.298151	-0.023389
C63	C	1.736757	0.035182	0.309944
C64	C	0.644731	-0.356762	-0.356738
C65	C	0.978065	-0.023429	-0.023405
C66	C	1.311398	0.309904	0.309929
C67	C	0.613380	-0.414063	-0.413871
C68	C	0.946713	-0.080730	-0.080538
C69	C	1.280047	0.252603	0.252796
C70	C	0.527761	-0.414295	-0.413702
C71	C	0.861095	-0.080962	-0.080368
C72	C	1.194428	0.252371	0.252965
C73	C	0.496349	-0.356776	-0.356738
C74	C	0.829682	-0.023443	-0.023405
C75	C	1.163015	0.309891	0.309929
C76	C	0.527401	-0.377609	-0.278597
C77	C	0.860734	-0.044275	0.054737
C78	C	1.194068	0.289058	0.388070
C79	C	0.613046	-0.378017	-0.278927
C80	C	0.946379	-0.044683	0.054406
C81	C	1.279713	0.288650	0.387740
C82	C	0.613210	-0.278486	-0.377064
C83	C	0.946544	0.054847	-0.043730
C84	C	1.279877	0.388180	0.289603
C85	C	0.527560	-0.278915	-0.378785
C86	C	0.860893	0.054418	-0.045451
C87	C	1.194227	0.387752	0.287882
C88	C	0.412489	-0.356782	-0.356733
C89	C	0.745823	-0.023449	-0.023400
C90	C	1.079156	0.309884	0.309933
C91	C	0.728591	-0.356758	-0.356737
C92	C	1.061924	-0.023424	-0.023404
C93	C	1.395257	0.309909	0.309929
C94	C	1.070253	-0.930575	-0.356762
C95	C	1.403586	-0.597242	-0.023429
C96	C	1.736920	-0.263909	0.309904
C97	C	1.013166	-0.899255	-0.414136
C98	C	1.346499	-0.565921	-0.080802
C99	C	1.679833	-0.232588	0.252531
C100	C	1.012895	-0.813637	-0.413956
C101	C	1.346228	-0.480303	-0.080623
C102	C	1.679561	-0.146970	0.252710
C103	C	1.070172	-0.782193	-0.356743
C104	C	1.403506	-0.448859	-0.023410
C105	C	1.736839	-0.115526	0.309923
C106	C	1.049043	-0.813349	-0.278695
C107	C	1.382376	-0.480016	0.054638
C108	C	1.715709	-0.146682	0.387971
C109	C	1.048675	-0.898994	-0.279039
C110	C	1.382008	-0.565661	0.054295
C111	C	1.715341	-0.232327	0.387628
C112	C	1.148595	-0.898920	-0.376750
C113	C	1.481928	-0.565587	-0.043416
C114	C	1.815262	-0.232253	0.289917
C115	C	1.148134	-0.813269	-0.378461
C116	C	1.481468	-0.479936	-0.045128
C117	C	1.814801	-0.146602	0.288205
C118	C	1.070128	-0.698333	-0.356728
C119	C	1.403461	-0.365000	-0.023394
C120	C	1.736795	-0.031667	0.309939
C121	C	1.070296	-1.014435	-0.356773
C122	C	1.403629	-0.681101	-0.023439
C123	C	1.736962	-0.347768	0.309894
C124	C	1.263326	-0.356781	-0.356734
C125	C	1.596659	-0.023447	-0.023401
C126	C	1.929993	0.309886	0.309932
C127	C	1.345640	-0.356790	-0.356737
C128	C	1.678974	-0.023456	-0.023403
C129	C	2.012307	0.309877	0.309930
C130	C	1.070208	-0.356692	-0.549891
C131	C	1.403542	-0.023359	-0.216557
C132	C	1.736875	0.309975	0.116776
C133	C	1.070227	-0.356663	-0.632205
C134	C	1.403560	-0.023330	-0.298872
C135	C	1.736894	0.310003	0.034462
C136	C	1.070284	-0.163598	-0.356767
C137	C	1.403617	0.169736	-0.023434
C138	C	1.736951	0.503069	0.309900
C139	C	1.070335	-0.081284	-0.356783
C140	C	1.403668	0.252050	-0.023450
C141	C	1.737002	0.585383	0.309884
C142	C	1.070267	-0.356617	-0.931296
C143	C	1.403600	-0.023284	-0.597963
C144	C	1.736934	0.310050	-0.264629
C145	C	1.127724	-0.299592	-0.899984
C146	C	1.461057	0.033742	-0.566650
C147	C	1.794391	0.367075	-0.233317
C148	C	1.127545	-0.299380	-0.814365
C149	C	1.460878	0.033953	-0.481032
C150	C	1.794211	0.367287	-0.147699
C151	C	1.070248	-0.356640	-0.782913
C152	C	1.403581	-0.023307	-0.449580
C153	C	1.736915	0.310027	-0.116247
C154	C	0.992231	-0.335434	-0.813993
C155	C	1.325564	-0.002101	-0.480660
C156	C	1.658898	0.331232	-0.147326
C157	C	0.992575	-0.335007	-0.899638
C158	C	1.325908	-0.001673	-0.566305
C159	C	1.659242	0.331660	-0.232972
C160	C	1.090140	-0.434995	-0.899709
C161	C	1.423473	-0.101662	-0.566375
C162	C	1.756806	0.231672	-0.233042
C163	C	1.091852	-0.434595	-0.814059
C164	C	1.425185	-0.101262	-0.480725
C165	C	1.758519	0.232072	-0.147392
C166	C	1.070232	-0.356654	-0.699054
C167	C	1.403566	-0.023321	-0.365721
C168	C	1.736899	0.310012	-0.032387
C169	C	1.070277	-0.356601	-1.015156
C170	C	1.403611	-0.023268	-0.681822
C171	C	1.736944	0.310066	-0.348489
C172	C	1.070163	-0.356774	-0.164318
C173	C	1.403496	-0.023440	0.169015
C174	C	1.736830	0.309893	0.502348
C175	C	1.070288	-0.356594	-0.082005
C176	C	1.403621	-0.023260	0.251329
C177	C	1.736955	0.310073	0.584662
H178	H	0.506767	-0.401299	-0.471633
H179	H	0.840100	-0.067965	-0.138299
H180	H	1.173434	0.265368	0.195034
H181	H	0.955450	-0.920840	-0.401063
H182	H	1.288783	-0.587507	-0.067730
H183	H	1.622117	-0.254174	0.265603
H184	H	0.505921	-0.434194	-0.261125
H185	H	0.839255	-0.100861	0.072208
H186	H	1.172588	0.232473	0.405542
Cl187	Cl	0.645240	-0.394252	-0.503589
Cl188	Cl	0.978573	-0.060918	-0.170256
Cl189	Cl	1.311907	0.272415	0.163077
H190	H	0.507239	-0.472302	-0.400217
H191	H	0.840573	-0.138968	-0.066883
H192	H	1.173906	0.194365	0.266450
H193	H	0.633487	-0.235798	-0.335455
H194	H	0.966820	0.097536	-0.002122
H195	H	1.300154	0.430869	0.331212
H196	H	1.146032	-0.454304	-0.921349
H197	H	1.479365	-0.120970	-0.588016
H198	H	1.812698	0.212363	-0.254682
H199	H	0.634868	-0.471736	-0.400549
H200	H	0.968201	-0.138403	-0.067216
H201	H	1.301534	0.194930	0.266118
Cl202	Cl	0.923240	-0.782098	-0.393519
Cl203	Cl	1.256573	-0.448765	-0.060186
Cl204	Cl	1.589906	-0.115431	0.273147
Cl205	Cl	0.960258	-0.929941	-0.252898
Cl206	Cl	1.293592	-0.596608	0.080435
Cl207	Cl	1.626925	-0.263275	0.413768
H208	H	1.089314	-0.792983	-0.234783
H209	H	1.422648	-0.459650	0.098551
H210	H	1.755981	-0.126316	0.431884
H211	H	1.088451	-0.919716	-0.234834
H212	H	1.421784	-0.586382	0.098499
H213	H	1.755118	-0.253049	0.431833
Cl214	Cl	0.965748	-0.247956	-0.780903
Cl215	Cl	1.299081	0.085377	-0.447570
Cl216	Cl	1.632414	0.418710	-0.114237
H217	H	1.149265	-0.450586	-0.793744
H218	H	1.482598	-0.117252	-0.460411
H219	H	1.815932	0.216081	-0.127077
H220	H	0.632988	-0.435225	-0.261748
H221	H	0.966321	-0.101892	0.071586
H222	H	1.299655	0.231441	0.404919
H223	H	0.506179	-0.233968	-0.340239
H224	H	0.839512	0.099365	-0.006905
H225	H	1.172846	0.432699	0.326428
Cl226	Cl	0.961560	-0.780338	-0.252084
Cl227	Cl	1.294894	-0.447005	0.081250
Cl228	Cl	1.628227	-0.113671	0.414583
H229	H	1.191127	-0.919174	-0.334963
H230	H	1.524460	-0.585841	-0.001629
H231	H	1.857794	-0.252508	0.331704
H232	H	1.026114	-0.792569	-0.471828
H233	H	1.359448	-0.459236	-0.138495
H234	H	1.692781	-0.125902	0.194839
H235	H	1.114736	-0.241852	-0.921521
H236	H	1.448070	0.091481	-0.588188
H237	H	1.781403	0.424815	-0.254854
H238	H	1.053046	-0.479367	-0.792646
H239	H	1.386380	-0.146033	-0.459313
H240	H	1.719713	0.187300	-0.125979
Cl241	Cl	0.924223	-0.396329	-0.931620
Cl242	Cl	1.257557	-0.062996	-0.598287
Cl243	Cl	1.590890	0.270337	-0.264954
Cl244	Cl	0.645069	-0.316362	-0.210929
Cl245	Cl	0.978403	0.016972	0.122405
Cl246	Cl	1.311736	0.350305	0.455738
Cl247	Cl	0.495989	-0.315151	-0.211065
Cl248	Cl	0.829322	0.018182	0.122268
Cl249	Cl	1.162656	0.351516	0.455601
Cl250	Cl	1.025527	-0.500594	-0.930968
Cl251	Cl	1.358861	-0.167261	-0.597635
Cl252	Cl	1.692194	0.166073	-0.264302
Cl253	Cl	1.107234	-0.209734	-0.782751
Cl254	Cl	1.440568	0.123599	-0.449418
Cl255	Cl	1.773901	0.456933	-0.116084
Cl256	Cl	1.033368	-0.930976	-0.503778
Cl257	Cl	1.366701	-0.597642	-0.170445
Cl258	Cl	1.700034	-0.264309	0.162889
Cl259	Cl	0.646597	-0.249102	-0.463556
Cl260	Cl	0.979930	0.084231	-0.130223
Cl261	Cl	1.313263	0.417565	0.203110
H262	H	1.167859	-0.920465	-0.432692
H263	H	1.501192	-0.587131	-0.099359
H264	H	1.834526	-0.253798	0.233975
H265	H	0.507268	-0.263199	-0.436293
H266	H	0.840601	0.070134	-0.102959
H267	H	1.173935	0.403467	0.230374
H268	H	1.164068	-0.792902	-0.435900
H269	H	1.497401	-0.459569	-0.102567
H270	H	1.830735	-0.126236	0.230766
Cl271	Cl	1.217280	-0.780212	-0.318651
Cl272	Cl	1.550614	-0.446879	0.014682
Cl273	Cl	1.883947	-0.113545	0.348016
H274	H	1.185396	-0.312660	-0.793353
H275	H	1.518729	0.020673	-0.460020
H276	H	1.852063	0.354007	-0.126686
H277	H	1.185764	-0.312708	-0.920581
H278	H	1.519098	0.020626	-0.587248
H279	H	1.852431	0.353959	-0.253915
Cl280	Cl	0.966531	-0.246560	-0.930506
Cl281	Cl	1.299864	0.086773	-0.597173
Cl282	Cl	1.633198	0.420106	-0.263839
Cl283	Cl	0.924340	-0.397589	-0.782547
Cl284	Cl	1.257673	-0.064255	-0.449214
Cl285	Cl	1.591007	0.269078	-0.115880
