data_functionalizedCrystal
_audit_creation_method	'MofGen! by Chris Wilmer'
_symmetry_space_group_name_H-M	'P1'
_symmetry_Int_Tables_number	1
_symmetry_cell_setting	triclinic
loop_
_symmetry_equiv_pos_as_xyz
  x,y,z
_cell_length_a	19.188925
_cell_length_b	11.026607
_cell_length_c	9.482900
_cell_angle_alpha	78.599815
_cell_angle_beta	99.258273
_cell_angle_gamma	95.864283
loop_
_atom_site_label
_atom_site_type_symbol
_atom_site_fract_x
_atom_site_fract_y
_atom_site_fract_z
O1	O	-0.953929	-0.132318	-0.120924
O2	O	-0.453929	0.367682	0.379076
O3	O	-0.753215	-0.152707	-0.120920
O4	O	-0.253215	0.347293	0.379080
O5	O	-0.836936	0.034051	-0.120916
O6	O	-0.336936	0.534051	0.379084
O7	O	-0.870207	-0.319076	-0.120927
O8	O	-0.370207	0.180924	0.379073
O9	O	-0.819950	-0.004035	0.120876
O10	O	-0.319950	0.495965	0.620876
O11	O	-0.736228	-0.190793	0.120872
O12	O	-0.236228	0.309207	0.620872
O13	O	-0.936942	-0.170404	0.120868
O14	O	-0.436942	0.329596	0.620868
Cu15	Cu	-0.835034	-0.184076	0.142948
Cu16	Cu	-0.335034	0.315924	0.642948
Cu17	Cu	-0.855123	-0.139035	-0.142999
Cu18	Cu	-0.355123	0.360965	0.357001
O19	O	-0.853220	-0.357162	0.120864
O20	O	-0.353220	0.142838	0.620864
C21	C	-0.718626	-0.171091	-0.000023
C22	C	-0.218626	0.328909	0.499977
C23	C	-0.640869	-0.169112	-0.000021
C24	C	-0.140869	0.330888	0.499979
C25	C	-0.822305	0.060186	-0.000022
C26	C	-0.322305	0.560186	0.499978
C27	C	-0.804009	0.194803	-0.000027
C28	C	-0.304009	0.694803	0.499973
C29	C	-0.971531	-0.152020	-0.000032
C30	C	-0.471531	0.347980	0.499968
C31	C	-1.049288	-0.153997	-0.000043
C32	C	-0.549288	0.346003	0.499957
C33	C	-0.091377	-0.265446	-0.000028
C34	C	0.408623	0.234554	0.499972
C35	C	-0.164439	-0.267314	-0.000036
C36	C	0.335561	0.232686	0.499964
C37	C	-0.195407	-0.157732	-0.000030
C38	C	0.304593	0.342268	0.499970
C39	C	-0.153309	-0.046266	-0.000053
C40	C	0.346691	0.453734	0.499947
C41	C	-0.080250	-0.044399	-0.000060
C42	C	0.419750	0.455601	0.499940
N43	N	-0.300191	-0.091363	0.082281
N44	N	0.199809	0.408637	0.582281
N45	N	-0.369595	-0.093145	0.082290
N46	N	0.130405	0.406855	0.582290
C47	C	-0.415531	-0.163352	-0.000013
C48	C	0.084469	0.336648	0.499987
N49	N	-0.389441	-0.231730	-0.082307
N50	N	0.110559	0.268270	0.417693
N51	N	-0.320031	-0.229952	-0.082310
N52	N	0.179969	0.270048	0.417690
C53	C	-0.274627	-0.159744	-0.000023
C54	C	0.225373	0.340256	0.499977
C55	C	-0.536842	-0.276834	-0.000008
C56	C	-0.036842	0.223166	0.499992
C57	C	-0.609906	-0.278697	-0.000025
C58	C	-0.109906	0.221303	0.499975
C59	C	-0.598774	-0.057648	-0.000028
C60	C	-0.098774	0.442352	0.499972
C61	C	-0.525713	-0.055786	-0.000025
C62	C	-0.025713	0.444214	0.499975
C63	C	-0.494751	-0.165384	-0.000009
C64	C	0.005249	0.334616	0.499991
C65	C	-0.867851	-0.383297	-0.000033
C66	C	-0.367851	0.116703	0.499967
C67	C	-0.886149	-0.517912	-0.000038
C68	C	-0.386149	-0.017912	0.499962
N69	N	-0.820910	-0.215755	0.344067
N70	N	-0.320910	0.284245	0.844067
C71	C	-0.854530	0.268879	-0.000030
C72	C	-0.354530	0.768879	0.499970
C73	C	-0.835621	0.408013	-0.000035
C74	C	-0.335621	0.908013	0.499965
N75	N	-0.869251	-0.107346	-0.344119
N76	N	-0.369251	0.392654	0.155881
C77	C	-0.850951	-0.148372	0.416268
C78	C	-0.350951	0.351628	0.916268
C79	C	-0.839206	-0.174739	0.583685
C80	C	-0.339206	0.325261	1.083685
H81	H	-0.066173	-0.354688	-0.000021
H82	H	0.433827	0.145312	0.499979
N83	N	-0.793610	-0.277012	0.665958
N84	N	-0.293610	0.222988	1.165958
H85	H	-0.791680	-0.281349	0.773893
H86	H	-0.291680	0.218651	1.273893
H87	H	-0.814465	-0.358785	0.639426
H88	H	-0.314465	0.141215	1.139426
H89	H	-0.746758	0.234390	-0.000035
H90	H	-0.246758	0.734390	0.499965
N91	N	-0.759777	0.460417	-0.000037
N92	N	-0.259777	0.960417	0.499963
H93	H	-0.756225	0.526365	-0.089671
H94	H	-0.256225	1.026365	0.410329
H95	H	-0.743676	0.498067	0.089653
H96	H	-0.243676	0.998067	0.589653
H97	H	-0.885363	-0.071158	0.354141
H98	H	-0.385363	0.428842	0.854141
H99	H	-0.943412	0.442527	-0.000148
H100	H	-0.443412	0.942527	0.499852
H101	H	-0.903665	-0.030127	0.593758
H102	H	-0.403665	0.469873	1.093758
N103	N	-0.632159	0.060551	-0.000009
N104	N	-0.132159	0.560551	0.499991
H105	H	-0.623310	0.123311	-0.089642
H106	H	-0.123310	0.623311	0.410358
H107	H	-0.684818	0.042356	0.000052
H108	H	-0.184818	0.542356	0.500052
N109	N	-0.209847	-0.387524	-0.000021
N110	N	0.290153	0.112476	0.499979
H111	H	-0.179146	-0.456669	-0.000014
H112	H	0.320854	0.043331	0.499986
H113	H	-0.234100	-0.407217	0.089620
H114	H	0.265900	0.092783	0.589620
N115	N	-0.186706	0.071929	-0.000052
N116	N	0.313294	0.571929	0.499948
H117	H	-0.239376	0.053835	-0.000040
H118	H	0.260624	0.553835	0.499960
H119	H	-0.165204	0.106404	0.089579
H120	H	0.334796	0.606404	0.589579
H121	H	-0.644175	-0.369454	-0.000025
H122	H	-0.144175	0.130546	0.499975
N123	N	-0.775317	-0.318022	0.426353
N124	N	-0.275317	0.181978	0.926353
H125	H	-0.804396	-0.381350	0.489497
H126	H	-0.304396	0.118650	0.989497
H127	H	-0.756890	-0.359270	0.355079
H128	H	-0.256890	0.140730	0.855079
N129	N	-0.034844	0.075806	-0.000065
N130	N	0.465156	0.575806	0.499935
H131	H	-0.051421	0.137918	-0.089698
H132	H	0.448579	0.637918	0.410302
H133	H	-0.038843	0.109578	0.089626
H134	H	0.461157	0.609578	0.589626
N135	N	-0.503442	-0.395032	-0.000006
N136	N	-0.003442	0.104968	0.499994
H137	H	-0.541196	-0.465919	-0.000013
H138	H	-0.041196	0.034081	0.499987
H139	H	-0.479669	-0.384949	-0.089643
H140	H	0.020331	0.115051	0.410357
N141	N	-0.480311	0.064419	-0.000030
N142	N	0.019689	0.564419	0.499970
H143	H	-0.511013	0.133558	-0.000025
H144	H	-0.011013	0.633558	0.499975
H145	H	-0.443457	0.055890	0.089604
H146	H	0.056543	0.555890	0.589604
H147	H	-0.911780	0.229292	-0.000022
H148	H	-0.411780	0.729292	0.499978
