data_functionalizedCrystal
_audit_creation_method	'MofGen! by Chris Wilmer'
_symmetry_space_group_name_H-M	'P1'
_symmetry_Int_Tables_number	1
_symmetry_cell_setting	triclinic
loop_
_symmetry_equiv_pos_as_xyz
  x,y,z
_cell_length_a	6.817900
_cell_length_b	11.102291
_cell_length_c	11.102188
_cell_angle_alpha	91.949911
_cell_angle_beta	108.603875
_cell_angle_gamma	108.605752
loop_
_atom_site_label
_atom_site_type_symbol
_atom_site_fract_x
_atom_site_fract_y
_atom_site_fract_z
V1	V	-4.111529	-0.396259	-0.175855
O2	O	-4.070572	-0.388716	0.008434
O3	O	-4.088297	-0.393549	-0.348675
O4	O	-4.088314	-0.569081	-0.173157
O5	O	-4.070554	-0.211968	-0.168299
V6	V	-4.588633	-0.374216	-0.153811
O7	O	-4.386870	-0.444611	-0.224210
O8	O	-4.763490	-0.325864	-0.105456
O9	O	-4.388658	-0.376926	0.019009
O10	O	-4.746987	-0.381760	-0.338100
O11	O	-4.747005	-0.558507	-0.161367
O12	O	-4.388641	-0.201394	-0.156509
C13	C	-3.938605	-0.387298	-0.390804
C14	C	-4.001065	-0.386234	-0.532087
C15	C	-3.970237	-0.269349	-0.580308
C16	C	-4.028949	-0.268355	-0.713059
C17	C	-4.149307	-0.501140	-0.749358
C18	C	-4.090610	-0.502134	-0.616610
C19	C	-3.938626	-0.611205	-0.166912
C20	C	-4.001095	-0.752488	-0.165850
C21	C	-4.214449	-0.825336	-0.171690
C22	C	-4.273121	-0.958082	-0.170667
C23	C	-3.905065	-0.945121	-0.157969
C24	C	-3.846392	-0.812376	-0.158983
C25	C	-4.426947	-0.832821	-0.179026
C26	C	-4.485619	-0.965567	-0.178003
C27	C	-4.201692	-0.383174	0.061132
C28	C	-4.118473	-0.384246	0.202413
C29	C	-4.201671	-0.159264	-0.162757
C30	C	-4.118439	-0.017979	-0.163813
H31	H	-4.222217	-0.595501	-0.818192
F32	F	-4.123435	-0.626546	-0.565288
H33	H	-3.897326	-0.174976	-0.511492
F34	F	-3.996143	-0.143950	-0.764373
H35	H	-3.672664	-0.753068	-0.154230
F36	F	-3.740436	-1.008870	-0.150663
H37	H	-4.446426	-0.785725	-0.092764
H38	H	-4.629311	-1.018414	-0.269897
F39	F	-4.551629	-0.800839	-0.302904
F40	F	-4.533295	-1.003613	-0.060062
