data_functionalizedCrystal
_audit_creation_method	'MofGen! by Chris Wilmer'
_symmetry_space_group_name_H-M	'P1'
_symmetry_Int_Tables_number	1
_symmetry_cell_setting	triclinic
loop_
_symmetry_equiv_pos_as_xyz
  x,y,z
_cell_length_a	16.120490
_cell_length_b	16.120484
_cell_length_c	12.759387
_cell_angle_alpha	87.136336
_cell_angle_beta	92.915495
_cell_angle_gamma	90.164100
loop_
_atom_site_label
_atom_site_type_symbol
_atom_site_fract_x
_atom_site_fract_y
_atom_site_fract_z
Zn1	Zn	1.254476	-0.395624	0.699331
Zn2	Zn	1.754476	0.104376	1.199331
Zn3	Zn	1.247319	-0.534696	0.532064
Zn4	Zn	1.747319	-0.034696	1.032064
Zn5	Zn	1.115415	-0.388597	0.514341
Zn6	Zn	1.615415	0.111403	1.014341
Zn7	Zn	1.108328	-0.527569	0.698374
Zn8	Zn	1.608328	-0.027569	1.198374
O9	O	1.181385	-0.461621	0.611028
O10	O	1.681385	0.038379	1.111028
O11	O	1.369892	-0.419995	0.684960
O12	O	1.869892	0.080005	1.184960
O13	O	1.229793	-0.515357	0.382692
O14	O	1.729793	-0.015357	0.882692
O15	O	1.139823	-0.273167	0.531864
O16	O	1.639823	0.226833	1.031864
O17	O	1.364634	-0.522171	0.562070
O18	O	1.864634	-0.022171	1.062070
O19	O	1.241991	-0.278329	0.667776
O20	O	1.741991	0.221671	1.167776
O21	O	1.132883	-0.408019	0.369672
O22	O	1.632883	0.091981	0.869672
O23	O	0.998109	-0.401109	0.530936
O24	O	1.498109	0.098891	1.030936
O25	O	1.127744	-0.510024	0.845521
O26	O	1.627744	-0.010024	1.345521
O27	O	0.992903	-0.503211	0.666144
O28	O	1.492903	-0.003211	1.166144
O29	O	1.235118	-0.413085	0.846225
O30	O	1.735118	0.086915	1.346225
O31	O	1.222920	-0.650113	0.561141
O32	O	1.722920	-0.150113	1.061141
O33	O	1.120804	-0.644877	0.683329
O34	O	1.620804	-0.144877	1.183329
C35	C	0.965334	-0.450624	0.596514
C36	C	1.465334	0.049376	1.096514
C37	C	0.872905	-0.445940	0.590331
C38	C	1.372905	0.054060	1.090331
C39	C	0.659935	-0.485914	0.643101
C40	C	1.159935	0.014086	1.143101
C41	C	0.703682	-0.437395	0.579041
C42	C	1.203682	0.062605	1.079041
C43	C	0.797846	-0.442151	0.585325
C44	C	1.297846	0.057849	1.085325
C45	C	0.565762	-0.481159	0.636819
C46	C	1.065762	0.018841	1.136819
C47	C	1.170339	-0.677667	0.624079
C48	C	1.670339	-0.177667	1.124079
C49	C	1.165690	-0.770096	0.629702
C50	C	1.665690	-0.270096	1.129702
C51	C	1.157207	-0.939326	0.639992
C52	C	1.657207	-0.439326	1.139992
C53	C	1.205712	-0.983084	0.582091
C54	C	1.705712	-0.483084	1.082091
C55	C	1.200991	-1.077249	0.587816
C56	C	1.700991	-0.577249	1.087816
C57	C	1.161926	-0.845152	0.634268
C58	C	1.661926	-0.345152	1.134268
C59	C	1.398279	-0.472662	0.625599
C60	C	1.898279	0.027338	1.125599
C61	C	1.490707	-0.477367	0.631808
C62	C	1.990707	0.022633	1.131808
C63	C	1.181439	-0.461543	0.885060
C64	C	1.681439	0.038457	1.385060
C65	C	1.181462	-0.461510	1.001836
C66	C	1.681462	0.038490	1.501836
C67	C	1.192496	-0.244733	0.597950
C68	C	1.692496	0.255267	1.097950
C69	C	1.197231	-0.152308	0.592377
C70	C	1.697231	0.347692	1.092377
C71	C	1.181381	-0.461642	0.338061
C72	C	1.681381	0.038358	0.838061
C73	C	1.181531	-0.461449	0.221282
C74	C	1.681531	0.038551	0.721282
C75	C	1.282435	-0.573227	1.234820
C76	C	1.782435	-0.073227	1.734820
C77	C	1.332874	-0.629128	1.186728
C78	C	1.832874	-0.129128	1.686728
C79	C	1.332845	-0.629159	1.077006
C80	C	1.832845	-0.129159	1.577006
C81	C	1.282370	-0.573283	1.015373
C82	C	1.782370	-0.073283	1.515373
C83	C	1.231930	-0.517381	1.063465
C84	C	1.731930	-0.017381	1.563465
C85	C	1.231967	-0.517356	1.173190
C86	C	1.731967	-0.017356	1.673190
C87	C	1.131023	-0.405609	1.049928
C88	C	1.631023	0.094391	1.549928
C89	C	1.131056	-0.405573	1.159649
C90	C	1.631056	0.094427	1.659649
C91	C	1.080548	-0.349733	0.988295
C92	C	1.580548	0.150267	1.488295
C93	C	1.030112	-0.293826	1.036387
C94	C	1.530112	0.206174	1.536387
C95	C	1.030144	-0.293798	1.146116
C96	C	1.530144	0.206202	1.646116
C97	C	1.080616	-0.349672	1.207741
C98	C	1.580616	0.150328	1.707741
H99	H	0.693201	-0.531022	0.702658
H100	H	1.193201	-0.031022	1.202658
H101	H	1.250782	-0.949825	0.528220
H102	H	1.750782	-0.449825	1.028220
O103	O	1.387314	-0.689396	1.253197
O104	O	1.887314	-0.189396	1.753197
H105	H	1.431551	-0.654322	1.303773
H106	H	1.931551	-0.154322	1.803773
O107	O	1.080746	-0.349616	1.326089
O108	O	1.580746	0.150384	1.826089
H109	H	1.060765	-0.411463	1.357736
H110	H	1.560765	0.088537	1.857736
H111	H	0.989015	-0.248340	0.986197
H112	H	1.489015	0.251660	1.486197
H113	H	1.112138	-0.972582	0.693857
H114	H	1.612138	-0.472582	1.193857
H115	H	1.282472	-0.573200	1.324162
H116	H	1.782472	-0.073200	1.824162
O117	O	1.387251	-0.689444	1.025124
O118	O	1.887251	-0.189444	1.525124
H119	H	1.422360	-0.728288	1.086409
H120	H	1.922360	-0.228288	1.586409
H121	H	0.670414	-0.392284	0.519479
H122	H	1.170414	0.107716	1.019479
H123	H	1.282343	-0.573319	0.926033
H124	H	1.782343	-0.073319	1.426033
O125	O	1.080517	-0.349755	0.869952
O126	O	1.580517	0.150245	1.369952
H127	H	1.124077	-0.398006	0.846862
H128	H	1.624077	0.101994	1.346862
O129	O	0.975744	-0.233500	1.197987
O130	O	1.475744	0.266500	1.697987
H131	H	0.940650	-0.194652	1.136693
H132	H	1.440650	0.305348	1.636693
