data_functionalizedCrystal
_audit_creation_method	'MofGen! by Chris Wilmer'
_symmetry_space_group_name_H-M	'P1'
_symmetry_Int_Tables_number	1
_symmetry_cell_setting	triclinic
loop_
_symmetry_equiv_pos_as_xyz
  x,y,z
_cell_length_a	31.640172
_cell_length_b	14.809374
_cell_length_c	31.640172
_cell_angle_alpha	52.853812
_cell_angle_beta	90.008445
_cell_angle_gamma	67.424801
loop_
_atom_site_label
_atom_site_type_symbol
_atom_site_fract_x
_atom_site_fract_y
_atom_site_fract_z
Zr1	Zr	0.458707	1.000421	-0.106920
O2	O	0.401038	1.191121	-0.184229
O3	O	0.469575	0.809722	-0.076411
O4	O	0.479394	1.000397	-0.174397
O5	O	0.391221	1.000464	-0.016696
O6	O	0.548950	1.000378	-0.174387
O7	O	0.391219	1.000445	-0.086244
O8	O	0.531385	0.659294	0.000892
O9	O	0.408786	1.341548	-0.191975
O10	O	0.534347	0.888145	-0.071619
O11	O	0.482440	0.888173	-0.019724
O12	O	0.494001	1.112669	-0.135090
O13	O	0.442094	1.112698	-0.083195
Zr14	Zr	0.569644	1.000421	0.004016
Zr15	Zr	0.569641	1.000391	-0.106904
Zr16	Zr	0.458710	1.000452	0.004000
Zr17	Zr	0.471064	1.240335	-0.119273
Zr18	Zr	0.557288	0.760507	0.016370
O19	O	0.558777	1.191121	-0.026492
O20	O	0.558772	1.191078	-0.184206
O21	O	0.401043	1.191164	-0.026516
O22	O	0.627313	0.809722	0.081326
O23	O	0.627309	0.809679	-0.076388
O24	O	0.469579	0.809765	0.081303
O25	O	0.637130	1.000378	-0.086207
O26	O	0.548957	1.000445	0.071494
O27	O	0.479401	1.000464	0.071483
O28	O	0.637132	1.000397	-0.016660
O29	O	0.496964	1.341524	-0.191962
O30	O	0.531388	0.659318	0.089059
O31	O	0.619565	0.659294	0.089072
O32	O	0.619563	0.659270	0.000905
O33	O	0.408789	1.341572	-0.103809
O34	O	0.496966	1.341548	-0.103796
O35	O	0.534350	0.888173	0.032186
O36	O	0.586258	0.888145	-0.019709
O37	O	0.545911	1.112669	-0.083180
O38	O	0.494004	1.112698	-0.031285
C39	C	0.498719	0.700325	-0.035999
C40	C	0.493474	0.598476	-0.030755
C41	C	0.516885	0.553054	-0.054160
C42	C	0.511464	0.447787	-0.048740
C43	C	0.375414	1.000459	-0.051472
C44	C	0.328320	1.000472	-0.051479
C45	C	0.057371	0.883210	-0.018309
C46	C	-0.119615	0.883187	-0.018298
O47	O	-0.124590	0.783513	0.009898
N48	N	-0.162805	1.000386	-0.051430
C49	C	-0.161748	1.117598	-0.084564
O50	O	-0.202545	1.217282	-0.112740
C51	C	0.015238	1.117619	-0.084572
C52	C	0.058427	1.000413	-0.051442
C53	C	0.100559	0.766013	0.014818
C54	C	0.144802	0.766020	0.014813
C55	C	0.145859	0.883223	-0.018320
C56	C	0.102671	1.000420	-0.051448
C57	C	0.016295	1.234831	-0.117703
C58	C	0.060546	1.234825	-0.117701
C59	C	0.103735	1.117619	-0.084571
C60	C	0.147971	1.117630	-0.084586
N61	N	0.191161	1.000432	-0.051455
C62	C	0.190105	0.883228	-0.018321
C63	C	-0.254666	1.117579	-0.084559
C64	C	-0.298912	1.117574	-0.084557
C65	C	-0.256777	0.883163	-0.018290
C66	C	-0.212530	0.883169	-0.018295
C67	C	-0.211476	1.000381	-0.051427
C68	C	0.283018	0.883251	-0.018336
C69	C	0.327264	0.883269	-0.018346
C70	C	0.285124	1.117679	-0.084611
C71	C	0.240882	1.117663	-0.084603
C72	C	0.239832	1.000439	-0.051461
O73	O	0.152982	1.217252	-0.112763
O74	O	0.230907	0.783559	0.009860
C75	C	0.013127	0.883203	-0.018304
C76	C	-0.030060	1.000400	-0.051431
C77	C	-0.029004	1.117603	-0.084565
C78	C	-0.074306	1.000395	-0.051430
C79	C	-0.075363	0.883191	-0.018297
C80	C	-0.032172	0.765993	0.014835
C81	C	0.012071	0.766000	0.014829
C82	C	-0.072194	1.234802	-0.117696
C83	C	-0.116436	1.234785	-0.117689
C84	C	-0.117492	1.117582	-0.084556
C85	C	0.652937	1.000384	-0.051431
C86	C	0.700031	1.000371	-0.051424
C87	C	0.514172	1.000384	-0.190196
C88	C	0.514170	1.000371	-0.237284
C89	C	0.529632	1.300517	-0.066904
C90	C	0.534878	1.402367	-0.072149
C91	C	0.493121	1.117633	-0.562454
C92	C	0.493122	1.117655	-0.739450
O93	O	0.475230	1.217330	-0.790513
N94	N	0.514182	1.000457	-0.728449
C95	C	0.535245	0.883244	-0.673194
O96	O	0.553162	0.783560	-0.667898
C97	C	0.535246	0.883223	-0.496198
C98	C	0.514181	1.000430	-0.507204
C99	C	0.472058	1.234830	-0.573456
C100	C	0.472055	1.234823	-0.529210
C101	C	0.493116	1.117619	-0.473960
C102	C	0.514179	1.000423	-0.462957
C103	C	0.556312	0.766012	-0.440944
C104	C	0.556312	0.766017	-0.396696
C105	C	0.535247	0.883224	-0.407701
C106	C	0.535236	0.883213	-0.363461
N107	N	0.514177	1.000411	-0.374462
C108	C	0.493117	1.117614	-0.429711
C109	C	0.535242	0.883264	-0.766121
C110	C	0.535241	0.883269	-0.810370
C111	C	0.493119	1.117680	-0.876623
C112	C	0.493117	1.117674	-0.832374
C113	C	0.514183	1.000462	-0.777122
C114	C	0.493112	1.117591	-0.336787
C115	C	0.493110	1.117574	-0.292534
C116	C	0.535234	0.883164	-0.226284
C117	C	0.535235	0.883180	-0.270534
C118	C	0.514173	1.000404	-0.325787
O119	O	0.553124	0.783590	-0.312385
O120	O	0.475212	1.217284	-0.434995
C121	C	0.493123	1.117640	-0.606700
C122	C	0.514186	1.000443	-0.595698
C123	C	0.535247	0.883240	-0.540448
C124	C	0.514185	1.000448	-0.639946
C125	C	0.493125	1.117651	-0.695196
C126	C	0.472065	1.234850	-0.706197
C127	C	0.472063	1.234843	-0.661950
C128	C	0.556306	0.766041	-0.529447
C129	C	0.556306	0.766058	-0.573696
C130	C	0.535246	0.883261	-0.628946
C131	C	0.514180	1.000459	0.087292
C132	C	0.514181	1.000472	0.134381
C133	C	0.637481	0.700288	-0.035979
C134	C	0.679329	0.598425	-0.030728
C135	C	0.498723	0.700363	0.102745
C136	C	0.493479	0.598526	0.155077
C137	C	0.637485	0.700325	0.102765
C138	C	0.679335	0.598476	0.155105
C139	C	0.390867	1.300517	-0.205669
C140	C	0.349017	1.402367	-0.258008
C141	C	0.390871	1.300555	-0.066925
C142	C	0.349022	1.402418	-0.072176
C143	C	0.529628	1.300480	-0.205648
C144	C	0.534872	1.402317	-0.257981
C145	C	0.671885	0.550589	-0.055363
C146	C	0.711203	0.454892	-0.050439
C147	C	0.757964	0.407025	-0.020878
C148	C	0.765408	0.454870	0.003758
C149	C	0.726091	0.550573	-0.001169
C150	C	0.518113	0.550703	0.206755
C151	C	0.513184	0.455029	0.255930
C152	C	0.483624	0.407175	0.253428
C153	C	0.458987	0.455008	0.201745
C154	C	0.463913	0.550686	0.152570
C155	C	0.726088	0.550631	0.152596
C156	C	0.765415	0.454946	0.201769
C157	C	0.757988	0.407100	0.253452
C158	C	0.711230	0.454954	0.255960
C159	C	0.671904	0.550644	0.206786
C160	C	0.302264	1.450223	-0.255500
C161	C	0.262938	1.545938	-0.304675
C162	C	0.270366	1.593789	-0.356358
C163	C	0.317123	1.545929	-0.358865
C164	C	0.356448	1.450222	-0.309691
C165	C	0.356467	1.450264	-0.047546
C166	C	0.317150	1.545988	-0.052483
C167	C	0.270389	1.593857	-0.082046
C168	C	0.262946	1.546008	-0.106679
C169	C	0.302262	1.450292	-0.101746
C170	C	0.564436	1.450141	-0.255460
C171	C	0.569374	1.545814	-0.304628
C172	C	0.544744	1.593669	-0.356315
C173	C	0.515178	1.545836	-0.358834
C174	C	0.510244	1.450157	-0.309667
H175	H	0.469419	0.559428	-0.006703
H176	H	0.454909	1.330285	-0.670918
H177	H	0.443854	0.589612	0.110495
H178	H	0.475954	1.213022	-0.301502
H179	H	-0.257643	0.787731	0.008685
H180	H	0.803484	0.415993	0.199718
H181	H	0.479616	0.329268	0.293474
N182	N	0.478349	1.398603	-0.312397
H183	H	0.451936	1.415282	-0.296116
H184	H	0.498280	1.302553	-0.290310
N185	N	0.734105	0.602213	0.096857
H186	H	0.769692	0.557374	0.102737
H187	H	0.721871	0.698280	0.072367
H188	H	0.790014	0.329183	0.293488
H189	H	0.224870	1.584890	-0.302622
H190	H	0.705133	0.415948	-0.070501
H191	H	0.633814	0.589561	-0.079441
H192	H	0.548765	1.671577	-0.396346
H193	H	0.542184	0.589655	0.208803
N194	N	0.800368	0.303805	-0.015567
H195	H	0.788552	0.280770	-0.035660
H196	H	0.817562	0.224460	0.025228
H197	H	0.540943	0.592092	-0.078208
H198	H	0.454914	1.330281	-0.751190
N199	N	0.703221	0.403333	0.311705
H200	H	0.687435	0.476334	0.312099
H201	H	0.735247	0.335431	0.342441
N202	N	0.815844	0.403238	0.035641
H203	H	0.839617	0.335350	0.035022
H204	H	0.817906	0.363599	0.075573
N205	N	0.427109	0.403380	0.199049
H206	H	0.400702	0.420038	0.215340
H207	H	0.447058	0.307329	0.221147
H208	H	0.323165	1.584902	-0.400952
H209	H	0.732158	0.589508	0.018896
N210	N	-0.345493	1.243986	-0.120291
H211	H	-0.364796	1.249214	-0.147826
H212	H	-0.338067	1.318156	-0.141240
H213	H	0.633837	0.589587	0.208837
H214	H	0.394515	1.411258	-0.311740
H215	H	0.296207	1.411268	-0.213421
H216	H	0.487407	0.408743	-0.024687
H217	H	0.558938	0.441403	-0.096198
N218	N	0.488614	1.597457	-0.414585
H219	H	0.496228	1.665328	-0.445345
H220	H	0.452762	1.637113	-0.420734
N221	N	0.539760	0.403446	0.311669
H222	H	0.559237	0.448274	0.305788
H223	H	0.562052	0.307377	0.336159
H224	H	0.573466	0.670567	-0.351708
H225	H	0.362430	0.787821	0.008634
H226	H	0.394538	1.411295	-0.023469
H227	H	0.323220	1.584931	-0.032421
H228	H	0.282170	0.787796	0.008652
N229	N	0.227983	1.697087	-0.087364
H230	H	0.232056	1.776487	-0.106870
H231	H	0.226277	1.663669	-0.048936
H232	H	0.238340	1.671719	-0.396395
N233	N	0.212509	1.597623	-0.138554
H234	H	0.188735	1.665506	-0.137932
H235	H	0.204650	1.524532	-0.120554
H236	H	0.296193	1.411339	-0.121801
H237	H	0.179965	0.670579	0.041788
N238	N	0.591005	1.398525	-0.199713
H239	H	0.580558	1.471538	-0.199328
H240	H	0.626858	1.358786	-0.193552
N241	N	0.470403	1.244022	-0.396377
H242	H	0.457062	1.318255	-0.396625
H243	H	0.443424	1.249154	-0.416194
N244	N	0.601263	1.597391	-0.301904
H245	H	0.616112	1.552560	-0.261699
H246	H	0.581335	1.693460	-0.324032
H247	H	0.099707	0.670567	0.041802
H248	H	-0.177366	0.787729	0.008687
H249	H	-0.253816	1.213032	-0.111542
H250	H	-0.018864	1.330273	-0.144681
H251	H	0.454904	1.330264	-0.538178
H252	H	0.061399	1.330276	-0.144675
H253	H	0.285993	1.213103	-0.111589
H254	H	0.205715	1.213102	-0.111587
H255	H	-0.033039	0.670562	0.041810
N256	N	0.058651	0.639584	0.050560
H257	H	0.051261	0.565346	0.071547
H258	H	0.077934	0.634473	0.078062
N259	N	-0.163019	1.361206	-0.153423
H260	H	-0.164535	1.412449	-0.193965
H261	H	-0.164490	1.412336	-0.141800
N262	N	-0.071060	1.361220	-0.153439
H263	H	-0.105136	1.435454	-0.174426
H264	H	-0.053626	1.366314	-0.180942
H265	H	0.454908	1.330276	-0.618442
N266	N	0.470399	1.244087	-0.844245
H267	H	0.457058	1.318329	-0.885962
H268	H	0.495542	1.249189	-0.827326
H269	H	0.552388	0.787828	-0.801402
N270	N	0.470403	1.244095	-0.936219
H271	H	0.473601	1.226302	-0.962576
H272	H	0.487269	1.295262	-0.942945
H273	H	0.573467	0.670570	-0.431972
N274	N	0.557964	0.756835	-0.706530
H275	H	0.571303	0.682602	-0.706282
H276	H	0.532823	0.751726	-0.686731
H277	H	0.552380	0.787741	-0.261571
H278	H	0.552379	0.787740	-0.181293
H279	H	0.573458	0.670607	-0.564726
N280	N	0.579024	0.639623	-0.469858
H281	H	0.592364	0.565389	-0.469609
H282	H	0.553880	0.634516	-0.450063
