data_functionalizedCrystal
_audit_creation_method	'MofGen! by Chris Wilmer'
_symmetry_space_group_name_H-M	'P1'
_symmetry_Int_Tables_number	1
_symmetry_cell_setting	triclinic
loop_
_symmetry_equiv_pos_as_xyz
  x,y,z
_cell_length_a	10.654550
_cell_length_b	15.072220
_cell_length_c	10.654550
_cell_angle_alpha	89.990770
_cell_angle_beta	95.515069
_cell_angle_gamma	90.000665
loop_
_atom_site_label
_atom_site_type_symbol
_atom_site_fract_x
_atom_site_fract_y
_atom_site_fract_z
O1	O	1.667839	0.073716	-0.176408
O2	O	2.001173	0.407049	0.156926
O3	O	2.334506	0.740383	0.490259
O4	O	1.302361	0.073732	-0.193214
O5	O	1.635694	0.407066	0.140120
O6	O	1.969027	0.740399	0.473453
O7	O	1.493503	0.073718	-0.002071
O8	O	1.826836	0.407052	0.331262
O9	O	2.160170	0.740385	0.664595
O10	O	1.476697	0.073730	-0.367550
O11	O	1.810030	0.407063	-0.034217
O12	O	2.143364	0.740397	0.299117
O13	O	1.493490	-0.073847	-0.002048
O14	O	1.826824	0.259486	0.331285
O15	O	2.160157	0.592820	0.664619
O16	O	1.302348	-0.073833	-0.193190
O17	O	1.635681	0.259501	0.140143
O18	O	1.969015	0.592834	0.473476
O19	O	1.667826	-0.073849	-0.176384
O20	O	2.001160	0.259484	0.156949
O21	O	2.334493	0.592818	0.490282
Zn22	Zn	1.485085	-0.097270	-0.184784
Zn23	Zn	1.818418	0.236063	0.148550
Zn24	Zn	2.151752	0.569397	0.481883
Zn25	Zn	1.485102	0.097153	-0.184814
Zn26	Zn	1.818435	0.430487	0.148519
Zn27	Zn	2.151769	0.763820	0.481852
O28	O	1.476684	-0.073835	-0.367527
O29	O	1.810017	0.259498	-0.034193
O30	O	2.143351	0.592832	0.299140
C31	C	1.255556	-0.000048	-0.191968
C32	C	1.588890	0.333285	0.141365
C33	C	1.922223	0.666618	0.474699
C34	C	1.116113	-0.000042	-0.188276
C35	C	1.449446	0.333291	0.145057
C36	C	1.782780	0.666625	0.478391
N37	N	1.485083	-0.229959	-0.184762
N38	N	1.818416	0.103374	0.148571
N39	N	2.151749	0.436708	0.481905
C40	C	1.036628	-0.000041	-0.300818
C41	C	1.369961	0.333292	0.032516
C42	C	1.703294	0.666626	0.365849
C43	C	0.905607	-0.000057	-0.297341
C44	C	1.238940	0.333277	0.035992
C45	C	1.572273	0.666610	0.369325
C46	C	0.933570	-0.000071	-0.068772
C47	C	1.266903	0.333263	0.264562
C48	C	1.600237	0.666596	0.597895
C49	C	1.064588	-0.000061	-0.072250
C50	C	1.397922	0.333272	0.261084
C51	C	1.731255	0.666605	0.594417
C52	C	1.485103	-0.589160	-0.184805
C53	C	1.818436	-0.255827	0.148529
C54	C	2.151770	0.077506	0.481862
C55	C	1.587717	-0.551533	-0.082876
C56	C	1.921050	-0.218200	0.250458
C57	C	2.254384	0.115133	0.583791
C58	C	1.587444	-0.448708	-0.082494
C59	C	1.920777	-0.115374	0.250840
C60	C	2.254110	0.217959	0.584173
C61	C	1.485094	-0.410956	-0.184783
C62	C	1.818427	-0.077623	0.148550
C63	C	2.151761	0.255710	0.481883
C64	C	1.353813	-0.448294	-0.155022
C65	C	1.687146	-0.114961	0.178311
C66	C	2.020480	0.218372	0.511645
C67	C	1.354420	-0.551152	-0.154301
C68	C	1.687753	-0.217819	0.179032
C69	C	2.021086	0.115514	0.512366
C70	C	1.512592	-0.551234	-0.316788
C71	C	1.845925	-0.217901	0.016545
C72	C	2.179259	0.115432	0.349878
C73	C	1.515559	-0.448370	-0.315931
C74	C	1.848892	-0.115037	0.017402
C75	C	2.182225	0.218297	0.350736
C76	C	1.485081	-0.310243	-0.184774
C77	C	1.818414	0.023090	0.148559
C78	C	2.151747	0.356424	0.481893
C79	C	1.485108	-0.689874	-0.184812
C80	C	1.818441	-0.356540	0.148522
C81	C	2.151774	-0.023207	0.481855
C82	C	1.714631	-0.000067	-0.177630
C83	C	2.047964	0.333267	0.155703
C84	C	2.381297	0.666600	0.489037
C85	C	1.854074	-0.000067	-0.181322
C86	C	2.187407	0.333266	0.152011
C87	C	2.520741	0.666600	0.485345
C88	C	1.492263	-0.000064	0.044738
C89	C	1.825596	0.333270	0.378072
C90	C	2.158929	0.666603	0.711405
C91	C	1.488571	-0.000062	0.184181
C92	C	1.821904	0.333271	0.517515
C93	C	2.155237	0.666604	0.850848
N94	N	1.485114	0.229842	-0.184826
N95	N	1.818448	0.563175	0.148507
N96	N	2.151781	0.896509	0.481840
C97	C	1.477925	-0.000051	-0.414336
C98	C	1.811258	0.333282	-0.081003
C99	C	2.144591	0.666616	0.252330
C100	C	1.481616	-0.000047	-0.553779
C101	C	1.814950	0.333287	-0.220446
C102	C	2.148283	0.666620	0.112887
C103	C	1.601112	-0.000067	0.263667
C104	C	1.934446	0.333266	0.597000
C105	C	2.267779	0.666600	0.930334
C106	C	1.597636	-0.000056	0.394688
C107	C	1.930969	0.333277	0.728021
C108	C	2.264302	0.666611	1.061355
C109	C	1.369066	-0.000039	0.366725
C110	C	1.702400	0.333294	0.700058
C111	C	2.035733	0.666627	1.033391
C112	C	1.372544	-0.000044	0.235706
C113	C	1.705877	0.333289	0.569040
C114	C	2.039211	0.666623	0.902373
H115	H	1.078574	-0.000032	-0.395294
H116	H	1.411908	0.333301	-0.061960
H117	H	1.745241	0.666635	0.271373
H118	H	1.275566	-0.423842	-0.227237
H119	H	1.608900	-0.090508	0.106096
H120	H	1.942233	0.242825	0.439429
H121	H	1.695588	-0.000080	0.221720
H122	H	2.028922	0.333253	0.555054
H123	H	2.362255	0.666587	0.888387
H124	H	1.689279	-0.000058	0.459401
H125	H	2.022612	0.333275	0.792734
H126	H	2.355945	0.666609	1.126067
H127	H	1.129309	-0.000065	0.019401
H128	H	1.462643	0.333268	0.352734
H129	H	1.795976	0.666602	0.686068
H130	H	1.280893	-0.000038	0.170985
H131	H	1.614227	0.333296	0.504319
H132	H	1.947560	0.666629	0.837652
H133	H	1.569762	-0.424113	0.015429
H134	H	1.903095	-0.090779	0.348762
H135	H	2.236428	0.242554	0.682096
H136	H	1.684994	-0.423463	-0.100384
H137	H	2.018327	-0.090129	0.232949
H138	H	2.351661	0.243204	0.566282
H139	H	1.275709	-0.576044	-0.225659
H140	H	1.609042	-0.242710	0.107675
H141	H	1.942375	0.090623	0.441008
H142	H	1.570286	-0.577394	0.014490
H143	H	1.903619	-0.244061	0.347823
H144	H	2.236953	0.089273	0.681157
H145	H	0.891602	-0.000092	0.025693
H146	H	1.224935	0.333242	0.359027
H147	H	1.558269	0.666575	0.692360
H148	H	0.840894	-0.000057	-0.388984
H149	H	1.174227	0.333276	-0.055651
H150	H	1.507561	0.666609	0.277683
H151	H	1.685592	-0.576267	-0.100494
H152	H	2.018925	-0.242933	0.232839
H153	H	2.352258	0.090400	0.566173
H154	H	1.330366	-0.575154	-0.058012
H155	H	1.663700	-0.241821	0.275322
H156	H	1.997033	0.091512	0.608655
H157	H	1.274601	-0.000026	0.408693
H158	H	1.607935	0.333307	0.742026
H159	H	1.941268	0.666640	1.075359
H160	H	1.329199	-0.422545	-0.059822
H161	H	1.662532	-0.089211	0.273512
H162	H	1.995866	0.244122	0.606845
H163	H	1.606337	-0.577172	-0.345110
H164	H	1.939671	-0.243838	-0.011777
H165	H	2.273004	0.089495	0.321556
H166	H	1.612140	-0.423967	-0.338488
H167	H	1.945473	-0.090633	-0.005155
H168	H	2.278806	0.242700	0.328179
H169	H	1.437777	-0.575572	-0.392655
H170	H	1.771111	-0.242238	-0.059322
H171	H	2.104444	0.091095	0.274012
H172	H	1.445750	-0.422670	-0.395422
H173	H	1.779084	-0.089337	-0.062089
H174	H	2.112417	0.243997	0.271244
