data_functionalizedCrystal
_audit_creation_method	'MofGen! by Chris Wilmer'
_symmetry_space_group_name_H-M	'P1'
_symmetry_Int_Tables_number	1
_symmetry_cell_setting	triclinic
loop_
_symmetry_equiv_pos_as_xyz
  x,y,z
_cell_length_a	18.050591
_cell_length_b	18.050590
_cell_length_c	18.050591
_cell_angle_alpha	90.007244
_cell_angle_beta	90.008361
_cell_angle_gamma	90.014558
loop_
_atom_site_label
_atom_site_type_symbol
_atom_site_fract_x
_atom_site_fract_y
_atom_site_fract_z
Zn1	Zn	1.135250	-0.295904	0.420027
Zn2	Zn	1.385250	-0.045904	0.670027
Zn3	Zn	1.635250	0.204096	0.920027
Zn4	Zn	1.885250	0.454096	1.170027
Zn5	Zn	1.135209	-0.420052	0.295836
Zn6	Zn	1.385209	-0.170052	0.545836
Zn7	Zn	1.635209	0.079948	0.795836
Zn8	Zn	1.885209	0.329948	1.045836
Zn9	Zn	1.011097	-0.295872	0.295838
Zn10	Zn	1.261097	-0.045872	0.545838
Zn11	Zn	1.511097	0.204128	0.795838
Zn12	Zn	1.761097	0.454128	1.045838
Zn13	Zn	1.011038	-0.420048	0.419971
Zn14	Zn	1.261038	-0.170048	0.669971
Zn15	Zn	1.511038	0.079952	0.919971
Zn16	Zn	1.761038	0.329952	1.169971
O17	O	1.073149	-0.357969	0.357918
O18	O	1.323149	-0.107969	0.607918
O19	O	1.573149	0.142031	0.857918
O20	O	1.823149	0.392031	1.107918
O21	O	1.239169	-0.312387	0.403575
O22	O	1.489169	-0.062387	0.653575
O23	O	1.739169	0.187613	0.903575
O24	O	1.989169	0.437613	1.153575
O25	O	1.118753	-0.403568	0.191911
O26	O	1.368753	-0.153568	0.441911
O27	O	1.618753	0.096432	0.691911
O28	O	1.868753	0.346432	0.941911
O29	O	1.027608	-0.191951	0.312337
O30	O	1.277608	0.058049	0.562337
O31	O	1.527608	0.308049	0.812337
O32	O	1.777608	0.558049	1.062337
O33	O	1.239139	-0.403599	0.312332
O34	O	1.489139	-0.153599	0.562332
O35	O	1.739139	0.096401	0.812332
O36	O	1.989139	0.346401	1.062332
O37	O	1.118823	-0.191975	0.403578
O38	O	1.368823	0.058025	0.653578
O39	O	1.618823	0.308025	0.903578
O40	O	1.868823	0.558025	1.153578
O41	O	1.027568	-0.312333	0.191913
O42	O	1.277568	-0.062333	0.441913
O43	O	1.527568	0.187667	0.691913
O44	O	1.777568	0.437667	0.941913
O45	O	0.907164	-0.312329	0.312283
O46	O	1.157164	-0.062329	0.562283
O47	O	1.407164	0.187671	0.812283
O48	O	1.657164	0.437671	1.062283
O49	O	1.027508	-0.403591	0.523903
O50	O	1.277508	-0.153591	0.773903
O51	O	1.527508	0.096409	1.023903
O52	O	1.777508	0.346409	1.273903
O53	O	0.907122	-0.403560	0.403482
O54	O	1.157122	-0.153560	0.653482
O55	O	1.407122	0.096440	0.903482
O56	O	1.657122	0.346440	1.153482
O57	O	1.118766	-0.312383	0.523944
O58	O	1.368766	-0.062383	0.773944
O59	O	1.618766	0.187617	1.023944
O60	O	1.868766	0.437617	1.273944
O61	O	1.118696	-0.523976	0.312278
O62	O	1.368696	-0.273976	0.562278
O63	O	1.618696	-0.023976	0.812278
O64	O	1.868696	0.226024	1.062278
O65	O	1.027468	-0.523973	0.403480
O66	O	1.277468	-0.273973	0.653480
O67	O	1.527468	-0.023973	0.903480
O68	O	1.777468	0.226027	1.153480
C69	C	0.880197	-0.357941	0.357877
C70	C	1.130197	-0.107941	0.607877
C71	C	1.380197	0.142059	0.857877
C72	C	1.630197	0.392059	1.107877
C73	C	0.797651	-0.357947	0.357877
C74	C	1.047651	-0.107947	0.607877
C75	C	1.297651	0.142053	0.857877
C76	C	1.547651	0.392053	1.107877
C77	C	0.598202	-0.308278	0.308397
C78	C	0.848202	-0.058278	0.558397
C79	C	1.098202	0.191722	0.808397
C80	C	1.348202	0.441722	1.058397
C81	C	0.548798	-0.376009	0.290120
C82	C	0.798798	-0.126009	0.540120
C83	C	1.048798	0.123991	0.790120
C84	C	1.298798	0.373991	1.040120
C85	C	0.646520	-0.357970	0.357911
C86	C	0.896520	-0.107970	0.607911
C87	C	1.146520	0.142030	0.857911
C88	C	1.396520	0.392030	1.107911
C89	C	0.548843	-0.290263	0.376186
C90	C	0.798843	-0.040263	0.626186
C91	C	1.048843	0.209737	0.876186
C92	C	1.298843	0.459737	1.126186
C93	C	0.500535	-0.357986	0.357942
C94	C	0.750535	-0.107986	0.607942
C95	C	1.000535	0.142014	0.857942
C96	C	1.250535	0.392014	1.107942
C97	C	0.598203	-0.425736	0.339598
C98	C	0.848203	-0.175736	0.589598
C99	C	1.098203	0.074264	0.839598
C100	C	1.348203	0.324264	1.089598
C101	C	0.598253	-0.339944	0.425696
C102	C	0.848253	-0.089944	0.675696
C103	C	1.098253	0.160056	0.925696
C104	C	1.348253	0.410056	1.175696
C105	C	0.548871	-0.407722	0.407444
C106	C	0.798871	-0.157722	0.657444
C107	C	1.048871	0.092278	0.907444
C108	C	1.298871	0.342278	1.157444
C109	C	0.730619	-0.357960	0.357891
C110	C	0.980619	-0.107960	0.607891
C111	C	1.230619	0.142040	0.857891
C112	C	1.480619	0.392040	1.107891
C113	C	0.416439	-0.358003	0.357962
C114	C	0.666439	-0.108003	0.607962
C115	C	0.916439	0.141997	0.857962
C116	C	1.166439	0.391997	1.107962
C117	C	1.073092	-0.550921	0.357888
C118	C	1.323092	-0.300921	0.607888
C119	C	1.573092	-0.050921	0.857888
C120	C	1.823092	0.199079	1.107888
C121	C	1.073135	-0.633467	0.357901
C122	C	1.323135	-0.383467	0.607901
C123	C	1.573135	-0.133467	0.857901
C124	C	1.823135	0.116533	1.107901
C125	C	1.122848	-0.832892	0.308374
C126	C	1.372848	-0.582892	0.558374
C127	C	1.622848	-0.332892	0.808374
C128	C	1.872848	-0.082892	1.058374
C129	C	1.140969	-0.882251	0.376156
C130	C	1.390969	-0.632251	0.626156
C131	C	1.640969	-0.382251	0.876156
C132	C	1.890969	-0.132251	1.126156
C133	C	1.073177	-0.784597	0.357930
C134	C	1.323177	-0.534597	0.607930
C135	C	1.573177	-0.284597	0.857930
C136	C	1.823177	-0.034597	1.107930
C137	C	1.055132	-0.882320	0.290179
C138	C	1.305132	-0.632320	0.540179
C139	C	1.555132	-0.382320	0.790179
C140	C	1.805132	-0.132320	1.040179
C141	C	1.073219	-0.930582	0.357953
C142	C	1.323219	-0.680582	0.607953
C143	C	1.573219	-0.430582	0.857953
C144	C	1.823219	-0.180582	1.107953
C145	C	1.091333	-0.832869	0.425748
C146	C	1.341333	-0.582869	0.675748
C147	C	1.591333	-0.332869	0.925748
C148	C	1.841333	-0.082869	1.175748
C149	C	1.005465	-0.832933	0.339725
C150	C	1.255465	-0.582933	0.589725
C151	C	1.505465	-0.332933	0.839725
C152	C	1.755465	-0.082933	1.089725
C153	C	1.023560	-0.882270	0.407553
C154	C	1.273560	-0.632270	0.657553
C155	C	1.523560	-0.382270	0.907553
C156	C	1.773560	-0.132270	1.157553
C157	C	1.073155	-0.700499	0.357916
C158	C	1.323155	-0.450499	0.607916
C159	C	1.573155	-0.200499	0.857916
C160	C	1.823155	0.049501	1.107916
C161	C	1.073242	-1.014679	0.357975
C162	C	1.323242	-0.764679	0.607975
C163	C	1.573242	-0.514679	0.857975
C164	C	1.823242	-0.264679	1.107975
C165	C	1.266854	-0.357997	0.357960
C166	C	1.516854	-0.107997	0.607960
C167	C	1.766854	0.142003	0.857960
C168	C	2.016854	0.392003	1.107960
C169	C	1.349400	-0.358009	0.357977
C170	C	1.599400	-0.108009	0.607977
C171	C	1.849400	0.141991	0.857977
C172	C	2.099400	0.391991	1.107977
C173	C	1.073135	-0.357990	0.551624
C174	C	1.323135	-0.107990	0.801624
C175	C	1.573135	0.142010	1.051624
C176	C	1.823135	0.392010	1.301624
C177	C	1.073130	-0.357999	0.634169
C178	C	1.323130	-0.107999	0.884169
C179	C	1.573130	0.142001	1.134169
C180	C	1.823130	0.392001	1.384169
C181	C	1.073226	-0.164263	0.357964
C182	C	1.323226	0.085737	0.607964
C183	C	1.573226	0.335737	0.857964
C184	C	1.823226	0.585737	1.107964
C185	C	1.073259	-0.081717	0.357984
C186	C	1.323259	0.168283	0.607984
C187	C	1.573259	0.418283	0.857984
C188	C	1.823259	0.668283	1.107984
C189	C	1.023491	-0.407591	0.882973
C190	C	1.273491	-0.157591	1.132973
C191	C	1.523491	0.092409	1.382973
C192	C	1.773491	0.342409	1.632973
C193	C	1.005351	-0.339837	0.833584
C194	C	1.255351	-0.089837	1.083584
C195	C	1.505351	0.160163	1.333584
C196	C	1.755351	0.410163	1.583584
C197	C	1.073123	-0.357977	0.931290
C198	C	1.323123	-0.107977	1.181290
C199	C	1.573123	0.142023	1.431290
C200	C	1.823123	0.392023	1.681290
C201	C	1.091231	-0.425737	0.833597
C202	C	1.341231	-0.175737	1.083597
C203	C	1.591231	0.074263	1.333597
C204	C	1.841231	0.324263	1.583597
C205	C	1.073124	-0.357992	0.785305
C206	C	1.323124	-0.107992	1.035305
C207	C	1.573124	0.142008	1.285305
C208	C	1.823124	0.392008	1.535305
C209	C	1.054947	-0.290189	0.882988
C210	C	1.304947	-0.040189	1.132988
C211	C	1.554947	0.209811	1.382988
C212	C	1.804947	0.459811	1.632988
C213	C	1.140859	-0.376134	0.883006
C214	C	1.390859	-0.126134	1.133006
C215	C	1.640859	0.123866	1.383006
C216	C	1.890859	0.373866	1.633006
C217	C	1.122744	-0.308334	0.833639
C218	C	1.372744	-0.058334	1.083639
C219	C	1.622744	0.191666	1.333639
C220	C	1.872744	0.441666	1.583639
C221	C	1.073120	-0.357970	1.015388
C222	C	1.323120	-0.107970	1.265388
C223	C	1.573120	0.142030	1.515388
C224	C	1.823120	0.392030	1.765388
C225	C	1.073127	-0.357992	0.701208
C226	C	1.323127	-0.107992	0.951208
C227	C	1.573127	0.142008	1.201208
C228	C	1.823127	0.392008	1.451208
C229	C	1.073146	-0.357968	1.164966
C230	C	1.323146	-0.107968	1.414966
C231	C	1.573146	0.142032	1.664966
C232	C	1.823146	0.392032	1.914966
C233	C	1.073119	-0.357969	1.082420
C234	C	1.323119	-0.107969	1.332420
C235	C	1.573119	0.142031	1.582420
C236	C	1.823119	0.392031	1.832420
H237	H	0.527122	-0.233004	0.391604
H238	H	0.777122	0.016996	0.641604
H239	H	1.027122	0.266996	0.891604
H240	H	1.277122	0.516996	1.141604
N241	N	0.625295	-0.497590	0.320128
N242	N	0.875295	-0.247590	0.570128
N243	N	1.125295	0.002410	0.820128
N244	N	1.375295	0.252410	1.070128
N245	N	0.665273	-0.505515	0.264150
N246	N	0.915273	-0.255515	0.514150
N247	N	1.165273	-0.005515	0.764150
N248	N	1.415273	0.244485	1.014150
H249	H	0.684409	-0.556259	0.250396
H250	H	0.934409	-0.306259	0.500396
H251	H	1.184409	-0.056259	0.750396
H252	H	1.434409	0.193741	1.000396
H253	H	0.948200	-0.811252	0.324291
H254	H	1.198200	-0.561252	0.574291
H255	H	1.448200	-0.311252	0.824291
H256	H	1.698200	-0.061252	1.074291
H257	H	0.948069	-0.324482	0.811875
H258	H	1.198069	-0.074482	1.061875
H259	H	1.448069	0.175518	1.311875
H260	H	1.698069	0.425518	1.561875
H261	H	0.527348	-0.449800	0.449330
H262	H	0.777348	-0.199800	0.699330
H263	H	1.027348	0.050200	0.949330
H264	H	1.277348	0.300200	1.199330
N265	N	1.035641	-0.218294	0.910096
N266	N	1.285641	0.031706	1.160096
N267	N	1.535641	0.281706	1.410096
N268	N	1.785641	0.531706	1.660096
N269	N	1.032493	-0.206694	0.978294
N270	N	1.282493	0.043306	1.228294
N271	N	1.532493	0.293306	1.478294
N272	N	1.782493	0.543306	1.728294
H273	H	1.018852	-0.155921	0.997442
H274	H	1.268852	0.094079	1.247442
H275	H	1.518852	0.344079	1.497442
H276	H	1.768852	0.594079	1.747442
N277	N	1.175563	-0.805699	0.255857
N278	N	1.425563	-0.555699	0.505857
N279	N	1.675563	-0.305699	0.755857
N280	N	1.925563	-0.055699	1.005857
N281	N	1.242626	-0.821509	0.262755
N282	N	1.492626	-0.571509	0.512755
N283	N	1.742626	-0.321509	0.762755
N284	N	1.992626	-0.071509	1.012755
H285	H	1.279858	-0.802304	0.225668
H286	H	1.529858	-0.552304	0.475668
H287	H	1.779858	-0.302304	0.725668
H288	H	2.029858	-0.052304	0.975668
H289	H	1.039852	-0.904042	0.232873
H290	H	1.289852	-0.654042	0.482873
H291	H	1.539852	-0.404042	0.732873
H292	H	1.789852	-0.154042	0.982873
N293	N	1.212703	-0.395414	0.910254
N294	N	1.462703	-0.145414	1.160254
N295	N	1.712703	0.104586	1.410254
N296	N	1.962703	0.354586	1.660254
N297	N	1.263869	-0.409739	0.865855
N298	N	1.513869	-0.159739	1.115855
N299	N	1.763869	0.090261	1.365855
N300	N	2.013869	0.340261	1.615855
H301	H	1.314611	-0.423362	0.885099
H302	H	1.564611	-0.173362	1.135099
H303	H	1.814611	0.076638	1.385099
H304	H	2.064611	0.326638	1.635099
H305	H	1.106548	-0.483035	0.811902
H306	H	1.356548	-0.233035	1.061902
H307	H	1.606548	0.016965	1.311902
H308	H	1.856548	0.266965	1.561902
H309	H	1.164717	-0.266336	0.812115
H310	H	1.414717	-0.016336	1.062115
H311	H	1.664717	0.233664	1.312115
H312	H	1.914717	0.483664	1.562115
H313	H	0.619862	-0.266301	0.266479
H314	H	0.869862	-0.016301	0.516479
H315	H	1.119862	0.233699	0.766479
H316	H	1.369862	0.483699	1.016479
H317	H	0.619994	-0.324665	0.482989
H318	H	0.869994	-0.074665	0.732989
H319	H	1.119994	0.175335	0.982989
H320	H	1.369994	0.425335	1.232989
H321	H	1.106556	-0.811239	0.483103
H322	H	1.356556	-0.561239	0.733103
H323	H	1.606556	-0.311239	0.983103
H324	H	1.856556	-0.061239	1.233103
N325	N	0.521543	-0.395136	0.218222
N326	N	0.771543	-0.145136	0.468222
N327	N	1.021543	0.104864	0.718222
N328	N	1.271543	0.354864	0.968222
N329	N	0.481033	-0.350884	0.183651
N330	N	0.731033	-0.100884	0.433651
N331	N	0.981033	0.149116	0.683651
N332	N	1.231033	0.399116	0.933651
H333	H	0.461787	-0.364388	0.132871
H334	H	0.711787	-0.114388	0.382871
H335	H	0.961787	0.135612	0.632871
H336	H	1.211787	0.385612	0.882871
N337	N	1.212822	-0.909463	0.395461
N338	N	1.462822	-0.659463	0.645461
N339	N	1.712822	-0.409463	0.895461
N340	N	1.962822	-0.159463	1.145461
N341	N	1.267555	-0.893656	0.356099
N342	N	1.517555	-0.643656	0.606099
N343	N	1.767555	-0.393656	0.856099
N344	N	2.017555	-0.143656	1.106099
H345	H	1.318300	-0.912886	0.369718
H346	H	1.568300	-0.662886	0.619718
H347	H	1.818300	-0.412886	0.869718
H348	H	2.068300	-0.162886	1.119718
H349	H	0.981487	-0.449488	0.904635
H350	H	1.231487	-0.199488	1.154635
H351	H	1.481487	0.050512	1.404635
H352	H	1.731487	0.300512	1.654635
H353	H	0.981573	-0.903814	0.449519
H354	H	1.231573	-0.653814	0.699519
H355	H	1.481573	-0.403814	0.949519
H356	H	1.731573	-0.153814	1.199519
