data_functionalizedCrystal
_audit_creation_method	'MofGen! by Chris Wilmer'
_symmetry_space_group_name_H-M	'P1'
_symmetry_Int_Tables_number	1
_symmetry_cell_setting	triclinic
loop_
_symmetry_equiv_pos_as_xyz
  x,y,z
_cell_length_a	15.298114
_cell_length_b	15.299816
_cell_length_c	12.827885
_cell_angle_alpha	80.348783
_cell_angle_beta	80.330183
_cell_angle_gamma	69.256891
loop_
_atom_site_label
_atom_site_type_symbol
_atom_site_fract_x
_atom_site_fract_y
_atom_site_fract_z
Zn1	Zn	1.485560	-0.615774	0.416069
Zn2	Zn	1.512348	-0.771246	0.267142
Zn3	Zn	1.330070	-0.588944	0.267184
Zn4	Zn	1.356921	-0.744315	0.467650
O5	O	1.421225	-0.680070	0.354511
O6	O	1.619233	-0.658897	0.374709
O7	O	1.488143	-0.747105	0.120925
O8	O	1.328248	-0.462415	0.265365
O9	O	1.638914	-0.773121	0.265293
O10	O	1.442485	-0.482127	0.374750
O11	O	1.354224	-0.613168	0.120956
O12	O	1.203513	-0.587055	0.315381
O13	O	1.374012	-0.727222	0.607031
O14	O	1.223240	-0.701205	0.462663
O15	O	1.468522	-0.632784	0.569134
O16	O	1.514179	-0.897761	0.315309
O17	O	1.399987	-0.877976	0.462622
C18	C	1.179638	-0.638297	0.394625
C19	C	1.076290	-0.620449	0.411814
C20	C	1.462929	-0.921603	0.394576
C21	C	1.480855	-1.024947	0.411737
C22	C	0.825888	-0.807641	0.231917
C23	C	0.922989	-0.824409	0.215759
C24	C	0.961319	-0.773421	0.264771
C25	C	0.902539	-0.705660	0.329944
C26	C	0.805428	-0.688885	0.346097
C27	C	0.940859	-0.654665	0.378952
C28	C	0.882078	-0.586905	0.444125
C29	C	0.784977	-0.570134	0.460275
C30	C	0.746647	-0.621122	0.411263
C31	C	1.037969	-0.671440	0.362799
C32	C	1.017509	-0.552685	0.476979
C33	C	0.920408	-0.535917	0.493137
C34	C	1.293713	-1.275543	0.232115
C35	C	1.276866	-1.178446	0.215995
C36	C	1.327862	-1.140066	0.264928
C37	C	1.395708	-1.198794	0.329986
C38	C	1.412552	-1.295900	0.346114
C39	C	1.446700	-1.160423	0.378928
C40	C	1.514546	-1.219151	0.443986
C41	C	1.531387	-1.316247	0.460110
C42	C	1.480391	-1.354627	0.411176
C43	C	1.429857	-1.063317	0.362800
C44	C	1.548695	-1.083674	0.476799
C45	C	1.565542	-1.180771	0.492919
C46	C	1.663755	-0.722006	0.314242
C47	C	1.767108	-0.739877	0.297082
C48	C	1.421274	-0.679991	0.627056
C49	C	1.421294	-0.679958	0.743199
C50	C	1.379383	-0.437597	0.314309
C51	C	1.361553	-0.334270	0.297177
C52	C	1.421218	-0.680090	0.083007
C53	C	1.421333	-0.679892	-0.033208
C54	C	1.487584	-0.746176	0.914996
C55	C	1.487564	-0.746212	0.794957
H56	H	1.085819	-0.726611	0.309735
Br57	Br	1.326758	-0.585353	0.892595
H58	H	1.544315	-0.802901	0.959522
H59	H	1.040383	-0.787077	0.251611
H60	H	0.794669	-0.849142	0.192010
H61	H	0.970841	-0.879578	0.162693
Br62	Br	0.614865	-0.598384	0.433211
Br63	Br	0.705203	-0.478162	0.548709
H64	H	0.872536	-0.480745	0.546201
H65	H	1.544287	-0.802957	0.750413
H66	H	1.252195	-1.306801	0.192285
H67	H	1.374616	-1.015509	0.309830
Br68	Br	1.069518	-0.483474	0.543491
Br69	Br	1.304634	-1.008227	0.243519
Br70	Br	1.657617	-1.260483	0.581208
H71	H	1.221626	-1.130633	0.163027
H72	H	1.590219	-1.052426	0.516648
H73	H	1.494108	-1.433691	0.424294
H74	H	1.364575	-0.623204	0.787733
Br75	Br	1.623442	-1.395944	0.548431
