data_functionalizedCrystal
_audit_creation_method	'MofGen! by Chris Wilmer'
_symmetry_space_group_name_H-M	'P1'
_symmetry_Int_Tables_number	1
_symmetry_cell_setting	triclinic
loop_
_symmetry_equiv_pos_as_xyz
  x,y,z
_cell_length_a	10.723024
_cell_length_b	11.792241
_cell_length_c	9.198806
_cell_angle_alpha	89.996670
_cell_angle_beta	89.996352
_cell_angle_gamma	84.330643
loop_
_atom_site_label
_atom_site_type_symbol
_atom_site_fract_x
_atom_site_fract_y
_atom_site_fract_z
O1	O	1.656767	0.159192	-0.120884
O2	O	1.293574	0.174430	-0.120889
O3	O	1.483984	0.001660	-0.120876
O4	O	1.466357	0.331962	-0.120897
O5	O	1.483969	0.001659	0.120909
O6	O	1.293559	0.174430	0.120896
O7	O	1.656751	0.159192	0.120901
Cu8	Cu	1.475154	0.166811	0.142976
Cu9	Cu	1.475172	0.166811	-0.142963
O10	O	1.466341	0.331962	0.120889
C11	C	1.247070	0.173321	0.000003
C12	C	1.108524	0.170003	0.000002
C13	C	1.482869	-0.040634	0.000016
C14	C	1.479555	-0.166655	0.000015
C15	C	1.033286	0.266676	-0.000005
C16	C	0.890091	0.263249	-0.000007
C17	C	1.473461	-0.397380	-0.000010
C18	C	1.476847	-0.268988	0.000004
C19	C	1.703256	0.160301	0.000006
C20	C	1.841801	0.163619	-0.000002
C21	C	1.467456	0.374255	-0.000007
C22	C	1.470770	0.500276	-0.000015
N23	N	1.475150	0.166810	0.344090
N24	N	1.475185	0.166803	-0.344077
C25	C	1.555099	0.093948	0.416292
C26	C	1.555118	0.093944	0.583704
H27	H	0.825440	0.346009	-0.000019
H28	H	1.623570	0.031569	0.645795
C29	C	1.382696	0.251081	0.428000
C30	C	1.240520	0.248375	0.407247
C31	C	1.148062	0.332650	0.491154
C32	C	1.197781	0.419631	0.595813
C33	C	1.339964	0.422341	0.616571
C34	C	1.432422	0.338066	0.532664
H35	H	1.203709	0.183983	0.329768
H36	H	1.042809	0.330643	0.475787
H37	H	1.129338	0.482016	0.657925
H38	H	1.376775	0.486733	0.694050
H39	H	1.537675	0.340072	0.548031
C40	C	1.089470	0.381919	-0.000022
C41	C	1.175117	0.412367	0.125522
C42	C	1.231300	0.527613	0.125501
C43	C	1.201835	0.612411	-0.000065
C44	C	1.116183	0.581966	-0.125618
C45	C	1.060001	0.466720	-0.125597
H46	H	1.196933	0.349592	0.218482
H47	H	1.294705	0.550150	0.218444
H48	H	1.243425	0.697723	-0.000081
H49	H	1.094368	0.644740	-0.218578
H50	H	0.996596	0.444183	-0.218541
H51	H	1.066928	0.084701	-0.000030
C52	C	1.647554	0.009676	0.332385
C53	C	1.647288	0.009689	0.164979
C54	C	1.739747	-0.074587	0.081078
C55	C	1.832473	-0.158877	0.164581
C56	C	1.832743	-0.158894	0.331996
C57	C	1.740283	-0.074618	0.415898
H58	H	1.578643	0.072089	0.103156
H59	H	1.739546	-0.074574	-0.042854
H60	H	1.900916	-0.221264	0.102472
H61	H	1.901387	-0.221294	0.393819
H62	H	1.740484	-0.074631	0.539830
H63	H	0.906445	0.080854	-0.000005
H64	H	1.406739	0.229190	0.593841
