data_functionalizedCrystal
_audit_creation_method	'MofGen! by Chris Wilmer'
_symmetry_space_group_name_H-M	'P1'
_symmetry_Int_Tables_number	1
_symmetry_cell_setting	triclinic
loop_
_symmetry_equiv_pos_as_xyz
  x,y,z
_cell_length_a	25.639239
_cell_length_b	12.827893
_cell_length_c	12.827885
_cell_angle_alpha	90.021189
_cell_angle_beta	89.964018
_cell_angle_gamma	89.963105
loop_
_atom_site_label
_atom_site_type_symbol
_atom_site_fract_x
_atom_site_fract_y
_atom_site_fract_z
Zn1	Zn	-0.208150	-1.597500	-0.590857
Zn2	Zn	0.291850	-1.097500	-0.090857
Zn3	Zn	-0.295596	-1.597323	-0.416098
Zn4	Zn	0.204404	-1.097323	0.083902
Zn5	Zn	-0.208173	-1.422742	-0.416125
Zn6	Zn	0.291827	-0.922742	0.083875
Zn7	Zn	-0.295554	-1.422656	-0.590793
Zn8	Zn	0.204446	-0.922656	-0.090793
O9	O	-0.251868	-1.510055	-0.503468
O10	O	0.248132	-1.010055	-0.003468
O11	O	-0.219758	-1.743713	-0.567691
O12	O	0.280242	-1.243713	-0.067691
O13	O	-0.284026	-1.574127	-0.269866
O14	O	0.215974	-1.074127	0.230134
O15	O	-0.135005	-1.446034	-0.439341
O16	O	0.364995	-0.946034	0.060659
O17	O	-0.284004	-1.743583	-0.439296
O18	O	0.215996	-1.243583	0.060704
O19	O	-0.134988	-1.574428	-0.567716
O20	O	0.365012	-1.074428	-0.067716
O21	O	-0.219797	-1.445862	-0.269885
O22	O	0.280203	-0.945862	0.230115
O23	O	-0.219757	-1.276494	-0.439279
O24	O	0.280243	-0.776494	0.060721
O25	O	-0.283933	-1.445888	-0.737037
O26	O	0.216067	-0.945888	-0.237037
O27	O	-0.283955	-1.276431	-0.567607
O28	O	0.216045	-0.776431	-0.067607
O29	O	-0.219718	-1.574345	-0.737085
O30	O	0.280282	-1.074345	-0.237085
O31	O	-0.368755	-1.574044	-0.439234
O32	O	0.131245	-1.074044	0.060766
O33	O	-0.368725	-1.445716	-0.567581
O34	O	0.131275	-0.945716	-0.067581
C35	C	-0.251854	-1.238546	-0.503439
C36	C	0.248146	-0.738546	-0.003439
C37	C	-0.251861	-1.122392	-0.503452
C38	C	0.248139	-0.622392	-0.003452
C39	C	-0.220125	-1.070672	-0.567083
C40	C	0.279875	-0.570672	-0.067083
C41	C	-0.220131	-0.950621	-0.567097
C42	C	0.279869	-0.450621	-0.067097
C43	C	-0.387711	-1.509880	-0.503420
C44	C	0.112289	-1.009880	-0.003420
C45	C	-0.445825	-1.509900	-0.503435
C46	C	0.054175	-1.009900	-0.003435
C47	C	-0.806191	-1.577050	-0.436752
C48	C	-0.306191	-1.077050	0.063248
C49	C	-0.860796	-1.577090	-0.436766
C50	C	-0.360796	-1.077090	0.063234
O51	O	-0.889035	-1.634001	-0.380017
O52	O	-0.389035	-1.134001	0.119983
N53	N	-0.888107	-1.510239	-0.503537
N54	N	-0.388107	-1.010239	-0.003537
C55	C	-0.860812	-1.443350	-0.570307
C56	C	-0.360812	-0.943350	-0.070307
O57	O	-0.889057	-1.386493	-0.627104
O58	O	-0.389057	-0.886493	-0.127104
C59	C	-0.806209	-1.443316	-0.570298
C60	C	-0.306209	-0.943316	-0.070298
C61	C	-0.778900	-1.510164	-0.503514
C62	C	-0.278900	-1.010164	-0.003514
C63	C	-0.778882	-1.643893	-0.369975
C64	C	-0.278882	-1.143893	0.130025
C65	C	-0.724282	-1.643851	-0.369959
C66	C	-0.224282	-1.143851	0.130041
C67	C	-0.696990	-1.576966	-0.436722
C68	C	-0.196990	-1.076966	0.063278
C69	C	-0.724299	-1.510122	-0.503499
C70	C	-0.224299	-1.010122	-0.003499
C71	C	-0.778914	-1.376433	-0.637072
C72	C	-0.278914	-0.876433	-0.137072
C73	C	-0.724307	-1.376405	-0.637057
C74	C	-0.224307	-0.876405	-0.137057
C75	C	-0.696998	-1.443253	-0.570273
C76	C	-0.196998	-0.943253	-0.070273
C77	C	-0.642407	-1.443194	-0.570246
C78	C	-0.142407	-0.943194	-0.070246
N79	N	-0.615095	-1.510045	-0.503474
N80	N	-0.115095	-1.010045	-0.003474
C81	C	-0.642387	-1.576931	-0.436712
C82	C	-0.142387	-1.076931	0.063288
C83	C	-0.975483	-1.443429	-0.570323
C84	C	-0.475483	-0.943429	-0.070323
C85	C	-1.030085	-1.443458	-0.570328
C86	C	-0.530085	-0.943458	-0.070328
C87	C	-1.030065	-1.577199	-0.436788
C88	C	-0.530065	-1.077199	0.063212
C89	C	-0.975461	-1.577165	-0.436779
C90	C	-0.475461	-1.077165	0.063221
C91	C	-0.948171	-1.510280	-0.503551
C92	C	-0.448171	-1.010280	-0.003551
C93	C	-0.527722	-1.576837	-0.436685
C94	C	-0.027722	-1.076837	0.063315
C95	C	-0.473116	-1.576786	-0.436673
C96	C	0.026884	-1.076786	0.063327
C97	C	-0.473141	-1.443049	-0.570216
C98	C	0.026859	-0.943049	-0.070216
C99	C	-0.527742	-1.443095	-0.570225
C100	C	-0.027742	-0.943095	-0.070225
C101	C	-0.555031	-1.509998	-0.503456
C102	C	-0.055031	-1.009998	-0.003456
O103	O	-0.614133	-1.386315	-0.626969
O104	O	-0.114133	-0.886315	-0.126969
O105	O	-0.614135	-1.633789	-0.379935
O106	O	-0.114135	-1.133789	0.120065
C107	C	-0.115495	-1.510260	-0.503539
C108	C	0.384505	-1.010260	-0.003539
C109	C	-0.057381	-1.510348	-0.503569
C110	C	0.442619	-1.010348	-0.003569
C111	C	-0.251818	-1.510127	-0.776039
C112	C	0.248182	-1.010127	-0.276039
C113	C	-0.251797	-1.510157	-0.892192
C114	C	0.248203	-1.010157	-0.392192
C115	C	-0.251879	-0.782626	-0.503490
C116	C	0.248121	-0.282626	-0.003490
C117	C	-0.251872	-0.898779	-0.503477
C118	C	0.248128	-0.398779	-0.003477
C119	C	-0.220015	-1.573729	-0.944000
C120	C	0.279985	-1.073729	-0.444000
C121	C	-0.219992	-1.573761	-1.064050
C122	C	0.280008	-1.073761	-0.564050
C123	C	-0.251881	-1.510045	-0.231958
C124	C	0.248119	-1.010045	0.268042
C125	C	-0.251755	-1.510217	-0.115806
C126	C	0.248245	-1.010217	0.384194
H127	H	-0.279034	-1.077796	-0.448983
H128	H	0.220966	-0.577796	0.051017
H129	H	-0.279046	-0.943251	-0.449003
H130	H	0.220954	-0.443251	0.050997
H131	H	-0.450883	-1.631221	-0.382286
H132	H	0.049117	-1.131221	0.117714
H133	H	-0.549934	-1.631318	-0.382317
H134	H	-0.049934	-1.131318	0.117683
H135	H	-0.192963	-0.906143	-0.621577
H136	H	0.307037	-0.406143	-0.121577
H137	H	-0.702050	-1.698288	-0.315582
H138	H	-0.202050	-1.198288	0.184418
H139	H	-1.052315	-1.389013	-0.624700
H140	H	-0.552315	-0.889013	-0.124700
H141	H	-0.278986	-1.455748	-0.936714
H142	H	0.221014	-0.955748	-0.436714
H143	H	-0.192949	-1.115269	-0.621545
H144	H	0.307051	-0.615269	-0.121545
H145	H	-0.801097	-1.698366	-0.315608
H146	H	-0.301097	-1.198366	0.184392
H147	H	-0.278968	-1.455792	-1.071259
H148	H	0.221032	-0.955792	-0.571259
H149	H	-0.953230	-1.631599	-0.382398
H150	H	-0.453230	-1.131599	0.117602
H151	H	-0.549978	-1.388665	-0.624609
H152	H	-0.049978	-0.888665	-0.124609
H153	H	-1.052295	-1.631665	-0.382430
H154	H	-0.552295	-1.131665	0.117570
H155	H	-0.953265	-1.388955	-0.624695
H156	H	-0.453265	-0.888955	-0.124695
H157	H	-0.801140	-1.321993	-0.691449
H158	H	-0.301140	-0.821993	-0.191449
H159	H	-0.702090	-1.321941	-0.691435
H160	H	-0.202090	-0.821941	-0.191435
H161	H	-0.450912	-1.388588	-0.624570
H162	H	0.049088	-0.888588	-0.124570
H163	H	-0.192820	-1.628127	-0.899478
H164	H	0.307180	-1.128127	-0.399478
H165	H	-0.192784	-1.628191	-1.108604
H166	H	0.307216	-1.128191	-0.608604
