data_functionalizedCrystal
_audit_creation_method	'MofGen! by Chris Wilmer'
_symmetry_space_group_name_H-M	'P1'
_symmetry_Int_Tables_number	1
_symmetry_cell_setting	triclinic
loop_
_symmetry_equiv_pos_as_xyz
  x,y,z
_cell_length_a	15.021413
_cell_length_b	11.792241
_cell_length_c	11.792253
_cell_angle_alpha	84.196007
_cell_angle_beta	90.014625
_cell_angle_gamma	89.990439
loop_
_atom_site_label
_atom_site_type_symbol
_atom_site_fract_x
_atom_site_fract_y
_atom_site_fract_z
O1	O	-0.073958	-1.506899	-0.155576
O2	O	-0.073979	-1.176558	-0.171609
O3	O	-0.073949	-1.349738	0.001577
O4	O	-0.073987	-1.333720	-0.328762
O5	O	0.074115	-1.349757	0.001601
O6	O	0.074085	-1.176578	-0.171585
O7	O	0.074107	-1.506918	-0.155553
Zn8	Zn	0.097604	-1.341751	-0.163565
Zn9	Zn	-0.097477	-1.341726	-0.163596
O10	O	0.074077	-1.333739	-0.328739
C11	C	0.000050	-1.134277	-0.170590
C12	C	0.000043	-1.008263	-0.167576
N13	N	-0.230614	-1.341709	-0.163608
C14	C	0.000085	-1.348738	0.043880
C15	C	0.000094	-1.345718	0.169893
C16	C	-0.470306	-1.261479	-0.243526
C17	C	-0.529633	-1.239078	-0.140748
C18	C	-0.412221	-1.341731	-0.163584
C19	C	-0.529637	-1.364101	-0.266338
C20	C	-0.587645	-1.341750	-0.163570
C21	C	-0.470241	-1.319279	-0.060755
C22	C	-0.470240	-1.444347	-0.186412
C23	C	-0.529540	-1.421990	-0.083561
C24	C	-0.311164	-1.341717	-0.163594
C25	C	-0.688701	-1.341765	-0.163548
N26	N	0.230742	-1.341776	-0.163544
C27	C	0.000075	-1.549199	-0.156571
C28	C	0.000077	-1.675213	-0.159586
C29	C	0.000069	-0.777551	-0.162033
C30	C	0.000054	-0.905936	-0.165112
C31	C	0.000098	-1.343264	0.272229
C32	C	0.000099	-1.340196	0.400616
C33	C	0.000058	-1.334738	0.628959
C34	C	0.000100	-1.337758	0.502946
H35	H	-0.555726	-1.152308	-0.121431
H36	H	-0.444262	-1.300265	0.026168
N37	N	-0.561957	-1.507140	0.001353
N38	N	-0.542726	-1.502137	0.103863
H39	H	-0.565621	-1.562270	0.163838
H40	H	-0.444131	-1.531090	-0.205768
H41	H	-0.555710	-1.383028	-0.353244
H42	H	-0.444296	-1.193559	-0.311057
