data_functionalizedCrystal
_audit_creation_method	'MofGen! by Chris Wilmer'
_symmetry_space_group_name_H-M	'P1'
_symmetry_Int_Tables_number	1
_symmetry_cell_setting	triclinic
loop_
_symmetry_equiv_pos_as_xyz
  x,y,z
_cell_length_a	8.634740
_cell_length_b	14.853567
_cell_length_c	7.088929
_cell_angle_alpha	96.223246
_cell_angle_beta	82.820628
_cell_angle_gamma	92.102619
loop_
_atom_site_label
_atom_site_type_symbol
_atom_site_fract_x
_atom_site_fract_y
_atom_site_fract_z
O1	O	2.030870	0.301875	0.158957
O2	O	1.581864	0.277223	0.158962
O3	O	1.818360	0.159352	0.158965
O4	O	1.794374	0.419745	0.158954
O5	O	1.849987	0.143573	-0.159010
O6	O	1.613492	0.261443	-0.159013
O7	O	2.062497	0.286095	-0.159018
Cu8	Cu	1.840882	0.272329	-0.188049
Cu9	Cu	1.803479	0.290989	0.187993
O10	O	1.826001	0.403966	-0.159021
C11	C	1.540216	0.263748	-0.000025
C12	C	1.368997	0.247097	-0.000022
C13	C	1.833086	0.117781	-0.000017
C14	C	1.829828	0.017417	-0.000000
C15	C	1.675579	-0.408404	-0.000035
C16	C	1.956542	-0.405486	-0.000038
C17	C	1.959604	-0.311188	-0.000027
C18	C	1.820651	-0.265494	-0.000023
C19	C	1.678637	-0.314098	-0.000030
C20	C	2.101617	-0.262577	-0.000039
C21	C	2.104684	-0.168274	-0.000030
C22	C	1.965729	-0.122577	-0.000012
C23	C	1.823709	-0.171187	-0.000017
C24	C	1.684756	-0.125494	-0.000013
C25	C	1.542733	-0.174101	-0.000004
C26	C	1.539682	-0.268402	-0.000012
C27	C	1.968780	-0.028277	-0.000005
C28	C	1.687814	-0.031187	-0.000007
C29	C	2.104145	0.299570	-0.000027
C30	C	2.275363	0.316222	-0.000017
C31	C	1.811275	0.445538	-0.000035
C32	C	1.814532	0.545902	-0.000039
N33	N	1.867201	0.259204	-0.452537
N34	N	1.777173	0.304108	0.452480
H35	H	1.318160	0.175176	0.000036
C36	C	1.651107	0.366970	-0.437213
N37	N	1.556154	0.414317	-0.354128
H38	H	1.559947	-0.447984	-0.000020
C39	C	1.993259	0.196344	-0.562836
N40	N	2.088206	0.148995	-0.645925
H41	H	1.326189	0.388139	-0.000038
C42	C	1.534950	0.019069	0.000003
N43	N	1.419813	0.056921	0.000010
H44	H	2.069673	-0.442696	-0.000057
C45	C	1.383474	-0.321879	-0.000042
N46	N	1.265822	-0.362162	-0.000081
C47	C	2.260909	-0.114813	-0.000025
N48	N	2.378579	-0.074546	-0.000014
C49	C	2.124996	0.025187	-0.000015
N50	N	2.242665	0.065455	-0.000016
H51	H	1.429600	-0.136886	-0.000014
H52	H	2.214746	-0.299789	-0.000060
