data_functionalizedCrystal
_audit_creation_method	'MofGen! by Chris Wilmer'
_symmetry_space_group_name_H-M	'P1'
_symmetry_Int_Tables_number	1
_symmetry_cell_setting	triclinic
loop_
_symmetry_equiv_pos_as_xyz
  x,y,z
_cell_length_a	15.297475
_cell_length_b	12.594516
_cell_length_c	15.296720
_cell_angle_alpha	99.649603
_cell_angle_beta	91.617114
_cell_angle_gamma	80.315126
loop_
_atom_site_label
_atom_site_type_symbol
_atom_site_fract_x
_atom_site_fract_y
_atom_site_fract_z
Zn1	Zn	1.253520	-0.828411	-0.726651
Zn2	Zn	1.278805	-0.981681	-0.580176
Zn3	Zn	1.132389	-0.768614	-0.554888
Zn4	Zn	1.107029	-0.971218	-0.701304
O5	O	1.192936	-0.887481	-0.640755
O6	O	1.379456	-0.878146	-0.728412
O7	O	1.280577	-0.932770	-0.454246
O8	O	1.148489	-0.627612	-0.577697
O9	O	1.398033	-0.990753	-0.620797
O10	O	1.237483	-0.671544	-0.703891
O11	O	1.173006	-0.776231	-0.435666
O12	O	1.006443	-0.766086	-0.553119
O13	O	1.105267	-0.972920	-0.827242
O14	O	0.987811	-0.914938	-0.660691
O15	O	1.212893	-0.868001	-0.845864
O16	O	1.255987	-1.129227	-0.596219
O17	O	1.129784	-1.121540	-0.685212
C18	C	0.965343	-0.832888	-0.601411
C19	C	0.867974	-0.809563	-0.584600
C20	C	1.192898	-1.164009	-0.640732
C21	C	1.192957	-1.282334	-0.640766
C22	C	0.554863	-1.054200	-0.760906
C23	C	0.646346	-1.076123	-0.776698
C24	C	0.701757	-1.009485	-0.728675
C25	C	0.665677	-0.920920	-0.664857
C26	C	0.574185	-0.899000	-0.649058
C27	C	0.721080	-0.854285	-0.616828
C28	C	0.684999	-0.765720	-0.553010
C29	C	0.593516	-0.743803	-0.537214
C30	C	0.538105	-0.810441	-0.585237
C31	C	0.812571	-0.876205	-0.632626
C32	C	0.831894	-0.721004	-0.520779
C33	C	0.740410	-0.699081	-0.504987
C34	C	1.261655	-1.355756	-0.592437
C35	C	1.269218	-1.445079	-0.676082
C36	C	1.185495	-1.403844	-0.557192
C37	C	1.200553	-1.370115	-0.724459
C38	C	1.116802	-1.328856	-0.605509
C39	C	1.124325	-1.418150	-0.689203
C40	C	1.421417	-0.942287	-0.680253
C41	C	1.518783	-0.965642	-0.697084
C42	C	1.153430	-0.925964	-0.869224
C43	C	1.136596	-0.942363	-0.966585
C44	C	1.192994	-0.609881	-0.640800
C45	C	1.193019	-0.491585	-0.640820
C46	C	1.313289	-0.770095	-1.279811
C47	C	1.329112	-0.754690	-1.188337
C48	C	1.280984	-0.801606	-1.132895
C49	C	1.217031	-0.863931	-1.168935
C50	C	1.201212	-0.879344	-1.260418
C51	C	1.168907	-0.910856	-1.113502
C52	C	1.104954	-0.973181	-1.149542
C53	C	1.089137	-0.988590	-1.241017
C54	C	1.137265	-0.941674	-1.296459
C55	C	1.184726	-0.895443	-1.022018
C56	C	1.072649	-1.004692	-1.002626
C57	C	1.056826	-1.020097	-1.094100
C58	C	1.232338	-0.849083	-0.413182
C59	C	1.249342	-0.832424	-0.315852
H60	H	0.776247	-1.027340	-0.741537
C61	C	1.209151	-1.349536	-0.818710
C62	C	1.209077	-1.238129	-0.817575
C63	C	1.217012	-1.219131	-0.904378
H64	H	1.160650	-1.371329	-0.853218
H65	H	1.263099	-1.390418	-0.843849
H66	H	1.155136	-1.197261	-0.792448
H67	H	1.257576	-1.216310	-0.783085
H68	H	1.270960	-1.260013	-0.929517
H69	H	1.168510	-1.240930	-0.938879
H70	H	1.216971	-1.143543	-0.903619
C71	C	1.046999	-1.454805	-0.743886
C72	C	1.079311	-1.538115	-0.813519
C73	C	1.008109	-1.571922	-0.863907
H74	H	1.014520	-1.394788	-0.767401
H75	H	1.009265	-1.481262	-0.707315
H76	H	1.117029	-1.511655	-0.850084
H77	H	1.111782	-1.598151	-0.790030
H78	H	0.970375	-1.598380	-0.827336
H79	H	0.975635	-1.511899	-0.887415
H80	H	1.030022	-1.628458	-0.911153
C81	C	1.398418	-0.686814	-1.149251
C82	C	1.375491	-0.580685	-1.168220
C83	C	1.439310	-0.518112	-1.132225
H84	H	1.454715	-0.718891	-1.174389
H85	H	1.400952	-0.684266	-1.086820
H86	H	1.372967	-0.583237	-1.230640
H87	H	1.319205	-0.548577	-1.143083
H88	H	1.441844	-0.515564	-1.069793
H89	H	1.495603	-0.550199	-1.157365
H90	H	1.423759	-0.446095	-1.145083
H91	H	0.675717	-1.148235	-0.828656
H92	H	0.711020	-0.626971	-0.453025
H93	H	1.333645	-1.495383	-0.705929
C94	C	0.494552	-1.126385	-0.812975
C95	C	0.406709	-1.088217	-0.785491
C96	C	0.351124	-1.154685	-0.833449
H97	H	0.511657	-1.199317	-0.802679
H98	H	0.499318	-1.124416	-0.874454
H99	H	0.401947	-1.090198	-0.724028
H100	H	0.389577	-1.015295	-0.795790
H101	H	0.355890	-1.152715	-0.894927
H102	H	0.368237	-1.227613	-0.823149
H103	H	0.291516	-1.128791	-0.814814
H104	H	1.052398	-1.278530	-0.575641
H105	H	1.293871	-0.789060	-1.058413
H106	H	1.179157	-1.419281	-0.486491
H107	H	1.033460	-1.042898	-0.957484
C108	C	1.254035	-0.827575	-0.982925
C109	C	1.231119	-0.721442	-1.001887
C110	C	1.294941	-0.658880	-0.965880
H111	H	1.310332	-0.859656	-1.008058
H112	H	1.256562	-0.825033	-0.920494
H113	H	1.228601	-0.723987	-1.064306
H114	H	1.174832	-0.689330	-0.976753
H115	H	1.297469	-0.656339	-0.903449
H116	H	1.351235	-0.690970	-0.991017
H117	H	1.279397	-0.586860	-0.978734
C118	C	0.438760	-0.786474	-0.568184
C119	C	0.404595	-0.681734	-0.585468
C120	C	0.313079	-0.659635	-0.569785
H121	H	0.427711	-0.790203	-0.508069
H122	H	0.410902	-0.838798	-0.605952
H123	H	0.432443	-0.629425	-0.547701
H124	H	0.415620	-0.677979	-0.645580
H125	H	0.285221	-0.711959	-0.607553
H126	H	0.302038	-0.663369	-0.509670
H127	H	0.289885	-0.588572	-0.581517
H128	H	1.352473	-0.731909	-1.324960
H129	H	0.564144	-0.671697	-0.485241
H130	H	1.124385	-0.954213	-1.370946
C131	C	1.019639	-1.056254	-1.279974
C132	C	0.980859	-1.094020	-1.211843
C133	C	0.916827	-1.156342	-1.247693
H134	H	1.046868	-1.116749	-1.321431
H135	H	0.975268	-1.012405	-1.309043
H136	H	1.025224	-1.137867	-1.182788
H137	H	0.953613	-1.033549	-1.170381
H138	H	0.872455	-1.112493	-1.276762
H139	H	0.944063	-1.216831	-1.289149
H140	H	0.890501	-1.181965	-1.201471
H141	H	0.841939	-0.948315	-0.684588
C142	C	0.892186	-0.648740	-0.468758
C143	C	0.980025	-0.686873	-0.496270
C144	C	1.035595	-0.620331	-0.448378
H145	H	0.887475	-0.650645	-0.407274
H146	H	0.875016	-0.575826	-0.479107
H147	H	0.997190	-0.759768	-0.485913
H148	H	0.984765	-0.684964	-0.557747
H149	H	1.018424	-0.547416	-0.458728
H150	H	1.030875	-0.622240	-0.386897
H151	H	1.095198	-0.646188	-0.467044
H152	H	1.319752	-1.328248	-0.551613
H153	H	1.004755	-1.070842	-1.123457
