data_functionalizedCrystal
_audit_creation_method	'MofGen! by Chris Wilmer'
_symmetry_space_group_name_H-M	'P1'
_symmetry_Int_Tables_number	1
_symmetry_cell_setting	triclinic
loop_
_symmetry_equiv_pos_as_xyz
  x,y,z
_cell_length_a	14.044220
_cell_length_b	10.654550
_cell_length_c	9.730223
_cell_angle_alpha	90.000193
_cell_angle_beta	89.995496
_cell_angle_gamma	88.836890
loop_
_atom_site_label
_atom_site_type_symbol
_atom_site_fract_x
_atom_site_fract_y
_atom_site_fract_z
O1	O	-1.259693	-0.302980	-0.114137
O2	O	-0.983652	-0.292047	-0.114172
O3	O	-1.128019	-0.115412	-0.114149
O4	O	-1.115326	-0.479615	-0.114161
O5	O	-1.128018	-0.115417	0.114431
O6	O	-0.983650	-0.292052	0.114408
O7	O	-1.259691	-0.302985	0.114443
Zn8	Zn	-1.121671	-0.297519	0.150717
Zn9	Zn	-1.121673	-0.297513	-0.150447
O10	O	-1.115324	-0.479620	0.114419
C11	C	-1.127086	-0.068523	0.000139
C12	C	-1.124298	0.071201	0.000134
C13	C	-0.948305	-0.287263	0.000113
C14	C	-0.842986	-0.272988	0.000100
C15	C	-1.295038	-0.307769	0.000154
C16	C	-1.400358	-0.322044	0.000159
C17	C	-0.650153	-0.246889	0.000128
C18	C	-0.593185	-0.348137	0.000130
C19	C	-0.485886	-0.333615	0.000146
C20	C	-0.757461	-0.261409	0.000112
C21	C	-1.116257	-0.526509	0.000128
C22	C	-1.119045	-0.666233	0.000124
N23	N	-1.121676	-0.297523	0.356254
C24	C	-1.209299	0.142144	0.000149
C25	C	-1.206673	0.273429	0.000139
C26	C	-1.034038	0.262814	0.000105
C27	C	-1.036664	0.131532	0.000105
C28	C	-1.296932	0.081813	0.000178
C29	C	-1.381941	0.152758	0.000195
C30	C	-1.379315	0.284043	0.000185
C31	C	-1.291681	0.344383	0.000158
N32	N	-1.121675	-0.297500	-0.355983
C33	C	-1.185618	-0.219340	0.428190
C34	C	-1.185616	-0.219324	0.572073
C35	C	-1.057725	-0.375686	0.572070
C36	C	-1.057724	-0.375694	0.428190
C37	C	-1.249570	-0.141169	0.356253
C38	C	-1.313518	-0.062980	0.428190
C39	C	-1.313516	-0.062965	0.572073
C40	C	-1.249565	-0.141138	0.644019
H41	H	-0.624998	-0.445725	0.000121
C42	C	-0.507689	-0.126090	0.000128
C43	C	-0.607214	-0.115155	0.000123
H44	H	-0.481175	-0.044763	0.000112
H45	H	-0.487204	-0.170440	0.079840
H46	H	-0.487193	-0.170466	-0.079582
H47	H	-0.627711	-0.070787	0.079839
H48	H	-0.627707	-0.070786	-0.079597
H49	H	-1.249562	-0.141109	0.761179
H50	H	-1.299080	-0.025085	0.000190
H51	H	-1.453289	0.103620	0.000182
C52	C	-0.931306	-0.530237	0.557622
C53	C	-0.987436	-0.461613	0.651150
H54	H	-0.887909	-0.583279	0.606444
H55	H	-0.971081	-0.579903	0.501515
H56	H	-0.896849	-0.474062	0.501493
H57	H	-1.021898	-0.517787	0.707273
H58	H	-0.947656	-0.411943	0.707280
H59	H	-1.448532	0.341802	0.000184
C60	C	-0.953361	0.459351	0.000105
C61	C	-0.937716	0.329138	0.000094
H62	H	-0.893894	0.500292	0.000110
H63	H	-0.988389	0.483039	-0.079597
H64	H	-0.988399	0.483029	0.079826
H65	H	-0.902684	0.305458	-0.079633
H66	H	-0.902672	0.305440	0.079804
C67	C	-1.334917	0.535328	-0.117361
C68	C	-1.288794	0.488694	0.000139
H69	H	-1.333139	0.624418	-0.117363
H70	H	-1.303629	0.503666	-0.197058
H71	H	-1.399270	0.509542	-0.117335
H72	H	-1.224439	0.514473	0.000108
H73	H	-1.320080	0.520369	0.079856
C74	C	-1.370256	0.006503	0.207631
C75	C	-1.383770	0.023003	0.349112
H76	H	-1.413620	0.059599	0.158817
H77	H	-1.306856	0.027245	0.184078
H78	H	-1.381146	-0.078525	0.184047
H79	H	-1.372874	0.108029	0.372699
H80	H	-1.447186	0.002269	0.372675
H81	H	-0.967449	0.073767	0.000095
H82	H	-1.249580	-0.141177	0.239097
H83	H	-1.365579	0.000708	0.630642
H84	H	-1.005655	-0.439357	0.369619
