data_functionalizedCrystal
_audit_creation_method	'MofGen! by Chris Wilmer'
_symmetry_space_group_name_H-M	'P1'
_symmetry_Int_Tables_number	1
_symmetry_cell_setting	triclinic
loop_
_symmetry_equiv_pos_as_xyz
  x,y,z
_cell_length_a	19.805407
_cell_length_b	14.908520
_cell_length_c	19.805399
_cell_angle_alpha	93.270609
_cell_angle_beta	89.980427
_cell_angle_gamma	93.320773
loop_
_atom_site_label
_atom_site_type_symbol
_atom_site_fract_x
_atom_site_fract_y
_atom_site_fract_z
Zn1	Zn	1.019204	-0.359181	-0.398269
Zn2	Zn	1.519204	0.140819	0.101731
Zn3	Zn	1.012594	-0.510047	-0.291612
Zn4	Zn	1.512594	-0.010047	0.208388
Zn5	Zn	0.906017	-0.359206	-0.285095
Zn6	Zn	1.406017	0.140794	0.214905
Zn7	Zn	0.899460	-0.509999	-0.404757
Zn8	Zn	1.399460	-0.009999	0.095243
O9	O	0.959319	-0.434608	-0.344934
O10	O	1.459319	0.065392	0.155066
O11	O	1.113043	-0.379203	-0.384134
O12	O	1.613043	0.120797	0.115866
O13	O	0.998435	-0.490068	-0.196033
O14	O	1.498435	0.009932	0.303967
O15	O	0.926542	-0.232958	-0.294665
O16	O	1.426542	0.267042	0.205335
O17	O	1.108187	-0.490044	-0.305773
O18	O	1.608187	0.009956	0.194227
O19	O	1.009699	-0.232939	-0.377814
O20	O	1.509699	0.267061	0.122186
O21	O	0.920133	-0.379246	-0.191244
O22	O	1.420133	0.120754	0.308756
O23	O	0.810431	-0.379199	-0.300956
O24	O	1.310431	0.120801	0.199044
O25	O	0.915366	-0.489962	-0.498612
O26	O	1.415366	0.010038	0.001388
O27	O	0.805614	-0.489986	-0.388871
O28	O	1.305614	0.010014	0.111129
O29	O	1.003341	-0.379157	-0.493845
O30	O	1.503341	0.120843	0.006155
O31	O	0.992077	-0.636286	-0.312064
O32	O	1.492077	-0.136286	0.187936
O33	O	0.908957	-0.636250	-0.395191
O34	O	1.408957	-0.136250	0.104809
C35	C	0.783463	-0.434591	-0.344911
C36	C	1.283463	0.065409	0.155089
C37	C	0.708231	-0.434605	-0.344918
C38	C	1.208231	0.065395	0.155082
C39	C	0.670392	-0.492379	-0.390629
C40	C	1.170392	0.007621	0.109371
C41	C	0.599704	-0.492380	-0.390639
C42	C	1.099704	0.007620	0.109361
C43	C	0.566855	-0.434612	-0.344934
C44	C	1.066855	0.065388	0.155066
C45	C	0.604699	-0.376832	-0.299220
C46	C	1.104699	0.123168	0.200780
C47	C	0.675386	-0.376827	-0.299214
C48	C	1.175386	0.123173	0.200786
C49	C	0.319625	-0.376852	-0.299244
C50	C	0.819625	0.123148	0.200756
C51	C	0.248932	-0.376864	-0.299252
C52	C	0.748932	0.123136	0.200748
C53	C	0.243942	-0.492406	-0.390668
C54	C	0.743942	0.007594	0.109332
C55	C	0.314629	-0.492400	-0.390662
C56	C	0.814629	0.007600	0.109338
C57	C	0.352467	-0.434618	-0.344952
C58	C	0.852467	0.065382	0.155048
C59	C	0.429116	-0.434615	-0.344943
C60	C	0.929116	0.065385	0.155057
C61	C	0.490208	-0.434618	-0.344939
C62	C	0.990208	0.065382	0.155061
C63	C	0.949107	-0.669002	-0.355053
C64	C	1.449107	-0.169002	0.144947
C65	C	0.944800	-0.769277	-0.359405
C66	C	1.444800	-0.269277	0.140595
C67	C	1.023348	-0.957679	-0.281093
C68	C	1.523348	-0.457679	0.218907
C69	C	1.019304	-1.051896	-0.285180
C70	C	1.519304	-0.551896	0.214820
C71	C	0.932671	-1.051929	-0.371669
C72	C	1.432671	-0.551929	0.128331
C73	C	0.936715	-0.957712	-0.367582
C74	C	1.436715	-0.457712	0.132418
C75	C	0.982055	-0.910590	-0.322292
C76	C	1.482055	-0.410590	0.177708
C77	C	0.986095	-0.816372	-0.318202
C78	C	1.486095	-0.316372	0.181798
C79	C	0.899466	-0.816407	-0.404694
C80	C	1.399466	-0.316407	0.095306
C81	C	0.895421	-0.910624	-0.408781
C82	C	1.395421	-0.410624	0.091219
C83	C	1.135861	-0.434626	-0.344957
C84	C	1.635861	0.065374	0.155043
C85	C	1.211092	-0.434634	-0.344967
C86	C	1.711092	0.065366	0.155033
C87	C	0.959359	-0.434551	-0.521474
C88	C	1.459359	0.065449	-0.021474
C89	C	0.959376	-0.434527	-0.596705
C90	C	1.459376	0.065473	-0.096705
C91	C	0.969589	-0.199299	-0.334789
C92	C	1.469589	0.300701	0.165211
C93	C	0.973966	-0.099024	-0.330466
C94	C	1.473966	0.400976	0.169534
C95	C	1.005186	-0.376828	-0.629568
C96	C	1.505186	0.123172	-0.129568
C97	C	1.005194	-0.376802	-0.700255
C98	C	1.505194	0.123198	-0.200255
C99	C	0.959395	-0.434480	-0.738078
C100	C	1.459395	0.065520	-0.238078
C101	C	0.913581	-0.492182	-0.705210
C102	C	1.413581	0.007818	-0.205210
C103	C	0.913570	-0.492203	-0.634524
C104	C	1.413570	0.007797	-0.134524
C105	C	0.913622	-0.492098	-0.990280
C106	C	1.413622	0.007902	-0.490280
C107	C	0.913638	-0.492074	-1.060971
C108	C	1.413638	0.007926	-0.560971
C109	C	1.005247	-0.376697	-1.056011
C110	C	1.505247	0.123303	-0.556011
C111	C	1.005236	-0.376718	-0.985325
C112	C	1.505236	0.123282	-0.485325
C113	C	0.959419	-0.434416	-0.952463
C114	C	1.459419	0.065584	-0.452463
C115	C	0.959410	-0.434442	-0.875816
C116	C	1.459410	0.065558	-0.375816
C117	C	0.959407	-0.434459	-0.814725
C118	C	1.459407	0.065541	-0.314725
C119	C	0.959320	-0.434600	-0.169077
C120	C	1.459320	0.065400	0.330923
C121	C	0.959445	-0.434370	-0.093836
C122	C	1.459445	0.065630	0.406164
H123	H	0.222189	-0.329817	-0.262033
H124	H	0.722189	0.170183	0.237967
O125	O	0.350056	-0.554705	-0.439964
O126	O	0.850056	-0.054705	0.060036
H127	H	0.384032	-0.514375	-0.472700
H128	H	0.884032	-0.014375	0.027300
O129	O	0.864209	-0.554333	-0.954845
O130	O	1.364209	-0.054333	-0.454845
H131	H	0.871886	-0.544655	-0.899338
H132	H	1.371886	-0.044655	-0.399338
H133	H	1.042483	-0.329862	-0.598777
H134	H	1.542483	0.170138	-0.098777
H135	H	0.568898	-0.539426	-0.427861
H136	H	1.068898	-0.039426	0.072139
H137	H	0.350424	-0.329809	-0.262018
H138	H	0.850424	0.170191	0.237982
H139	H	0.858509	-0.949003	-0.445657
H140	H	1.358509	-0.449003	0.054343
O141	O	1.035008	-0.765549	-0.269366
O142	O	1.535008	-0.265549	0.230634
H143	H	1.030884	-0.692122	-0.273443
H144	H	1.530884	-0.192122	0.226557
H145	H	0.876288	-0.539141	-0.736011
H146	H	1.376288	-0.039141	-0.236011
H147	H	0.865840	-0.778057	-0.438239
H148	H	1.365840	-0.278057	0.061761
H149	H	0.577948	-0.329793	-0.262009
H150	H	1.077948	0.170207	0.237991
O151	O	0.203133	-0.554722	-0.439981
O152	O	0.703133	-0.054722	0.060019
H153	H	0.148461	-0.545017	-0.432316
H154	H	0.648461	-0.045017	0.067684
O155	O	0.716203	-0.314525	-0.249905
O156	O	1.216203	0.185475	0.250095
H157	H	0.681487	-0.274364	-0.218117
H158	H	1.181487	0.225636	0.281883
O159	O	0.864153	-0.554422	-0.599073
O160	O	1.364153	-0.054422	-0.099073
H161	H	0.832308	-0.594528	-0.637247
H162	H	1.332308	-0.094528	-0.137247
H163	H	1.042499	-0.329820	-0.727009
H164	H	1.542499	0.170180	-0.227009
O165	O	1.072249	-0.906839	-0.232254
O166	O	1.572249	-0.406839	0.267746
H167	H	1.059904	-0.924973	-0.179905
H168	H	1.559904	-0.424973	0.320095
O169	O	1.063837	-1.102689	-0.240741
O170	O	1.563837	-0.602689	0.259259
H171	H	1.096038	-1.054090	-0.208560
H172	H	1.596038	-0.554090	0.291440
O173	O	1.054646	-0.314443	-1.091463
O174	O	1.554646	0.185557	-0.591463
H175	H	1.087321	-0.354805	-1.125427
H176	H	1.587321	0.145195	-0.625427
O177	O	0.883764	-1.102759	-0.420507
O178	O	1.383764	-0.602759	0.079493
H179	H	0.887887	-1.176185	-0.416421
H180	H	1.387887	-0.676185	0.083579
O181	O	0.864229	-0.554276	-1.101768
O182	O	1.364229	-0.054276	-0.601768
H183	H	0.872731	-0.625089	-1.091254
H184	H	1.372731	-0.125089	-0.591254
O185	O	0.705821	-0.554683	-0.439929
O186	O	1.205821	-0.054683	0.060071
H187	H	0.667631	-0.594848	-0.471721
H188	H	1.167631	-0.094848	0.028279
H189	H	1.042533	-0.329753	-0.954533
H190	H	1.542533	0.170247	-0.454533
