data_functionalizedCrystal
_audit_creation_method	'MofGen! by Chris Wilmer'
_symmetry_space_group_name_H-M	'P1'
_symmetry_Int_Tables_number	1
_symmetry_cell_setting	triclinic
loop_
_symmetry_equiv_pos_as_xyz
  x,y,z
_cell_length_a	6.817900
_cell_length_b	9.582860
_cell_length_c	16.255661
_cell_angle_alpha	93.082919
_cell_angle_beta	103.488922
_cell_angle_gamma	111.206767
loop_
_atom_site_label
_atom_site_type_symbol
_atom_site_fract_x
_atom_site_fract_y
_atom_site_fract_z
V1	V	-4.066850	-0.208264	-0.263715
O2	O	-4.012501	0.008764	-0.258855
O3	O	-4.057621	-0.411756	-0.261758
O4	O	-4.017900	-0.205606	-0.378800
O5	O	-4.052497	-0.198813	-0.141002
V6	V	-4.545474	-0.182240	-0.249056
O7	O	-4.338856	-0.265349	-0.295870
O8	O	-4.723666	-0.125156	-0.216901
O9	O	-4.331497	0.021252	-0.251013
O10	O	-4.717220	-0.399268	-0.253917
O11	O	-4.677224	-0.191691	-0.371769
O12	O	-4.371218	-0.184898	-0.133971
C13	C	-3.912169	-0.461346	-0.257558
C14	C	-3.985905	-0.627706	-0.256725
C15	C	-3.861499	-0.198379	-0.406856
C16	C	-3.903020	-0.197553	-0.500938
C17	C	-3.811674	-0.187680	-0.723764
C18	C	-3.992647	-0.315100	-0.793145
C19	C	-3.979106	-0.196003	-0.673188
C20	C	-3.872142	-0.067125	-0.771446
C21	C	-4.052584	-0.194499	-0.839573
C22	C	-4.159583	-0.323537	-0.741338
C23	C	-4.038994	-0.075449	-0.719624
C24	C	-4.220111	-0.202905	-0.788985
C25	C	-3.936772	-0.196871	-0.577338
C26	C	-4.094937	-0.193643	-0.935422
C27	C	-4.140293	0.070834	-0.255211
C28	C	-4.045794	0.237193	-0.256049
C29	C	-4.190961	-0.192130	-0.105911
C30	C	-4.128678	-0.192948	-0.011828
H31	H	-3.973502	-0.416420	-0.825155
C32	C	-3.710533	0.077506	-0.789481
C33	C	-3.569519	0.166068	-0.712013
C34	C	-3.420625	0.299313	-0.728589
H35	H	-3.627928	0.052763	-0.823283
H36	H	-3.787802	0.132577	-0.819463
H37	H	-3.492256	0.111008	-0.682043
H38	H	-3.652061	0.190851	-0.678199
H39	H	-3.497894	0.354384	-0.758572
H40	H	-3.338036	0.274556	-0.762393
H41	H	-3.324942	0.359426	-0.676030
H42	H	-4.058060	0.025876	-0.687591
C43	C	-3.581218	-0.179554	-0.685688
C44	C	-3.590974	-0.307479	-0.646391
C45	C	-3.378732	-0.300044	-0.611295
H46	H	-3.510341	-0.176445	-0.729806
H47	H	-3.501510	-0.090846	-0.644404
H48	H	-3.670649	-0.396163	-0.687671
H49	H	-3.661810	-0.310613	-0.602261
H50	H	-3.299024	-0.211336	-0.570011
H51	H	-3.307873	-0.296931	-0.655419
H52	H	-3.385322	-0.386830	-0.584621
C53	C	-4.450827	-0.211436	-0.826938
C54	C	-4.486947	-0.209282	-0.915172
C55	C	-4.699446	-0.217125	-0.950163
H56	H	-4.553141	-0.302510	-0.816949
H57	H	-4.468146	-0.127118	-0.800819
H58	H	-4.469649	-0.293593	-0.941283
H59	H	-4.384686	-0.118216	-0.925185
H60	H	-4.716765	-0.132806	-0.924044
H61	H	-4.801741	-0.308199	-0.940167
H62	H	-4.723974	-0.215650	-1.010031
C63	C	-4.321430	-0.468079	-0.723328
C64	C	-4.534492	-0.476120	-0.757165
C65	C	-4.683628	-0.609239	-0.740577
H66	H	-4.305561	-0.553221	-0.749187
H67	H	-4.293955	-0.467768	-0.663256
H68	H	-4.561957	-0.476444	-0.817225
H69	H	-4.550431	-0.391010	-0.731312
H70	H	-4.656153	-0.608928	-0.680506
H71	H	-4.667739	-0.694370	-0.766437
H72	H	-4.828206	-0.614705	-0.763526
