data_functionalizedCrystal
_audit_creation_method	'MofGen! by Chris Wilmer'
_symmetry_space_group_name_H-M	'P1'
_symmetry_Int_Tables_number	1
_symmetry_cell_setting	triclinic
loop_
_symmetry_equiv_pos_as_xyz
  x,y,z
_cell_length_a	14.853567
_cell_length_b	17.699083
_cell_length_c	16.776229
_cell_angle_alpha	90.001114
_cell_angle_beta	89.997147
_cell_angle_gamma	96.541028
loop_
_atom_site_label
_atom_site_type_symbol
_atom_site_fract_x
_atom_site_fract_y
_atom_site_fract_z
O1	O	0.114008	-1.004374	-0.066170
O2	O	0.614008	-0.504374	0.433830
O3	O	0.128841	-0.784034	-0.066195
O4	O	0.628841	-0.284034	0.433805
O5	O	-0.009827	-0.900090	-0.066184
O6	O	0.490173	-0.400090	0.433816
O7	O	0.252676	-0.888319	-0.066181
O8	O	0.752676	-0.388319	0.433819
O9	O	-0.009835	-0.900075	0.066392
O10	O	0.490165	-0.400075	0.566392
O11	O	0.128832	-0.784019	0.066381
O12	O	0.628832	-0.284019	0.566381
O13	O	0.114000	-1.004359	0.066407
O14	O	0.614000	-0.504359	0.566407
Zn15	Zn	0.121415	-0.894187	0.087443
Zn16	Zn	0.621415	-0.394187	0.587443
Zn17	Zn	0.121426	-0.894207	-0.087232
Zn18	Zn	0.621426	-0.394207	0.412768
O19	O	0.252667	-0.888303	0.066396
O20	O	0.752667	-0.388303	0.566396
C21	C	0.128305	-0.755828	0.000090
C22	C	0.628305	-0.255828	0.500090
C23	C	0.126711	-0.671806	0.000080
C24	C	0.626711	-0.171806	0.500080
C25	C	-0.043418	-0.899549	0.000102
C26	C	0.456582	-0.399549	0.500102
C27	C	-0.143496	-0.897951	0.000095
C28	C	0.356504	-0.397951	0.500095
N29	N	0.121406	-0.894178	0.206655
N30	N	0.621406	-0.394178	0.706655
C31	C	-0.555751	-0.822255	0.000101
C32	C	-0.055751	-0.322255	0.500101
C33	C	-0.577539	-0.960131	0.000117
C34	C	-0.077539	-0.460131	0.500117
C35	C	-0.483511	-0.961634	0.000112
C36	C	0.016489	-0.461634	0.500112
C37	C	-0.425598	-0.893446	0.000103
C38	C	0.074402	-0.393446	0.500103
C39	C	-0.461714	-0.823756	0.000099
C40	C	0.038286	-0.323756	0.500099
C41	C	-0.447389	-1.031324	0.000125
C42	C	0.052611	-0.531324	0.500125
C43	C	-0.353355	-1.032829	0.000121
C44	C	0.146645	-0.532829	0.500121
C45	C	-0.295441	-0.964641	0.000107
C46	C	0.204559	-0.464641	0.500107
C47	C	-0.331561	-0.894947	0.000101
C48	C	0.168439	-0.394947	0.500101
C49	C	-0.273648	-0.826759	0.000092
C50	C	0.226352	-0.326759	0.500092
C51	C	-0.309767	-0.757065	0.000081
C52	C	0.190233	-0.257065	0.500081
C53	C	-0.403799	-0.755567	0.000084
C54	C	0.096201	-0.255567	0.500084
C55	C	-0.201409	-0.966139	0.000104
C56	C	0.298591	-0.466139	0.500104
C57	C	-0.179611	-0.828260	0.000090
C58	C	0.320389	-0.328260	0.500090
C59	C	0.286258	-0.888844	0.000108
C60	C	0.786258	-0.388844	0.500108
C61	C	0.386336	-0.890443	0.000110
C62	C	0.886336	-0.390443	0.500110
C63	C	0.114535	-1.032565	0.000120
C64	C	0.614535	-0.532565	0.500120
C65	C	0.116130	-1.116587	0.000125
C66	C	0.616130	-0.616587	0.500125
C67	C	0.208106	-0.623396	0.000081
C68	C	0.708106	-0.123396	0.500081
C69	C	0.206602	-0.544449	0.000092
C70	C	0.706602	-0.044449	0.500092
C71	C	0.123703	-0.513913	0.000095
C72	C	0.623703	-0.013913	0.500095
C73	C	0.042301	-0.562329	0.000096
C74	C	0.542301	-0.062329	0.500096
C75	C	0.043806	-0.641275	0.000091
C76	C	0.543806	-0.141275	0.500091
C77	C	0.036232	-0.243950	0.000116
C78	C	0.536232	0.256050	0.500116
C79	C	0.034734	-0.164999	0.000118
C80	C	0.534734	0.335001	0.500118
C81	C	0.199028	-0.147125	0.000116
C82	C	0.699028	0.352875	0.500116
C83	C	0.200533	-0.226070	0.000111
C84	C	0.700533	0.273930	0.500111
C85	C	0.119132	-0.274479	0.000116
C86	C	0.619132	0.225521	0.500116
C87	C	0.120763	-0.360083	0.000107
C88	C	0.620763	0.139917	0.500107
C89	C	0.122070	-0.428311	0.000099
C90	C	0.622070	0.071689	0.500099
N91	N	0.121427	-0.894221	-0.206443
N92	N	0.621427	-0.394221	0.293557
C93	C	0.060029	-0.945583	0.248377
C94	C	0.560029	-0.445583	0.748377
C95	C	0.060029	-0.945587	0.331829
C96	C	0.560029	-0.445587	0.831829
C97	C	0.121410	-0.894190	0.373558
C98	C	0.621410	-0.394190	0.873558
C99	C	0.182790	-0.842779	0.331830
C100	C	0.682790	-0.342779	0.831830
C101	C	0.182786	-0.842772	0.248379
C102	C	0.682786	-0.342772	0.748379
C103	C	0.182808	-0.842806	0.668377
C104	C	0.682808	-0.342806	1.168377
C105	C	0.182809	-0.842819	0.751834
C106	C	0.682809	-0.342819	1.251834
C107	C	0.060051	-0.945622	0.751827
C108	C	0.560051	-0.445622	1.251827
C109	C	0.060046	-0.945615	0.668376
C110	C	0.560046	-0.445615	1.168376
C111	C	0.121423	-0.894202	0.626656
C112	C	0.621423	-0.394202	1.126656
C113	C	0.121422	-0.894197	0.536167
C114	C	0.621422	-0.394197	1.036167
C115	C	0.121416	-0.894198	0.464044
C116	C	0.621416	-0.394198	0.964044
H117	H	-0.132463	-0.772732	0.000079
H118	H	0.367537	-0.272732	0.500079
F119	F	0.285663	-0.095598	0.000113
F120	F	0.785663	0.404402	0.500113
F121	F	-0.594191	-0.748085	0.000083
F122	F	-0.094191	-0.248085	0.500083
F123	F	-0.050402	-0.295461	0.000121
F124	F	0.449598	0.204539	0.500121
F125	F	0.248130	-0.788092	0.623981
F126	F	0.748130	-0.288092	1.123981
H127	H	0.010050	-0.987440	0.214407
H128	H	0.510050	-0.487440	0.714407
F129	F	-0.639176	-1.032697	0.000138
F130	F	-0.139176	-0.532697	0.500138
H131	H	-0.172005	-1.022883	0.000118
H132	H	0.327995	-0.522883	0.500118
H133	H	-0.032777	-0.140140	0.000121
H134	H	0.467223	0.359860	0.500121
H135	H	-0.433216	-0.698825	0.000076
H136	H	0.066784	-0.198825	0.500076
H137	H	-0.022475	-0.680690	0.000090
H138	H	0.477525	-0.180690	0.500090
H139	H	-0.494548	-1.086839	0.000140
H140	H	0.005452	-0.586839	0.500140
F141	F	-0.005296	-1.000297	0.376233
F142	F	0.494704	-0.500297	0.876233
H143	H	-0.262602	-0.701546	0.000080
H144	H	0.237398	-0.201546	0.500080
H145	H	0.232764	-0.800912	0.214410
H146	H	0.732764	-0.300912	0.714410
H147	H	-0.323956	-1.089579	0.000129
H148	H	0.176044	-0.589579	0.500129
F149	F	0.296340	-0.655887	0.000072
F150	F	0.796340	-0.155887	0.500072
H151	H	0.010067	-0.987470	0.634403
H152	H	0.510067	-0.487470	1.134403
H153	H	0.272882	-0.505037	0.000092
H154	H	0.772882	-0.005037	0.500092
F155	F	0.288766	-0.258564	0.000103
F156	F	0.788766	0.241436	0.500103
H157	H	-0.025197	-0.537461	0.000110
H158	H	0.474803	-0.037461	0.500110
H159	H	0.010072	-0.987483	0.785804
H160	H	0.510072	-0.487483	1.285804
F161	F	0.248142	-0.788111	0.796243
F162	F	0.748142	-0.288111	1.296243
H163	H	0.232765	-0.800926	0.365810
H164	H	0.732765	-0.300926	0.865810
