data_functionalizedCrystal
_audit_creation_method	'MofGen! by Chris Wilmer'
_symmetry_space_group_name_H-M	'P1'
_symmetry_Int_Tables_number	1
_symmetry_cell_setting	triclinic
loop_
_symmetry_equiv_pos_as_xyz
  x,y,z
_cell_length_a	14.044191
_cell_length_b	14.044220
_cell_length_c	7.088929
_cell_angle_alpha	83.206932
_cell_angle_beta	96.775604
_cell_angle_gamma	93.190327
loop_
_atom_site_label
_atom_site_type_symbol
_atom_site_fract_x
_atom_site_fract_y
_atom_site_fract_z
O1	O	1.268206	0.239180	-0.158906
O2	O	1.768206	0.739180	0.341094
O3	O	0.991533	0.230869	-0.158929
O4	O	1.491533	0.730869	0.341071
O5	O	1.125718	0.096688	-0.158899
O6	O	1.625718	0.596688	0.341101
O7	O	1.134021	0.373362	-0.158936
O8	O	1.634021	0.873362	0.341064
O9	O	1.143646	0.078712	0.159080
O10	O	1.643646	0.578712	0.659080
O11	O	1.009461	0.212893	0.159050
O12	O	1.509461	0.712893	0.659050
O13	O	1.286135	0.221204	0.159074
O14	O	1.786135	0.721204	0.659074
Cu15	Cu	1.149435	0.215407	0.188096
Cu16	Cu	1.649435	0.715407	0.688096
Cu17	Cu	1.128232	0.236666	-0.187952
Cu18	Cu	1.628232	0.736666	0.312048
O19	O	1.151950	0.355385	0.159043
O20	O	1.651950	0.855385	0.659043
C21	C	0.964875	0.218245	0.000057
C22	C	1.464875	0.718245	0.500057
C23	C	0.858731	0.207398	0.000049
C24	C	1.358731	0.707398	0.500049
C25	C	0.613273	0.264498	0.000060
C26	C	1.113273	0.764498	0.500060
C27	C	0.664399	0.187581	0.000067
C28	C	1.164399	0.687581	0.500067
C29	C	0.772536	0.198610	0.000057
C30	C	1.272536	0.698610	0.500057
C31	C	0.505127	0.253470	0.000070
C32	C	1.005127	0.753470	0.500070
C33	C	1.131046	0.052078	0.000091
C34	C	1.631046	0.552078	0.500091
C35	C	1.120202	-0.054065	0.000093
C36	C	1.620202	0.445935	0.500093
C37	C	1.100374	-0.248402	0.000063
C38	C	1.600374	0.251598	0.500063
C39	C	1.177289	-0.299530	0.000064
C40	C	1.677289	0.200470	0.500064
C41	C	1.166256	-0.407665	0.000048
C42	C	1.666256	0.092335	0.500048
C43	C	1.111405	-0.140256	0.000080
C44	C	1.611405	0.359744	0.500080
C45	C	1.312793	0.233829	0.000083
C46	C	1.812793	0.733829	0.500083
C47	C	1.418935	0.244676	0.000079
C48	C	1.918935	0.744676	0.500079
C49	C	1.146621	0.399996	0.000049
C50	C	1.646621	0.899996	0.500049
C51	C	1.157465	0.506140	0.000035
C52	C	1.657465	1.006140	0.500035
N53	N	1.164355	0.200455	0.452587
N54	N	1.664355	0.700455	0.952587
N55	N	1.113319	0.251612	-0.452443
N56	N	1.613319	0.751612	0.047557
H57	H	0.626949	0.113456	-0.000057
H58	H	1.126949	0.613456	0.499943
H59	H	1.060427	0.304625	0.465899
H60	H	1.560427	0.804625	0.965899
H61	H	0.650714	0.338625	0.000045
H62	H	1.150714	0.838625	0.500045
O63	O	1.234429	0.130229	0.560741
O64	O	1.734429	0.630229	1.060741
H65	H	1.233195	0.131466	0.716698
H66	H	1.733195	0.631466	1.216698
H67	H	1.251415	-0.262082	-0.000058
H68	H	1.751415	0.237918	0.499942
H69	H	1.026245	-0.285840	0.000052
H70	H	1.526245	0.214160	0.500052
