data_functionalizedCrystal
_audit_creation_method	'MofGen! by Chris Wilmer'
_symmetry_space_group_name_H-M	'P1'
_symmetry_Int_Tables_number	1
_symmetry_cell_setting	triclinic
loop_
_symmetry_equiv_pos_as_xyz
  x,y,z
_cell_length_a	11.169417
_cell_length_b	12.759394
_cell_length_c	11.169409
_cell_angle_alpha	89.967439
_cell_angle_beta	89.980176
_cell_angle_gamma	90.015520
loop_
_atom_site_label
_atom_site_type_symbol
_atom_site_fract_x
_atom_site_fract_y
_atom_site_fract_z
Zn1	Zn	1.834926	-0.418157	-0.678541
Zn2	Zn	1.834801	-0.593883	-0.477857
Zn3	Zn	1.634212	-0.418221	-0.477875
Zn4	Zn	1.634205	-0.593797	-0.678502
O5	O	1.734536	-0.506014	-0.578194
O6	O	2.002859	-0.441476	-0.651928
O7	O	1.808143	-0.570643	-0.309910
O8	O	1.660893	-0.271191	-0.504518
O9	O	2.002767	-0.570581	-0.504487
O10	O	1.808357	-0.271144	-0.651946
O11	O	1.660771	-0.441585	-0.309923
O12	O	1.466262	-0.441502	-0.504480
O13	O	1.660880	-0.570435	-0.846457
O14	O	1.466256	-0.570497	-0.651880
O15	O	1.808350	-0.441393	-0.846486
O16	O	1.808135	-0.740892	-0.504449
O17	O	1.660758	-0.740829	-0.651862
C18	C	1.422711	-0.505998	-0.578178
C19	C	1.289311	-0.506017	-0.578200
C20	C	1.734465	-0.778982	-0.578175
C21	C	1.734545	-0.895758	-0.578208
C22	C	1.888263	-1.115194	-0.424871
C23	C	1.965023	-1.060328	-0.348170
C24	C	1.964961	-0.950607	-0.348146
C25	C	1.888127	-0.895748	-0.424829
C26	C	1.811367	-0.950614	-0.501530
C27	C	1.811440	-1.060338	-0.501548
C28	C	1.657784	-0.950624	-0.654909
C29	C	1.657851	-1.060346	-0.654941
C30	C	1.580951	-0.895766	-0.731592
C31	C	1.504195	-0.950632	-0.808301
C32	C	1.504261	-1.060360	-0.808322
C33	C	1.581091	-1.115212	-0.731642
C34	C	2.047578	-0.506031	-0.578210
C35	C	2.180978	-0.506038	-0.578217
C36	C	1.734628	-0.505898	-0.891236
C37	C	1.734667	-0.505848	-1.024636
C38	C	1.734640	-0.231981	-0.578238
C39	C	1.734684	-0.115204	-0.578257
C40	C	1.734513	-0.506055	-0.266369
C41	C	1.734707	-0.505808	-0.132970
H42	H	1.888333	-1.204535	-0.424894
O43	O	1.580866	-0.777423	-0.731575
H44	H	1.671354	-0.748408	-0.755916
O45	O	2.047754	-0.891419	-0.265427
H46	H	2.101197	-0.947993	-0.212114
O47	O	1.581162	-1.233554	-0.731652
H48	H	1.605396	-1.262420	-0.822195
O49	O	2.047893	-1.119515	-0.265484
H50	H	2.027347	-1.098552	-0.171260
O51	O	1.888050	-0.777406	-0.424804
H52	H	1.954335	-0.748470	-0.358589
O53	O	1.421332	-0.891469	-0.891004
H54	H	1.434185	-0.805956	-0.878101
H55	H	1.441755	-1.105025	-0.870783
