data_functionalizedCrystal
_audit_creation_method	'MofGen! by Chris Wilmer'
_symmetry_space_group_name_H-M	'P1'
_symmetry_Int_Tables_number	1
_symmetry_cell_setting	triclinic
loop_
_symmetry_equiv_pos_as_xyz
  x,y,z
_cell_length_a	19.805407
_cell_length_b	25.639239
_cell_length_c	19.805407
_cell_angle_alpha	90.014465
_cell_angle_beta	90.009221
_cell_angle_gamma	90.038686
loop_
_atom_site_label
_atom_site_type_symbol
_atom_site_fract_x
_atom_site_fract_y
_atom_site_fract_z
Zn1	Zn	1.034609	-0.208237	0.382714
Zn2	Zn	1.034520	-0.295649	0.269524
Zn3	Zn	0.921444	-0.208229	0.269539
Zn4	Zn	0.921363	-0.295643	0.382670
O5	O	0.977984	-0.251939	0.326112
O6	O	1.129313	-0.219838	0.367711
O7	O	1.019517	-0.284052	0.174809
O8	O	0.936527	-0.135065	0.284576
O9	O	1.129248	-0.284059	0.284551
O10	O	1.019668	-0.135070	0.367726
O11	O	0.936440	-0.219825	0.174820
O12	O	0.826717	-0.219819	0.284534
O13	O	0.936388	-0.284049	0.477393
O14	O	0.826657	-0.284042	0.367651
O15	O	1.019590	-0.219832	0.477425
O16	O	1.019438	-0.368813	0.284508
O17	O	0.936302	-0.368809	0.367636
C18	C	0.802128	-0.251929	0.326090
C19	C	0.726896	-0.251938	0.326096
C20	C	0.691538	-0.285429	0.369306
C21	C	0.620850	-0.285429	0.369315
C22	C	0.585520	-0.251942	0.326112
C23	C	0.620883	-0.218447	0.282901
C24	C	0.691570	-0.218444	0.282895
C25	C	0.335809	-0.218459	0.282923
C26	C	0.265117	-0.218466	0.282930
C27	C	0.265089	-0.285444	0.369343
C28	C	0.335776	-0.285441	0.369337
C29	C	0.371133	-0.251945	0.326129
C30	C	0.447781	-0.251943	0.326120
C31	C	0.508873	-0.251945	0.326117
C32	C	0.977870	-0.387782	0.326081
C33	C	0.977883	-0.445896	0.326090
C34	C	1.021386	-0.806249	0.282900
C35	C	1.021412	-0.860853	0.282910
O36	O	1.058281	-0.889081	0.246154
N37	N	0.978103	-0.888178	0.326156
C38	C	0.934769	-0.860897	0.369402
O39	O	0.897934	-0.889153	0.406188
C40	C	0.934747	-0.806293	0.369396
C41	C	0.978054	-0.778971	0.326141
C42	C	1.064690	-0.778926	0.239650
C43	C	1.064662	-0.724326	0.239640
C44	C	1.021331	-0.697048	0.282881
C45	C	0.978027	-0.724370	0.326132
C46	C	0.891418	-0.779012	0.412644
C47	C	0.891399	-0.724405	0.412635
C48	C	0.934707	-0.697083	0.369380
C49	C	0.934668	-0.642492	0.369363
N50	N	0.977977	-0.615166	0.326116
C51	C	1.021309	-0.642444	0.282875
C52	C	0.934820	-0.975567	0.369413
C53	C	0.934839	-1.030169	0.369416
C54	C	1.021482	-1.030122	0.282924
C55	C	1.021460	-0.975519	0.282918
C56	C	0.978129	-0.948242	0.326166
C57	C	1.021248	-0.527779	0.282857
C58	C	1.021215	-0.473174	0.282849
C59	C	0.934574	-0.473226	0.369343
C60	C	0.934604	-0.527827	0.369349
C61	C	0.977947	-0.555102	0.326104
O62	O	0.897820	-0.614229	0.406101
O63	O	1.058144	-0.614181	0.246101
C64	C	1.154526	-0.251950	0.326134
C65	C	1.229758	-0.251954	0.326144
C66	C	0.977990	-0.251940	0.502654
C67	C	0.977992	-0.251941	0.577886
C68	C	0.978116	-0.115566	0.326158
C69	C	0.978173	-0.057452	0.326177
C70	C	1.021310	-0.218508	0.613248
C71	C	1.021304	-0.218507	0.683937
C72	C	0.977984	-0.251941	0.719262
C73	C	0.934661	-0.285375	0.683895
C74	C	0.934664	-0.285373	0.613208
C75	C	0.934648	-0.285381	0.968968
C76	C	0.934650	-0.285381	1.039660
C77	C	1.021288	-0.218514	1.039697
C78	C	1.021291	-0.218513	0.969010
C79	C	0.977966	-0.251945	0.933649
C80	C	0.977972	-0.251945	0.857001
C81	C	0.977981	-0.251943	0.795909
C82	C	0.977971	-0.251949	1.150256
C83	C	0.977964	-0.251945	1.075024
H84	H	0.720299	-0.312700	0.404485
H85	H	0.592112	-0.191179	0.247726
Cl86	Cl	0.736019	-0.176338	0.228574
Cl87	Cl	1.119171	-0.813209	0.185282
Cl88	Cl	1.075793	-0.176498	0.728389
H89	H	1.099929	-0.702083	0.204420
H90	H	0.856149	-0.801249	0.447864
H91	H	0.592065	-0.312702	0.404500
H92	H	0.236354	-0.191193	0.247749
Cl93	Cl	0.880203	-0.327403	0.568753
Cl94	Cl	0.380248	-0.176347	0.228606
Cl95	Cl	0.380187	-0.327543	0.423650
H96	H	1.056480	-0.450930	0.247624
H97	H	1.056543	-0.549980	0.247644
Cl98	Cl	0.880336	-0.941282	0.423781
Cl99	Cl	1.075755	-0.176481	0.924605
H100	H	1.056725	-0.953276	0.247697
Cl101	Cl	0.880385	-1.064511	0.423787
H102	H	0.856115	-0.702199	0.447855
Cl103	Cl	1.075956	-1.064425	0.228562
H104	H	0.899342	-0.550074	0.404573
H105	H	0.236294	-0.312717	0.404528
Cl106	Cl	0.880198	-0.327405	0.728304
Cl107	Cl	0.880107	-0.438924	0.423704
Cl108	Cl	1.075777	-0.176477	0.568846
Cl109	Cl	1.075751	-0.176483	1.084155
Cl110	Cl	0.880185	-0.327415	1.084068
H111	H	0.899380	-0.312611	0.940186
