data_functionalizedCrystal
_audit_creation_method	'MofGen! by Chris Wilmer'
_symmetry_space_group_name_H-M	'P1'
_symmetry_Int_Tables_number	1
_symmetry_cell_setting	triclinic
loop_
_symmetry_equiv_pos_as_xyz
  x,y,z
_cell_length_a	15.995300
_cell_length_b	10.654550
_cell_length_c	9.130313
_cell_angle_alpha	90.000110
_cell_angle_beta	89.998179
_cell_angle_gamma	96.021645
loop_
_atom_site_label
_atom_site_type_symbol
_atom_site_fract_x
_atom_site_fract_y
_atom_site_fract_z
O1	O	1.111945	-0.161566	-0.121849
O2	O	0.868281	-0.181621	-0.121840
O3	O	0.995715	0.011220	-0.121839
O4	O	0.984511	-0.354408	-0.121850
O5	O	0.995714	0.011215	0.121759
O6	O	0.868279	-0.181627	0.121759
O7	O	1.111944	-0.161571	0.121750
Cu8	Cu	0.990111	-0.171599	0.143997
Cu9	Cu	0.990113	-0.171593	-0.144087
O10	O	0.984509	-0.354413	0.121749
C11	C	0.837080	-0.180806	-0.000039
C12	C	0.744113	-0.178354	-0.000036
C13	C	0.573903	-0.173825	-0.000047
C14	C	0.527235	-0.311132	-0.000048
C15	C	0.430533	-0.308627	-0.000604
C16	C	0.406321	-0.169368	-0.000056
C17	C	0.447059	-0.101242	-0.138887
C18	C	0.543713	-0.104716	-0.139000
C19	C	0.543978	-0.102689	0.138027
C20	C	0.447034	-0.102702	0.139848
C21	C	0.311611	-0.166841	-0.000066
C22	C	0.668614	-0.176347	-0.000047
C23	C	0.994892	0.058005	-0.000042
C24	C	0.992430	0.197415	-0.000047
C25	C	1.143145	-0.162387	-0.000054
C26	C	1.236112	-0.164839	-0.000067
C27	C	0.985333	-0.401197	-0.000052
C28	C	0.987794	-0.540608	-0.000057
N29	N	0.990116	-0.171603	0.346619
C30	C	1.067462	0.277901	-0.000045
C31	C	1.065144	0.408891	-0.000055
C32	C	0.912757	0.378896	-0.000063
C33	C	0.915075	0.247908	-0.000063
C34	C	1.144817	0.227408	-0.000029
C35	C	1.219855	0.307895	-0.000026
C36	C	1.217537	0.438885	-0.000036
C37	C	1.140181	0.489388	-0.000049
N38	N	0.990115	-0.171580	-0.346710
C39	C	1.046559	-0.086242	0.423272
C40	C	1.046556	-0.086226	0.576608
C41	C	0.933666	-0.256945	0.576627
C42	C	0.933665	-0.256953	0.423293
C43	C	1.103010	-0.000891	0.346598
C44	C	1.159458	0.084476	0.423250
C45	C	1.159455	0.084491	0.576587
C46	C	1.103005	-0.000861	0.653271
H47	H	0.402995	-0.361923	-0.100707
F48	F	0.393731	-0.378603	0.129439
H49	H	0.853978	0.182374	-0.000062
H50	H	1.205412	0.154009	0.638996
F51	F	1.297397	0.524543	-0.000048
H52	H	1.103002	-0.000833	0.778129
H53	H	0.887707	-0.326437	0.639074
F54	F	0.873589	-0.347803	0.341713
F55	F	1.302177	0.254145	-0.000029
H56	H	1.103018	-0.000898	0.221743
H57	H	1.205413	0.153975	0.360806
H58	H	0.575171	-0.001455	0.139366
F59	F	0.552235	-0.383529	0.129553
H60	H	1.138300	0.596050	-0.000073
H61	H	0.547160	-0.365488	-0.099457
F62	F	0.830436	0.432649	-0.000075
H63	H	1.146713	0.120751	-0.000016
H64	H	0.562317	-0.153810	-0.243174
F65	F	0.585133	0.027068	-0.146741
H66	H	0.418945	-0.147943	-0.242596
F67	F	0.427854	0.032505	-0.145128
H68	H	0.564740	-0.147897	0.243287
F69	F	0.426211	0.030004	0.151356
F70	F	0.411676	-0.167724	0.274100
