data_functionalizedCrystal
_audit_creation_method	'MofGen! by Chris Wilmer'
_symmetry_space_group_name_H-M	'P1'
_symmetry_Int_Tables_number	1
_symmetry_cell_setting	triclinic
loop_
_symmetry_equiv_pos_as_xyz
  x,y,z
_cell_length_a	23.532407
_cell_length_b	23.532407
_cell_length_c	13.596369
_cell_angle_alpha	89.989360
_cell_angle_beta	89.997347
_cell_angle_gamma	82.848712
loop_
_atom_site_label
_atom_site_type_symbol
_atom_site_fract_x
_atom_site_fract_y
_atom_site_fract_z
O1	O	0.755260	0.069136	-0.081739
O2	O	1.255260	0.569136	0.418261
O3	O	0.589397	0.079139	-0.081756
O4	O	1.089397	0.579139	0.418244
O5	O	0.677330	-0.008794	-0.081729
O6	O	1.177330	0.491206	0.418271
O7	O	0.667327	0.157069	-0.081766
O8	O	1.167327	0.657069	0.418234
O9	O	0.677321	-0.008798	0.081854
O10	O	1.177321	0.491202	0.581854
O11	O	0.589388	0.079135	0.081827
O12	O	1.089388	0.579135	0.581827
O13	O	0.755251	0.069132	0.081844
O14	O	1.255251	0.569132	0.581844
Zn15	Zn	0.672318	0.074132	0.107808
Zn16	Zn	1.172318	0.574132	0.607808
Zn17	Zn	0.672330	0.074138	-0.107720
Zn18	Zn	1.172330	0.574138	0.392280
O19	O	0.667318	0.157065	0.081817
O20	O	1.167318	0.657065	0.581817
C21	C	0.568176	0.078882	0.000033
C22	C	1.068176	0.578882	0.500033
C23	C	0.504959	0.078116	0.000028
C24	C	1.004959	0.578116	0.500028
C25	C	0.238792	0.022921	0.000067
C26	C	0.738792	0.522921	0.500067
C27	C	0.298192	0.023632	0.000066
C28	C	0.798192	0.523632	0.500066
O29	O	0.334937	-0.020153	0.000110
O30	O	0.834937	0.479847	0.500110
N31	N	0.320818	0.075909	0.000048
N32	N	0.820818	0.575909	0.500048
C33	C	0.284041	0.127477	0.000040
C34	C	0.784041	0.627477	0.500040
O35	O	0.308740	0.172007	0.000025
O36	O	0.808740	0.672007	0.500025
C37	C	0.224642	0.126765	0.000047
C38	C	0.724642	0.626765	0.500047
C39	C	0.202019	0.074485	0.000056
C40	C	0.702019	0.574485	0.500056
C41	C	0.216169	-0.029354	0.000076
C42	C	0.716169	0.470646	0.500076
C43	C	0.156772	-0.030066	0.000075
C44	C	0.656772	0.469934	0.500075
C45	C	0.119999	0.021499	0.000064
C46	C	0.619999	0.521499	0.500064
C47	C	0.142623	0.073774	0.000054
C48	C	0.642623	0.573774	0.500054
C49	C	0.187865	0.178333	0.000047
C50	C	0.687865	0.678333	0.500047
C51	C	0.128463	0.177616	0.000055
C52	C	0.628463	0.677616	0.500055
C53	C	0.105840	0.125336	0.000063
C54	C	0.605840	0.625336	0.500063
C55	C	0.046454	0.124627	0.000042
C56	C	0.546454	0.624627	0.500042
N57	N	0.023828	0.072351	0.000061
N58	N	0.523828	0.572351	0.500061
C59	C	0.060600	0.020787	0.000071
C60	C	0.560600	0.520787	0.500071
C61	C	0.408783	0.128968	0.000026
C62	C	0.908783	0.628968	0.500026
C63	C	0.468181	0.129681	0.000012
C64	C	0.968181	0.629681	0.500012
C65	C	0.482328	0.025836	0.000040
C66	C	0.982328	0.525836	0.500040
C67	C	0.422929	0.025124	0.000047
C68	C	0.922929	0.525124	0.500047
C69	C	0.386157	0.076692	0.000044
C70	C	0.886157	0.576692	0.500044
C71	C	-0.064136	0.019297	0.000068
C72	C	0.435864	0.519297	0.500068
C73	C	-0.123538	0.018590	0.000062
C74	C	0.376462	0.518590	0.500062
C75	C	-0.137680	0.122435	0.000039
C76	C	0.362320	0.622435	0.500039
C77	C	-0.078284	0.123142	0.000039
C78	C	0.421716	0.623142	0.500039
C79	C	-0.041512	0.071568	0.000057
C80	C	0.458488	0.571568	0.500057
O81	O	0.009675	0.168390	0.000002
O82	O	0.509675	0.668390	0.500002
O83	O	0.035892	-0.023737	0.000099
O84	O	0.535892	0.476263	0.500099
C85	C	0.677071	-0.030012	0.000065
C86	C	1.177071	0.469988	0.500065
C87	C	0.676305	-0.093229	0.000072
C88	C	1.176305	0.406771	0.500072
C89	C	0.723538	-0.492332	0.000023
C90	C	1.223538	0.007668	0.500023
C91	C	0.722827	-0.551733	0.000016
C92	C	1.222827	-0.051733	0.500016
O93	O	0.766613	-0.588477	-0.000016
O94	O	1.266613	-0.088477	0.499984
N95	N	0.670551	-0.574359	0.000011
N96	N	1.170551	-0.074359	0.500011
C97	C	0.618982	-0.537581	0.000004
C98	C	1.118982	-0.037581	0.500004
O99	O	0.574452	-0.562281	-0.000002
O100	O	1.074452	-0.062281	0.499998
C101	C	0.619695	-0.478182	0.000004
C102	C	1.119695	0.021818	0.500004
C103	C	0.671974	-0.455559	0.000019
C104	C	1.171974	0.044441	0.500019
C105	C	0.775814	-0.469709	0.000037
C106	C	1.275814	0.030291	0.500037
C107	C	0.776525	-0.410313	0.000046
C108	C	1.276525	0.089687	0.500046
C109	C	0.724961	-0.373540	0.000042
C110	C	1.224961	0.126460	0.500042
C111	C	0.672685	-0.396163	0.000028
C112	C	1.172685	0.103837	0.500028
C113	C	0.568127	-0.441406	-0.000010
C114	C	1.068127	0.058594	0.499990
C115	C	0.568843	-0.382003	-0.000010
C116	C	1.068843	0.117997	0.499990
C117	C	0.621123	-0.359381	0.000005
C118	C	1.121123	0.140619	0.500005
C119	C	0.621832	-0.299994	0.000034
C120	C	1.121832	0.200006	0.500034
N121	N	0.674109	-0.277368	0.000038
N122	N	1.174109	0.222632	0.500038
C123	C	0.725673	-0.314141	0.000042
C124	C	1.225673	0.185859	0.500042
C125	C	0.617491	-0.662324	0.000001
C126	C	1.117491	-0.162324	0.500001
C127	C	0.616778	-0.721722	0.000008
C128	C	1.116778	-0.221722	0.500008
C129	C	0.720623	-0.735869	0.000018
C130	C	1.220623	-0.235869	0.500018
C131	C	0.721335	-0.676470	0.000018
C132	C	1.221335	-0.176470	0.500018
C133	C	0.669767	-0.639698	0.000006
C134	C	1.169767	-0.139698	0.500006
C135	C	0.727163	-0.189404	0.000063
C136	C	1.227163	0.310596	0.500063
C137	C	0.727869	-0.130002	0.000076
C138	C	1.227869	0.369998	0.500076
C139	C	0.624025	-0.115860	0.000061
C140	C	1.124025	0.384140	0.500061
C141	C	0.623318	-0.175257	0.000053
C142	C	1.123318	0.324743	0.500053
C143	C	0.674891	-0.212028	0.000051
C144	C	1.174891	0.287972	0.500051
O145	O	0.578069	-0.263215	0.000061
O146	O	1.078069	0.236785	0.500061
O147	O	0.770196	-0.289433	0.000035
O148	O	1.270196	0.210567	0.500035
C149	C	0.776472	0.069389	0.000052
C150	C	1.276472	0.569389	0.500052
C151	C	0.839689	0.070155	0.000051
C152	C	1.339689	0.570155	0.500051
C153	C	0.667577	0.178283	0.000021
C154	C	1.167577	0.678283	0.500021
C155	C	0.668343	0.241500	0.000007
C156	C	1.168343	0.741500	0.500007
N157	N	0.672315	0.074128	0.254899
N158	N	1.172315	0.574128	0.754899
N159	N	0.672338	0.074138	-0.254812
N160	N	1.172338	0.574138	0.245188
C161	C	0.672329	0.074139	0.656190
C162	C	1.172329	0.574139	1.156190
C163	C	0.672323	0.074138	0.544539
C164	C	1.172323	0.574138	1.044539
C165	C	0.672322	0.074134	0.455548
C166	C	1.172322	0.574134	0.955548
C167	C	0.672316	0.074132	0.343890
C168	C	1.172316	0.574132	0.843890
H169	H	-0.059864	0.165712	0.000031
H170	H	0.440136	0.665712	0.500031
O171	O	0.400929	-0.025645	-0.000112
O172	O	0.900929	0.474355	0.499888
C173	C	0.342055	-0.086707	-0.084802
C174	C	0.842055	0.413293	0.415198
C175	C	0.366939	-0.029194	-0.084759
C176	C	0.866939	0.470806	0.415241
H177	H	0.314559	-0.089590	-0.153221
H178	H	0.814559	0.410410	0.346779
H179	H	0.378524	-0.123458	-0.084862
H180	H	0.878524	0.376542	0.415138
H181	H	0.314627	-0.089633	-0.016306
H182	H	0.814627	0.410367	0.483694
H183	H	0.394360	-0.026212	-0.153243
H184	H	0.894360	0.473788	0.346757
H185	H	0.330443	0.007530	-0.084648
H186	H	0.830443	0.507530	0.415352
O187	O	0.373007	0.179028	-0.000125
O188	O	0.873007	0.679028	0.499875
C189	C	0.297765	0.238516	-0.084925
C190	C	0.797765	0.738516	0.415075
C191	C	0.338235	0.181797	-0.084865
C192	C	0.838235	0.681797	0.415135
H193	H	0.269650	0.240778	-0.153440
H194	H	0.769650	0.740778	0.346560
H195	H	0.269561	0.240793	-0.016512
H196	H	0.769561	0.740793	0.483488
H197	H	0.324158	0.275987	-0.084894
H198	H	0.824158	0.775987	0.415106
H199	H	0.311888	0.144294	-0.084930
H200	H	0.811888	0.644294	0.415070
H201	H	0.366441	0.179570	-0.153271
H202	H	0.866441	0.679570	0.346729
H203	H	0.512280	-0.016150	0.000049
H204	H	1.012280	0.483850	0.500049
H205	H	-0.141954	-0.023984	0.000066
H206	H	0.358046	0.476016	0.500066
O207	O	0.827295	-0.388313	0.000221
O208	O	1.327295	0.111687	0.500221
C209	C	0.888361	-0.329452	0.084930
C210	C	1.388361	0.170548	0.584930
C211	C	0.830848	-0.354334	0.084873
C212	C	1.330848	0.145666	0.584873
H213	H	0.891247	-0.301965	0.153353
H214	H	1.391247	0.198035	0.653353
H215	H	0.925112	-0.365921	0.084990
H216	H	1.425112	0.134079	0.584990
H217	H	0.891285	-0.302015	0.016438
H218	H	1.391285	0.197985	0.516438
H219	H	0.827868	-0.381764	0.153353
H220	H	1.327868	0.118236	0.653353
H221	H	0.794124	-0.317838	0.084761
H222	H	1.294124	0.182162	0.584761
O223	O	0.825960	-0.505344	0.000088
O224	O	1.325960	-0.005344	0.500088
C225	C	0.929034	-0.513087	0.000058
C226	C	1.429034	-0.013087	0.500058
C227	C	0.872281	-0.472671	0.000012
C228	C	1.372281	0.027329	0.500012
H229	H	0.966499	-0.486687	-0.000024
H230	H	1.466499	0.013313	0.499976
H231	H	0.931335	-0.541245	0.068536
H232	H	1.431335	-0.041245	0.568536
H233	H	0.931279	-0.541257	-0.068383
H234	H	1.431279	-0.041257	0.431617
H235	H	0.869998	-0.444465	0.068406
H236	H	1.369998	0.055535	0.568406
H237	H	0.870004	-0.444553	-0.068511
H238	H	1.370004	0.055447	0.431489
H239	H	0.769159	-0.219337	0.000057
H240	H	1.269159	0.280663	0.500057
O241	O	-0.028445	-0.030816	-0.000097
O242	O	0.471555	0.469184	0.499903
C243	C	0.001784	-0.119365	-0.084811
C244	C	0.501784	0.380635	0.415189
C245	C	-0.038658	-0.062629	-0.084748
C246	C	0.461342	0.437371	0.415252
H247	H	-0.006467	-0.145107	-0.153233
H248	H	0.493533	0.354893	0.346767
H249	H	0.048139	-0.109919	-0.084878
H250	H	0.548139	0.390081	0.415122
H251	H	-0.006406	-0.145088	-0.016318
H252	H	0.493594	0.354912	0.483682
H253	H	-0.030519	-0.036877	-0.153229
H254	H	0.469481	0.463123	0.346771
H255	H	-0.084999	-0.072115	-0.084630
H256	H	0.415001	0.427885	0.415370
H257	H	0.246104	-0.071347	0.000088
H258	H	0.746104	0.428653	0.500088
O259	O	0.134896	-0.080901	0.000140
O260	O	0.634896	0.419099	0.500140
C261	C	0.155219	-0.183824	0.000125
C262	C	0.655219	0.316176	0.500125
C263	C	0.180065	-0.126291	0.000068
C264	C	0.680065	0.373709	0.500068
H265	H	0.191726	-0.220536	0.000046
H266	H	0.691726	0.279464	0.500046
H267	H	0.127788	-0.186794	0.068606
H268	H	0.627788	0.313206	0.568606
H269	H	0.127744	-0.186730	-0.068312
H270	H	0.627744	0.313270	0.431688
H271	H	0.207566	-0.123346	0.068459
H272	H	0.707566	0.376654	0.568459
H273	H	0.207464	-0.123345	-0.068458
H274	H	0.707464	0.376655	0.431542
O275	O	0.772105	-0.654470	0.000197
O276	O	1.272105	-0.154470	0.500197
C277	C	0.833166	-0.595607	0.084913
C278	C	1.333166	-0.095607	0.584913
C279	C	0.775653	-0.620489	0.084848
C280	C	1.275653	-0.120489	0.584848
H281	H	0.836049	-0.568118	0.153336
H282	H	1.336049	-0.068118	0.653336
H283	H	0.869918	-0.632076	0.084981
H284	H	1.369918	-0.132076	0.584981
H285	H	0.836094	-0.568171	0.016420
H286	H	1.336094	-0.068171	0.516420
H287	H	0.772670	-0.647918	0.153329
H288	H	1.272670	-0.147918	0.653329
H289	H	0.738929	-0.583993	0.084729
H290	H	1.238929	-0.083993	0.584729
O291	O	0.778671	-0.108055	-0.000088
O292	O	1.278671	0.391945	0.499912
C293	C	0.867663	-0.101997	-0.084797
C294	C	1.367663	0.398003	0.415203
C295	C	0.810148	-0.126877	-0.084742
C296	C	1.310148	0.373123	0.415258
H297	H	0.893134	-0.117214	-0.153221
H298	H	1.393134	0.382786	0.346779
H299	H	0.859353	-0.053224	-0.084853
H300	H	1.359353	0.446776	0.415147
H301	H	0.893100	-0.117167	-0.016306
H302	H	1.393100	0.382833	0.483694
H303	H	0.784682	-0.111750	-0.153221
H304	H	1.284682	0.388250	0.346779
H305	H	0.818499	-0.175647	-0.084634
H306	H	1.318499	0.324353	0.415366
O307	O	0.092662	0.227659	0.000091
O308	O	0.592662	0.727659	0.500091
C309	C	-0.005114	0.272593	0.000021
C310	C	0.494886	0.772593	0.500021
C311	C	0.035363	0.215879	0.000006
C312	C	0.535363	0.715879	0.500006
H313	H	-0.051449	0.263089	-0.000069
H314	H	0.448551	0.763089	0.499931
H315	H	0.003032	0.298341	0.068491
H316	H	0.503032	0.798341	0.568491
H317	H	0.003114	0.298339	-0.068427
H318	H	0.503114	0.798339	0.431573
H319	H	0.027158	0.190088	0.068408
H320	H	0.527158	0.690088	0.568408
H321	H	0.027208	0.190175	-0.068509
H322	H	0.527208	0.690175	0.431491
H323	H	-0.167631	0.164417	0.000025
H324	H	0.332369	0.664417	0.500025
H325	H	0.762610	-0.765821	0.000017
H326	H	1.262610	-0.265821	0.500017
O327	O	0.565944	-0.743599	-0.000039
O328	O	1.065944	-0.243599	0.499961
C329	C	0.463020	-0.723281	0.000009
C330	C	0.963020	-0.223281	0.500009
C331	C	0.520552	-0.698432	0.000047
C332	C	1.020552	-0.198432	0.500047
H333	H	0.426306	-0.686776	0.000100
H334	H	0.926306	-0.186776	0.500100
H335	H	0.460052	-0.750704	-0.068470
H336	H	0.960052	-0.250704	0.431530
H337	H	0.460115	-0.750766	0.068448
H338	H	0.960115	-0.250766	0.568448
H339	H	0.523495	-0.670922	-0.068345
H340	H	1.023495	-0.170922	0.431655
H341	H	0.523496	-0.671042	0.068572
H342	H	1.023496	-0.171042	0.568572
H343	H	0.575496	-0.632386	-0.000000
H344	H	1.075496	-0.132386	0.500000
H345	H	0.525555	-0.459814	-0.000028
H346	H	1.025555	0.040186	0.499972
H347	H	0.486595	0.172252	-0.000009
H348	H	0.986595	0.672252	0.499991
H349	H	0.526850	-0.352065	-0.000021
H350	H	1.026850	0.147935	0.499979
O351	O	0.572485	-0.197141	-0.000001
O352	O	1.072485	0.302859	0.499999
C353	C	0.469560	-0.176833	0.000033
C354	C	0.969560	0.323167	0.500033
C355	C	0.527089	-0.151978	0.000087
C356	C	1.027089	0.348022	0.500087
H357	H	0.432843	-0.140331	0.000125
H358	H	0.932843	0.359669	0.500125
H359	H	0.466598	-0.204252	-0.068454
H360	H	0.966598	0.295748	0.431546
H361	H	0.466654	-0.204323	0.068465
H362	H	0.966654	0.295677	0.568465
H363	H	0.530034	-0.124463	-0.068299
H364	H	1.030034	0.375537	0.431701
H365	H	0.530026	-0.124592	0.068619
H366	H	1.030026	0.375408	0.568619
H367	H	0.206274	0.220904	0.000035
H368	H	0.706274	0.720904	0.500035
H369	H	0.582043	-0.085909	0.000061
H370	H	1.082043	0.414091	0.500061
