data_functionalizedCrystal
_audit_creation_method	'MofGen! by Chris Wilmer'
_symmetry_space_group_name_H-M	'P1'
_symmetry_Int_Tables_number	1
_symmetry_cell_setting	triclinic
loop_
_symmetry_equiv_pos_as_xyz
  x,y,z
_cell_length_a	14.519731
_cell_length_b	13.596369
_cell_length_c	19.288865
_cell_angle_alpha	90.011218
_cell_angle_beta	83.412550
_cell_angle_gamma	90.005416
loop_
_atom_site_label
_atom_site_type_symbol
_atom_site_fract_x
_atom_site_fract_y
_atom_site_fract_z
O1	O	1.223278	0.081805	0.091121
O2	O	0.954736	0.081808	0.101828
O3	O	1.096767	0.081787	-0.004627
O4	O	1.081248	0.081826	0.197577
O5	O	1.096753	-0.081796	-0.004633
O6	O	0.954722	-0.081775	0.101823
O7	O	1.223264	-0.081778	0.091116
Zn8	Zn	1.088991	-0.107748	0.096468
Zn9	Zn	1.089009	0.107779	0.096476
O10	O	1.081234	-0.081757	0.197571
C11	C	0.920373	0.000017	0.101324
C12	C	0.818002	0.000017	0.099820
N13	N	1.088985	-0.254840	0.096463
C14	C	0.734866	0.000021	0.098599
C15	C	0.630567	0.000021	0.097073
C16	C	0.547435	0.000021	0.095861
C17	C	0.443130	0.000022	0.094335
C18	C	1.089008	-0.656131	0.096477
C19	C	1.088999	-0.544480	0.096475
C20	C	1.088997	-0.455489	0.096470
C21	C	1.088987	-0.343831	0.096468
C22	C	1.257627	0.000016	0.091620
C23	C	1.359998	0.000022	0.093124
C24	C	1.096260	-0.000007	-0.030508
C25	C	1.094761	-0.000016	-0.107617
N26	N	1.089023	0.254871	0.096476
C27	C	1.178099	-0.000022	-0.152009
C28	C	1.176690	-0.000006	-0.224461
C29	C	1.091940	-0.000004	-0.252518
C30	C	1.008592	0.000007	-0.208117
C31	C	1.010003	0.000001	-0.135666
C32	C	1.025312	-0.057303	-0.361051
C33	C	1.023905	-0.057304	-0.433501
C34	C	1.087586	0.000018	-0.475980
C35	C	1.152690	0.057327	-0.446002
C36	C	1.154100	0.057321	-0.373551
C37	C	1.090401	0.000002	-0.331078
C38	C	1.169402	0.000030	-0.598933
C39	C	1.167990	0.000052	-0.671386
C40	C	0.999889	0.000055	-0.655041
C41	C	1.001303	0.000043	-0.582589
C42	C	1.086062	0.000026	-0.554540
C43	C	1.081740	0.000040	0.223452
C44	C	1.083239	0.000055	0.300561
H45	H	1.247116	-0.000032	-0.129176
C46	C	1.268371	-0.000019	-0.273301
N47	N	1.337426	-0.000031	-0.310085
H48	H	1.207109	0.103986	-0.349146
H49	H	0.933441	0.000042	-0.546444
C50	C	0.918321	0.000004	-0.086833
N51	N	0.849265	0.000005	-0.050051
H52	H	1.238417	0.000021	-0.576094
C53	C	1.259672	0.000040	-0.720218
N54	N	1.328730	0.000027	-0.756999
C55	C	1.222742	0.120389	-0.492723
N56	N	1.275504	0.167886	-0.527917
C57	C	0.906662	0.000060	-0.685900
N58	N	0.836442	0.000066	-0.709146
C59	C	0.952289	-0.120344	-0.466470
N60	N	0.898345	-0.167826	-0.491300
C61	C	0.955256	-0.120370	-0.314331
N62	N	0.902493	-0.167872	-0.279143
H63	H	0.939588	0.000010	-0.230966
