data_functionalizedCrystal
_audit_creation_method	'MofGen! by Chris Wilmer'
_symmetry_space_group_name_H-M	'P1'
_symmetry_Int_Tables_number	1
_symmetry_cell_setting	triclinic
loop_
_symmetry_equiv_pos_as_xyz
  x,y,z
_cell_length_a	19.288864
_cell_length_b	17.766277
_cell_length_c	19.288865
_cell_angle_alpha	89.988397
_cell_angle_beta	96.863755
_cell_angle_gamma	90.023209
loop_
_atom_site_label
_atom_site_type_symbol
_atom_site_fract_x
_atom_site_fract_y
_atom_site_fract_z
O1	O	-0.921353	-0.062844	0.086649
O2	O	-0.719092	-0.062794	0.098337
O3	O	-0.826067	-0.062806	-0.008637
O4	O	-0.814378	-0.062832	0.193623
O5	O	-0.826048	0.062383	-0.008643
O6	O	-0.719074	0.062395	0.098332
O7	O	-0.921334	0.062344	0.086643
Cu8	Cu	-0.820202	0.073800	0.092487
Cu9	Cu	-0.820224	-0.074250	0.092494
O10	O	-0.814360	0.062356	0.193618
C11	C	-0.693207	-0.000193	0.097959
C12	C	-0.616103	-0.000173	0.096830
C13	C	-0.825682	-0.000209	-0.034516
C14	C	-0.824553	-0.000202	-0.111620
C15	C	-0.947220	-0.000258	0.087022
C16	C	-1.024324	-0.000283	0.088151
N17	N	-0.820192	0.177931	0.092482
C18	C	-0.571407	-0.000193	0.159598
C19	C	-0.498960	-0.000201	0.158537
C20	C	-0.471212	-0.000205	0.094705
C21	C	-0.515918	-0.000180	0.031929
C22	C	-0.588364	-0.000164	0.032991
C23	C	-0.362957	-0.044082	0.044527
C24	C	-0.290512	-0.044103	0.043468
C25	C	-0.247767	-0.000250	0.091425
C26	C	-0.277473	0.043614	0.140454
C27	C	-0.349918	0.043630	0.141517
C28	C	-0.392658	-0.000221	0.093546
C29	C	-0.124514	-0.000278	0.153047
C30	C	-0.052066	-0.000281	0.151984
C31	C	-0.069026	-0.000267	0.025374
C32	C	-0.141473	-0.000256	0.026439
C33	C	-0.169212	-0.000265	0.090278
N34	N	-0.820241	-0.178380	0.092493
C35	C	-0.867575	0.217312	0.045137
C36	C	-0.867579	0.296114	0.045134
C37	C	-0.820206	0.335531	0.092488
C38	C	-0.772814	0.296140	0.139837
C39	C	-0.772807	0.217340	0.139834
C40	C	-0.810908	0.460362	0.155775
C41	C	-0.810920	0.539161	0.155779
C42	C	-0.820225	0.578577	0.092496
C43	C	-0.829533	0.539185	0.029207
C44	C	-0.829525	0.460385	0.029204
C45	C	-0.820209	0.420977	0.092496
C46	C	-0.867616	0.703405	0.045143
C47	C	-0.867615	0.782208	0.045139
C48	C	-0.772853	0.782233	0.139848
C49	C	-0.772850	0.703431	0.139846
C50	C	-0.820235	0.664022	0.092495
C51	C	-0.887321	-0.000214	-0.156316
C52	C	-0.886260	-0.000226	-0.228763
C53	C	-0.822428	-0.000210	-0.256511
C54	C	-0.759652	-0.000203	-0.211805
C55	C	-0.760714	-0.000198	-0.139359
C56	C	-0.772242	0.043653	-0.364800
C57	C	-0.771182	0.043654	-0.437245
C58	C	-0.819148	-0.000226	-0.479956
C59	C	-0.868186	-0.044097	-0.450216
C60	C	-0.869249	-0.044093	-0.377771
C61	C	-0.821269	-0.000215	-0.335065
C62	C	-0.880770	-0.000252	-0.603209
C63	C	-0.879707	-0.000268	-0.675657
C64	C	-0.753097	-0.000238	-0.658697
C65	C	-0.754162	-0.000229	-0.586250
C66	C	-0.818001	-0.000232	-0.558511
C67	C	-0.814745	-0.000242	0.219497
C68	C	-0.815874	-0.000254	0.296601
H69	H	-0.593987	-0.000202	0.211580
H70	H	-0.837102	0.428315	-0.022328
H71	H	-0.731249	0.079371	-0.461453
H72	H	-0.803345	0.571228	0.207313
O73	O	-0.726700	0.334393	0.185767
C74	C	-0.605803	0.358530	0.226798
C75	C	-0.657955	0.315175	0.174734
H76	H	-0.550211	0.342996	0.217906
H77	H	-0.613889	0.421624	0.218669
H78	H	-0.614708	0.343024	0.282403
H79	H	-0.649082	0.330617	0.119108
H80	H	-0.649857	0.252091	0.182925
H81	H	-0.733180	0.079389	-0.330029
O82	O	-0.726737	0.820478	0.185780
C83	C	-0.605840	0.844605	0.226817
C84	C	-0.657992	0.801254	0.174751
H85	H	-0.550248	0.829066	0.217928
H86	H	-0.613921	0.907700	0.218688
H87	H	-0.614749	0.829100	0.282421
H88	H	-0.649115	0.816696	0.119126
H89	H	-0.649899	0.738169	0.182941
H90	H	-0.837110	0.571277	-0.022324
O91	O	-0.455630	-0.000261	0.219576
C92	C	-0.446448	-0.000252	0.345266
C93	C	-0.495595	-0.000199	0.276192
H94	H	-0.478740	-0.000186	0.391058
H95	H	-0.412154	-0.052666	0.347974
H96	H	-0.412060	0.052116	0.347899
H97	H	-0.530027	-0.052531	0.273513
H98	H	-0.529842	0.052250	0.273513
O99	O	-0.947280	-0.000334	-0.272122
C100	C	-1.055162	-0.065225	-0.308811
C101	C	-0.986092	-0.065188	-0.259659
H102	H	-1.086554	-0.117662	-0.298762
H103	H	-1.086623	-0.012872	-0.298753
H104	H	-1.043416	-0.065188	-0.365348
H105	H	-0.997774	-0.065251	-0.203105
H106	H	-0.954651	-0.117536	-0.269777
O107	O	-0.726895	0.665207	0.185941
C108	C	-0.685785	0.641127	0.306824
C109	C	-0.737883	0.684447	0.254697
H110	H	-0.694640	0.656678	0.362424
H111	H	-0.693914	0.578026	0.298751
H112	H	-0.630191	0.656645	0.297879
H113	H	-0.793497	0.668992	0.263610
H114	H	-0.729692	0.747536	0.262782
H115	H	-0.906198	0.671317	0.006585
O116	O	-0.801898	0.422194	0.217317
C117	C	-0.783422	0.430486	0.342859
C118	C	-0.793630	0.473804	0.273219
H119	H	-0.776720	0.472194	0.388074
H120	H	-0.831039	0.393592	0.347408
H121	H	-0.734897	0.393594	0.344647
H122	H	-0.842130	0.510736	0.271384
H123	H	-0.745977	0.510651	0.268699
O124	O	-0.726848	0.179115	0.185927
C125	C	-0.685735	0.155033	0.306809
C126	C	-0.737832	0.198356	0.254683
H127	H	-0.694588	0.170586	0.362409
H128	H	-0.693868	0.091933	0.298736
H129	H	-0.630141	0.170547	0.297862
H130	H	-0.793447	0.182905	0.263598
H131	H	-0.729638	0.261446	0.262768
O132	O	-0.042165	-0.000370	-0.036678
C133	C	-0.034496	-0.065240	-0.145194
C134	C	-0.064979	-0.065213	-0.074950
H135	H	-0.052917	-0.117668	-0.176150
H136	H	-0.052915	-0.012878	-0.176251
H137	H	0.024960	-0.065216	-0.135157
H138	H	-0.124436	-0.065263	-0.084923
H139	H	-0.046505	-0.117570	-0.043915
H140	H	-0.939303	-0.000220	-0.133736
H141	H	-0.374102	0.079347	0.181436
O142	O	-0.914690	-0.086819	-0.491714
C143	C	-0.931121	-0.187407	-0.575865
C144	C	-0.878382	-0.139095	-0.528888
H145	H	-0.901786	-0.229672	-0.605944
H146	H	-0.966339	-0.218815	-0.542193
H147	H	-0.964289	-0.149455	-0.614273
H148	H	-0.845167	-0.176992	-0.490473
H149	H	-0.843212	-0.107679	-0.562604
O150	O	-0.916902	-0.086780	-0.348991
C151	C	-1.013026	-0.173790	-0.369496
C152	C	-0.959088	-0.125493	-0.402179
H153	H	-1.047158	-0.205090	-0.412484
H154	H	-0.984741	-0.216149	-0.331734
H155	H	-1.047143	-0.135838	-0.340070
H156	H	-0.924956	-0.163385	-0.431641
H157	H	-0.987417	-0.083127	-0.439903
O158	O	-0.942840	-0.000302	-0.576373
C159	C	-1.068306	-0.000304	-0.600839
C160	C	-0.998061	-0.000260	-0.631321
H161	H	-1.112970	-0.000254	-0.645249
H162	H	-1.072018	-0.052706	-0.567359
H163	H	-1.071928	0.052076	-0.567334
H164	H	-0.994392	-0.052605	-0.664857
H165	H	-0.994379	0.052177	-0.664761
O166	O	-0.693124	-0.000174	-0.542927
C167	C	-0.567435	-0.000187	-0.533753
C168	C	-0.636511	-0.000229	-0.582895
H169	H	-0.521645	-0.000247	-0.566047
H170	H	-0.564712	0.052220	-0.499437
H171	H	-0.564813	-0.052562	-0.499385
H172	H	-0.639179	0.052111	-0.617307
H173	H	-0.639205	-0.052670	-0.617163
O174	O	-0.697689	-0.000287	-0.238838
C175	C	-0.623006	-0.065153	-0.310744
C176	C	-0.693212	-0.065137	-0.280190
H177	H	-0.619358	-0.117587	-0.344172
H178	H	-0.619323	-0.012797	-0.344292
H179	H	-0.578336	-0.065107	-0.266339
H180	H	-0.737923	-0.065210	-0.324550
H181	H	-0.696834	-0.117488	-0.246623
H182	H	-0.147101	-0.000274	0.205028
O183	O	-0.699674	-0.000149	-0.096036
C184	C	-0.573985	-0.000169	-0.086859
C185	C	-0.643060	-0.000209	-0.136003
H186	H	-0.528194	-0.000233	-0.119153
H187	H	-0.571260	0.052239	-0.052545
H188	H	-0.571366	-0.052543	-0.052490
H189	H	-0.645725	0.052130	-0.170416
H190	H	-0.645755	-0.052651	-0.170270
H191	H	-0.177866	-0.000244	-0.024674
O192	O	-0.236034	0.086120	0.187193
C193	C	-0.197799	0.111342	0.308490
C194	C	-0.244715	0.063150	0.255598
H195	H	-0.204813	0.092800	0.363807
H196	H	-0.140872	0.103845	0.299455
H197	H	-0.213016	0.173104	0.301360
H198	H	-0.229560	0.001371	0.262697
H199	H	-0.301630	0.070711	0.264647
H200	H	-0.015674	-0.000293	0.203099
H201	H	-0.930822	-0.000282	-0.712049
H202	H	-0.266331	-0.079822	0.003548
H203	H	-0.397755	-0.079797	0.005473
H204	H	-0.493322	-0.000193	-0.020044
H205	H	-0.624756	-0.000148	-0.018124
H206	H	-0.906198	0.814274	0.006581
O207	O	-0.913625	0.179148	-0.000931
C208	C	-1.007644	0.187444	-0.094838
C209	C	-0.955522	0.230760	-0.042714
H210	H	-1.041541	0.229153	-0.128623
H211	H	-0.977801	0.150601	-0.129513
H212	H	-1.042211	0.150502	-0.064926
H213	H	-0.920942	0.267743	-0.072568
H214	H	-0.985409	0.267556	-0.008039
O215	O	-0.913642	0.334460	-0.000764
C216	C	-1.008584	0.423341	-0.015778
C217	C	-0.956447	0.379981	0.036277
H218	H	-1.043215	0.460143	0.014149
H219	H	-0.978753	0.460311	-0.050395
H220	H	-1.042414	0.381619	-0.049634
H221	H	-0.922603	0.421648	0.070179
H222	H	-0.986320	0.342999	0.070845
H223	H	-0.701123	-0.000229	-0.681288
