data_functionalizedCrystal
_audit_creation_method	'MofGen! by Chris Wilmer'
_symmetry_space_group_name_H-M	'P1'
_symmetry_Int_Tables_number	1
_symmetry_cell_setting	triclinic
loop_
_symmetry_equiv_pos_as_xyz
  x,y,z
_cell_length_a	14.519731
_cell_length_b	14.519731
_cell_length_c	10.868271
_cell_angle_alpha	89.993880
_cell_angle_beta	89.995592
_cell_angle_gamma	83.688853
loop_
_atom_site_label
_atom_site_type_symbol
_atom_site_fract_x
_atom_site_fract_y
_atom_site_fract_z
O1	O	1.223864	0.120984	-0.102328
O2	O	0.955391	0.135200	-0.102330
O3	O	1.096736	-0.006145	-0.102318
O4	O	1.082520	0.262329	-0.102340
O5	O	1.096724	-0.006150	0.102327
O6	O	0.955380	0.135195	0.102315
O7	O	1.223853	0.120979	0.102317
Zn8	Zn	1.089614	0.128086	0.134808
Zn9	Zn	1.089630	0.128093	-0.134821
O10	O	1.082508	0.262323	0.102305
C11	C	0.921026	0.134531	-0.000008
C12	C	0.818645	0.132535	-0.000008
C13	C	0.735501	0.130913	-0.000013
C14	C	0.631192	0.128887	-0.000013
C15	C	0.548053	0.127278	-0.000013
C16	C	0.443738	0.125252	-0.000016
C17	C	1.096064	-0.040507	0.000005
C18	C	1.094068	-0.142887	0.000006
C19	C	1.092446	-0.226031	0.000003
C20	C	1.090419	-0.330340	-0.000007
C21	C	1.088811	-0.413479	-0.000014
C22	C	1.086785	-0.517795	-0.000022
C23	C	1.258218	0.121648	-0.000008
C24	C	1.360598	0.123644	-0.000015
C25	C	1.083180	0.296685	-0.000021
C26	C	1.085176	0.399066	-0.000030
N27	N	1.089611	0.128080	0.318822
N28	N	1.089641	0.128091	-0.318835
C29	C	1.089625	0.128091	0.569828
C30	C	1.089614	0.128088	0.430150
