data_functionalizedCrystal
_audit_creation_method	'MofGen! by Chris Wilmer'
_symmetry_space_group_name_H-M	'P1'
_symmetry_Int_Tables_number	1
_symmetry_cell_setting	triclinic
loop_
_symmetry_equiv_pos_as_xyz
  x,y,z
_cell_length_a	27.732048
_cell_length_b	27.732048
_cell_length_c	13.101039
_cell_angle_alpha	93.329410
_cell_angle_beta	86.675896
_cell_angle_gamma	82.642655
loop_
_atom_site_label
_atom_site_type_symbol
_atom_site_fract_x
_atom_site_fract_y
_atom_site_fract_z
O1	O	0.643602	0.054833	-0.085092
O2	O	0.893602	0.304833	0.164908
O3	O	1.143602	0.554833	0.414908
O4	O	1.393602	0.804833	0.664908
O5	O	0.502810	0.063577	-0.085125
O6	O	0.752810	0.313577	0.164875
O7	O	1.002810	0.563577	0.414875
O8	O	1.252810	0.813577	0.664875
O9	O	0.577578	-0.011191	-0.085088
O10	O	0.827578	0.238809	0.164912
O11	O	1.077578	0.488809	0.414912
O12	O	1.327578	0.738809	0.664912
O13	O	0.568834	0.129601	-0.085129
O14	O	0.818834	0.379601	0.164871
O15	O	1.068834	0.629601	0.414871
O16	O	1.318834	0.879601	0.664871
O17	O	0.572214	-0.005818	0.085339
O18	O	0.822214	0.244182	0.335339
O19	O	1.072214	0.494182	0.585339
O20	O	1.322214	0.744182	0.835339
O21	O	0.497445	0.068951	0.085302
O22	O	0.747445	0.318951	0.335302
O23	O	0.997445	0.568951	0.585302
O24	O	1.247445	0.818951	0.835302
O25	O	0.638238	0.060206	0.085335
O26	O	0.888238	0.310206	0.335335
O27	O	1.138238	0.560206	0.585335
O28	O	1.388238	0.810206	0.835335
Zn29	Zn	0.566990	0.065432	0.112378
Zn30	Zn	0.816990	0.315432	0.362378
Zn31	Zn	1.066990	0.565432	0.612378
Zn32	Zn	1.316990	0.815432	0.862378
Zn33	Zn	0.574058	0.058352	-0.112168
Zn34	Zn	0.824058	0.308352	0.137832
Zn35	Zn	1.074058	0.558352	0.387832
Zn36	Zn	1.324058	0.808352	0.637832
O37	O	0.563470	0.134975	0.085298
O38	O	0.813470	0.384975	0.335298
O39	O	1.063470	0.634975	0.585298
O40	O	1.313470	0.884975	0.835298
C41	C	0.482121	0.066080	0.000085
C42	C	0.732121	0.316080	0.250085
C43	C	0.982121	0.566080	0.500085
C44	C	1.232121	0.816080	0.750085
C45	C	0.428466	0.065527	0.000073
C46	C	0.678466	0.315527	0.250073
C47	C	0.928466	0.565527	0.500073
C48	C	1.178466	0.815527	0.750073
C49	C	0.089650	0.106232	0.000106
C50	C	0.339650	0.356232	0.250106
C51	C	0.589650	0.606232	0.500106
C52	C	0.839650	0.856232	0.750106
C53	C	-0.112010	0.104181	0.000115
C54	C	0.137990	0.354181	0.250115
C55	C	0.387990	0.604181	0.500115
C56	C	0.637990	0.854181	0.750115
O57	O	-0.143266	0.141403	0.000149
O58	O	0.106734	0.391403	0.250149
O59	O	0.356734	0.641403	0.500149
O60	O	0.606734	0.891403	0.750149
N61	N	-0.131134	0.059847	0.000127
N62	N	0.118866	0.309847	0.250127
N63	N	0.368866	0.559847	0.500127
N64	N	0.618866	0.809847	0.750127
C65	C	-0.099840	0.016021	0.000142
C66	C	0.150160	0.266021	0.250142
C67	C	0.400160	0.516021	0.500142
C68	C	0.650160	0.766021	0.750142
O69	O	-0.120733	-0.021735	0.000162
O70	O	0.129267	0.228265	0.250162
O71	O	0.379267	0.478265	0.500162
O72	O	0.629267	0.728265	0.750162
C73	C	0.101819	0.018073	0.000140
C74	C	0.351819	0.268073	0.250140
C75	C	0.601819	0.518073	0.500140
C76	C	0.851819	0.768073	0.750140
C77	C	0.120941	0.062410	0.000118
C78	C	0.370941	0.312410	0.250118
C79	C	0.620941	0.562410	0.500118
C80	C	0.870941	0.812410	0.750118
C81	C	0.108772	0.150566	0.000085
C82	C	0.358772	0.400566	0.250085
C83	C	0.608772	0.650566	0.500085
C84	C	0.858772	0.900566	0.750085
C85	C	0.159184	0.151078	0.000077
C86	C	0.409184	0.401078	0.250077
C87	C	0.659184	0.651078	0.500077
C88	C	0.909184	0.901078	0.750077
C89	C	0.190475	0.107256	0.000090
C90	C	0.440475	0.357256	0.250090
C91	C	0.690475	0.607256	0.500090
C92	C	0.940475	0.857256	0.750090
C93	C	0.171353	0.062922	0.000110
C94	C	0.421353	0.312922	0.250110
C95	C	0.671353	0.562922	0.500110
C96	C	0.921353	0.812922	0.750110
C97	C	0.133112	-0.025751	0.000162
C98	C	0.383112	0.224249	0.250162
C99	C	0.633112	0.474249	0.500162
C100	C	0.883112	0.724249	0.750162
C101	C	0.183529	-0.025235	0.000164
C102	C	0.433529	0.224765	0.250164
C103	C	0.683529	0.474765	0.500164
C104	C	0.933529	0.724765	0.750164
C105	C	0.202651	0.019103	0.000143
C106	C	0.452651	0.269103	0.250143
C107	C	0.702651	0.519103	0.500143
C108	C	0.952651	0.769103	0.750143
C109	C	0.253055	0.019612	0.000114
C110	C	0.503055	0.269612	0.250114
C111	C	0.753055	0.519612	0.500114
C112	C	1.003055	0.769612	0.750114
N113	N	0.272179	0.063947	0.000103
N114	N	0.522179	0.313947	0.250103
N115	N	0.772179	0.563947	0.500103
N116	N	1.022179	0.813947	0.750103
C117	C	0.240889	0.107769	0.000091
C118	C	0.490889	0.357769	0.250091
C119	C	0.740889	0.607769	0.500091
C120	C	0.990889	0.857769	0.750091
C121	C	-0.205714	0.014947	0.000141
C122	C	0.044286	0.264947	0.250141
C123	C	0.294286	0.514947	0.500141
C124	C	0.544286	0.764947	0.750141
C125	C	-0.256128	0.014434	0.000140
C126	C	-0.006128	0.264434	0.250140
C127	C	0.243872	0.514434	0.500140
C128	C	0.493872	0.764434	0.750140
C129	C	-0.268295	0.102595	0.000115
C130	C	-0.018295	0.352595	0.250115
C131	C	0.231705	0.602595	0.500115
C132	C	0.481705	0.852595	0.750115
C133	C	-0.217879	0.103107	0.000109
C134	C	0.032121	0.353107	0.250109
C135	C	0.282121	0.603107	0.500109
C136	C	0.532121	0.853107	0.750109
C137	C	-0.186590	0.059282	0.000130
C138	C	0.063410	0.309282	0.250130
C139	C	0.313410	0.559282	0.500130
C140	C	0.563410	0.809282	0.750130
C141	C	0.346759	0.108841	0.000073
C142	C	0.596759	0.358841	0.250073
C143	C	0.846759	0.608841	0.500073
C144	C	1.096759	0.858841	0.750073
C145	C	0.397176	0.109349	0.000061
C146	C	0.647176	0.359349	0.250061
C147	C	0.897176	0.609349	0.500061
C148	C	1.147176	0.859349	0.750061
C149	C	0.409338	0.021189	0.000091
C150	C	0.659338	0.271189	0.250091
C151	C	0.909338	0.521189	0.500091
C152	C	1.159338	0.771189	0.750091
C153	C	0.358925	0.020681	0.000098
C154	C	0.608925	0.270681	0.250098
C155	C	0.858925	0.520681	0.500098
C156	C	1.108925	0.770681	0.750098
C157	C	0.327636	0.064511	0.000092
C158	C	0.577636	0.314511	0.250092
C159	C	0.827636	0.564511	0.500092
C160	C	1.077636	0.814511	0.750092
O161	O	0.284340	-0.017589	0.000092
O162	O	0.534340	0.232411	0.250092
O163	O	0.784340	0.482411	0.500092
O164	O	1.034340	0.732411	0.750092
O165	O	0.261792	0.145521	0.000093
O166	O	0.511792	0.395521	0.250093
O167	O	0.761792	0.645521	0.500093
O168	O	1.011792	0.895521	0.750093
C169	C	0.039238	0.105720	0.000114
C170	C	0.289238	0.355720	0.250114
C171	C	0.539238	0.605720	0.500114
C172	C	0.789238	0.855720	0.750114
C173	C	0.020116	0.061386	0.000134
C174	C	0.270116	0.311386	0.250134
C175	C	0.520116	0.561386	0.500134
C176	C	0.770116	0.811386	0.750134
C177	C	0.051406	0.017564	0.000146
C178	C	0.301406	0.267564	0.250146
C179	C	0.551406	0.517564	0.500146
C180	C	0.801406	0.767564	0.750146
C181	C	-0.030298	0.060873	0.000133
C182	C	0.219702	0.310873	0.250133
C183	C	0.469702	0.560873	0.500133
C184	C	0.719702	0.810873	0.750133
C185	C	-0.061588	0.104695	0.000121
C186	C	0.188412	0.354695	0.250121
C187	C	0.438412	0.604695	0.500121
C188	C	0.688412	0.854695	0.750121
C189	C	-0.042464	0.149030	0.000109
C190	C	0.207536	0.399030	0.250109
C191	C	0.457536	0.649030	0.500109
C192	C	0.707536	0.899030	0.750109
C193	C	0.007948	0.149542	0.000101
C194	C	0.257948	0.399542	0.250101
C195	C	0.507948	0.649542	0.500101
C196	C	0.757948	0.899542	0.750101
C197	C	0.032282	-0.026770	0.000157
C198	C	0.282282	0.223230	0.250157
C199	C	0.532282	0.473230	0.500157
C200	C	0.782282	0.723230	0.750157
C201	C	-0.018130	-0.027279	0.000164
C202	C	0.231870	0.222721	0.250164
C203	C	0.481870	0.472721	0.500164
C204	C	0.731870	0.722721	0.750164
C205	C	-0.049421	0.016543	0.000152
C206	C	0.200579	0.266543	0.250152
C207	C	0.450579	0.516543	0.500152
C208	C	0.700579	0.766543	0.750152
C209	C	0.574712	-0.026511	0.000128
C210	C	0.824712	0.223489	0.250128
C211	C	1.074712	0.473489	0.500128
C212	C	1.324712	0.723489	0.750128
C213	C	0.574159	-0.080166	0.000137
C214	C	0.824159	0.169834	0.250137
C215	C	1.074159	0.419834	0.500137
C216	C	1.324159	0.669834	0.750137
C217	C	0.614864	-0.418982	0.000093
C218	C	0.864864	-0.168982	0.250093
C219	C	1.114864	0.081018	0.500093
C220	C	1.364864	0.331018	0.750093
C221	C	0.612814	-0.620642	0.000079
C222	C	0.862814	-0.370642	0.250079
C223	C	1.112814	-0.120642	0.500079
C224	C	1.362814	0.129358	0.750079
O225	O	0.650036	-0.651899	0.000042
O226	O	0.900036	-0.401899	0.250042
O227	O	1.150036	-0.151899	0.500042
O228	O	1.400036	0.098101	0.750042
N229	N	0.568479	-0.639766	0.000069
N230	N	0.818479	-0.389766	0.250069
N231	N	1.068479	-0.139766	0.500069
N232	N	1.318479	0.110234	0.750069
C233	C	0.524654	-0.608472	0.000057
C234	C	0.774654	-0.358472	0.250057
C235	C	1.024654	-0.108472	0.500057
C236	C	1.274654	0.141528	0.750057
O237	O	0.486898	-0.629366	0.000038
O238	O	0.736898	-0.379366	0.250038
O239	O	0.986898	-0.129366	0.500038
O240	O	1.236898	0.120634	0.750038
C241	C	0.526705	-0.406813	0.000064
C242	C	0.776705	-0.156813	0.250064
C243	C	1.026705	0.093187	0.500064
C244	C	1.276705	0.343187	0.750064
C245	C	0.571043	-0.387692	0.000084
C246	C	0.821043	-0.137692	0.250084
C247	C	1.071043	0.112308	0.500084
C248	C	1.321043	0.362308	0.750084
C249	C	0.659198	-0.399860	0.000112
C250	C	0.909198	-0.149860	0.250112
C251	C	1.159198	0.100140	0.500112
C252	C	1.409198	0.350140	0.750112
C253	C	0.659710	-0.349448	0.000121
C254	C	0.909710	-0.099448	0.250121
C255	C	1.159710	0.150552	0.500121
C256	C	1.409710	0.400552	0.750121
C257	C	0.615888	-0.318158	0.000112
C258	C	0.865888	-0.068158	0.250112
C259	C	1.115888	0.181842	0.500112
C260	C	1.365888	0.431842	0.750112
C261	C	0.571554	-0.337279	0.000093
C262	C	0.821554	-0.087279	0.250093
C263	C	1.071554	0.162721	0.500093
C264	C	1.321554	0.412721	0.750093
C265	C	0.482881	-0.375520	0.000045
C266	C	0.732881	-0.125520	0.250045
C267	C	0.982881	0.124480	0.500045
C268	C	1.232881	0.374480	0.750045
C269	C	0.483397	-0.325103	0.000044
C270	C	0.733397	-0.075103	0.250044
C271	C	0.983397	0.174897	0.500044
C272	C	1.233397	0.424897	0.750044
C273	C	0.527735	-0.305981	0.000064
C274	C	0.777735	-0.055981	0.250064
C275	C	1.027735	0.194019	0.500064
C276	C	1.277735	0.444019	0.750064
C277	C	0.528245	-0.255577	0.000093
C278	C	0.778245	-0.005577	0.250093
C279	C	1.028245	0.244423	0.500093
C280	C	1.278245	0.494423	0.750093
N281	N	0.572579	-0.236453	0.000103
N282	N	0.822579	0.013547	0.250103
N283	N	1.072579	0.263547	0.500103
N284	N	1.322579	0.513547	0.750103
C285	C	0.616401	-0.267743	0.000112
C286	C	0.866401	-0.017743	0.250112
C287	C	1.116401	0.232257	0.500112
C288	C	1.366401	0.482257	0.750112
C289	C	0.523580	-0.714346	0.000055
C290	C	0.773580	-0.464346	0.250055
C291	C	1.023580	-0.214346	0.500055
C292	C	1.273580	0.035654	0.750055
C293	C	0.523067	-0.764760	0.000055
C294	C	0.773067	-0.514760	0.250055
C295	C	1.023067	-0.264760	0.500055
C296	C	1.273067	-0.014760	0.750055
C297	C	0.611227	-0.776927	0.000075
C298	C	0.861227	-0.526927	0.250075
C299	C	1.111227	-0.276927	0.500075
C300	C	1.361227	-0.026927	0.750075
C301	C	0.611740	-0.726512	0.000082
C302	C	0.861740	-0.476512	0.250082
C303	C	1.111740	-0.226512	0.500082
C304	C	1.361740	0.023488	0.750082
C305	C	0.567915	-0.695222	0.000064
C306	C	0.817915	-0.445222	0.250064
C307	C	1.067915	-0.195222	0.500064
C308	C	1.317915	0.054778	0.750064
C309	C	0.617473	-0.161873	0.000132
C310	C	0.867473	0.088127	0.250132
C311	C	1.117473	0.338127	0.500132
C312	C	1.367473	0.588127	0.750132
C313	C	0.617981	-0.111456	0.000146
C314	C	0.867981	0.138544	0.250146
C315	C	1.117981	0.388544	0.500146
C316	C	1.367981	0.638544	0.750146
C317	C	0.529821	-0.099294	0.000121
C318	C	0.779821	0.150706	0.250121
C319	C	1.029821	0.400706	0.500121
C320	C	1.279821	0.650706	0.750121
C321	C	0.529313	-0.149707	0.000113
C322	C	0.779313	0.100293	0.250113
C323	C	1.029313	0.350293	0.500113
C324	C	1.279313	0.600293	0.750113
C325	C	0.573143	-0.180996	0.000115
C326	C	0.823143	0.069004	0.250115
C327	C	1.073143	0.319004	0.500115
C328	C	1.323143	0.569004	0.750115
O329	O	0.491043	-0.224292	0.000118
O330	O	0.741043	0.025708	0.250118
O331	O	0.991043	0.275708	0.500118
O332	O	1.241043	0.525708	0.750118
O333	O	0.654153	-0.246841	0.000108
O334	O	0.904153	0.003159	0.250108
O335	O	1.154153	0.253159	0.500108
O336	O	1.404153	0.503159	0.750108
C337	C	0.614352	-0.469394	0.000084
C338	C	0.864352	-0.219394	0.250084
C339	C	1.114352	0.030606	0.500084
C340	C	1.364352	0.280606	0.750084
C341	C	0.570019	-0.488516	0.000066
C342	C	0.820019	-0.238516	0.250066
C343	C	1.070019	0.011484	0.500066
C344	C	1.320019	0.261484	0.750066
C345	C	0.526197	-0.457226	0.000056
C346	C	0.776197	-0.207226	0.250056
C347	C	1.026197	0.042774	0.500056
C348	C	1.276197	0.292774	0.750056
C349	C	0.569506	-0.538931	0.000065
C350	C	0.819506	-0.288931	0.250065
C351	C	1.069506	-0.038931	0.500065
C352	C	1.319506	0.211069	0.750065
C353	C	0.613327	-0.570221	0.000075
C354	C	0.863327	-0.320221	0.250075
C355	C	1.113327	-0.070221	0.500075
C356	C	1.363327	0.179779	0.750075
C357	C	0.657662	-0.551097	0.000084
C358	C	0.907662	-0.301097	0.250084
C359	C	1.157662	-0.051097	0.500084
C360	C	1.407662	0.198903	0.750084
C361	C	0.658174	-0.500685	0.000093
C362	C	0.908174	-0.250685	0.250093
C363	C	1.158174	-0.000685	0.500093
C364	C	1.408174	0.249315	0.750093
C365	C	0.481862	-0.476350	0.000047
C366	C	0.731862	-0.226350	0.250047
C367	C	0.981862	0.023650	0.500047
C368	C	1.231862	0.273650	0.750047
C369	C	0.481353	-0.526763	0.000039
C370	C	0.731353	-0.276763	0.250039
C371	C	0.981353	-0.026763	0.500039
C372	C	1.231353	0.223237	0.750039
C373	C	0.525175	-0.558053	0.000048
C374	C	0.775175	-0.308053	0.250048
C375	C	1.025175	-0.058053	0.500048
C376	C	1.275175	0.191947	0.750048
C377	C	0.658927	0.057703	0.000123
C378	C	0.908927	0.307703	0.250123
C379	C	1.158927	0.557703	0.500123
C380	C	1.408927	0.807703	0.750123
C381	C	0.712582	0.058256	0.000128
C382	C	0.962582	0.308256	0.250128
C383	C	1.212582	0.558256	0.500128
C384	C	1.462582	0.808256	0.750128
C385	C	0.566336	0.150295	0.000079
C386	C	0.816336	0.400295	0.250079
C387	C	1.066336	0.650295	0.500079
C388	C	1.316336	0.900295	0.750079
C389	C	0.566889	0.203949	0.000064
C390	C	0.816889	0.453949	0.250064
C391	C	1.066889	0.703949	0.500064
C392	C	1.316889	0.953949	0.750064
N393	N	0.562170	0.070263	0.265624
N394	N	0.812170	0.320263	0.515624
N395	N	1.062170	0.570263	0.765624
N396	N	1.312170	0.820263	1.015624
N397	N	0.578882	0.053517	-0.265414
N398	N	0.828882	0.303517	-0.015414
N399	N	1.078882	0.553517	0.234586
N400	N	1.328882	0.803517	0.484586
C401	C	0.555611	0.076841	0.474663
C402	C	0.805611	0.326841	0.724663
C403	C	1.055611	0.576841	0.974663
C404	C	1.305611	0.826841	1.224663
C405	C	0.585439	0.046941	0.525553
C406	C	0.835439	0.296941	0.775553
C407	C	1.085439	0.546941	1.025553
C408	C	1.335439	0.796941	1.275553
C409	C	0.581790	0.050601	0.641870
C410	C	0.831790	0.300601	0.891870
C411	C	1.081790	0.550601	1.141870
C412	C	1.331790	0.800601	1.391870
C413	C	0.559260	0.073181	0.358336
C414	C	0.809260	0.323181	0.608336
C415	C	1.059260	0.573181	0.858336
C416	C	1.309260	0.823181	1.108336
H417	H	0.412742	0.145455	0.000043
H418	H	0.662742	0.395455	0.250043
H419	H	0.912742	0.645455	0.500043
H420	H	1.162742	0.895455	0.750043
H421	H	0.695815	-0.333885	0.000133
H422	H	0.945815	-0.083885	0.250133
H423	H	1.195815	0.166115	0.500133
H424	H	1.445815	0.416115	0.750133
C425	C	0.660514	-0.705484	0.000095
C426	C	0.910514	-0.455484	0.250095
C427	C	1.160514	-0.205484	0.500095
C428	C	1.410514	0.044516	0.750095
N429	N	0.697253	-0.689648	0.000101
N430	N	0.947253	-0.439648	0.250101
N431	N	1.197253	-0.189648	0.500101
N432	N	1.447253	0.060352	0.750101
C433	C	0.706950	-0.479659	0.000108
C434	C	0.956950	-0.229659	0.250108
C435	C	1.206950	0.020341	0.500108
C436	C	1.456950	0.270341	0.750108
N437	N	0.743690	-0.463825	0.000117
N438	N	0.993690	-0.213825	0.250117
N439	N	1.243690	0.036175	0.500117
N440	N	1.493690	0.286175	0.750117
H441	H	0.321288	0.144532	0.000072
H442	H	0.571288	0.394532	0.250072
H443	H	0.821288	0.644532	0.500072
H444	H	1.071288	0.894532	0.750072
H445	H	0.446176	-0.450878	0.000037
H446	H	0.696176	-0.200878	0.250037
H447	H	0.946176	0.049122	0.500037
H448	H	1.196176	0.299122	0.750037
H449	H	0.613715	0.018595	0.481765
H450	H	0.863715	0.268595	0.731765
H451	H	1.113715	0.518595	0.981765
H452	H	1.363715	0.768595	1.231765
C453	C	0.517413	0.115133	0.533816
C454	C	0.767413	0.365133	0.783816
C455	C	1.017413	0.615133	1.033816
C456	C	1.267413	0.865133	1.283816
N457	N	0.488642	0.143974	0.578382
N458	N	0.738642	0.393974	0.828382
N459	N	0.988642	0.643974	1.078382
N460	N	1.238642	0.893974	1.328382
H461	H	0.174748	0.187182	0.000059
H462	H	0.424748	0.437182	0.250059
H463	H	0.674748	0.687182	0.500059
H464	H	0.924748	0.937182	0.750059
H465	H	-0.293780	0.138276	0.000106
H466	H	-0.043780	0.388276	0.250106
H467	H	0.206220	0.638276	0.500106
H468	H	0.456220	0.888276	0.750106
H469	H	-0.033693	-0.063387	0.000174
H470	H	0.216307	0.186613	0.250174
H471	H	0.466307	0.436613	0.500174
H472	H	0.716307	0.686613	0.750174
C473	C	0.480540	-0.170740	0.000098
C474	C	0.730540	0.079260	0.250098
C475	C	0.980540	0.329260	0.500098
C476	C	1.230540	0.579260	0.750098
N477	N	0.443803	-0.186580	0.000075
N478	N	0.693803	0.063420	0.250075
N479	N	0.943803	0.313420	0.500075
N480	N	1.193803	0.563420	0.750075
C481	C	0.074360	0.198778	0.000076
C482	C	0.324360	0.448778	0.250076
C483	C	0.574360	0.698778	0.500076
C484	C	0.824360	0.948778	0.750076
N485	N	0.048443	0.235094	0.000062
N486	N	0.298443	0.485094	0.250062
N487	N	0.548443	0.735094	0.500062
N488	N	0.798443	0.985094	0.750062
H489	H	0.434824	-0.014489	0.000097
H490	H	0.684824	0.235511	0.250097
H491	H	0.934824	0.485511	0.500097
H492	H	1.184824	0.735511	0.750097
C493	C	0.705867	-0.585526	0.000092
C494	C	0.955867	-0.335526	0.250092
C495	C	1.205867	-0.085526	0.500092
C496	C	1.455867	0.164474	0.750092
N497	N	0.742172	-0.611461	0.000092
N498	N	0.992172	-0.361461	0.250092
N499	N	1.242172	-0.111461	0.500092
N500	N	1.492172	0.138539	0.750092
C501	C	0.217946	-0.073447	0.000183
C502	C	0.467946	0.176553	0.250183
C503	C	0.717946	0.426553	0.500183
C504	C	0.967946	0.676553	0.750183
N505	N	0.243867	-0.109760	0.000193
N506	N	0.493867	0.140240	0.250193
N507	N	0.743867	0.390240	0.500193
N508	N	0.993867	0.640240	0.750193
C509	C	0.474292	-0.785787	0.000046
C510	C	0.724292	-0.535787	0.250046
C511	C	0.974292	-0.285787	0.500046
C512	C	1.224292	-0.035787	0.750046
N513	N	0.437553	-0.801623	0.000033
N514	N	0.687553	-0.551623	0.250033
N515	N	0.937553	-0.301623	0.500033
N516	N	1.187553	-0.051623	0.750033
H517	H	-0.271691	-0.021670	0.000141
H518	H	-0.021691	0.228330	0.250141
H519	H	0.228309	0.478330	0.500141
H520	H	0.478309	0.728330	0.750141
C521	C	-0.196851	0.151881	0.000097
C522	C	0.053149	0.401881	0.250097
C523	C	0.303149	0.651881	0.500097
C524	C	0.553149	0.901881	0.750097
N525	N	-0.181016	0.188620	0.000092
N526	N	0.068984	0.438620	0.250092
N527	N	0.318984	0.688620	0.500092
N528	N	0.568984	0.938620	0.750092
H529	H	-0.180241	-0.020742	0.000158
H530	H	0.069759	0.229258	0.250158
H531	H	0.319759	0.479258	0.500158
H532	H	0.569759	0.729258	0.750158
H533	H	0.117553	-0.061856	0.000181
H534	H	0.367553	0.188144	0.250181
H535	H	0.617553	0.438144	0.500181
H536	H	0.867553	0.688144	0.750181
C537	C	0.066696	-0.074981	0.000166
C538	C	0.316696	0.175019	0.250166
C539	C	0.566696	0.425019	0.500166
C540	C	0.816696	0.675019	0.750166
N541	N	0.092614	-0.111297	0.000166
N542	N	0.342614	0.138703	0.250166
N543	N	0.592614	0.388703	0.500166
N544	N	0.842614	0.638703	0.750166
H545	H	0.343357	-0.015423	0.000100
H546	H	0.593357	0.234577	0.250100
H547	H	0.843357	0.484577	0.500100
H548	H	1.093357	0.734577	0.750100
H549	H	0.487890	-0.688874	0.000041
H550	H	0.737890	-0.438874	0.250041
H551	H	0.987890	-0.188874	0.500041
H552	H	1.237890	0.061126	0.750041
H553	H	0.023511	0.185646	0.000085
H554	H	0.273511	0.435646	0.250085
H555	H	0.523511	0.685646	0.500085
H556	H	0.773511	0.935646	0.750085
C557	C	-0.076894	0.197234	0.000100
C558	C	0.173106	0.447234	0.250100
C559	C	0.423106	0.697234	0.500100
C560	C	0.673106	0.947234	0.750100
N561	N	-0.102828	0.233540	0.000100
N562	N	0.147172	0.483540	0.250100
N563	N	0.397172	0.733540	0.500100
N564	N	0.647172	0.983540	0.750100
C565	C	0.665688	-0.196284	0.000144
C566	C	0.915688	0.053716	0.250144
C567	C	1.165688	0.303716	0.500144
C568	C	1.415688	0.553716	0.750144
N569	N	0.702004	-0.222202	0.000162
N570	N	0.952004	0.027798	0.250162
N571	N	1.202004	0.277798	0.500162
N572	N	1.452004	0.527798	0.750162
H573	H	0.654088	-0.095890	0.000164
H574	H	0.904088	0.154110	0.250164
H575	H	1.154088	0.404110	0.500164
H576	H	1.404088	0.654110	0.750164
H577	H	0.694886	-0.425333	0.000116
H578	H	0.944886	-0.175333	0.250116
H579	H	1.194886	0.074667	0.500116
H580	H	1.444886	0.324667	0.750116
C581	C	0.435185	-0.290686	0.000028
C582	C	0.685185	-0.040686	0.250028
C583	C	0.935185	0.209314	0.500028
C584	C	1.185185	0.459314	0.750028
N585	N	0.398872	-0.264765	0.000020
N586	N	0.648872	-0.014765	0.250020
N587	N	0.898872	0.235235	0.500020
N588	N	1.148872	0.485235	0.750020
H589	H	0.646909	-0.802413	0.000083
H590	H	0.896909	-0.552413	0.250083
H591	H	1.146909	-0.302413	0.500083
H592	H	1.396909	-0.052413	0.750083
C593	C	0.434105	-0.396542	0.000016
C594	C	0.684105	-0.146542	0.250016
C595	C	0.934105	0.103458	0.500016
C596	C	1.184105	0.353458	0.750016
N597	N	0.397365	-0.412374	-0.000009
N598	N	0.647365	-0.162374	0.249991
N599	N	0.897365	0.087626	0.499991
N600	N	1.147365	0.337626	0.749991
H601	H	0.494143	-0.073808	0.000117
H602	H	0.744143	0.176192	0.250117
H603	H	0.994143	0.426192	0.500117
H604	H	1.244143	0.676192	0.750117
H605	H	0.445245	-0.542326	0.000032
H606	H	0.695245	-0.292326	0.250032
H607	H	0.945245	-0.042326	0.500032
H608	H	1.195245	0.207674	0.750032
