data_functionalizedCrystal
_audit_creation_method	'MofGen! by Chris Wilmer'
_symmetry_space_group_name_H-M	'P1'
_symmetry_Int_Tables_number	1
_symmetry_cell_setting	triclinic
loop_
_symmetry_equiv_pos_as_xyz
  x,y,z
_cell_length_a	16.959455
_cell_length_b	19.077078
_cell_length_c	19.077271
_cell_angle_alpha	89.873862
_cell_angle_beta	92.277332
_cell_angle_gamma	92.325821
loop_
_atom_site_label
_atom_site_type_symbol
_atom_site_fract_x
_atom_site_fract_y
_atom_site_fract_z
Zn1	Zn	1.178010	-0.263847	-0.408622
Zn2	Zn	1.177481	-0.386080	-0.295823
Zn3	Zn	1.050921	-0.268584	-0.291118
Zn4	Zn	1.040272	-0.381315	-0.413280
O5	O	1.111671	-0.324957	-0.352211
O6	O	1.288549	-0.280073	-0.393679
O7	O	1.164928	-0.374471	-0.196868
O8	O	1.072458	-0.169622	-0.302787
O9	O	1.288160	-0.369878	-0.310806
O10	O	1.165829	-0.166142	-0.389116
O11	O	1.071945	-0.288147	-0.193411
O12	O	0.938899	-0.283526	-0.307304
O13	O	1.054307	-0.361756	-0.510993
O14	O	0.931075	-0.366349	-0.397055
O15	O	1.155503	-0.275453	-0.507571
O16	O	1.154601	-0.483781	-0.315323
O17	O	1.053794	-0.480281	-0.401617
C18	C	1.103006	-0.507527	-0.359501
C19	C	1.099370	-0.585631	-0.362644
C20	C	0.906307	-0.324935	-0.352175
C21	C	0.818450	-0.324942	-0.352176
C22	C	1.073290	-1.025076	-0.385208
C23	C	1.076706	-0.951689	-0.382247
C24	C	1.130936	-0.916797	-0.335870
C25	C	1.181757	-0.955294	-0.292456
C26	C	1.178344	-1.028679	-0.295420
C27	C	1.146779	-0.697513	-0.322194
C28	C	1.150186	-0.624123	-0.319231
C29	C	1.045136	-0.620523	-0.409024
C30	C	1.041724	-0.693910	-0.411981
C31	C	1.092549	-0.732400	-0.368569
N32	N	1.134427	-0.841784	-0.332842
N33	N	1.089060	-0.807411	-0.371602
C34	C	0.446762	-0.371674	-0.309034
C35	C	0.447176	-0.278294	-0.395475
C36	C	0.529723	-0.278283	-0.395458
C37	C	0.570793	-0.324969	-0.352229
C38	C	0.529317	-0.371666	-0.309017
C39	C	0.571205	-0.231592	-0.438673
C40	C	0.653757	-0.231580	-0.438658
C41	C	0.694830	-0.278263	-0.395425
C42	C	0.653348	-0.324961	-0.352211
C43	C	0.694419	-0.371647	-0.308982
C44	C	0.652939	-0.418342	-0.265764
C45	C	0.570389	-0.418349	-0.265784
C46	C	0.777379	-0.278256	-0.395405
C47	C	0.776973	-0.371639	-0.308965
C48	C	1.317836	-0.324979	-0.352248
C49	C	1.405692	-0.324988	-0.352263
C50	C	1.103776	-0.317545	-0.535491
C51	C	1.100412	-0.314386	-0.613594
C52	C	1.120390	-0.141672	-0.344907
C53	C	1.124106	-0.063568	-0.341795
C54	C	1.076281	-0.291788	-1.053040
C55	C	1.079446	-0.294753	-0.979654
C56	C	1.129435	-0.341184	-0.944760
C57	C	1.176268	-0.384647	-0.983256
C58	C	1.173107	-0.381678	-1.056640
C59	C	1.144084	-0.354880	-0.725475
C60	C	1.147240	-0.357847	-0.652085
C61	C	1.050418	-0.267953	-0.648488
C62	C	1.047258	-0.264990	-0.721875
C63	C	1.094094	-0.308451	-0.760364
N64	N	1.132669	-0.344217	-0.869747
N65	N	1.090864	-0.305413	-0.835375
C66	C	1.119582	-0.332289	-0.169641
C67	C	1.123109	-0.335250	-0.091531
H68	H	1.029131	-1.053480	-0.422973
H69	H	0.810408	-0.409655	-0.273760
H70	H	0.811148	-0.240239	-0.430594
O71	O	0.406518	-0.416963	-0.266953
C72	C	0.430423	-0.404339	-0.196324
H73	H	0.455918	-0.348334	-0.190622
H74	H	0.477347	-0.442724	-0.179393
C75	C	0.327398	-0.483137	-0.156753
C76	C	0.358704	-0.414349	-0.149748
H77	H	0.283160	-0.489314	-0.128021
H78	H	0.311294	-0.491644	-0.204336
H79	H	0.366508	-0.515117	-0.142644
H80	H	0.319598	-0.382371	-0.163865
H81	H	0.374800	-0.405836	-0.102165
O82	O	0.530141	-0.463640	-0.223707
C83	C	0.554033	-0.451020	-0.153075
H84	H	0.579525	-0.395015	-0.147366
H85	H	0.600954	-0.489405	-0.136139
C86	C	0.451001	-0.529822	-0.113523
C87	C	0.482305	-0.461033	-0.106510
H88	H	0.406757	-0.536002	-0.084798
H89	H	0.434906	-0.538327	-0.161109
H90	H	0.490109	-0.561802	-0.099410
H91	H	0.443200	-0.429055	-0.120631
H92	H	0.498392	-0.452524	-0.058925
H93	H	0.686389	-0.456358	-0.230571
O94	O	1.195852	-0.402859	-0.618111
C95	C	1.250647	-0.364577	-0.574085
H96	H	1.225778	-0.311767	-0.560961
H97	H	1.308374	-0.355718	-0.602067
C98	C	1.296662	-0.470929	-0.522042
C99	C	1.266114	-0.406069	-0.505918
H100	H	1.306206	-0.496524	-0.479995
H101	H	1.259748	-0.496721	-0.551705
H102	H	1.344764	-0.463538	-0.545362
H103	H	1.218008	-0.413462	-0.482607
H104	H	1.303021	-0.380280	-0.476250
H105	H	1.035328	-0.920349	-0.417597
O106	O	1.227597	-1.066154	-0.253223
C107	C	1.182622	-1.110492	-0.209504
H108	H	1.121117	-1.120514	-0.234675
H109	H	1.177547	-1.084358	-0.156278
C110	C	1.298971	-1.168378	-0.168734
C111	C	1.223432	-1.180693	-0.199651
H112	H	1.324146	-1.211681	-0.162653
H113	H	1.329273	-1.138506	-0.198185
H114	H	1.294732	-1.146598	-0.124381
H115	H	1.227673	-1.202464	-0.244006
H116	H	1.193132	-1.210571	-0.170207
H117	H	1.012288	-0.232569	-0.617142
H118	H	1.188161	-0.728843	-0.286842
H119	H	1.182219	-0.390270	-0.756805
H120	H	0.413731	-0.240288	-0.430674
O121	O	1.027703	-0.246624	-1.086822
C122	C	0.987037	-0.208912	-1.037109
H123	H	1.021783	-0.208601	-0.984707
H124	H	0.926116	-0.234950	-1.030318
C125	C	0.935298	-0.133344	-1.127125
C126	C	0.977977	-0.132958	-1.062766
H127	H	0.929706	-0.086493	-1.142952
H128	H	0.962693	-0.158753	-1.160618
H129	H	0.884536	-0.155047	-1.121457
H130	H	1.028742	-0.111264	-1.068436
H131	H	0.950591	-0.107544	-1.029274
O132	O	1.033912	-0.252638	-0.942193
C133	C	0.982771	-0.294355	-0.901342
H134	H	1.008591	-0.348054	-0.892471
H135	H	0.922612	-0.300930	-0.929924
C136	C	0.941584	-0.192552	-0.840990
C137	C	0.973300	-0.258504	-0.830089
H138	H	0.935738	-0.170437	-0.797038
H139	H	0.976036	-0.164446	-0.868513
H140	H	0.891455	-0.198040	-0.864809
H141	H	1.023433	-0.253015	-0.806277
H142	H	0.938856	-0.286609	-0.802559
H143	H	1.225916	-0.926880	-0.254698
H144	H	0.537759	-0.193587	-0.473873
O145	O	1.224760	-0.429731	-0.949252
C146	C	1.217523	-0.423023	-0.876226
H147	H	1.158051	-0.400405	-0.865275
H148	H	1.267086	-0.386453	-0.853916
C149	C	1.296045	-0.523428	-0.854838
C150	C	1.222998	-0.495654	-0.841387
H151	H	1.299426	-0.568228	-0.833346
H152	H	1.300924	-0.527946	-0.904036
H153	H	1.337340	-0.492946	-0.836246
H154	H	1.181705	-0.526131	-0.859986
H155	H	1.218113	-0.491142	-0.792190
H156	H	0.997556	-0.722314	-0.449738
O157	O	0.693927	-0.186151	-0.480653
C158	C	0.639973	-0.144960	-0.518824
H159	H	0.582469	-0.143658	-0.489963
H160	H	0.627707	-0.168618	-0.573184
C161	C	0.745913	-0.071368	-0.561524
C162	C	0.675287	-0.069763	-0.526073
H163	H	0.767697	-0.024984	-0.565999
H164	H	0.782263	-0.099120	-0.535810
H165	H	0.735681	-0.091086	-0.606820
H166	H	0.685522	-0.050054	-0.480775
H167	H	0.638939	-0.042006	-0.551780
O168	O	0.995664	-0.583169	-0.451125
C169	C	0.916722	-0.601805	-0.436447
H170	H	0.914251	-0.624276	-0.381123
H171	H	0.892432	-0.642878	-0.475822
C172	C	0.869677	-0.508722	-0.509911
C173	C	0.866641	-0.536317	-0.441958
H174	H	0.838783	-0.468328	-0.513313
H175	H	0.922861	-0.496168	-0.519802
H176	H	0.849437	-0.542956	-0.542715
H177	H	0.886890	-0.502086	-0.409156
H178	H	0.813459	-0.548864	-0.432061
H179	H	1.006548	-0.227185	-0.750281
H180	H	1.211241	-0.417068	-1.087979
H181	H	1.194349	-0.595717	-0.281463
