data_functionalizedCrystal
_audit_creation_method	'MofGen! by Chris Wilmer'
_symmetry_space_group_name_H-M	'P1'
_symmetry_Int_Tables_number	1
_symmetry_cell_setting	triclinic
loop_
_symmetry_equiv_pos_as_xyz
  x,y,z
_cell_length_a	33.592126
_cell_length_b	33.591377
_cell_length_c	33.588093
_cell_angle_alpha	60.004089
_cell_angle_beta	60.008299
_cell_angle_gamma	59.994549
loop_
_atom_site_label
_atom_site_type_symbol
_atom_site_fract_x
_atom_site_fract_y
_atom_site_fract_z
O1	O	0.055297	-0.581666	0.486338
O2	O	0.555297	-0.081666	0.986338
O3	O	0.020882	-0.452873	0.391864
O4	O	0.520882	0.047127	0.891864
O5	O	0.102445	-0.534352	0.391775
O6	O	0.602445	-0.034352	0.891775
O7	O	-0.026266	-0.500187	0.486427
O8	O	0.473734	-0.000187	0.986427
O9	O	0.129510	-0.507292	0.418747
O10	O	0.629510	-0.007292	0.918747
O11	O	0.047947	-0.425814	0.418835
O12	O	0.547947	0.074186	0.918835
O13	O	0.082362	-0.554606	0.513309
O14	O	0.582362	-0.054606	1.013309
Cu15	Cu	0.067626	-0.487739	0.468535
Cu16	Cu	0.567626	0.012261	0.968535
Cu17	Cu	0.035618	-0.519740	0.436638
Cu18	Cu	0.535618	-0.019740	0.936638
O19	O	0.000799	-0.473128	0.513398
O20	O	0.500799	0.026872	1.013398
N21	N	0.090139	-0.465235	0.490972
N22	N	0.590139	0.034765	0.990972
N23	N	0.013110	-0.542249	0.414202
N24	N	0.513110	-0.042249	0.914202
C25	C	0.124394	-0.431229	0.734914
C26	C	0.624394	0.068771	1.234914
C27	C	0.334265	-0.431145	0.524799
C28	C	0.834265	0.068855	1.024799
C29	C	0.124204	-0.431200	0.524965
C30	C	0.624204	0.068800	1.024965
C31	C	0.124184	-0.221175	0.524955
C32	C	0.624184	0.278825	1.024955
C33	C	0.158017	-0.322536	0.558710
C34	C	0.658017	0.177464	1.058710
C35	C	0.158027	-0.397406	0.558711
C36	C	0.658027	0.102594	1.058711
C37	C	0.176763	-0.378688	0.577408
C38	C	0.676763	0.121312	1.077408
C39	C	0.258412	-0.364594	0.534386
C40	C	0.758412	0.135406	1.034386
C41	C	0.309454	-0.381596	0.517340
C42	C	0.809454	0.118404	1.017340
C43	C	0.309485	-0.464188	0.548836
C44	C	0.809485	0.035812	1.048836
C45	C	0.258444	-0.447186	0.565883
C46	C	0.758444	0.052814	1.065883
C47	C	0.170304	-0.297002	0.508532
C48	C	0.670304	0.202998	1.008532
C49	C	0.153260	-0.245956	0.491537
C50	C	0.653260	0.254044	0.991537
C51	C	0.111648	-0.245983	0.574901
C52	C	0.611648	0.254017	1.074901
C53	C	0.128691	-0.297029	0.591896
C54	C	0.628691	0.202971	1.091896
C55	C	0.107841	-0.385091	0.571080
C56	C	0.607841	0.114909	1.071080
C57	C	0.090813	-0.402108	0.554078
C58	C	0.590813	0.097892	1.054078
C59	C	0.174153	-0.443755	0.512351
C60	C	0.674153	0.056245	1.012351
C61	C	0.191183	-0.426739	0.529347
C62	C	0.691183	0.073261	1.029347
C63	C	0.107923	-0.385106	0.659111
C64	C	0.607923	0.114894	1.159111
C65	C	0.090955	-0.402138	0.710156
C66	C	0.590955	0.097862	1.210156
C67	C	0.174335	-0.443795	0.710087
C68	C	0.674335	0.056205	1.210087
C69	C	0.191302	-0.426764	0.659041
C70	C	0.691302	0.073236	1.159041
C71	C	0.158095	-0.397418	0.633555
C72	C	0.658095	0.102582	1.133555
C73	C	0.232909	-0.397388	0.558656
C74	C	0.732909	0.102612	1.058656
C75	C	0.105069	-0.449619	0.791057
C76	C	0.605069	0.050381	1.291057
C77	C	0.390406	-0.449193	0.505789
C78	C	0.890406	0.050807	1.005789
C79	C	0.104813	-0.449599	0.506607
C80	C	0.604813	0.050401	1.006607
C81	C	0.105125	-0.165028	0.506915
C82	C	0.605125	0.334972	1.006915
C83	C	-0.020560	-0.576246	0.169890
C84	C	0.479440	-0.076246	0.669890
C85	C	-0.020889	-0.786183	0.379970
C86	C	0.479111	-0.286183	0.879970
C87	C	-0.020859	-0.576235	0.380063
C88	C	0.479141	-0.076235	0.880063
C89	C	-0.230772	-0.576015	0.379658
C90	C	0.269228	-0.076015	0.879658
C91	C	-0.129417	-0.609898	0.346025
C92	C	0.370583	-0.109898	0.846025
C93	C	-0.054587	-0.609979	0.346172
C94	C	0.445413	-0.109979	0.846172
C95	C	-0.073269	-0.628671	0.327396
C96	C	0.426731	-0.128671	0.827396
C97	C	-0.087401	-0.710299	0.370335
C98	C	0.412599	-0.210299	0.870335
C99	C	-0.070424	-0.761345	0.387369
C100	C	0.429576	-0.261345	0.887369
C101	C	0.012165	-0.761428	0.356003
C102	C	0.512165	-0.261428	0.856003
C103	C	-0.004813	-0.710383	0.338967
C104	C	0.495187	-0.210383	0.838967
C105	C	-0.155001	-0.622196	0.396191
C106	C	0.344999	-0.122196	0.896191
C107	C	-0.206043	-0.605128	0.413125
C108	C	0.293957	-0.105128	0.913125
C109	C	-0.205914	-0.563467	0.329724
C110	C	0.294086	-0.063467	0.829724
C111	C	-0.154872	-0.580535	0.312790
C112	C	0.345128	-0.080535	0.812790
C113	C	-0.066886	-0.559797	0.333828
C114	C	0.433114	-0.059797	0.833828
C115	C	-0.049903	-0.542809	0.350903
C116	C	0.450097	-0.042809	0.850903
C117	C	-0.008321	-0.626180	0.392654
C118	C	0.491679	-0.126180	0.892654
C119	C	-0.025304	-0.643170	0.375585
C120	C	0.474696	-0.143170	0.875585
C121	C	-0.066758	-0.559805	0.245702
C122	C	0.433242	-0.059805	0.745702
C123	C	-0.049671	-0.542819	0.194658
C124	C	0.450329	-0.042819	0.694658
C125	C	-0.008026	-0.626194	0.194706
C126	C	0.491974	-0.126194	0.694706
C127	C	-0.025111	-0.643179	0.245752
C128	C	0.474889	-0.143179	0.745752
C129	C	-0.054479	-0.609983	0.271248
C130	C	0.445521	-0.109983	0.771248
C131	C	-0.054597	-0.684821	0.346135
C132	C	0.445403	-0.184821	0.846135
C133	C	-0.002109	-0.556901	0.113746
C134	C	0.497891	-0.056901	0.613746
C135	C	-0.002869	-0.842328	0.398966
C136	C	0.497131	-0.342328	0.898966
C137	C	-0.002496	-0.556887	0.398501
C138	C	0.497504	-0.056887	0.898501
C139	C	-0.286914	-0.556929	0.397631
C140	C	0.213086	-0.056929	0.897631
N141	N	0.436349	-0.465146	0.490703
N142	N	0.936349	0.034854	0.990703
O143	O	0.592194	-0.469605	0.374236
O144	O	1.092194	0.030395	0.874236
O145	O	0.592389	-0.564393	0.502890
O146	O	1.092389	-0.064393	1.002890
O147	O	0.592305	-0.564176	0.421300
O148	O	1.092305	-0.064176	0.921300
O149	O	0.592277	-0.469822	0.455826
O150	O	1.092277	0.030178	0.955826
O151	O	0.511216	-0.537214	0.448415
O152	O	1.011216	-0.037214	0.948415
O153	O	0.511300	-0.537431	0.530004
O154	O	1.011300	-0.037431	1.030004
O155	O	0.511104	-0.442643	0.401350
O156	O	1.011104	0.057357	0.901350
Cu157	Cu	0.503798	-0.487575	0.468153
Cu158	Cu	1.003798	0.012425	0.968153
Cu159	Cu	0.599695	-0.519461	0.436087
Cu160	Cu	1.099695	-0.019461	0.936087
O161	O	0.511188	-0.442860	0.482940
O162	O	1.011188	0.057140	0.982940
N163	N	0.667145	-0.541890	0.413532
N164	N	1.167145	-0.041890	0.913532
N165	N	0.090108	-0.119085	0.490958
N166	N	0.590108	0.380915	0.990958
O167	O	-0.026275	0.036848	0.486394
O168	O	0.473725	0.536848	0.986394
O169	O	0.102381	0.036888	0.391584
O170	O	0.602381	0.536888	0.891584
O171	O	0.020751	0.036852	0.391854
O172	O	0.520751	0.536852	0.891854
O173	O	0.055356	0.036884	0.486124
O174	O	0.555356	0.536884	0.986124
O175	O	0.047821	-0.044242	0.418876
O176	O	0.547821	0.455758	0.918876
O177	O	0.129452	-0.044207	0.418606
O178	O	0.629452	0.455793	0.918606
O179	O	0.000796	-0.044246	0.513417
O180	O	0.500796	0.455754	1.013417
Cu181	Cu	0.067596	-0.051631	0.468479
Cu182	Cu	0.567596	0.448369	0.968479
Cu183	Cu	0.035582	0.044273	0.436522
Cu184	Cu	0.535582	0.544273	0.936522
O185	O	0.082426	-0.044211	0.513146
O186	O	0.582426	0.455789	1.013146
N187	N	0.013063	0.111726	0.414043
N188	N	0.513063	0.611726	0.914043
N189	N	0.090453	-0.465282	0.837001
N190	N	0.590453	0.034718	1.337001
O191	O	0.085913	-0.581648	0.992925
O192	O	0.585913	-0.081648	1.492925
O193	O	-0.008857	-0.452947	0.992970
O194	O	0.491143	0.047053	1.492970
O195	O	-0.008635	-0.534562	0.992946
O196	O	0.491365	-0.034562	1.492946
O197	O	0.085691	-0.500033	0.992949
O198	O	0.585691	-0.000033	1.492949
O199	O	0.018365	-0.507512	0.911855
O200	O	0.518365	-0.007512	1.411855
O201	O	0.018143	-0.425898	0.911878
O202	O	0.518143	0.074102	1.411878
O203	O	0.112912	-0.554598	0.911834
O204	O	0.612912	-0.054598	1.411834
Cu205	Cu	0.067993	-0.487778	0.904452
Cu206	Cu	0.567993	0.012222	1.404452
Cu207	Cu	0.036063	-0.519767	1.000352
Cu208	Cu	0.536063	-0.019767	1.500352
O209	O	0.112691	-0.472984	0.911857
O210	O	0.612691	0.027016	1.411857
N211	N	0.013602	-0.542269	1.067803
N212	N	0.513602	-0.042269	1.567803
C213	C	0.031188	-0.423114	0.392334
C214	C	0.531188	0.076886	0.892334
C215	C	0.132194	-0.524016	0.392223
C216	C	0.632194	-0.024016	0.892223
C217	C	0.072056	-0.584366	0.512840
C218	C	0.572056	-0.084366	1.012840
C219	C	-0.028950	-0.483464	0.512950
C220	C	0.471050	0.016536	1.012950
C221	C	0.551868	-0.563965	0.532655
C222	C	1.051868	-0.063965	1.032655
C223	C	0.551766	-0.563697	0.431617
C224	C	1.051766	-0.063697	0.931617
C225	C	0.551623	-0.443070	0.371586
C226	C	1.051623	0.056930	0.871586
C227	C	0.551728	-0.443339	0.472623
C228	C	1.051728	0.056661	0.972623
C229	C	0.132090	-0.003555	0.392006
C230	C	0.632090	0.496445	0.892006
C231	C	0.031035	-0.003698	0.392374
C232	C	0.531035	0.496302	0.892374
C233	C	-0.028947	-0.003703	0.512961
C234	C	0.471053	0.496297	1.012961
C235	C	0.072143	-0.003661	0.512626
C236	C	0.572143	0.496339	1.012626
C237	C	-0.008408	-0.423209	0.952430
C238	C	0.491592	0.076791	1.452430
C239	C	-0.008128	-0.524272	0.952385
C240	C	0.491872	-0.024272	1.452385
C241	C	0.112464	-0.584336	0.952374
C242	C	0.612464	-0.084336	1.452374
C243	C	0.112190	-0.483267	0.952401
C244	C	0.612190	0.016733	1.452401
H245	H	0.050098	-0.392105	0.730957
H246	H	0.550098	0.107895	1.230957
H247	H	0.141823	-0.475877	0.952395
H248	H	0.641823	0.024123	1.452395
H249	H	0.023834	-0.386116	0.362662
H250	H	0.523834	0.113884	0.862662
O251	O	0.176119	-0.003337	0.356468
O252	O	0.676119	0.496663	0.856468
C253	C	0.213068	-0.045240	0.372925
C254	C	0.713068	0.454760	0.872925
H255	H	0.199802	-0.059404	0.414484
H256	H	0.699802	0.440596	0.914484
H257	H	0.222303	-0.074604	0.358970
H258	H	0.722303	0.425396	0.858970
C259	C	0.275165	-0.014819	0.302569
C260	C	0.775165	0.485181	0.802569
C261	C	0.258873	-0.032212	0.353612
C262	C	0.758873	0.467788	0.853612
H263	H	0.303421	-0.006784	0.290654
H264	H	0.803421	0.493216	0.790654
H265	H	0.250272	0.013411	0.291480
H266	H	0.750272	0.513411	0.791480
H267	H	0.282858	-0.039292	0.290946
H268	H	0.782858	0.460708	0.790946
H269	H	0.251175	-0.007737	0.365234
H270	H	0.751175	0.492263	0.865234
H271	H	0.283765	-0.060438	0.364702
H272	H	0.783765	0.439562	0.864702
O273	O	-0.043450	-0.533148	0.952408
O274	O	0.456550	-0.033148	1.452408
C275	C	-0.054661	-0.572630	0.994391
C276	C	0.445339	-0.072630	1.494391
H277	H	-0.022441	-0.595983	1.008410
H278	H	0.477559	-0.095983	1.508410
H279	H	-0.088167	-0.558178	1.023800
H280	H	0.411833	-0.058178	1.523800
C281	C	-0.104744	-0.575053	0.964367
C282	C	0.395256	-0.075053	1.464367
C283	C	-0.065169	-0.603737	0.981583
C284	C	0.434831	-0.103737	1.481583
H285	H	-0.111228	-0.594241	0.956468
H286	H	0.388772	-0.094241	1.456468
H287	H	-0.097193	-0.548452	0.936083
H288	H	0.402807	-0.048452	1.436083
H289	H	-0.132661	-0.563012	0.988877
H290	H	0.367339	-0.063012	1.488877
H291	H	-0.037252	-0.615773	0.957071
H292	H	0.462748	-0.115773	1.457071
H293	H	-0.072716	-0.630341	1.009863
H294	H	0.427284	-0.130341	1.509863
H295	H	0.142219	-0.621297	0.952354
H296	H	0.642219	-0.121297	1.452354
O297	O	0.022187	-0.003625	0.357000
O298	O	0.522187	0.496375	0.857000
C299	C	0.027579	0.038370	0.315874
C300	C	0.527579	0.538370	0.815874
H301	H	0.022306	0.067734	0.327529
H302	H	0.522306	0.567734	0.827529
H303	H	0.065638	0.028882	0.288233
H304	H	0.565638	0.528882	0.788233
C305	C	-0.004341	0.021327	0.278232
C306	C	0.495659	0.521327	0.778232
C307	C	-0.010822	0.057394	0.292547
C308	C	0.489178	0.557394	0.792547
H309	H	-0.028027	0.033061	0.263840
H310	H	0.471973	0.533061	0.763840
H311	H	-0.007972	-0.006967	0.305938
H312	H	0.492028	0.493033	0.805938
H313	H	0.027376	0.013423	0.255200
H314	H	0.527376	0.513423	0.755200
H315	H	-0.042536	0.065292	0.315582
H316	H	0.457464	0.565292	0.815582
H317	H	-0.007197	0.085690	0.264844
H318	H	0.492803	0.585690	0.764844
H319	H	-0.134040	-0.570516	0.271939
H320	H	0.365960	-0.070516	0.771939
O321	O	0.075597	-0.356622	0.634430
O322	O	0.575597	0.143378	1.134430
C323	C	0.027675	-0.349394	0.667932
C324	C	0.527675	0.150606	1.167932
H325	H	0.027802	-0.380175	0.704308
H326	H	0.527802	0.119825	1.204308
H327	H	0.013050	-0.313034	0.673369
H328	H	0.513050	0.186966	1.173369
C329	C	-0.005246	-0.311231	0.603367
C330	C	0.494754	0.188769	1.103367
C331	C	-0.005090	-0.349038	0.648044
C332	C	0.494910	0.150962	1.148044
H333	H	-0.025458	-0.311009	0.591099
H334	H	0.474542	0.188991	1.091099
H335	H	0.027040	-0.316098	0.580796
H336	H	0.527040	0.183902	1.080796
H337	H	-0.017432	-0.280934	0.607904
H338	H	0.482568	0.219066	1.107904
H339	H	0.007101	-0.379334	0.643505
H340	H	0.507101	0.120666	1.143505
H341	H	-0.037375	-0.344176	0.670614
H342	H	0.462625	0.155824	1.170614
O343	O	0.080819	-0.628539	0.548197
O344	O	0.580819	-0.128539	1.048197
C345	C	0.092280	-0.665260	0.531458
C346	C	0.592280	-0.165260	1.031458
H347	H	0.076560	-0.648627	0.501171
H348	H	0.576560	-0.148627	1.001171
H349	H	0.133569	-0.682399	0.516784
H350	H	0.633569	-0.182399	1.016784
C351	C	0.089571	-0.725117	0.611105
C352	C	0.589571	-0.225117	1.111105
C353	C	0.070259	-0.704689	0.573910
C354	C	0.570259	-0.204689	1.073910
H355	H	0.075989	-0.749440	0.637292
H356	H	0.575989	-0.249440	1.137292
H357	H	0.081851	-0.700378	0.622383
H358	H	0.581851	-0.200378	1.122383
H359	H	0.123977	-0.739396	0.598871
H360	H	0.623977	-0.239396	1.098871
H361	H	0.035854	-0.690406	0.586142
H362	H	0.535854	-0.190406	1.086142
H363	H	0.077973	-0.729427	0.562635
H364	H	0.577973	-0.229427	1.062635
H365	H	0.201378	-0.467681	0.730833
H366	H	0.701378	0.032319	1.230833
H367	H	0.551779	-0.593338	0.424228
H368	H	1.051779	-0.093338	0.924228
H369	H	0.169160	-0.531297	0.362501
H370	H	0.669160	-0.031297	0.862501
H371	H	0.015877	-0.653227	0.173952
H372	H	0.515877	-0.153227	0.673952
O373	O	0.551530	-0.407505	0.327543
O374	O	1.051530	0.092495	0.827543
C375	C	0.551515	-0.365530	0.327555
C376	C	1.051515	0.134470	0.827555
H377	H	0.536203	-0.366123	0.366671
H378	H	1.036203	0.133877	0.866671
H379	H	0.590404	-0.364921	0.310092
H380	H	1.090404	0.135079	0.810092
C381	C	0.538454	-0.318969	0.250275
C382	C	1.038454	0.181031	0.750275
C383	C	0.519644	-0.319696	0.298318
C384	C	1.019644	0.180304	0.798318
H385	H	0.518797	-0.290696	0.232239
H386	H	1.018797	0.209304	0.732239
H387	H	0.538466	-0.347248	0.250266
H388	H	1.038466	0.152752	0.750266
H389	H	0.570861	-0.318464	0.235729
H390	H	1.070861	0.181536	0.735729
H391	H	0.487240	-0.320207	0.312865
H392	H	0.987240	0.179793	0.812865
H393	H	0.519626	-0.291415	0.298329
H394	H	1.019626	0.208585	0.798329
O395	O	-0.043965	-0.379155	0.952509
O396	O	0.456035	0.120845	1.452509
C397	C	-0.085032	-0.385586	0.994517
C398	C	0.414968	0.114414	1.494517
H399	H	-0.084475	-0.424494	1.008511
H400	H	0.415525	0.075506	1.508511
H401	H	-0.084161	-0.378594	1.023929
H402	H	0.415839	0.121406	1.523929
C403	C	-0.132507	-0.301709	0.964585
C404	C	0.367493	0.198291	1.464585
C405	C	-0.131824	-0.349496	0.981770
C406	C	0.368176	0.150504	1.481770
H407	H	-0.161370	-0.279445	0.956723
H408	H	0.338630	0.220555	1.456723
H409	H	-0.104839	-0.297376	0.936284
H410	H	0.395161	0.202624	1.436284
H411	H	-0.131778	-0.295889	0.989097
H412	H	0.368222	0.204111	1.489097
H413	H	-0.132546	-0.355316	0.957255
H414	H	0.367454	0.144684	1.457255
H415	H	-0.159494	-0.353829	1.010066
H416	H	0.340506	0.146171	1.510066
O417	O	0.240058	-0.438755	0.634293
O418	O	0.740058	0.061245	1.134293
C419	C	0.265726	-0.468316	0.667735
C420	C	0.765726	0.031684	1.167735
H421	H	0.241408	-0.461812	0.704130
H422	H	0.741408	0.038188	1.204130
H423	H	0.276742	-0.508298	0.673155
H424	H	0.776742	-0.008298	1.173155
C425	C	0.341602	-0.463370	0.603081
C426	C	0.841602	0.036630	1.103081
C427	C	0.311735	-0.455379	0.647781
C428	C	0.811735	0.044621	1.147781
H429	H	0.369984	-0.455391	0.590772
H430	H	0.869984	0.044609	1.090772
H431	H	0.324310	-0.443456	0.580550
H432	H	0.824310	0.056544	1.080550
H433	H	0.350777	-0.496688	0.607604
H434	H	0.850777	0.003312	1.107604
H435	H	0.302556	-0.422059	0.643257
H436	H	0.802556	0.077941	1.143257
H437	H	0.329027	-0.475287	0.670311
H438	H	0.829027	0.024713	1.170311
O439	O	0.551695	-0.408023	0.481520
O440	O	1.051695	0.091977	0.981520
C441	C	0.551770	-0.425792	0.529429
C442	C	1.051770	0.074208	1.029429
H443	H	0.536460	-0.457114	0.552505
H444	H	1.036460	0.042886	1.052505
H445	H	0.590687	-0.439364	0.528670
H446	H	1.090687	0.060636	1.028670
C447	C	0.538769	-0.346088	0.523275
C448	C	1.038769	0.153912	1.023275
C449	C	0.519960	-0.384556	0.551618
C450	C	1.019960	0.115444	1.051618
H451	H	0.519149	-0.320651	0.536962
H452	H	1.019149	0.179349	1.036962
H453	H	0.538720	-0.334116	0.490997
H454	H	1.038720	0.165884	0.990997
H455	H	0.571199	-0.357404	0.522644
H456	H	1.071199	0.142596	1.022644
H457	H	0.487533	-0.373240	0.552243
H458	H	0.987533	0.126760	1.052243
H459	H	0.520003	-0.396524	0.583897
H460	H	1.020003	0.103476	1.083897
O461	O	-0.073061	-0.003686	0.548408
O462	O	0.426939	0.496314	1.048408
C463	C	-0.103422	-0.003711	0.530886
C464	C	0.396578	0.496289	1.030886
H465	H	-0.090239	0.011635	0.489353
H466	H	0.409761	0.511635	0.989353
H467	H	-0.102100	-0.042619	0.543293
H468	H	0.397900	0.457381	1.043293
C469	C	-0.172369	0.009243	0.602100
C470	C	0.327631	0.509243	1.102100
C471	C	-0.156180	0.028095	0.551089
C472	C	0.343820	0.528095	1.051089
H473	H	-0.204913	0.028860	0.614564
H474	H	0.295087	0.528860	1.114564
H475	H	-0.151914	0.009258	0.613906
H476	H	0.348086	0.509258	1.113906
H477	H	-0.171263	-0.023180	0.612433
H478	H	0.328737	0.476820	1.112433
H479	H	-0.157280	0.060515	0.540757
H480	H	0.342720	0.560515	1.040757
H481	H	-0.176636	0.028086	0.539281
H482	H	0.323364	0.528086	1.039281
O483	O	-0.073070	-0.474695	0.548364
O484	O	0.426930	0.025305	1.048364
C485	C	-0.103382	-0.426792	0.530743
C486	C	0.396618	0.073208	1.030743
H487	H	-0.079910	-0.403631	0.499423
H488	H	0.420090	0.096369	0.999423
H489	H	-0.128014	-0.427538	0.517216
H490	H	0.371986	0.072462	1.017216
C491	C	-0.163754	-0.433187	0.610547
C492	C	0.336246	0.066813	1.110547
C493	C	-0.134926	-0.404741	0.572081
C494	C	0.365074	0.095259	1.072081
H495	H	-0.183214	-0.419585	0.636045
H496	H	0.316786	0.080415	1.136045
H497	H	-0.143334	-0.465462	0.622418
H498	H	0.356666	0.034538	1.122418
H499	H	-0.184276	-0.433807	0.599268
H500	H	0.315724	0.066193	1.099268
H501	H	-0.114400	-0.404126	0.583358
H502	H	0.385600	0.095874	1.083358
H503	H	-0.155344	-0.372465	0.560212
H504	H	0.344656	0.127535	1.060212
O505	O	0.551954	-0.599421	0.576755
O506	O	1.051954	-0.099421	1.076755
C507	C	0.551958	-0.581860	0.607096
C508	C	1.051958	-0.081860	1.107096
H509	H	0.567269	-0.550537	0.583648
H510	H	1.067269	-0.050537	1.083648
H511	H	0.513065	-0.568350	0.631750
H512	H	1.013065	-0.068350	1.131750
C513	C	0.565012	-0.661707	0.667410
C514	C	1.065012	-0.161707	1.167410
C515	C	0.583821	-0.623239	0.638610
C516	C	1.083821	-0.123239	1.138610
H517	H	0.584665	-0.687232	0.686851
H518	H	1.084665	-0.187232	1.186851
H519	H	0.565007	-0.673539	0.646970
H520	H	1.065007	-0.173539	1.146970
H521	H	0.532602	-0.650443	0.687950
H522	H	1.032602	-0.150443	1.187950
H523	H	0.616228	-0.634502	0.618066
H524	H	1.116228	-0.134502	1.118066
H525	H	0.583832	-0.611410	0.659048
H526	H	1.083832	-0.111410	1.159048
O527	O	0.081071	-0.003682	0.547918
O528	O	0.581071	0.496318	1.047918
C529	C	0.128995	-0.003655	0.530130
C530	C	0.628995	0.496345	1.030130
H531	H	0.152044	-0.018998	0.498825
H532	H	0.652044	0.481002	0.998825
H533	H	0.128266	0.035253	0.516532
H534	H	0.628266	0.535253	1.016532
C535	C	0.122887	-0.016615	0.609808
C536	C	0.622887	0.483385	1.109808
C537	C	0.151196	-0.035463	0.571360
C538	C	0.651196	0.464537	1.071360
H539	H	0.136581	-0.036234	0.635240
H540	H	0.636581	0.463766	1.135240
H541	H	0.090599	-0.016631	0.621791
H542	H	0.590599	0.483369	1.121791
H543	H	0.122281	0.015808	0.598469
H544	H	0.622281	0.515808	1.098469
H545	H	0.151796	-0.067883	0.582698
H546	H	0.651796	0.432117	1.082698
H547	H	0.183485	-0.035453	0.559379
H548	H	0.683485	0.464547	1.059379
H549	H	0.080840	-0.361208	0.594989
H550	H	0.580840	0.138792	1.094989
H551	H	0.049948	-0.392069	0.564138
H552	H	0.549948	0.107931	1.064138
H553	H	0.232048	-0.436761	0.519270
H554	H	0.732048	0.063239	1.019270
O555	O	0.206429	-0.472228	0.483817
O556	O	0.706429	0.027772	0.983817
C557	C	0.254374	-0.479459	0.476563
C558	C	0.754374	0.020541	0.976563
H559	H	0.254283	-0.448685	0.482265
H560	H	0.754283	0.051315	0.982265
H561	H	0.269028	-0.515824	0.503713
H562	H	0.769028	-0.015824	1.003713
C563	C	0.287186	-0.517602	0.417255
C564	C	0.787186	-0.017602	0.917255
C565	C	0.287075	-0.479802	0.424255
C566	C	0.787075	0.020198	0.924255
H567	H	0.307358	-0.517816	0.384990
H568	H	0.807358	-0.017816	0.884990
H569	H	0.254885	-0.512733	0.422144
H570	H	0.754885	-0.012733	0.922144
H571	H	0.299397	-0.547903	0.439884
H572	H	0.799397	-0.047903	0.939884
H573	H	0.274858	-0.449502	0.401630
H574	H	0.774858	0.050498	0.901630
H575	H	0.319375	-0.484666	0.419361
H576	H	0.819375	0.015334	0.919361
O577	O	0.233691	-0.479051	0.589379
O578	O	0.733691	0.020949	1.089379
C579	C	0.246150	-0.502958	0.558145
C580	C	0.746150	-0.002958	1.058145
H581	H	0.260148	-0.479710	0.518629
H582	H	0.760148	0.020290	1.018629
H583	H	0.275795	-0.539792	0.566354
H584	H	0.775795	-0.039792	1.066354
C585	C	0.183610	-0.539275	0.614853
C586	C	0.683610	-0.039275	1.114853
C587	C	0.200799	-0.510719	0.566319
C588	C	0.700799	-0.010719	1.066319
H589	H	0.155636	-0.544064	0.619896
H590	H	0.655636	-0.044064	1.119896
H591	H	0.175217	-0.523170	0.635897
H592	H	0.675217	-0.023170	1.135897
H593	H	0.208319	-0.569967	0.621688
H594	H	0.708319	-0.069967	1.121688
H595	H	0.176092	-0.480026	0.559486
H596	H	0.676092	0.019974	1.059486
H597	H	0.209186	-0.526819	0.545274
H598	H	0.709186	-0.026819	1.045274
O599	O	0.334317	-0.512546	0.555764
O600	O	0.834317	-0.012546	1.055764
C601	C	0.363820	-0.519472	0.510195
C602	C	0.863820	-0.019472	1.010195
H603	H	0.348404	-0.487156	0.480780
H604	H	0.848404	0.012844	0.980780
H605	H	0.402505	-0.522475	0.501330
H606	H	0.902505	-0.022475	1.001330
C607	C	0.383548	-0.606324	0.548253
C608	C	0.883548	-0.106324	1.048253
C609	C	0.364611	-0.566635	0.512127
C610	C	0.864611	-0.066635	1.012127
H611	H	0.384038	-0.635418	0.549445
H612	H	0.884038	-0.135418	1.049445
H613	H	0.363673	-0.601659	0.578955
H614	H	0.863673	-0.101659	1.078955
H615	H	0.415784	-0.608820	0.540862
H616	H	0.915784	-0.108820	1.040862
H617	H	0.332373	-0.564136	0.519521
H618	H	0.832373	-0.064136	1.019521
H619	H	0.384481	-0.571302	0.481426
H620	H	0.884481	-0.071302	0.981426
H621	H	0.330218	-0.354891	0.497577
H622	H	0.830218	0.145109	0.997577
H623	H	0.194180	-0.317769	0.481510
H624	H	0.694180	0.182231	0.981510
O625	O	0.233663	-0.316202	0.527281
O626	O	0.733663	0.183798	1.027281
C627	C	0.246084	-0.289860	0.476884
C628	C	0.746084	0.210140	0.976884
H629	H	0.283137	-0.312156	0.456767
H630	H	0.783137	0.187844	0.956767
H631	H	0.217336	-0.282250	0.462997
H632	H	0.717336	0.217750	0.962997
C633	C	0.202925	-0.213863	0.492476
C634	C	0.702925	0.286137	0.992476
C635	C	0.248437	-0.241246	0.467768
C636	C	0.748437	0.258754	0.967768
H637	H	0.204374	-0.183874	0.486852
H638	H	0.704374	0.316126	0.986852
H639	H	0.194555	-0.231610	0.526429
H640	H	0.694555	0.268390	1.026429
H641	H	0.178974	-0.207527	0.480901
H642	H	0.678974	0.292473	0.980901
H643	H	0.272386	-0.247587	0.479347
H644	H	0.772386	0.252413	0.979347
H645	H	0.256811	-0.223499	0.433816
H646	H	0.756811	0.276501	0.933816
O647	O	0.165109	-0.221126	0.442796
O648	O	0.665109	0.278874	0.942796
C649	C	0.122197	-0.191598	0.430499
C650	C	0.622197	0.308402	0.930499
H651	H	0.091554	-0.206997	0.459292
H652	H	0.591554	0.293003	0.959292
H653	H	0.111446	-0.152914	0.428814
H654	H	0.611446	0.347086	0.928814
C655	C	0.168877	-0.171885	0.345087
C656	C	0.668877	0.328115	0.845087
C657	C	0.131241	-0.190801	0.380448
C658	C	0.631241	0.309199	0.880448
H659	H	0.174455	-0.171391	0.314213
H660	H	0.674455	0.328609	0.814213
H661	H	0.197787	-0.191777	0.353372
H662	H	0.697787	0.308223	0.853372
H663	H	0.159913	-0.139650	0.343689
H664	H	0.659913	0.360350	0.843689
H665	H	0.140207	-0.223037	0.381851
H666	H	0.640207	0.276963	0.881851
H667	H	0.102331	-0.170914	0.372163
H668	H	0.602331	0.329086	0.872163
O669	O	0.083153	-0.221278	0.607201
O670	O	0.583153	0.278722	1.107201
C671	C	0.075983	-0.254762	0.655136
C672	C	0.575983	0.245238	1.155136
H673	H	0.081691	-0.291150	0.655047
H674	H	0.581691	0.208850	1.155047
H675	H	0.103174	-0.260181	0.669727
H676	H	0.603174	0.239819	1.169727
C677	C	0.016696	-0.190169	0.688019
C678	C	0.516696	0.309831	1.188019
C679	C	0.023703	-0.234861	0.687909
C680	C	0.523703	0.265139	1.187909
H681	H	-0.015552	-0.177893	0.708236
H682	H	0.484448	0.322107	1.208236
H683	H	0.021528	-0.167610	0.655724
H684	H	0.521528	0.332390	1.155724
H685	H	0.039359	-0.194691	0.700177
H686	H	0.539359	0.305309	1.200177
H687	H	0.001044	-0.230337	0.675746
H688	H	0.501044	0.269663	1.175746
H689	H	0.018866	-0.257419	0.720203
H690	H	0.518866	0.242581	1.220203
H691	H	-0.059677	-0.501957	0.173865
H692	H	0.440323	-0.001957	0.673865
O693	O	-0.095208	-0.527541	0.270453
O694	O	0.404792	-0.027541	0.770453
C695	C	-0.069425	-0.498061	0.258022
C696	C	0.430575	0.001939	0.758022
H697	H	-0.028590	-0.517807	0.244042
H698	H	0.471410	-0.017807	0.744042
H699	H	-0.080246	-0.462197	0.228369
H700	H	0.419754	0.037803	0.728369
C701	C	-0.131961	-0.463380	0.320552
C702	C	0.368039	0.036620	0.820552
C703	C	-0.081806	-0.487634	0.303386
C704	C	0.418194	0.012366	0.803386
H705	H	-0.139600	-0.456946	0.348534
H706	H	0.360400	0.043054	0.848534
H707	H	-0.149333	-0.483239	0.328926
H708	H	0.350667	0.016761	0.828926
H709	H	-0.140972	-0.433495	0.295837
H710	H	0.359028	0.066505	0.795837
H711	H	-0.072798	-0.517521	0.328098
H712	H	0.427202	-0.017521	0.828098
H713	H	-0.064434	-0.467779	0.295017
H714	H	0.435566	0.032221	0.795017
O715	O	-0.013155	-0.691941	0.270490
O716	O	0.486845	-0.191941	0.770490
C717	C	0.016434	-0.717595	0.237039
C718	C	0.516434	-0.217595	0.737039
H719	H	0.009980	-0.693251	0.200622
H720	H	0.509980	-0.193251	0.700622
H721	H	0.056404	-0.728642	0.231680
H722	H	0.556404	-0.228642	0.731680
C723	C	0.011410	-0.793480	0.301658
C724	C	0.511410	-0.293480	0.801658
C725	C	0.003479	-0.763581	0.256931
C726	C	0.503479	-0.263581	0.756931
H727	H	0.003421	-0.821847	0.313928
H728	H	0.503421	-0.321847	0.813928
H729	H	-0.008524	-0.776197	0.324195
H730	H	0.491476	-0.276197	0.824195
H731	H	0.044718	-0.802680	0.297186
H732	H	0.544718	-0.302680	0.797186
H733	H	-0.029829	-0.754376	0.261404
H734	H	0.470171	-0.254376	0.761404
H735	H	0.023407	-0.780864	0.234394
H736	H	0.523407	-0.280864	0.734394
H737	H	0.118680	-0.317820	0.632757
H738	H	0.618680	0.182180	1.132757
H739	H	-0.059919	-0.501948	0.340854
H740	H	0.440081	-0.001948	0.840854
O741	O	0.020176	-0.658470	0.421165
O742	O	0.520176	-0.158470	0.921165
C743	C	0.063005	-0.688010	0.395436
C744	C	0.563005	-0.188010	0.895436
H745	H	0.056204	-0.688502	0.365684
H746	H	0.556204	-0.188502	0.865684
H747	H	0.093718	-0.672697	0.378167
H748	H	0.593718	-0.172697	0.878167
C749	C	0.085839	-0.739694	0.467387
C750	C	0.585839	-0.239694	0.967387
C751	C	0.077485	-0.740302	0.430849
C752	C	0.577485	-0.240302	0.930849
H753	H	0.094773	-0.771950	0.489231
H754	H	0.594773	-0.271950	0.989231
H755	H	0.056985	-0.719792	0.484722
H756	H	0.556985	-0.219792	0.984722
H757	H	0.111432	-0.726930	0.452991
H758	H	0.611432	-0.226930	0.952991
H759	H	0.051889	-0.753060	0.445245
H760	H	0.551889	-0.253060	0.945245
H761	H	0.106335	-0.760208	0.413518
H762	H	0.606335	-0.260208	0.913518
O763	O	0.027047	-0.685609	0.315382
O764	O	0.527047	-0.185609	0.815382
C765	C	0.025111	-0.656084	0.267914
C766	C	0.525111	-0.156084	0.767914
H767	H	0.010585	-0.671449	0.256311
H768	H	0.510585	-0.171449	0.756311
H769	H	-0.000076	-0.617385	0.267509
H770	H	0.499924	-0.117385	0.767509
C771	C	0.094485	-0.636481	0.246538
C772	C	0.594485	-0.136481	0.746538
C773	C	0.076647	-0.655355	0.232284
C774	C	0.576647	-0.155355	0.732284
H775	H	0.126274	-0.636030	0.224559
H776	H	0.626274	-0.136030	0.724559
H777	H	0.095788	-0.656372	0.278518
H778	H	0.595788	-0.156372	0.778518
H779	H	0.073491	-0.604234	0.246200
H780	H	0.573491	-0.104234	0.746200
H781	H	0.097638	-0.687604	0.232629
H782	H	0.597638	-0.187604	0.732629
H783	H	0.075349	-0.635470	0.200303
H784	H	0.575349	-0.135470	0.700303
O785	O	0.060543	-0.786187	0.348983
O786	O	0.560543	-0.286187	0.848983
C787	C	0.085857	-0.752752	0.323981
C788	C	0.585857	-0.252752	0.823981
H789	H	0.063631	-0.716355	0.303028
H790	H	0.563631	-0.216355	0.803028
H791	H	0.091729	-0.747332	0.351323
H792	H	0.591729	-0.247332	0.851323
C793	C	0.162899	-0.817424	0.313772
C794	C	0.662899	-0.317424	0.813772
C795	C	0.135602	-0.772721	0.288034
C796	C	0.635602	-0.272721	0.788034
H797	H	0.193585	-0.829742	0.291600
H798	H	0.693585	-0.329742	0.791600
H799	H	0.145845	-0.839950	0.330619
H800	H	0.645845	-0.339950	0.830619
H801	H	0.167787	-0.812901	0.336557
H802	H	0.667787	-0.312901	0.836557
H803	H	0.130710	-0.777245	0.265255
H804	H	0.630710	-0.277245	0.765255
H805	H	0.152657	-0.750196	0.271183
H806	H	0.652657	-0.250196	0.771183
H807	H	-0.015291	-0.684031	0.385637
H808	H	0.484709	-0.184031	0.885637
O809	O	-0.102367	-0.786021	0.410943
O810	O	0.397633	-0.286021	0.910943
C811	C	-0.149951	-0.752513	0.413637
C812	C	0.350049	-0.252513	0.913637
H813	H	-0.151902	-0.716120	0.410238
H814	H	0.348098	-0.216120	0.910238
H815	H	-0.159487	-0.747116	0.382726
H816	H	0.340513	-0.247116	0.882726
C817	C	-0.184014	-0.817058	0.467105
C818	C	0.315986	-0.317058	0.967105
C819	C	-0.186412	-0.772361	0.462933
C820	C	0.313588	-0.272361	0.962933
H821	H	-0.206506	-0.829302	0.497511
H822	H	0.293494	-0.329302	0.997511
H823	H	-0.151956	-0.839634	0.465288
H824	H	0.348044	-0.339634	0.965288
H825	H	-0.191960	-0.812556	0.441343
H826	H	0.308040	-0.312556	0.941343
H827	H	-0.178460	-0.776866	0.488691
H828	H	0.321540	-0.276866	0.988691
H829	H	-0.218470	-0.749787	0.464755
H830	H	0.281530	-0.249787	0.964755
O831	O	-0.130326	-0.650766	0.428519
O832	O	0.369674	-0.150766	0.928519
C833	C	-0.142836	-0.693553	0.458006
C834	C	0.357164	-0.193553	0.958006
H835	H	-0.179880	-0.686669	0.458442
H836	H	0.320120	-0.186669	0.958442
H837	H	-0.114105	-0.724277	0.442685
H838	H	0.385895	-0.224277	0.942685
C839	C	-0.099772	-0.716544	0.509789
C840	C	0.400228	-0.216544	1.009789
C841	C	-0.145272	-0.708087	0.510327
C842	C	0.354728	-0.208087	1.010327
H843	H	-0.101273	-0.725511	0.542062
H844	H	0.398727	-0.225511	1.042062
H845	H	-0.091342	-0.687719	0.489922
H846	H	0.408658	-0.187719	0.989922
H847	H	-0.075834	-0.742146	0.497019
H848	H	0.424166	-0.242146	0.997019
H849	H	-0.169207	-0.682482	0.523091
H850	H	0.330793	-0.182482	1.023091
H851	H	-0.153706	-0.736909	0.530197
H852	H	0.346294	-0.236909	1.030197
O853	O	-0.230975	-0.617009	0.461843
O854	O	0.269025	-0.117009	0.961843
C855	C	-0.281484	-0.595661	0.469663
C856	C	0.218516	-0.095661	0.969663
H857	H	-0.288396	-0.562897	0.436143
H858	H	0.211604	-0.062897	0.936143
H859	H	-0.295976	-0.623560	0.476428
H860	H	0.204024	-0.123560	0.976428
C861	C	-0.299253	-0.619153	0.555514
C862	C	0.200747	-0.119153	1.055514
C863	C	-0.307744	-0.578910	0.514347
C864	C	0.192256	-0.078910	1.014347
H865	H	-0.315453	-0.608822	0.583079
H866	H	0.184547	-0.108822	1.083079
H867	H	-0.265225	-0.633538	0.550247
H868	H	0.234775	-0.133538	1.050247
H869	H	-0.311330	-0.642399	0.561146
H870	H	0.188670	-0.142399	1.061146
H871	H	-0.295662	-0.555668	0.508713
H872	H	0.204338	-0.055668	1.008713
H873	H	-0.341771	-0.564520	0.519615
H874	H	0.158229	-0.064520	1.019615
O875	O	-0.230592	-0.535005	0.297397
O876	O	0.269408	-0.035005	0.797397
C877	C	-0.218103	-0.560792	0.267889
C878	C	0.281897	-0.060792	0.767889
H879	H	-0.181064	-0.590536	0.267443
H880	H	0.318936	-0.090536	0.767443
H881	H	-0.246846	-0.578079	0.283198
H882	H	0.253154	-0.078079	0.783198
C883	C	-0.261161	-0.488900	0.216127
C884	C	0.238839	0.011100	0.716127
C885	C	-0.215666	-0.525429	0.215576
C886	C	0.284334	-0.025429	0.715576
H887	H	-0.259659	-0.467086	0.183858
H888	H	0.240341	0.032914	0.683858
H889	H	-0.269576	-0.471527	0.236008
H890	H	0.230424	0.028473	0.736008
H891	H	-0.285108	-0.503311	0.228887
H892	H	0.214892	-0.003311	0.728887
H893	H	-0.191721	-0.511018	0.202822
H894	H	0.308279	-0.011018	0.702822
H895	H	-0.207247	-0.542799	0.195692
H896	H	0.292753	-0.042799	0.695692
H897	H	-0.090726	-0.532768	0.309877
H898	H	0.409274	-0.032768	0.809877
H899	H	-0.127938	-0.689491	0.376175
H900	H	0.372062	-0.189491	0.876175
