data_functionalizedCrystal
_audit_creation_method	'MofGen! by Chris Wilmer'
_symmetry_space_group_name_H-M	'P1'
_symmetry_Int_Tables_number	1
_symmetry_cell_setting	triclinic
loop_
_symmetry_equiv_pos_as_xyz
  x,y,z
_cell_length_a	16.109301
_cell_length_b	10.489741
_cell_length_c	14.586319
_cell_angle_alpha	89.996488
_cell_angle_beta	89.999213
_cell_angle_gamma	84.000327
loop_
_atom_site_label
_atom_site_type_symbol
_atom_site_fract_x
_atom_site_fract_y
_atom_site_fract_z
O1	O	1.104141	0.163947	-0.076182
O2	O	0.862205	0.184350	-0.076196
O3	O	0.988678	-0.011529	-0.076183
O4	O	0.977668	0.359826	-0.076195
O5	O	0.988670	-0.011532	0.076298
O6	O	0.862196	0.184347	0.076284
O7	O	1.104132	0.163944	0.076299
Cu8	Cu	0.983164	0.174145	0.090214
Cu9	Cu	0.983174	0.174149	-0.090112
O10	O	0.977659	0.359823	0.076286
C11	C	0.831221	0.183522	0.000042
C12	C	0.738910	0.181044	0.000037
C13	C	0.517319	0.291514	0.000044
C14	C	0.430584	0.289175	0.000050
C15	C	0.449026	0.056771	0.000053
C16	C	0.535759	0.059111	0.000054
C17	C	0.569903	0.176486	0.000045
C18	C	0.396435	0.171808	0.000050
C19	C	0.302393	0.169272	0.000056
C20	C	0.663950	0.179022	0.000040
C21	C	0.987842	-0.059050	0.000057
C22	C	0.985354	-0.200644	0.000055
C23	C	0.904883	-0.267616	0.000043
C24	C	0.942893	-0.360292	0.075226
C25	C	0.942920	-0.360264	-0.075108
C26	C	1.023397	-0.291454	0.075300
C27	C	1.023414	-0.291417	-0.075102
C28	C	1.061482	-0.384066	0.000100
C29	C	1.135117	0.164772	0.000058
C30	C	1.227427	0.167250	0.000058
C31	C	0.978495	0.407344	0.000044
C32	C	0.980983	0.548938	0.000040
N33	N	0.983162	0.174142	0.217046
N34	N	0.983182	0.174142	-0.216944
C35	C	1.039183	0.087436	0.452058
C36	C	1.039186	0.087433	0.548040
C37	C	0.927155	0.260852	0.548038
C38	C	0.927149	0.260848	0.452058
C39	C	0.983168	0.174141	0.404071
C40	C	0.983176	0.174142	0.596032
C41	C	0.983178	0.174140	0.700099
C42	C	0.983165	0.174142	0.299997
H43	H	0.387773	0.382843	0.000051
H44	H	1.127704	-0.434450	0.000146
H45	H	0.838720	-0.217005	0.000115
N46	N	1.066093	-0.253098	-0.154844
N47	N	1.038677	-0.274761	-0.232853
H48	H	1.068814	-0.247697	-0.289179
N49	N	0.589490	-0.058383	0.000045
N50	N	0.666928	-0.056272	0.000046
H51	H	0.704878	-0.139247	0.000042
H52	H	0.908865	-0.390732	-0.138675
N53	N	0.900167	-0.398571	0.154956
N54	N	0.825693	-0.356375	0.168347
H55	H	0.795512	-0.383405	0.224653
N56	N	1.096358	-0.001215	0.403054
N57	N	1.146333	-0.078676	0.445917
H58	H	1.186694	-0.141320	0.411311
N59	N	1.066072	-0.253388	0.155122
N60	N	1.074845	-0.137759	0.168026
H61	H	1.104981	-0.110869	0.224400
N62	N	0.869929	0.349404	0.597060
N63	N	0.818087	0.308909	0.650624
H64	H	0.777670	0.371450	0.685246
N65	N	0.414133	-0.063107	0.000063
N66	N	0.336692	-0.065182	0.000061
H67	H	0.312049	-0.149848	0.000066
N68	N	1.096392	-0.001138	0.597071
N69	N	1.096381	-0.001143	0.682766
H70	H	1.136779	-0.063708	0.717397
N71	N	0.869928	0.349441	0.403049
N72	N	0.871771	0.467338	0.413760
H73	H	0.831358	0.529903	0.379149
N74	N	0.552183	0.411415	0.000036
N75	N	0.505219	0.514109	0.000037
H76	H	0.529839	0.598794	0.000033
