data_functionalizedCrystal
_audit_creation_method	'MofGen! by Chris Wilmer'
_symmetry_space_group_name_H-M	'P1'
_symmetry_Int_Tables_number	1
_symmetry_cell_setting	triclinic
loop_
_symmetry_equiv_pos_as_xyz
  x,y,z
_cell_length_a	17.699083
_cell_length_b	17.699104
_cell_length_c	16.776229
_cell_angle_alpha	89.992410
_cell_angle_beta	89.998886
_cell_angle_gamma	83.287266
loop_
_atom_site_label
_atom_site_type_symbol
_atom_site_fract_x
_atom_site_fract_y
_atom_site_fract_z
O1	O	1.004086	0.095712	-0.066178
O2	O	1.504086	0.595712	0.433822
O3	O	0.783708	0.108164	-0.066204
O4	O	1.283708	0.608164	0.433796
O5	O	0.900115	-0.008250	-0.066183
O6	O	1.400115	0.491750	0.433817
O7	O	0.887679	0.212126	-0.066199
O8	O	1.387679	0.712126	0.433801
O9	O	0.900099	-0.008257	0.066393
O10	O	1.400099	0.491743	0.566393
O11	O	0.783693	0.108157	0.066372
O12	O	1.283693	0.608157	0.566372
O13	O	1.004070	0.095705	0.066398
O14	O	1.504070	0.595705	0.566398
Zn15	Zn	0.893879	0.101930	0.087435
Zn16	Zn	1.393879	0.601930	0.587435
Zn17	Zn	0.893899	0.101939	-0.087241
Zn18	Zn	1.393899	0.601939	0.412759
O19	O	0.887664	0.212119	0.066377
O20	O	1.387664	0.712119	0.566377
C21	C	0.755503	0.107715	0.000081
C22	C	1.255503	0.607715	0.500081
C23	C	0.671485	0.106376	0.000071
C24	C	1.171485	0.606376	0.500071
C25	C	0.622869	0.174709	0.000066
C26	C	1.122869	0.674709	0.500066
C27	C	0.543926	0.173446	0.000076
C28	C	1.043926	0.673446	0.500076
C29	C	0.513600	0.103851	0.000086
C30	C	1.013600	0.603851	0.500086
C31	C	0.562222	0.035513	0.000093
C32	C	1.062222	0.535513	0.500093
C33	C	0.641164	0.036776	0.000088
C34	C	1.141164	0.536776	0.500088
C35	C	0.243859	0.030418	0.000113
C36	C	0.743859	0.530418	0.500113
C37	C	0.164911	0.029160	0.000115
C38	C	0.664911	0.529160	0.500115
C39	C	0.146621	0.167088	0.000101
C40	C	0.646621	0.667088	0.500101
C41	C	0.225563	0.168351	0.000097
C42	C	0.725563	0.668351	0.500097
C43	C	0.274178	0.100014	0.000108
C44	C	0.774178	0.600014	0.500108
C45	C	0.359777	0.101383	0.000098
C46	C	0.859777	0.601383	0.500098
C47	C	0.428002	0.102480	0.000090
C48	C	0.928002	0.602480	0.500090
C49	C	0.899659	-0.036450	0.000105
C50	C	1.399659	0.463550	0.500105
C51	C	0.898314	-0.120467	0.000105
C52	C	1.398314	0.379533	0.500105
C53	C	1.032275	0.096155	0.000112
C54	C	1.532275	0.596155	0.500112
C55	C	1.116293	0.097493	0.000116
C56	C	1.616293	0.597493	0.500116
C57	C	0.959058	-0.645338	0.000090
C58	C	1.459058	-0.145338	0.500090
C59	C	0.960317	-0.566395	0.000097
C60	C	1.460317	-0.066395	0.500097
C61	C	0.891982	-0.517777	0.000091
C62	C	1.391982	-0.017777	0.500091
C63	C	0.822383	-0.548107	0.000085
C64	C	1.322383	-0.048107	0.500085
C65	C	0.821125	-0.627049	0.000084
C66	C	1.321125	-0.127049	0.500084
C67	C	0.827456	-0.229741	0.000092
C68	C	1.327456	0.270259	0.500092
C69	C	0.828720	-0.150794	0.000092
C70	C	1.328720	0.349206	0.500092
C71	C	0.966648	-0.169086	0.000106
C72	C	1.466648	0.330914	0.500106
C73	C	0.965390	-0.248029	0.000104
C74	C	1.465390	0.251971	0.500104
C75	C	0.895792	-0.278352	0.000103
C76	C	1.395792	0.221648	0.500103
C77	C	0.894427	-0.363951	0.000097
C78	C	1.394427	0.136049	0.500097
C79	C	0.893345	-0.432179	0.000091
C80	C	1.393345	0.067821	0.500091
C81	C	0.888120	0.240319	0.000087
C82	C	1.388120	0.740319	0.500087
C83	C	0.889464	0.324337	0.000082
C84	C	1.389464	0.824337	0.500082
N85	N	0.893871	0.101923	0.206646
N86	N	1.393871	0.601923	0.706646
N87	N	0.893914	0.101940	-0.206452
N88	N	1.393914	0.601940	0.293548
C89	C	0.945431	0.050396	0.248372
C90	C	1.445431	0.550396	0.748372
C91	C	0.945435	0.050395	0.331824
C92	C	1.445435	0.550395	0.831824
C93	C	0.893882	0.101926	0.373549
C94	C	1.393882	0.601926	0.873549
C95	C	0.842316	0.153456	0.331816
C96	C	1.342316	0.653456	0.831816
C97	C	0.842309	0.153452	0.248366
C98	C	1.342309	0.653452	0.748366
C99	C	0.842343	0.153470	0.668364
C100	C	1.342343	0.653470	1.168364
C101	C	0.842356	0.153472	0.751820
C102	C	1.342356	0.653472	1.251820
C103	C	0.945470	0.050414	0.751822
C104	C	1.445470	0.550414	1.251822
C105	C	0.945463	0.050410	0.668372
C106	C	1.445463	0.550410	1.168372
C107	C	0.893894	0.101937	0.626647
C108	C	1.393894	0.601937	1.126647
C109	C	0.893890	0.101936	0.536158
C110	C	1.393890	0.601936	1.036158
C111	C	0.893890	0.101931	0.464036
C112	C	1.393890	0.601931	0.964036
H113	H	0.250249	0.225023	0.000085
H114	H	0.750249	0.725023	0.500085
O115	O	1.001058	-0.005175	0.623366
O116	O	1.501058	0.494825	1.123366
H117	H	1.060045	0.004383	0.639371
H118	H	1.560045	0.504383	1.139371
O119	O	0.746064	-0.659763	0.000072
O120	O	1.246064	-0.159763	0.500072
H121	H	0.698757	-0.612695	0.000060
H122	H	1.198757	-0.112695	0.500060
O123	O	1.039097	-0.300462	0.000112
O124	O	1.539097	0.199538	0.500112
H125	H	1.026530	-0.360451	0.000104
H126	H	1.526530	0.139549	0.500104
H127	H	0.800322	0.195410	0.214393
H128	H	1.300322	0.695410	0.714393
H129	H	0.987415	0.008437	0.214406
H130	H	1.487415	0.508437	0.714406
O131	O	1.001092	-0.005169	0.796822
O132	O	1.501092	0.494831	1.296822
H133	H	0.969309	-0.041925	0.834846
H134	H	1.469309	0.458075	1.334846
H135	H	0.800356	0.195426	0.634398
H136	H	1.300356	0.695426	1.134398
H137	H	0.987419	0.008438	0.365798
H138	H	1.487419	0.508438	0.865798
O139	O	0.094187	0.240800	0.000106
O140	O	0.594187	0.740800	0.500106
H141	H	0.034198	0.228235	0.000123
H142	H	0.534198	0.728235	0.500123
H143	H	1.014705	-0.684918	0.000088
H144	H	1.514705	-0.184918	0.500088
H145	H	1.016987	-0.541708	0.000104
H146	H	1.516987	-0.041708	0.500104
O147	O	0.786762	0.209065	0.796828
O148	O	1.286762	0.709065	1.296828
H149	H	0.750902	0.244895	0.753795
H150	H	1.250902	0.744895	1.253795
H151	H	0.680747	-0.018868	0.000091
H152	H	1.180747	0.481132	0.500091
O153	O	0.786713	0.209041	0.376813
O154	O	1.286713	0.709041	0.876813
H155	H	0.795385	0.200394	0.441852
H156	H	1.295385	0.700394	0.941852
O157	O	1.041720	-0.136383	0.000117
O158	O	1.541720	0.363617	0.500117
H159	H	1.031119	-0.073322	0.000127
H160	H	1.531119	0.426678	0.500127
H161	H	0.647554	0.231382	0.000058
H162	H	1.147554	0.731382	0.500058
O163	O	0.132197	-0.045907	0.000139
O164	O	0.632197	0.454093	0.500139
H165	H	0.179264	-0.093215	0.000157
H166	H	0.679264	0.406785	0.500157
O167	O	0.755013	-0.098351	0.000099
O168	O	1.255013	0.401649	0.500099
H169	H	0.706404	-0.132698	0.000109
H170	H	1.206404	0.367302	0.500109
O171	O	0.491493	0.247151	0.000070
O172	O	0.991493	0.747151	0.500070
H173	H	0.431505	0.234584	0.000086
H174	H	0.931505	0.734584	0.500086
O175	O	0.296289	-0.043285	0.000125
O176	O	0.796289	0.456715	0.500125
H177	H	0.261937	-0.091889	0.000125
H178	H	0.761937	0.408111	0.500125
O179	O	0.529520	-0.039555	0.000106
O180	O	1.029520	0.460445	0.500106
H181	H	0.466458	-0.028955	0.000101
H182	H	0.966458	0.471045	0.500101
H183	H	0.770785	-0.254420	0.000082
H184	H	1.270785	0.245580	0.500082
H185	H	0.766743	-0.508516	0.000085
H186	H	1.266743	-0.008516	0.500085
