data_functionalizedCrystal
_audit_creation_method	'MofGen! by Chris Wilmer'
_symmetry_space_group_name_H-M	'P1'
_symmetry_Int_Tables_number	1
_symmetry_cell_setting	triclinic
loop_
_symmetry_equiv_pos_as_xyz
  x,y,z
_cell_length_a	18.215405
_cell_length_b	25.639243
_cell_length_c	18.215407
_cell_angle_alpha	89.987300
_cell_angle_beta	90.013686
_cell_angle_gamma	89.973500
loop_
_atom_site_label
_atom_site_type_symbol
_atom_site_fract_x
_atom_site_fract_y
_atom_site_fract_z
Zn1	Zn	-0.293053	-0.799262	0.416156
Zn2	Zn	-0.416091	-0.799213	0.293087
Zn3	Zn	-0.293049	-0.711843	0.293099
Zn4	Zn	-0.416089	-0.711806	0.416107
O5	O	-0.354570	-0.755531	0.354612
O6	O	-0.309378	-0.872421	0.399847
O7	O	-0.399768	-0.787619	0.190104
O8	O	-0.190065	-0.723476	0.309448
O9	O	-0.399773	-0.872385	0.309429
O10	O	-0.190069	-0.787702	0.399858
O11	O	-0.309369	-0.723428	0.190113
O12	O	-0.309367	-0.638673	0.309400
O13	O	-0.399769	-0.723412	0.519098
O14	O	-0.399764	-0.638646	0.399773
O15	O	-0.309375	-0.787666	0.519134
O16	O	-0.519075	-0.787582	0.309380
O17	O	-0.519073	-0.723365	0.399762
C18	C	-0.354565	-0.619689	0.354583
C19	C	-0.354581	-0.561575	0.354588
C20	C	-0.307575	-0.201225	0.401771
C21	C	-0.307574	-0.146620	0.401776
O22	O	-0.267595	-0.118395	0.441856
N23	N	-0.354568	-0.119292	0.354632
C24	C	-0.401559	-0.146571	0.307475
O25	O	-0.441530	-0.118312	0.267376
C26	C	-0.401556	-0.201174	0.307467
C27	C	-0.354565	-0.228500	0.354620
C28	C	-0.260587	-0.228550	0.448919
C29	C	-0.260589	-0.283151	0.448915
C30	C	-0.307579	-0.310426	0.401764
C31	C	-0.354566	-0.283100	0.354616
C32	C	-0.448543	-0.228452	0.260308
C33	C	-0.448535	-0.283059	0.260304
C34	C	-0.401544	-0.310385	0.307456
C35	C	-0.401558	-0.364976	0.307461
N36	N	-0.354565	-0.392304	0.354604
C37	C	-0.307575	-0.365029	0.401756
C38	C	-0.401562	-0.031900	0.307494
C39	C	-0.401570	0.022702	0.307505
C40	C	-0.307584	0.022649	0.401804
C41	C	-0.307580	-0.031954	0.401797
C42	C	-0.354569	-0.059229	0.354638
C43	C	-0.307583	-0.479694	0.401745
C44	C	-0.307591	-0.534299	0.401739
C45	C	-0.401574	-0.534242	0.307437
C46	C	-0.401569	-0.479641	0.307445
C47	C	-0.354567	-0.452369	0.354602
O48	O	-0.441515	-0.393236	0.267398
O49	O	-0.267604	-0.393294	0.441842
C50	C	-0.545777	-0.755478	0.354581
C51	C	-0.627576	-0.755504	0.354592
C52	C	-0.892610	-0.789040	0.307629
C53	C	-0.815751	-0.789018	0.307612
C54	C	-0.815790	-0.722087	0.401645
C55	C	-0.892647	-0.722106	0.401658
C56	C	-0.931055	-0.755586	0.354651
C57	C	-0.777339	-0.755545	0.354621
C58	C	-0.694005	-0.755521	0.354603
C59	C	-1.014394	-0.755609	0.354668
C60	C	-0.162617	-0.755598	0.354660
C61	C	-0.080819	-0.755627	0.354680
C62	C	-0.354572	-0.755540	0.546565
C63	C	-0.354573	-0.755544	0.628364
C64	C	-0.354576	0.108096	0.354642
C65	C	-0.354577	0.049982	0.354654
C66	C	-0.307513	-0.788990	0.816578
C67	C	-0.307513	-0.788987	0.893437
C68	C	-0.401644	-0.722081	0.893388
C69	C	-0.401640	-0.722081	0.816530
C70	C	-0.354576	-0.755539	0.778127
C71	C	-0.354579	-0.755536	0.931844
C72	C	-0.354579	-0.755532	1.015177
C73	C	-0.354575	-0.755542	0.694789
C74	C	-0.354584	-0.755522	1.163406
C75	C	-0.354582	-0.755531	1.081607
H76	H	-0.269325	-0.556545	0.440139
F77	F	-0.498549	-0.312083	0.210110
H78	H	-0.439841	-0.457392	0.269059
H79	H	-0.269315	-0.054199	0.440191
F80	F	-0.451733	-0.686476	0.934265
H81	H	-0.269321	0.044866	0.440196
H82	H	-0.269188	-0.816226	0.924740
H83	H	-0.439964	-0.694838	0.785223
H84	H	-0.439843	0.044946	0.269117
F85	F	-0.498547	-0.199382	0.210110
H86	H	-0.269308	-0.457495	0.440142
H87	H	-0.222319	-0.206348	0.487315
F88	F	-0.210572	-0.312225	0.499099
H89	H	-0.439833	-0.054104	0.269093
H90	H	-0.923879	-0.816301	0.269353
F91	F	-0.451582	-0.563279	0.257259
H92	H	-0.784451	-0.816259	0.269322
H93	H	-0.784511	-0.694830	0.439918
F94	F	-0.257421	-0.824598	0.775710
F95	F	-0.933566	-0.686497	0.451706
