data_functionalizedCrystal
_audit_creation_method	'MofGen! by Chris Wilmer'
_symmetry_space_group_name_H-M	'P1'
_symmetry_Int_Tables_number	1
_symmetry_cell_setting	triclinic
loop_
_symmetry_equiv_pos_as_xyz
  x,y,z
_cell_length_a	16.992694
_cell_length_b	10.967829
_cell_length_c	16.053802
_cell_angle_alpha	80.477515
_cell_angle_beta	87.249047
_cell_angle_gamma	87.623462
loop_
_atom_site_label
_atom_site_type_symbol
_atom_site_fract_x
_atom_site_fract_y
_atom_site_fract_z
O1	O	1.046843	0.257191	-0.106324
O2	O	1.546843	0.757191	0.393676
O3	O	0.818523	0.254315	-0.105935
O4	O	1.318523	0.754315	0.394065
O5	O	0.936728	0.076458	-0.080330
O6	O	1.436728	0.576458	0.419670
O7	O	0.928638	0.435048	-0.131930
O8	O	1.428638	0.935048	0.368070
O9	O	0.930221	0.086205	0.057126
O10	O	1.430221	0.586205	0.557126
O11	O	0.812017	0.264061	0.031521
O12	O	1.312017	0.764061	0.531521
O13	O	1.040336	0.266938	0.031131
O14	O	1.540336	0.766938	0.531131
Zn15	Zn	0.925143	0.267047	0.053150
Zn16	Zn	1.425143	0.767047	0.553150
Zn17	Zn	0.933716	0.254206	-0.127954
Zn18	Zn	1.433716	0.754206	0.372046
O19	O	0.922131	0.444795	0.005526
O20	O	1.422131	0.944795	0.505526
C21	C	0.786012	0.255489	-0.036678
C22	C	1.286012	0.755489	0.463322
C23	C	0.698834	0.244453	-0.035100
C24	C	1.198834	0.744453	0.464900
C25	C	0.649897	0.350928	-0.050421
C26	C	1.149897	0.850928	0.449579
C27	C	0.567982	0.340553	-0.048916
C28	C	1.067982	0.840553	0.451084
C29	C	0.535007	0.223701	-0.032097
C30	C	1.035007	0.723701	0.467903
C31	C	0.583950	0.117219	-0.016772
C32	C	1.083950	0.617219	0.483228
C33	C	0.665862	0.127596	-0.018271
C34	C	1.165862	0.627596	0.481729
C35	C	0.290882	0.180693	-0.025886
C36	C	0.790882	0.680693	0.474114
C37	C	0.208963	0.170324	-0.024391
C38	C	0.708963	0.670324	0.475609
C39	C	0.193001	0.393660	-0.056533
C40	C	0.693001	0.893660	0.443467
C41	C	0.274916	0.404026	-0.058035
C42	C	0.774916	0.904026	0.441965
C43	C	0.323852	0.297544	-0.042706
C44	C	0.823852	0.797544	0.457294
N45	N	0.451278	0.213093	-0.030561
N46	N	0.951278	0.713093	0.469439
N47	N	0.407579	0.308153	-0.044236
N48	N	0.907579	0.808153	0.455764
C49	C	0.932395	0.035236	-0.004971
C50	C	1.432395	0.535236	0.495029
C51	C	0.929166	-0.102116	0.014787
C52	C	1.429166	0.397884	0.514787
C53	C	0.931098	-0.168395	-0.047611
C54	C	1.431098	0.331605	0.452389
C55	C	0.927761	-0.310355	-0.027191
C56	C	1.427761	0.189645	0.472809
C57	C	1.072847	0.265763	-0.038127
C58	C	1.572847	0.765763	0.461873
C59	C	1.160026	0.276799	-0.039711
C60	C	1.660026	0.776799	0.460289
C61	C	0.926465	0.486017	-0.069835
C62	C	1.426465	0.986017	0.430165
C63	C	0.929693	0.623368	-0.089598
C64	C	1.429693	1.123368	0.410402
N65	N	0.919298	0.275811	0.176749
N66	N	1.419298	0.775811	0.676749
N67	N	0.939567	0.245432	-0.251551
N68	N	1.439567	0.745432	0.248449
C69	C	0.969613	0.200164	0.231333
C70	C	1.469613	0.700164	0.731333
C71	C	0.965532	0.206306	0.317856
C72	C	1.465532	0.706306	0.817856
C73	C	0.911139	0.288104	0.349791
C74	C	1.411139	0.788104	0.849791
C75	C	0.860818	0.363755	0.295200
C76	C	1.360818	0.863755	0.795200
C77	C	0.864896	0.357605	0.208680
C78	C	1.364896	0.857605	0.708680
C79	C	0.893325	0.314933	0.607338
C80	C	1.393325	0.814933	1.107338
C81	C	0.889252	0.321080	0.693864
C82	C	1.389252	0.821080	1.193864
C83	C	0.993966	0.163629	0.716515
C84	C	1.493966	0.663629	1.216515
C85	C	0.998042	0.157492	0.629991
C86	C	1.498042	0.657492	1.129991
C87	C	0.947719	0.233138	0.575408
C88	C	1.447719	0.733138	1.075408
N89	N	0.906967	0.294388	0.438230
N90	N	1.406967	0.794388	0.938230
N91	N	0.951887	0.226847	0.486972
N92	N	1.451887	0.726847	0.986972
H93	H	0.153149	0.480351	-0.069011
H94	H	0.653149	0.980351	0.430989
H95	H	1.042334	0.090886	0.603992
H96	H	1.542334	0.590886	1.103992
H97	H	0.935218	-0.120041	-0.116149
H98	H	1.435218	0.379959	0.383851
H99	H	1.006502	0.144707	0.362299
H100	H	1.506502	0.644707	0.862299
O101	O	0.552016	0.003634	-0.000536
O102	O	1.052016	0.503634	0.499464
C103	C	0.580235	-0.066800	-0.062328
C104	C	1.080235	0.433200	0.437672
H105	H	0.638560	-0.029199	-0.091716
H106	H	1.138560	0.470801	0.408284
H107	H	0.589584	-0.167464	-0.031669
H108	H	1.089584	0.332536	0.468331
H109	H	0.535381	-0.060693	-0.113564
H110	H	1.035381	0.439307	0.386436
H111	H	1.034936	0.102041	0.760964
H112	H	1.534936	0.602041	1.260964
O113	O	0.713489	0.024248	-0.003515
O114	O	1.213489	0.524248	0.496485
C115	C	0.764695	0.018502	-0.074617
C116	C	1.264695	0.518502	0.425383
H117	H	0.771154	0.115325	-0.112528
H118	H	1.271154	0.615325	0.387472
H119	H	0.824920	-0.020322	-0.052857
H120	H	1.324920	0.479678	0.447143
H121	H	0.739421	-0.044141	-0.115958
H122	H	1.239421	0.455859	0.384042
H123	H	0.923632	-0.358703	0.041352
H124	H	1.423632	0.141297	0.541352
O125	O	0.934699	-0.319069	-0.171393
O126	O	1.434699	0.180931	0.328607
C127	C	1.003898	-0.360953	-0.211464
C128	C	1.503898	0.139047	0.288536
H129	H	1.023307	-0.455642	-0.176446
H130	H	1.523307	0.044358	0.323554
H131	H	0.991781	-0.368390	-0.279643
H132	H	1.491781	0.131610	0.220357
H133	H	1.052562	-0.292698	-0.210705
H134	H	1.552562	0.207302	0.289295
O135	O	0.807941	0.443045	0.326337
O136	O	1.307941	0.943045	0.826337
C137	C	0.756334	0.375588	0.386601
C138	C	1.256334	0.875588	0.886601
H139	H	0.785809	0.282913	0.413032
H140	H	1.285809	0.782913	0.913032
H141	H	0.741680	0.430262	0.440195
H142	H	1.241680	0.930262	0.940195
H143	H	0.699783	0.359045	0.355307
H144	H	1.199783	0.859045	0.855307
H145	H	0.844956	0.387695	0.719860
H146	H	1.344956	0.887695	1.219860
H147	H	0.852351	0.376530	0.562903
H148	H	1.352351	0.876530	1.062903
H149	H	0.823923	0.419203	0.164237
H150	H	1.323923	0.919203	0.664237
H151	H	0.330716	0.093987	-0.013403
H152	H	0.830716	0.593987	0.486597
H153	H	0.676739	0.446081	-0.064117
H154	H	1.176739	0.946081	0.435883
H155	H	0.925038	-0.150469	0.083326
H156	H	1.425038	0.349531	0.583326
H157	H	0.301759	0.499178	-0.071741
H158	H	0.801759	0.999178	0.428259
O159	O	1.022474	0.120597	0.200460
O160	O	1.522474	0.620597	0.700460
C161	C	1.066020	0.055168	0.267193
C162	C	1.566020	0.555168	0.767193
H163	H	1.030910	0.054953	0.329532
H164	H	1.530910	0.554953	0.829532
H165	H	1.077969	-0.044118	0.256233
H166	H	1.577969	0.455882	0.756233
H167	H	1.124393	0.101757	0.269774
H168	H	1.624393	0.601757	0.769774
H169	H	0.528141	0.427256	-0.061393
H170	H	1.028141	0.927256	0.438607
H171	H	0.182118	0.075165	-0.010694
H172	H	0.682118	0.575165	0.489306
