data_functionalizedCrystal
_audit_creation_method	'MofGen! by Chris Wilmer'
_symmetry_space_group_name_H-M	'P1'
_symmetry_Int_Tables_number	1
_symmetry_cell_setting	triclinic
loop_
_symmetry_equiv_pos_as_xyz
  x,y,z
_cell_length_a	14.853558
_cell_length_b	14.421503
_cell_length_c	14.853567
_cell_angle_alpha	90.005344
_cell_angle_beta	96.366968
_cell_angle_gamma	89.992399
loop_
_atom_site_label
_atom_site_type_symbol
_atom_site_fract_x
_atom_site_fract_y
_atom_site_fract_z
O1	O	1.196356	0.077092	-0.117658
O2	O	1.529689	0.410426	0.215676
O3	O	1.863022	0.743759	0.549009
O4	O	0.933895	0.077096	-0.131688
O5	O	1.267228	0.410429	0.201646
O6	O	1.600562	0.743762	0.534979
O7	O	1.072136	0.077097	0.006557
O8	O	1.405469	0.410430	0.339891
O9	O	1.738803	0.743763	0.673224
O10	O	1.058115	0.077091	-0.255903
O11	O	1.391448	0.410425	0.077431
O12	O	1.724781	0.743758	0.410764
O13	O	1.072153	-0.077127	0.006548
O14	O	1.405486	0.256207	0.339882
O15	O	1.738819	0.589540	0.673215
O16	O	0.933912	-0.077128	-0.131697
O17	O	1.267245	0.256206	0.201637
O18	O	1.600578	0.589539	0.534970
O19	O	1.196372	-0.077131	-0.117667
O20	O	1.529706	0.256202	0.215667
O21	O	1.863039	0.589536	0.549000
Cu22	Cu	1.065144	-0.091211	-0.124683
Cu23	Cu	1.398477	0.242122	0.208651
Cu24	Cu	1.731810	0.575455	0.541984
Cu25	Cu	1.065124	0.091176	-0.124672
Cu26	Cu	1.398457	0.424509	0.208661
Cu27	Cu	1.731790	0.757842	0.541995
O28	O	1.058131	-0.077132	-0.255912
O29	O	1.391465	0.256201	0.077422
O30	O	1.724798	0.589535	0.410755
C31	C	0.900314	-0.000015	-0.131058
C32	C	1.233648	0.333318	0.202275
C33	C	1.566981	0.666651	0.535609
C34	C	0.800230	-0.000014	-0.129158
C35	C	1.133564	0.333320	0.204176
C36	C	1.466897	0.666653	0.537509
N37	N	1.065164	-0.219492	-0.124689
N38	N	1.398497	0.113841	0.208644
N39	N	1.731831	0.447174	0.541977
C40	C	0.753201	0.084057	-0.128261
C41	C	1.086534	0.417390	0.205072
C42	C	1.419868	0.750724	0.538405
C43	C	0.753218	-0.084083	-0.128260
C44	C	1.086551	0.249250	0.205073
C45	C	1.419884	0.582583	0.538406
C46	C	0.659184	-0.084085	-0.126470
C47	C	0.992517	0.249248	0.206863
C48	C	1.325851	0.582582	0.540197
C49	C	0.612155	-0.000014	-0.125574
C50	C	0.945488	0.333319	0.207759
C51	C	1.278821	0.666652	0.541093
C52	C	0.659159	0.084058	-0.126468
C53	C	0.992492	0.417391	0.206865
C54	C	1.325826	0.750725	0.540199
C55	C	0.612174	-0.168156	-0.125567
C56	C	0.945507	0.165178	0.207767
C57	C	1.278841	0.498511	0.541100
C58	C	0.518135	-0.168160	-0.123775
C59	C	0.851468	0.165173	0.209558
C60	C	1.184801	0.498506	0.542892
C61	C	0.471103	-0.084089	-0.122885
C62	C	0.804436	0.249245	0.210448
C63	C	1.137769	0.582578	0.543781
C64	C	0.518113	-0.000013	-0.123781
C65	C	0.851446	0.333320	0.209553
C66	C	1.184779	0.666654	0.542886
C67	C	0.471083	0.084058	-0.122884
C68	C	0.804417	0.417391	0.210449
C69	C	1.137750	0.750724	0.543782
C70	C	0.518091	0.168134	-0.123786
C71	C	0.851424	0.501468	0.209547
C72	C	1.184757	0.834801	0.542880
C73	C	0.612127	0.168130	-0.125578
C74	C	0.945460	0.501463	0.207755
C75	C	1.278794	0.834796	0.541088
C76	C	0.377066	-0.084084	-0.121093
C77	C	0.710400	0.249249	0.212240
C78	C	1.043733	0.582582	0.545574
C79	C	0.377041	0.084059	-0.121091
C80	C	0.710375	0.417392	0.212242
C81	C	1.043708	0.750725	0.545576
C82	C	1.129100	-0.469121	-0.060751
C83	C	1.462434	-0.135788	0.272582
C84	C	1.795767	0.197546	0.605916
C85	C	1.047616	-0.530916	-0.043143
C86	C	1.380949	-0.197583	0.290190
C87	C	1.714282	0.135750	0.623524
C88	C	1.065144	-0.408654	-0.124679
C89	C	1.398477	-0.075321	0.208655
C90	C	1.731811	0.258013	0.541988
C91	C	1.146609	-0.530952	-0.142234
C92	C	1.479943	-0.197619	0.191099
C93	C	1.813276	0.135714	0.524433
C94	C	1.065132	-0.591375	-0.124666
C95	C	1.398465	-0.258042	0.208667
C96	C	1.731799	0.075291	0.542001
C97	C	0.983618	-0.469088	-0.107030
C98	C	1.316952	-0.135755	0.226303
C99	C	1.650285	0.197578	0.559637
C100	C	1.082665	-0.469119	-0.206157
C101	C	1.415999	-0.135786	0.127177
C102	C	1.749332	0.197547	0.460510
C103	C	1.001122	-0.530887	-0.188583
C104	C	1.334455	-0.197553	0.144750
C105	C	1.667789	0.135780	0.478084
C106	C	1.065152	-0.303393	-0.124683
C107	C	1.398486	0.029941	0.208650
C108	C	1.731819	0.363274	0.541983
C109	C	1.065114	-0.696634	-0.124662
C110	C	1.398448	-0.363301	0.208672
C111	C	1.731781	-0.029968	0.542005
C112	C	1.229953	-0.000018	-0.118296
C113	C	1.563286	0.333315	0.215037
C114	C	1.896619	0.666649	0.548370
C115	C	1.330037	-0.000013	-0.120197
C116	C	1.663370	0.333320	0.213136
C117	C	1.996704	0.666653	0.546470
C118	C	1.071509	-0.000012	0.040141
C119	C	1.404842	0.333321	0.373475
C120	C	1.738176	0.666654	0.706808
C121	C	1.069605	-0.000004	0.140225
C122	C	1.402939	0.333329	0.473558
C123	C	1.736272	0.666662	0.806892
N124	N	1.065110	0.219457	-0.124658
N125	N	1.398444	0.552790	0.208675
N126	N	1.731777	0.886124	0.542009
C127	C	1.058758	-0.000021	-0.289496
C128	C	1.392092	0.333312	0.043837
C129	C	1.725425	0.666646	0.377171
C130	C	1.060662	-0.000023	-0.389580
C131	C	1.393995	0.333310	-0.056246
C132	C	1.727329	0.666644	0.277087
C133	C	0.979439	-0.000021	0.552756
C134	C	1.312772	0.333313	0.886089
C135	C	1.646106	0.666646	1.219423
C136	C	1.143673	-0.000023	0.574042
C137	C	1.477006	0.333311	0.907376
C138	C	1.810339	0.666644	1.240709
C139	C	1.145463	-0.000017	0.480009
C140	C	1.478796	0.333316	0.813342
C141	C	1.812129	0.666649	1.146675
C142	C	1.064240	-0.000015	0.422344
C143	C	1.397573	0.333318	0.755677
C144	C	1.730906	0.666652	1.089011
C145	C	0.981227	-0.000018	0.458713
C146	C	1.314560	0.333315	0.792047
C147	C	1.647893	0.666649	1.125380
C148	C	1.228474	-0.000024	0.443632
C149	C	1.561808	0.333310	0.776966
C150	C	1.895141	0.666643	1.110299
C151	C	1.230268	-0.000019	0.349593
C152	C	1.563601	0.333314	0.682927
C153	C	1.896934	0.666647	1.016260
C154	C	1.149044	-0.000010	0.291927
C155	C	1.482377	0.333323	0.625260
C156	C	1.815711	0.666656	0.958594
C157	C	1.066027	-0.000012	0.328301
C158	C	1.399361	0.333321	0.661635
C159	C	1.732694	0.666654	0.994968
C160	C	0.984805	-0.000010	0.270637
C161	C	1.318138	0.333323	0.603970
C162	C	1.651471	0.666657	0.937304
C163	C	0.901787	-0.000005	0.307009
C164	C	1.235120	0.333328	0.640343
C165	C	1.568454	0.666661	0.973676
C166	C	0.900003	-0.000009	0.401047
C167	C	1.233336	0.333324	0.734380
C168	C	1.566670	0.666658	1.067713
C169	C	1.150828	-0.000007	0.197890
C170	C	1.484161	0.333327	0.531223
C171	C	1.817495	0.666660	0.864556
C172	C	0.986592	-0.000007	0.176594
C173	C	1.319926	0.333326	0.509927
C174	C	1.653259	0.666659	0.843261
H175	H	0.338756	0.152520	-0.120367
H176	H	0.672089	0.485854	0.212967
H177	H	1.005422	0.819187	0.546300
H178	H	0.650409	0.236580	-0.126311
H179	H	0.983742	0.569914	0.207022
H180	H	1.317076	0.903247	0.540356
H181	H	1.097522	-0.441954	-0.275045
H182	H	1.430856	-0.108621	0.058289
H183	H	1.764189	0.224713	0.391622
H184	H	0.791516	-0.152530	-0.128983
H185	H	1.124849	0.180803	0.204350
H186	H	1.458182	0.514137	0.537684
H187	H	1.215509	-0.558126	-0.157088
H188	H	1.548842	-0.224793	0.176245
H189	H	1.882175	0.108540	0.509578
H190	H	1.297865	-0.000022	0.319987
H191	H	1.631199	0.333312	0.653321
H192	H	1.964532	0.666645	0.986654
H193	H	0.479869	-0.236621	-0.123040
H194	H	0.813203	0.096713	0.210294
H195	H	1.146536	0.430046	0.543627
H196	H	0.479788	0.236585	-0.123052
H197	H	0.813121	0.569918	0.210282
H198	H	1.146454	0.903251	0.543615
H199	H	1.209801	-0.000032	0.620998
H200	H	1.543134	0.333301	0.954331
H201	H	1.876467	0.666635	1.287665
H202	H	0.832414	-0.000006	0.430670
H203	H	1.165748	0.333327	0.764004
H204	H	1.499081	0.666660	1.097337
H205	H	1.294601	-0.000034	0.490589
H206	H	1.627935	0.333299	0.823922
H207	H	1.961268	0.666632	1.157256
H208	H	0.338796	-0.152538	-0.120367
H209	H	0.672129	0.180795	0.212966
H210	H	1.005463	0.514129	0.546299
H211	H	0.650473	-0.236601	-0.126288
H212	H	0.983806	0.096732	0.207045
H213	H	1.317140	0.430065	0.540379
H214	H	1.032784	-0.558062	0.025766
H215	H	1.366118	-0.224728	0.359100
H216	H	1.699451	0.108605	0.692433
H217	H	0.946972	-0.557836	-0.242643
H218	H	1.280305	-0.224502	0.090691
H219	H	1.613638	0.108831	0.424024
H220	H	1.183129	-0.442000	-0.006659
H221	H	1.516463	-0.108667	0.326674
H222	H	1.849796	0.224667	0.660008
H223	H	0.920449	-0.000001	0.129649
H224	H	1.253783	0.333332	0.462982
H225	H	1.587116	0.666665	0.796316
H226	H	0.914703	-0.442029	-0.092098
H227	H	1.248036	-0.108695	0.241235
H228	H	1.581370	0.224638	0.574569
H229	H	0.911848	-0.000013	0.582375
H230	H	1.245182	0.333320	0.915708
H231	H	1.578515	0.666653	1.249042
H232	H	0.791478	0.152510	-0.128999
H233	H	1.124811	0.485843	0.204334
H234	H	1.458145	0.819177	0.537667
H235	H	0.835656	-0.000010	0.260047
H236	H	1.168989	0.333323	0.593380
H237	H	1.502322	0.666657	0.926713
H238	H	1.218419	-0.000016	0.168279
H239	H	1.551753	0.333317	0.501612
H240	H	1.885086	0.666650	0.834946
