data_functionalizedCrystal
_audit_creation_method	'MofGen! by Chris Wilmer'
_symmetry_space_group_name_H-M	'P1'
_symmetry_Int_Tables_number	1
_symmetry_cell_setting	triclinic
loop_
_symmetry_equiv_pos_as_xyz
  x,y,z
_cell_length_a	19.805407
_cell_length_b	13.897448
_cell_length_c	19.805399
_cell_angle_alpha	89.974981
_cell_angle_beta	89.980427
_cell_angle_gamma	90.017692
loop_
_atom_site_label
_atom_site_type_symbol
_atom_site_fract_x
_atom_site_fract_y
_atom_site_fract_z
Zn1	Zn	1.034777	-0.384037	-0.382732
Zn2	Zn	1.034709	-0.545343	-0.269549
Zn3	Zn	0.921591	-0.384064	-0.269556
Zn4	Zn	0.921572	-0.545292	-0.382695
O5	O	0.978162	-0.464684	-0.326133
O6	O	1.129484	-0.405445	-0.367730
O7	O	1.019683	-0.523982	-0.174833
O8	O	0.936642	-0.249079	-0.284588
O9	O	1.129434	-0.523956	-0.284575
O10	O	1.019799	-0.249059	-0.367737
O11	O	0.936576	-0.405490	-0.174839
O12	O	0.826872	-0.405441	-0.284552
O13	O	0.936609	-0.523869	-0.477417
O14	O	0.826858	-0.523894	-0.367675
O15	O	1.019780	-0.405395	-0.477443
O16	O	1.019664	-0.680318	-0.284539
O17	O	0.936543	-0.680280	-0.367668
C18	C	0.802306	-0.464666	-0.326111
C19	C	0.727074	-0.464681	-0.326118
C20	C	0.978113	-0.715298	-0.326113
C21	C	0.978154	-0.822512	-0.326128
C22	C	0.691740	-0.526453	-0.369330
C23	C	0.621052	-0.526454	-0.369339
C24	C	0.585699	-0.464688	-0.326133
C25	C	0.621037	-0.402910	-0.282919
C26	C	0.691725	-0.402904	-0.282913
C27	C	0.335964	-0.402931	-0.282941
C28	C	0.265272	-0.402944	-0.282949
C29	C	0.265292	-0.526481	-0.369367
C30	C	0.335979	-0.526476	-0.369362
C31	C	0.371311	-0.464694	-0.326151
C32	C	0.447960	-0.464692	-0.326142
C33	C	0.509051	-0.464695	-0.326138
C34	C	0.978225	-1.018807	-0.326170
C35	C	0.978183	-0.909575	-0.326149
C36	C	1.154705	-0.464703	-0.326155
C37	C	1.229937	-0.464711	-0.326165
C38	C	0.978200	-0.464623	-0.502676
C39	C	0.978216	-0.464597	-0.577908
C40	C	0.978230	-0.213091	-0.326167
C41	C	0.978259	-0.105877	-0.326182
C42	C	1.021524	-0.402905	-0.613267
C43	C	1.021531	-0.402877	-0.683955
C44	C	0.978233	-0.464547	-0.719283
C45	C	0.934920	-0.526242	-0.683919
C46	C	0.934910	-0.526264	-0.613232
C47	C	0.934958	-0.526152	-0.968993
C48	C	0.934973	-0.526127	-1.039685
C49	C	1.021579	-0.402765	-1.039716
C50	C	1.021570	-0.402787	-0.969029
C51	C	0.978255	-0.464478	-0.933671
C52	C	0.978247	-0.464507	-0.857022
C53	C	0.978244	-0.464524	-0.795931
C54	C	0.978163	-0.464675	-0.150277
C55	C	0.978278	-0.464429	-0.075045
H56	H	0.592286	-0.576756	-0.404526
H57	H	0.899664	-0.576451	-0.712689
H58	H	0.236515	-0.576783	-0.404554
O59	O	0.231033	-0.342845	-0.240958
C60	C	0.277375	-0.288328	-0.202806
H61	H	0.327777	-0.285034	-0.230528
H62	H	0.284866	-0.323546	-0.151354
C63	C	0.187891	-0.189700	-0.159138
C64	C	0.249793	-0.185647	-0.193190
H65	H	0.170877	-0.126362	-0.153204
H66	H	0.156669	-0.226431	-0.184840
H67	H	0.194141	-0.219052	-0.116265
H68	H	0.243541	-0.156306	-0.236065
H69	H	0.281014	-0.148908	-0.167496
O70	O	0.586802	-0.342819	-0.240926
C71	C	0.633149	-0.288313	-0.202773
H72	H	0.683549	-0.285019	-0.230498
H73	H	0.640641	-0.323540	-0.151324
C74	C	0.543672	-0.189684	-0.159091
C75	C	0.605572	-0.185631	-0.193147
H76	H	0.526661	-0.126346	-0.153150
H77	H	0.512447	-0.226408	-0.184794
H78	H	0.549924	-0.219044	-0.116221
H79	H	0.599318	-0.156282	-0.236019
H80	H	0.636797	-0.148900	-0.167451
O81	O	0.370351	-0.586574	-0.411237
C82	C	0.411228	-0.648784	-0.372626
H83	H	0.389902	-0.654653	-0.319312
H84	H	0.464803	-0.618946	-0.370325
C85	C	0.438508	-0.741908	-0.471057
C86	C	0.412312	-0.749123	-0.405578
H87	H	0.439179	-0.803801	-0.491384
H88	H	0.410970	-0.699995	-0.497071
H89	H	0.483151	-0.717040	-0.469130
H90	H	0.367666	-0.773979	-0.407506
H91	H	0.439841	-0.791043	-0.379565
H92	H	0.720520	-0.576753	-0.404511
H93	H	1.056799	-0.352644	-0.712742
H94	H	0.364723	-0.352632	-0.247751
O95	O	0.726126	-0.343037	-0.240902
C96	C	0.766975	-0.397871	-0.197105
H97	H	0.777559	-0.471014	-0.220887
H98	H	0.739711	-0.408375	-0.146934
C99	C	0.821125	-0.254935	-0.155705
C100	C	0.834130	-0.344769	-0.184916
H101	H	0.862549	-0.222179	-0.148183
H102	H	0.793603	-0.217992	-0.185210
H103	H	0.798404	-0.263702	-0.113899
H104	H	0.856843	-0.336001	-0.226725
H105	H	0.861658	-0.381710	-0.155418
O106	O	0.892843	-0.586062	-1.073899
C107	C	0.854620	-0.640533	-1.027534
H108	H	0.852279	-0.601042	-0.977151
H109	H	0.879380	-0.713801	-1.020010
C110	C	0.785461	-0.702911	-1.116994
C111	C	0.782580	-0.654403	-1.055114
H112	H	0.741024	-0.711471	-1.134007
H113	H	0.811214	-0.666216	-1.148232
H114	H	0.806097	-0.763962	-1.110716
H115	H	0.761953	-0.593349	-1.061395
H116	H	0.756822	-0.691088	-1.023878
H117	H	1.056785	-0.352690	-0.584508
H118	H	0.899699	-0.576398	-0.940213
H119	H	1.056830	-0.352573	-0.940268
H120	H	1.056846	-0.352530	-1.068513
O121	O	0.892828	-0.586295	-0.578987
C122	C	0.854606	-0.640712	-0.625324
H123	H	0.882332	-0.644028	-0.675719
H124	H	0.803206	-0.605393	-0.632831
C125	C	0.810779	-0.739313	-0.535826
C126	C	0.844836	-0.743392	-0.597721
H127	H	0.804749	-0.802650	-0.518799
H128	H	0.836528	-0.702649	-0.504607
H129	H	0.767950	-0.709876	-0.542090
H130	H	0.887668	-0.772817	-0.591454
H131	H	0.819094	-0.780063	-0.628938
