data_functionalizedCrystal
_audit_creation_method	'MofGen! by Chris Wilmer'
_symmetry_space_group_name_H-M	'P1'
_symmetry_Int_Tables_number	1
_symmetry_cell_setting	triclinic
loop_
_symmetry_equiv_pos_as_xyz
  x,y,z
_cell_length_a	16.625547
_cell_length_b	16.625545
_cell_length_c	12.759393
_cell_angle_alpha	90.032830
_cell_angle_beta	90.026979
_cell_angle_gamma	90.025495
loop_
_atom_site_label
_atom_site_type_symbol
_atom_site_fract_x
_atom_site_fract_y
_atom_site_fract_z
Zn1	Zn	1.232680	-0.320964	0.594172
Zn2	Zn	1.232571	-0.455818	0.418485
Zn3	Zn	1.097837	-0.321003	0.418489
Zn4	Zn	1.097805	-0.455758	0.594104
O5	O	1.165224	-0.388386	0.506313
O6	O	1.345498	-0.338861	0.570894
O7	O	1.214666	-0.437976	0.271465
O8	O	1.115783	-0.208165	0.441824
O9	O	1.345418	-0.437938	0.441818
O10	O	1.214852	-0.208137	0.570898
O11	O	1.115677	-0.338928	0.271467
O12	O	0.985001	-0.338870	0.441758
O13	O	1.115729	-0.437836	0.741134
O14	O	0.984977	-0.437874	0.570781
O15	O	1.214821	-0.338803	0.741184
O16	O	1.214635	-0.568643	0.441751
O17	O	1.115623	-0.568598	0.570778
C18	C	0.955733	-0.388370	0.506263
C19	C	0.866112	-0.388383	0.506267
C20	C	0.793329	-0.388384	0.506280
C21	C	0.702021	-0.388389	0.506306
C22	C	0.629244	-0.388396	0.506333
C23	C	0.537930	-0.388402	0.506358
C24	C	1.165136	-0.597877	0.506280
C25	C	1.165172	-0.687498	0.506301
C26	C	1.165204	-0.760280	0.506321
C27	C	1.165250	-0.851589	0.506345
C28	C	1.165292	-0.924365	0.506358
C29	C	1.165338	-1.015679	0.506380
C30	C	1.375532	-0.388402	0.506363
C31	C	1.465153	-0.388409	0.506385
C32	C	1.165284	-0.388308	0.780346
C33	C	1.165310	-0.388275	0.897123
C34	C	1.165333	-0.178077	0.506369
C35	C	1.165380	-0.088456	0.506393
C36	C	1.165210	-0.388405	0.233345
C37	C	1.165340	-0.388211	0.116569
C38	C	1.216911	-0.336701	0.952013
C39	C	1.216924	-0.336666	1.061737
C40	C	1.113734	-0.439787	1.061672
C41	C	1.113716	-0.439817	0.951950
H42	H	1.258919	-0.294730	0.907376
H43	H	1.258942	-0.294668	1.106423
H44	H	1.071730	-0.481753	1.106325
Cl45	Cl	1.048836	-0.504655	0.882940
