data_functionalizedCrystal
_audit_creation_method	'MofGen! by Chris Wilmer'
_symmetry_space_group_name_H-M	'P1'
_symmetry_Int_Tables_number	1
_symmetry_cell_setting	triclinic
loop_
_symmetry_equiv_pos_as_xyz
  x,y,z
_cell_length_a	29.839131
_cell_length_b	18.215407
_cell_length_c	29.839125
_cell_angle_alpha	90.010341
_cell_angle_beta	89.982291
_cell_angle_gamma	89.962959
loop_
_atom_site_label
_atom_site_type_symbol
_atom_site_fract_x
_atom_site_fract_y
_atom_site_fract_z
Zn1	Zn	-0.178969	-1.124933	-0.253986
Zn2	Zn	0.321031	-0.624933	0.246014
Zn3	Zn	-0.254081	-1.124822	-0.178855
Zn4	Zn	0.245919	-0.624822	0.321145
Zn5	Zn	-0.178960	-1.001882	-0.178870
Zn6	Zn	0.321040	-0.501882	0.321130
Zn7	Zn	-0.254067	-1.001796	-0.253959
Zn8	Zn	0.245933	-0.501796	0.246041
O9	O	-0.216519	-1.063358	-0.216418
O10	O	0.283481	-0.563358	0.283582
O11	O	-0.188942	-1.227903	-0.244024
O12	O	0.311058	-0.727903	0.255976
O13	O	-0.244118	-1.108503	-0.115990
O14	O	0.255882	-0.608503	0.384010
O15	O	-0.116094	-1.018287	-0.188852
O16	O	0.383906	-0.518287	0.311148
O17	O	-0.244127	-1.227821	-0.188826
O18	O	0.255873	-0.727821	0.311174
O19	O	-0.116101	-1.108693	-0.244039
O20	O	0.383899	-0.608693	0.255961
O21	O	-0.188927	-1.018179	-0.116001
O22	O	0.311073	-0.518179	0.383999
O23	O	-0.188913	-0.898886	-0.188826
O24	O	0.311087	-0.398886	0.311174
O25	O	-0.244103	-1.018141	-0.316830
O26	O	0.255897	-0.518141	0.183170
O27	O	-0.244094	-0.898823	-0.243994
O28	O	0.255906	-0.398823	0.256006
O29	O	-0.188929	-1.108610	-0.316849
O30	O	0.311071	-0.608610	0.183151
O31	O	-0.316946	-1.108420	-0.188801
O32	O	0.183054	-0.608420	0.311199
O33	O	-0.316936	-1.018034	-0.243979
O34	O	0.183064	-0.518034	0.256021
C35	C	-0.216502	-0.872152	-0.216409
C36	C	0.283498	-0.372152	0.283591
C37	C	-0.216505	-0.790353	-0.216416
C38	C	0.283495	-0.290353	0.283584
C39	C	-0.187826	-0.602201	-0.245202
C40	C	0.312174	-0.102201	0.254798
C41	C	-0.187828	-0.525342	-0.245203
C42	C	0.312172	-0.025342	0.254797
C43	C	-0.245206	-0.525268	-0.187637
C44	C	0.254794	-0.025268	0.312363
C45	C	-0.245201	-0.602125	-0.187634
C46	C	0.254799	-0.102125	0.312366
C47	C	-0.216511	-0.640590	-0.216419
C48	C	0.283489	-0.140590	0.283581
C49	C	-0.216519	-0.486874	-0.216423
C50	C	0.283481	0.013126	0.283577
C51	C	-0.216521	-0.403540	-0.216424
C52	C	0.283479	0.096460	0.283576
C53	C	-0.216508	-0.723929	-0.216417
C54	C	0.283492	-0.223929	0.283583
C55	C	-0.333242	-1.063225	-0.216395
C56	C	0.166758	-0.563225	0.283605
C57	C	-0.383176	-1.063236	-0.216401
C58	C	0.116824	-0.563236	0.283599
C59	C	-0.692812	-1.110508	-0.187728
C60	C	-0.192812	-0.610508	0.312272
C61	C	-0.880485	-1.110599	-0.187746
C62	C	-0.380485	-0.610599	0.312254
O63	O	-0.904744	-1.150686	-0.163350
O64	O	-0.404744	-0.650686	0.336650
N65	N	-0.903961	-1.063511	-0.216451
N66	N	-0.403961	-0.563511	0.283549
C67	C	-0.880516	-1.016400	-0.245157
C68	C	-0.380516	-0.516400	0.254843
O69	O	-0.904790	-0.976356	-0.269577
O70	O	-0.404790	-0.476356	0.230423
C71	C	-0.692844	-1.016314	-0.245142
C72	C	-0.192844	-0.516314	0.254858
C73	C	-0.669370	-1.063400	-0.216431
C74	C	-0.169370	-0.563400	0.283569
C75	C	-0.669339	-1.157591	-0.159020
C76	C	-0.169339	-0.657591	0.340980
C77	C	-0.622423	-1.157565	-0.159014
C78	C	-0.122423	-0.657565	0.340986
C79	C	-0.598981	-1.110456	-0.187717
C80	C	-0.098981	-0.610456	0.312283
C81	C	-0.622455	-1.063374	-0.216425
C82	C	-0.122455	-0.563374	0.283575
C83	C	-0.669399	-0.969207	-0.273849
C84	C	-0.169399	-0.469207	0.226151
C85	C	-0.622478	-0.969191	-0.273844
C86	C	-0.122478	-0.469191	0.226156
C87	C	-0.599005	-1.016277	-0.245133
C88	C	-0.099005	-0.516277	0.254867
C89	C	-0.552097	-1.016239	-0.245122
C90	C	-0.052097	-0.516239	0.254878
N91	N	-0.528622	-1.063327	-0.216416
N92	N	-0.028622	-0.563327	0.283584
C93	C	-0.552063	-1.110436	-0.187713
C94	C	-0.052063	-0.610436	0.312287
C95	C	-0.979046	-1.016448	-0.245163
C96	C	-0.479046	-0.516448	0.254837
C97	C	-1.025964	-1.016469	-0.245166
C98	C	-0.525964	-0.516469	0.254834
C99	C	-1.025930	-1.110669	-0.187755
C100	C	-0.525930	-0.610669	0.312245
C101	C	-0.979012	-1.110644	-0.187750
C102	C	-0.479012	-0.610644	0.312250
C103	C	-0.955571	-1.063536	-0.216457
C104	C	-0.455571	-0.563536	0.283543
C105	C	-0.453538	-1.110377	-0.187703
C106	C	0.046462	-0.610377	0.312297
C107	C	-0.406618	-1.110345	-0.187698
C108	C	0.093382	-0.610345	0.312302
C109	C	-0.406656	-1.016148	-0.245111
C110	C	0.093344	-0.516148	0.254889
C111	C	-0.453572	-1.016177	-0.245114
C112	C	0.046428	-0.516177	0.254886
C113	C	-0.477011	-1.063298	-0.216408
C114	C	0.022989	-0.563298	0.283592
O115	O	-0.527810	-0.976178	-0.269508
O116	O	-0.027810	-0.476178	0.230492
O117	O	-0.527781	-1.150485	-0.163304
O118	O	-0.027781	-0.650485	0.336696
C119	C	-0.739728	-1.110534	-0.187734
C120	C	-0.239728	-0.610534	0.312266
C121	C	-0.763201	-1.063452	-0.216442
C122	C	-0.263201	-0.563452	0.283558
C123	C	-0.739759	-1.016343	-0.245145
C124	C	-0.239759	-0.516343	0.254855
C125	C	-0.810119	-1.063472	-0.216446
C126	C	-0.310119	-0.563472	0.283554
C127	C	-0.833561	-1.110581	-0.187743
C128	C	-0.333561	-0.610581	0.312257
C129	C	-0.810085	-1.157669	-0.159037
C130	C	-0.310085	-0.657669	0.340963
C131	C	-0.763170	-1.157643	-0.159032
C132	C	-0.263170	-0.657643	0.340968
C133	C	-0.763235	-0.969255	-0.273851
C134	C	-0.263235	-0.469255	0.226149
C135	C	-0.810151	-0.969284	-0.273854
C136	C	-0.310151	-0.469284	0.226146
C137	C	-0.833593	-1.016393	-0.245151
C138	C	-0.333593	-0.516393	0.254849
C139	C	-0.099341	-1.063512	-0.216450
C140	C	0.400659	-0.563512	0.283550
C141	C	-0.049406	-1.063577	-0.216464
C142	C	0.450594	-0.563577	0.283536
C143	C	-0.216515	-1.063378	-0.333596
C144	C	0.283485	-0.563378	0.166404
C145	C	-0.216513	-1.063387	-0.383530
C146	C	0.283487	-0.563387	0.116470
C147	C	-0.216532	-0.255311	-0.216426
C148	C	0.283468	0.244689	0.283574
C149	C	-0.216525	-0.337110	-0.216426
C150	C	0.283475	0.162890	0.283574
C151	C	-0.187709	-1.110543	-0.693187
C152	C	0.312291	-0.610543	-0.193187
C153	C	-0.187671	-1.110580	-0.880860
C154	C	0.312329	-0.610580	-0.380860
O155	O	-0.163223	-1.150619	-0.905136
O156	O	0.336777	-0.650619	-0.405136
N157	N	-0.216393	-1.063484	-0.904316
N158	N	0.283607	-0.563484	-0.404316
C159	C	-0.245125	-1.016373	-0.880850
C160	C	0.254875	-0.516373	-0.380850
O161	O	-0.269551	-0.976311	-0.905107
O162	O	0.230449	-0.476311	-0.405107
C163	C	-0.245161	-1.016334	-0.693178
C164	C	0.254839	-0.516334	-0.193178
C165	C	-0.216440	-1.063437	-0.669725
C166	C	0.283560	-0.563437	-0.169725
C167	C	-0.158990	-1.157642	-0.669734
C168	C	0.341010	-0.657642	-0.169734
C169	C	-0.159001	-1.157636	-0.622818
C170	C	0.340999	-0.657636	-0.122818
C171	C	-0.187732	-1.110530	-0.599356
C172	C	0.312268	-0.610530	-0.099356
C173	C	-0.216451	-1.063430	-0.622809
C174	C	0.283549	-0.563430	-0.122809
C175	C	-0.273890	-0.969219	-0.669713
C176	C	0.226110	-0.469219	-0.169713
C177	C	-0.273896	-0.969212	-0.622792
C178	C	0.226104	-0.469212	-0.122792
C179	C	-0.245175	-1.016316	-0.599339
C180	C	0.254825	-0.516316	-0.099339
C181	C	-0.245193	-1.016318	-0.552431
C182	C	0.254807	-0.516318	-0.052431
N183	N	-0.216471	-1.063413	-0.528976
N184	N	0.283529	-0.563413	-0.028976
C185	C	-0.187740	-1.110519	-0.552438
C186	C	0.312260	-0.610519	-0.052438
C187	C	-0.245105	-1.016398	-0.979381
C188	C	0.254895	-0.516398	-0.479381
C189	C	-0.245097	-1.016409	-1.026299
C190	C	0.254903	-0.516409	-0.526299
C191	C	-0.187641	-1.110615	-1.026305
C192	C	0.312359	-0.610615	-0.526305
C193	C	-0.187652	-1.110607	-0.979387
C194	C	0.312348	-0.610607	-0.479387
C195	C	-0.216382	-1.063494	-0.955925
C196	C	0.283618	-0.563494	-0.455925
C197	C	-0.187767	-1.110502	-0.453912
C198	C	0.312233	-0.610502	0.046088
C199	C	-0.187783	-1.110493	-0.406993
C200	C	0.312217	-0.610493	0.093007
C201	C	-0.245236	-1.016285	-0.406990
C202	C	0.254764	-0.516285	0.093010
C203	C	-0.245222	-1.016296	-0.453906
C204	C	0.254778	-0.516296	0.046094
C205	C	-0.216484	-1.063407	-0.477366
C206	C	0.283516	-0.563407	0.022634
O207	O	-0.269625	-0.976293	-0.528127
O208	O	0.230375	-0.476293	-0.028127
O209	O	-0.163311	-1.150563	-0.528174
O210	O	0.336689	-0.650563	-0.028174
C211	C	-0.187697	-1.110550	-0.740103
C212	C	0.312303	-0.610550	-0.240103
C213	C	-0.216416	-1.063451	-0.763556
C214	C	0.283584	-0.563451	-0.263556
C215	C	-0.245147	-1.016345	-0.740093
C216	C	0.254853	-0.516345	-0.240093
C217	C	-0.216408	-1.063461	-0.810474
C218	C	0.283592	-0.563461	-0.310474
C219	C	-0.187677	-1.110567	-0.833936
C220	C	0.312323	-0.610567	-0.333936
C221	C	-0.158955	-1.157663	-0.810480
C222	C	0.341045	-0.657663	-0.310480
C223	C	-0.158967	-1.157656	-0.763565
C224	C	0.341033	-0.657656	-0.263565
C225	C	-0.273870	-0.969249	-0.763549
C226	C	0.226130	-0.469249	-0.263549
C227	C	-0.273856	-0.969261	-0.810464
C228	C	0.226144	-0.469261	-0.310464
C229	C	-0.245125	-1.016367	-0.833927
C230	C	0.254875	-0.516367	-0.333927
C231	C	-0.216491	-1.063381	-0.099695
C232	C	0.283509	-0.563381	0.400305
C233	C	-0.216366	-1.063515	-0.049761
C234	C	0.283634	-0.563515	0.450239
H235	H	-0.387507	-1.148688	-0.164317
H236	H	0.112493	-0.648688	0.335683
H237	H	-0.164394	-1.148853	-0.387899
H238	H	0.335606	-0.648853	0.112101
H239	H	-0.268503	-0.978033	-0.960283
H240	H	0.231497	-0.478033	-0.460283
H241	H	-1.045072	-0.978120	-0.268541
H242	H	-0.545072	-0.478120	0.231459
H243	H	-0.297278	-0.930862	-0.688801
H244	H	0.202722	-0.430862	-0.188801
H245	H	-0.472685	-0.977838	-0.268494
H246	H	0.027315	-0.477838	0.231506
H247	H	-0.268560	-0.633382	-0.164193
H248	H	0.231440	-0.133382	0.335807
H249	H	-0.387562	-0.977790	-0.268479
H250	H	0.112438	-0.477790	0.231521
H251	H	-0.164469	-0.494089	-0.268640
H252	H	0.335531	0.005911	0.231360
H253	H	-0.135563	-1.196020	-0.829592
H254	H	0.364437	-0.696020	-0.329592
H255	H	-0.297248	-0.930904	-0.829556
H256	H	0.202752	-0.430904	-0.329556
H257	H	-0.297287	-0.930838	-0.603692
H258	H	0.202713	-0.430838	-0.103692
H259	H	-0.268613	-0.977947	-0.473002
H260	H	0.231387	-0.477947	0.026998
H261	H	-0.472617	-1.148749	-0.164329
H262	H	0.027383	-0.648749	0.335671
H263	H	-0.164248	-1.148971	-1.045416
H264	H	0.335752	-0.648971	-0.545416
H265	H	-0.268489	-0.978061	-1.045390
H266	H	0.231511	-0.478061	-0.545390
H267	H	-0.268564	-0.493941	-0.164202
H268	H	0.231436	0.006059	0.335798
H269	H	-0.164464	-0.633516	-0.268639
H270	H	0.335536	-0.133516	0.231361
H271	H	-0.603314	-1.195908	-0.135637
H272	H	-0.103314	-0.695908	0.364363
H273	H	-0.744061	-1.195985	-0.135653
H274	H	-0.244061	-0.695985	0.364347
H275	H	-0.688420	-1.195956	-0.135647
H276	H	-0.188420	-0.695956	0.364353
H277	H	-0.959964	-0.978085	-0.268540
H278	H	-0.459964	-0.478085	0.231460
H279	H	-0.164365	-1.148861	-0.473008
H280	H	0.335635	-0.648861	0.026992
H281	H	-1.045025	-1.149027	-0.164384
H282	H	-0.545025	-0.649027	0.335616
H283	H	-0.959902	-1.148985	-0.164371
H284	H	-0.459902	-0.648985	0.335629
H285	H	-0.135613	-1.195991	-0.603727
H286	H	0.364387	-0.695991	-0.103727
H287	H	-0.268629	-0.977934	-0.387879
H288	H	0.231371	-0.477934	0.112121
H289	H	-0.688503	-0.930861	-0.297227
H290	H	-0.188503	-0.430861	0.202773
H291	H	-0.744152	-0.930894	-0.297224
H292	H	-0.244152	-0.430894	0.202776
H293	H	-0.829180	-1.196024	-0.135666
H294	H	-0.329180	-0.696024	0.364334
H295	H	-0.603395	-0.930831	-0.297222
H296	H	-0.103395	-0.430831	0.202778
H297	H	-0.135591	-1.196002	-0.688832
H298	H	0.364409	-0.696002	-0.188832
H299	H	-0.164264	-1.148962	-0.960294
H300	H	0.335736	-0.648962	-0.460294
H301	H	-0.135579	-1.196012	-0.744473
H302	H	0.364421	-0.696012	-0.244473
H303	H	-0.297267	-0.930890	-0.744451
H304	H	0.202733	-0.430890	-0.244451
H305	H	-0.829259	-0.930935	-0.297233
H306	H	-0.329259	-0.430935	0.202767
