data_functionalizedCrystal
_audit_creation_method	'MofGen! by Chris Wilmer'
_symmetry_space_group_name_H-M	'P1'
_symmetry_Int_Tables_number	1
_symmetry_cell_setting	triclinic
loop_
_symmetry_equiv_pos_as_xyz
  x,y,z
_cell_length_a	13.185408
_cell_length_b	8.140239
_cell_length_c	9.065218
_cell_angle_alpha	89.998670
_cell_angle_beta	111.505308
_cell_angle_gamma	89.999043
loop_
_atom_site_label
_atom_site_type_symbol
_atom_site_fract_x
_atom_site_fract_y
_atom_site_fract_z
O1	O	-1.443182	-0.136497	-0.382837
O2	O	-1.127156	-0.136523	-0.233881
O3	O	-1.291701	-0.136506	-0.525713
O4	O	-1.278637	-0.136514	-0.091004
O5	O	-1.291696	0.136721	-0.525713
O6	O	-1.127150	0.136704	-0.233880
O7	O	-1.443176	0.136730	-0.382836
Zn8	Zn	-1.285163	0.180098	-0.308358
Zn9	Zn	-1.285170	-0.179891	-0.308359
O10	O	-1.278631	0.136713	-0.091004
C11	C	-1.086674	0.000087	-0.218779
C12	C	-0.966058	0.000076	-0.173801
C13	C	-1.290443	0.000105	-0.580178
C14	C	-1.286688	0.000096	-0.742463
C15	C	-1.483659	0.000117	-0.397938
C16	C	-1.604275	0.000116	-0.442916
C17	C	-0.897769	0.000070	-0.013654
C18	C	-0.784444	0.000084	0.028611
C19	C	-0.739396	0.000092	-0.089267
C20	C	-0.807685	0.000086	-0.249417
C21	C	-0.921021	0.000085	-0.291686
C22	C	-0.762648	0.000107	-0.367300
C23	C	-0.830936	0.000101	-0.527450
C24	C	-0.944261	0.000099	-0.569711
C25	C	-0.989309	0.000091	-0.451833
C26	C	-0.649311	0.000108	-0.325031
C27	C	-0.672563	0.000122	-0.603063
C28	C	-0.785888	0.000108	-0.645328
N29	N	-1.285166	0.425780	-0.308362
N30	N	-1.285175	-0.425573	-0.308370
C31	C	-1.279889	0.000099	-0.036539
C32	C	-1.283644	0.000096	0.125746
H33	H	-0.593721	0.000115	-0.194635
F34	F	-0.945720	0.000071	0.111781
H35	H	-0.728852	0.000088	0.159005
H36	H	-0.635886	0.000053	-0.699050
F37	F	-1.016936	0.000121	-0.740158
F38	F	-1.109924	0.000067	-0.496808
F39	F	-0.618784	0.000103	-0.044281
H40	H	-0.841504	0.000104	-0.775724
