data_functionalizedCrystal
_audit_creation_method	'MofGen! by Chris Wilmer'
_symmetry_space_group_name_H-M	'P1'
_symmetry_Int_Tables_number	1
_symmetry_cell_setting	triclinic
loop_
_symmetry_equiv_pos_as_xyz
  x,y,z
_cell_length_a	19.121063
_cell_length_b	18.050591
_cell_length_c	18.050582
_cell_angle_alpha	90.023995
_cell_angle_beta	92.415032
_cell_angle_gamma	87.537533
loop_
_atom_site_label
_atom_site_type_symbol
_atom_site_fract_x
_atom_site_fract_y
_atom_site_fract_z
Zn1	Zn	-0.279788	-1.122674	-0.432692
Zn2	Zn	-0.029788	-0.872674	-0.182692
Zn3	Zn	0.220212	-0.622674	0.067308
Zn4	Zn	0.470212	-0.372674	0.317308
Zn5	Zn	-0.397232	-1.117288	-0.313791
Zn6	Zn	-0.147232	-0.867288	-0.063791
Zn7	Zn	0.102768	-0.617288	0.186209
Zn8	Zn	0.352768	-0.367288	0.436209
Zn9	Zn	-0.279785	-0.998493	-0.308497
Zn10	Zn	-0.029785	-0.748493	-0.058497
Zn11	Zn	0.220215	-0.498493	0.191503
Zn12	Zn	0.470215	-0.248493	0.441503
Zn13	Zn	-0.397189	-0.993146	-0.437918
Zn14	Zn	-0.147189	-0.743146	-0.187918
Zn15	Zn	0.102811	-0.493146	0.062082
Zn16	Zn	0.352811	-0.243146	0.312082
O17	O	-0.338498	-1.057900	-0.373225
O18	O	-0.088498	-0.807900	-0.123225
O19	O	0.161502	-0.557900	0.126775
O20	O	0.411502	-0.307900	0.376775
O21	O	-0.295387	-1.225883	-0.416949
O22	O	-0.045387	-0.975883	-0.166949
O23	O	0.204613	-0.725883	0.083051
O24	O	0.454613	-0.475883	0.333051
O25	O	-0.381669	-1.101513	-0.209165
O26	O	-0.131669	-0.851513	0.040835
O27	O	0.118331	-0.601513	0.290835
O28	O	0.368331	-0.351513	0.540835
O29	O	-0.181501	-1.019458	-0.320569
O30	O	0.068499	-0.769458	-0.070569
O31	O	0.318499	-0.519458	0.179431
O32	O	0.568499	-0.269458	0.429431
O33	O	-0.381672	-1.221926	-0.329593
O34	O	-0.131672	-0.971926	-0.079593
O35	O	0.118328	-0.721926	0.170407
O36	O	0.368328	-0.471926	0.420407
O37	O	-0.181503	-1.110693	-0.411815
O38	O	0.068497	-0.860693	-0.161815
O39	O	0.318497	-0.610693	0.088185
O40	O	0.568497	-0.360693	0.338185
O41	O	-0.295381	-1.014235	-0.205275
O42	O	-0.045381	-0.764235	0.044725
O43	O	0.204619	-0.514235	0.294725
O44	O	0.454619	-0.264235	0.544725
O45	O	-0.295339	-0.893860	-0.325636
O46	O	-0.045339	-0.643860	-0.075636
O47	O	0.204661	-0.393860	0.174364
O48	O	0.454661	-0.143860	0.424364
O49	O	-0.381598	-1.010345	-0.541149
O50	O	-0.131598	-0.760345	-0.291149
O51	O	0.118402	-0.510345	-0.041149
O52	O	0.368402	-0.260345	0.208851
O53	O	-0.381595	-0.889932	-0.420721
O54	O	-0.131595	-0.639932	-0.170721
O55	O	0.118405	-0.389932	0.079279
O56	O	0.368405	-0.139932	0.329279
O57	O	-0.295345	-1.105508	-0.537309
O58	O	-0.045345	-0.855508	-0.287309
O59	O	0.204655	-0.605508	-0.037309
O60	O	0.454655	-0.355508	0.212691
O61	O	-0.495511	-1.096328	-0.334660
O62	O	-0.245511	-0.846328	-0.084660
O63	O	0.004489	-0.596328	0.165340
O64	O	0.254489	-0.346328	0.415340
O65	O	-0.495479	-1.005122	-0.425855
O66	O	-0.245479	-0.755122	-0.175855
O67	O	0.004521	-0.505122	0.074145
O68	O	0.254521	-0.255122	0.324145
C69	C	-0.338463	-0.864950	-0.373172
C70	C	-0.088463	-0.614950	-0.123172
C71	C	0.161537	-0.364950	0.126828
C72	C	0.411537	-0.114950	0.376828
C73	C	-0.338465	-0.782404	-0.373167
C74	C	-0.088465	-0.532404	-0.123167
C75	C	0.161535	-0.282404	0.126833
C76	C	0.411535	-0.032404	0.376833
C77	C	-0.520979	-1.049581	-0.381416
C78	C	-0.270979	-0.799581	-0.131416
C79	C	-0.020979	-0.549581	0.118584
C80	C	0.229021	-0.299581	0.368584
C81	C	-0.599045	-1.046089	-0.384944
C82	C	-0.349045	-0.796089	-0.134944
C83	C	-0.099045	-0.546089	0.115056
C84	C	0.150955	-0.296089	0.365056
C85	C	-0.291494	-0.585071	-0.321561
C86	C	-0.041494	-0.335071	-0.071561
C87	C	0.208506	-0.085071	0.178439
C88	C	0.458506	0.164929	0.428439
C89	C	-0.355552	-0.532762	-0.306167
C90	C	-0.105552	-0.282762	-0.056167
C91	C	0.144448	-0.032762	0.193833
C92	C	0.394448	0.217238	0.443833
C93	C	-0.338479	-0.631273	-0.373193
C94	C	-0.088479	-0.381273	-0.123193
C95	C	0.161521	-0.131273	0.126807
C96	C	0.411521	0.118727	0.376807
C97	C	-0.274436	-0.536499	-0.388578
C98	C	-0.024436	-0.286499	-0.138578
C99	C	0.225564	-0.036499	0.111422
C100	C	0.475564	0.213501	0.361422
C101	C	-0.338486	-0.485287	-0.373217
C102	C	-0.088486	-0.235287	-0.123217
C103	C	0.161514	0.014713	0.126783
C104	C	0.411514	0.264713	0.376783
C105	C	-0.402570	-0.580050	-0.357766
C106	C	-0.152570	-0.330050	-0.107766
C107	C	0.097430	-0.080050	0.142234
C108	C	0.347430	0.169950	0.392234
C109	C	-0.321411	-0.583793	-0.440207
C110	C	-0.071411	-0.333793	-0.190207
C111	C	0.178589	-0.083793	0.059793
C112	C	0.428589	0.166207	0.309793
C113	C	-0.385513	-0.531505	-0.424841
C114	C	-0.135513	-0.281505	-0.174841
C115	C	0.114487	-0.031505	0.075159
C116	C	0.364487	0.218495	0.325159
C117	C	-0.338473	-0.715371	-0.373178
C118	C	-0.088473	-0.465371	-0.123178
C119	C	0.161527	-0.215371	0.126822
C120	C	0.411527	0.034629	0.376822
C121	C	-0.338499	-0.401190	-0.373233
C122	C	-0.088499	-0.151190	-0.123233
C123	C	0.161501	0.098810	0.126767
C124	C	0.411501	0.348810	0.376767
C125	C	-0.635713	-1.091972	-0.339161
C126	C	-0.385713	-0.841972	-0.089161
C127	C	-0.135713	-0.591972	0.160839
C128	C	0.114287	-0.341972	0.410839
C129	C	-0.709065	-1.088693	-0.342484
C130	C	-0.459065	-0.838693	-0.092484
C131	C	-0.209065	-0.588693	0.157516
C132	C	0.040935	-0.338693	0.407516
C133	C	-0.745746	-1.039527	-0.391588
C134	C	-0.495746	-0.789527	-0.141588
C135	C	-0.245746	-0.539527	0.108412
C136	C	0.004254	-0.289527	0.358412
C137	C	-0.709072	-0.993642	-0.437376
C138	C	-0.459072	-0.743642	-0.187376
C139	C	-0.209072	-0.493642	0.062624
C140	C	0.040928	-0.243642	0.312624
C141	C	-0.635722	-0.996925	-0.434056
C142	C	-0.385722	-0.746925	-0.184056
C143	C	-0.135722	-0.496925	0.065944
C144	C	0.114278	-0.246925	0.315944
C145	C	-0.967215	-1.027239	-0.403989
C146	C	-0.717215	-0.777239	-0.153989
C147	C	-0.467215	-0.527239	0.096011
C148	C	-0.217215	-0.277239	0.346011
C149	C	-1.040571	-1.023958	-0.407304
C150	C	-0.790571	-0.773958	-0.157304
C151	C	-0.540571	-0.523958	0.092696
C152	C	-0.290571	-0.273958	0.342696
C153	C	-1.040558	-1.119010	-0.312413
C154	C	-0.790558	-0.869010	-0.062413
C155	C	-0.540558	-0.619010	0.187587
C156	C	-0.290558	-0.369010	0.437587
C157	C	-0.967207	-1.122286	-0.309094
C158	C	-0.717207	-0.872286	-0.059094
C159	C	-0.467207	-0.622286	0.190906
C160	C	-0.217207	-0.372286	0.440906
C161	C	-0.930539	-1.076404	-0.354885
C162	C	-0.680539	-0.826404	-0.104885
C163	C	-0.430539	-0.576404	0.145115
C164	C	-0.180539	-0.326404	0.395115
C165	C	-0.820723	-1.036172	-0.394984
C166	C	-0.570723	-0.786172	-0.144984
C167	C	-0.320723	-0.536172	0.105016
C168	C	-0.070723	-0.286172	0.355016
C169	C	-0.855564	-1.079763	-0.351492
C170	C	-0.605564	-0.829763	-0.101492
C171	C	-0.355564	-0.579763	0.148508
C172	C	-0.105564	-0.329763	0.398508
C173	C	-0.155305	-1.066273	-0.365018
C174	C	0.094695	-0.816273	-0.115018
C175	C	0.344695	-0.566273	0.134982
C176	C	0.594695	-0.316273	0.384982
C177	C	-0.077239	-1.069840	-0.361521
C178	C	0.172761	-0.819840	-0.111521
C179	C	0.422761	-0.569840	0.138479
C180	C	0.672761	-0.319840	0.388479
C181	C	-0.338467	-1.057931	-0.566929
C182	C	-0.088467	-0.807931	-0.316929
C183	C	0.161533	-0.557931	-0.066929
C184	C	0.411533	-0.307931	0.183071
C185	C	-0.338454	-1.057944	-0.649474
C186	C	-0.088454	-0.807944	-0.399474
C187	C	0.161546	-0.557944	-0.149474
C188	C	0.411546	-0.307944	0.100526
C189	C	-0.338522	-0.251605	-0.373264
C190	C	-0.088522	-0.001605	-0.123264
C191	C	0.161478	0.248395	0.126736
C192	C	0.411478	0.498395	0.376736
C193	C	-0.338502	-0.334151	-0.373245
C194	C	-0.088502	-0.084151	-0.123245
C195	C	0.161498	0.165849	0.126755
C196	C	0.411498	0.415849	0.376755
C197	C	-0.385295	-1.006235	-0.851010
C198	C	-0.135295	-0.756235	-0.601010
C199	C	0.114705	-0.506235	-0.351010
C200	C	0.364705	-0.256235	-0.101010
C201	C	-0.402471	-1.073215	-0.901186
C202	C	-0.152471	-0.823215	-0.651186
C203	C	0.097529	-0.573215	-0.401186
C204	C	0.347529	-0.323215	-0.151186
C205	C	-0.338400	-1.057983	-0.800602
C206	C	-0.088400	-0.807983	-0.550602
C207	C	0.161600	-0.557983	-0.300602
C208	C	0.411600	-0.307983	-0.050602
C209	C	-0.321205	-0.991040	-0.897508
C210	C	-0.071205	-0.741040	-0.647508
C211	C	0.178795	-0.491040	-0.397508
C212	C	0.428795	-0.241040	-0.147508
C213	C	-0.338350	-1.058014	-0.946585
C214	C	-0.088350	-0.808014	-0.696585
C215	C	0.161650	-0.558014	-0.446585
C216	C	0.411650	-0.308014	-0.196585
C217	C	-0.355610	-1.124997	-0.849692
C218	C	-0.105610	-0.874997	-0.599692
C219	C	0.144390	-0.624997	-0.349692
C220	C	0.394390	-0.374997	-0.099692
C221	C	-0.274314	-1.042778	-0.846008
C222	C	-0.024314	-0.792778	-0.596008
C223	C	0.225686	-0.542778	-0.346008
C224	C	0.475686	-0.292778	-0.096008
C225	C	-0.291466	-1.109806	-0.896161
C226	C	-0.041466	-0.859806	-0.646161
C227	C	0.208534	-0.609806	-0.396161
C228	C	0.458534	-0.359806	-0.146161
C229	C	-0.338431	-1.057963	-0.716505
C230	C	-0.088431	-0.807963	-0.466505
C231	C	0.161569	-0.557963	-0.216505
C232	C	0.411569	-0.307963	0.033495
C233	C	-0.338319	-1.058041	-1.030680
C234	C	-0.088319	-0.808041	-0.780680
C235	C	0.161681	-0.558041	-0.530680
C236	C	0.411681	-0.308041	-0.280680
C237	C	-0.338479	-1.057915	-0.180272
C238	C	-0.088479	-0.807915	0.069728
C239	C	0.161521	-0.557915	0.319728
C240	C	0.411521	-0.307915	0.569728
C241	C	-0.338294	-1.058055	-0.097718
C242	C	-0.088294	-0.808055	0.152282
C243	C	0.161706	-0.558055	0.402282
C244	C	0.411706	-0.308055	0.652282
H245	H	-0.251807	-0.608518	-0.277856
H246	H	-0.001807	-0.358518	-0.027856
H247	H	0.248193	-0.108518	0.222144
H248	H	0.498193	0.141482	0.472144
H249	H	-0.456749	-0.599185	-0.344700
H250	H	-0.206749	-0.349185	-0.094700
H251	H	0.043251	-0.099185	0.155300
H252	H	0.293251	0.150815	0.405300
H253	H	-0.370194	-1.181637	-0.828755
H254	H	-0.120194	-0.931637	-0.578755
H255	H	0.129806	-0.681637	-0.328755
H256	H	0.379806	-0.431637	-0.078755
H257	H	-0.220280	-0.517234	-0.401556
H258	H	0.029720	-0.267234	-0.151556
H259	H	0.279720	-0.017234	0.098444
H260	H	0.529720	0.232766	0.348444
H261	H	-1.070421	-1.156366	-0.275134
H262	H	-0.820421	-0.906366	-0.025134
H263	H	-0.570421	-0.656366	0.224866
H264	H	-0.320421	-0.406366	0.474866
Cl265	Cl	-0.299082	-0.618389	-0.527663
Cl266	Cl	-0.049082	-0.368389	-0.277663
Cl267	Cl	0.200918	-0.118389	-0.027663
Cl268	Cl	0.450918	0.131611	0.222337
H269	H	-0.306682	-0.934415	-0.918538
H270	H	-0.056682	-0.684415	-0.668538
H271	H	0.193318	-0.434415	-0.418538
H272	H	0.443318	-0.184415	-0.168538
Cl273	Cl	-0.921129	-0.969557	-0.461554
Cl274	Cl	-0.671129	-0.719557	-0.211554
Cl275	Cl	-0.421129	-0.469557	0.038446
Cl276	Cl	-0.171129	-0.219557	0.288446
H277	H	-0.825696	-1.119797	-0.311515
H278	H	-0.575696	-0.869797	-0.061515
H279	H	-0.325696	-0.619797	0.188485
H280	H	-0.075696	-0.369797	0.438485
H281	H	-0.937343	-1.162321	-0.269110
H282	H	-0.687343	-0.912321	-0.019110
H283	H	-0.437343	-0.662321	0.230890
H284	H	-0.187343	-0.412321	0.480890
Cl285	Cl	-0.377853	-0.498192	-0.218687
Cl286	Cl	-0.127853	-0.248192	0.031313
Cl287	Cl	0.122147	0.001808	0.281313
Cl288	Cl	0.372147	0.251808	0.531313
Cl289	Cl	-0.446930	-0.495503	-0.492274
Cl290	Cl	-0.196930	-0.245503	-0.242274
Cl291	Cl	0.053070	0.004497	0.007726
Cl292	Cl	0.303070	0.254497	0.257726
Cl293	Cl	-0.589624	-0.939244	-0.491617
Cl294	Cl	-0.339624	-0.689244	-0.241617
Cl295	Cl	-0.089624	-0.439244	0.008383
Cl296	Cl	0.160376	-0.189244	0.258383
H297	H	-0.605852	-1.132005	-0.299173
H298	H	-0.355852	-0.882005	-0.049173
H299	H	-0.105852	-0.632005	0.200827
H300	H	0.144148	-0.382005	0.450827
H301	H	-0.456645	-1.086095	-0.925327
H302	H	-0.206645	-0.836095	-0.675327
H303	H	0.043355	-0.586095	-0.425327
H304	H	0.293355	-0.336095	-0.175327
H305	H	-0.251787	-1.153630	-0.915917
H306	H	-0.001787	-0.903630	-0.665917
H307	H	0.248213	-0.653630	-0.415917
H308	H	0.498213	-0.403630	-0.165917
Cl309	Cl	-0.755160	-1.146380	-0.284928
Cl310	Cl	-0.505160	-0.896380	-0.034928
Cl311	Cl	-0.255160	-0.646380	0.215072
Cl312	Cl	-0.005160	-0.396380	0.465072
Cl313	Cl	-1.086683	-0.962134	-0.469029
Cl314	Cl	-0.836683	-0.712134	-0.219029
Cl315	Cl	-0.586683	-0.462134	0.030971
Cl316	Cl	-0.336683	-0.212134	0.280971
Cl317	Cl	-0.190696	-1.022862	-0.808708
Cl318	Cl	0.059304	-0.772862	-0.558708
Cl319	Cl	0.309304	-0.522862	-0.308708
Cl320	Cl	0.559304	-0.272862	-0.058708
H321	H	-0.738944	-0.953613	-0.477361
H322	H	-0.488944	-0.703613	-0.227361
H323	H	-0.238944	-0.453613	0.022639
H324	H	0.011056	-0.203613	0.272639
H325	H	-0.850597	-0.996139	-0.434963
H326	H	-0.600597	-0.746139	-0.184963
H327	H	-0.350597	-0.496139	0.065037
H328	H	-0.100597	-0.246139	0.315037
H329	H	-0.425003	-0.962510	-0.831119
H330	H	-0.175003	-0.712510	-0.581119
H331	H	0.074997	-0.462510	-0.331119
H332	H	0.324997	-0.212510	-0.081119
