data_functionalizedCrystal
_audit_creation_method	'MofGen! by Chris Wilmer'
_symmetry_space_group_name_H-M	'P1'
_symmetry_Int_Tables_number	1
_symmetry_cell_setting	triclinic
loop_
_symmetry_equiv_pos_as_xyz
  x,y,z
_cell_length_a	31.640172
_cell_length_b	14.560438
_cell_length_c	14.560438
_cell_angle_alpha	60.000378
_cell_angle_beta	90.004481
_cell_angle_gamma	60.007621
loop_
_atom_site_label
_atom_site_type_symbol
_atom_site_fract_x
_atom_site_fract_y
_atom_site_fract_z
Zr1	Zr	-0.055455	1.005274	0.884753
O2	O	-0.122934	1.196854	0.738105
O3	O	-0.034770	0.813680	0.929708
O4	O	-0.122936	1.005257	0.929706
O5	O	0.034780	1.005297	0.738110
O6	O	-0.122937	1.005259	1.080844
O7	O	-0.034768	1.005278	0.738107
O8	O	0.034776	0.662564	1.080848
O9	O	-0.122933	1.347992	0.738105
O10	O	-0.025947	0.892493	1.061674
O11	O	0.025956	0.892505	0.948883
O12	O	-0.077848	1.118062	0.948880
O13	O	-0.025945	1.118074	0.836089
Zr14	Zr	0.055466	1.005309	1.125804
Zr15	Zr	-0.055456	1.005279	1.125801
Zr16	Zr	0.055466	1.005305	0.884756
Zr17	Zr	-0.055453	1.246322	0.884753
Zr18	Zr	0.055464	0.764261	1.125804
O19	O	0.034781	1.196903	1.080849
O20	O	-0.122935	1.196860	1.080844
O21	O	0.034782	1.196897	0.738110
O22	O	0.122945	0.813729	1.272452
O23	O	-0.034771	0.813686	1.272447
O24	O	0.122946	0.813723	0.929713
O25	O	-0.034770	1.005287	1.272448
O26	O	0.122947	1.005327	1.080852
O27	O	0.122947	1.005324	0.929713
O28	O	0.034779	1.005306	1.272450
O29	O	-0.122933	1.347995	0.929706
O30	O	0.122944	0.662588	1.080851
O31	O	0.122943	0.662591	1.272452
O32	O	0.034776	0.662567	1.272449
O33	O	-0.034765	1.348016	0.738108
O34	O	-0.034766	1.348020	0.929709
O35	O	0.077859	0.892521	1.061677
O36	O	0.025955	0.892509	1.174468
O37	O	-0.025945	1.118078	1.061675
O38	O	0.025958	1.118090	0.948883
C39	C	0.000003	0.703778	1.005278
C40	C	0.000002	0.601447	1.005278
C41	C	-0.027091	0.553364	1.064151
C42	C	-0.027087	0.457205	1.064156
C43	C	0.027105	0.457223	0.946404
C44	C	0.027103	0.553374	0.946407
C45	C	-0.138741	1.005254	1.005274
C46	C	-0.185830	1.005241	1.005273
C47	C	-0.504956	1.123049	0.946412
C48	C	-0.681952	1.123071	0.946413
O49	O	-0.727878	1.223209	0.896381
N50	N	-0.676990	1.005327	1.005288
C51	C	-0.627775	0.887569	1.064173
O52	O	-0.627616	0.787422	1.114260
C53	C	-0.450781	0.887548	1.064178
C54	C	-0.455747	1.005300	1.005289
C55	C	-0.509920	1.240791	0.887529
C56	C	-0.465673	1.240784	0.887525
C57	C	-0.416463	1.123035	0.946402
C58	C	-0.411500	1.005293	1.005285
C59	C	-0.401567	0.769792	1.123069
C60	C	-0.357318	0.769797	1.123067
C61	C	-0.362284	0.887549	1.064179
C62	C	-0.318044	0.887537	1.064158
N63	N	-0.323005	1.005281	1.005283
C64	C	-0.372215	1.123030	0.946405
C65	C	-0.720702	0.887589	1.064165
C66	C	-0.764950	0.887594	1.064162
C67	C	-0.819124	1.123096	0.946403
C68	C	-0.774874	1.123090	0.946400
C69	C	-0.725663	1.005333	1.005290
C70	C	-0.279292	1.123007	0.946399
C71	C	-0.235039	1.122990	0.946395
C72	C	-0.180870	0.887488	1.064158
C73	C	-0.225119	0.887505	1.064157
C74	C	-0.274331	1.005275	1.005275
O75	O	-0.272102	0.787452	1.114174
O76	O	-0.372363	1.223163	0.896346
C77	C	-0.549203	1.123055	0.946416
C78	C	-0.544239	1.005314	1.005299
C79	C	-0.495030	0.887565	1.064177
C80	C	-0.588488	1.005318	1.005296
C81	C	-0.637698	1.123067	0.946419
C82	C	-0.642659	1.240811	0.887543
C83	C	-0.598413	1.240804	0.887539
C84	C	-0.490068	0.769821	1.123052
C85	C	-0.534317	0.769837	1.123051
C86	C	-0.583527	0.887586	1.064173
C87	C	0.138751	1.005330	1.005283
C88	C	0.185840	1.005343	1.005284
C89	C	0.000006	1.005287	0.703764
C90	C	0.000007	1.005285	0.601433
C91	C	0.000008	1.306806	1.005279
C92	C	0.000009	1.409137	1.005279
C93	C	0.027096	0.887542	0.612232
C94	C	0.027097	0.887548	0.516077
C95	C	-0.027087	1.123050	0.398328
C96	C	-0.027084	1.123043	0.494481
C97	C	0.000004	1.005297	1.306793
C98	C	0.000004	1.005299	1.409124
C99	C	0.000002	0.703783	1.306793
C100	C	0.000000	0.601454	1.409124
C101	C	0.138749	0.703816	1.005282
C102	C	0.185837	0.601498	1.005284
C103	C	0.138747	0.703821	1.306797
C104	C	0.185835	0.601505	1.409129
C105	C	-0.138737	1.306762	0.703761
C106	C	-0.185825	1.409079	0.601428
C107	C	0.000009	1.306800	0.703765
C108	C	0.000010	1.409130	0.601434
C109	C	-0.138738	1.306768	1.005275
C110	C	-0.185826	1.409086	1.005274
C111	C	0.235047	0.553457	1.064162
C112	C	0.279296	0.457331	1.064159
C113	C	0.274333	0.409242	1.005283
C114	C	0.225117	0.457293	0.946398
C115	C	0.180870	0.553423	0.946395
C116	C	0.180855	0.553449	1.516072
C117	C	0.225095	0.457326	1.612233
C118	C	0.274314	0.409252	1.601450
C119	C	0.279294	0.457317	1.494496
C120	C	0.235054	0.553446	1.398337
C121	C	-0.180845	1.457146	0.494486
C122	C	-0.225084	1.553299	0.398324
C123	C	-0.274304	1.601378	0.409108
C124	C	-0.279283	1.553307	0.516061
C125	C	-0.235044	1.457161	0.612220
C126	C	-0.180847	1.457144	1.064161
C127	C	-0.225087	1.553270	1.064181
C128	C	-0.274306	1.601342	1.005308
C129	C	-0.279284	1.553275	0.946420
C130	C	-0.235045	1.457144	0.946406
C131	C	-0.027092	0.553368	1.398324
C132	C	-0.027095	0.457227	1.494479
C133	C	0.027091	0.457261	1.612229
C134	C	0.027090	0.553407	1.516075
H135	H	-0.049147	0.418057	1.112098
H136	H	0.319365	0.418220	1.112114
H137	H	-0.319363	1.592465	0.524828
Cl138	Cl	-0.241287	1.271031	0.872350
H139	H	0.049147	0.418128	1.699319
Cl140	Cl	-0.329917	1.722199	1.005332
Cl141	Cl	0.061149	0.613868	1.529653
Cl142	Cl	-0.218813	1.613706	0.263883
H143	H	0.049157	0.791671	0.524880
H144	H	-0.221023	1.592397	1.112134
H145	H	0.221032	0.418201	1.699311
H146	H	-0.319365	1.592430	0.898487
H147	H	-0.140772	1.418006	0.485684
Cl148	Cl	0.341173	0.396866	1.480959
H149	H	-0.049155	0.592496	1.311243
H150	H	-0.239106	1.418025	0.898449
H151	H	-0.239105	1.418026	0.699295
H152	H	0.140782	0.592576	1.524873
Cl153	Cl	0.061170	0.613817	0.872397
H154	H	-0.049157	0.418082	1.485676
Cl155	Cl	-0.341153	1.271062	0.872373
Cl156	Cl	-0.061159	0.613790	1.138166
H157	H	0.049170	0.418072	0.898472
H158	H	-0.469723	1.336669	0.839577
H159	H	-0.140774	1.418018	1.112102
H160	H	-0.549986	1.336681	0.839584
H161	H	0.140802	0.592526	0.898453
Cl162	Cl	0.061155	0.739505	0.746682
H163	H	-0.778923	1.218973	0.898447
H164	H	-0.049142	1.218929	0.485680
H165	H	-0.397513	0.673906	1.171023
H166	H	-0.859199	1.218972	0.898458
H167	H	-0.760901	0.791709	1.112100
Cl168	Cl	0.241324	0.613838	1.263899
H169	H	-0.317249	0.673903	1.171024
Cl170	Cl	-0.658839	0.739536	1.138180
Cl171	Cl	-0.061143	1.271080	0.263872
H172	H	-0.221074	0.791622	1.112093
Cl173	Cl	0.241300	0.613888	1.138188
Cl174	Cl	0.329964	0.288389	1.005300
H175	H	0.221084	0.418125	0.898463
H176	H	-0.140796	0.791620	1.112092
Cl177	Cl	-0.604664	1.388843	0.813496
H178	H	0.310333	0.330978	1.679758
H179	H	-0.682735	1.336686	0.839597
Cl180	Cl	-0.528065	0.621791	1.197083
H181	H	-0.450002	0.673934	1.171000
Cl182	Cl	-0.329915	1.722245	0.288209
