data_functionalizedCrystal
_audit_creation_method	'MofGen! by Chris Wilmer'
_symmetry_space_group_name_H-M	'P1'
_symmetry_Int_Tables_number	1
_symmetry_cell_setting	triclinic
loop_
_symmetry_equiv_pos_as_xyz
  x,y,z
_cell_length_a	10.654550
_cell_length_b	9.065218
_cell_length_c	9.130313
_cell_angle_alpha	90.000552
_cell_angle_beta	89.996220
_cell_angle_gamma	84.750394
loop_
_atom_site_label
_atom_site_type_symbol
_atom_site_fract_x
_atom_site_fract_y
_atom_site_fract_z
O1	O	1.668655	0.207228	-0.121914
O2	O	1.303255	0.226972	-0.121889
O3	O	1.493507	0.002416	-0.121899
O4	O	1.478402	0.431784	-0.121904
O5	O	1.493505	0.002422	0.121700
O6	O	1.303252	0.226978	0.121709
O7	O	1.668653	0.207234	0.121685
Cu8	Cu	1.485952	0.217107	0.143940
Cu9	Cu	1.485955	0.217100	-0.144144
O10	O	1.478400	0.431790	0.121695
C11	C	1.256450	0.225525	-0.000087
C12	C	1.116989	0.221188	-0.000078
C13	C	1.038027	0.353403	-0.000101
C14	C	0.906990	0.349319	-0.000126
C15	C	0.933890	0.080793	-0.000112
C16	C	1.064925	0.084879	-0.000076
C17	C	1.022496	0.508434	-0.000115
C18	C	0.891459	0.504350	-0.000141
C19	C	1.492055	-0.052559	-0.000102
C20	C	1.487714	-0.216378	-0.000109
C21	C	1.715457	0.208681	-0.000120
C22	C	1.854918	0.213018	-0.000139
C23	C	1.479852	0.486766	-0.000106
C24	C	1.484193	0.650585	-0.000108
N25	N	1.485959	0.217111	0.346563
N26	N	1.485957	0.217084	-0.346767
C27	C	1.570225	0.117712	0.423210
C28	C	1.570222	0.117694	0.576547
C29	C	1.401682	0.316488	0.576575
C30	C	1.401681	0.316497	0.423241
C31	C	1.667534	0.002944	0.423195
C32	C	1.667531	0.002926	0.576532
H33	H	0.845972	0.551205	0.105027
H34	H	1.636593	-0.104243	0.624083
N35	N	0.836472	0.581717	-0.135181
H36	H	0.906449	0.619178	-0.195430
H37	H	0.790974	0.509758	-0.195332
H38	H	1.333054	0.397423	0.360836
N39	N	1.061689	0.588738	0.134924
H40	H	1.105418	0.678261	0.104880
H41	H	0.984612	0.621528	0.195111
N42	N	1.069988	0.573816	-0.139427
H43	H	1.030236	0.678600	-0.151439
H44	H	1.164633	0.574332	-0.134236
H45	H	0.891483	-0.030185	-0.000133
N46	N	1.638541	-0.147271	0.368055
H47	H	1.552957	-0.169749	0.404893
H48	H	1.638606	-0.147219	0.257439
N49	N	1.310782	0.423674	0.659278
H50	H	1.323565	0.408584	0.768046
H51	H	1.326470	0.528510	0.632488
H52	H	1.764142	0.028206	0.618142
N53	N	1.150093	-0.057722	-0.000014
H54	H	1.097224	-0.144688	-0.000016
H55	H	1.205078	-0.061900	-0.090298
N56	N	1.788499	0.050541	0.360172
H57	H	1.846949	0.073529	0.442501
H58	H	1.830271	-0.031958	0.297870
