data_functionalizedCrystal
_audit_creation_method	'MofGen! by Chris Wilmer'
_symmetry_space_group_name_H-M	'P1'
_symmetry_Int_Tables_number	1
_symmetry_cell_setting	triclinic
loop_
_symmetry_equiv_pos_as_xyz
  x,y,z
_cell_length_a	15.712078
_cell_length_b	15.538191
_cell_length_c	7.681481
_cell_angle_alpha	86.544245
_cell_angle_beta	97.432906
_cell_angle_gamma	83.426622
loop_
_atom_site_label
_atom_site_type_symbol
_atom_site_fract_x
_atom_site_fract_y
_atom_site_fract_z
O1	O	0.990718	0.471697	-0.146725
O2	O	0.759371	0.406980	-0.146653
O3	O	0.920078	0.317726	-0.146712
O4	O	0.830012	0.560951	-0.146667
O5	O	0.939870	0.306704	0.146139
O6	O	0.779163	0.395958	0.146197
O7	O	1.010510	0.460675	0.146125
Zn8	Zn	0.897979	0.426566	0.192658
Zn9	Zn	0.871903	0.441088	-0.193186
O10	O	0.849804	0.549929	0.146183
C11	C	0.740382	0.390896	-0.000219
C12	C	0.654315	0.359383	-0.000193
C13	C	0.939397	0.280366	-0.000295
C14	C	0.967465	0.185465	-0.000321
C15	C	0.203273	0.626931	-0.000265
C16	C	0.122405	0.597303	-0.000315
C17	C	0.189599	0.448836	-0.000346
C18	C	0.270475	0.478452	-0.000305
C19	C	0.277305	0.567500	-0.000263
C20	C	0.344506	0.419021	-0.000303
C21	C	0.425375	0.448635	-0.000253
C22	C	0.432213	0.537679	-0.000206
C23	C	0.358174	0.597114	-0.000213
C24	C	0.337676	0.329973	-0.000333
C25	C	0.411707	0.270542	-0.000330
C26	C	0.492577	0.300156	-0.000293
C27	C	0.499415	0.389200	-0.000246
C28	C	0.566617	0.240721	-0.000285
C29	C	0.647486	0.270335	-0.000236
C30	C	0.580284	0.418814	-0.000196
C31	C	0.688607	-0.198410	-0.000197
C32	C	0.715002	-0.287581	-0.000201
C33	C	0.863468	-0.258870	-0.000248
C34	C	0.837084	-0.169694	-0.000253
C35	C	0.749653	-0.139471	-0.000225
C36	C	0.898130	-0.110755	-0.000281
C37	C	0.871749	-0.021587	-0.000276
C38	C	0.784323	0.008642	-0.000243
C39	C	0.723272	-0.050304	-0.000220
C40	C	0.985562	-0.140980	-0.000296
C41	C	1.046608	-0.082041	-0.000324
C42	C	1.020227	0.007129	-0.000331
C43	C	0.932800	0.037358	-0.000298
C44	C	1.081277	0.066075	-0.000354
C45	C	1.054896	0.155243	-0.000349
C46	C	0.906419	0.126526	-0.000293
C47	C	1.029499	0.476759	-0.000313
C48	C	1.115565	0.508272	-0.000350
C49	C	0.830484	0.587289	-0.000237
C50	C	0.802416	0.682191	-0.000222
N51	N	0.915781	0.416657	0.455985
N52	N	0.854108	0.450993	-0.456513
H53	H	0.585843	0.491326	-0.000159
N54	N	0.250451	0.298035	-0.000391
H55	H	0.236850	0.265842	-0.108964
H56	H	0.251539	0.257701	0.108228
N57	N	0.957762	-0.291479	-0.000287
H58	H	0.978287	-0.265603	-0.108862
H59	H	0.992902	-0.273764	0.108329
N60	N	1.120734	0.218819	-0.000370
H61	H	1.180124	0.186144	-0.000393
H62	H	1.105683	0.260525	-0.108930
N63	N	0.755870	0.104817	-0.000248
H64	H	0.713032	0.124738	-0.108798
H65	H	0.727746	0.116511	0.108393
H66	H	0.978743	0.381617	0.531168
N67	N	1.140903	-0.114643	-0.000375
H68	H	1.175571	-0.063772	-0.000399
H69	H	1.162425	-0.155096	0.108184
H70	H	0.791155	0.486039	0.468313
N71	N	0.812121	0.159149	-0.000269
H72	H	0.776913	0.141447	-0.108820
H73	H	0.791662	0.133269	0.108372
N74	N	0.519436	0.569621	-0.000139
H75	H	0.544793	0.551704	-0.108693
H76	H	0.512461	0.635045	-0.000042
H77	H	0.363733	0.669625	-0.000176
N78	N	0.404339	0.174500	-0.000353
H79	H	0.341876	0.164755	-0.000378
H80	H	0.425826	0.151348	-0.108916
H81	H	1.152465	0.041453	-0.000359
N82	N	0.559247	0.144679	-0.000292
H83	H	0.496784	0.134937	-0.000309
H84	H	0.580733	0.121520	-0.108851
H85	H	0.208833	0.699442	-0.000228
N86	N	0.182217	0.352797	-0.000399
H87	H	0.203659	0.329590	-0.108963
H88	H	0.218291	0.321465	0.108229
N89	N	0.628969	-0.017695	-0.000219
H90	H	0.594295	-0.068561	-0.000213
H91	H	0.622124	0.014593	0.108346
N92	N	0.042550	0.661409	-0.000352
H93	H	0.059151	0.722312	-0.000329
H94	H	0.000227	0.656441	-0.108948
H95	H	0.617411	-0.173801	-0.000187
N96	N	0.727335	0.206234	-0.000238
H97	H	0.755069	0.219308	-0.108774
H98	H	0.769639	0.211148	0.108418
H99	H	1.007037	-0.213586	-0.000316
N100	N	0.649156	-0.351154	-0.000168
H101	H	0.589768	-0.318474	-0.000149
H102	H	0.649529	-0.384692	-0.108733
