data_functionalizedCrystal
_audit_creation_method	'MofGen! by Chris Wilmer'
_symmetry_space_group_name_H-M	'P1'
_symmetry_Int_Tables_number	1
_symmetry_cell_setting	triclinic
loop_
_symmetry_equiv_pos_as_xyz
  x,y,z
_cell_length_a	14.519709
_cell_length_b	10.654550
_cell_length_c	9.130313
_cell_angle_alpha	90.000110
_cell_angle_beta	90.005376
_cell_angle_gamma	95.917476
loop_
_atom_site_label
_atom_site_type_symbol
_atom_site_fract_x
_atom_site_fract_y
_atom_site_fract_z
O1	O	1.224716	-0.164617	-0.121605
O2	O	0.956339	-0.184004	-0.121649
O3	O	1.096698	0.008488	-0.121620
O4	O	1.084357	-0.357109	-0.121633
O5	O	1.096696	0.008483	0.121978
O6	O	0.956338	-0.184009	0.121950
O7	O	1.224714	-0.164623	0.121994
Cu8	Cu	1.090526	-0.174316	0.144215
Cu9	Cu	1.090528	-0.174310	-0.143869
O10	O	1.084355	-0.357114	0.121966
C11	C	0.921974	-0.183103	0.000145
C12	C	0.819579	-0.180396	0.000128
N13	N	1.090531	-0.174320	0.346837
C14	C	1.095791	0.055275	0.000177
C15	C	1.093080	0.194692	0.000172
C16	C	0.444631	-0.170428	0.000195
C17	C	0.548954	-0.173196	0.000176
C18	C	0.632102	-0.175412	0.000160
C19	C	0.736431	-0.178180	0.000144
C20	C	1.259079	-0.165524	0.000197
C21	C	1.361475	-0.168231	0.000205
C22	C	1.085262	-0.403901	0.000165
C23	C	1.087973	-0.543318	0.000161
C24	C	1.175721	0.274972	0.000190
C25	C	1.173168	0.405968	0.000179
C26	C	1.005326	0.376391	0.000138
C27	C	1.007880	0.245397	0.000138
C28	C	1.260921	0.224266	0.000223
C29	C	1.343569	0.304548	0.000242
C30	C	1.341016	0.435544	0.000232
C31	C	1.255815	0.486259	0.000201
N32	N	1.090530	-0.174297	-0.346492
C33	C	1.152698	-0.089113	0.423502
C34	C	1.152695	-0.089098	0.576839
C35	C	1.028356	-0.259507	0.576833
C36	C	1.028355	-0.259515	0.423499
C37	C	1.214874	-0.003918	0.346840
C38	C	1.277047	0.081295	0.423505
C39	C	1.277044	0.081310	0.576842
C40	C	1.214869	-0.003888	0.653514
H41	H	1.263009	0.117604	0.000236
Cl42	Cl	1.355197	0.188405	0.327122
Cl43	Cl	1.355194	0.188441	0.673219
H44	H	0.977736	-0.328873	0.639269
Cl45	Cl	0.950197	-0.366632	0.327118
H46	H	1.214866	-0.003860	0.778371
Cl47	Cl	0.898225	0.440149	0.000104
Cl48	Cl	1.450672	0.240794	0.000261
Cl49	Cl	1.252609	0.650942	0.000253
Cl50	Cl	1.444914	0.536466	0.000241
H51	H	0.940586	0.180030	0.000126
Cl52	Cl	1.214884	-0.003937	0.154075
