data_functionalizedCrystal
_audit_creation_method	'MofGen! by Chris Wilmer'
_symmetry_space_group_name_H-M	'P1'
_symmetry_Int_Tables_number	1
_symmetry_cell_setting	triclinic
loop_
_symmetry_equiv_pos_as_xyz
  x,y,z
_cell_length_a	12.827893
_cell_length_b	16.625546
_cell_length_c	12.827885
_cell_angle_alpha	89.964686
_cell_angle_beta	89.980728
_cell_angle_gamma	90.022629
loop_
_atom_site_label
_atom_site_type_symbol
_atom_site_fract_x
_atom_site_fract_y
_atom_site_fract_z
Zn1	Zn	1.597618	-0.320958	-0.590810
Zn2	Zn	2.097618	0.179042	-0.090810
Zn3	Zn	1.597491	-0.455812	-0.416054
Zn4	Zn	2.097491	0.044188	0.083946
Zn5	Zn	1.422860	-0.320998	-0.416084
Zn6	Zn	1.922860	0.179002	0.083916
Zn7	Zn	1.422823	-0.455752	-0.590754
Zn8	Zn	1.922823	0.044248	-0.090754
O9	O	1.510198	-0.388380	-0.503425
O10	O	2.010198	0.111620	-0.003425
O11	O	1.743837	-0.338855	-0.567639
O12	O	2.243837	0.161145	-0.067639
O13	O	1.574287	-0.437971	-0.269822
O14	O	2.074287	0.062029	0.230178
O15	O	1.446110	-0.208160	-0.439297
O16	O	1.946110	0.291840	0.060703
O17	O	1.743744	-0.437932	-0.439247
O18	O	2.243744	0.062068	0.060753
O19	O	1.574505	-0.208131	-0.567668
O20	O	2.074505	0.291869	-0.067668
O21	O	1.445987	-0.338923	-0.269843
O22	O	1.945987	0.161077	0.230157
O23	O	1.276619	-0.338865	-0.439243
O24	O	1.776619	0.161135	0.060757
O25	O	1.446048	-0.437830	-0.736997
O26	O	1.946048	0.062170	-0.236997
O27	O	1.276592	-0.437869	-0.567572
O28	O	1.776592	0.062131	-0.067572
O29	O	1.574469	-0.338797	-0.737039
O30	O	2.074469	0.161203	-0.237039
O31	O	1.574252	-0.568637	-0.439192
O32	O	2.074252	-0.068637	0.060808
O33	O	1.445925	-0.568593	-0.567544
O34	O	1.945925	-0.068593	-0.067544
C35	C	1.238688	-0.388365	-0.503405
C36	C	1.738688	0.111635	-0.003405
C37	C	1.122535	-0.388378	-0.503422
C38	C	1.622535	0.111622	-0.003422
C39	C	1.070796	-0.339439	-0.567053
C40	C	1.570796	0.160561	-0.067053
C41	C	0.950746	-0.339451	-0.567072
C42	C	1.450746	0.160549	-0.067072
C43	C	1.510099	-0.597871	-0.503382
C44	C	2.010099	-0.097871	-0.003382
C45	C	1.510152	-0.687492	-0.503398
C46	C	2.010152	-0.187492	-0.003398
C47	C	1.510335	-1.015668	-0.503507
C48	C	2.010335	-0.515668	-0.003507
C49	C	1.510281	-0.924359	-0.503479
C50	C	2.010281	-0.424359	-0.003479
C51	C	1.510243	-0.851583	-0.503452
C52	C	2.010243	-0.351583	-0.003452
C53	C	1.510190	-0.760268	-0.503425
C54	C	2.010190	-0.260268	-0.003425
C55	C	1.782768	-0.388395	-0.503446
C56	C	2.282768	0.111605	-0.003446
C57	C	1.898921	-0.388402	-0.503455
C58	C	2.398921	0.111598	-0.003455
C59	C	1.510269	-0.388302	-0.775996
C60	C	2.010269	0.111698	-0.275996
C61	C	1.510299	-0.388269	-0.892149
C62	C	2.010299	0.111731	-0.392149
C63	C	1.510326	-0.178071	-0.503492
C64	C	2.010326	0.321929	-0.003492
C65	C	1.510380	-0.088450	-0.503521
C66	C	2.010380	0.411550	-0.003521
C67	C	1.446865	-0.339214	-1.063989
C68	C	1.946865	0.160786	-0.563989
C69	C	1.446832	-0.339247	-0.943938
C70	C	1.946832	0.160753	-0.443938
C71	C	1.510187	-0.388400	-0.231915
C72	C	2.010187	0.111600	0.268085
C73	C	1.510359	-0.388206	-0.115763
C74	C	2.010359	0.111794	0.384237
H75	H	1.115378	-0.297528	-0.621513
H76	H	1.615378	0.202472	-0.121513
O77	O	0.897513	-0.289490	-0.631969
O78	O	1.397513	0.210510	-0.131969
C79	C	0.729320	-0.244009	-0.691237
C80	C	1.229320	0.255991	-0.191237
C81	C	0.789478	-0.300618	-0.617668
C82	C	1.289478	0.199382	-0.117668
H83	H	0.641964	-0.252998	-0.679716
H84	H	1.141964	0.247002	-0.179716
H85	H	0.750651	-0.178940	-0.673053
H86	H	1.250651	0.321060	-0.173053
H87	H	0.750820	-0.258219	-0.775472
H88	H	1.250820	0.241781	-0.275472
H89	H	0.768011	-0.286481	-0.533408
H90	H	1.268011	0.213519	-0.033408
H91	H	0.768142	-0.365670	-0.635942
H92	H	1.268142	0.134330	-0.135942
H93	H	0.943409	-0.430308	-0.448980
H94	H	1.443409	0.069692	0.051020
O95	O	1.069314	-0.438464	-0.438593
O96	O	1.569314	0.061536	0.061407
C97	C	0.945863	-0.547206	-0.424412
C98	C	1.445863	-0.047206	0.075588
C99	C	1.006085	-0.490545	-0.497951
C100	C	1.506085	0.009455	0.002049
H101	H	0.894712	-0.589316	-0.472373
H102	H	1.394712	-0.089316	0.027627
H103	H	1.003442	-0.584112	-0.376519
H104	H	1.503442	-0.084112	0.123481
H105	H	0.894795	-0.510091	-0.369888
H106	H	1.394795	-0.010091	0.130112
H107	H	1.057155	-0.527597	-0.552539
H108	H	1.557155	-0.027597	-0.052539
H109	H	0.948450	-0.453636	-0.545771
H110	H	1.448450	0.046364	-0.045771
O111	O	1.382076	-0.289217	-1.117289
O112	O	1.882076	0.210783	-0.617289
C113	C	1.323114	-0.243537	-1.285538
C114	C	1.823114	0.256463	-0.785538
C115	C	1.396525	-0.300215	-1.225310
C116	C	1.896525	0.199785	-0.725310
H117	H	1.334786	-0.252397	-1.372883
H118	H	1.834786	0.247603	-0.872883
H119	H	1.238792	-0.257682	-1.264211
H120	H	1.738792	0.242318	-0.764211
H121	H	1.341470	-0.178523	-1.264097
H122	H	1.841470	0.321477	-0.764097
H123	H	1.378263	-0.365249	-1.246719
H124	H	1.878263	0.134751	-0.746719
H125	H	1.480825	-0.286001	-1.246642
H126	H	1.980825	0.213999	-0.746642
O127	O	1.382075	-0.289232	-0.890669
O128	O	1.882075	0.210768	-0.390669
C129	C	1.322921	-0.243723	-0.722443
C130	C	1.822921	0.256277	-0.222443
C131	C	1.396331	-0.300393	-0.782643
C132	C	1.896331	0.199607	-0.282643
H133	H	1.334406	-0.252739	-0.635093
H134	H	1.834406	0.247261	-0.135093
H135	H	1.341300	-0.178668	-0.743784
H136	H	1.841300	0.321332	-0.243784
H137	H	1.238647	-0.257847	-0.743896
H138	H	1.738647	0.242153	-0.243896
H139	H	1.480630	-0.286341	-0.761222
H140	H	1.980630	0.213659	-0.261222
H141	H	1.377863	-0.365430	-0.761296
H142	H	1.877863	0.134570	-0.261296
O143	O	1.575272	-0.438195	-0.945295
O144	O	2.075272	0.061805	-0.445295
C145	C	1.716240	-0.448927	-1.068701
C146	C	2.216240	0.051073	-0.568701
C147	C	1.642738	-0.392295	-1.008552
C148	C	2.142738	0.107705	-0.508552
H149	H	1.770790	-0.411840	-1.119875
H150	H	2.270790	0.088160	-0.619875
H151	H	1.764097	-0.485824	-1.011074
H152	H	2.264097	0.014176	-0.511074
H153	H	1.668188	-0.491054	-1.119739
H154	H	2.168188	0.008946	-0.619739
H155	H	1.690710	-0.350119	-0.957512
H156	H	2.190710	0.149881	-0.457512
H157	H	1.594878	-0.355454	-1.066235
H158	H	2.094878	0.144546	-0.566235
O159	O	1.575034	-0.438363	-1.062576
O160	O	2.075034	0.061637	-0.562576
C161	C	1.588880	-0.547138	-0.939131
C162	C	2.088880	-0.047138	-0.439131
C163	C	1.515515	-0.490397	-0.999315
C164	C	2.015515	0.009603	-0.499315
H165	H	1.540790	-0.589211	-0.887954
H166	H	2.040790	-0.089211	-0.387954
H167	H	1.636673	-0.584081	-0.996736
H168	H	2.136673	-0.084081	-0.496736
H169	H	1.643506	-0.510084	-0.888094
H170	H	2.143506	-0.010084	-0.388094
H171	H	1.460826	-0.527388	-1.050354
H172	H	1.960826	-0.027388	-0.550354
H173	H	1.467796	-0.453451	-0.941654
H174	H	1.967796	0.046549	-0.441654
