data_functionalizedCrystal
_audit_creation_method	'MofGen! by Chris Wilmer'
_symmetry_space_group_name_H-M	'P1'
_symmetry_Int_Tables_number	1
_symmetry_cell_setting	triclinic
loop_
_symmetry_equiv_pos_as_xyz
  x,y,z
_cell_length_a	11.792254
_cell_length_b	11.792254
_cell_length_c	16.776229
_cell_angle_alpha	89.993192
_cell_angle_beta	89.992926
_cell_angle_gamma	84.198598
loop_
_atom_site_label
_atom_site_type_symbol
_atom_site_fract_x
_atom_site_fract_y
_atom_site_fract_z
O1	O	1.506911	0.155638	-0.066288
O2	O	2.006911	0.655638	0.433712
O3	O	1.176573	0.171656	-0.066290
O4	O	1.676573	0.671656	0.433710
O5	O	1.349751	-0.001522	-0.066283
O6	O	1.849751	0.498478	0.433717
O7	O	1.333733	0.328816	-0.066295
O8	O	1.833733	0.828816	0.433705
O9	O	1.349728	-0.001533	0.066293
O10	O	1.849728	0.498467	0.566293
O11	O	1.176550	0.171645	0.066287
O12	O	1.676550	0.671645	0.566287
O13	O	1.506888	0.155627	0.066289
O14	O	2.006888	0.655627	0.566289
Zn15	Zn	1.341715	0.163634	0.087337
Zn16	Zn	1.841715	0.663634	0.587337
Zn17	Zn	1.341746	0.163649	-0.087338
Zn18	Zn	1.841746	0.663649	0.412662
O19	O	1.333710	0.328805	0.066282
O20	O	1.833710	0.828805	0.566282
C21	C	1.134271	0.170642	-0.000002
C22	C	1.634271	0.670642	0.499998
C23	C	1.008257	0.167621	-0.000002
C24	C	1.508257	0.667621	0.499998
C25	C	0.905921	0.165168	-0.000006
C26	C	1.405921	0.665168	0.499994
C27	C	0.777534	0.162099	-0.000006
C28	C	1.277534	0.662099	0.499994
C29	C	1.348730	-0.043818	0.000005
C30	C	1.848730	0.456182	0.500005
C31	C	1.345710	-0.169832	0.000004
C32	C	1.845710	0.330168	0.500004
C33	C	1.343256	-0.272168	0.000001
C34	C	1.843256	0.227832	0.500001
C35	C	1.340188	-0.400555	-0.000006
C36	C	1.840188	0.099445	0.499994
C37	C	1.549190	0.156642	-0.000001
C38	C	2.049190	0.656642	0.499999
C39	C	1.675204	0.159662	-0.000006
C40	C	2.175204	0.659662	0.499994
C41	C	1.334731	0.371102	-0.000008
C42	C	1.834731	0.871102	0.499992
C43	C	1.337751	0.497115	-0.000012
C44	C	1.837751	0.997115	0.499988
N45	N	1.341703	0.163624	0.206548
N46	N	1.841703	0.663624	0.706548
N47	N	1.341767	0.163650	-0.206549
N48	N	1.841767	0.663650	0.293451
C49	C	1.418410	0.086973	0.248268
C50	C	1.918410	0.586973	0.748268
C51	C	1.418416	0.086972	0.331720
C52	C	1.918416	0.586972	0.831720
C53	C	1.341720	0.163629	0.373451
C54	C	1.841720	0.663629	0.873451
C55	C	1.265005	0.240284	0.331725
C56	C	1.765005	0.740284	0.831725
C57	C	1.264994	0.240278	0.248275
C58	C	1.764994	0.740278	0.748275
C59	C	1.265046	0.240306	0.668273
C60	C	1.765046	0.740306	1.168273
C61	C	1.265065	0.240308	0.751729
C62	C	1.765065	0.740308	1.251729
C63	C	1.418468	0.087000	0.751718
C64	C	1.918468	0.587000	1.251718
C65	C	1.418457	0.086994	0.668268
C66	C	1.918457	0.586994	1.168268
C67	C	1.341738	0.163645	0.626549
C68	C	1.841738	0.663645	1.126549
C69	C	1.341731	0.163643	0.536061
C70	C	1.841731	0.663643	1.036061
C71	C	1.341732	0.163636	0.463938
C72	C	1.841732	0.663636	0.963938
H73	H	1.480869	0.024555	0.214297
H74	H	1.980869	0.524555	0.714297
N75	N	1.501189	0.004337	0.376719
N76	N	2.001189	0.504337	0.876719
H77	H	1.549791	-0.044206	0.337620
H78	H	2.049791	0.455794	0.837620
H79	H	1.551612	0.048181	0.411315
H80	H	2.051612	0.548181	0.911315
N81	N	1.182258	0.322958	0.203280
N82	N	1.682258	0.822958	0.703280
H83	H	1.225928	0.373506	0.168640
H84	H	1.725928	0.873506	0.668640
H85	H	1.131754	0.279157	0.168718
H86	H	1.631754	0.779157	0.668718
N87	N	1.182279	0.322956	0.376737
N88	N	1.682279	0.822956	0.876737
H89	H	1.225963	0.373510	0.411346
H90	H	1.725963	0.873510	0.911346
H91	H	1.133698	0.371436	0.337595
H92	H	1.633698	0.871436	0.837595
H93	H	1.480933	0.024583	0.785695
H94	H	1.980933	0.524583	1.285695
N95	N	1.501183	0.004320	0.623258
N96	N	2.001183	0.504320	1.123258
H97	H	1.549778	-0.044242	0.662351
H98	H	2.049778	0.455758	1.162351
H99	H	1.457418	-0.046153	0.588647
H100	H	1.957418	0.453847	1.088647
N101	N	1.182332	0.322985	0.796742
N102	N	1.682332	0.822985	1.296742
H103	H	1.133725	0.371538	0.757651
H104	H	1.633725	0.871538	1.257651
H105	H	1.131908	0.279179	0.831379
H106	H	1.631908	0.779179	1.331379
H107	H	1.202581	0.302720	0.634312
H108	H	1.702581	0.802720	1.134312
