data_functionalizedCrystal
_audit_creation_method	'MofGen! by Chris Wilmer'
_symmetry_space_group_name_H-M	'P1'
_symmetry_Int_Tables_number	1
_symmetry_cell_setting	triclinic
loop_
_symmetry_equiv_pos_as_xyz
  x,y,z
_cell_length_a	12.759401
_cell_length_b	16.959453
_cell_length_c	12.759393
_cell_angle_alpha	89.964753
_cell_angle_beta	89.981503
_cell_angle_gamma	90.020219
loop_
_atom_site_label
_atom_site_type_symbol
_atom_site_fract_x
_atom_site_fract_y
_atom_site_fract_z
Zn1	Zn	1.606205	-0.314628	-0.593987
Zn2	Zn	1.606087	-0.446831	-0.418297
Zn3	Zn	1.430511	-0.314670	-0.418323
Zn4	Zn	1.430480	-0.446769	-0.593935
O5	O	1.518321	-0.380725	-0.506135
O6	O	1.753211	-0.332173	-0.570692
O7	O	1.582760	-0.429342	-0.271279
O8	O	1.453879	-0.204054	-0.441659
O9	O	1.753123	-0.429302	-0.441613
O10	O	1.582961	-0.204023	-0.570718
O11	O	1.453765	-0.332245	-0.271299
O12	O	1.283485	-0.332186	-0.441608
O13	O	1.453827	-0.429197	-0.740963
O14	O	1.283463	-0.429238	-0.570629
O15	O	1.582931	-0.332114	-0.741001
O16	O	1.582730	-0.557433	-0.441562
O17	O	1.453712	-0.557388	-0.570603
C18	C	1.245353	-0.380710	-0.506116
C19	C	1.128577	-0.380723	-0.506132
C20	C	1.073673	-0.431217	-0.438829
C21	C	0.963949	-0.431231	-0.438847
C22	C	0.964042	-0.330250	-0.573475
C23	C	1.073764	-0.330241	-0.573461
C24	C	1.128485	-0.481699	-0.371500
C25	C	1.073582	-0.532196	-0.304191
C26	C	0.963858	-0.532210	-0.304209
C27	C	0.909037	-0.481727	-0.371537
C28	C	1.518233	-0.586091	-0.506097
C29	C	1.518292	-0.673948	-0.506116
C30	C	1.585620	-1.045349	-0.573464
C31	C	1.451315	-1.045498	-0.438963
C32	C	1.451276	-0.962952	-0.438939
C33	C	1.518409	-0.921600	-0.506179
C34	C	1.585581	-0.962795	-0.573444
C35	C	1.384098	-0.921751	-0.371684
C36	C	1.384055	-0.839200	-0.371658
C37	C	1.451194	-0.797847	-0.438893
C38	C	1.518370	-0.839047	-0.506160
C39	C	1.585502	-0.797696	-0.573400
C40	C	1.652684	-0.838894	-0.640662
C41	C	1.652719	-0.921442	-0.640680
C42	C	1.451159	-0.715299	-0.438875
C43	C	1.585463	-0.715142	-0.573380
C44	C	1.792354	-0.380740	-0.506156
C45	C	1.909130	-0.380746	-0.506164
C46	C	1.518389	-0.380644	-0.780169
C47	C	1.518418	-0.380610	-0.896946
C48	C	1.518437	-0.174556	-0.506197
C49	C	1.518487	-0.086700	-0.506223
C50	C	1.451279	-0.330042	-0.951824
C51	C	1.451310	-0.330018	-1.061548
C52	C	1.585630	-0.431133	-1.061506
C53	C	1.585592	-0.431160	-0.951784
C54	C	1.384105	-0.279492	-0.896986
C55	C	1.316961	-0.228919	-0.951864
C56	C	1.316993	-0.228896	-1.061588
C57	C	1.384168	-0.279445	-1.116434
C58	C	1.518313	-0.380748	-0.233168
C59	C	1.518488	-0.380559	-0.116392
H60	H	1.118223	-0.573303	-0.249382
C61	C	1.243066	-0.173321	-0.891539
C62	C	1.243027	-0.173342	-0.770849
C63	C	1.169129	-0.117743	-0.710527
C64	C	1.095271	-0.062123	-0.770895
C65	C	1.095308	-0.062099	-0.891592
C66	C	1.169205	-0.117698	-0.951914
H67	H	1.297704	-0.214517	-0.726155
H68	H	1.169103	-0.117761	-0.621179
H69	H	1.040568	-0.020965	-0.726241
H70	H	1.040631	-0.020924	-0.936286
H71	H	1.169232	-0.117681	-1.041262
C72	C	1.659426	-0.486798	-0.891409
C73	C	1.659365	-0.486841	-0.770719
C74	C	1.733187	-0.542490	-0.710344
C75	C	1.807070	-0.598098	-0.770659
C76	C	1.807134	-0.598057	-0.891356
C77	C	1.733313	-0.542408	-0.951731
H78	H	1.604669	-0.445675	-0.726065
H79	H	1.733139	-0.542520	-0.620996
H80	H	1.861718	-0.639293	-0.725966
H81	H	1.861830	-0.639223	-0.936011
H82	H	1.733361	-0.542378	-1.041079
H83	H	1.384073	-0.279504	-0.807643
C84	C	1.377265	-0.669979	-0.364901
C85	C	1.422803	-0.613253	-0.282440
C86	C	1.348905	-0.567933	-0.208462
C87	C	1.229470	-0.579340	-0.216944
C88	C	1.183927	-0.636069	-0.299408
C89	C	1.257824	-0.681388	-0.373386
H90	H	1.511221	-0.604807	-0.276158
H91	H	1.382620	-0.525939	-0.147416
H92	H	1.174767	-0.545791	-0.162180
H93	H	1.095508	-0.644515	-0.305690
H94	H	1.224109	-0.723383	-0.434432
C95	C	0.903461	-0.587757	-0.230177
C96	C	0.963758	-0.643285	-0.156123
C97	C	0.903364	-0.698831	-0.082085
C98	C	0.782674	-0.698851	-0.082100
C99	C	0.722371	-0.643321	-0.156156
C100	C	0.782765	-0.587775	-0.230195
H101	H	1.053106	-0.643272	-0.156110
H102	H	0.948005	-0.739938	-0.027264
H103	H	0.737967	-0.739970	-0.027292
H104	H	0.633023	-0.643334	-0.156170
H105	H	0.738124	-0.546668	-0.285016
H106	H	1.640135	-0.681479	-0.628132
H107	H	1.217828	-0.481692	-0.371476
H108	H	1.640323	-0.472286	-1.106170
H109	H	1.262314	-0.187722	-1.106267
H110	H	1.118468	-0.289123	-0.628263
C111	C	1.659516	-1.090659	-0.647452
C112	C	1.650870	-1.079239	-0.766877
C113	C	1.724766	-1.124550	-0.840867
C114	C	1.807309	-1.181280	-0.795431
C115	C	1.815959	-1.192702	-0.676000
C116	C	1.742062	-1.147392	-0.602010
H117	H	1.589763	-1.037242	-0.800517
H118	H	1.718363	-1.116094	-0.929278
H119	H	1.862012	-1.214821	-0.850203
H120	H	1.877065	-1.234699	-0.642360
H121	H	1.748465	-1.155847	-0.513599
H122	H	1.329439	-0.955425	-0.316943
C123	C	1.726528	-0.793401	-0.714624
C124	C	1.845977	-0.804680	-0.706157
C125	C	1.919818	-0.759184	-0.780116
C126	C	1.874212	-0.702409	-0.862543
C127	C	1.754758	-0.691128	-0.871014
C128	C	1.680916	-0.736624	-0.797054
H129	H	1.879743	-0.846710	-0.645136
H130	H	2.008247	-0.767535	-0.773845
H131	H	1.928874	-0.668730	-0.917292
H132	H	1.720992	-0.649097	-0.932034
H133	H	1.592488	-0.728273	-0.803325
H134	H	1.384186	-0.279424	-1.205779
H135	H	0.819693	-0.481747	-0.371553
H136	H	0.919398	-0.289148	-0.628289
H137	H	1.707414	-0.954993	-0.695441
H138	H	1.396654	-1.079171	-0.384224
H139	H	1.329354	-0.805662	-0.316889
