data_functionalizedCrystal
_audit_creation_method	'MofGen! by Chris Wilmer'
_symmetry_space_group_name_H-M	'P1'
_symmetry_Int_Tables_number	1
_symmetry_cell_setting	triclinic
loop_
_symmetry_equiv_pos_as_xyz
  x,y,z
_cell_length_a	21.395364
_cell_length_b	13.032868
_cell_length_c	21.395355
_cell_angle_alpha	82.836688
_cell_angle_beta	89.975273
_cell_angle_gamma	82.789381
loop_
_atom_site_label
_atom_site_type_symbol
_atom_site_fract_x
_atom_site_fract_y
_atom_site_fract_z
Zn1	Zn	0.926176	0.416218	-0.385947
Zn2	Zn	0.912777	0.590952	-0.294470
Zn3	Zn	0.821391	0.416213	-0.281183
Zn4	Zn	0.808062	0.590920	-0.399208
O5	O	0.867102	0.503576	-0.340202
O6	O	1.012075	0.439413	-0.373823
O7	O	0.900626	0.567784	-0.205030
O8	O	0.846477	0.269972	-0.283970
O9	O	1.002231	0.567789	-0.306616
O10	O	0.923462	0.269975	-0.360939
O11	O	0.833485	0.439404	-0.195268
O12	O	0.731946	0.439373	-0.296828
O13	O	0.823758	0.567734	-0.485126
O14	O	0.722153	0.567730	-0.383540
O15	O	0.910537	0.439382	-0.475383
O16	O	0.887701	0.737190	-0.319474
O17	O	0.810766	0.737167	-0.396424
C18	C	0.704316	0.503548	-0.340182
C19	C	0.634674	0.503561	-0.340190
C20	C	0.127784	0.570534	-0.385323
C21	C	0.193220	0.570534	-0.385317
C22	C	0.231033	0.503599	-0.340223
C23	C	0.203404	0.436678	-0.295123
C24	C	0.137969	0.436687	-0.295127
C25	C	0.341891	0.409418	-0.328203
C26	C	0.407324	0.409407	-0.328203
C27	C	0.432855	0.503571	-0.340208
C28	C	0.392944	0.597750	-0.352225
C29	C	0.327510	0.597759	-0.352229
C30	C	0.301986	0.503582	-0.340214
C31	C	0.531429	0.570494	-0.385295
C32	C	0.596865	0.570496	-0.385284
C33	C	0.607049	0.436630	-0.295093
C34	C	0.541613	0.436638	-0.295101
C35	C	0.503807	0.503568	-0.340206
C36	C	0.846350	0.775098	-0.360844
C37	C	0.837530	0.891256	-0.369695
C38	C	0.871697	0.943020	-0.335597
C39	C	0.862582	1.063075	-0.344744
C40	C	1.030523	0.503605	-0.340223
C41	C	1.100163	0.503617	-0.340231
C42	C	0.867155	0.503555	-0.503624
C43	C	0.867178	0.503546	-0.573264
C44	C	0.887930	1.230994	-0.319486
C45	C	0.896754	1.114836	-0.310641
C46	C	0.912362	0.436710	-0.600905
C47	C	0.912364	0.436665	-0.666337
C48	C	0.867188	0.503475	-0.704127
C49	C	0.821996	0.570316	-0.676479
C50	C	0.821991	0.570351	-0.611047
C51	C	0.855050	0.597572	-0.814955
C52	C	0.855059	0.597539	-0.880386
C53	C	0.867201	0.503364	-0.905940
C54	C	0.879346	0.409221	-0.866055
C55	C	0.879341	0.409257	-0.800623
C56	C	0.867189	0.503443	-0.775077
C57	C	0.912390	0.436474	-1.004529
C58	C	0.912388	0.436427	-1.069962
C59	C	0.822023	0.570087	-1.080103
C60	C	0.822022	0.570124	-1.014670
C61	C	0.867209	0.503319	-0.976888
C62	C	0.867090	0.503522	-0.177410
C63	C	0.867211	0.503236	-0.107748
H64	H	0.215714	0.625025	-0.422038
H65	H	0.826582	1.107634	-0.380715
O66	O	0.939658	1.061527	-0.267737
C67	C	0.987906	0.893263	-0.219546
C68	C	0.939287	0.953504	-0.268145
H69	H	0.987631	0.805916	-0.219869
H70	H	0.975314	0.914638	-0.170618
H71	H	1.036803	0.914648	-0.232205
H72	H	0.890372	0.932151	-0.255545
H73	H	0.951933	0.932124	-0.317060
O74	O	0.956297	0.371639	-1.096897
C75	C	1.041984	0.357552	-1.169717
C76	C	0.992280	0.431045	-1.139271
H77	H	1.071099	0.405553	-1.203973
H78	H	1.017430	0.302901	-1.196217
H79	H	1.074251	0.309787	-1.131460
H80	H	0.959999	0.478877	-1.177488
H81	H	1.016876	0.485627	-1.112756
O82	O	0.514883	0.371526	-0.251276
C83	C	0.531888	0.238795	-0.161797
C84	C	0.562242	0.312463	-0.211407
H85	H	0.570162	0.191038	-0.129542
H86	H	0.505458	0.184154	-0.186434
H87	H	0.497560	0.286717	-0.132662
H88	H	0.596598	0.264625	-0.240557
H89	H	0.588632	0.367107	-0.186731
H90	H	0.785212	0.624709	-0.707251
H91	H	0.785234	0.624474	-1.110870
H92	H	0.801533	0.935819	-0.405663
H93	H	0.949156	0.382310	-0.570146
H94	H	0.500645	0.624994	-0.422021
O95	O	0.956321	0.371707	-0.693097
C96	C	1.045935	0.239113	-0.676136
C97	C	0.996199	0.312638	-0.645753
H98	H	1.078181	0.191320	-0.637872
H99	H	1.075070	0.287042	-0.710414
H100	H	1.021341	0.184490	-0.702621
H101	H	1.020741	0.367276	-0.619236
H102	H	0.967068	0.264644	-0.611510
H103	H	0.637835	0.382134	-0.258375
O104	O	0.891117	0.317716	-0.761969
C105	C	0.915236	0.130931	-0.754651
C106	C	0.901899	0.234523	-0.798499
H107	H	0.923969	0.063644	-0.784168
H108	H	0.872983	0.119841	-0.723174
H109	H	0.958676	0.132629	-0.724144
H110	H	0.858478	0.232899	-0.829046
H111	H	0.944185	0.245573	-0.829934
H112	H	0.949181	0.382071	-0.973764
H113	H	0.785231	0.624556	-0.992166
H114	H	0.845173	0.674196	-0.912855
H115	H	0.907700	0.898459	-0.299633
O116	O	0.446001	0.317837	-0.316501
C117	C	0.453357	0.131021	-0.292724
C118	C	0.409486	0.234654	-0.305947
H119	H	0.423853	0.063738	-0.284201
H120	H	0.483851	0.132453	-0.249235
H121	H	0.484853	0.120150	-0.334997
H122	H	0.377951	0.245590	-0.263713
H123	H	0.379036	0.233174	-0.349459
H124	H	0.889234	0.332535	-0.886858
O125	O	0.240073	0.371512	-0.251338
C126	C	0.273688	0.193671	-0.207589
C127	C	0.232121	0.267350	-0.257202
H128	H	0.267283	0.109440	-0.212322
H129	H	0.259399	0.211826	-0.158422
H130	H	0.325195	0.205210	-0.215324
H131	H	0.180604	0.255853	-0.249526
H132	H	0.246464	0.249178	-0.306352
O133	O	0.843122	0.689085	-0.790184
C134	C	0.769212	0.842058	-0.781719
C135	C	0.782672	0.738483	-0.809841
H136	H	0.720333	0.882015	-0.797590
H137	H	0.806011	0.894964	-0.798597
H138	H	0.771313	0.825832	-0.728107
H139	H	0.780561	0.754611	-0.863455
H140	H	0.745871	0.685609	-0.792914
O141	O	0.091149	0.635660	-0.429156
C142	C	0.087960	0.768400	-0.518628
C143	C	0.129523	0.694710	-0.469018
H144	H	0.118969	0.816146	-0.550878
H145	H	0.053159	0.823050	-0.493991
H146	H	0.060978	0.720496	-0.547769
H147	H	0.156545	0.742530	-0.439862
H148	H	0.164285	0.640057	-0.493694
O149	O	0.288830	0.689333	-0.363880
C150	C	0.281464	0.876139	-0.387735
C151	C	0.325341	0.772508	-0.374539
H152	H	0.310965	0.943411	-0.396369
H153	H	0.249987	0.887139	-0.345462
H154	H	0.250951	0.874573	-0.431190
H155	H	0.355893	0.774000	-0.331103
H156	H	0.356775	0.761547	-0.416845
O157	O	0.623599	0.635538	-0.429150
C158	C	0.606588	0.768344	-0.518589
C159	C	0.576231	0.694720	-0.468956
H160	H	0.568303	0.816228	-0.550777
H161	H	0.640879	0.720486	-0.547795
H162	H	0.633058	0.822877	-0.493907
H163	H	0.549728	0.640172	-0.493587
H164	H	0.541974	0.742643	-0.439754
O165	O	0.778157	0.635435	-0.584233
C166	C	0.734125	0.813206	-0.577760
C167	C	0.783804	0.739615	-0.608166
H168	H	0.738665	0.897449	-0.597108
H169	H	0.741880	0.801848	-0.524504
H170	H	0.685015	0.794786	-0.589191
H171	H	0.832934	0.757989	-0.596784
H172	H	0.775993	0.750986	-0.661414
H173	H	0.413730	0.674427	-0.362004
H174	H	0.321110	0.332734	-0.318417
H175	H	0.115481	0.382192	-0.258407
