data_functionalizedCrystal
_audit_creation_method	'MofGen! by Chris Wilmer'
_symmetry_space_group_name_H-M	'P1'
_symmetry_Int_Tables_number	1
_symmetry_cell_setting	triclinic
loop_
_symmetry_equiv_pos_as_xyz
  x,y,z
_cell_length_a	14.908571
_cell_length_b	13.897447
_cell_length_c	14.908308
_cell_angle_alpha	86.731647
_cell_angle_beta	89.824947
_cell_angle_gamma	86.715799
loop_
_atom_site_label
_atom_site_type_symbol
_atom_site_fract_x
_atom_site_fract_y
_atom_site_fract_z
Zn1	Zn	1.345302	-0.503381	0.587592
Zn2	Zn	1.678636	-0.170048	0.920925
Zn3	Zn	2.011969	0.163286	1.254258
Zn4	Zn	1.353885	-0.655952	0.437235
Zn5	Zn	1.687218	-0.322618	0.770568
Zn6	Zn	2.020551	0.010715	1.103902
Zn7	Zn	1.203617	-0.484854	0.428589
Zn8	Zn	1.536951	-0.151520	0.761923
Zn9	Zn	1.870284	0.181813	1.095256
Zn10	Zn	1.194912	-0.654806	0.578887
Zn11	Zn	1.528246	-0.321472	0.912220
Zn12	Zn	1.861579	0.011861	1.245553
O13	O	1.274429	-0.574748	0.508076
O14	O	1.607763	-0.241415	0.841409
O15	O	1.941096	0.091919	1.174742
O16	O	1.472267	-0.531853	0.574908
O17	O	1.805600	-0.198520	0.908241
O18	O	2.138934	0.134814	1.241575
O19	O	1.341186	-0.625981	0.310263
O20	O	1.674520	-0.292648	0.643597
O21	O	2.007853	0.040686	0.976930
O22	O	1.222463	-0.352334	0.449706
O23	O	1.555797	-0.019001	0.783039
O24	O	1.889130	0.314332	1.116373
O25	O	1.478572	-0.643946	0.464442
O26	O	1.811906	-0.310613	0.797775
O27	O	2.145239	0.022721	1.131108
O28	O	1.326559	-0.365946	0.566525
O29	O	1.659892	-0.032613	0.899858
O30	O	1.993225	0.300720	1.233191
O31	O	1.230785	-0.500276	0.303911
O32	O	1.564119	-0.166943	0.637245
O33	O	1.897452	0.166391	0.970578
O34	O	1.076636	-0.499165	0.441265
O35	O	1.409970	-0.165831	0.774598
O36	O	1.743303	0.167502	1.107932
O37	O	1.207627	-0.641993	0.705866
O38	O	1.540961	-0.308660	1.039200
O39	O	1.874294	0.024674	1.372533
O40	O	1.070241	-0.624028	0.551688
O41	O	1.403574	-0.290694	0.885021
O42	O	1.736908	0.042639	1.218355
O43	O	1.318118	-0.530742	0.712262
O44	O	1.651451	-0.197408	1.045595
O45	O	1.984785	0.135925	1.378929
O46	O	1.332745	-0.790777	0.456001
O47	O	1.666079	-0.457443	0.789334
O48	O	1.999412	-0.124110	1.122667
O49	O	1.215949	-0.789935	0.560071
O50	O	1.549283	-0.456601	0.893405
O51	O	1.882616	-0.123268	1.226738
C52	C	1.040813	-0.559462	0.494594
C53	C	1.374147	-0.226129	0.827928
C54	C	1.707480	0.107204	1.161261
C55	C	0.940870	-0.552947	0.488848
C56	C	1.274204	-0.219614	0.822181
C57	C	1.607537	0.113719	1.155515
C58	C	0.746464	-0.670908	0.592879
C59	C	1.079798	-0.337574	0.926213
C60	C	1.413131	-0.004241	1.259546
C61	C	0.652559	-0.664790	0.587484
C62	C	0.985892	-0.331456	0.920817
C63	C	1.319225	0.001877	1.254150
C64	C	0.659151	-0.534589	0.472666
C65	C	0.992485	-0.201256	0.805999
C66	C	1.325818	0.132077	1.139333
C67	C	0.753057	-0.540707	0.478062
C68	C	1.086390	-0.207374	0.811395
C69	C	1.419724	0.125959	1.144728
C70	C	0.796710	-0.608870	0.538170
C71	C	1.130044	-0.275536	0.871503
C72	C	1.463377	0.057797	1.204836
C73	C	0.890618	-0.614992	0.543560
C74	C	1.223951	-0.281658	0.876894
C75	C	1.557284	0.051675	1.210227
C76	C	0.897208	-0.484787	0.428748
C77	C	1.230542	-0.151454	0.762081
C78	C	1.563875	0.181879	1.095414
C79	C	0.803303	-0.478669	0.423352
C80	C	1.136636	-0.145336	0.756685
C81	C	1.469970	0.187997	1.090018
C82	C	1.274357	-0.825356	0.508051
C83	C	1.607691	-0.492023	0.841384
C84	C	1.941024	-0.158690	1.174717
C85	C	1.274407	-0.932575	0.508075
C86	C	1.607740	-0.599241	0.841408
C87	C	1.941074	-0.265908	1.174741
C88	C	1.274449	-1.019649	0.508098
C89	C	1.607783	-0.686315	0.841431
C90	C	1.941116	-0.352982	1.174764
C91	C	1.274511	-1.128886	0.508124
C92	C	1.607844	-0.795553	0.841458
C93	C	1.941178	-0.462220	1.174791
C94	C	1.508957	-0.590094	0.521610
C95	C	1.842290	-0.256761	0.854944
C96	C	2.175624	0.076573	1.188277
C97	C	1.608899	-0.596634	0.527378
C98	C	1.942232	-0.263300	0.860711
C99	C	2.275566	0.070033	1.194045
C100	C	1.260944	-0.588306	0.742601
C101	C	1.594278	-0.254973	1.075935
C102	C	1.927611	0.078360	1.409268
C103	C	1.255198	-0.594084	0.842542
C104	C	1.588531	-0.260751	1.175875
C105	C	1.921864	0.072583	1.509209
C106	C	1.274525	-0.323164	0.508122
C107	C	1.607858	0.010170	0.841455
C108	C	1.941191	0.343503	1.174789
C109	C	1.274565	-0.215953	0.508142
C110	C	1.607899	0.117380	0.841475
C111	C	1.941232	0.450713	1.174808
C112	C	1.287913	-0.561176	0.274466
C113	C	1.621247	-0.227843	0.607799
C114	C	1.954580	0.105490	0.941132
C115	C	1.293834	-0.555138	0.174535
C116	C	1.627167	-0.221805	0.507869
C117	C	1.960501	0.111529	0.841202
C118	C	1.359451	-0.489072	1.037003
C119	C	1.692784	-0.155739	1.370336
C120	C	2.026118	0.177594	1.703669
C121	C	1.354054	-0.494498	1.130906
C122	C	1.687388	-0.161165	1.464240
C123	C	2.020721	0.172169	1.797573
C124	C	1.239004	-0.610355	1.124254
C125	C	1.572338	-0.277021	1.457587
C126	C	1.905671	0.056312	1.790921
C127	C	1.244401	-0.604929	1.030350
C128	C	1.577734	-0.271596	1.363684
C129	C	1.911067	0.061737	1.697017
C130	C	1.304627	-0.544287	0.986728
C131	C	1.637960	-0.210954	1.320062
C132	C	1.971294	0.122380	1.653395
C133	C	1.310028	-0.538867	0.892823
C134	C	1.643361	-0.205534	1.226157
C135	C	1.976694	0.127799	1.559490
C136	C	1.194973	-0.654718	0.886173
C137	C	1.528307	-0.321385	1.219506
C138	C	1.861640	0.011948	1.552839
C139	C	1.189577	-0.660144	0.980076
C140	C	1.522910	-0.326811	1.313409
C141	C	1.856244	0.006523	1.646743
H142	H	0.926159	-0.670495	0.592502
H143	H	1.259492	-0.337161	0.925835
H144	H	1.592825	-0.003828	1.259168
H145	H	0.782008	-0.726413	0.641817
H146	H	1.115341	-0.393080	0.975150
H147	H	1.448674	-0.059746	1.308484
H148	H	0.767747	-0.423171	0.374416
H149	H	1.101081	-0.089838	0.707749
H150	H	1.434414	0.243495	1.041083
H151	H	1.140541	-0.709515	1.015606
H152	H	1.473874	-0.376182	1.348939
H153	H	1.807207	-0.042848	1.682273
H154	H	0.611652	-0.715306	0.632036
H155	H	0.944985	-0.381972	0.965369
H156	H	1.278318	-0.048639	1.298703
H157	H	0.938129	-0.434274	0.384197
H158	H	1.271462	-0.100940	0.717530
H159	H	1.604796	0.232393	1.050863
H160	H	1.359068	-0.489491	0.857308
H161	H	1.692401	-0.156157	1.190641
H162	H	2.025735	0.177176	1.523975
H163	H	0.623592	-0.479089	0.423735
H164	H	0.956926	-0.145756	0.757068
H165	H	1.290259	0.187578	1.090401
H166	H	1.408494	-0.439700	1.001485
H167	H	1.741827	-0.106367	1.334819
H168	H	2.075161	0.226966	1.668152
H169	H	1.150334	-0.699681	0.845229
H170	H	1.483667	-0.366348	1.178562
H171	H	1.817001	-0.033014	1.511896
H172	H	1.189971	-0.659726	1.159787
H173	H	1.523304	-0.326393	1.493121
H174	H	1.856637	0.006941	1.826454
H175	H	1.398695	-0.449534	1.171836
H176	H	1.732029	-0.116200	1.505170
H177	H	2.065362	0.217133	1.838503
