data_functionalizedCrystal
_audit_creation_method	'MofGen! by Chris Wilmer'
_symmetry_space_group_name_H-M	'P1'
_symmetry_Int_Tables_number	1
_symmetry_cell_setting	triclinic
loop_
_symmetry_equiv_pos_as_xyz
  x,y,z
_cell_length_a	9.730217
_cell_length_b	10.967971
_cell_length_c	10.654544
_cell_angle_alpha	95.399476
_cell_angle_beta	89.993686
_cell_angle_gamma	77.869726
loop_
_atom_site_label
_atom_site_type_symbol
_atom_site_fract_x
_atom_site_fract_y
_atom_site_fract_z
O1	O	0.072882	0.175266	-1.667811
O2	O	0.068907	0.191965	-1.302329
O3	O	0.113894	0.002041	-1.493504
O4	O	0.027895	0.365190	-1.476637
O5	O	-0.114689	0.002053	-1.493491
O6	O	-0.159676	0.191977	-1.302316
O7	O	-0.155700	0.175278	-1.667798
Zn8	Zn	-0.193981	0.183629	-1.485055
Zn9	Zn	0.107187	0.183614	-1.485072
O10	O	-0.200688	0.365201	-1.476624
C11	C	-0.045097	0.190745	-1.255525
C12	C	-0.044236	0.187076	-1.116082
N13	N	-0.399519	0.183639	-1.485053
C14	C	0.010617	-0.044452	-1.492271
C15	C	0.043437	-0.183007	-1.488602
C16	C	-0.651087	0.030798	-1.331466
C17	C	-0.561059	-0.045583	-1.254642
C18	C	-0.417185	-0.045560	-1.254618
C19	C	-0.363337	0.030851	-1.331429
C20	C	-0.453365	0.107233	-1.408253
C21	C	-0.597241	0.107204	-1.408266
C22	C	-0.489548	0.260020	-1.561876
C23	C	-0.633424	0.260005	-1.561896
C24	C	-0.435700	0.336431	-1.638687
C25	C	-0.525731	0.412822	-1.715506
C26	C	-0.669613	0.412796	-1.715526
C27	C	-0.723452	0.336387	-1.638719
N28	N	0.312728	0.183594	-1.485085
C29	C	-0.060342	-0.244779	-1.486960
C30	C	-0.026424	-0.387982	-1.483168
C31	C	-0.097408	0.411695	-1.477856
C32	C	-0.130218	0.550249	-1.481525
C33	C	-0.096360	0.407291	-0.826060
C34	C	-0.123662	0.522569	-0.877578
C35	C	-0.124492	0.526020	-1.008596
C36	C	-0.098012	0.414181	-1.088100
C37	C	-0.070709	0.298903	-1.036583
C38	C	-0.069887	0.295464	-0.905560
C39	C	-0.016934	0.071798	-1.064565
C40	C	-0.016113	0.068344	-0.933547
C41	C	0.009547	-0.040041	-1.144069
C42	C	0.036840	-0.155322	-1.092551
C43	C	0.037667	-0.158768	-0.961525
C44	C	0.011190	-0.046934	-0.882029
C45	C	-0.041706	0.176502	-0.714602
C46	C	-0.042593	0.180184	-0.854043
H47	H	-0.768237	0.030781	-1.331468
C48	C	-0.466485	0.496856	-1.799998
N49	N	-0.421856	0.560151	-1.863638
H50	H	-0.604917	-0.107799	-1.192107
H51	H	-0.246183	0.030852	-1.331414
H52	H	0.058407	-0.246372	-1.157293
H53	H	-0.174302	-0.191647	-1.488367
C54	C	0.127542	-0.459750	-1.481275
N55	N	0.243507	-0.513808	-1.479847
C56	C	-0.881715	0.336350	-1.638735
N57	N	-1.000919	0.336315	-1.638748
H58	H	-0.098673	0.417001	-1.194781
H59	H	-0.244186	-0.396626	-1.482932
H60	H	-0.343882	-0.107759	-1.192064
H61	H	-0.318547	0.336439	-1.638669
C62	C	-0.768636	0.496830	-1.800034
N63	N	-0.843217	0.560130	-1.863684
C64	C	0.197395	-0.254780	-1.486709
N65	N	0.313360	-0.308837	-1.485281
H66	H	-0.095711	0.404493	-0.719378
C67	C	0.012099	-0.050714	-0.737904
N68	N	0.012789	-0.053556	-0.629347
H69	H	-0.145217	0.613626	-0.812832
C70	C	-0.154527	0.652831	-1.065267
N71	N	-0.177152	0.748345	-1.107951
H72	H	0.008876	-0.037223	-1.250750
H73	H	0.059908	-0.252642	-0.919589
