data_functionalizedCrystal
_audit_creation_method	'MofGen! by Chris Wilmer'
_symmetry_space_group_name_H-M	'P1'
_symmetry_Int_Tables_number	1
_symmetry_cell_setting	triclinic
loop_
_symmetry_equiv_pos_as_xyz
  x,y,z
_cell_length_a	15.944499
_cell_length_b	15.944493
_cell_length_c	9.730217
_cell_angle_alpha	90.002625
_cell_angle_beta	89.996000
_cell_angle_gamma	83.476327
loop_
_atom_site_label
_atom_site_type_symbol
_atom_site_fract_x
_atom_site_fract_y
_atom_site_fract_z
O1	O	1.114525	0.108127	-0.114354
O2	O	1.614525	0.608127	0.385646
O3	O	0.869967	0.121529	-0.114337
O4	O	1.369967	0.621529	0.385663
O5	O	0.998950	-0.007452	-0.114357
O6	O	1.498950	0.492548	0.385643
O7	O	0.985542	0.237107	-0.114333
O8	O	1.485542	0.737107	0.385667
O9	O	0.998946	-0.007453	0.114223
O10	O	1.498946	0.492547	0.614223
O11	O	0.869963	0.121528	0.114243
O12	O	1.369963	0.621528	0.614243
O13	O	1.114521	0.108126	0.114226
O14	O	1.614521	0.608126	0.614226
Zn15	Zn	0.992241	0.114826	0.150527
Zn16	Zn	1.492241	0.614826	0.650527
Zn17	Zn	0.992247	0.114828	-0.150637
Zn18	Zn	1.492247	0.614828	0.349363
O19	O	0.985538	0.237106	0.114247
O20	O	1.485538	0.737106	0.614247
C21	C	0.838670	0.120979	-0.000045
C22	C	1.338670	0.620979	0.499955
C23	C	0.745422	0.119334	-0.000039
C24	C	1.245422	0.619334	0.499961
C25	C	0.453871	0.194269	-0.000052
C26	C	0.953871	0.694269	0.499948
C27	C	0.514910	0.155317	-0.112760
C28	C	1.014910	0.655317	0.387240
C29	C	0.409787	0.113358	-0.000071
C30	C	0.909787	0.613358	0.499929
C31	C	0.514892	0.155294	0.112602
C32	C	1.014892	0.655294	0.612602
C33	C	0.574695	0.116299	-0.000053
C34	C	1.074695	0.616299	0.499947
C35	C	0.469598	0.074384	-0.112873
C36	C	0.969598	0.574384	0.387127
C37	C	0.469574	0.074372	0.112591
C38	C	0.969574	0.574372	0.612591
C39	C	0.530595	0.035361	-0.000145
C40	C	1.030595	0.535361	0.499855
C41	C	0.314787	0.111666	-0.000083
C42	C	0.814787	0.611666	0.499917
C43	C	0.669694	0.117984	-0.000051
C44	C	1.169694	0.617984	0.499949
C45	C	0.998400	-0.038747	-0.000073
C46	C	1.498400	0.461253	0.499927
C47	C	0.996757	-0.131995	-0.000090
C48	C	1.496757	0.368005	0.499910
C49	C	1.072679	-0.367769	-0.000070
C50	C	1.572679	0.132231	0.499930
C51	C	1.031739	-0.418329	-0.112768
C52	C	1.531739	0.081671	0.387232
C53	C	0.993713	-0.302716	-0.000073
C54	C	1.493713	0.197284	0.499927
C55	C	1.031717	-0.418306	0.112594
C56	C	1.531717	0.081694	0.612594
C57	C	0.990778	-0.467625	-0.000051
C58	C	1.490778	0.032375	0.499949
C59	C	0.952794	-0.352047	-0.112865
C60	C	1.452794	0.147953	0.387135
C61	C	0.952783	-0.352021	0.112599
C62	C	1.452783	0.147979	0.612599
C63	C	0.911785	-0.402548	-0.000127
C64	C	1.411785	0.097452	0.499873
C65	C	0.995405	-0.207716	-0.000088
C66	C	1.495405	0.292284	0.499912
C67	C	0.989079	-0.562622	-0.000047
C68	C	1.489079	-0.062622	0.499953
C69	C	1.145818	0.108675	-0.000069
C70	C	1.645818	0.608675	0.499931
C71	C	1.239066	0.110320	-0.000084
C72	C	1.739066	0.610320	0.499916
C73	C	0.986088	0.268401	-0.000041
C74	C	1.486088	0.768401	0.499959
C75	C	0.987731	0.361650	-0.000032
C76	C	1.487731	0.861650	0.499968
N77	N	0.992244	0.114825	0.356063
N78	N	1.492244	0.614825	0.856063
N79	N	0.992251	0.114823	-0.356174
N80	N	1.492251	0.614823	0.143826
C81	C	1.106505	0.000646	0.356036
C82	C	1.606505	0.500646	0.856036
C83	C	1.163641	-0.056442	0.427962
C84	C	1.663641	0.443558	0.927962
C85	C	1.163649	-0.056442	0.571841
C86	C	1.663649	0.443558	1.071841
C87	C	1.106514	0.000649	0.643798
C88	C	1.606514	0.500649	1.143798
C89	C	1.049378	0.057736	0.571872
C90	C	1.549378	0.557736	1.071872
C91	C	1.049377	0.057732	0.427989
C92	C	1.549377	0.557732	0.927989
C93	C	0.935115	0.171910	0.571900
C94	C	1.435115	0.671910	1.071900
C95	C	0.935109	0.171916	0.428020
C96	C	1.435109	0.671916	0.928020
C97	C	0.877979	0.229001	0.643857
C98	C	1.377979	0.729001	1.143857
C99	C	0.820846	0.286094	0.571931
C100	C	1.320846	0.786094	1.071931
C101	C	0.820840	0.286093	0.428043
C102	C	1.320840	0.786093	0.928043
C103	C	0.877973	0.229003	0.356094
C104	C	1.377973	0.729003	0.856094
H105	H	0.534958	0.189529	0.207884
H106	H	1.034958	0.689529	0.707884
Br107	Br	0.548387	0.212352	-0.271572
Br108	Br	1.048387	0.712352	0.228428
Br109	Br	0.897246	-0.304008	-0.271842
Br110	Br	1.397246	0.195992	0.228158
Br111	Br	0.798328	-0.428308	-0.000212
Br112	Br	1.298328	0.071692	0.499788
Br113	Br	1.106512	0.000654	0.160769
Br114	Br	1.606512	0.500654	0.660769
Br115	Br	0.743306	0.363560	0.669589
Br116	Br	1.243306	0.863560	1.169589
Br117	Br	0.436322	0.017386	-0.271859
Br118	Br	0.936322	0.517386	0.228141
H119	H	0.919462	-0.323055	0.207886
H120	H	1.419462	0.176945	0.707886
Br121	Br	0.398292	0.306183	-0.000214
Br122	Br	0.898292	0.806183	0.499786
H123	H	1.065089	-0.447281	-0.208052
H124	H	1.565089	0.052719	0.291948
Br125	Br	0.877982	0.228998	0.839124
Br126	Br	1.377982	0.728998	1.339124
H127	H	1.065080	-0.447244	0.207866
H128	H	1.565080	0.052756	0.707866
H129	H	1.210158	-0.102927	0.369362
H130	H	1.710158	0.397073	0.869362
H131	H	1.106518	0.000638	0.760953
H132	H	1.606518	0.500638	1.260953
Br133	Br	1.241185	-0.133925	0.669459
Br134	Br	1.741185	0.366075	1.169459
Br135	Br	0.743287	0.363566	0.330441
Br136	Br	1.243287	0.863566	0.830441
H137	H	0.563787	-0.031847	-0.000211
H138	H	1.063787	0.468153	0.499789
Br139	Br	0.436050	0.017377	0.271402
Br140	Br	0.936050	0.517377	0.771402
Br141	Br	1.186047	-0.341739	-0.000257
Br142	Br	1.686047	0.158261	0.499743
H143	H	0.877976	0.229000	0.238940
H144	H	1.377976	0.729000	0.738940
