data_functionalizedCrystal
_audit_creation_method	'MofGen! by Chris Wilmer'
_symmetry_space_group_name_H-M	'P1'
_symmetry_Int_Tables_number	1
_symmetry_cell_setting	triclinic
loop_
_symmetry_equiv_pos_as_xyz
  x,y,z
_cell_length_a	18.050591
_cell_length_b	18.050589
_cell_length_c	18.050582
_cell_angle_alpha	89.981795
_cell_angle_beta	89.980240
_cell_angle_gamma	90.024669
loop_
_atom_site_label
_atom_site_type_symbol
_atom_site_fract_x
_atom_site_fract_y
_atom_site_fract_z
Zn1	Zn	1.135293	-0.295777	-0.420031
Zn2	Zn	1.635293	0.204223	0.079969
Zn3	Zn	1.135203	-0.419960	-0.295850
Zn4	Zn	1.635203	0.080040	0.204150
Zn5	Zn	1.011112	-0.295781	-0.295845
Zn6	Zn	1.511112	0.204219	0.204155
Zn7	Zn	1.011060	-0.419922	-0.419988
Zn8	Zn	1.511060	0.080078	0.080012
O9	O	1.073167	-0.357860	-0.357929
O10	O	1.573167	0.142140	0.142071
O11	O	1.239205	-0.312265	-0.403578
O12	O	1.739205	0.187735	0.096422
O13	O	1.118727	-0.403505	-0.191925
O14	O	1.618727	0.096495	0.308075
O15	O	1.027644	-0.191856	-0.312333
O16	O	1.527644	0.308144	0.187667
O17	O	1.239140	-0.403501	-0.312343
O18	O	1.739140	0.096499	0.187657
O19	O	1.118879	-0.191853	-0.403573
O20	O	1.618879	0.308147	0.096427
O21	O	1.027557	-0.312271	-0.191921
O22	O	1.527557	0.187729	0.308079
O23	O	0.907180	-0.312234	-0.312292
O24	O	1.407180	0.187766	0.187708
O25	O	1.027555	-0.403436	-0.523919
O26	O	1.527555	0.096564	-0.023919
O27	O	0.907142	-0.403440	-0.403500
O28	O	1.407142	0.096560	0.096500
O29	O	1.118828	-0.312227	-0.523950
O30	O	1.618828	0.187773	-0.023950
O31	O	1.118676	-0.523880	-0.312302
O32	O	1.618676	-0.023880	0.187698
O33	O	1.027468	-0.523852	-0.403506
O34	O	1.527468	-0.023852	0.096494
C35	C	0.880215	-0.357834	-0.357891
C36	C	1.380215	0.142166	0.142109
C37	C	0.797669	-0.357841	-0.357893
C38	C	1.297669	0.142159	0.142107
C39	C	0.548843	-0.308192	-0.308412
C40	C	1.048843	0.191808	0.191588
C41	C	0.598275	-0.290110	-0.376186
C42	C	1.098275	0.209890	0.123814
C43	C	0.500548	-0.357879	-0.357954
C44	C	1.000548	0.142121	0.142046
C45	C	0.598198	-0.375906	-0.290153
C46	C	1.098198	0.124094	0.209847
C47	C	0.646534	-0.357858	-0.357920
C48	C	1.146534	0.142142	0.142080
C49	C	0.548893	-0.339763	-0.425765
C50	C	1.048893	0.160237	0.074235
C51	C	0.548813	-0.425589	-0.339686
C52	C	1.048813	0.074411	0.160314
C53	C	0.598222	-0.407534	-0.407507
C54	C	1.098222	0.092466	0.092493
C55	C	0.416450	-0.357888	-0.357972
C56	C	0.916450	0.142112	0.142028
C57	C	0.730630	-0.357848	-0.357910
C58	C	1.230630	0.142152	0.142090
C59	C	1.073077	-0.550812	-0.357916
C60	C	1.573077	-0.050812	0.142084
C61	C	1.073107	-0.633358	-0.357936
C62	C	1.573107	-0.133358	0.142064
C63	C	1.023557	-0.832820	-0.407515
C64	C	1.523557	-0.332820	0.092485
C65	C	1.005459	-0.882253	-0.339746
C66	C	1.505459	-0.382253	0.160254
C67	C	1.073180	-0.784488	-0.357945
C68	C	1.573180	-0.284488	0.142055
C69	C	1.091314	-0.882137	-0.425722
C70	C	1.591314	-0.382137	0.074278
C71	C	1.073249	-0.930473	-0.357961
C72	C	1.573249	-0.430473	0.142039
C73	C	1.055046	-0.832834	-0.290141
C74	C	1.555046	-0.332834	0.209859
C75	C	1.140933	-0.832714	-0.376162
C76	C	1.640933	-0.332714	0.123838
C77	C	1.122861	-0.882124	-0.308347
C78	C	1.622861	-0.382124	0.191653
C79	C	1.073138	-0.700390	-0.357938
C80	C	1.573138	-0.200390	0.142062
C81	C	1.073291	-1.014570	-0.357961
C82	C	1.573291	-0.514570	0.142039
C83	C	1.266872	-0.357887	-0.357966
C84	C	1.766872	0.142113	0.142034
C85	C	1.349418	-0.357898	-0.357982
C86	C	1.849418	0.142102	0.142018
C87	C	1.073196	-0.357827	-0.551634
C88	C	1.573196	0.142173	-0.051634
C89	C	1.073208	-0.357813	-0.634180
C90	C	1.573208	0.142187	-0.134180
C91	C	1.073277	-0.164154	-0.357957
C92	C	1.573277	0.335846	0.142043
C93	C	1.073324	-0.081609	-0.357969
C94	C	1.573324	0.418391	0.142031
C95	C	1.023612	-0.407345	-0.833614
C96	C	1.523612	0.092655	-0.333614
C97	C	1.091367	-0.425502	-0.883012
C98	C	1.591367	0.074498	-0.383012
C99	C	1.073245	-0.357756	-0.785311
C100	C	1.573245	0.142244	-0.285311
C101	C	1.005527	-0.339578	-0.882994
C102	C	1.505527	0.160422	-0.382994
C103	C	1.073274	-0.357703	-0.931296
C104	C	1.573274	0.142297	-0.431296
C105	C	1.141036	-0.375950	-0.833622
C106	C	1.641036	0.124050	-0.333622
C107	C	1.055150	-0.289994	-0.833599
C108	C	1.555150	0.210006	-0.333599
C109	C	1.122952	-0.308126	-0.882975
C110	C	1.622952	0.191874	-0.382975
C111	C	1.073227	-0.357789	-0.701212
C112	C	1.573227	0.142211	-0.201212
C113	C	1.073300	-0.357670	-1.015392
C114	C	1.573300	0.142330	-0.515392
C115	C	1.073181	-0.357839	-0.164976
C116	C	1.573181	0.142161	0.335024
C117	C	1.073312	-0.357644	-0.082431
C118	C	1.573312	0.142356	0.417569
H119	H	0.981531	-0.811171	-0.449375
H120	H	1.481531	-0.311171	0.050625
N121	N	1.175687	-0.255492	-0.909988
N122	N	1.675687	0.244508	-0.409988
N123	N	1.242714	-0.262306	-0.894013
N124	N	1.742714	0.237694	-0.394013
H125	H	1.279960	-0.225136	-0.913091
H126	H	1.779960	0.274864	-0.413091
N127	N	0.971009	-0.460024	-0.806430
N128	N	1.471009	0.039976	-0.306430
N129	N	0.977800	-0.527083	-0.822283
N130	N	1.477800	-0.027083	-0.322283
H131	H	0.940652	-0.564290	-0.803084
H132	H	1.440652	-0.064290	-0.303084
N133	N	1.212910	-0.395312	-0.806534
N134	N	1.712910	0.104688	-0.306534
N135	N	1.240720	-0.456569	-0.822896
N136	N	1.740720	0.043431	-0.322896
H137	H	1.291479	-0.470247	-0.803763
H138	H	1.791479	0.029753	-0.303763
H139	H	0.948195	-0.904030	-0.324352
H140	H	1.448195	-0.404030	0.175648
H141	H	0.527325	-0.324440	-0.483105
H142	H	1.027325	0.175560	0.016895
H143	H	0.619987	-0.232837	-0.391637
H144	H	1.119987	0.267163	0.108363
H145	H	1.039669	-0.811267	-0.232813
H146	H	1.539669	-0.311267	0.267187
N147	N	0.521622	-0.255464	-0.255936
N148	N	1.021622	0.244536	0.244064
N149	N	0.481973	-0.276436	-0.203150
N150	N	0.981973	0.223564	0.296850
H151	H	0.462746	-0.239197	-0.166091
H152	H	0.962746	0.260803	0.333909
H153	H	0.619766	-0.449544	-0.449438
H154	H	1.119766	0.050456	0.050562
N155	N	1.035897	-0.218153	-0.806355
N156	N	1.535897	0.281847	-0.306355
N157	N	0.974426	-0.190485	-0.822142
N158	N	1.474426	0.309515	-0.322142
H159	H	0.960821	-0.139746	-0.802902
H160	H	1.460821	0.360254	-0.302902
H161	H	0.527071	-0.482843	-0.324224
H162	H	1.027071	0.017157	0.175776
N163	N	1.175539	-0.909107	-0.255703
N164	N	1.675539	-0.409107	0.244297
N165	N	1.168776	-0.893158	-0.188660
N166	N	1.668776	-0.393158	0.311340
H167	H	1.205978	-0.912216	-0.151478
H168	H	1.705978	-0.412216	0.348522
H169	H	0.948246	-0.324225	-0.904682
H170	H	1.448246	0.175775	-0.404682
N171	N	1.212748	-0.805390	-0.395530
N172	N	1.712748	-0.305390	0.104470
N173	N	1.220562	-0.764844	-0.451138
N174	N	1.720562	-0.264844	0.048862
H175	H	1.271282	-0.745546	-0.464826
H176	H	1.771282	-0.245546	0.035174
H177	H	0.619858	-0.391162	-0.232829
H178	H	1.119858	0.108838	0.267171
H179	H	1.106625	-0.903794	-0.483034
H180	H	1.606625	-0.403794	0.016966
H181	H	1.106690	-0.482785	-0.904717
H182	H	1.606690	0.017215	-0.404717
