data_functionalizedCrystal
_audit_creation_method	'MofGen! by Chris Wilmer'
_symmetry_space_group_name_H-M	'P1'
_symmetry_Int_Tables_number	1
_symmetry_cell_setting	triclinic
loop_
_symmetry_equiv_pos_as_xyz
  x,y,z
_cell_length_a	12.759401
_cell_length_b	19.121063
_cell_length_c	12.759393
_cell_angle_alpha	87.595965
_cell_angle_beta	90.019676
_cell_angle_gamma	92.469288
loop_
_atom_site_label
_atom_site_type_symbol
_atom_site_fract_x
_atom_site_fract_y
_atom_site_fract_z
Zn1	Zn	1.588332	-0.279571	0.611775
Zn2	Zn	2.088332	0.220429	1.111775
Zn3	Zn	1.580688	-0.397038	0.443570
Zn4	Zn	2.080688	0.102962	0.943570
Zn5	Zn	1.412629	-0.279606	0.436116
Zn6	Zn	1.912629	0.220394	0.936116
Zn7	Zn	1.405091	-0.396986	0.619208
Zn8	Zn	1.905091	0.103014	1.119208
O9	O	1.496685	-0.338300	0.527667
O10	O	1.996685	0.161700	1.027667
O11	O	1.734339	-0.295160	0.589471
O12	O	2.234339	0.204840	1.089471
O13	O	1.558350	-0.381496	0.295562
O14	O	2.058350	0.118504	0.795562
O15	O	1.442290	-0.181317	0.453188
O16	O	1.942290	0.318683	0.953188
O17	O	1.728723	-0.381462	0.465891
O18	O	2.228723	0.118538	0.965891
O19	O	1.571379	-0.181291	0.582243
O20	O	2.071379	0.318709	1.082243
O21	O	1.434878	-0.295220	0.290086
O22	O	1.934878	0.204780	0.790086
O23	O	1.264608	-0.295170	0.460395
O24	O	1.764608	0.204830	0.960395
O25	O	1.429443	-0.381375	0.765241
O26	O	1.929443	0.118625	1.265241
O27	O	1.259070	-0.381409	0.594911
O28	O	1.759070	0.118591	1.094911
O29	O	1.564070	-0.295110	0.759780
O30	O	2.064070	0.204890	1.259780
O31	O	1.551041	-0.495315	0.473099
O32	O	2.051041	0.004685	0.973099
O33	O	1.422031	-0.495277	0.602139
O34	O	1.922031	0.004723	1.102139
C35	C	1.223719	-0.338288	0.527652
C36	C	1.723719	0.161712	1.027652
C37	C	1.106941	-0.338300	0.527671
C38	C	1.606941	0.161700	1.027671
C39	C	1.054999	-0.293444	0.592128
C40	C	1.554999	0.206556	1.092128
C41	C	0.945274	-0.293451	0.592135
C42	C	1.445274	0.206549	1.092135
C43	C	0.939444	-0.383177	0.463227
C44	C	1.439444	0.116823	0.963227
C45	C	1.049166	-0.383165	0.463214
C46	C	1.549166	0.116835	0.963214
C47	C	1.484917	-0.520780	0.539257
C48	C	1.984917	-0.020780	1.039257
C49	C	1.479979	-0.598846	0.544251
C50	C	1.979979	-0.098846	1.044251
C51	C	1.544880	-0.635518	0.479468
C52	C	2.044880	-0.135518	0.979468
C53	C	1.540241	-0.708869	0.484170
C54	C	2.040241	-0.208869	0.984170
C55	C	1.470696	-0.745547	0.553651
C56	C	1.970696	-0.245547	1.053651
C57	C	1.405792	-0.708870	0.618441
C58	C	1.905792	-0.208870	1.118441
C59	C	1.410437	-0.635520	0.613743
C60	C	1.910437	-0.135520	1.113743
C61	C	1.453315	-0.967015	0.571199
C62	C	1.953315	-0.467015	1.071199
C63	C	1.448673	-1.040370	0.575889
C64	C	1.948673	-0.540370	1.075889
C65	C	1.583125	-1.040364	0.441620
C66	C	2.083125	-0.540364	0.941620
C67	C	1.587758	-0.967013	0.436923
C68	C	2.087758	-0.467013	0.936923
C69	C	1.522858	-0.930343	0.501717
C70	C	2.022858	-0.430343	1.001717
C71	C	1.465951	-0.820523	0.558457
C72	C	1.965951	-0.320523	1.058457
C73	C	1.527610	-0.855367	0.496916
C74	C	2.027610	-0.355367	0.996916
C75	C	1.770718	-0.338313	0.527684
C76	C	2.270718	0.161687	1.027684
C77	C	1.887494	-0.338318	0.527690
C78	C	2.387494	0.161682	1.027690
C79	C	1.496768	-0.338233	0.801696
C80	C	1.996768	0.161767	1.301696
C81	C	1.496803	-0.338204	0.918471
C82	C	1.996803	0.161796	1.418471
C83	C	1.508528	-0.155108	0.516055
C84	C	2.008528	0.344892	1.016055
C85	C	1.513575	-0.077042	0.511107
C86	C	2.013575	0.422958	1.011107
C87	C	1.496666	-0.338317	0.254701
C88	C	1.996666	0.161683	0.754701
C89	C	1.496847	-0.338148	0.137914
C90	C	1.996847	0.161852	0.637914
C91	C	1.566909	-0.293279	0.970491
C92	C	2.066909	0.206721	1.470491
C93	C	1.566929	-0.293249	1.080213
C94	C	2.066929	0.206751	1.580213
C95	C	1.426734	-0.383075	1.085887
C96	C	1.926734	0.116925	1.585887
C97	C	1.426710	-0.383101	0.976166
C98	C	1.926710	0.116899	1.476166
H99	H	1.091459	-0.419694	0.410720
H100	H	1.591459	0.080306	0.910720
H101	H	1.369614	-0.419684	0.933811
H102	H	1.869614	0.080316	1.433811
H103	H	1.584237	-0.825502	0.440348
H104	H	2.084237	-0.325502	0.940348
C105	C	1.118548	-0.244084	0.663022
C106	C	1.618548	0.255916	1.163022
N107	N	1.166410	-0.206903	0.716418
N108	N	1.666410	0.293097	1.216418
C109	C	1.621383	-0.595179	0.403030
C110	C	2.121383	-0.095179	0.903030
N111	N	1.679011	-0.564797	0.345458
N112	N	2.179011	-0.064797	0.845458
H113	H	0.902988	-0.256923	0.644620
H114	H	1.402988	0.243077	1.144620
C115	C	0.875881	-0.432531	0.392335
C116	C	1.375881	0.067469	0.892335
N117	N	0.828007	-0.469707	0.338941
N118	N	1.328007	0.030293	0.838941
H119	H	1.593090	-0.738724	0.431416
H120	H	2.093090	-0.238724	0.931416
C121	C	1.654513	-1.080708	0.370355
C122	C	2.154513	-0.580708	0.870355
N123	N	1.708287	-1.111094	0.316677
N124	N	2.208287	-0.611094	0.816677
H125	H	1.644387	-0.937151	0.380347
H126	H	2.144387	-0.437151	0.880347
C127	C	1.372172	-1.080714	0.652334
C128	C	1.872172	-0.580714	1.152334
N129	N	1.314554	-1.111102	0.709909
N130	N	1.814554	-0.611102	1.209909
C131	C	1.381976	-0.926687	0.642528
C132	C	1.881976	-0.426687	1.142528
N133	N	1.328260	-0.896310	0.696277
N134	N	1.828260	-0.396310	1.196277
H135	H	1.349172	-0.738739	0.675018
H136	H	1.849172	-0.238739	1.175018
C137	C	1.339041	-0.595182	0.685010
C138	C	1.839041	-0.095182	1.185010
N139	N	1.285266	-0.564799	0.738693
N140	N	1.785266	-0.064799	1.238693
H141	H	1.409325	-0.850394	0.615026
H142	H	1.909325	-0.350394	1.115026
C143	C	1.349634	-0.432457	1.149361
C144	C	1.849634	0.067543	1.649361
N145	N	1.291559	-0.469653	1.197169
N146	N	1.791559	0.030347	1.697169
H147	H	1.623981	-0.256719	0.923519
H148	H	2.123981	0.243281	1.423519
C149	C	1.644053	-0.243829	1.137430
C150	C	2.144053	0.256171	1.637430
N151	N	1.702146	-0.206604	1.180525
N152	N	2.202146	0.293396	1.680525
