data_functionalizedCrystal
_audit_creation_method	'MofGen! by Chris Wilmer'
_symmetry_space_group_name_H-M	'P1'
_symmetry_Int_Tables_number	1
_symmetry_cell_setting	triclinic
loop_
_symmetry_equiv_pos_as_xyz
  x,y,z
_cell_length_a	12.827893
_cell_length_b	12.827892
_cell_length_c	12.827885
_cell_angle_alpha	90.031912
_cell_angle_beta	89.980919
_cell_angle_gamma	89.974911
loop_
_atom_site_label
_atom_site_type_symbol
_atom_site_fract_x
_atom_site_fract_y
_atom_site_fract_z
Zn1	Zn	1.597599	0.415983	-0.590828
Zn2	Zn	1.597463	0.590761	-0.416082
Zn3	Zn	1.422840	0.416034	-0.416102
Zn4	Zn	1.422796	0.590683	-0.590782
O5	O	1.510175	0.503365	-0.503448
O6	O	1.743817	0.439179	-0.567658
O7	O	1.574261	0.567637	-0.269848
O8	O	1.446098	0.269791	-0.439308
O9	O	1.743717	0.567587	-0.439273
O10	O	1.574492	0.269754	-0.567678
O11	O	1.445966	0.439266	-0.269863
O12	O	1.276598	0.439190	-0.439263
O13	O	1.446022	0.567455	-0.737024
O14	O	1.276566	0.567504	-0.567600
O15	O	1.574449	0.439104	-0.737058
O16	O	1.574218	0.736986	-0.439228
O17	O	1.445891	0.736929	-0.567580
C18	C	1.238665	0.503345	-0.503430
C19	C	1.122512	0.503362	-0.503446
C20	C	1.510063	0.774875	-0.503420
C21	C	1.510111	0.891028	-0.503443
C22	C	1.070678	0.566804	-0.439833
C23	C	0.950628	0.566823	-0.439848
C24	C	1.573608	0.942711	-0.567020
C25	C	1.573659	1.062761	-0.567045
C26	C	1.782745	0.503386	-0.503468
C27	C	1.898898	0.503395	-0.503477
C28	C	1.510246	0.503265	-0.776019
C29	C	1.510276	0.503222	-0.892172
C30	C	1.510272	1.230795	-0.503492
C31	C	1.510205	1.114642	-0.503488
C32	C	1.573833	0.439698	-0.943973
C33	C	1.573866	0.439652	-1.064024
C34	C	1.510164	0.503390	-0.231939
C35	C	1.510336	0.503138	-0.115786
H36	H	1.115178	0.621110	-0.385363
F37	F	1.064353	0.432388	-0.574655
F38	F	1.439178	0.574262	-0.950368
F39	F	1.644606	0.884383	-0.638153
H40	H	1.628024	1.107208	-0.621471
H41	H	1.455844	1.070203	-0.449050
H42	H	1.455782	0.935657	-0.449036
F43	F	0.892368	0.637815	-0.368655
H44	H	0.943467	0.449072	-0.557937
F45	F	1.644904	0.368632	-0.885778
F46	F	1.644996	0.368568	-1.122247
F47	F	1.439214	0.574235	-1.057569
