data_functionalizedCrystal
_audit_creation_method	'MofGen! by Chris Wilmer'
_symmetry_space_group_name_H-M	'P1'
_symmetry_Int_Tables_number	1
_symmetry_cell_setting	triclinic
loop_
_symmetry_equiv_pos_as_xyz
  x,y,z
_cell_length_a	16.120484
_cell_length_b	12.827893
_cell_length_c	12.827885
_cell_angle_alpha	89.980728
_cell_angle_beta	87.136072
_cell_angle_gamma	87.074569
loop_
_atom_site_label
_atom_site_type_symbol
_atom_site_fract_x
_atom_site_fract_y
_atom_site_fract_z
Zn1	Zn	-0.331866	-1.576504	0.611895
Zn2	Zn	0.001467	-1.243170	0.945229
Zn3	Zn	0.334800	-0.909837	1.278562
Zn4	Zn	-0.471301	-1.567505	0.445998
Zn5	Zn	-0.137968	-1.234171	0.779332
Zn6	Zn	0.195365	-0.900838	1.112665
Zn7	Zn	-0.331907	-1.401742	0.437171
Zn8	Zn	0.001426	-1.068409	0.770505
Zn9	Zn	0.334760	-0.735076	1.103838
Zn10	Zn	-0.471239	-1.392841	0.620694
Zn11	Zn	-0.137906	-1.059508	0.954028
Zn12	Zn	0.195427	-0.726175	1.287361
O13	O	-0.401579	-1.484648	0.528940
O14	O	-0.068245	-1.151315	0.862273
O15	O	0.265088	-0.817981	1.195607
O16	O	-0.350372	-1.721545	0.589900
O17	O	-0.017038	-1.388212	0.923234
O18	O	0.316295	-1.054879	1.256567
O19	O	-0.452853	-1.545475	0.298594
O20	O	-0.119520	-1.212142	0.631927
O21	O	0.213813	-0.878809	0.965261
O22	O	-0.215236	-1.432416	0.452972
O23	O	0.118097	-1.099083	0.786306
O24	O	0.451430	-0.765749	1.119639
O25	O	-0.452814	-1.714934	0.468017
O26	O	-0.119481	-1.381601	0.801350
O27	O	0.213853	-1.048267	1.134683
O28	O	-0.215206	-1.560812	0.581341
O29	O	0.118127	-1.227479	0.914675
O30	O	0.451460	-0.894146	1.248008
O31	O	-0.350441	-1.423690	0.292109
O32	O	-0.017107	-1.090357	0.625442
O33	O	0.316226	-0.757024	0.958776
O34	O	-0.350381	-1.254326	0.461505
O35	O	-0.017047	-0.920993	0.794838
O36	O	0.316286	-0.587660	1.128171
O37	O	-0.452708	-1.417245	0.765761
O38	O	-0.119375	-1.083912	1.099094
O39	O	0.213958	-0.750579	1.432427
O40	O	-0.452748	-1.247787	0.596338
O41	O	-0.119414	-0.914453	0.929671
O42	O	0.213919	-0.581120	1.263005
O43	O	-0.350311	-1.552181	0.759296
O44	O	-0.016978	-1.218848	1.092629
O45	O	0.316355	-0.885515	1.425963
O46	O	-0.587959	-1.536844	0.476549
O47	O	-0.254625	-1.203511	0.809882
O48	O	0.078708	-0.870177	1.143215
O49	O	-0.587913	-1.408520	0.604897
O50	O	-0.254580	-1.075186	0.938231
O51	O	0.078754	-0.741853	1.271564
C52	C	-0.401562	-1.213139	0.528919
C53	C	-0.068229	-0.879806	0.862252
C54	C	0.265104	-0.546473	1.195586
C55	C	-0.401576	-1.096985	0.528936
C56	C	-0.068242	-0.763652	0.862269
C57	C	0.265091	-0.430319	1.195603
C58	C	-0.618186	-1.470768	0.542658
C59	C	-0.284852	-1.137434	0.875992
C60	C	0.048481	-0.804101	1.209325
C61	C	-0.710851	-1.464925	0.548562
C62	C	-0.377518	-1.131592	0.881896
C63	C	-0.044185	-0.798259	1.215229
C64	C	-0.401498	-1.484724	0.801505
C65	C	-0.068165	-1.151391	1.134838
C66	C	0.265168	-0.818058	1.468172
C67	C	-0.401464	-1.484757	0.917656
C68	C	-0.068131	-1.151423	1.250990
C69	C	0.265202	-0.818090	1.584323
C70	C	-0.880512	-1.454265	0.559362
C71	C	-0.547179	-1.120931	0.892696
C72	C	-0.213846	-0.787598	1.226029
C73	C	-0.921804	-1.515219	0.498534
C74	C	-0.588471	-1.181885	0.831868
C75	C	-0.255138	-0.848552	1.165201
C76	C	-1.016209	-1.509287	0.504544
C77	C	-0.682876	-1.175954	0.837877
C78	C	-0.349543	-0.842620	1.171210
C79	C	-0.786099	-1.460195	0.553355
C80	C	-0.452765	-1.126862	0.886688
C81	C	-0.119432	-0.793528	1.220021
C82	C	-0.184125	-1.498611	0.515191
C83	C	0.149208	-1.165278	0.848524
C84	C	0.482541	-0.831944	1.181857
C85	C	-0.091460	-1.504561	0.509332
C86	C	0.241873	-1.171228	0.842665
C87	C	0.575207	-0.837894	1.175998
C88	C	-0.401595	-1.757217	0.528962
C89	C	-0.068262	-1.423884	0.862295
C90	C	0.265071	-1.090550	1.195628
C91	C	-0.401602	-1.873370	0.528971
C92	C	-0.068269	-1.540036	0.862304
C93	C	0.265064	-1.206703	1.195637
C94	C	-0.452309	-1.041987	0.595563
C95	C	-0.118976	-0.708654	0.928896
C96	C	0.214357	-0.375320	1.262230
C97	C	-0.452324	-0.921936	0.595582
C98	C	-0.118991	-0.588602	0.928916
C99	C	0.214343	-0.255269	1.262249
C100	C	-0.401598	-1.484636	0.257431
C101	C	-0.068265	-1.151303	0.590765
C102	C	0.265069	-0.817969	0.924098
C103	C	-0.401397	-1.484821	0.141266
C104	C	-0.068064	-1.151488	0.474599
C105	C	0.265269	-0.818154	0.807933
C106	C	-0.350785	-1.551535	0.966241
C107	C	-0.017452	-1.218202	1.299575
C108	C	0.315881	-0.884868	1.632908
C109	C	-0.350749	-1.551570	1.086289
C110	C	-0.017415	-1.218237	1.419623
C111	C	0.315918	-0.884903	1.752956
H112	H	-0.916059	-1.397630	0.615947
H113	H	-0.582726	-1.064296	0.949280
H114	H	-0.249393	-0.730963	1.282614
C115	C	-0.557842	-1.024584	0.734170
C116	C	-0.224509	-0.691251	1.067504
C117	C	0.108825	-0.357917	1.400837
C118	C	-0.510931	-1.098392	0.672558
C119	C	-0.177597	-0.765058	1.005892
C120	C	0.155736	-0.431725	1.339225
H121	H	-0.594029	-1.059407	0.781710
H122	H	-0.260695	-0.726073	1.115043
H123	H	0.072638	-0.392740	1.448376
H124	H	-0.589727	-0.979958	0.690639
H125	H	-0.256393	-0.646624	1.023973
H126	H	0.076940	-0.313291	1.357306
H127	H	-0.521583	-0.984344	0.771961
H128	H	-0.188250	-0.651011	1.105294
H129	H	0.145084	-0.317677	1.438627
H130	H	-0.547190	-1.138627	0.634762
H131	H	-0.213856	-0.805294	0.968095
H132	H	0.119477	-0.471960	1.301429
H133	H	-0.479044	-1.143036	0.716095
H134	H	-0.145711	-0.809703	1.049428
H135	H	0.187623	-0.476369	1.382762
C136	C	-0.389978	-0.974801	0.387773
C137	C	-0.056645	-0.641468	0.721107
C138	C	0.276688	-0.308135	1.054440
C139	C	-0.342957	-1.040588	0.451931
C140	C	-0.009624	-0.707255	0.785264
C141	C	0.323710	-0.373922	1.118598
H142	H	-0.353788	-0.939995	0.340225
H143	H	-0.020455	-0.606661	0.673558
H144	H	0.312878	-0.273328	1.006892
H145	H	-0.421795	-0.924740	0.429577
H146	H	-0.088461	-0.591407	0.762910
H147	H	0.244872	-0.258073	1.096244
H148	H	-0.426231	-1.015060	0.349994
H149	H	-0.092898	-0.681727	0.683327
H150	H	0.240435	-0.348394	1.016660
H151	H	-0.306708	-1.000328	0.489716
H152	H	0.026625	-0.666995	0.823050
H153	H	0.359959	-0.333662	1.156383
H154	H	-0.311126	-1.090656	0.410122
H155	H	0.022207	-0.757323	0.743455
H156	H	0.355540	-0.423990	1.076789
H157	H	-0.444791	-1.427651	1.099479
H158	H	-0.111458	-1.094317	1.432812
H159	H	0.221876	-0.760984	1.766145
H160	H	-0.886255	-1.571857	0.441944
H161	H	-0.552921	-1.238524	0.775277
H162	H	-0.219588	-0.905190	1.108611
C163	C	-0.499625	-0.751539	0.657709
C164	C	-0.166292	-0.418206	0.991042
C165	C	0.167042	-0.084873	1.324375
C166	C	-0.510962	-0.858112	0.672594
C167	C	-0.177628	-0.524778	1.005927
C168	C	0.155705	-0.191445	1.339261
H169	H	-0.535824	-0.712138	0.705260
H170	H	-0.202490	-0.378805	1.038593
H171	H	0.130843	-0.045471	1.371927
H172	H	-0.511753	-0.732900	0.588234
H173	H	-0.178420	-0.399567	0.921567
H174	H	0.154913	-0.066234	1.254900
H175	H	-0.443610	-0.737302	0.669556
H176	H	-0.110277	-0.403969	1.002889
H177	H	0.223057	-0.070635	1.336222
H178	H	-0.566975	-0.872350	0.660740
H179	H	-0.233642	-0.539017	0.994073
H180	H	0.099691	-0.205684	1.327406
H181	H	-0.498839	-0.876757	0.742086
H182	H	-0.165506	-0.543424	1.075419
H183	H	0.167827	-0.210091	1.408752
H184	H	-0.358168	-0.920648	0.471922
H185	H	-0.024835	-0.587314	0.805256
H186	H	0.308498	-0.253981	1.138589
H187	H	-0.307421	-1.608676	0.918962
H188	H	0.025912	-1.275343	1.252295
H189	H	0.359246	-0.942010	1.585628
H190	H	-0.307363	-1.608744	1.128084
H191	H	0.025970	-1.275411	1.461417
H192	H	0.359303	-0.942078	1.794751
C193	C	-0.513486	-1.463197	1.047606
C194	C	-0.180152	-1.129864	1.380940
C195	C	0.153181	-0.796530	1.714273
C196	C	-0.460010	-1.407611	0.981467
C197	C	-0.126677	-1.074277	1.314800
C198	C	0.206657	-0.740944	1.648133
H199	H	-0.549634	-1.415567	1.086992
H200	H	-0.216301	-1.082234	1.420325
H201	H	0.117033	-0.748900	1.753659
H202	H	-0.481684	-1.505083	1.093641
H203	H	-0.148351	-1.171749	1.426975
H204	H	0.184982	-0.838416	1.760308
H205	H	-0.545415	-1.506627	1.007036
H206	H	-0.212082	-1.173294	1.340369
H207	H	0.121252	-0.839960	1.673703
H208	H	-0.428076	-1.364186	1.022038
H209	H	-0.094743	-1.030853	1.355371
H210	H	0.238591	-0.697519	1.688705
H211	H	-0.491815	-1.365707	0.935427
H212	H	-0.158481	-1.032374	1.268760
H213	H	0.174852	-0.699040	1.602093
