data_functionalizedCrystal
_audit_creation_method	'MofGen! by Chris Wilmer'
_symmetry_space_group_name_H-M	'P1'
_symmetry_Int_Tables_number	1
_symmetry_cell_setting	triclinic
loop_
_symmetry_equiv_pos_as_xyz
  x,y,z
_cell_length_a	10.968094
_cell_length_b	10.967829
_cell_length_c	16.176319
_cell_angle_alpha	77.865348
_cell_angle_beta	102.120057
_cell_angle_gamma	87.247546
loop_
_atom_site_label
_atom_site_type_symbol
_atom_site_fract_x
_atom_site_fract_y
_atom_site_fract_z
O1	O	1.657112	0.174980	0.142377
O2	O	1.293979	0.191745	0.088260
O3	O	1.483917	0.001782	0.142382
O4	O	1.467174	0.364943	0.088255
O5	O	1.483891	0.001770	0.279873
O6	O	1.293952	0.191733	0.225751
O7	O	1.657085	0.174967	0.279868
Cu8	Cu	1.475516	0.183349	0.265364
Cu9	Cu	1.475548	0.183364	0.102764
O10	O	1.467147	0.364930	0.225746
C11	C	1.247468	0.190521	0.150556
C12	C	1.108921	0.186878	0.131338
C13	C	0.903936	0.181469	0.174130
C14	C	1.047131	0.185243	0.193999
C15	C	1.482684	-0.044725	0.217577
C16	C	1.479033	-0.183282	0.236793
C17	C	1.477419	-0.245042	0.174135
C18	C	1.473645	-0.388248	0.193994
C19	C	1.703596	0.176191	0.217571
C20	C	1.842143	0.179834	0.236782
C21	C	1.468381	0.411437	0.150549
C22	C	1.472032	0.549994	0.131327
N23	N	1.475504	0.183338	0.379729
N24	N	1.475571	0.183365	-0.011598
C25	C	1.559634	0.099257	0.446957
C26	C	1.559640	0.099256	0.533505
C27	C	1.475521	0.183342	0.552823
C28	C	1.391382	0.267427	0.485587
C29	C	1.391370	0.267421	0.399041
C30	C	1.391425	0.267451	0.834618
C31	C	1.391445	0.267453	0.921172
C32	C	1.559695	0.099285	0.969082
C33	C	1.559683	0.099280	0.882536
C34	C	1.475540	0.183359	0.815307
C35	C	1.475533	0.183358	0.721462
C36	C	1.475534	0.183350	0.646666
H37	H	1.055820	0.185485	0.062986
H38	H	1.100235	0.186632	0.262352
C39	C	1.652173	0.006753	0.425717
N40	N	1.721872	-0.062928	0.409723
H41	H	1.478825	-0.191898	0.105788
C42	C	0.913881	0.181739	0.329116
N43	N	0.967910	0.183183	0.398663
C44	C	1.471735	-0.460033	0.286334
N45	N	1.470297	-0.514102	0.355882
C46	C	1.477122	-0.255071	0.329128
N47	N	1.475684	-0.309141	0.398677
H48	H	1.628145	0.030790	0.588243
H49	H	1.628185	0.030813	0.866812
C50	C	1.298838	0.359911	0.506840
N51	N	1.229131	0.429572	0.522846
H52	H	1.473429	-0.396866	0.062974
H53	H	1.628205	0.030819	1.023830
H54	H	1.322940	0.335928	0.936896
H55	H	1.322861	0.335887	0.344302
H56	H	1.322914	0.335914	0.779887
H57	H	0.850830	0.180067	0.105784
