data_functionalizedCrystal
_audit_creation_method	'MofGen! by Chris Wilmer'
_symmetry_space_group_name_H-M	'P1'
_symmetry_Int_Tables_number	1
_symmetry_cell_setting	triclinic
loop_
_symmetry_equiv_pos_as_xyz
  x,y,z
_cell_length_a	17.019311
_cell_length_b	23.532357
_cell_length_c	16.098538
_cell_angle_alpha	92.699547
_cell_angle_beta	83.390489
_cell_angle_gamma	83.112989
loop_
_atom_site_label
_atom_site_type_symbol
_atom_site_fract_x
_atom_site_fract_y
_atom_site_fract_z
O1	O	1.053521	0.067251	-0.144820
O2	O	1.553521	0.567251	0.355180
O3	O	0.822933	0.077107	-0.128286
O4	O	1.322933	0.577107	0.371714
O5	O	0.945200	-0.010750	-0.137036
O6	O	1.445200	0.489250	0.362964
O7	O	0.931254	0.155107	-0.136070
O8	O	1.431254	0.655107	0.363930
O9	O	0.938058	-0.005638	0.001988
O10	O	1.438058	0.494362	0.501988
O11	O	0.815791	0.082219	0.010738
O12	O	1.315791	0.582219	0.510738
O13	O	1.046379	0.072363	-0.005796
O14	O	1.546379	0.572363	0.494204
Zn15	Zn	0.929951	0.078103	0.024544
Zn16	Zn	1.429951	0.578103	0.524544
Zn17	Zn	0.939361	0.071367	-0.158626
Zn18	Zn	1.439361	0.571367	0.341374
O19	O	0.924112	0.160220	0.002954
O20	O	1.424112	0.660220	0.502954
C21	C	0.789867	0.079389	-0.056659
C22	C	1.289867	0.579389	0.443341
C23	C	0.701982	0.078567	-0.050357
C24	C	1.201982	0.578567	0.449643
C25	C	0.204724	0.074076	-0.010912
C26	C	0.704724	0.574076	0.489088
C27	C	0.287301	0.074848	-0.016835
C28	C	0.787301	0.574848	0.483165
C29	C	0.332484	0.072443	-0.095580
C30	C	0.832484	0.572443	0.404420
C31	C	0.295084	0.069272	-0.168406
C32	C	0.795084	0.569272	0.331594
C33	C	0.212507	0.068503	-0.162482
C34	C	0.712507	0.568503	0.337518
C35	C	0.582006	0.074627	-0.117259
C36	C	1.082006	0.574627	0.382741
C37	C	0.664588	0.075394	-0.123178
C38	C	1.164588	0.575394	0.376822
C39	C	0.656799	0.080971	0.028395
C40	C	1.156799	0.580971	0.528395
C41	C	0.574222	0.080199	0.034312
C42	C	1.074222	0.580199	0.534312
C43	C	0.536829	0.077031	-0.038514
C44	C	1.036829	0.577031	0.461486
C45	C	0.416891	0.073231	-0.101637
C46	C	0.916891	0.573231	0.398363
C47	C	0.452422	0.076247	-0.032457
C48	C	0.952422	0.576247	0.467543
C49	C	0.941280	-0.029410	-0.067496
C50	C	1.441280	0.470590	0.432504
C51	C	0.940231	-0.092629	-0.067413
C52	C	1.440231	0.407371	0.432587
C53	C	0.937541	-0.487433	-0.142768
C54	C	1.437541	0.012567	0.357232
C55	C	0.936544	-0.546833	-0.142701
C56	C	1.436544	-0.046833	0.357299
O57	O	0.939313	-0.579920	-0.207112
O58	O	1.439313	-0.079920	0.292888
N59	N	0.932157	-0.573758	-0.066885
N60	N	1.432157	-0.073758	0.433115
C61	C	0.928758	-0.541279	0.008870
C62	C	1.428758	-0.041279	0.508870
O63	O	0.924933	-0.569635	0.073364
O64	O	1.424933	-0.069635	0.573364
C65	C	0.929749	-0.481879	0.008803
C66	C	1.429749	0.018121	0.508803
C67	C	0.934145	-0.454958	-0.067019
C68	C	1.434145	0.045042	0.432981
C69	C	0.941936	-0.460512	-0.218584
C70	C	1.441936	0.039488	0.281416
C71	C	0.942934	-0.401116	-0.218650
C72	C	1.442934	0.098884	0.281350
C73	C	0.939538	-0.368641	-0.142901
C74	C	1.439538	0.131359	0.357099
C75	C	0.935143	-0.395562	-0.067085
C76	C	1.435143	0.104438	0.432915
C77	C	0.926344	-0.449400	0.084558
C78	C	1.426344	0.050600	0.584558
C79	C	0.927335	-0.389997	0.084484
C80	C	1.427335	0.110003	0.584484
C81	C	0.931731	-0.363076	0.008662
C82	C	1.431731	0.136924	0.508662
C83	C	0.932745	-0.303692	0.008597
C84	C	1.432745	0.196308	0.508597
N85	N	0.937132	-0.276767	-0.067219
N86	N	1.437132	0.223233	0.432781
C87	C	0.940529	-0.309241	-0.142968
C88	C	1.440529	0.190759	0.357032
C89	C	0.926675	-0.666022	0.009006
C90	C	1.426675	-0.166022	0.509006
C91	C	0.925689	-0.725422	0.009073
C92	C	1.425689	-0.225422	0.509073
C93	C	0.933474	-0.730972	-0.142498
C94	C	1.433474	-0.230972	0.357502
C95	C	0.934466	-0.671572	-0.142566
C96	C	1.434466	-0.171572	0.357434
C97	C	0.931062	-0.639097	-0.066811
C98	C	1.431062	-0.139097	0.433189
C99	C	0.942626	-0.184505	-0.143102
C100	C	1.442626	0.315495	0.356898
C101	C	0.943627	-0.125104	-0.143162
C102	C	1.443627	0.374896	0.356838
C103	C	0.935838	-0.119559	0.008409
C104	C	1.435838	0.380441	0.508409
C105	C	0.934840	-0.178955	0.008470
C106	C	1.434840	0.321045	0.508470
C107	C	0.938232	-0.211427	-0.067293
C108	C	1.438232	0.288573	0.432707
O109	O	0.929975	-0.270568	0.072975
O110	O	1.429975	0.229432	0.572975
O111	O	0.944342	-0.280877	-0.207451
O112	O	1.444342	0.219123	0.292549
C113	C	1.079445	0.070081	-0.077425
C114	C	1.579445	0.570081	0.422575
C115	C	1.167330	0.070903	-0.083733
C116	C	1.667330	0.570903	0.416267
C117	C	0.928032	0.178880	-0.066588
C118	C	1.428032	0.678880	0.433412
C119	C	0.929081	0.242099	-0.066676
C120	C	1.429081	0.742099	0.433324
N121	N	0.923534	0.082699	0.149553
N122	N	1.423534	0.582699	0.649553
N123	N	0.945783	0.066766	-0.283635
N124	N	1.445783	0.566766	0.216365
C125	C	0.975448	0.045422	0.189422
C126	C	1.475448	0.545422	0.689422
C127	C	0.970967	0.048643	0.276932
C128	C	1.470967	0.548643	0.776932
C129	C	0.914575	0.089144	0.324570
C130	C	1.414575	0.589144	0.824570
C131	C	0.862656	0.126422	0.284694
C132	C	1.362656	0.626422	0.784694
C133	C	0.867134	0.123198	0.197186
C134	C	1.367134	0.623198	0.697186
C135	C	0.898342	0.100821	0.588982
C136	C	1.398342	0.600821	1.088982
C137	C	0.893870	0.104043	0.676495
C138	C	1.393870	0.604043	1.176495
C139	C	1.002180	0.026263	0.668727
C140	C	1.502180	0.526263	1.168727
C141	C	1.006656	0.023045	0.581218
C142	C	1.506656	0.523045	1.081218
C143	C	0.954734	0.060321	0.541350
C144	C	1.454734	0.560321	1.041350
C145	C	0.909995	0.092438	0.414019
C146	C	1.409995	0.592438	0.914019
C147	C	0.959311	0.057024	0.451903
C148	C	1.459311	0.557024	0.951903
H149	H	0.182063	0.065921	-0.221781
H150	H	0.682063	0.565921	0.278219
Cl151	Cl	0.703811	0.084959	0.119941
Cl152	Cl	1.203811	0.584959	0.619941
Cl153	Cl	0.334306	0.078840	0.074716
Cl154	Cl	0.834306	0.578840	0.574716
Cl155	Cl	0.937737	-0.771808	-0.237727
Cl156	Cl	1.437737	-0.271808	0.262273
Cl157	Cl	0.923057	-0.349175	0.179725
Cl158	Cl	1.423057	0.150825	0.679725
Cl159	Cl	0.931568	-0.078722	0.103632
Cl160	Cl	1.431568	0.421278	0.603632
H161	H	0.701374	0.073440	-0.187304
H162	H	1.201374	0.573440	0.312696
H163	H	0.167941	0.076036	0.053211
H164	H	0.667941	0.576036	0.553211
H165	H	0.946510	-0.379202	-0.280392
H166	H	1.446510	0.120798	0.219608
Cl167	Cl	0.535009	0.070640	-0.208813
Cl168	Cl	1.035009	0.570640	0.291187
H169	H	0.922766	-0.471309	0.146300
H170	H	1.422766	0.028691	0.646300
H171	H	1.044452	-0.004086	0.701196
H172	H	1.544452	0.495914	1.201196
Cl173	Cl	0.351886	0.066249	-0.267401
Cl174	Cl	0.851886	0.566249	0.232599
H175	H	1.021372	0.012445	0.150641
H176	H	1.521372	0.512445	0.650641
H177	H	0.537442	0.082145	0.098434
H178	H	1.037442	0.582145	0.598434
Cl179	Cl	0.791759	0.177335	0.344580
Cl180	Cl	1.291759	0.677335	0.844580
H181	H	0.847946	0.137026	0.715279
H182	H	1.347946	0.637026	1.215279
H183	H	0.824859	0.153552	0.164726
H184	H	1.324859	0.653552	0.664726
Cl185	Cl	0.839105	0.143354	0.473910
Cl186	Cl	1.339105	0.643354	0.973910
H187	H	0.856066	0.131174	0.556528
H188	H	1.356066	0.631174	1.056528
Cl189	Cl	0.929329	-0.212801	0.103788
Cl190	Cl	1.429329	0.287199	0.603788
Cl191	Cl	0.395619	0.079273	0.066533
Cl192	Cl	0.895619	0.579273	0.566533
H193	H	0.453689	0.071271	-0.165751
H194	H	0.953689	0.571271	0.334249
H195	H	0.947208	-0.103188	-0.204908
H196	H	1.447208	0.396812	0.295092
Cl197	Cl	1.030199	0.006109	0.392015
Cl198	Cl	1.530199	0.506109	0.892015
H199	H	0.923906	-0.639585	0.070698
H200	H	1.423906	-0.139585	0.570698
H201	H	0.944699	-0.486947	-0.280271
H202	H	1.444699	0.013053	0.219729
Cl203	Cl	0.946891	-0.225318	-0.238348
Cl204	Cl	1.446891	0.274682	0.261652
Cl205	Cl	0.920178	-0.759259	0.104395
Cl206	Cl	1.420178	-0.259259	0.604395
Cl207	Cl	0.939989	-0.637735	-0.237888
Cl208	Cl	1.439989	-0.137735	0.262112
Cl209	Cl	1.077550	-0.027870	0.521330
Cl210	Cl	1.577550	0.472130	1.021330
Cl211	Cl	1.036230	0.001780	0.327056
Cl212	Cl	1.536230	0.501780	0.827056
