data_functionalizedCrystal
_audit_creation_method	'MofGen! by Chris Wilmer'
_symmetry_space_group_name_H-M	'P1'
_symmetry_Int_Tables_number	1
_symmetry_cell_setting	triclinic
loop_
_symmetry_equiv_pos_as_xyz
  x,y,z
_cell_length_a	27.435584
_cell_length_b	27.434948
_cell_length_c	27.431174
_cell_angle_alpha	60.005483
_cell_angle_beta	60.011353
_cell_angle_gamma	59.993028
loop_
_atom_site_label
_atom_site_type_symbol
_atom_site_fract_x
_atom_site_fract_y
_atom_site_fract_z
O1	O	0.067437	-0.712144	0.595551
O2	O	0.025356	-0.554453	0.479848
O3	O	0.125206	-0.654236	0.479781
O4	O	-0.032412	-0.612361	0.595618
O5	O	0.158328	-0.621117	0.512835
O6	O	0.058479	-0.521333	0.512902
O7	O	0.100560	-0.679025	0.628605
Zn8	Zn	0.084778	-0.594921	0.576001
Zn9	Zn	0.041138	-0.638557	0.532452
O10	O	0.000710	-0.579241	0.628672
N11	N	0.114563	-0.565144	0.605726
N12	N	0.011358	-0.668338	0.502727
C13	C	0.156385	-0.523520	0.904506
C14	C	0.413419	-0.523497	0.647322
C15	C	0.156253	-0.523488	0.647384
C16	C	0.156238	-0.266354	0.647407
C17	C	0.197637	-0.390463	0.688753
C18	C	0.197646	-0.482126	0.688741
C19	C	0.220575	-0.459215	0.711654
C20	C	0.320555	-0.441991	0.659023
C21	C	0.383051	-0.462825	0.638179
C22	C	0.383069	-0.563942	0.676737
C23	C	0.320575	-0.543107	0.697583
C24	C	0.212704	-0.359206	0.627313
C25	C	0.191849	-0.296705	0.606496
C26	C	0.140866	-0.296722	0.708562
C27	C	0.161721	-0.359223	0.729379
C28	C	0.136200	-0.467030	0.703858
C29	C	0.115361	-0.487857	0.683021
C30	C	0.217408	-0.538877	0.631968
C31	C	0.238249	-0.518050	0.652796
C32	C	0.136259	-0.467047	0.811668
C33	C	0.115461	-0.487892	0.874167
C34	C	0.217537	-0.538923	0.874131
C35	C	0.238333	-0.518080	0.811631
C36	C	0.197693	-0.482140	0.780401
C37	C	0.289320	-0.482131	0.688723
C38	C	0.132699	-0.546027	0.973247
C39	C	0.482158	-0.545613	0.624075
C40	C	0.132521	-0.546006	0.624886
C41	C	0.132917	-0.197607	0.625310
C42	C	-0.098217	-0.686189	0.484419
C43	C	-0.006438	-0.686322	0.392891
C44	C	-0.006621	-0.777944	0.484592
C45	C	-0.006606	-0.686315	0.484649
C46	C	-0.029470	-0.709193	0.461638
N47	N	0.538410	-0.565162	0.605628
O48	O	0.742647	-0.575135	0.458625
O49	O	0.742821	-0.691181	0.616169
O50	O	0.742757	-0.690917	0.516248
O51	O	0.742711	-0.575399	0.558546
O52	O	0.643472	-0.657878	0.549405
O53	O	0.643536	-0.658142	0.649326
O54	O	0.643362	-0.542096	0.491782
Zn55	Zn	0.627685	-0.594873	0.575818
Zn56	Zn	0.758498	-0.638404	0.532133
O57	O	0.643426	-0.542360	0.591702
N58	N	0.847774	-0.668115	0.502317
N59	N	0.114542	-0.141354	0.605766
O60	O	-0.032397	0.062987	0.595660
O61	O	0.125155	0.062987	0.479633
O62	O	0.025219	0.062974	0.479910
O63	O	0.067539	0.063001	0.595383
O64	O	0.058343	-0.036320	0.513009
O65	O	0.158279	-0.036306	0.512732
O66	O	0.000728	-0.036306	0.628759
Zn67	Zn	0.084763	-0.052071	0.576000
Zn68	Zn	0.041120	0.078752	0.532392
O69	O	0.100664	-0.036292	0.628482
N70	N	0.011333	0.168036	0.502628
N71	N	0.114782	-0.565197	1.029501
O72	O	0.104681	-0.712124	1.233827
O73	O	-0.011334	-0.554523	1.233839
O74	O	-0.011066	-0.654443	1.233797
O75	O	0.104414	-0.612204	1.233869
O76	O	0.022028	-0.621336	1.134509
O77	O	0.021760	-0.521417	1.134551
O78	O	0.137775	-0.679018	1.134539
Zn79	Zn	0.085022	-0.594961	1.118780
Zn80	Zn	0.041420	-0.638580	1.249597
O81	O	0.137508	-0.579098	1.134580
N82	N	0.011658	-0.668350	1.338876
C83	C	0.037974	-0.518023	0.480435
C84	C	0.161625	-0.641592	0.480351
C85	C	0.087941	-0.715455	0.628017
C86	C	-0.035710	-0.591885	0.628101
C87	C	0.693199	-0.690642	0.652596
C88	C	0.693122	-0.690315	0.528855
C89	C	0.692981	-0.542634	0.455356
C90	C	0.693062	-0.542961	0.579095
C91	C	0.161524	0.013463	0.480164
C92	C	0.037807	0.013324	0.480547
C93	C	-0.035683	0.013341	0.628188
C94	C	0.088076	0.013357	0.627845
C95	C	-0.010764	-0.518114	1.184196
C96	C	-0.010426	-0.641846	1.184125
C97	C	0.137205	-0.715426	1.184182
C98	C	0.136875	-0.591687	1.184231
H99	H	0.103160	-0.437777	0.786243
H100	H	-0.047187	-0.472851	1.184199
N101	N	0.184938	-0.579726	1.184248
H102	H	0.196515	-0.609003	1.221056
H103	H	0.169418	-0.537687	1.184234
N104	N	0.100075	0.013358	0.675902
H105	H	0.063411	0.013358	0.712856
H106	H	0.110163	0.050169	0.661206
N107	N	0.185450	-0.775385	1.184188
H108	H	0.221535	-0.769864	1.147392
H109	H	0.170090	-0.802033	1.184194
N110	N	0.099840	-0.775457	0.676153
H111	H	0.063142	-0.775651	0.713074
H112	H	0.134471	-0.783149	0.686022
N113	N	-0.058466	-0.653789	1.184044
H114	H	-0.042976	-0.695810	1.184021
H115	H	-0.069995	-0.624466	1.147219
N116	N	0.221277	0.013939	0.431713
H117	H	0.240468	-0.022754	0.419931
H118	H	0.247934	0.014085	0.446955
H119	H	-0.080982	-0.582959	0.664476
N120	N	0.026072	-0.458024	0.432296
H121	H	0.062769	-0.457831	0.395374
H122	H	0.015998	-0.425777	0.446934
H123	H	0.065433	-0.475593	0.899616
N124	N	0.416748	-0.419537	0.606138
H125	H	0.442693	-0.430639	0.628757
H126	H	0.387431	-0.377761	0.603689
H127	H	0.288361	-0.530376	0.786177
N128	N	0.261370	-0.577668	0.907812
H129	H	0.303444	-0.584060	0.878518
H130	H	0.254976	-0.617483	0.933741
N131	N	0.221587	-0.653406	0.432160
H132	H	0.229327	-0.688007	0.422212
H133	H	0.253850	-0.663425	0.446751
H134	H	0.103135	-0.437780	0.733124
N135	N	0.693256	-0.738902	0.712530
H136	H	0.693261	-0.723594	0.739221
H137	H	0.730080	-0.774957	0.706923
H138	H	0.693140	-0.726605	0.519802
N139	N	0.692907	-0.494368	0.395428
H140	H	0.692899	-0.509675	0.368737
H141	H	0.729694	-0.482811	0.376455
N142	N	0.693049	-0.494891	0.591077
H143	H	0.693087	-0.510381	0.633094
H144	H	0.656218	-0.458809	0.586341
N145	N	0.025843	0.013225	0.432521
H146	H	-0.016169	0.013191	0.448021
H147	H	0.055173	-0.023618	0.421030
N148	N	-0.095613	0.013336	0.676446
H149	H	-0.127937	0.050139	0.661921
H150	H	-0.095625	0.013318	0.713278
N151	N	0.049089	-0.471581	0.699322
H152	H	0.026527	-0.445667	0.725258
H153	H	0.038245	-0.509174	0.721837
H154	H	0.250475	-0.568133	0.602707
N155	N	0.251440	-0.392898	0.583495
H156	H	0.231174	-0.418832	0.589867
H157	H	0.291277	-0.418792	0.589870
N158	N	0.304520	-0.534314	0.636497
H159	H	0.323180	-0.519030	0.591664
H160	H	0.323181	-0.579150	0.651792
H161	H	0.408519	-0.613593	0.683941
N162	N	0.286883	-0.586402	0.729620
H163	H	0.316168	-0.628191	0.732066
H164	H	0.260936	-0.575248	0.706983
H165	H	0.204115	-0.271255	0.556464
N166	N	0.286833	-0.376228	0.649480
H167	H	0.297682	-0.353032	0.605299
H168	H	0.297731	-0.362514	0.669587
N169	N	0.102134	-0.263023	0.752376
H170	H	0.095760	-0.292308	0.794459
H171	H	0.062313	-0.237096	0.745973
H172	H	0.149444	-0.384673	0.779411
