data_functionalizedCrystal
_audit_creation_method	'MofGen! by Chris Wilmer'
_symmetry_space_group_name_H-M	'P1'
_symmetry_Int_Tables_number	1
_symmetry_cell_setting	triclinic
loop_
_symmetry_equiv_pos_as_xyz
  x,y,z
_cell_length_a	27.732046
_cell_length_b	27.732048
_cell_length_c	10.868271
_cell_angle_alpha	90.010073
_cell_angle_beta	90.001757
_cell_angle_gamma	97.357683
loop_
_atom_site_label
_atom_site_type_symbol
_atom_site_fract_x
_atom_site_fract_y
_atom_site_fract_z
O1	O	-0.640927	0.057513	0.102160
O2	O	-0.140927	0.557513	0.602160
O3	O	-0.500134	0.066260	0.102203
O4	O	-0.000134	0.566260	0.602203
O5	O	-0.574903	-0.008510	0.102157
O6	O	-0.074903	0.491490	0.602157
O7	O	-0.566158	0.132283	0.102206
O8	O	-0.066158	0.632283	0.602206
O9	O	-0.574897	-0.008513	-0.102488
O10	O	-0.074897	0.491487	0.397512
O11	O	-0.500128	0.066257	-0.102442
O12	O	-0.000128	0.566257	0.397558
O13	O	-0.640921	0.057511	-0.102484
O14	O	-0.140921	0.557511	0.397516
Zn15	Zn	-0.570524	0.061883	-0.134955
Zn16	Zn	-0.070524	0.561883	0.365045
Zn17	Zn	-0.570532	0.061887	0.134673
Zn18	Zn	-0.070532	0.561887	0.634673
O19	O	-0.566152	0.132281	-0.102438
O20	O	-0.066152	0.632281	0.397562
C21	C	-0.482124	0.066075	-0.000114
C22	C	0.017876	0.566075	0.499886
C23	C	-0.428469	0.065522	-0.000099
C24	C	0.071531	0.565522	0.499901
C25	C	-0.574717	-0.026518	-0.000169
C26	C	-0.074717	0.473482	0.499831
C27	C	-0.574164	-0.080173	-0.000179
C28	C	-0.074164	0.419827	0.499821
C29	C	-0.089654	0.106228	-0.000129
C30	C	0.410346	0.606228	0.499871
C31	C	0.112006	0.104178	-0.000136
C32	C	0.612006	0.604178	0.499864
O33	O	0.143262	0.141399	-0.000175
O34	O	0.643262	0.641399	0.499825
N35	N	0.131130	0.059843	-0.000149
N36	N	0.631130	0.559843	0.499851
C37	C	0.099835	0.016018	-0.000168
C38	C	0.599835	0.516018	0.499832
O39	O	0.120728	-0.021739	-0.000192
O40	O	0.620728	0.478261	0.499808
C41	C	-0.101824	0.018068	-0.000170
C42	C	0.398176	0.518068	0.499830
C43	C	-0.120944	0.062406	-0.000145
C44	C	0.379056	0.562406	0.499855
C45	C	-0.108775	0.150563	-0.000105
C46	C	0.391225	0.650563	0.499895
C47	C	-0.159187	0.151075	-0.000097
C48	C	0.340813	0.651075	0.499903
C49	C	-0.190478	0.107252	-0.000113
C50	C	0.309522	0.607252	0.499887
C51	C	-0.171356	0.062918	-0.000137
C52	C	0.328644	0.562918	0.499863
C53	C	-0.133117	-0.025757	-0.000198
C54	C	0.366883	0.474243	0.499802
C55	C	-0.183535	-0.025241	-0.000202
C56	C	0.316465	0.474759	0.499798
C57	C	-0.202655	0.019097	-0.000177
C58	C	0.297345	0.519097	0.499823
C59	C	-0.253059	0.019607	-0.000144
C60	C	0.246941	0.519607	0.499856
N61	N	-0.272183	0.063942	-0.000131
N62	N	0.227817	0.563942	0.499869
C63	C	-0.240892	0.107765	-0.000115
C64	C	0.259108	0.607765	0.499885
C65	C	0.205709	0.014944	-0.000164
C66	C	0.705709	0.514944	0.499836
C67	C	0.256124	0.014432	-0.000161
C68	C	0.756124	0.514432	0.499839
C69	C	0.268291	0.102593	-0.000132
C70	C	0.768291	0.602593	0.499868
C71	C	0.217876	0.103105	-0.000126
C72	C	0.717876	0.603105	0.499874
C73	C	0.186586	0.059279	-0.000151
C74	C	0.686586	0.559279	0.499849
C75	C	-0.346761	0.108837	-0.000097
C76	C	0.153239	0.608837	0.499903
C77	C	-0.397178	0.109345	-0.000083
C78	C	0.102822	0.609345	0.499917
C79	C	-0.409341	0.021184	-0.000120
C80	C	0.090659	0.521184	0.499880
C81	C	-0.358929	0.020676	-0.000127
C82	C	0.141071	0.520676	0.499873
C83	C	-0.327640	0.064506	-0.000119
C84	C	0.172360	0.564506	0.499881
O85	O	-0.284343	-0.017594	-0.000118
O86	O	0.215657	0.482406	0.499882
O87	O	-0.261795	0.145516	-0.000119
O88	O	0.238205	0.645516	0.499881
C89	C	-0.039242	0.105716	-0.000138
C90	C	0.460758	0.605716	0.499862
C91	C	-0.020120	0.061382	-0.000162
C92	C	0.479880	0.561382	0.499838
C93	C	-0.051411	0.017559	-0.000177
C94	C	0.448589	0.517559	0.499823
C95	C	0.030294	0.060869	-0.000159
C96	C	0.530294	0.560869	0.499841
C97	C	0.061585	0.104692	-0.000143
C98	C	0.561585	0.604692	0.499857
C99	C	0.042461	0.149027	-0.000130
C100	C	0.542461	0.649027	0.499870
C101	C	-0.007951	0.149539	-0.000122
C102	C	0.492049	0.649539	0.499878
C103	C	-0.032287	-0.026776	-0.000190
C104	C	0.467713	0.473224	0.499810
C105	C	0.018125	-0.027284	-0.000197
C106	C	0.518125	0.472716	0.499803
C107	C	0.049416	0.016538	-0.000181
C108	C	0.549416	0.516538	0.499819
C109	C	0.341069	0.057697	-0.000158
C110	C	0.841069	0.557697	0.499842
C111	C	0.287415	0.058254	-0.000146
C112	C	0.787415	0.558254	0.499854
C113	C	-0.614868	-0.418989	-0.000128
C114	C	-0.114868	0.081011	0.499872
C115	C	-0.612817	-0.620648	-0.000110
C116	C	-0.112817	-0.120648	0.499890
O117	O	-0.650038	-0.651904	-0.000068
O118	O	-0.150038	-0.151904	0.499932
N119	N	-0.568482	-0.639772	-0.000098
N120	N	-0.068482	-0.139772	0.499902
C121	C	-0.524656	-0.608477	-0.000082
C122	C	-0.024656	-0.108477	0.499918
O123	O	-0.486899	-0.629370	-0.000058
O124	O	0.013101	-0.129370	0.499942
C125	C	-0.526708	-0.406818	-0.000091
C126	C	-0.026708	0.093182	0.499909
C127	C	-0.571046	-0.387698	-0.000116
C128	C	-0.071046	0.112302	0.499884
C129	C	-0.659202	-0.399868	-0.000151
C130	C	-0.159202	0.100132	0.499849
C131	C	-0.659715	-0.349456	-0.000162
C132	C	-0.159715	0.150544	0.499838
C133	C	-0.615892	-0.318165	-0.000150
C134	C	-0.115892	0.181835	0.499850
C135	C	-0.571558	-0.337286	-0.000127
C136	C	-0.071558	0.162714	0.499873
C137	C	-0.482882	-0.375524	-0.000066
C138	C	0.017118	0.124476	0.499934
C139	C	-0.483399	-0.325107	-0.000065
C140	C	0.016601	0.174893	0.499935
C141	C	-0.527737	-0.305986	-0.000090
C142	C	-0.027737	0.194014	0.499910
C143	C	-0.528248	-0.255583	-0.000126
C144	C	-0.028248	0.244417	0.499874
N145	N	-0.572583	-0.236459	-0.000138
N146	N	-0.072583	0.263541	0.499862
C147	C	-0.616405	-0.267750	-0.000150
C148	C	-0.116405	0.232250	0.499850
C149	C	-0.523582	-0.714351	-0.000080
C150	C	-0.023582	-0.214351	0.499920
C151	C	-0.523069	-0.764765	-0.000080
C152	C	-0.023069	-0.264765	0.499920
C153	C	-0.611230	-0.776933	-0.000106
C154	C	-0.111230	-0.276933	0.499894
C155	C	-0.611743	-0.726518	-0.000114
C156	C	-0.111743	-0.226518	0.499886
C157	C	-0.567917	-0.695227	-0.000092
C158	C	-0.067917	-0.195227	0.499908
C159	C	-0.617478	-0.161881	-0.000175
C160	C	-0.117478	0.338119	0.499825
C161	C	-0.617986	-0.111464	-0.000191
C162	C	-0.117986	0.388536	0.499809
C163	C	-0.529826	-0.099301	-0.000159
C164	C	-0.029826	0.400699	0.499841
C165	C	-0.529317	-0.149713	-0.000149
C166	C	-0.029317	0.350287	0.499851
C167	C	-0.573147	-0.181003	-0.000153
C168	C	-0.073147	0.318997	0.499847
O169	O	-0.491047	-0.224299	-0.000154
O170	O	0.008953	0.275701	0.499846
O171	O	-0.654157	-0.246848	-0.000146
O172	O	-0.154157	0.253152	0.499854
C173	C	-0.614356	-0.469401	-0.000117
C174	C	-0.114356	0.030599	0.499883
C175	C	-0.570021	-0.488522	-0.000093
C176	C	-0.070021	0.011478	0.499907
C177	C	-0.526199	-0.457231	-0.000081
C178	C	-0.026199	0.042769	0.499919
C179	C	-0.569508	-0.538936	-0.000093
C180	C	-0.069508	-0.038936	0.499907
C181	C	-0.613330	-0.570227	-0.000106
C182	C	-0.113330	-0.070227	0.499894
C183	C	-0.657666	-0.551103	-0.000118
C184	C	-0.157666	-0.051103	0.499882
C185	C	-0.658178	-0.500692	-0.000129
C186	C	-0.158178	-0.000692	0.499871
C187	C	-0.481864	-0.476354	-0.000069
C188	C	0.018136	0.023646	0.499931
C189	C	-0.481355	-0.526767	-0.000059
C190	C	0.018645	-0.026767	0.499941
C191	C	-0.525177	-0.558058	-0.000071
C192	C	-0.025177	-0.058058	0.499929
C193	C	-0.566338	0.150289	-0.000110
C194	C	-0.066338	0.650289	0.499890
C195	C	-0.566891	0.203944	-0.000092
C196	C	-0.066891	0.703944	0.499908
N197	N	-0.570522	0.061880	-0.318969
N198	N	-0.070522	0.561880	0.181031
C199	C	-0.570529	0.061886	-0.569975
C200	C	-0.070529	0.561886	-0.069975
C201	C	-0.570523	0.061884	-0.430297
C202	C	-0.070523	0.561884	0.069703
N203	N	-0.570537	0.061886	0.318687
N204	N	-0.070537	0.561886	0.818687
H205	H	-0.321291	0.144528	-0.000095
H206	H	0.178709	0.644528	0.499905
H207	H	-0.023514	0.185643	-0.000103
H208	H	0.476486	0.685643	0.499897
N209	N	-0.481497	-0.170340	-0.000139
N210	N	0.018503	0.329660	0.499861
H211	H	-0.453814	-0.142865	-0.000137
H212	H	0.046186	0.357135	0.499863
H213	H	-0.479366	-0.190982	0.075736
H214	H	0.020634	0.309018	0.575736
N215	N	-0.075030	0.197832	-0.000158
N216	N	0.424970	0.697832	0.499842
H217	H	-0.094801	0.225991	-0.000167
H218	H	0.405199	0.725991	0.499833
H219	H	-0.053835	0.199561	0.075688
H220	H	0.446165	0.699561	0.575688
H221	H	0.180236	-0.020746	-0.000185
H222	H	0.680236	0.479254	0.499815
N223	N	-0.704930	-0.584861	-0.000139
N224	N	-0.204930	-0.084861	0.499861
H225	H	-0.706680	-0.606042	0.075726
H226	H	-0.206680	-0.106042	0.575726
H227	H	-0.733071	-0.565070	-0.000199
H228	H	-0.233071	-0.065070	0.499801
H229	H	-0.434827	-0.014495	-0.000128
H230	H	0.065173	0.485505	0.499872
H231	H	-0.695819	-0.333893	-0.000178
H232	H	-0.195819	0.166107	0.499822
N233	N	-0.436128	-0.291360	-0.000075
N234	N	0.063872	0.208640	0.499925
H235	H	-0.443177	-0.256520	-0.000091
H236	H	0.056823	0.243480	0.499909
H237	H	-0.416788	-0.297505	0.075792
H238	H	0.083212	0.202495	0.575792
N239	N	0.302058	0.149851	-0.000174
N240	N	0.802058	0.649851	0.499826
H241	H	0.295942	0.169197	-0.076051
H242	H	0.795942	0.669197	0.423949
H243	H	0.295951	0.169196	0.075723
H244	H	0.795951	0.669196	0.575723
N245	N	-0.482562	-0.065547	-0.000179
N246	N	0.017438	0.434453	0.499821
H247	H	-0.489618	-0.030709	-0.000193
H248	H	0.010382	0.469291	0.499807
H249	H	-0.463220	-0.071688	0.075688
H250	H	0.036780	0.428312	0.575688
N251	N	0.076215	0.196293	-0.000105
N252	N	0.576215	0.696293	0.499895
H253	H	0.111052	0.189236	-0.000113
H254	H	0.611052	0.689236	0.499887
H255	H	0.070061	0.215631	-0.075963
H256	H	0.570061	0.715631	0.424037
N257	N	-0.433527	-0.547380	-0.000032
N258	N	0.066473	-0.047380	0.499968
H259	H	-0.431350	-0.568016	0.075838
H260	H	0.068650	-0.068016	0.575838
H261	H	-0.431368	-0.568009	-0.075936
H262	H	0.068632	-0.068009	0.424064
N263	N	-0.475244	-0.785379	-0.000066
N264	N	0.024756	-0.285379	0.499934
H265	H	-0.473066	-0.806019	0.075797
H266	H	0.026934	-0.306019	0.575797
H267	H	-0.473088	-0.806005	-0.075977
H268	H	0.026912	-0.306005	0.424023
N269	N	-0.112502	-0.073580	-0.000231
N270	N	0.387498	0.426420	0.499769
H271	H	-0.139981	-0.101258	-0.000251
H272	H	0.360019	0.398742	0.499749
H273	H	-0.091854	-0.075712	-0.076102
H274	H	0.408146	0.424288	0.423898
H275	H	-0.647847	-0.710954	-0.000133
H276	H	-0.147847	-0.210954	0.499867
N277	N	0.197254	0.150926	-0.000094
N278	N	0.697254	0.650926	0.499906
H279	H	0.224731	0.178606	-0.000079
H280	H	0.724731	0.678606	0.499921
H281	H	0.176603	0.153062	-0.075959
H282	H	0.676603	0.653062	0.424041
H283	H	-0.694282	-0.485129	-0.000149
H284	H	-0.194282	0.014871	0.499851
N285	N	-0.706472	-0.433613	-0.000166
N286	N	-0.206472	0.066387	0.499834
H287	H	-0.734631	-0.413842	-0.000182
H288	H	-0.234631	0.086158	0.499818
H289	H	-0.708178	-0.454798	-0.076035
H290	H	-0.208178	0.045202	0.423965
H291	H	0.271687	-0.021673	-0.000163
H292	H	0.771687	0.478327	0.499837
H293	H	-0.412743	0.145452	-0.000062
H294	H	0.087257	0.645452	0.499938
H295	H	-0.487892	-0.688878	-0.000062
H296	H	0.012108	-0.188878	0.499938
H297	H	0.033688	-0.063392	-0.000208
H298	H	0.533688	0.436608	0.499792
H299	H	-0.654093	-0.095900	-0.000214
H300	H	-0.154093	0.404100	0.499786
N301	N	-0.217283	-0.072511	-0.000238
N302	N	0.282717	0.427489	0.499762
H303	H	-0.197517	-0.100673	-0.000255
H304	H	0.302483	0.399327	0.499745
H305	H	-0.238464	-0.074222	0.075627
H306	H	0.261536	0.425778	0.575627
H307	H	-0.646912	-0.802419	-0.000116
H308	H	-0.146912	-0.302419	0.499884
N309	N	-0.435060	-0.396139	-0.000055
N310	N	0.064940	0.103861	0.499945
H311	H	-0.407382	-0.368660	-0.000045
H312	H	0.092618	0.131340	0.499955
H313	H	-0.432925	-0.416785	0.075809
H314	H	0.067075	0.083215	0.575809
N315	N	-0.066033	-0.074044	-0.000216
N316	N	0.433967	0.425956	0.499784
H317	H	-0.046264	-0.102204	-0.000227
H318	H	0.453736	0.397796	0.499773
H319	H	-0.087213	-0.075754	0.075651
H320	H	0.412787	0.424246	0.575651
N321	N	-0.338302	-0.027144	-0.000131
N322	N	0.161698	0.472856	0.499869
H323	H	-0.365776	-0.054827	-0.000133
H324	H	0.134224	0.445173	0.499867
H325	H	-0.317655	-0.029279	-0.076002
H326	H	0.182345	0.470721	0.423998
H327	H	-0.653169	-0.187352	-0.000173
H328	H	-0.153169	0.312648	0.499827
N329	N	-0.434597	-0.442606	-0.000062
N330	N	0.065403	0.057394	0.499938
H331	H	-0.415238	-0.448714	0.075804
H332	H	0.084762	0.051286	0.575804
H333	H	-0.415277	-0.448747	-0.075970
H334	H	0.084723	0.051253	0.424030
N335	N	-0.179806	0.198896	-0.000064
N336	N	0.320194	0.698896	0.499936
H337	H	-0.152328	0.226576	-0.000054
H338	H	0.347672	0.726576	0.499946
H339	H	-0.200460	0.201033	-0.075924
H340	H	0.299540	0.701033	0.424076
