data_functionalizedCrystal
_audit_creation_method	'MofGen! by Chris Wilmer'
_symmetry_space_group_name_H-M	'P1'
_symmetry_Int_Tables_number	1
_symmetry_cell_setting	triclinic
loop_
_symmetry_equiv_pos_as_xyz
  x,y,z
_cell_length_a	17.077404
_cell_length_b	15.297327
_cell_length_c	17.077396
_cell_angle_alpha	99.647268
_cell_angle_beta	89.980499
_cell_angle_gamma	99.707136
loop_
_atom_site_label
_atom_site_type_symbol
_atom_site_fract_x
_atom_site_fract_y
_atom_site_fract_z
Zn1	Zn	1.145953	-0.359161	-0.497895
Zn2	Zn	1.123133	-0.510035	-0.389335
Zn3	Zn	1.014680	-0.359192	-0.366647
Zn4	Zn	0.991934	-0.509981	-0.520550
O5	O	1.068925	-0.434592	-0.443607
O6	O	1.252771	-0.379184	-0.483507
O7	O	1.108715	-0.490061	-0.276484
O8	O	1.051163	-0.232941	-0.365082
O9	O	1.236005	-0.490030	-0.403749
O10	O	1.147608	-0.232918	-0.461508
O11	O	1.029035	-0.379238	-0.259815
O12	O	0.901817	-0.379186	-0.387050
O13	O	1.012395	-0.489939	-0.627386
O14	O	0.885105	-0.489970	-0.500121
O15	O	1.125553	-0.379132	-0.610742
O16	O	1.086659	-0.636275	-0.425717
O17	O	0.990268	-0.636236	-0.522120
C18	C	0.864979	-0.434576	-0.443583
C19	C	0.777727	-0.434591	-0.443594
C20	C	0.728043	-0.492363	-0.502403
C21	C	0.646062	-0.492365	-0.502416
C22	C	0.613767	-0.434599	-0.443616
C23	C	0.663458	-0.376820	-0.384804
C24	C	0.745438	-0.376814	-0.384795
C25	C	0.492585	-0.376838	-0.384825
C26	C	0.410599	-0.376844	-0.384833
C27	C	0.393210	-0.492389	-0.502446
C28	C	0.475189	-0.492383	-0.502438
C29	C	0.524875	-0.434605	-0.443624
C30	C	1.033541	-0.668990	-0.478856
C31	C	1.018475	-0.769266	-0.493962
C32	C	1.176925	-1.051885	-0.335910
C33	C	1.191079	-0.957670	-0.321713
C34	C	1.147930	-0.910565	-0.364774
C35	C	1.090623	-0.957683	-0.422034
C36	C	1.076462	-1.051907	-0.436228
C37	C	1.047467	-0.910586	-0.465092
C38	C	0.990160	-0.957705	-0.522352
C39	C	0.976003	-1.051919	-0.536544
C40	C	1.019152	-1.099025	-0.493483
C41	C	1.061628	-0.816363	-0.450898
C42	C	0.961165	-0.816384	-0.551217
C43	C	0.947010	-0.910599	-0.565413
C44	C	1.273666	-0.434609	-0.443632
C45	C	1.360915	-0.434617	-0.443642
C46	C	1.068982	-0.434526	-0.648341
C47	C	1.069007	-0.434498	-0.735587
C48	C	1.104468	-0.199279	-0.408237
C49	C	1.119615	-0.099003	-0.393165
C50	C	1.127930	-0.376795	-0.767910
C51	C	1.127944	-0.376765	-0.849886
C52	C	1.069037	-0.434443	-0.899538
C53	C	1.010108	-0.492147	-0.867209
C54	C	1.010091	-0.492172	-0.785234
C55	C	1.010148	-0.492093	-1.038071
C56	C	1.010165	-0.492070	-1.120052
C57	C	1.128000	-0.376686	-1.102724
C58	C	1.127984	-0.376711	-1.020748
C59	C	1.069055	-0.434417	-0.988425
C60	C	1.068922	-0.434593	-0.239659
C61	C	1.069088	-0.434368	-0.152376
H62	H	0.501481	-0.539426	-0.550314
Br63	Br	1.207978	-0.298374	-1.146590
H64	H	1.237738	-0.919310	-0.275092
Br65	Br	1.139398	-0.752428	-0.373190
Br66	Br	0.325783	-0.570790	-0.582273
H67	H	0.754331	-0.539406	-0.550283
H68	H	0.962103	-0.539150	-0.758916
H69	H	1.212046	-1.090247	-0.300851
H70	H	0.962196	-0.539034	-1.160477
H71	H	0.384309	-0.329795	-0.336961
Br72	Br	0.812869	-0.298401	-0.304983
Br73	Br	0.999593	-1.226892	-0.512396
H74	H	0.929330	-1.090280	-0.583160
H75	H	0.605612	-0.539410	-0.550304
H76	H	0.533038	-0.329781	-0.336939
Br77	Br	0.869240	-0.974555	-0.643123
H78	H	0.926027	-0.778032	-0.586279
H79	H	1.159457	-0.833851	-0.353211
H80	H	0.637157	-0.329781	-0.336930
Br81	Br	1.207885	-0.298521	-0.700534
Br82	Br	1.207935	-0.298442	-0.953365
Br83	Br	0.930170	-0.570406	-0.994204
Br84	Br	1.207945	-0.298494	-0.893757
Br85	Br	0.930157	-0.570420	-0.934591
