data_functionalizedCrystal
_audit_creation_method	'MofGen! by Chris Wilmer'
_symmetry_space_group_name_H-M	'P1'
_symmetry_Int_Tables_number	1
_symmetry_cell_setting	triclinic
loop_
_symmetry_equiv_pos_as_xyz
  x,y,z
_cell_length_a	19.188933
_cell_length_b	19.188930
_cell_length_c	15.072220
_cell_angle_alpha	89.993728
_cell_angle_beta	89.988933
_cell_angle_gamma	83.145175
loop_
_atom_site_label
_atom_site_type_symbol
_atom_site_fract_x
_atom_site_fract_y
_atom_site_fract_z
O1	O	0.926153	0.087169	-0.073763
O2	O	1.426153	0.587169	0.426237
O3	O	0.722841	0.098902	-0.073772
O4	O	1.222841	0.598902	0.426228
O5	O	0.830364	-0.008620	-0.073750
O6	O	1.330364	0.491380	0.426250
O7	O	0.818630	0.194691	-0.073785
O8	O	1.318630	0.694691	0.426215
O9	O	0.830338	-0.008614	0.073815
O10	O	1.330338	0.491386	0.573815
O11	O	0.722815	0.098908	0.073793
O12	O	1.222815	0.598908	0.573793
O13	O	0.926126	0.087175	0.073802
O14	O	1.426126	0.587175	0.573802
Zn15	Zn	0.824466	0.093043	0.097227
Zn16	Zn	1.324466	0.593043	0.597227
Zn17	Zn	0.824501	0.093035	-0.097197
Zn18	Zn	1.324501	0.593035	0.402803
O19	O	0.818603	0.194697	0.073780
O20	O	1.318603	0.694697	0.573780
C21	C	0.696817	0.098525	0.000009
C22	C	1.196817	0.598525	0.500009
C23	C	0.619313	0.097384	0.000006
C24	C	1.119313	0.597384	0.500006
C25	C	0.066072	0.089235	-0.080421
C26	C	0.566072	0.589235	0.419579
C27	C	0.138896	0.090303	-0.080424
C28	C	0.638896	0.590303	0.419576
C29	C	0.175299	0.090844	0.000013
C30	C	0.675299	0.590844	0.500013
C31	C	0.138873	0.090298	0.080460
C32	C	0.638873	0.590298	0.580460
C33	C	0.066051	0.089223	0.080461
C34	C	0.566051	0.589223	0.580461
N35	N	0.284308	0.132265	0.059879
N36	N	0.784308	0.632265	0.559879
N37	N	0.353485	0.133288	0.059873
N38	N	0.853485	0.633288	0.559873
C39	C	0.394707	0.094082	0.000014
C40	C	0.894707	0.594082	0.500014
N41	N	0.364137	0.053823	-0.059851
N42	N	0.864137	0.553823	0.440149
N43	N	0.294953	0.052804	-0.059847
N44	N	0.794953	0.552804	0.440153
C45	C	0.254262	0.092009	0.000021
C46	C	0.754262	0.592009	0.500021
C47	C	0.510089	0.095781	-0.080432
C48	C	1.010089	0.595781	0.419568
C49	C	0.582915	0.096844	-0.080432
C50	C	1.082915	0.596844	0.419568
C51	C	0.582890	0.096847	0.080455
C52	C	1.082890	0.596847	0.580455
C53	C	0.510066	0.095776	0.080453
C54	C	1.010066	0.595776	0.580453
C55	C	0.473669	0.095246	0.000007
C56	C	0.973669	0.595246	0.500007
C57	C	0.829971	-0.034628	0.000035
C58	C	1.329971	0.465372	0.500035
C59	C	0.828830	-0.112132	0.000043
C60	C	1.328830	0.387868	0.500043
C61	C	0.891921	-0.157056	0.000050
C62	C	1.391921	0.342944	0.500050
C63	C	0.890849	-0.229880	0.000036
C64	C	1.390849	0.270120	0.500036
C65	C	0.826683	-0.257777	0.000032
C66	C	1.326683	0.242223	0.500032
C67	C	0.763584	-0.212843	0.000020
C68	C	1.263584	0.287157	0.500020
C69	C	0.764658	-0.140021	0.000025
C70	C	1.264658	0.359979	0.500025
N71	N	0.777627	-0.365780	0.050249
N72	N	1.277627	0.134220	0.550249
N73	N	0.776612	-0.434959	0.050246
N74	N	1.276612	0.065041	0.550246
C75	C	0.823445	-0.477185	0.000014
C76	C	1.323445	0.022815	0.500014
N77	N	0.871343	-0.447622	-0.050204
N78	N	1.371343	0.052378	0.449796
N79	N	0.872361	-0.378437	-0.050196
N80	N	1.372361	0.121563	0.449804
C81	C	0.825512	-0.336739	0.000026
C82	C	1.325512	0.163261	0.500026
C83	C	0.885378	-0.601073	0.000004
C84	C	1.385378	-0.101073	0.500004
C85	C	0.884304	-0.673898	-0.000015
C86	C	1.384304	-0.173898	0.499985
C87	C	0.757037	-0.656860	-0.000022
C88	C	1.257037	-0.156860	0.499978
C89	C	0.758113	-0.584037	-0.000012
C90	C	1.258113	-0.084037	0.499988
C91	C	0.822286	-0.556148	0.000006
C92	C	1.322286	-0.056148	0.500006
C93	C	0.952150	0.087553	0.000019
C94	C	1.452150	0.587553	0.500019
C95	C	1.029655	0.088694	0.000016
C96	C	1.529655	0.588694	0.500016
C97	C	0.818997	0.220705	-0.000007
C98	C	1.318997	0.720705	0.499993
C99	C	0.820137	0.298210	-0.000021
C100	C	1.320137	0.798210	0.499979
N101	N	0.824448	0.093048	0.229915
N102	N	1.324448	0.593048	0.729915
N103	N	0.824525	0.093024	-0.229886
N104	N	1.324525	0.593024	0.270114
C105	C	0.824500	0.093032	0.589117
C106	C	1.324500	0.593032	1.089117
C107	C	0.766774	0.150373	0.551498
C108	C	1.266774	0.650373	1.051498
C109	C	0.766906	0.150582	0.448672
C110	C	1.266906	0.650582	0.948672
C111	C	0.824473	0.093040	0.410913
C112	C	1.324473	0.593040	0.910913
C113	C	0.897276	0.108730	0.448204
C114	C	1.397276	0.608730	0.948204
C115	C	0.896952	0.109137	0.551062
C116	C	1.396952	0.609137	1.051062
C117	C	0.810073	0.019830	0.551229
C118	C	1.310073	0.519830	1.051229
C119	C	0.808400	0.020324	0.448366
C120	C	1.308400	0.520324	0.948366
C121	C	0.824463	0.093043	0.310199
C122	C	1.324463	0.593043	0.810199
C123	C	0.824515	0.093031	0.689830
C124	C	1.324515	0.593031	1.189830
H125	H	0.036401	0.088785	0.145964
H126	H	0.536401	0.588785	0.645964
H127	H	0.713280	-0.103444	0.000019
H128	H	1.213280	0.396556	0.500019
N129	N	0.744916	0.000848	0.583779
N130	N	1.244916	0.500848	1.083779
N131	N	0.697113	-0.009256	0.530674
N132	N	1.197113	0.490744	1.030674
H133	H	0.651091	-0.022656	0.553659
H134	H	1.151091	0.477344	1.053659
H135	H	0.168552	0.090748	-0.145927
H136	H	0.668552	0.590748	0.354073
N137	N	0.957468	-0.128568	0.000042
N138	N	1.457468	0.371432	0.500042
N139	N	0.972277	-0.089829	-0.062160
N140	N	1.472277	0.410171	0.437840
H141	H	1.018571	-0.069707	-0.062169
H142	H	1.518571	0.430293	0.437831
N143	N	0.472873	0.095224	0.162626
N144	N	0.972873	0.595224	0.662626
N145	N	0.505381	0.095703	0.234440
N146	N	1.005381	0.595703	0.734440
H147	H	0.479115	0.095310	0.292480
H148	H	0.979115	0.595310	0.792480
N149	N	0.913644	0.174934	0.415874
N150	N	1.413644	0.674934	0.915874
N151	N	0.873791	0.229694	0.432831
N152	N	1.373791	0.729694	0.932831
H153	H	0.885346	0.276454	0.409999
H154	H	1.385346	0.776454	0.909999
N155	N	0.176065	0.090845	0.162617
N156	N	0.676065	0.590845	0.662617
N157	N	0.241084	0.091805	0.162606
N158	N	0.741084	0.591805	0.662606
H159	H	0.267353	0.092187	0.220632
H160	H	0.767353	0.592187	0.720632
N161	N	0.620063	0.097410	0.162622
N162	N	1.120063	0.597410	0.662622
N163	N	0.605336	0.146495	0.216476
N164	N	1.105336	0.646495	0.716476
H165	H	0.631592	0.146891	0.274510
H166	H	1.131592	0.646891	0.774510
H167	H	0.480453	0.095347	-0.145935
H168	H	0.980453	0.595347	0.354065
N169	N	0.691486	-0.685335	-0.000019
N170	N	1.191486	-0.185335	0.499981
N171	N	0.635157	-0.645212	-0.000018
N172	N	1.135157	-0.145212	0.499982
H173	H	0.588859	-0.665324	-0.000018
H174	H	1.088859	-0.165324	0.499982
N175	N	0.741216	0.005387	0.417791
N176	N	1.241216	0.505387	0.917791
N177	N	0.705269	0.048101	0.368598
N178	N	1.205269	0.548101	0.868598
H179	H	0.657820	0.037554	0.346999
H180	H	1.157820	0.537554	0.846999
H181	H	0.937631	-0.578365	0.000015
H182	H	1.437631	-0.078365	0.500015
N183	N	0.912920	0.176107	0.581140
N184	N	1.412920	0.676107	1.081140
N185	N	0.869797	0.213712	0.628038
N186	N	1.369797	0.713712	1.128038
H187	H	0.881071	0.261013	0.649276
H188	H	1.381071	0.761013	1.149276
N189	N	0.857751	-0.035684	0.416129
N190	N	1.357751	0.464316	0.916129
N191	N	0.921694	-0.036063	0.432225
N192	N	1.421694	0.463937	0.932225
H193	H	0.956556	-0.075615	0.409458
H194	H	1.456556	0.424385	0.909458
N195	N	0.955304	-0.275769	0.000042
N196	N	1.455304	0.224231	0.500042
N197	N	1.012594	-0.250859	0.000055
N198	N	1.512594	0.249141	0.500055
H199	H	1.058116	-0.283266	0.000061
H200	H	1.558116	0.216734	0.500061
H201	H	0.712476	0.141215	0.576259
H202	H	1.212476	0.641215	1.076259
H203	H	0.711340	-0.235562	0.000015
H204	H	1.211340	0.264438	0.500015
N205	N	0.952442	0.058719	0.582271
N206	N	1.452442	0.558719	1.082271
N207	N	0.991286	0.023348	0.528084
N208	N	1.491286	0.523348	1.028084
H209	H	1.030478	-0.012257	0.550121
H210	H	1.530478	0.487743	1.050121
N211	N	0.948760	-0.719779	-0.000020
N212	N	1.448760	-0.219779	0.499980
N213	N	1.006047	-0.694865	-0.000008
N214	N	1.506047	-0.194865	0.499992
H215	H	1.051572	-0.727269	-0.000012
H216	H	1.551572	-0.227269	0.499988
H217	H	0.852172	-0.022839	0.575556
H218	H	1.352172	0.477161	1.075556
H219	H	0.706738	-0.547459	-0.000012
H220	H	1.206738	-0.047459	0.499988
N221	N	0.698911	0.139237	0.417054
N222	N	1.198911	0.639237	0.917054
N223	N	0.651030	0.131100	0.470953
N224	N	1.151030	0.631100	0.970953
H225	H	0.602968	0.123219	0.448628
H226	H	1.102968	0.623219	0.948628
H227	H	0.775836	0.204394	0.577327
H228	H	1.275836	0.704394	1.077327
N229	N	0.620114	0.097378	-0.162604
N230	N	1.120114	0.597378	0.337396
N231	N	0.618567	0.048053	-0.216457
N232	N	1.118567	0.548053	0.283543
H233	H	0.644838	0.048427	-0.274494
H234	H	1.144838	0.548427	0.225506
N235	N	0.028905	0.088697	-0.162599
N236	N	0.528905	0.588697	0.337401
N237	N	0.061435	0.089182	-0.234413
N238	N	0.561435	0.589182	0.265587
H239	H	0.035186	0.088802	-0.292453
H240	H	0.535186	0.588802	0.207547
N241	N	0.778395	0.218747	0.417789
N242	N	1.278395	0.718747	0.917789
N243	N	0.786348	0.266313	0.472201
N244	N	1.286348	0.766313	0.972201
H245	H	0.794452	0.314462	0.450392
H246	H	1.294452	0.814462	0.950392
H247	H	0.941248	0.068067	0.423744
H248	H	1.441248	0.568067	0.923744
