data_functionalizedCrystal
_audit_creation_method	'MofGen! by Chris Wilmer'
_symmetry_space_group_name_H-M	'P1'
_symmetry_Int_Tables_number	1
_symmetry_cell_setting	triclinic
loop_
_symmetry_equiv_pos_as_xyz
  x,y,z
_cell_length_a	18.050589
_cell_length_b	18.050591
_cell_length_c	18.050582
_cell_angle_alpha	90.022741
_cell_angle_beta	90.018005
_cell_angle_gamma	90.028131
loop_
_atom_site_label
_atom_site_type_symbol
_atom_site_fract_x
_atom_site_fract_y
_atom_site_fract_z
Zn1	Zn	0.295837	-1.135259	-0.420091
Zn2	Zn	0.629170	-0.801926	-0.086758
Zn3	Zn	0.962503	-0.468592	0.246576
Zn4	Zn	0.420020	-1.135156	-0.295911
Zn5	Zn	0.753353	-0.801822	0.037422
Zn6	Zn	1.086687	-0.468489	0.370756
Zn7	Zn	0.295834	-1.011078	-0.295898
Zn8	Zn	0.629167	-0.677745	0.037435
Zn9	Zn	0.962501	-0.344412	0.370769
Zn10	Zn	0.419975	-1.011012	-0.420042
Zn11	Zn	0.753309	-0.677679	-0.086709
Zn12	Zn	1.086642	-0.344346	0.246624
O13	O	0.357917	-1.073126	-0.357986
O14	O	0.691250	-0.739793	-0.024652
O15	O	1.024583	-0.406460	0.308681
O16	O	0.312330	-1.239170	-0.403644
O17	O	0.645663	-0.905837	-0.070311
O18	O	0.978996	-0.572503	0.263023
O19	O	0.403564	-1.118681	-0.191985
O20	O	0.736897	-0.785348	0.141349
O21	O	1.070231	-0.452014	0.474682
O22	O	0.191910	-1.027622	-0.312388
O23	O	0.525243	-0.694289	0.020946
O24	O	0.858577	-0.360955	0.354279
O25	O	0.403567	-1.239094	-0.312409
O26	O	0.736900	-0.905761	0.020924
O27	O	1.070233	-0.572427	0.354257
O28	O	0.191912	-1.118857	-0.403632
O29	O	0.525245	-0.785524	-0.070298
O30	O	0.858578	-0.452190	0.263035
O31	O	0.312325	-1.027522	-0.191975
O32	O	0.645659	-0.694188	0.141358
O33	O	0.978992	-0.360855	0.474691
O34	O	0.312282	-0.907145	-0.312341
O35	O	0.645615	-0.573812	0.020993
O36	O	0.978949	-0.240478	0.354326
O37	O	0.403490	-1.027509	-0.523974
O38	O	0.736824	-0.694176	-0.190640
O39	O	1.070157	-0.360843	0.142693
O40	O	0.403488	-0.907096	-0.403549
O41	O	0.736821	-0.573763	-0.070215
O42	O	1.070154	-0.240430	0.263118
O43	O	0.312286	-1.118793	-0.524009
O44	O	0.645620	-0.785460	-0.190676
O45	O	0.978953	-0.452126	0.142657
O46	O	0.523939	-1.118617	-0.312362
O47	O	0.857272	-0.785284	0.020971
O48	O	1.190605	-0.451950	0.354304
O49	O	0.523906	-1.027409	-0.403561
O50	O	0.857239	-0.694076	-0.070228
O51	O	1.190572	-0.360743	0.263106
C52	C	0.357880	-0.880174	-0.357938
C53	C	0.691214	-0.546841	-0.024605
C54	C	1.024547	-0.213508	0.308728
C55	C	0.357883	-0.797628	-0.357936
C56	C	0.691216	-0.464295	-0.024603
C57	C	1.024549	-0.130962	0.308731
C58	C	0.308220	-0.548808	-0.308441
C59	C	0.641554	-0.215474	0.024892
C60	C	0.974887	0.117859	0.358225
C61	C	0.290142	-0.598242	-0.376218
C62	C	0.623475	-0.264908	-0.042885
C63	C	0.956809	0.068425	0.290448
C64	C	0.357905	-0.500508	-0.357981
C65	C	0.691238	-0.167175	-0.024648
C66	C	1.024572	0.166159	0.308685
C67	C	0.375937	-0.598156	-0.290186
C68	C	0.709271	-0.264822	0.043148
C69	C	1.042604	0.068511	0.376481
C70	C	0.357892	-0.646493	-0.357955
C71	C	0.691225	-0.313160	-0.024622
C72	C	1.024559	0.020174	0.308711
C73	C	0.339791	-0.548855	-0.425794
C74	C	0.673125	-0.215522	-0.092461
C75	C	1.006458	0.117812	0.240872
C76	C	0.425618	-0.548764	-0.339716
C77	C	0.758952	-0.215431	-0.006382
C78	C	1.092285	0.117902	0.326951
C79	C	0.407566	-0.598176	-0.407540
C80	C	0.740899	-0.264843	-0.074206
C81	C	1.074232	0.068490	0.259127
C82	C	0.357910	-0.416410	-0.357995
C83	C	0.691244	-0.083076	-0.024662
C84	C	1.024577	0.250257	0.308672
C85	C	0.357887	-0.730590	-0.357949
C86	C	0.691220	-0.397256	-0.024616
C87	C	1.024553	-0.063923	0.308718
C88	C	0.550869	-1.073015	-0.357974
C89	C	0.884202	-0.739682	-0.024641
C90	C	1.217535	-0.406348	0.308693
C91	C	0.633414	-1.073035	-0.357994
C92	C	0.966748	-0.739702	-0.024660
C93	C	1.300081	-0.406368	0.308673
C94	C	0.832874	-1.023463	-0.407571
C95	C	1.166207	-0.690129	-0.074238
C96	C	1.499541	-0.356796	0.259096
C97	C	0.882306	-1.005359	-0.339802
C98	C	1.215639	-0.672026	-0.006468
C99	C	1.548973	-0.338692	0.326865
C100	C	0.784545	-1.073091	-0.358004
C101	C	1.117878	-0.739758	-0.024671
C102	C	1.451211	-0.406424	0.308663
C103	C	0.882195	-1.091214	-0.425782
C104	C	1.215528	-0.757881	-0.092449
C105	C	1.548861	-0.424548	0.240885
C106	C	0.930530	-1.073144	-0.358020
C107	C	1.263863	-0.739810	-0.024687
C108	C	1.597197	-0.406477	0.308647
C109	C	0.832889	-1.054952	-0.290198
C110	C	1.166223	-0.721619	0.043135
C111	C	1.499556	-0.388285	0.376468
C112	C	0.832774	-1.140839	-0.376225
C113	C	1.166107	-0.807505	-0.042891
C114	C	1.499440	-0.474172	0.290442
C115	C	0.882183	-1.122761	-0.308408
C116	C	1.215517	-0.789428	0.024925
C117	C	1.548850	-0.456094	0.358258
C118	C	0.700447	-1.073059	-0.357996
C119	C	1.033780	-0.739725	-0.024663
C120	C	1.367113	-0.406392	0.308671
C121	C	1.014626	-1.073176	-0.358020
C122	C	1.347960	-0.739843	-0.024687
C123	C	1.681293	-0.406509	0.308646
C124	C	1.164211	-1.073230	-0.358014
C125	C	1.497544	-0.739897	-0.024681
C126	C	1.830878	-0.406563	0.308652
C127	C	1.081665	-1.073202	-0.358029
C128	C	1.414998	-0.739868	-0.024696
C129	C	1.748332	-0.406535	0.308638
C130	C	0.357884	-1.073155	-0.551691
C131	C	0.691217	-0.739822	-0.218358
C132	C	1.024550	-0.406489	0.114975
C133	C	0.357870	-1.073168	-0.634237
C134	C	0.691203	-0.739834	-0.300904
C135	C	1.024536	-0.406501	0.032430
C136	C	0.357940	-0.266832	-0.358020
C137	C	0.691274	0.066501	-0.024687
C138	C	1.024607	0.399835	0.308646
C139	C	0.357917	-0.349378	-0.358002
C140	C	0.691250	-0.016044	-0.024668
C141	C	1.024583	0.317289	0.308665
C142	C	0.407399	-1.023566	-0.833668
C143	C	0.740732	-0.690232	-0.500335
C144	C	1.074065	-0.356899	-0.167002
C145	C	0.425560	-1.091319	-0.883071
C146	C	0.758893	-0.757986	-0.549737
C147	C	1.092226	-0.424652	-0.216404
C148	C	0.357813	-1.073204	-0.785368
C149	C	0.691146	-0.739871	-0.452034
C150	C	1.024480	-0.406538	-0.118701
C151	C	0.339631	-1.005488	-0.883047
C152	C	0.672964	-0.672155	-0.549714
C153	C	1.006298	-0.338822	-0.216381
C154	C	0.357760	-1.073234	-0.931353
C155	C	0.691093	-0.739901	-0.598019
C156	C	1.024426	-0.406567	-0.264686
C157	C	0.376010	-1.140993	-0.833682
C158	C	0.709343	-0.807660	-0.500349
C159	C	1.042676	-0.474327	-0.167016
C160	C	0.290049	-1.055117	-0.833655
C161	C	0.623383	-0.721784	-0.500321
C162	C	0.956716	-0.388450	-0.166988
C163	C	0.308185	-1.122917	-0.883035
C164	C	0.641518	-0.789584	-0.549701
C165	C	0.974852	-0.456250	-0.216368
C166	C	0.357845	-1.073187	-0.701269
C167	C	0.691179	-0.739853	-0.367936
C168	C	1.024512	-0.406520	-0.034603
C169	C	0.357727	-1.073259	-1.015449
C170	C	0.691060	-0.739926	-0.682116
C171	C	1.024393	-0.406593	-0.348783
C172	C	0.357896	-1.073140	-0.165034
C173	C	0.691229	-0.739807	0.168300
C174	C	1.024562	-0.406473	0.501633
C175	C	0.357701	-1.073272	-0.082488
C176	C	0.691034	-0.739938	0.250845
C177	C	1.024367	-0.406605	0.584179
H178	H	0.449577	-0.619715	-0.449471
H179	H	0.782910	-0.286382	-0.116138
H180	H	1.116244	0.046951	0.217195
H181	H	0.482871	-0.527016	-0.324253
H182	H	0.816205	-0.193683	0.009080
H183	H	1.149538	0.139650	0.342414
F184	F	0.500432	-1.111340	-0.911443
F185	F	0.833766	-0.778006	-0.578109
F186	F	1.167099	-0.444673	-0.244776
H187	H	0.266229	-1.164956	-0.904573
H188	H	0.599562	-0.831623	-0.571240
H189	H	0.932896	-0.498289	-0.237907
F190	F	0.804315	-1.215674	-0.396392
F191	F	1.137648	-0.882341	-0.063058
F192	F	1.470981	-0.549007	0.270275
H193	H	0.904080	-0.948092	-0.324405
H194	H	1.237413	-0.614759	0.008929
H195	H	1.570746	-0.281426	0.342262
H196	H	0.232782	-1.039781	-0.811933
H197	H	0.566116	-0.706448	-0.478599
H198	H	0.899449	-0.373114	-0.145266
F199	F	0.804701	-1.034859	-0.215265
F200	F	1.138035	-0.701525	0.118069
F201	F	1.471368	-0.368192	0.451402
F202	F	0.910305	-1.177649	-0.253567
F203	F	1.243638	-0.844316	0.079766
F204	F	1.576972	-0.510982	0.413099
F205	F	0.215286	-0.626642	-0.396409
F206	F	0.548620	-0.293308	-0.063076
F207	F	0.881953	0.040025	0.270258
F208	F	0.319558	-0.930622	-0.911392
F209	F	0.652892	-0.597289	-0.578058
F210	F	0.986225	-0.263955	-0.244725
H211	H	0.811222	-0.981439	-0.449429
H212	H	1.144556	-0.648105	-0.116095
H213	H	1.477889	-0.314772	0.217238
F214	F	0.910506	-1.111223	-0.500692
F215	F	1.243839	-0.777889	-0.167359
F216	F	1.577172	-0.444556	0.165974
F217	F	0.253269	-0.520473	-0.253765
F218	F	0.586603	-0.187139	0.079568
F219	F	0.919936	0.146194	0.412902
F220	F	0.319761	-0.520669	-0.500742
F221	F	0.653094	-0.187336	-0.167409
F222	F	0.986428	0.145998	0.165925
F223	F	0.395881	-0.626465	-0.215261
F224	F	0.729214	-0.293132	0.118072
F225	F	1.062547	0.040202	0.451406
F226	F	0.462277	-0.968749	-0.805335
F227	F	0.795611	-0.635416	-0.472002
F228	F	1.128944	-0.302082	-0.138668
F229	F	0.396172	-1.215882	-0.805461
F230	F	0.729506	-0.882548	-0.472128
F231	F	1.062839	-0.549215	-0.138795
