data_functionalizedCrystal
_audit_creation_method	'MofGen! by Chris Wilmer'
_symmetry_space_group_name_H-M	'P1'
_symmetry_Int_Tables_number	1
_symmetry_cell_setting	triclinic
loop_
_symmetry_equiv_pos_as_xyz
  x,y,z
_cell_length_a	14.908932
_cell_length_b	19.805407
_cell_length_c	19.805399
_cell_angle_alpha	90.019573
_cell_angle_beta	86.686672
_cell_angle_gamma	86.700340
loop_
_atom_site_label
_atom_site_type_symbol
_atom_site_fract_x
_atom_site_fract_y
_atom_site_fract_z
Zn1	Zn	0.359180	1.019292	0.367217
Zn2	Zn	0.510045	1.012720	0.247517
Zn3	Zn	0.359205	0.906106	0.254041
Zn4	Zn	0.509997	0.899586	0.360666
O5	O	0.434607	0.959426	0.307360
O6	O	0.379202	1.113136	0.351350
O7	O	0.490066	0.998556	0.153665
O8	O	0.232957	0.926599	0.274525
O9	O	0.490042	1.108308	0.263407
O10	O	0.232938	1.009757	0.357676
O11	O	0.379244	0.920227	0.158457
O12	O	0.379198	0.810525	0.268173
O13	O	0.489960	0.915487	0.456253
O14	O	0.489984	0.805734	0.346511
O15	O	0.379156	1.003434	0.461066
O16	O	0.636283	0.992234	0.257055
O17	O	0.636248	0.909114	0.340185
C18	C	0.434589	0.783571	0.307339
C19	C	0.434604	0.708338	0.307345
C20	C	0.199298	0.969638	0.317559
C21	C	0.099024	0.973990	0.321905
C22	C	0.492377	0.670513	0.348062
C23	C	0.492379	0.599825	0.348071
C24	C	0.434611	0.566962	0.307360
C25	C	0.376831	0.604792	0.266642
C26	C	0.376826	0.675479	0.266637
C27	C	0.376851	0.319718	0.266664
C28	C	0.376863	0.249025	0.266671
C29	C	0.492404	0.244063	0.348098
C30	C	0.492399	0.314751	0.348093
C31	C	0.434616	0.352574	0.307378
C32	C	0.434614	0.429223	0.307369
C33	C	0.434617	0.490315	0.307365
C34	C	-0.089385	0.895560	0.243489
C35	C	-0.183601	0.899647	0.247570
C36	C	-0.183628	0.986247	0.334152
C37	C	-0.089411	0.982160	0.330070
C38	C	-0.042293	0.936816	0.284737
C39	C	0.051926	0.932733	0.280652
C40	C	0.051898	1.019329	0.367237
C41	C	-0.042319	1.023415	0.371318
C42	C	0.669000	0.949271	0.297216
C43	C	0.769274	0.944989	0.292899
C44	C	0.434550	0.959466	0.483906
C45	C	0.434526	0.959483	0.559139
C46	C	0.434625	1.135968	0.307382
C47	C	0.434632	1.211199	0.307391
C48	C	0.434598	0.959427	0.131505
C49	C	0.434368	0.959552	0.056283
C50	C	0.376827	1.005279	0.596990
C51	C	0.376800	1.005287	0.667680
C52	C	0.434478	0.959502	0.700516
C53	C	0.492180	0.913702	0.662660
C54	C	0.492201	0.913691	0.591972
C55	C	0.492096	0.913744	0.947737
C56	C	0.492072	0.913759	1.018430
C57	C	0.376695	1.005340	1.023445
C58	C	0.376716	1.005329	0.952757
C59	C	0.434414	0.959526	0.914907
C60	C	0.434441	0.959517	0.838257
C61	C	0.434457	0.959514	0.777164
H62	H	0.539421	0.697265	0.381211
H63	H	0.539442	0.341504	0.381241
H64	H	-0.221941	0.866052	0.213983
H65	H	0.329861	1.042564	0.570260
H66	H	0.329816	0.222271	0.233519
H67	H	-0.080694	1.060332	0.408230
C68	C	0.313356	1.055677	0.709316
H69	H	0.321601	1.049126	0.756118
H70	H	0.326589	1.100572	0.697160
H71	H	0.252733	1.048413	0.700363
H72	H	0.329776	0.706275	0.233485
C73	C	0.103700	1.064713	0.412610
H74	H	0.166561	1.055785	0.403689
H75	H	0.088261	1.110856	0.403374
H76	H	0.088247	1.055488	0.458759
H77	H	0.329712	1.042632	1.054271
H78	H	0.539042	0.876473	1.045163
H79	H	-0.222004	1.023160	0.371066
C80	C	0.313309	0.361314	0.221867
H81	H	0.278917	0.331616	0.197615
H82	H	0.274038	0.390604	0.249495
H83	H	0.347778	0.387380	0.190838
C84	C	0.103755	0.882854	0.230792
H85	H	0.062211	0.858864	0.206817
H86	H	0.140523	0.907138	0.199707
H87	H	0.140494	0.851775	0.255097
H88	H	0.329791	0.578029	0.233498
C89	C	0.555542	0.863350	0.906111
H90	H	0.589888	0.836086	0.935794
H91	H	0.521017	0.835358	0.880037
H92	H	0.594874	0.887516	0.876827
C93	C	0.555984	0.558218	0.392815
H94	H	0.590412	0.587913	0.417041
H95	H	0.521581	0.532126	0.423856
H96	H	0.595232	0.528954	0.365137
C97	C	0.555956	0.202456	0.392892
H98	H	0.547681	0.155651	0.387073
H99	H	0.616552	0.211412	0.380288
H100	H	0.542826	0.214632	0.438954
H101	H	-0.051020	0.858643	0.206573
C102	C	0.313268	1.055690	0.916640
H103	H	0.278893	1.082961	0.949308
H104	H	0.347785	1.083679	0.887572
H105	H	0.273964	1.031492	0.890767
C106	C	0.555625	0.863340	0.698778
H107	H	0.547357	0.869909	0.746299
H108	H	0.542423	0.818434	0.687759
H109	H	0.616247	0.870619	0.684565
C110	C	0.555692	0.863332	0.550334
H111	H	0.590052	0.836074	0.580013
H112	H	0.521205	0.835329	0.524240
H113	H	0.595007	0.887531	0.521068
