data_functionalizedCrystal
_audit_creation_method	'MofGen! by Chris Wilmer'
_symmetry_space_group_name_H-M	'P1'
_symmetry_Int_Tables_number	1
_symmetry_cell_setting	triclinic
loop_
_symmetry_equiv_pos_as_xyz
  x,y,z
_cell_length_a	13.032831
_cell_length_b	12.594510
_cell_length_c	12.594516
_cell_angle_alpha	89.966003
_cell_angle_beta	82.816889
_cell_angle_gamma	82.806798
loop_
_atom_site_label
_atom_site_type_symbol
_atom_site_fract_x
_atom_site_fract_y
_atom_site_fract_z
Zn1	Zn	1.597768	-0.808168	-0.630598
Zn2	Zn	1.597674	-0.630179	-0.808615
Zn3	Zn	1.423002	-0.607631	-0.608026
Zn4	Zn	1.422997	-0.785554	-0.785897
O5	O	1.510360	-0.707883	-0.708284
O6	O	1.743998	-0.803458	-0.673166
O7	O	1.574467	-0.478237	-0.782068
O8	O	1.446227	-0.634261	-0.462080
O9	O	1.743930	-0.672690	-0.803954
O10	O	1.574626	-0.781594	-0.478663
O11	O	1.446136	-0.461671	-0.634696
O12	O	1.276758	-0.612333	-0.612668
O13	O	1.446218	-0.937505	-0.765236
O14	O	1.276755	-0.743052	-0.743349
O15	O	1.574621	-0.954119	-0.651138
O16	O	1.574462	-0.650762	-0.954542
O17	O	1.446127	-0.764915	-0.937851
C18	C	1.238837	-0.672792	-0.673095
C19	C	1.122679	-0.657806	-0.658066
C20	C	1.070917	-0.715705	-0.716128
C21	C	0.950861	-0.700217	-0.700597
C22	C	1.510429	-0.985513	-0.708170
C23	C	1.510459	-1.103822	-0.708122
C24	C	1.580318	-1.182115	-0.646061
C25	C	1.485002	-1.240598	-0.607663
C26	C	1.605831	-1.256145	-0.746453
C27	C	1.415091	-1.160741	-0.669666
C28	C	1.535985	-1.176290	-0.808510
C29	C	1.440603	-1.234733	-0.770140
C30	C	1.782944	-0.743111	-0.743612
C31	C	1.899102	-0.758124	-0.758667
C32	C	1.510312	-0.707858	-0.984819
C33	C	1.510387	-0.707896	-1.103134
C34	C	1.510352	-0.431341	-0.708329
C35	C	1.510525	-0.313058	-0.708104
C36	C	1.580269	-0.645894	-1.181437
C37	C	1.605807	-0.746341	-1.255431
C38	C	1.484979	-0.607527	-1.239956
C39	C	1.535974	-0.808400	-1.175576
C40	C	1.415101	-0.669515	-1.160089
C41	C	1.440603	-0.770025	-1.234046
C42	C	1.510437	-0.707935	-0.430673
C43	C	1.510470	-0.707957	-0.312372
H44	H	0.906299	-0.639181	-0.639381
H45	H	1.381485	-1.257929	-0.822606
H46	H	0.943663	-0.819170	-0.819872
H47	H	1.639376	-0.593516	-1.158048
C48	C	1.456413	-0.494241	-1.277681
C49	C	1.529780	-0.429659	-1.251338
C50	C	1.503501	-0.325291	-1.286059
H51	H	1.456044	-0.495011	-1.353049
H52	H	1.389189	-0.466472	-1.243717
H53	H	1.596987	-0.457420	-1.285306
H54	H	1.530161	-0.428857	-1.175977
H55	H	1.436277	-0.297522	-1.252094
H56	H	1.503131	-0.326072	-1.361425
H57	H	1.553270	-0.281457	-1.268181
H58	H	1.639292	-1.158701	-0.593530
C59	C	1.063078	-0.576421	-0.576554
C60	C	0.955849	-0.577205	-0.577389
C61	C	0.900915	-0.502230	-0.502329
H62	H	1.080793	-0.594307	-0.507284
H63	H	1.080826	-0.507134	-0.594357
H64	H	0.938108	-0.646476	-0.559580
H65	H	0.938102	-0.559308	-0.646641
H66	H	0.918663	-0.432943	-0.520132
H67	H	0.918639	-0.520123	-0.433064
H68	H	0.828155	-0.502745	-0.502892
H69	H	1.463434	-1.268953	-0.522757
H70	H	1.334508	-0.636995	-1.118595
H71	H	1.115483	-0.776744	-0.777332
H72	H	1.334441	-1.119369	-0.637141
C73	C	1.564993	-1.138533	-0.921685
C74	C	1.664933	-1.187212	-0.961435
C75	C	1.691707	-1.152445	-1.065684
H76	H	1.516184	-1.157450	-0.966154
H77	H	1.564188	-1.063001	-0.920965
H78	H	1.665729	-1.262727	-0.962163
H79	H	1.713764	-1.168300	-0.916997
H80	H	1.690903	-1.076914	-1.064963
H81	H	1.642892	-1.171364	-1.110143
H82	H	1.759522	-1.185461	-1.092664
C83	C	1.713429	-1.311347	-0.789565
C84	C	1.786208	-1.284921	-0.724306
C85	C	1.885340	-1.335738	-0.763986
H86	H	1.712666	-1.386664	-0.789863
H87	H	1.732075	-1.288409	-0.860452
H88	H	1.767567	-1.307865	-0.653438
H89	H	1.787004	-1.209613	-0.724002
H90	H	1.903987	-1.312799	-0.834873
H91	H	1.884567	-1.411052	-0.764282
H92	H	1.934735	-1.317807	-0.719720
C93	C	1.713372	-0.789474	-1.310693
C94	C	1.786180	-0.724225	-1.284333
C95	C	1.885277	-0.763910	-1.335227
H96	H	1.732074	-0.860354	-1.287792
H97	H	1.712505	-0.789757	-1.386008
H98	H	1.787050	-0.723954	-1.209033
H99	H	1.767512	-0.653344	-1.307236
H100	H	1.884411	-0.764193	-1.410543
H101	H	1.903969	-0.834790	-1.312322
H102	H	1.934688	-0.719640	-1.317357
C103	C	1.564776	-0.921745	-1.138128
C104	C	1.582665	-0.992139	-1.226379
C105	C	1.609189	-1.096559	-1.191919
H106	H	1.626115	-0.924952	-1.104075
H107	H	1.509278	-0.941628	-1.088950
H108	H	1.638157	-0.972262	-1.275538
H109	H	1.521338	-0.988966	-1.260442
H110	H	1.553691	-1.116442	-1.142742
H111	H	1.670526	-1.099754	-1.157866
H112	H	1.621320	-1.144335	-1.251790
C113	C	1.361867	-0.839969	-1.265200
C114	C	1.362137	-0.838552	-1.376395
C115	C	1.289615	-0.902964	-1.405135
H116	H	1.380023	-0.911290	-1.243225
H117	H	1.294322	-0.813288	-1.231252
H118	H	1.429666	-0.865238	-1.410331
H119	H	1.343970	-0.767247	-1.398397
H120	H	1.222071	-0.876282	-1.371187
H121	H	1.307777	-0.974280	-1.383153
H122	H	1.289782	-0.902003	-1.480581
