data_functionalizedCrystal
_audit_creation_method	'MofGen! by Chris Wilmer'
_symmetry_space_group_name_H-M	'P1'
_symmetry_Int_Tables_number	1
_symmetry_cell_setting	triclinic
loop_
_symmetry_equiv_pos_as_xyz
  x,y,z
_cell_length_a	19.805407
_cell_length_b	12.645330
_cell_length_c	19.805407
_cell_angle_alpha	90.007456
_cell_angle_beta	90.009221
_cell_angle_gamma	90.017692
loop_
_atom_site_label
_atom_site_type_symbol
_atom_site_fract_x
_atom_site_fract_y
_atom_site_fract_z
Zn1	Zn	1.034707	-0.422213	0.382747
Zn2	Zn	1.534707	0.077787	0.882747
Zn3	Zn	1.034660	-0.599447	0.269570
Zn4	Zn	1.534660	-0.099447	0.769570
Zn5	Zn	0.921543	-0.422198	0.269572
Zn6	Zn	1.421543	0.077802	0.769572
Zn7	Zn	0.921503	-0.599435	0.382717
Zn8	Zn	1.421503	-0.099435	0.882717
O9	O	0.978103	-0.510823	0.326152
O10	O	1.478103	-0.010823	0.826152
O11	O	1.129418	-0.445735	0.367746
O12	O	1.629418	0.054265	0.867746
O13	O	1.019652	-0.575934	0.174854
O14	O	1.519652	-0.075934	0.674854
O15	O	0.936591	-0.273853	0.284598
O16	O	1.436591	0.226147	0.784598
O17	O	1.129383	-0.575948	0.284596
O18	O	1.629383	-0.075948	0.784596
O19	O	1.019732	-0.273864	0.367747
O20	O	1.519732	0.226136	0.867747
O21	O	0.936545	-0.445710	0.174855
O22	O	1.436545	0.054290	0.674855
O23	O	0.826821	-0.445698	0.284569
O24	O	1.326821	0.054302	0.784569
O25	O	0.936523	-0.575927	0.477438
O26	O	1.436523	-0.075927	0.977438
O27	O	0.826792	-0.575913	0.367696
O28	O	1.326792	-0.075913	0.867696
O29	O	1.019694	-0.445723	0.477460
O30	O	1.519694	0.054277	0.977460
O31	O	1.019613	-0.747793	0.284567
O32	O	1.519613	-0.247793	0.784567
O33	O	0.936477	-0.747784	0.367695
O34	O	1.436477	-0.247784	0.867695
C35	C	0.802247	-0.510803	0.326130
C36	C	1.302247	-0.010803	0.826130
C37	C	0.727015	-0.510820	0.326136
C38	C	1.227015	-0.010820	0.826136
C39	C	0.691674	-0.578725	0.369351
C40	C	1.191674	-0.078725	0.869351
C41	C	0.620985	-0.578727	0.369360
C42	C	1.120985	-0.078727	0.869360
C43	C	0.585640	-0.510828	0.326152
C44	C	1.085640	-0.010828	0.826152
C45	C	0.620986	-0.442916	0.282935
C46	C	1.120986	0.057084	0.782935
C47	C	0.691673	-0.442909	0.282930
C48	C	1.191673	0.057091	0.782930
C49	C	0.335913	-0.442939	0.282958
C50	C	0.835913	0.057061	0.782958
C51	C	0.265221	-0.442953	0.282965
C52	C	0.765221	0.057047	0.782965
C53	C	0.265225	-0.578757	0.369388
C54	C	0.765225	-0.078757	0.869388
C55	C	0.335912	-0.578750	0.369383
C56	C	0.835912	-0.078750	0.869383
C57	C	0.371252	-0.510834	0.326169
C58	C	0.871252	-0.010834	0.826169
C59	C	0.447901	-0.510832	0.326160
C60	C	0.947901	-0.010832	0.826160
C61	C	0.508993	-0.510835	0.326157
C62	C	1.008993	-0.010835	0.826157
C63	C	0.978054	-0.786253	0.326142
C64	C	1.478054	-0.286253	0.826142
C65	C	0.978095	-0.904083	0.326161
C66	C	1.478095	-0.404083	0.826161
C67	C	0.926009	-1.071686	0.378618
C68	C	1.426009	-0.571686	0.878618
C69	C	0.925743	-0.949126	0.378449
C70	C	1.425743	-0.449126	0.878449
C71	C	0.958801	-0.948643	0.254828
C72	C	1.458801	-0.448643	0.754828
C73	C	0.958483	-1.071242	0.255147
C74	C	1.458483	-0.571242	0.755147
C75	C	1.049792	-1.071181	0.344457
C76	C	1.549792	-0.571181	0.844457
C77	C	1.049352	-0.948575	0.346017
C78	C	1.549352	-0.448575	0.846017
C79	C	1.154646	-0.510845	0.326174
C80	C	1.654646	-0.010845	0.826174
C81	C	1.229878	-0.510854	0.326183
C82	C	1.729878	-0.010854	0.826183
C83	C	0.978109	-0.510826	0.502694
C84	C	1.478109	-0.010826	1.002694
C85	C	0.978112	-0.510826	0.577926
C86	C	1.478112	-0.010826	1.077926
C87	C	0.978171	-0.234318	0.326176
C88	C	1.478171	0.265682	0.826176
C89	C	0.978200	-0.116488	0.326186
C90	C	1.478200	0.383512	0.826186
C91	C	1.021414	-0.443040	0.613283
C92	C	1.521414	0.056960	1.113283
C93	C	1.021408	-0.443036	0.683971
C94	C	1.521408	0.056964	1.183971
C95	C	0.978103	-0.510826	0.719302
C96	C	1.478103	-0.010826	1.219302
C97	C	0.934797	-0.578616	0.683940
C98	C	1.434797	-0.078616	1.183940
C99	C	0.934800	-0.578613	0.613253
C100	C	1.434800	-0.078613	1.113253
C101	C	0.934783	-0.578628	0.969013
C102	C	1.434783	-0.078628	1.469013
C103	C	0.934785	-0.578628	1.039706
C104	C	1.434785	-0.078628	1.539706
C105	C	1.021391	-0.443052	1.039732
C106	C	1.521391	0.056948	1.539732
C107	C	1.021394	-0.443049	0.969045
C108	C	1.521394	0.056951	1.469045
C109	C	0.978086	-0.510834	0.933689
C110	C	1.478086	-0.010834	1.433689
C111	C	0.978092	-0.510835	0.857041
C112	C	1.478092	-0.010835	1.357041
C113	C	0.978100	-0.510831	0.795949
C114	C	1.478100	-0.010831	1.295949
C115	C	0.978091	-0.510843	1.150296
C116	C	1.478091	-0.010843	1.650296
C117	C	0.978084	-0.510835	1.075064
C118	C	1.478084	-0.010835	1.575064
H119	H	0.720448	-0.387609	0.247744
H120	H	1.220448	0.112391	0.747744
H121	H	0.906150	-1.099926	0.239669
H122	H	1.406150	-0.599926	0.739669
H123	H	0.994848	-1.100880	0.214749
H124	H	1.494848	-0.600880	0.714749
F125	F	0.373525	-0.651021	0.415369
F126	F	0.873525	-0.151021	0.915369
F127	F	0.888706	-0.650759	0.721543
F128	F	1.388706	-0.150759	1.221543
H129	H	0.899532	-0.633801	0.584467
H130	H	1.399532	-0.133801	1.084467
H131	H	0.995610	-0.919466	0.214695
H132	H	1.495610	-0.419466	0.714695
F133	F	0.583367	-0.370646	0.236953
F134	F	1.083367	0.129354	0.736953
F135	F	1.067509	-0.370892	0.575688
F136	F	1.567509	0.129108	1.075688
F137	F	0.941516	-0.909742	0.447584
F138	F	1.441516	-0.409742	0.947584
H139	H	0.592213	-0.634023	0.404549
H140	H	1.092213	-0.134023	0.904549
H141	H	0.236442	-0.634053	0.404577
H142	H	0.736442	-0.134053	0.904577
F143	F	1.068372	-0.910507	0.414634
F144	F	1.568372	-0.410507	0.914634
H145	H	0.899529	-0.633839	0.940236
H146	H	1.399529	-0.133839	1.440236
F147	F	0.227605	-0.370681	0.236975
F148	F	0.727605	0.129319	0.736975
F149	F	0.941636	-1.110164	0.447981
F150	F	1.441636	-0.610164	0.947981
F151	F	0.729285	-0.650999	0.415337
F152	F	1.229285	-0.150999	0.915337
H153	H	1.067395	-1.102049	0.395589
H154	H	1.567395	-0.602049	0.895589
H155	H	0.873266	-1.102581	0.366668
H156	H	1.373266	-0.602581	0.866668
F157	F	0.856369	-0.910902	0.362631
F158	F	1.356369	-0.410902	0.862631
F159	F	1.102855	-0.908484	0.299741
F160	F	1.602855	-0.408484	0.799741
F161	F	0.373516	-0.370654	0.236968
F162	F	0.873516	0.129346	0.736968
H163	H	0.907013	-0.918025	0.239071
H164	H	1.407013	-0.418025	0.739071
H165	H	1.088675	-1.100151	0.306269
H166	H	1.588675	-0.600151	0.806269
H167	H	1.056670	-0.387840	0.712756
H168	H	1.556670	0.112160	1.212756
H169	H	1.056660	-0.387851	0.940282
H170	H	1.556660	0.112149	1.440282
F171	F	1.067483	-0.370904	1.077365
F172	F	1.567483	0.129096	1.577365
H173	H	0.899518	-0.633833	1.068470
H174	H	1.399518	-0.133833	1.568470
