data_functionalizedCrystal
_audit_creation_method	'MofGen! by Chris Wilmer'
_symmetry_space_group_name_H-M	'P1'
_symmetry_Int_Tables_number	1
_symmetry_cell_setting	triclinic
loop_
_symmetry_equiv_pos_as_xyz
  x,y,z
_cell_length_a	10.686285
_cell_length_b	11.169417
_cell_length_c	11.169409
_cell_angle_alpha	90.022423
_cell_angle_beta	85.599661
_cell_angle_gamma	94.369367
loop_
_atom_site_label
_atom_site_type_symbol
_atom_site_fract_x
_atom_site_fract_y
_atom_site_fract_z
Zn1	Zn	-0.502287	-1.871646	-0.642015
Zn2	Zn	-0.002287	-1.371646	-0.142015
Zn3	Zn	-0.713340	-1.886943	-0.425958
Zn4	Zn	-0.213340	-1.386943	0.074042
Zn5	Zn	-0.502357	-1.670934	-0.441338
Zn6	Zn	-0.002357	-1.170934	0.058662
Zn7	Zn	-0.713230	-1.686342	-0.626605
Zn8	Zn	-0.213230	-1.186342	-0.126605
O9	O	-0.607803	-1.778966	-0.533979
O10	O	-0.107803	-1.278966	-0.033979
O11	O	-0.530300	-2.041626	-0.613367
O12	O	-0.030300	-1.541626	-0.113367
O13	O	-0.685427	-1.858243	-0.260043
O14	O	-0.185427	-1.358243	0.239957
O15	O	-0.325770	-1.684709	-0.480843
O16	O	0.174230	-1.184709	0.019157
O17	O	-0.685360	-2.052865	-0.454631
O18	O	-0.185360	-1.552865	0.045369
O19	O	-0.325719	-1.832171	-0.628280
O20	O	0.174281	-1.332171	-0.128280
O21	O	-0.530419	-1.699542	-0.271342
O22	O	-0.030419	-1.199542	0.228658
O23	O	-0.530313	-1.505027	-0.465901
O24	O	-0.030313	-1.005027	0.034099
O25	O	-0.685173	-1.710969	-0.796604
O26	O	-0.185173	-1.210969	-0.296604
O27	O	-0.685241	-1.516347	-0.602016
O28	O	-0.185241	-1.016347	-0.102016
O29	O	-0.530194	-1.847111	-0.807926
O30	O	-0.030194	-1.347111	-0.307926
O31	O	-0.889903	-1.873183	-0.439689
O32	O	-0.389903	-1.373183	0.060311
O33	O	-0.889822	-1.725802	-0.587103
O34	O	-0.389822	-1.225802	-0.087103
C35	C	-0.607773	-1.467139	-0.533955
C36	C	-0.107773	-0.967139	-0.033955
C37	C	-0.607791	-1.333741	-0.533972
C38	C	-0.107791	-0.833741	-0.033972
C39	C	-0.935647	-1.802857	-0.510081
C40	C	-0.435647	-1.302857	-0.010081
C41	C	-1.075900	-1.813187	-0.499897
C42	C	-0.575900	-1.313187	0.000103
C43	C	-0.278680	-1.755015	-0.557996
C44	C	0.221320	-1.255015	-0.057996
C45	C	-0.138427	-1.744809	-0.568231
C46	C	0.361573	-1.244809	-0.068231
C47	C	-0.607664	-1.779052	-0.847032
C48	C	-0.107664	-1.279052	-0.347032
C49	C	-0.607604	-1.779089	-0.980436
C50	C	-0.107604	-1.279089	-0.480436
C51	C	-0.607824	-1.092010	-0.533994
C52	C	-0.107824	-0.592010	-0.033994
C53	C	-0.607806	-1.225409	-0.533978
C54	C	-0.107806	-0.725409	-0.033978
C55	C	-0.607852	-1.778943	-0.222150
C56	C	-0.107852	-1.278943	0.277850
C57	C	-0.607556	-1.779113	-0.088773
C58	C	-0.107556	-1.279113	0.411227
H59	H	-1.084662	-1.678366	-0.634527
H60	H	-0.584662	-1.178366	-0.134527
C61	C	-1.148539	-1.902946	-0.410319
C62	C	-0.648539	-1.402946	0.089681
N63	N	-1.203252	-1.970552	-0.342850
N64	N	-0.703252	-1.470552	0.157150
