data_functionalizedCrystal
_audit_creation_method	'MofGen! by Chris Wilmer'
_symmetry_space_group_name_H-M	'P1'
_symmetry_Int_Tables_number	1
_symmetry_cell_setting	triclinic
loop_
_symmetry_equiv_pos_as_xyz
  x,y,z
_cell_length_a	13.897449
_cell_length_b	18.050589
_cell_length_c	13.897441
_cell_angle_alpha	89.973098
_cell_angle_beta	89.978743
_cell_angle_gamma	90.029048
loop_
_atom_site_label
_atom_site_type_symbol
_atom_site_fract_x
_atom_site_fract_y
_atom_site_fract_z
Zn1	Zn	1.474612	-0.295626	-0.545468
Zn2	Zn	1.807945	0.037707	-0.212135
Zn3	Zn	2.141278	0.371040	0.121199
Zn4	Zn	1.474482	-0.419829	-0.384177
Zn5	Zn	1.807815	-0.086495	-0.050844
Zn6	Zn	2.141149	0.246838	0.282490
Zn7	Zn	1.313307	-0.295659	-0.384179
Zn8	Zn	1.646640	0.037675	-0.050845
Zn9	Zn	1.979974	0.371008	0.282488
Zn10	Zn	1.313253	-0.419781	-0.545422
Zn11	Zn	1.646586	-0.086448	-0.212089
Zn12	Zn	1.979920	0.246886	0.121245
O13	O	1.393913	-0.357724	-0.464811
O14	O	1.727247	-0.024390	-0.131478
O15	O	2.060580	0.308943	0.201855
O16	O	1.609576	-0.312109	-0.524091
O17	O	1.942909	0.021225	-0.190757
O18	O	2.276243	0.354558	0.142576
O19	O	1.453070	-0.403391	-0.249195
O20	O	1.786404	-0.070057	0.084138
O21	O	2.119737	0.263276	0.417471
O22	O	1.334781	-0.191730	-0.405594
O23	O	1.668114	0.141603	-0.072261
O24	O	2.001448	0.474937	0.261073
O25	O	1.609481	-0.403359	-0.405591
O26	O	1.942814	-0.070026	-0.072258
O27	O	2.276148	0.263307	0.261076
O28	O	1.453291	-0.191706	-0.524093
O29	O	1.786624	0.141627	-0.190759
O30	O	2.119958	0.474960	0.142574
O31	O	1.334655	-0.312164	-0.249197
O32	O	1.667989	0.021170	0.084137
O33	O	2.001322	0.354503	0.417470
O34	O	1.178318	-0.312117	-0.405550
O35	O	1.511651	0.021216	-0.072216
O36	O	1.844985	0.354549	0.261117
O37	O	1.334689	-0.403278	-0.680410
O38	O	1.668023	-0.069945	-0.347077
O39	O	2.001356	0.263388	-0.013743
O40	O	1.178279	-0.403309	-0.524014
O41	O	1.511612	-0.069976	-0.190681
O42	O	1.844945	0.263357	0.142652
O43	O	1.453239	-0.312062	-0.680444
O44	O	1.786572	0.021271	-0.347110
O45	O	2.119906	0.354604	-0.013777
O46	O	1.453018	-0.523747	-0.405546
O47	O	1.786351	-0.190414	-0.072213
O48	O	2.119685	0.142920	0.261120
O49	O	1.334564	-0.523712	-0.524013
O50	O	1.667897	-0.190379	-0.190679
O51	O	2.001230	0.142955	0.142654
C52	C	1.143299	-0.357712	-0.464778
C53	C	1.476632	-0.024379	-0.131444
C54	C	1.809966	0.308954	0.201889
C55	C	1.036085	-0.357725	-0.464786
C56	C	1.369418	-0.024392	-0.131453
C57	C	1.702752	0.308941	0.201880
C58	C	0.949015	-0.357728	-0.464802
C59	C	1.282349	-0.024394	-0.131469
C60	C	1.615682	0.308939	0.201864
C61	C	0.839783	-0.357733	-0.464832
C62	C	1.173116	-0.024400	-0.131498
C63	C	1.506450	0.308934	0.201835
C64	C	1.393797	-0.550676	-0.464795
C65	C	1.727130	-0.217343	-0.131462
C66	C	2.060464	0.115991	0.201871
C67	C	1.393835	-0.633222	-0.464821
C68	C	1.727169	-0.299888	-0.131487
C69	C	2.060502	0.033445	0.201846
C70	C	1.329483	-0.832680	-0.529220
C71	C	1.662817	-0.499347	-0.195887
C72	C	1.996150	-0.166014	0.137447
C73	C	1.305970	-0.882125	-0.441200
C74	C	1.639303	-0.548791	-0.107867
C75	C	1.972636	-0.215458	0.225466
C76	C	1.393930	-0.784352	-0.464833
C77	C	1.727264	-0.451019	-0.131500
C78	C	2.060597	-0.117685	0.201833
C79	C	1.417491	-0.881989	-0.552863
C80	C	1.750825	-0.548656	-0.219530
C81	C	2.084158	-0.215322	0.113804
C82	C	1.394020	-0.930337	-0.464853
C83	C	1.727353	-0.597004	-0.131520
C84	C	2.060687	-0.263670	0.201813
C85	C	1.370370	-0.832709	-0.376767
C86	C	1.703704	-0.499376	-0.043434
C87	C	2.037037	-0.166043	0.289900
C88	C	1.481933	-0.832569	-0.488489
C89	C	1.815266	-0.499236	-0.155156
C90	C	2.148599	-0.165903	0.178177
C91	C	1.458453	-0.881992	-0.400409
C92	C	1.791786	-0.548658	-0.067075
C93	C	2.125119	-0.215325	0.266258
C94	C	1.393876	-0.700254	-0.464823
C95	C	1.727209	-0.366920	-0.131490
C96	C	2.060543	-0.033587	0.201843
C97	C	1.394074	-1.014434	-0.464854
C98	C	1.727408	-0.681100	-0.131520
C99	C	2.060741	-0.347767	0.201813
C100	C	1.645506	-0.357736	-0.464846
C101	C	1.978840	-0.024402	-0.131512
C102	C	2.312173	0.308931	0.201821
C103	C	1.752720	-0.357741	-0.464860
C104	C	2.086054	-0.024408	-0.131527
C105	C	2.419387	0.308926	0.201806
C106	C	1.393972	-0.357661	-0.716405
C107	C	1.727306	-0.024328	-0.383071
C108	C	2.060639	0.309005	-0.049738
C109	C	1.393998	-0.357635	-0.823619
C110	C	1.727331	-0.024301	-0.490285
C111	C	2.060664	0.309032	-0.156952
C112	C	1.394057	-0.164018	-0.464849
C113	C	1.727390	0.169315	-0.131515
C114	C	2.060723	0.502649	0.201818
C115	C	1.394118	-0.081472	-0.464864
C116	C	1.727451	0.251861	-0.131531
C117	C	2.060784	0.585194	0.201802
C118	C	1.394017	-0.357614	-0.910688
C119	C	1.727351	-0.024280	-0.577355
C120	C	2.060684	0.309053	-0.244022
C121	C	1.394045	-0.357580	-1.019921
C122	C	1.727378	-0.024247	-0.686588
C123	C	2.060712	0.309086	-0.353254
C124	C	1.393910	-0.357732	-0.214197
C125	C	1.727243	-0.024399	0.119136
C126	C	2.060577	0.308934	0.452470
C127	C	1.394072	-0.357550	-0.106984
C128	C	1.727405	-0.024216	0.226350
C129	C	2.060739	0.309117	0.559683
H130	H	1.274902	-0.811028	-0.583593
H131	H	1.608236	-0.477694	-0.250259
H132	H	1.941569	-0.144361	0.083074
H133	H	1.512992	-0.903507	-0.345905
H134	H	1.846325	-0.570174	-0.012571
H135	H	2.179658	-0.236840	0.320762
O136	O	1.443850	-0.910661	-0.651462
O137	O	1.777183	-0.577328	-0.318129
O138	O	2.110517	-0.243995	0.015205
H139	H	1.390200	-0.890911	-0.704754
H140	H	1.723533	-0.557578	-0.371421
H141	H	2.056866	-0.224244	-0.038088
O142	O	1.207446	-0.910959	-0.414690
O143	O	1.540779	-0.577626	-0.081357
O144	O	1.874112	-0.244293	0.251977
H145	H	1.154037	-0.891215	-0.468229
H146	H	1.487371	-0.557882	-0.134895
H147	H	1.820704	-0.224548	0.198438
O148	O	1.343899	-0.804165	-0.278136
O149	O	1.677232	-0.470832	0.055197
O150	O	2.010566	-0.137498	0.388531
H151	H	1.344031	-0.742677	-0.278913
H152	H	1.677364	-0.409343	0.054421
H153	H	2.010697	-0.076010	0.387754
H154	H	1.556295	-0.810788	-0.508521
H155	H	1.889628	-0.477455	-0.175188
H156	H	2.222962	-0.144121	0.158145
