data_functionalizedCrystal
_audit_creation_method	'MofGen! by Chris Wilmer'
_symmetry_space_group_name_H-M	'P1'
_symmetry_Int_Tables_number	1
_symmetry_cell_setting	triclinic
loop_
_symmetry_equiv_pos_as_xyz
  x,y,z
_cell_length_a	12.827892
_cell_length_b	17.077404
_cell_length_c	17.077396
_cell_angle_alpha	90.019501
_cell_angle_beta	89.975123
_cell_angle_gamma	89.984383
loop_
_atom_site_label
_atom_site_type_symbol
_atom_site_fract_x
_atom_site_fract_y
_atom_site_fract_z
Zn1	Zn	-0.416027	-1.200096	-0.443862
Zn2	Zn	-0.590789	-1.200020	-0.312605
Zn3	Zn	-0.416063	-1.068827	-0.312610
Zn4	Zn	-0.590727	-1.068812	-0.443828
O5	O	-0.503402	-1.134439	-0.378226
O6	O	-0.439220	-1.309932	-0.426463
O7	O	-0.567653	-1.182591	-0.202758
O8	O	-0.269823	-1.086278	-0.330038
O9	O	-0.567617	-1.309877	-0.330028
O10	O	-0.269796	-1.182720	-0.426468
O11	O	-0.439282	-1.086205	-0.202763
O12	O	-0.439222	-0.958978	-0.330005
O13	O	-0.567511	-1.086253	-0.553680
O14	O	-0.567547	-0.958968	-0.426410
O15	O	-0.439160	-1.182706	-0.553705
O16	O	-0.737017	-1.182577	-0.329995
O17	O	-0.736971	-1.086179	-0.426404
C18	C	-0.503383	-0.930491	-0.378205
C19	C	-0.503400	-0.843241	-0.378214
C20	C	-0.774912	-1.134390	-0.378213
C21	C	-0.891065	-1.134440	-0.378233
C22	C	-0.503325	-1.134486	-0.582971
C23	C	-0.503292	-1.134506	-0.670221
C24	C	-0.942837	-1.182198	-0.330579
C25	C	-1.062888	-1.182251	-0.330599
C26	C	-0.230831	-1.134509	-0.378257
C27	C	-0.114678	-1.134540	-0.378271
C28	C	-0.503421	-1.339183	-0.378249
C29	C	-0.503430	-1.426433	-0.378258
C30	C	-0.570319	-0.802266	-0.428332
C31	C	-0.570321	-0.720285	-0.428344
C32	C	-0.503409	-0.679282	-0.378235
C33	C	-0.436482	-0.720263	-0.328115
C34	C	-0.436475	-0.802242	-0.328107
C35	C	-0.436502	-0.549393	-0.328134
C36	C	-0.436510	-0.467408	-0.328140
C37	C	-0.570349	-0.467436	-0.428371
C38	C	-0.570342	-0.549415	-0.428363
C39	C	-0.503416	-0.590391	-0.378242
C40	C	-0.436454	-1.184731	-0.711225
C41	C	-0.436419	-1.184741	-0.793206
C42	C	-0.503228	-1.134529	-0.834180
C43	C	-0.570069	-1.084298	-0.793170
C44	C	-0.570098	-1.084285	-0.711191
C45	C	-0.570007	-1.084330	-0.964040
C46	C	-0.569980	-1.084344	-1.046025
C47	C	-0.436327	-1.184785	-1.046055
C48	C	-0.436356	-1.184772	-0.964076
C49	C	-0.503199	-1.134543	-0.923071
C50	C	-0.503403	-1.134437	-0.174279
C51	C	-0.503141	-1.134568	-0.087029
H52	H	-0.898288	-1.223048	-0.289769
Cl53	Cl	-0.959841	-1.071377	-0.441252
Cl54	Cl	-0.654448	-0.853805	-0.491327
H55	H	-0.624839	-0.434070	-0.469184
Cl56	Cl	-0.654453	-0.668777	-0.491352
H57	H	-0.381960	-1.225664	-0.930716
H58	H	-0.624834	-0.582798	-0.469163
Cl59	Cl	-1.131622	-1.245376	-0.267603
H60	H	-1.070163	-1.093647	-0.419068
H61	H	-0.382012	-0.434025	-0.287346
Cl62	Cl	-0.352366	-0.600903	-0.265123
Cl63	Cl	-0.352355	-0.668715	-0.265124
H64	H	-0.381977	-0.835603	-0.287300
Cl65	Cl	-0.352465	-1.247863	-0.659722
H66	H	-0.381995	-1.225641	-0.826588
Cl67	Cl	-0.352297	-1.247932	-1.097603
H68	H	-0.624379	-1.043455	-1.079384
H69	H	-0.624421	-1.043415	-0.930657
H70	H	-0.624463	-1.043412	-0.826538
Cl71	Cl	-0.654124	-1.021140	-0.659642
