data_functionalizedCrystal
_audit_creation_method	'MofGen! by Chris Wilmer'
_symmetry_space_group_name_H-M	'P1'
_symmetry_Int_Tables_number	1
_symmetry_cell_setting	triclinic
loop_
_symmetry_equiv_pos_as_xyz
  x,y,z
_cell_length_a	12.759401
_cell_length_b	19.121449
_cell_length_c	12.759393
_cell_angle_alpha	92.474977
_cell_angle_beta	90.019684
_cell_angle_gamma	87.584336
loop_
_atom_site_label
_atom_site_type_symbol
_atom_site_fract_x
_atom_site_fract_y
_atom_site_fract_z
Zn1	Zn	1.624010	-0.279586	0.576158
Zn2	Zn	1.631364	-0.397054	0.392975
Zn3	Zn	1.448314	-0.279621	0.400491
Zn4	Zn	1.455757	-0.396998	0.568617
O5	O	1.539861	-0.338315	0.484560
O6	O	1.772007	-0.295177	0.551869
O7	O	1.607045	-0.381514	0.246949
O8	O	1.465428	-0.181333	0.430095
O9	O	1.777410	-0.381481	0.417285
O10	O	1.594511	-0.181307	0.559157
O11	O	1.472559	-0.295237	0.252471
O12	O	1.302280	-0.295182	0.422783
O13	O	1.478113	-0.381385	0.716641
O14	O	1.307748	-0.381419	0.546304
O15	O	1.601728	-0.295123	0.722181
O16	O	1.614262	-0.495330	0.409973
O17	O	1.485244	-0.495289	0.539016
C18	C	1.266893	-0.338298	0.484541
C19	C	1.150117	-0.338308	0.484557
C20	C	1.092373	-0.293346	0.420367
C21	C	0.982650	-0.293363	0.420379
C22	C	0.988425	-0.383306	0.548781
C23	C	1.098146	-0.383292	0.548762
C24	C	1.089038	-0.241415	0.346239
C25	C	0.979315	-0.241432	0.346251
C26	C	1.551387	-0.520793	0.472884
C27	C	1.556414	-0.598858	0.467923
C28	C	1.491557	-0.635538	0.532723
C29	C	1.496285	-0.708888	0.528058
C30	C	1.565875	-0.745558	0.458598
C31	C	1.630735	-0.708874	0.393791
C32	C	1.626001	-0.635525	0.398452
C33	C	1.583527	-0.967025	0.441164
C34	C	1.588258	-1.040379	0.436511
C35	C	1.453805	-1.040388	0.570777
C36	C	1.449082	-0.967038	0.575436
C37	C	1.513938	-0.930360	0.510625
C38	C	1.570712	-0.820534	0.453831
C39	C	1.509095	-0.855385	0.515388
C40	C	1.813896	-0.338332	0.484580
C41	C	1.930673	-0.338339	0.484588
C42	C	1.539930	-0.338244	0.758598
C43	C	1.539960	-0.338214	0.875377
C44	C	1.528319	-0.155123	0.496306
C45	C	1.523401	-0.077058	0.501311
C46	C	1.539850	-0.338335	0.211592
C47	C	1.540011	-0.338167	0.094826
C48	C	1.604335	-0.293293	0.933126
C49	C	1.604358	-0.293267	1.042852
C50	C	1.475629	-0.383090	1.037070
C51	C	1.475601	-0.383111	0.927346
C52	C	1.678660	-0.241437	0.936465
C53	C	1.678683	-0.241411	1.046191
H54	H	0.946478	-0.260857	0.267667
C55	C	1.130287	-0.172611	0.389683
C56	C	1.240094	-0.176287	0.387364
C57	C	1.278130	-0.112922	0.427392
H58	H	1.105035	-0.135467	0.348143
H59	H	1.106867	-0.164284	0.459962
H60	H	1.263504	-0.184606	0.317097
H61	H	1.265374	-0.213418	0.428907
H62	H	1.254709	-0.104595	0.497672
H63	H	1.252871	-0.075783	0.385848
H64	H	1.352637	-0.115411	0.425833
H65	H	0.946099	-0.187056	0.371660
C66	C	1.405561	-0.431757	0.864593
C67	C	1.335693	-0.391986	0.804175
C68	C	1.271145	-0.436774	0.746362
H69	H	1.447540	-0.462387	0.819737
H70	H	1.367173	-0.458482	0.911224
H71	H	1.374078	-0.365274	0.757549
H72	H	1.293692	-0.361359	0.849005
H73	H	1.232756	-0.463499	0.792993
H74	H	1.313132	-0.467401	0.701512
H75	H	1.223726	-0.409796	0.705369
C76	C	1.415897	-0.595855	0.608176
C77	C	1.360093	-0.643680	0.663907
C78	C	1.290374	-0.607152	0.733414
H79	H	1.454098	-0.567192	0.655903
H80	H	1.368241	-0.567304	0.569787
H81	H	1.407742	-0.672219	0.702294
H82	H	1.321871	-0.672345	0.616208
H83	H	1.242718	-0.578602	0.695025
H84	H	1.328583	-0.578491	0.781134
H85	H	1.252495	-0.639596	0.771229
C86	C	1.426049	-0.748798	0.598479
C87	C	1.488217	-0.790849	0.663177
C88	C	1.423549	-0.827629	0.728057
H89	H	1.383914	-0.716532	0.640612
H90	H	1.382154	-0.777501	0.556462
H91	H	1.532093	-0.762149	0.705190
H92	H	1.530350	-0.823128	0.621072
H93	H	1.379655	-0.856332	0.686040
H94	H	1.381418	-0.795358	0.770183
H95	H	1.465721	-0.856170	0.771955
C96	C	1.635326	-0.172500	1.095851
C97	C	1.531846	-0.160307	1.062556
C98	C	1.491873	-0.096832	1.108268
H99	H	1.636722	-0.174779	1.170061
H100	H	1.677004	-0.135428	1.075215
H101	H	1.490179	-0.197370	1.083198
H102	H	1.530422	-0.158014	0.988352
H103	H	1.533551	-0.059760	1.087632
H104	H	1.493275	-0.099117	1.182477
H105	H	1.421662	-0.088547	1.085677
C106	C	1.405829	-0.431951	1.093353
C107	C	1.433058	-0.501448	1.062182
C108	C	1.368772	-0.546480	1.113994
H109	H	1.415001	-0.425601	1.166982
H110	H	1.334572	-0.421713	1.075998
H111	H	1.504298	-0.511684	1.079545
H112	H	1.423881	-0.507821	0.988561
H113	H	1.297515	-0.536241	1.096639
H114	H	1.377949	-0.540124	1.187621
H115	H	1.387231	-0.593638	1.092845
C116	C	1.663847	-1.080067	0.360982
C117	C	1.719612	-1.032248	0.305200
C118	C	1.789241	-1.068783	0.235610
H119	H	1.711540	-1.108632	0.399281
H120	H	1.625550	-1.108717	0.313300
H121	H	1.757907	-1.003611	0.352875
H122	H	1.671946	-1.003682	0.266879
H123	H	1.750944	-1.097433	0.187928
H124	H	1.836928	-1.097347	0.273918
H125	H	1.827079	-1.036344	0.197747
H126	H	1.678813	-0.605661	0.345683
H127	H	1.627374	-0.850399	0.397277
C128	C	1.644879	-0.168977	0.901258
C129	C	1.554152	-0.173544	0.840016
C130	C	1.523010	-0.106813	0.807554
H131	H	1.630794	-0.138685	0.961013
H132	H	1.699384	-0.150910	0.861006
H133	H	1.499659	-0.191602	0.880268
H134	H	1.568211	-0.203824	0.780248
H135	H	1.577515	-0.088746	0.767302
H136	H	1.508931	-0.076526	0.867314
H137	H	1.461454	-0.109904	0.765990
H138	H	1.392416	-0.937183	0.631996
H139	H	1.145157	-0.419912	0.601021
C140	C	1.783440	-0.267415	0.889615
C141	C	1.852880	-0.284610	0.970425
C142	C	1.949416	-0.308536	0.927306
H143	H	1.773628	-0.307728	0.845134
H144	H	1.811643	-0.231657	0.850043
H145	H	1.824683	-0.320365	1.009979
H146	H	1.862723	-0.244308	1.014912
H147	H	1.977619	-0.272779	0.887734
H148	H	1.939593	-0.348847	0.882825
H149	H	1.996546	-0.320200	0.982129
H150	H	1.452430	-0.825527	0.571939
H151	H	1.401002	-1.070260	0.623541
H152	H	1.760979	-0.255980	1.075040
C153	C	1.653771	-0.927176	0.370677
C154	C	1.591614	-0.885154	0.305927
C155	C	1.656291	-0.848441	0.240967
H156	H	1.697697	-0.898454	0.412604
H157	H	1.695874	-0.959503	0.328589
H158	H	1.549529	-0.852831	0.348010
H159	H	1.547690	-0.913858	0.263977
H160	H	1.698394	-0.880768	0.198879
H161	H	1.700214	-0.819723	0.282904
H162	H	1.614127	-0.819930	0.197020
H163	H	1.119691	-0.255914	0.263899
C164	C	0.931801	-0.432064	0.618456
C165	C	0.823352	-0.422444	0.604752
C166	C	0.771160	-0.467341	0.668933
H167	H	0.952645	-0.479268	0.600007
H168	H	0.949108	-0.421832	0.689748
H169	H	0.806053	-0.432681	0.533477
H170	H	0.802477	-0.375249	0.623208
H171	H	0.788466	-0.457108	0.740224
H172	H	0.792012	-0.514542	0.650478
H173	H	0.697571	-0.460815	0.659650
H174	H	1.687393	-0.738736	0.337230
