data_functionalizedCrystal
_audit_creation_method	'MofGen! by Chris Wilmer'
_symmetry_space_group_name_H-M	'P1'
_symmetry_Int_Tables_number	1
_symmetry_cell_setting	triclinic
loop_
_symmetry_equiv_pos_as_xyz
  x,y,z
_cell_length_a	18.627244
_cell_length_b	18.627297
_cell_length_c	18.627226
_cell_angle_alpha	89.997735
_cell_angle_beta	120.002984
_cell_angle_gamma	119.999538
loop_
_atom_site_label
_atom_site_type_symbol
_atom_site_fract_x
_atom_site_fract_y
_atom_site_fract_z
O1	O	-0.513849	-0.492474	-1.125731
O2	O	-0.366838	-0.388080	-0.874325
O3	O	-0.513844	-0.388077	-1.021328
O4	O	-0.366842	-0.492478	-0.978727
O5	O	-0.633246	-0.507478	-1.021328
O6	O	-0.486240	-0.507481	-0.874325
O7	O	-0.633250	-0.611875	-1.125731
Cu8	Cu	-0.570647	-0.570581	-1.000028
Cu9	Cu	-0.429441	-0.429375	-1.000028
O10	O	-0.486244	-0.611879	-0.978727
C11	C	-0.644047	-0.256978	-1.031024
C12	C	-0.593652	-0.162281	-1.024927
C13	C	-0.601249	-0.300578	-1.031631
C14	C	-0.774046	-0.386978	-1.031023
C15	C	-0.862646	-0.431279	-1.024927
C16	C	-0.731050	-0.430382	-1.031631
C17	C	-0.644044	-0.386977	-1.031024
C18	C	-0.593646	-0.431276	-1.024927
C19	C	-0.731053	-0.300580	-1.031631
O20	O	-1.104448	-0.492488	-0.978727
O21	O	-0.895651	-0.388081	-1.021328
O22	O	-0.895644	-0.388087	-0.874324
O23	O	-1.104455	-0.492482	-1.125730
O24	O	-0.895639	-0.507487	-0.874325
O25	O	-0.895646	-0.507481	-1.021328
O26	O	-1.104443	-0.611887	-0.978727
Cu27	Cu	-1.000044	-0.570586	-1.000028
Cu28	Cu	-1.000050	-0.429383	-1.000027
O29	O	-1.104450	-0.611881	-1.125730
C30	C	-0.644057	-0.612970	-1.387037
C31	C	-0.593662	-0.568669	-1.431338
C32	C	-0.731064	-0.699367	-1.430442
C33	C	-0.644052	-0.612973	-1.257033
C34	C	-0.593651	-0.568675	-1.162333
C35	C	-0.731059	-0.699370	-1.300636
C36	C	-0.774057	-0.742970	-1.387037
C37	C	-0.862659	-0.837665	-1.431339
C38	C	-0.601256	-0.569568	-1.300635
C39	C	-0.356051	-0.742985	-0.969032
C40	C	-0.406449	-0.837681	-0.975129
C41	C	-0.269045	-0.699385	-0.968425
C42	C	-0.356048	-0.612983	-0.969032
C43	C	-0.406443	-0.568681	-0.975129
C44	C	-0.269042	-0.569581	-0.968424
C45	C	-0.226049	-0.612987	-0.969032
C46	C	-0.137449	-0.568689	-0.975128
C47	C	-0.398846	-0.699381	-0.968425
O48	O	-0.366850	0.125716	-0.978728
O49	O	-0.513851	-0.125681	-1.021329
O50	O	-0.366845	0.021315	-0.874325
O51	O	-0.513856	-0.021279	-1.125731
O52	O	-0.486246	0.021317	-0.874325
O53	O	-0.633252	-0.125679	-1.021328
O54	O	-0.486251	0.125718	-0.978728
Cu55	Cu	-0.570654	0.000020	-1.000028
Cu56	Cu	-0.429448	0.000018	-1.000028
O57	O	-0.633257	-0.021278	-1.125731
O58	O	-1.104441	-1.125668	-1.492531
O59	O	-0.895660	-0.874268	-1.388139
O60	O	-0.895637	-1.021256	-1.388129
O61	O	-1.104464	-0.978681	-1.492541
O62	O	-0.895643	-1.021253	-1.507534
O63	O	-0.895666	-0.874265	-1.507544
O64	O	-1.104447	-1.125665	-1.611936
Cu65	Cu	-1.000057	-0.999965	-1.570643
Cu66	Cu	-1.000050	-0.999969	-1.429432
O67	O	-1.104470	-0.978677	-1.611946
O68	O	-0.486246	-0.507477	-1.611927
O69	O	-0.633259	-0.611870	-1.507538
O70	O	-0.486245	-0.611866	-1.507512
O71	O	-0.633261	-0.507480	-1.611953
O72	O	-0.366850	-0.492461	-1.388114
O73	O	-0.513865	-0.492464	-1.388140
O74	O	-0.366852	-0.388071	-1.492529
Cu75	Cu	-0.429457	-0.429365	-1.429432
Cu76	Cu	-0.570655	-0.570576	-1.570635
O77	O	-0.513866	-0.388075	-1.492555
C78	C	-0.226049	-0.256975	-0.613027
C79	C	-0.137450	-0.162278	-0.568728
C80	C	-0.269045	-0.300575	-0.569623
C81	C	-0.356045	-0.386977	-0.743026
C82	C	-0.406440	-0.431279	-0.837723
C83	C	-0.398844	-0.430380	-0.699425
C84	C	-0.356050	-0.386974	-0.613028
C85	C	-0.406448	-0.431273	-0.568729
C86	C	-0.269041	-0.300578	-0.699425
C87	C	-0.644025	-0.386994	-0.613020
C88	C	-0.593624	-0.431295	-0.568721
C89	C	-0.601227	-0.300597	-0.569613
C90	C	-0.774032	-0.386990	-0.743022
C91	C	-0.862637	-0.431287	-0.837722
C92	C	-0.731037	-0.300593	-0.699417
C93	C	-0.644027	-0.256995	-0.613016
C94	C	-0.593630	-0.162300	-0.568713
C95	C	-0.731035	-0.430395	-0.699421
C96	C	-1.356071	-0.742985	-1.387033
C97	C	-1.406454	-0.837675	-1.431337
C98	C	-1.398891	-0.699394	-1.430432
C99	C	-1.226073	-0.612987	-1.257029
C100	C	-1.137460	-0.568684	-1.162332
C101	C	-1.269090	-0.569594	-1.300625
C102	C	-1.356107	-0.613002	-1.387023
C103	C	-1.406528	-0.568714	-1.431317
C104	C	-1.269055	-0.699379	-1.300635
C105	C	-0.356032	0.031007	-0.613018
C106	C	-0.406425	0.024911	-0.568715
C107	C	-0.269025	0.031612	-0.569613
C108	C	-0.356041	0.031008	-0.743023
C109	C	-0.406443	0.024914	-0.837722
C110	C	-0.269033	0.031614	-0.699421
C111	C	-0.226034	0.031005	-0.613020
C112	C	-0.137432	0.024906	-0.568720
C113	C	-0.398834	0.031616	-0.699419
O114	O	-0.486200	0.125707	-0.507519
O115	O	-0.633220	-0.125692	-0.611920
O116	O	-0.486190	0.021299	-0.611896
O117	O	-0.633231	-0.021283	-0.507543
O118	O	-0.366808	0.021285	-0.492476
O119	O	-0.513839	-0.125706	-0.492500
O120	O	-0.366819	0.125693	-0.388100
Cu121	Cu	-0.429428	-0.000007	-0.429396
Cu122	Cu	-0.570611	0.000009	-0.570624
O123	O	-0.513849	-0.021297	-0.388124
C124	C	-0.774062	-0.030967	-1.387039
C125	C	-0.862664	-0.024869	-1.431342
C126	C	-0.731068	-0.031575	-1.430443
C127	C	-0.644057	-0.030971	-1.257033
C128	C	-0.593658	-0.024876	-1.162334
C129	C	-0.601261	-0.031578	-1.300635
C130	C	-0.644060	-0.030969	-1.387036
C131	C	-0.593664	-0.024873	-1.431336
C132	C	-0.731065	-0.031577	-1.300638
H133	H	-0.767027	-0.265568	-1.032598
H134	H	-0.531239	-0.498582	-1.265630
O135	O	-0.482250	0.032942	-0.741095
C136	C	-0.554217	0.110394	-0.741333
C137	C	-0.459674	0.109010	-0.694055
H138	H	-0.536003	0.171879	-0.703310
H139	H	-0.577554	0.110788	-0.810691
H140	H	-0.619116	0.049494	-0.744968
H141	H	-0.394712	0.169898	-0.690354
H142	H	-0.436424	0.108571	-0.624724
O143	O	-0.517660	-0.258887	-1.032698
C144	C	-0.342842	-0.207190	-0.958684
C145	C	-0.437425	-0.254423	-0.957365
H146	H	-0.277941	-0.203550	-0.897775
H147	H	-0.361011	-0.245156	-1.020176
H148	H	-0.319534	-0.137835	-0.959054
H149	H	-0.460782	-0.323779	-0.956964
H150	H	-0.419203	-0.216391	-0.895879
H151	H	-0.531254	-0.032566	-1.265626
H152	H	-1.468905	-0.734402	-1.501423
O153	O	-0.482284	-0.515106	-0.741053
C154	C	-0.554197	-0.664536	-0.741336
C155	C	-0.459641	-0.568621	-0.694096
H156	H	-0.535918	-0.707833	-0.703401
H157	H	-0.619108	-0.668623	-0.744906
H158	H	-0.577552	-0.688168	-0.810720
H159	H	-0.436196	-0.544927	-0.624691
H160	H	-0.394790	-0.564589	-0.690597
O161	O	-0.482304	-0.741002	-0.967164
C162	C	-0.554276	-0.741287	-0.889705
C163	C	-0.459688	-0.694059	-0.891018
H164	H	-0.536018	-0.703364	-0.828138
H165	H	-0.619156	-0.744828	-0.950539
H166	H	-0.577661	-0.810679	-0.889441
H167	H	-0.436212	-0.624646	-0.891252
H168	H	-0.394867	-0.690589	-0.830189
H169	H	-0.767046	-0.734368	-1.501433
O170	O	-0.226078	-0.258954	-0.484877
C171	C	-0.148481	-0.258869	-0.335506
C172	C	-0.197079	-0.306046	-0.431441
H173	H	-0.125041	-0.296933	-0.292278
H174	H	-0.078722	-0.189497	-0.311711
H175	H	-0.205776	-0.255279	-0.331518
H176	H	-0.139861	-0.309701	-0.435503
H177	H	-0.266857	-0.375390	-0.455194
H178	H	-0.233050	-0.265571	-0.734425
O179	O	-0.773975	-0.258876	-0.741301
C180	C	-0.822991	-0.207099	-0.864375
C181	C	-0.774373	-0.254378	-0.817049
H182	H	-0.823310	-0.203430	-0.925616
H183	H	-0.904291	-0.245048	-0.884199
H184	H	-0.777296	-0.137754	-0.818300
H185	H	-0.819987	-0.323723	-0.863074
H186	H	-0.693065	-0.216362	-0.797210
O187	O	-1.226252	-0.741241	-1.258918
C188	C	-1.248456	-0.864292	-1.207122
C189	C	-1.297074	-0.816998	-1.254405
H190	H	-1.305687	-0.925540	-1.203442
H191	H	-1.224926	-0.884095	-1.245078
H192	H	-1.178726	-0.818207	-1.137778
H193	H	-1.366836	-0.863035	-1.323749
H194	H	-1.320532	-0.797181	-1.216382
H195	H	-0.767034	-0.734375	-1.265625
H196	H	-0.531225	-0.265603	-0.498616
O197	O	-0.774036	-0.515130	-0.741106
C198	C	-0.851726	-0.664554	-0.741365
C199	C	-0.803067	-0.568637	-0.694075
H200	H	-0.875192	-0.707839	-0.703350
H201	H	-0.921476	-0.688273	-0.810723
H202	H	-0.794459	-0.668547	-0.745003
H203	H	-0.860257	-0.564570	-0.690372
H204	H	-0.733299	-0.544961	-0.624744
O205	O	-1.226039	-0.484860	-1.258885
C206	C	-1.076876	-0.335435	-1.187167
C207	C	-1.125510	-0.431352	-1.234431
H208	H	-0.995585	-0.292150	-1.167366
H209	H	-1.122525	-0.311718	-1.233187
H210	H	-1.076500	-0.331442	-1.125896
H211	H	-1.125895	-0.435420	-1.295700
H212	H	-1.079847	-0.455028	-1.188351
H213	H	-0.233062	-0.498592	-0.967448
H214	H	-0.233059	0.032587	-0.734434
O215	O	-0.773925	-0.032583	-1.515083
C216	C	-0.823050	0.041430	-1.615883
C217	C	-0.774481	0.042690	-1.519996
H218	H	-0.823536	0.102272	-1.619889
H219	H	-0.777343	0.041152	-1.639571
H220	H	-0.904303	-0.020113	-1.659191
H221	H	-0.693234	0.104224	-1.476620
H222	H	-0.820264	0.042921	-1.496379
H223	H	-0.233041	0.032588	-0.498622
H224	H	-0.767049	-0.032551	-1.265635
H225	H	-0.233055	-0.734390	-0.967431
O226	O	-0.773931	-0.515016	-1.032631
C227	C	-0.822790	-0.615717	-0.958450
C228	C	-0.774270	-0.519853	-0.957250
H229	H	-0.823061	-0.619656	-0.897503
H230	H	-0.904101	-0.659124	-1.019906
H231	H	-0.777057	-0.639334	-0.958806
H232	H	-0.819922	-0.496156	-0.956863
H233	H	-0.692951	-0.476505	-0.895801
