data_functionalizedCrystal
_audit_creation_method	'MofGen! by Chris Wilmer'
_symmetry_space_group_name_H-M	'P1'
_symmetry_Int_Tables_number	1
_symmetry_cell_setting	triclinic
loop_
_symmetry_equiv_pos_as_xyz
  x,y,z
_cell_length_a	16.109301
_cell_length_b	9.482900
_cell_length_c	16.109301
_cell_angle_alpha	80.669681
_cell_angle_beta	83.461481
_cell_angle_gamma	99.284076
loop_
_atom_site_label
_atom_site_type_symbol
_atom_site_fract_x
_atom_site_fract_y
_atom_site_fract_z
O1	O	1.116084	0.120806	0.093855
O2	O	0.874025	0.120830	0.107152
O3	O	1.001702	0.120802	-0.020526
O4	O	0.988406	0.120833	0.221533
O5	O	0.975768	-0.120984	0.005513
O6	O	0.848090	-0.120957	0.133190
O7	O	1.090150	-0.120981	0.119894
Cu8	Cu	0.966752	-0.143046	0.128920
Cu9	Cu	0.997422	0.142895	0.098126
O10	O	0.962472	-0.120954	0.247571
C11	C	0.830083	-0.000061	0.119632
C12	C	0.737789	-0.000052	0.118016
N13	N	0.945186	-0.344162	0.150577
C14	C	0.515515	-0.000060	0.190025
C15	C	0.428794	-0.000069	0.188502
C16	C	0.448667	-0.000083	0.037014
C17	C	0.535386	-0.000084	0.038539
C18	C	0.568808	-0.000065	0.115046
C19	C	0.395368	-0.000073	0.111998
C20	C	0.301341	-0.000084	0.110346
C21	C	0.662841	-0.000057	0.116699
C22	C	0.991056	-0.416371	0.104510
C23	C	0.973119	-0.583784	0.122536
C24	C	1.134092	-0.000087	0.107413
C25	C	1.226387	-0.000086	0.109028
C26	C	0.988197	-0.000092	-0.038481
C27	C	0.986581	-0.000094	-0.130776
N28	N	1.018995	0.344011	0.076462
C29	C	1.058591	-0.000078	-0.353050
C30	C	1.057068	-0.000065	-0.439772
C31	C	0.905580	-0.000056	-0.419899
C32	C	0.907105	-0.000058	-0.333180
C33	C	0.983612	-0.000076	-0.299757
C34	C	0.980564	-0.000062	-0.473198
C35	C	0.978913	-0.000049	-0.567225
C36	C	0.985264	-0.000086	-0.205724
C37	C	0.975978	-0.000056	0.265527
C38	C	0.977595	-0.000045	0.357821
H39	H	0.542724	-0.000056	0.252323
C40	C	0.825734	-0.000281	-0.275189
C41	C	0.808856	-0.124653	-0.211417
C42	C	0.733916	-0.124890	-0.157975
H43	H	0.779873	-0.000354	-0.307398
H44	H	0.832216	0.083994	-0.249972
H45	H	0.802368	-0.208907	-0.236633
H46	H	0.854697	-0.124607	-0.179187
H47	H	0.740399	-0.040615	-0.132758
H48	H	0.688062	-0.124959	-0.190191
H49	H	0.722460	-0.209268	-0.114695
C50	C	0.412363	0.000213	-0.046055
C51	C	0.376519	0.124629	-0.064759
C52	C	0.343080	0.124965	-0.141283
H53	H	0.369857	-0.084002	-0.040815
H54	H	0.456509	0.000286	-0.090526
H55	H	0.332378	0.124542	-0.020300
H56	H	0.419008	0.208864	-0.070017
H57	H	0.387226	0.125038	-0.185754
H58	H	0.300578	0.040745	-0.136035
H59	H	0.318763	0.209386	-0.153988
H60	H	0.843290	-0.000045	-0.447122
C61	C	0.371080	0.000015	0.269990
C62	C	0.418919	0.000067	0.337309
C63	C	0.365784	0.000163	0.412389
H64	H	0.327782	-0.084279	0.281742
H65	H	0.345893	0.084364	0.263506
H66	H	0.444092	-0.084273	0.343793
H67	H	0.462215	0.084356	0.325585
H68	H	0.340597	0.084512	0.405905
H69	H	0.322488	-0.084133	0.424133
H70	H	0.398236	0.000211	0.458072
C71	C	1.061028	-0.333595	0.034014
C72	C	1.043417	-0.370455	-0.043691
C73	C	1.107854	-0.294205	-0.108647
H74	H	1.113947	-0.358376	0.045451
H75	H	1.063753	-0.232075	0.031216
H76	H	1.040701	-0.471953	-0.040892
H77	H	0.990509	-0.345671	-0.055155
H78	H	1.110579	-0.192684	-0.111445
H79	H	1.160769	-0.318991	-0.097201
H80	H	1.095910	-0.319193	-0.161378
C81	C	1.138481	0.000231	-0.497704
C82	C	1.155388	0.124649	-0.561444
C83	C	1.230388	0.124985	-0.614819
H84	H	1.132086	-0.083983	-0.522963
H85	H	1.184293	0.000300	-0.465413
H86	H	1.109587	0.124567	-0.593731
H87	H	1.161800	0.208883	-0.536210
H88	H	1.276200	0.125055	-0.582528
H89	H	1.223985	0.040767	-0.640072
H90	H	1.241873	0.209408	-0.658068
H91	H	0.578779	-0.000092	-0.022520
C92	C	0.902917	-0.666518	0.192820
C93	C	0.825093	-0.629648	0.175580
C94	C	0.760404	-0.705849	0.240298
H95	H	0.914618	-0.641703	0.245648
H96	H	0.900116	-0.768046	0.195577
H97	H	0.827895	-0.528143	0.172832
H98	H	0.813365	-0.654466	0.122764
H99	H	0.757604	-0.807377	0.243056
H100	H	0.772113	-0.681028	0.293122
H101	H	0.707592	-0.680854	0.228606
H102	H	0.892634	-0.406280	0.203360
C103	C	1.088946	-0.573437	0.005878
C104	C	1.071188	-0.610557	-0.071728
C105	C	1.135590	-0.534604	-0.136800
H106	H	1.141857	-0.598286	0.017289
H107	H	1.091756	-0.471874	0.002960
H108	H	1.068386	-0.712097	-0.068809
H109	H	1.018288	-0.585704	-0.083166
H110	H	1.138401	-0.433041	-0.139718
H111	H	1.188498	-0.559459	-0.125381
H112	H	1.123547	-0.559769	-0.189464
C113	C	1.141747	-0.000002	-0.316933
C114	C	1.207088	0.000043	-0.382176
C115	C	1.283709	0.000140	-0.348943
H116	H	1.136576	-0.084294	-0.274456
H117	H	1.154578	0.084350	-0.292622
H118	H	1.194260	-0.084300	-0.406474
H119	H	1.212287	0.084329	-0.424658
H120	H	1.296539	0.084491	-0.324632
H121	H	1.278528	-0.084154	-0.306466
H122	H	1.328053	0.000183	-0.393205
