data_functionalizedCrystal
_audit_creation_method	'MofGen! by Chris Wilmer'
_symmetry_space_group_name_H-M	'P1'
_symmetry_Int_Tables_number	1
_symmetry_cell_setting	triclinic
loop_
_symmetry_equiv_pos_as_xyz
  x,y,z
_cell_length_a	10.654550
_cell_length_b	14.044220
_cell_length_c	9.730223
_cell_angle_alpha	89.997406
_cell_angle_beta	89.996251
_cell_angle_gamma	88.836890
loop_
_atom_site_label
_atom_site_type_symbol
_atom_site_fract_x
_atom_site_fract_y
_atom_site_fract_z
O1	O	1.681222	0.133227	-0.114408
O2	O	1.317019	0.145921	-0.114387
O3	O	1.493654	0.001554	-0.114384
O4	O	1.504587	0.277595	-0.114411
O5	O	1.493652	0.001557	0.114196
O6	O	1.317017	0.145925	0.114193
O7	O	1.681220	0.133231	0.114172
Zn8	Zn	1.499118	0.139578	0.150474
Zn9	Zn	1.499121	0.139574	-0.150689
O10	O	1.504585	0.277598	0.114169
C11	C	1.270127	0.144991	-0.000094
C12	C	1.130403	0.142202	-0.000085
C13	C	1.059459	0.227203	-0.000114
C14	C	0.928175	0.224578	-0.000137
C15	C	0.938790	0.051942	-0.000109
C16	C	1.070072	0.054569	-0.000076
C17	C	1.119790	0.314837	-0.000123
C18	C	1.048846	0.399845	-0.000153
C19	C	0.917561	0.397219	-0.000177
C20	C	0.857221	0.309585	-0.000170
C21	C	1.488867	-0.033790	-0.000093
C22	C	1.474592	-0.139110	-0.000090
C23	C	1.448493	-0.331943	-0.000108
C24	C	1.549741	-0.388911	-0.000119
C25	C	1.535219	-0.496210	-0.000129
C26	C	1.463013	-0.224634	-0.000098
C27	C	1.728113	0.134161	-0.000124
C28	C	1.867836	0.136950	-0.000142
C29	C	1.509372	0.312942	-0.000125
C30	C	1.523648	0.418262	-0.000137
N31	N	1.499126	0.139581	0.356011
N32	N	1.499123	0.139563	-0.356226
C33	C	1.577364	0.075677	0.427938
C34	C	1.577359	0.075666	0.571821
C35	C	1.420876	0.203470	0.571837
C36	C	1.420875	0.203477	0.427956
C37	C	1.655615	0.011782	0.355993
C38	C	1.733861	-0.052127	0.427920
C39	C	1.733856	-0.052138	0.571803
C40	C	1.655606	0.011759	0.643759
H41	H	1.127836	-0.014647	-0.000056
O42	O	1.332143	-0.369999	-0.000279
C43	C	1.317712	-0.426603	-0.118680
H44	H	1.414053	-0.450467	-0.158168
H45	H	1.260510	-0.491800	-0.092048
H46	H	1.266906	-0.383315	-0.201565
H47	H	0.750320	0.307454	-0.000168
O48	O	1.666073	-0.350810	-0.000051
C49	C	1.654868	-0.250605	-0.000073
H50	H	1.559347	-0.228136	0.043199
H51	H	1.732202	-0.219650	0.066298
H52	H	1.663996	-0.223002	-0.109731
O53	O	1.655733	0.011636	0.216227
C54	C	1.741598	-0.058443	0.168145
H55	H	1.757198	-0.114803	0.251053
H56	H	1.702333	-0.093246	0.071885
H57	H	1.834693	-0.023947	0.142617
O58	O	1.809724	-0.114343	0.358118
C59	C	1.778779	-0.208380	0.393333
H60	H	1.678100	-0.209533	0.432870
H61	H	1.787914	-0.255900	0.298731
H62	H	1.845297	-0.235747	0.476870
O63	O	1.344810	0.265410	0.641883
C64	C	1.261575	0.214059	0.725092
H65	H	1.303320	0.140180	0.746637
H66	H	1.246132	0.253507	0.826274
H67	H	1.167968	0.206966	0.669654
O68	O	1.809671	-0.114313	0.641737
C69	C	1.735823	-0.173303	0.724988
H70	H	1.636534	-0.175602	0.681635
H71	H	1.778665	-0.248338	0.726611
H72	H	1.732557	-0.143670	0.834036
O73	O	1.344844	0.265646	0.358290
C74	C	1.275764	0.322031	0.452640
H75	H	1.327406	0.323464	0.555202
H76	H	1.265071	0.397653	0.411066
H77	H	1.178957	0.290574	0.467947
H78	H	0.889650	-0.019405	-0.000126
O79	O	1.247311	0.317511	-0.000281
C80	C	1.288286	0.365704	-0.118687
H81	H	1.209540	0.414588	-0.158181
H82	H	1.373500	0.409898	-0.092058
H83	H	1.314951	0.311599	-0.201566
O84	O	1.107311	0.485026	-0.000339
C85	C	1.072050	0.536880	-0.118753
H86	H	0.978248	0.510426	-0.158234
H87	H	1.062695	0.615755	-0.092140
H88	H	1.146691	0.526391	-0.201635
O89	O	0.848511	0.479728	-0.000386
C90	C	0.772308	0.483377	-0.118805
H91	H	0.757254	0.408038	-0.158259
H92	H	0.677739	0.518068	-0.092210
H93	H	0.820308	0.526977	-0.201701
H94	H	1.655600	0.011737	0.760918
