data_functionalizedCrystal
_audit_creation_method	'MofGen! by Chris Wilmer'
_symmetry_space_group_name_H-M	'P1'
_symmetry_Int_Tables_number	1
_symmetry_cell_setting	triclinic
loop_
_symmetry_equiv_pos_as_xyz
  x,y,z
_cell_length_a	27.732048
_cell_length_b	13.448316
_cell_length_c	14.971486
_cell_angle_alpha	89.993189
_cell_angle_beta	83.128392
_cell_angle_gamma	89.998727
loop_
_atom_site_label
_atom_site_type_symbol
_atom_site_fract_x
_atom_site_fract_y
_atom_site_fract_z
O1	O	0.641420	-0.082564	0.106429
O2	O	0.500701	-0.082595	0.122612
O3	O	0.574832	-0.082572	-0.015739
O4	O	0.567289	-0.082587	0.244780
O5	O	0.574823	0.082812	-0.015747
O6	O	0.500692	0.082789	0.122604
O7	O	0.641410	0.082819	0.106421
Cu8	Cu	0.571050	0.097905	0.114512
Cu9	Cu	0.571061	-0.097680	0.114521
O10	O	0.567279	0.082796	0.244772
C11	C	0.482688	0.000094	0.122268
C12	C	0.429028	0.000082	0.121245
C13	C	0.574490	0.000120	-0.049063
C14	C	0.573479	0.000119	-0.148344
N15	N	0.571046	0.235469	0.114504
C16	C	0.090561	0.000121	0.196562
C17	C	-0.111116	0.000130	0.192767
O18	O	-0.142054	0.000169	0.261639
N19	N	-0.130619	0.000133	0.110731
C20	C	-0.099698	0.000140	0.029637
O21	O	-0.120914	0.000154	-0.040227
C22	C	0.101978	0.000138	0.033433
C23	C	0.121477	0.000125	0.115475
C24	C	0.110061	0.000109	0.278597
C25	C	0.160477	0.000101	0.279545
C26	C	0.191393	0.000105	0.198458
C27	C	0.171893	0.000117	0.116423
C28	C	0.132897	0.000153	-0.047659
C29	C	0.183319	0.000155	-0.046703
C30	C	0.202818	0.000142	0.035339
C31	C	0.253226	0.000114	0.036284
N32	N	0.272729	0.000111	0.118320
C33	C	0.241812	0.000107	0.199407
C34	C	-0.205582	0.000140	0.027650
C35	C	-0.256000	0.000138	0.026701
C36	C	-0.267415	0.000129	0.189831
C37	C	-0.216995	0.000124	0.190779
C38	C	-0.186079	0.000136	0.109686
C39	C	0.347690	0.000090	0.201392
C40	C	0.398112	0.000078	0.202332
C41	C	0.409522	0.000092	0.039203
C42	C	0.359105	0.000098	0.038261
C43	C	0.328190	0.000101	0.119363
O44	O	0.284193	0.000087	-0.032551
O45	O	0.263037	0.000115	0.269261
C46	C	0.040144	0.000128	0.195614
C47	C	0.020645	0.000141	0.113579
C48	C	0.051561	0.000145	0.032492
C49	C	-0.029774	0.000139	0.112630
C50	C	-0.060691	0.000135	0.193717
C51	C	-0.041188	0.000132	0.275753
C52	C	0.009228	0.000124	0.276701
C53	C	0.032059	0.000148	-0.049544
C54	C	-0.018358	0.000155	-0.050486
C55	C	-0.049275	0.000150	0.030602
C56	C	0.659424	0.000129	0.106765
C57	C	0.713083	0.000134	0.107788
N58	N	0.571069	-0.235245	0.114522
C59	C	0.603881	0.287520	0.053267
C60	C	0.603884	0.391623	0.053266
C61	C	0.571054	0.443674	0.114507
C62	C	0.538215	0.391616	0.175747
C63	C	0.538210	0.287515	0.175743
C64	C	0.538228	0.608596	0.175753
C65	C	0.538234	0.712705	0.175759
C66	C	0.603903	0.712705	0.053276
C67	C	0.603898	0.608603	0.053272
C68	C	0.571059	0.556553	0.114513
C69	C	0.617029	0.000129	-0.206257
C70	C	0.616076	0.000119	-0.299542
C71	C	0.571573	0.000105	-0.334911
C72	C	0.528020	0.000092	-0.276990
C73	C	0.528973	0.000096	-0.183707
C74	C	0.526036	0.000088	-0.471421
C75	C	0.525082	0.000087	-0.564710
C76	C	0.613139	0.000111	-0.587255
C77	C	0.614092	0.000115	-0.493973
C78	C	0.570539	0.000103	-0.436058
C79	C	0.567621	0.000103	0.278096
C80	C	0.568632	0.000097	0.377377
H81	H	0.413985	0.000066	0.269143
H82	H	0.630621	0.434002	0.003402
N83	N	0.660114	0.000120	-0.649719
H84	H	0.679535	-0.061177	-0.638404
H85	H	0.679483	0.061479	-0.638392
H86	H	0.630641	0.755090	0.003412
N87	N	0.663049	0.000138	-0.362002
H88	H	0.664609	0.061443	-0.401216
H89	H	0.664595	-0.061213	-0.401141
N90	N	0.477084	0.000065	-0.602862
H91	H	0.449637	0.000049	-0.552020
H92	H	0.474782	-0.061248	-0.641069
N93	N	-0.300754	0.000142	0.277304
H94	H	-0.321932	-0.061160	0.280572
H95	H	-0.321892	0.061497	0.280482
H96	H	0.650331	0.000132	-0.465179
H97	H	0.117030	0.000165	-0.114466
H98	H	0.084893	0.000108	0.344632
H99	H	0.511499	0.755079	0.225627
N100	N	0.479065	0.000081	-0.408942
H101	H	0.459650	-0.061228	-0.420231
H102	H	0.459688	0.061428	-0.420280
H103	H	0.511486	0.566220	0.225620
H104	H	0.322525	0.000095	0.267432
H105	H	0.653269	0.000146	-0.177468
H106	H	-0.066370	0.000124	0.341777
N107	N	0.480017	0.000078	-0.315128
H108	H	0.477662	-0.061230	-0.353323
H109	H	0.477684	0.061427	-0.353288
N110	N	0.216661	0.000173	-0.134173
H111	H	0.210380	-0.061129	-0.169996
H112	H	0.251547	0.000207	-0.121058
N113	N	-0.277032	0.000141	-0.061783
H114	H	-0.265760	-0.061163	-0.097275
H115	H	-0.265755	0.061494	-0.097204
H116	H	0.511481	0.434002	0.225608
N117	N	0.442871	0.000108	-0.048253
H118	H	0.436597	-0.061192	-0.084084
H119	H	0.477755	0.000146	-0.035123
N120	N	0.181505	0.000082	0.368033
H121	H	0.154263	0.000079	0.419250
H122	H	0.202175	0.061388	0.371986
N123	N	0.502792	0.231377	0.241791
H124	H	0.508392	0.249476	0.305205
H125	H	0.507785	0.157549	0.232417
N126	N	-0.195965	0.000106	0.279265
H127	H	-0.223206	0.000099	0.330485
H128	H	-0.175297	0.061416	0.283217
N129	N	-0.172239	0.000158	-0.059820
H130	H	-0.192250	0.000159	-0.111926
H131	H	-0.151070	-0.061150	-0.062984
N132	N	0.482004	0.000105	-0.121231
H133	H	0.480439	-0.061199	-0.082015
H134	H	0.453691	0.000141	-0.157845
N135	N	0.338070	0.000094	-0.050223
H136	H	0.365308	0.000090	-0.101447
H137	H	0.317403	0.061410	-0.054175
H138	H	0.025099	0.000115	0.343508
H139	H	-0.034229	0.000158	-0.117299
N140	N	0.065401	0.000160	-0.137007
H141	H	0.045391	0.000165	-0.189114
H142	H	0.086567	-0.061152	-0.140170
N143	N	0.639295	0.231383	-0.012781
H144	H	0.660095	0.280158	-0.051575
H145	H	0.620768	0.188202	-0.052091
N146	N	0.639310	0.552459	-0.012773
H147	H	0.660113	0.601227	-0.051569
H148	H	0.620781	0.509278	-0.052080
