data_functionalizedCrystal
_audit_creation_method	'MofGen! by Chris Wilmer'
_symmetry_space_group_name_H-M	'P1'
_symmetry_Int_Tables_number	1
_symmetry_cell_setting	triclinic
loop_
_symmetry_equiv_pos_as_xyz
  x,y,z
_cell_length_a	27.732048
_cell_length_b	16.974800
_cell_length_c	26.809956
_cell_angle_alpha	93.647996
_cell_angle_beta	89.987926
_cell_angle_gamma	96.983408
loop_
_atom_site_label
_atom_site_type_symbol
_atom_site_fract_x
_atom_site_fract_y
_atom_site_fract_z
O1	O	-0.061573	1.048396	0.000866
O2	O	-0.069426	0.818095	-0.008434
O3	O	0.004870	0.940398	-0.003502
O4	O	-0.135868	0.926093	-0.004066
O5	O	0.004858	0.940375	0.079457
O6	O	-0.069437	0.818072	0.074524
O7	O	-0.061584	1.048373	0.083824
Zn8	Zn	-0.065512	0.933219	0.092346
Zn9	Zn	-0.065497	0.933249	-0.016955
O10	O	-0.135880	0.926070	0.078892
C11	C	-0.069134	0.788628	0.031856
C12	C	-0.068241	0.700863	0.028311
C13	C	-0.067826	0.659623	0.071867
C14	C	-0.066980	0.577160	0.068538
C15	C	-0.066551	0.535937	0.021652
C16	C	-0.066964	0.577184	-0.021907
C17	C	-0.067807	0.659646	-0.018578
C18	C	-0.064025	0.289313	0.006845
C19	C	-0.063183	0.206845	0.003519
C20	C	-0.063198	0.206827	0.093965
C21	C	-0.064044	0.289290	0.097290
C22	C	-0.064455	0.330529	0.053731
N23	N	-0.065687	0.451647	0.018248
N24	N	-0.065315	0.414820	0.057135
C25	C	-0.153882	0.926381	0.037427
C26	C	-0.207540	0.927286	0.037468
C27	C	-0.546097	0.860705	0.034755
C28	C	-0.747770	0.864060	0.034885
O29	O	-0.778790	0.803176	0.032405
N30	N	-0.767175	0.936581	0.037814
C31	C	-0.736158	1.008268	0.040708
O32	O	-0.757290	1.070028	0.043197
C33	C	-0.534486	1.004912	0.040575
C34	C	-0.515085	0.932387	0.037651
C35	C	-0.526695	0.788185	0.031831
C36	C	-0.476280	0.787347	0.031801
C37	C	-0.445267	0.859029	0.034696
C38	C	-0.464669	0.931549	0.037621
C39	C	-0.503470	1.076598	0.043465
C40	C	-0.453050	1.075753	0.043430
C41	C	-0.433648	1.003228	0.040506
C42	C	-0.383241	1.002392	0.040486
N43	N	-0.363836	0.929871	0.037557
C44	C	-0.394849	0.858190	0.034662
C45	C	-0.842039	1.010024	0.040779
C46	C	-0.892456	1.010864	0.040813
C47	C	-0.904065	0.866655	0.034989
C48	C	-0.853647	0.865817	0.034958
C49	C	-0.822634	0.937504	0.037850
C50	C	-0.288973	0.856435	0.034600
C51	C	-0.238553	0.855604	0.034573
C52	C	-0.226949	0.999812	0.040395
C53	C	-0.277365	1.000644	0.040425
C54	C	-0.308376	0.928949	0.037526
O55	O	-0.352193	1.063243	0.042960
O56	O	-0.373708	0.796438	0.032162
C57	C	-0.596513	0.861543	0.034785
C58	C	-0.615915	0.934062	0.037710
C59	C	-0.584902	1.005744	0.040605
C60	C	-0.666333	0.934902	0.037744
C61	C	-0.697345	0.863220	0.034849
C62	C	-0.677941	0.790699	0.031920
C63	C	-0.627526	0.789861	0.031890
C64	C	-0.604307	1.078265	0.043534
C65	C	-0.654722	1.079097	0.043564
C66	C	-0.685735	1.007415	0.040669
C67	C	0.022872	0.940086	0.037963
C68	C	0.076531	0.939182	0.037918
C69	C	-0.061876	1.077839	0.043534
C70	C	-0.062769	1.165604	0.047075
N71	N	-0.065522	0.933204	0.166941
N72	N	-0.065484	0.933270	-0.091550
C73	C	-0.032607	0.987398	0.513753
C74	C	-0.032600	0.987417	0.722631
O75	O	-0.004618	1.033462	0.751492
N76	N	-0.065487	0.933253	0.746570
C77	C	-0.098375	0.879078	0.718286
O78	O	-0.126344	0.833004	0.743440
C79	C	-0.098380	0.879056	0.509409
C80	C	-0.065495	0.933228	0.485473
C81	C	0.000276	1.041565	0.489817
C82	C	0.000272	1.041563	0.437600
C83	C	-0.032615	0.987393	0.409320
C84	C	-0.065499	0.933226	0.433256
C85	C	-0.131266	0.824878	0.481125
C86	C	-0.131264	0.824876	0.428903
C87	C	-0.098378	0.879048	0.404967
C88	C	-0.098390	0.879054	0.352760
N89	N	-0.065503	0.933217	0.328821
C90	C	-0.032616	0.987387	0.357101
C91	C	-0.098371	0.879094	0.827950
C92	C	-0.098371	0.879101	0.880169
C93	C	-0.032595	0.987439	0.884511
C94	C	-0.032598	0.987435	0.832291
C95	C	-0.065485	0.933258	0.804011
C96	C	-0.032627	0.987378	0.247442
C97	C	-0.032635	0.987373	0.195221
C98	C	-0.098409	0.879033	0.190884
C99	C	-0.098403	0.879040	0.243101
C100	C	-0.065508	0.933216	0.271379
O101	O	-0.126354	0.833026	0.323867
O102	O	-0.004644	1.033443	0.331937
C103	C	-0.032604	0.987400	0.565969
C104	C	-0.065487	0.933233	0.589905
C105	C	-0.098374	0.879063	0.561625
C106	C	-0.065486	0.933239	0.642125
C107	C	-0.032599	0.987409	0.670405
C108	C	0.000288	1.041572	0.646466
C109	C	0.000284	1.041570	0.594249
C110	C	-0.131261	0.824900	0.585564
C111	C	-0.131254	0.824907	0.637781
C112	C	-0.098367	0.879077	0.666061
H113	H	-0.314218	0.798055	0.032240
O114	O	-0.708092	0.721087	0.029019
C115	C	-0.737597	0.717292	-0.014096
H116	H	-0.719096	0.757962	-0.042481
H117	H	-0.743306	0.653536	-0.031096
H118	H	-0.774248	0.737305	-0.003577
O119	O	-0.066567	0.537016	-0.067414
C120	C	-0.065723	0.455391	-0.061014
H121	H	-0.080910	0.440656	-0.022742
H122	H	-0.088855	0.418750	-0.091373
H123	H	-0.026724	0.440762	-0.063751
O124	O	0.032347	1.094101	0.414441
C125	C	0.080143	1.081713	0.426807
H126	H	0.080272	1.018370	0.438564
H127	H	0.104492	1.091133	0.392905
H128	H	0.094316	1.125617	0.458950
H129	H	-0.460488	0.728290	0.029415
H130	H	0.027059	1.085676	0.512838
H131	H	-0.064391	0.322848	0.135470
O132	O	-0.130253	0.826451	0.903472
C133	C	-0.104383	0.777979	0.931710
H134	H	-0.066549	0.809936	0.940815
H135	H	-0.124564	0.765219	0.967919
H136	H	-0.101115	0.719586	0.909231
O137	O	-0.130306	0.826443	0.163332
C138	C	-0.123259	0.838073	0.112111
H139	H	-0.084821	0.868106	0.106184
H140	H	-0.128650	0.778131	0.089850
H141	H	-0.150609	0.877385	0.098880
O142	O	-0.934265	0.797095	0.032154
C143	C	-0.982923	0.813397	0.032823
H144	H	-0.984809	0.875488	0.019631
H145	H	-1.005789	0.767686	0.006886
H146	H	-0.997518	0.810198	0.072493
O147	O	-0.163257	0.772249	0.558173
C148	C	-0.192271	0.724436	0.590505
H149	H	-0.192796	0.756853	0.629033
H150	H	-0.230881	0.711901	0.574930
H151	H	-0.176597	0.665893	0.593697
O152	O	0.032278	1.094220	0.571080
C153	C	0.061294	1.142038	0.607248
H154	H	0.061825	1.109624	0.643164
H155	H	0.099902	1.154576	0.592661
H156	H	0.045618	1.200580	0.615164
O157	O	-0.066637	0.536993	0.110811
C158	C	-0.107994	0.479827	0.111219
H159	H	-0.121815	0.464328	0.071332
H160	H	-0.097987	0.423965	0.128098
H161	H	-0.137623	0.504960	0.134558
H162	H	-0.125153	0.834975	0.804928
O163	O	-0.834882	0.795297	0.032088
C164	C	-0.873072	0.732214	0.029555
H165	H	-0.907305	0.753962	0.014729
H166	H	-0.862565	0.681548	0.003422
H167	H	-0.880227	0.710122	0.068462
H168	H	-0.068146	0.693223	-0.054046
H169	H	-0.068179	0.693179	0.110047
H170	H	-0.158044	0.780755	0.405880
O171	O	-0.911220	1.081385	0.043640
C172	C	-0.873030	1.144467	0.046199
H173	H	-0.838791	1.122728	0.029617
H174	H	-0.883527	1.195146	0.024159
H175	H	-0.865891	1.166538	0.086890
H176	H	-0.611734	0.730803	0.029509
O177	O	0.032283	1.094083	0.673961
C178	C	0.062077	1.052096	0.702477
H179	H	0.062871	0.989755	0.684223
H180	H	0.100510	1.084823	0.704384
H181	H	0.046945	1.047760	0.741880
H182	H	-0.222759	0.796542	0.032194
H183	H	-0.551941	0.729810	0.029471
O184	O	-0.062708	0.166751	0.136262
C185	C	-0.020384	0.128507	0.137415
H186	H	0.008610	0.159983	0.113018
H187	H	-0.006333	0.130744	0.177500
H188	H	-0.029203	0.063871	0.122658
O189	O	-0.000572	1.039976	0.809075
C190	C	0.047263	1.027699	0.821367
H191	H	0.047460	0.964391	0.833163
H192	H	0.071546	1.037097	0.787414
H193	H	0.061464	1.071679	0.853460
O194	O	-0.163229	0.772176	0.504288
C195	C	-0.192257	0.724381	0.468120
H196	H	-0.172436	0.723742	0.430868
H197	H	-0.199650	0.661145	0.480657
H198	H	-0.228159	0.749606	0.463589
O199	O	-0.130365	0.826342	0.266275
C200	C	-0.159401	0.778545	0.230114
H201	H	-0.139589	0.777907	0.192857
H202	H	-0.166789	0.715309	0.242652
H203	H	-0.195305	0.803768	0.225593
O204	O	-0.062750	0.166926	-0.042069
C205	C	-0.063307	0.221003	-0.079802
H206	H	-0.048609	0.283244	-0.064038
H207	H	-0.039608	0.202484	-0.112181
H208	H	-0.102155	0.221011	-0.093701
H209	H	-0.005817	1.031547	0.907545
H210	H	-0.158038	0.780795	0.657266
H211	H	-0.519258	1.135656	0.045846
O212	O	-0.422974	1.145443	0.046176
C213	C	-0.431744	1.189510	0.004981
H214	H	-0.469996	1.169616	-0.010148
H215	H	-0.428163	1.255498	0.017306
H216	H	-0.404163	1.179052	-0.025525
H217	H	-0.064358	0.322881	-0.028624
H218	H	-0.816792	1.068404	0.043134
H219	H	-0.293162	1.059700	0.042813
H220	H	-0.201689	1.058173	0.042754
H221	H	-0.670514	1.138160	0.045950
H222	H	-0.579060	1.136638	0.045891
H223	H	-0.005856	1.031489	0.175735
O224	O	-0.000654	1.040079	0.274832
C225	C	0.028373	1.087868	0.242499
H226	H	0.008548	1.088508	0.205309
H227	H	0.035772	1.151104	0.260126
H228	H	0.064272	1.062635	0.235915
