data_functionalizedCrystal
_audit_creation_method	'MofGen! by Chris Wilmer'
_symmetry_space_group_name_H-M	'P1'
_symmetry_Int_Tables_number	1
_symmetry_cell_setting	triclinic
loop_
_symmetry_equiv_pos_as_xyz
  x,y,z
_cell_length_a	6.817900
_cell_length_b	9.109307
_cell_length_c	16.015572
_cell_angle_alpha	83.168971
_cell_angle_beta	104.485554
_cell_angle_gamma	111.764999
loop_
_atom_site_label
_atom_site_type_symbol
_atom_site_fract_x
_atom_site_fract_y
_atom_site_fract_z
V1	V	-4.006507	-0.062931	-0.274060
O2	O	-3.941818	0.160401	-0.252370
O3	O	-4.008741	-0.276141	-0.288028
O4	O	-3.926198	0.007091	-0.386359
O5	O	-4.024932	-0.124792	-0.153359
V6	V	-4.487709	-0.044377	-0.257698
O7	O	-4.272858	-0.103630	-0.309950
O8	O	-4.671556	-0.003678	-0.221808
O9	O	-4.262269	0.168833	-0.243730
O10	O	-4.669796	-0.267709	-0.279388
O11	O	-4.586682	0.017484	-0.378399
O12	O	-4.344812	-0.114400	-0.145399
C13	C	-3.867091	-0.330274	-0.287793
C14	C	-3.949991	-0.504132	-0.299963
C15	C	-3.761799	0.031018	-0.413222
C16	C	-3.777756	0.086858	-0.505131
C17	C	-4.184095	-0.408779	-0.919519
C18	C	-4.199081	-0.356258	-1.005873
C19	C	-4.057563	-0.084532	-0.961016
C20	C	-4.042554	-0.137030	-0.874656
C21	C	-4.105826	-0.299155	-0.853915
C22	C	-3.964286	-0.027406	-0.809052
C23	C	-3.949290	-0.079901	-0.722699
C24	C	-4.012561	-0.242020	-0.701951
C25	C	-4.090830	-0.351650	-0.767562
C26	C	-3.901030	0.134718	-0.829794
C27	C	-3.822761	0.244342	-0.764190
C28	C	-3.807749	0.191848	-0.677836
C29	C	-3.871021	0.029729	-0.657087
C30	C	-3.729481	0.301478	-0.612224
C31	C	-3.714484	0.248983	-0.525872
C32	C	-3.856024	-0.022766	-0.570735
C33	C	-4.067263	0.222957	-0.243963
C34	C	-3.963600	0.396815	-0.231799
C35	C	-4.172555	-0.138334	-0.118532
C36	C	-4.135835	-0.194166	-0.026622
H37	H	-3.911879	-0.554989	-0.164114
H38	H	-4.235590	-0.540797	-0.902631
H39	H	-4.262811	-0.445539	-1.059289
Cl40	Cl	-4.029879	-0.578541	-0.404473
H41	H	-3.907519	-0.154783	-0.553847
Cl42	Cl	-3.993715	-0.308018	-0.593392
Cl43	Cl	-4.170325	-0.555468	-0.741480
H44	H	-4.006060	0.047471	-0.977916
Cl45	Cl	-3.919901	0.200711	-0.938354
Cl46	Cl	-3.743226	0.448149	-0.790274
H47	H	-3.677991	0.433481	-0.629126
H48	H	-3.650752	0.338250	-0.472454
