data_functionalizedCrystal
_audit_creation_method	'MofGen! by Chris Wilmer'
_symmetry_space_group_name_H-M	'P1'
_symmetry_Int_Tables_number	1
_symmetry_cell_setting	triclinic
loop_
_symmetry_equiv_pos_as_xyz
  x,y,z
_cell_length_a	12.827893
_cell_length_b	17.640280
_cell_length_c	12.827885
_cell_angle_alpha	101.230744
_cell_angle_beta	90.019272
_cell_angle_gamma	78.800662
loop_
_atom_site_label
_atom_site_type_symbol
_atom_site_fract_x
_atom_site_fract_y
_atom_site_fract_z
Zn1	Zn	1.681787	-0.314632	0.506827
Zn2	Zn	1.717023	-0.446826	0.296785
Zn3	Zn	1.507038	-0.314670	0.332090
Zn4	Zn	1.542340	-0.446767	0.471501
O5	O	1.612047	-0.380724	0.401801
O6	O	1.832699	-0.332176	0.478973
O7	O	1.689141	-0.429336	0.155221
O8	O	1.500699	-0.204058	0.384829
O9	O	1.858587	-0.429298	0.324656
O10	O	1.629086	-0.204030	0.513207
O11	O	1.534866	-0.332242	0.181160
O12	O	1.365483	-0.332185	0.350575
O13	O	1.560865	-0.429198	0.622434
O14	O	1.391419	-0.429235	0.452999
O15	O	1.663316	-0.332119	0.648388
O16	O	1.723371	-0.557424	0.290402
O17	O	1.595032	-0.557381	0.418765
C18	C	1.340533	-0.380708	0.401785
C19	C	1.224383	-0.380721	0.401798
C20	C	1.185480	-0.428820	0.452363
C21	C	1.065433	-0.428834	0.452377
C22	C	1.666884	-0.586082	0.346942
C23	C	1.690439	-0.673935	0.323508
C24	C	1.433529	-0.962898	0.580206
C25	C	1.455665	-1.045449	0.558153
C26	C	1.589387	-1.045429	0.424624
C27	C	1.567266	-0.962876	0.446669
C28	C	1.489335	-0.921617	0.524461
C29	C	1.623072	-0.921595	0.390924
C30	C	1.600949	-0.839049	0.412964
C31	C	1.523019	-0.797784	0.490750
C32	C	1.467212	-0.839071	0.546501
C33	C	1.700998	-0.962855	0.313128
C34	C	1.756804	-0.921574	0.257382
C35	C	1.734686	-0.839027	0.279427
C36	C	1.656757	-0.797762	0.357213
C37	C	1.790494	-0.797740	0.223676
C38	C	1.768370	-0.715194	0.245716
C39	C	1.634633	-0.715216	0.379253
C40	C	1.884621	-0.380739	0.401817
C41	C	2.000776	-0.380746	0.401824
C42	C	1.612098	-0.380648	0.674391
C43	C	1.612119	-0.380615	0.790553
C44	C	1.557024	-0.174563	0.456897
C45	C	1.533576	-0.086710	0.480375
C46	C	1.612041	-0.380742	0.130286
C47	C	1.612162	-0.380552	0.014184
C48	C	1.662820	-0.332568	0.855183
C49	C	1.662843	-0.332534	0.975243
H50	H	1.241047	-0.469986	0.495647
Cl51	Cl	1.385487	-1.097343	0.628230
Cl52	Cl	1.728847	-1.066629	0.285458
H53	H	1.031929	-0.470015	0.495664
H54	H	1.034275	-0.339568	0.358527
Cl55	Cl	1.838517	-0.663294	0.175626
H56	H	1.706204	-0.291456	0.821633
Cl57	Cl	1.545147	-0.444071	0.928458
Cl58	Cl	1.138598	-0.317152	0.334981
H59	H	1.706254	-0.291401	1.030773
Cl60	Cl	1.545119	-0.444084	0.842345
Cl61	Cl	1.536671	-0.663341	0.477060
H62	H	1.403760	-0.805476	0.609854
Cl63	Cl	1.495445	-0.694011	0.518700
H64	H	1.370077	-0.929303	0.643559
Cl65	Cl	1.687356	-1.097305	0.326836
Cl66	Cl	1.854773	-0.973450	0.159594
H67	H	1.853937	-0.831345	0.160332
