data_functionalizedCrystal
_audit_creation_method	'MofGen! by Chris Wilmer'
_symmetry_space_group_name_H-M	'P1'
_symmetry_Int_Tables_number	1
_symmetry_cell_setting	triclinic
loop_
_symmetry_equiv_pos_as_xyz
  x,y,z
_cell_length_a	25.639243
_cell_length_b	25.639239
_cell_length_c	19.077271
_cell_angle_alpha	87.716553
_cell_angle_beta	87.711112
_cell_angle_gamma	90.041410
loop_
_atom_site_label
_atom_site_type_symbol
_atom_site_fract_x
_atom_site_fract_y
_atom_site_fract_z
Zn1	Zn	0.787307	-0.220080	0.397986
Zn2	Zn	0.790755	-0.303979	0.280288
Zn3	Zn	0.703408	-0.216564	0.280300
Zn4	Zn	0.699830	-0.307489	0.397937
O5	O	0.745325	-0.262028	0.339128
O6	O	0.860929	-0.231212	0.382388
O7	O	0.782109	-0.289442	0.181801
O8	O	0.714591	-0.143866	0.295937
O9	O	0.863463	-0.292852	0.295916
O10	O	0.776232	-0.146449	0.382400
O11	O	0.717935	-0.225219	0.181810
O12	O	0.629768	-0.228623	0.295890
O13	O	0.708494	-0.298835	0.496432
O14	O	0.627140	-0.295425	0.382317
O15	O	0.772763	-0.234616	0.496468
O16	O	0.778640	-0.377609	0.295869
O17	O	0.711837	-0.380188	0.382305
C18	C	0.609483	-0.262024	0.339100
C19	C	0.551369	-0.262035	0.339105
C20	C	0.189679	-0.229987	0.384229
C21	C	0.135074	-0.229987	0.384233
O22	O	0.105710	-0.202728	0.422565
N23	N	0.109086	-0.262027	0.339147
C24	C	0.137704	-0.294066	0.294048
O25	O	0.110585	-0.321318	0.255699
C26	C	0.192308	-0.294063	0.294041
C27	C	0.218293	-0.262025	0.339135
C28	C	0.215664	-0.197951	0.429319
C29	C	0.270265	-0.197952	0.429315
C30	C	0.298880	-0.229989	0.384222
C31	C	0.272894	-0.262026	0.339132
C32	C	0.220926	-0.326099	0.248939
C33	C	0.275533	-0.326093	0.248936
C34	C	0.301519	-0.294055	0.294030
C35	C	0.356110	-0.294064	0.294034
N36	N	0.382098	-0.262024	0.339121
C37	C	0.353483	-0.229987	0.384214
C38	C	0.023033	-0.294069	0.294066
C39	C	-0.031569	-0.294075	0.294077
C40	C	-0.034196	-0.229995	0.384261
C41	C	0.020408	-0.229992	0.384254
C42	C	0.049022	-0.262028	0.339153
C43	C	0.468149	-0.229992	0.384204
C44	C	0.522754	-0.229997	0.384198
C45	C	0.525376	-0.294075	0.294012
C46	C	0.470775	-0.294072	0.294020
C47	C	0.442163	-0.262026	0.339118
O48	O	0.385508	-0.321308	0.255720
O49	O	0.380610	-0.202734	0.422551
C50	C	0.745238	-0.397870	0.339095
C51	C	0.745248	-0.455984	0.339105
C52	C	0.780194	-0.814994	0.294197
C53	C	0.780214	-0.869599	0.294206
O54	O	0.809836	-0.896685	0.255988
N55	N	0.745416	-0.898268	0.339174
C56	C	0.710599	-0.872331	0.384141
O57	O	0.681002	-0.901730	0.422391
C58	C	0.710582	-0.817727	0.384135
C59	C	0.745379	-0.789060	0.339159
C60	C	0.814989	-0.786328	0.249225
C61	C	0.814968	-0.731727	0.249215
C62	C	0.780152	-0.705793	0.294177
C63	C	0.745358	-0.734460	0.339148
C64	C	0.675768	-0.791791	0.429104
C65	C	0.675754	-0.737183	0.429094
C66	C	0.710551	-0.708516	0.384118
C67	C	0.710522	-0.653925	0.384100
N68	N	0.745320	-0.625255	0.339132
C69	C	0.780135	-0.651189	0.294170
C70	C	0.710638	-0.987002	0.384152
C71	C	0.710652	-1.041604	0.384155
C72	C	0.780268	-1.038869	0.294221
C73	C	0.780251	-0.984265	0.294215
C74	C	0.745436	-0.958332	0.339184
C75	C	0.780089	-0.536524	0.294152
C76	C	0.780064	-0.481918	0.294144
C77	C	0.710449	-0.484658	0.384080
C78	C	0.710473	-0.539259	0.384086
C79	C	0.745297	-0.565190	0.339119
O80	O	0.680916	-0.626804	0.422300
O81	O	0.809732	-0.621783	0.255933
C82	C	0.881697	-0.262033	0.339156
C83	C	0.939811	-0.262035	0.339168
C84	C	0.739845	-0.267510	0.522701
C85	C	0.737510	-0.269846	0.600929
C86	C	0.745426	-0.125656	0.339175
C87	C	0.745469	-0.067543	0.339196
C88	C	0.769872	-0.237509	0.637701
C89	C	0.767671	-0.239702	0.711204
C90	C	0.733110	-0.274234	0.747935
C91	C	0.700744	-0.306572	0.711158
C92	C	0.702943	-0.304376	0.637656
C93	C	0.722945	-0.284384	0.967761
C94	C	0.720750	-0.286579	1.041269
C95	C	0.787677	-0.219708	1.041310
C96	C	0.789874	-0.217517	0.967806
C97	C	0.757506	-0.249853	0.931036
N98	N	0.730861	-0.276478	0.823068
N99	N	0.759753	-0.247607	0.855904
C100	C	0.750779	-0.256579	1.156268
C101	C	0.753113	-0.254243	1.078040
H102	H	0.291418	-0.171862	0.466035
O103	O	-0.061940	-0.198796	0.428028
C104	C	-0.079639	-0.110923	0.462372
C105	C	-0.048175	-0.146192	0.412777
H106	H	-0.068530	-0.068385	0.450050
H107	H	-0.070588	-0.121817	0.519114
H108	H	-0.123126	-0.116458	0.454636
H109	H	-0.004680	-0.140676	0.420451
H110	H	-0.057270	-0.135289	0.356054
O111	O	0.687245	-0.320176	1.076985
C112	C	0.677668	-0.393215	1.159989
C113	C	0.715668	-0.355213	1.119569
H114	H	0.700631	-0.421545	1.194438
H115	H	0.654915	-0.415989	1.121119
H116	H	0.649316	-0.370217	1.194370
H117	H	0.744051	-0.378170	1.085187
H118	H	0.738383	-0.332439	1.158477
H119	H	0.798017	-0.209391	0.607800
O120	O	0.553154	-0.325272	0.250286
C121	C	0.570810	-0.413135	0.215868
C122	C	0.539325	-0.377870	0.265446
H123	H	0.559633	-0.455667	0.228097
H124	H	0.614305	-0.407672	0.223618
H125	H	0.561774	-0.402166	0.159144
H126	H	0.548316	-0.388817	0.322188
H127	H	0.495839	-0.383338	0.257634
O128	O	-0.056726	-0.325216	0.250212
C129	C	-0.048344	-0.388798	0.160792
C130	C	-0.019791	-0.353548	0.210427
H131	H	-0.018495	-0.411721	0.128623
H132	H	-0.072783	-0.363680	0.124000
H133	H	-0.074900	-0.417116	0.193049
H134	H	0.006792	-0.325224	0.178227
H135	H	0.004615	-0.378699	0.247220
H136	H	0.696596	-0.310722	0.937832
O137	O	0.050852	-0.325121	0.250186
C138	C	0.115333	-0.329222	0.155162
C139	C	0.083857	-0.293995	0.204800
H140	H	0.142033	-0.304072	0.118465
H141	H	0.087399	-0.352110	0.122892
H142	H	0.139896	-0.357572	0.187420
H143	H	0.059292	-0.265615	0.172596
H144	H	0.111819	-0.271144	0.237072
H145	H	0.794026	-0.213372	0.741141
O146	O	0.195775	-0.357233	0.205063
C147	C	0.204166	-0.420800	0.115626
C148	C	0.232714	-0.385557	0.165274
H149	H	0.234019	-0.443718	0.083455
H150	H	0.179729	-0.395678	0.078838
H151	H	0.177610	-0.449124	0.147873
H152	H	0.259298	-0.357228	0.133085
H153	H	0.257119	-0.410712	0.202064
H154	H	0.298828	-0.352181	0.212207
H155	H	0.041562	-0.203902	0.420972
O156	O	0.676794	-1.069469	0.427739
C157	C	0.605959	-1.131491	0.437139
C158	C	0.644261	-1.099958	0.387694
H159	H	0.579653	-1.156158	0.404783
H160	H	0.581036	-1.103594	0.469258
H161	H	0.628860	-1.158094	0.473992
H162	H	0.621401	-1.073353	0.350798
H163	H	0.669185	-1.127885	0.355625
H164	H	0.814028	-0.193381	1.071256
O165	O	0.445502	-0.325254	0.250321
C166	C	0.384058	-0.395518	0.240674
C167	C	0.412650	-0.360252	0.290249
H168	H	0.357483	-0.423815	0.272935
H169	H	0.413867	-0.418457	0.208457
H170	H	0.359631	-0.370359	0.203918
H171	H	0.437077	-0.385372	0.327047
H172	H	0.382815	-0.337310	0.322416
H173	H	0.672602	-0.334687	0.741070
H174	H	0.808399	-0.458579	0.257516
O175	O	0.813933	-0.561625	0.250403
C176	C	0.882995	-0.553135	0.161223
C177	C	0.844690	-0.524642	0.210724
H178	H	0.907880	-0.523247	0.129140
H179	H	0.860149	-0.577619	0.124346
H180	H	0.909340	-0.579641	0.193580
H181	H	0.818336	-0.498110	0.178424
H182	H	0.867569	-0.500191	0.247603
H183	H	0.192372	-0.171859	0.466040
H184	H	0.808618	-1.059994	0.257613
H185	H	0.676584	-0.330703	0.607718
H186	H	0.843342	-0.807437	0.212612
O187	O	0.848825	-0.703964	0.205510
C188	C	0.917862	-0.707034	0.116290
C189	C	0.879550	-0.738534	0.165761
H190	H	0.942705	-0.734970	0.084130
H191	H	0.944244	-0.682414	0.148604
H192	H	0.894970	-0.680390	0.079478
H193	H	0.902400	-0.765207	0.202583
H194	H	0.853168	-0.763119	0.133404
H195	H	0.543909	-0.203907	0.420922
H196	H	0.808586	-0.960928	0.257592
H197	H	0.682283	-0.965890	0.420769
H198	H	0.647430	-0.815122	0.465725
H199	H	0.444859	-0.203895	0.420925
H200	H	0.647404	-0.716072	0.465716
O201	O	0.676651	-0.567030	0.427838
C202	C	0.607584	-0.563973	0.517016
C203	C	0.645861	-0.532464	0.467506
H204	H	0.582672	-0.536040	0.549089
H205	H	0.630453	-0.590582	0.553902
H206	H	0.581262	-0.588630	0.484667
H207	H	0.672192	-0.507778	0.499798
H208	H	0.622960	-0.505888	0.430618
H209	H	0.682102	-0.463534	0.420685
H210	H	0.818019	-0.189399	0.937905
