data_functionalizedCrystal
_audit_creation_method	'MofGen! by Chris Wilmer'
_symmetry_space_group_name_H-M	'P1'
_symmetry_Int_Tables_number	1
_symmetry_cell_setting	triclinic
loop_
_symmetry_equiv_pos_as_xyz
  x,y,z
_cell_length_a	18.050582
_cell_length_b	13.897449
_cell_length_c	13.897448
_cell_angle_alpha	90.018519
_cell_angle_beta	89.979070
_cell_angle_gamma	89.983584
loop_
_atom_site_label
_atom_site_type_symbol
_atom_site_fract_x
_atom_site_fract_y
_atom_site_fract_z
Zn1	Zn	-0.419951	1.474636	-0.384055
Zn2	Zn	-0.086617	1.807970	-0.050722
Zn3	Zn	0.246716	2.141303	0.282612
Zn4	Zn	-0.295764	1.474550	-0.545349
Zn5	Zn	0.037569	1.807883	-0.212016
Zn6	Zn	0.370902	2.141217	0.121317
Zn7	Zn	-0.295772	1.313345	-0.384072
Zn8	Zn	0.037562	1.646678	-0.050739
Zn9	Zn	0.370895	1.980012	0.282594
Zn10	Zn	-0.419909	1.313307	-0.545312
Zn11	Zn	-0.086576	1.646640	-0.211979
Zn12	Zn	0.246757	1.979974	0.121355
O13	O	-0.357849	1.393960	-0.464697
O14	O	-0.024516	1.727293	-0.131364
O15	O	0.308818	2.060626	0.201970
O16	O	-0.403491	1.609606	-0.405459
O17	O	-0.070158	1.942940	-0.072126
O18	O	0.263175	2.276273	0.261207
O19	O	-0.191841	1.453145	-0.523979
O20	O	0.141493	1.786479	-0.190645
O21	O	0.474826	2.119812	0.142688
O22	O	-0.312264	1.334793	-0.249088
O23	O	0.021069	1.668126	0.084245
O24	O	0.354402	2.001459	0.417578
O25	O	-0.312252	1.609543	-0.523962
O26	O	0.021081	1.942876	-0.190628
O27	O	0.354415	2.276210	0.142705
O28	O	-0.403498	1.453293	-0.249076
O29	O	-0.070165	1.786626	0.084258
O30	O	0.263168	2.119959	0.417591
O31	O	-0.191846	1.334709	-0.405489
O32	O	0.141487	1.668042	-0.072156
O33	O	0.474821	2.001376	0.261178
O34	O	-0.312225	1.178358	-0.405453
O35	O	0.021109	1.511692	-0.072119
O36	O	0.354442	1.845025	0.261214
O37	O	-0.523840	1.334728	-0.523898
O38	O	-0.190506	1.668061	-0.190565
O39	O	0.142827	2.001395	0.142769
O40	O	-0.403428	1.178330	-0.523915
O41	O	-0.070095	1.511664	-0.190581
O42	O	0.263239	1.844997	0.142752
O43	O	-0.523870	1.453256	-0.405423
O44	O	-0.190537	1.786589	-0.072090
O45	O	0.142797	2.119922	0.261244
O46	O	-0.312212	1.453109	-0.680326
O47	O	0.021121	1.786442	-0.346993
O48	O	0.354455	2.119775	-0.013659
O49	O	-0.403421	1.334644	-0.680299
O50	O	-0.070088	1.667978	-0.346965
O51	O	0.263246	2.001311	-0.013632
C52	C	-0.357823	1.143345	-0.464682
C53	C	-0.024490	1.476679	-0.131349
C54	C	0.308844	1.810012	0.201984
C55	C	-0.357830	1.036131	-0.464699
C56	C	-0.024496	1.369465	-0.131366
C57	C	0.308837	1.702798	0.201968
C58	C	-0.357842	0.949061	-0.464702
C59	C	-0.024509	1.282395	-0.131369
C60	C	0.308825	1.615728	0.201964
C61	C	-0.357865	0.839829	-0.464709
C62	C	-0.024531	1.173162	-0.131376
C63	C	0.308802	1.506496	0.201957
C64	C	-0.551555	1.393997	-0.464654
C65	C	-0.218221	1.727331	-0.131321
C66	C	0.115112	2.060664	0.202012
C67	C	-0.634100	1.394013	-0.464636
C68	C	-0.300767	1.727347	-0.131303
C69	C	0.032566	2.060680	0.202031
C70	C	-0.833535	1.329607	-0.528975
C71	C	-0.500201	1.662941	-0.195641
C72	C	-0.166868	1.996274	0.137692
C73	C	-0.882928	1.417615	-0.552552
C74	C	-0.549595	1.750948	-0.219219
C75	C	-0.216262	2.084282	0.114115
C76	C	-0.785231	1.394061	-0.464563
C77	C	-0.451898	1.727394	-0.131229
C78	C	-0.118564	2.060728	0.202104
C79	C	-0.882919	1.306102	-0.440959
C80	C	-0.549586	1.639435	-0.107625
C81	C	-0.216252	1.972768	0.225708
C82	C	-0.931216	1.394099	-0.464493
C83	C	-0.597883	1.727432	-0.131160
C84	C	-0.264549	2.060766	0.202173
C85	C	-0.833537	1.482115	-0.488186
C86	C	-0.500204	1.815448	-0.154853
C87	C	-0.166871	2.148781	0.178481
C88	C	-0.833524	1.370542	-0.376551
C89	C	-0.500190	1.703875	-0.043218
C90	C	-0.166857	2.037209	0.290115
C91	C	-0.882895	1.458611	-0.400095
C92	C	-0.549562	1.791944	-0.066762
C93	C	-0.216228	2.125277	0.266571
C94	C	-0.701133	1.394038	-0.464605
C95	C	-0.367799	1.727371	-0.131272
C96	C	-0.034466	2.060704	0.202062
C97	C	-1.015313	1.394132	-0.464451
C98	C	-0.681979	1.727466	-0.131117
C99	C	-0.348646	2.060799	0.202216
C100	C	-0.164897	1.393977	-0.464670
C101	C	0.168436	1.727311	-0.131337
C102	C	0.501770	2.060644	0.201997
C103	C	-0.082351	1.394148	-0.464417
C104	C	0.250982	1.727481	-0.131083
C105	C	0.584315	2.060815	0.202250
C106	C	-0.357827	1.393889	-0.715311
C107	C	-0.024494	1.727222	-0.381978
C108	C	0.308839	2.060556	-0.048645
C109	C	-0.357843	1.393947	-0.822525
C110	C	-0.024510	1.727281	-0.489192
C111	C	0.308824	2.060614	-0.155859
C112	C	-0.357875	1.645552	-0.464713
C113	C	-0.024542	1.978886	-0.131379
C114	C	0.308791	2.312219	0.201954
C115	C	-0.357887	1.752766	-0.464719
C116	C	-0.024553	2.086100	-0.131386
C117	C	0.308780	2.419433	0.201947
C118	C	-0.357890	1.394049	-1.018820
C119	C	-0.024556	1.727382	-0.685487
C120	C	0.308777	2.060715	-0.352154
C121	C	-0.357866	1.393989	-0.909588
C122	C	-0.024533	1.727323	-0.576255
C123	C	0.308801	2.060656	-0.242921
C124	C	-0.357887	1.394056	-0.213104
C125	C	-0.024553	1.727390	0.120229
C126	C	0.308780	2.060723	0.453563
C127	C	-0.357903	1.394098	-0.105890
C128	C	-0.024570	1.727431	0.227443
C129	C	0.308764	2.060764	0.560776
H130	H	-0.811862	1.275152	-0.583517
H131	H	-0.478529	1.608485	-0.250184
H132	H	-0.145196	1.941819	0.083149
H133	H	-0.904611	1.231700	-0.421023
H134	H	-0.571278	1.565033	-0.087690
H135	H	-0.237944	1.898366	0.245644
H136	H	-0.904629	1.437531	-0.626952
H137	H	-0.571296	1.770864	-0.293618
H138	H	-0.237963	2.104197	0.039715
C139	C	-0.804363	1.582667	-0.515188
C140	C	-0.471030	1.916000	-0.181855
C141	C	-0.137696	2.249333	0.151478
H142	H	-0.751733	1.582034	-0.515066
H143	H	-0.418400	1.915368	-0.181732
H144	H	-0.085067	2.248701	0.151601
H145	H	-0.821669	1.628468	-0.469671
H146	H	-0.488335	1.961801	-0.136338
H147	H	-0.155002	2.295134	0.196995
H148	H	-0.821679	1.599525	-0.577488
H149	H	-0.488346	1.932858	-0.244155
H150	H	-0.155012	2.266192	0.089178
C151	C	-0.911997	1.532345	-0.326473
C152	C	-0.578664	1.865679	0.006860
C153	C	-0.245331	2.199012	0.340194
H154	H	-0.894997	1.594785	-0.343374
H155	H	-0.561664	1.928119	-0.010040
H156	H	-0.228330	2.261452	0.323293
H157	H	-0.894333	1.516158	-0.264165
H158	H	-0.561000	1.849492	0.069168
H159	H	-0.227666	2.182825	0.402501
H160	H	-0.964624	1.531594	-0.326478
H161	H	-0.631291	1.864927	0.006855
H162	H	-0.297957	2.198261	0.340188
C163	C	-0.804178	1.343604	-0.276077
C164	C	-0.470845	1.676938	0.057257
C165	C	-0.137512	2.010271	0.390590
H166	H	-0.821056	1.281042	-0.259424
H167	H	-0.487723	1.614375	0.073910
H168	H	-0.154389	1.947708	0.407243
H169	H	-0.821814	1.388765	-0.230134
H170	H	-0.488481	1.722098	0.103199
H171	H	-0.155147	2.055431	0.436532
H172	H	-0.751554	1.344364	-0.276693
H173	H	-0.418220	1.677697	0.056641
H174	H	-0.084887	2.011030	0.389974
