data_functionalizedCrystal
_audit_creation_method	'MofGen! by Chris Wilmer'
_symmetry_space_group_name_H-M	'P1'
_symmetry_Int_Tables_number	1
_symmetry_cell_setting	triclinic
loop_
_symmetry_equiv_pos_as_xyz
  x,y,z
_cell_length_a	16.109302
_cell_length_b	15.538191
_cell_length_c	14.586319
_cell_angle_alpha	89.999456
_cell_angle_beta	89.994552
_cell_angle_gamma	65.366938
loop_
_atom_site_label
_atom_site_type_symbol
_atom_site_fract_x
_atom_site_fract_y
_atom_site_fract_z
O1	O	1.066615	0.121097	-0.076271
O2	O	0.820009	0.136166	-0.076263
O3	O	0.991316	-0.008513	-0.076273
O4	O	0.895308	0.265775	-0.076261
O5	O	0.991308	-0.008515	0.076208
O6	O	0.820001	0.136164	0.076218
O7	O	1.066607	0.121095	0.076210
Cu8	Cu	0.943303	0.128629	0.090137
Cu9	Cu	0.943313	0.128631	-0.090190
O10	O	0.895300	0.265773	0.076220
C11	C	0.789214	0.135554	-0.000021
C12	C	0.697471	0.133724	-0.000019
C13	C	0.486402	0.129490	0.083089
C14	C	0.400204	0.127760	0.083086
C15	C	0.400221	0.127767	-0.083157
C16	C	0.486421	0.129491	-0.083153
C17	C	0.529507	0.130357	-0.000027
C18	C	0.357109	0.126904	-0.000034
C19	C	0.263649	0.125028	-0.000038
C20	C	0.622974	0.132231	-0.000022
C21	C	1.001357	-0.043612	-0.000036
C22	C	1.031277	-0.148195	-0.000046
C23	C	0.734025	-0.435895	-0.000016
C24	C	0.762160	-0.534170	-0.000015
C25	C	0.920418	-0.556661	-0.000021
C26	C	0.892296	-0.458386	-0.000026
C27	C	0.799098	-0.398011	-0.000023
C28	C	0.957369	-0.420502	-0.000033
C29	C	0.929248	-0.322236	-0.000034
C30	C	0.836054	-0.261855	-0.000028
C31	C	0.770977	-0.299745	-0.000024
C32	C	1.050566	-0.480879	-0.000030
C33	C	1.115639	-0.442995	-0.000037
C34	C	1.087519	-0.344727	-0.000044
C35	C	0.994325	-0.284346	-0.000038
C36	C	1.152596	-0.306837	-0.000049
C37	C	1.124475	-0.208571	-0.000049
C38	C	0.966204	-0.186080	-0.000039
C39	C	1.097402	0.121706	-0.000034
C40	C	1.189145	0.123537	-0.000042
C41	C	0.885259	0.300873	-0.000019
C42	C	0.855339	0.405456	-0.000015
N43	N	0.943303	0.128627	0.216968
N44	N	0.943322	0.128626	-0.217021
C45	C	1.019169	0.064584	0.451970
C46	C	1.019173	0.064582	0.547952
C47	C	0.867449	0.192672	0.547970
C48	C	0.867444	0.192669	0.451991
C49	C	0.943309	0.128626	0.403993
C50	C	0.943316	0.128627	0.595954
C51	C	0.943319	0.128625	0.700021
C52	C	0.943305	0.128627	0.299919
H53	H	0.521519	0.130194	-0.150840
H54	H	0.658133	-0.386734	-0.000020
C55	C	0.353531	0.126874	0.173424
C56	C	0.409708	0.128024	0.246217
C57	C	0.366739	0.127220	0.329453
H58	H	0.342808	0.071310	0.177007
H59	H	0.297001	0.181128	0.176930
H60	H	0.466221	0.073776	0.242712
H61	H	0.420434	0.183584	0.242664
H62	H	0.310209	0.181474	0.332959
H63	H	0.356018	0.071655	0.333027
H64	H	0.404844	0.128009	0.378853
C65	C	0.353267	0.126882	-0.173308
C66	C	0.268539	0.125215	-0.155525
C67	C	0.225255	0.124414	-0.238552
H68	H	0.390201	0.072274	-0.207534
H69	H	0.344432	0.182093	-0.207462
H70	H	0.277378	0.070010	-0.121386
H71	H	0.231583	0.179818	-0.121312
H72	H	0.216420	0.179625	-0.272705
H73	H	0.262195	0.069806	-0.272771
H74	H	0.167759	0.123292	-0.226497
C75	C	1.101544	-0.005098	0.599924
C76	C	1.116018	-0.097680	0.576558
C77	C	1.191900	-0.161898	0.624406
H78	H	1.090783	0.003938	0.663974
H79	H	1.153967	0.005097	0.584165
H80	H	1.063607	-0.107872	0.592322
H81	H	1.126794	-0.106747	0.512515
H82	H	1.244323	-0.151703	0.608648
H83	H	1.181132	-0.152853	0.688454
H84	H	1.201736	-0.224722	0.608553
C85	C	0.785080	0.262356	0.599964
C86	C	0.770604	0.354937	0.576593
C87	C	0.694725	0.419157	0.624458
H88	H	0.795844	0.253322	0.664012
H89	H	0.732655	0.252160	0.584222
H90	H	0.823016	0.365129	0.592340
H91	H	0.759824	0.364000	0.512553
H92	H	0.642301	0.408961	0.608717
H93	H	0.705497	0.410115	0.688504
H94	H	0.684888	0.481980	0.608601
H95	H	1.177465	-0.177725	-0.000054
C96	C	0.785195	0.262255	0.399778
C97	C	0.812077	0.319919	0.344650
C98	C	0.736340	0.384019	0.296530
H99	H	0.739966	0.300492	0.442004
H100	H	0.760821	0.228377	0.362290
H101	H	0.836437	0.353794	0.382135
H102	H	0.857295	0.281708	0.302407
H103	H	0.711966	0.350142	0.259042
H104	H	0.691116	0.422250	0.338763
H105	H	0.754570	0.423146	0.259114
H106	H	0.890313	-0.136918	-0.000043
H107	H	1.080942	0.012436	0.412893
H108	H	0.521480	0.130196	0.150776
H109	H	0.695086	-0.250583	-0.000028
C110	C	0.805646	-0.155182	0.000113
C111	C	0.839473	-0.128792	0.078546
C112	C	0.811490	-0.030536	0.078701
H113	H	0.740838	-0.124538	0.000163
H114	H	0.828542	-0.137077	-0.053035
H115	H	0.816573	-0.146887	0.131681
H116	H	0.904279	-0.159412	0.078513
H117	H	0.834386	-0.012431	0.025553
H118	H	0.746682	0.000099	0.078749
H119	H	0.834444	-0.012619	0.131912
H120	H	1.228478	-0.356008	-0.000042
C121	C	0.691363	-0.575119	-0.000063
C122	C	0.603729	-0.501208	-0.000085
C123	C	0.538491	-0.538895	-0.000142
H124	H	0.698915	-0.612971	0.053094
H125	H	0.698994	-0.612957	-0.053260
H126	H	0.596101	-0.463386	0.053106
H127	H	0.596148	-0.463350	-0.053239
H128	H	0.546122	-0.576733	-0.053339
H129	H	0.546051	-0.576747	0.053016
H130	H	0.479024	-0.488753	-0.000165
C131	C	1.021631	-0.622105	-0.000172
C132	C	1.062535	-0.604973	-0.078616
C133	C	1.155775	-0.665232	-0.078784
H134	H	1.029187	-0.686087	-0.000217
H135	H	1.049581	-0.610607	0.052969
H136	H	1.034594	-0.616479	-0.131743
H137	H	1.055005	-0.541003	-0.078587
H138	H	1.183725	-0.653733	-0.025643
H139	H	1.163321	-0.729210	-0.078826
H140	H	1.183542	-0.653610	-0.132002
C141	C	1.216810	-0.508596	-0.000233
C142	C	1.237580	-0.565654	-0.078692
C143	C	1.330772	-0.626086	-0.078912
H144	H	1.231177	-0.547484	0.052879
H145	H	1.251572	-0.471991	-0.000289
H146	H	1.202830	-0.602255	-0.078627
H147	H	1.223236	-0.526792	-0.131816
H148	H	1.365535	-0.589482	-0.078968
H149	H	1.345131	-0.664968	-0.025797
H150	H	1.344879	-0.664801	-0.132149
H151	H	1.073459	-0.560893	-0.000038
