data_functionalizedCrystal
_audit_creation_method	'MofGen! by Chris Wilmer'
_symmetry_space_group_name_H-M	'P1'
_symmetry_Int_Tables_number	1
_symmetry_cell_setting	triclinic
loop_
_symmetry_equiv_pos_as_xyz
  x,y,z
_cell_length_a	21.295417
_cell_length_b	18.101398
_cell_length_c	18.101389
_cell_angle_alpha	90.008593
_cell_angle_beta	89.977434
_cell_angle_gamma	89.974687
loop_
_atom_site_label
_atom_site_type_symbol
_atom_site_fract_x
_atom_site_fract_y
_atom_site_fract_z
Zn1	Zn	-0.250763	-1.132124	-0.418506
Zn2	Zn	0.082571	-0.798791	-0.085173
Zn3	Zn	0.415904	-0.465457	0.248160
Zn4	Zn	-0.356016	-1.132021	-0.294656
Zn5	Zn	-0.022683	-0.798688	0.038677
Zn6	Zn	0.310651	-0.465354	0.372011
Zn7	Zn	-0.250755	-1.008283	-0.294702
Zn8	Zn	0.082578	-0.674950	0.038632
Zn9	Zn	0.415912	-0.341616	0.371965
Zn10	Zn	-0.355988	-1.008235	-0.418479
Zn11	Zn	-0.022655	-0.674902	-0.085145
Zn12	Zn	0.310678	-0.341568	0.248188
O13	O	-0.303380	-1.070166	-0.356586
O14	O	0.029953	-0.736832	-0.023252
O15	O	0.363286	-0.403499	0.310081
O16	O	-0.264739	-1.235743	-0.402070
O17	O	0.068594	-0.902410	-0.068737
O18	O	0.401927	-0.569077	0.264597
O19	O	-0.342061	-1.115584	-0.191029
O20	O	-0.008728	-0.782251	0.142304
O21	O	0.324605	-0.448917	0.475638
O22	O	-0.162667	-1.024774	-0.311155
O23	O	0.170667	-0.691440	0.022178
O24	O	0.504000	-0.358107	0.355511
O25	O	-0.342069	-1.235668	-0.311078
O26	O	-0.008735	-0.902334	0.022256
O27	O	0.324598	-0.569001	0.355589
O28	O	-0.162672	-1.115759	-0.402114
O29	O	0.170661	-0.782426	-0.068781
O30	O	0.503995	-0.449093	0.264552
O31	O	-0.264727	-1.024674	-0.191063
O32	O	0.068607	-0.691341	0.142271
O33	O	0.401940	-0.358007	0.475604
O34	O	-0.264700	-0.904644	-0.311128
O35	O	0.068634	-0.571310	0.022205
O36	O	0.401967	-0.237977	0.355538
O37	O	-0.342021	-1.024692	-0.522115
O38	O	-0.008688	-0.691359	-0.188782
O39	O	0.324645	-0.358025	0.144551
O40	O	-0.342014	-0.904608	-0.402067
O41	O	-0.008681	-0.571275	-0.068733
O42	O	0.324653	-0.237942	0.264600
O43	O	-0.264712	-1.115713	-0.522136
O44	O	0.068621	-0.782379	-0.188802
O45	O	0.401954	-0.449046	0.144531
O46	O	-0.444102	-1.115537	-0.311051
O47	O	-0.110768	-0.782204	0.022283
O48	O	0.222565	-0.448871	0.355616
O49	O	-0.444081	-1.024592	-0.402022
O50	O	-0.110748	-0.691259	-0.068689
O51	O	0.222585	-0.357926	0.264644
C52	C	-0.303354	-0.877755	-0.356600
C53	C	0.029980	-0.544422	-0.023267
C54	C	0.363313	-0.211089	0.310067
C55	C	-0.303357	-0.795441	-0.356624
C56	C	0.029976	-0.462108	-0.023290
C57	C	0.363309	-0.128774	0.310043
C58	C	-0.303391	-0.496350	-0.356599
C59	C	0.029942	-0.163017	-0.023265
C60	C	0.363276	0.170317	0.310068
C61	C	-0.352270	-0.527678	-0.413531
C62	C	-0.018937	-0.194345	-0.080198
C63	C	0.314396	0.138989	0.253135
C64	C	-0.352118	-0.613296	-0.413764
C65	C	-0.018785	-0.279963	-0.080430
C66	C	0.314548	0.053370	0.252903
C67	C	-0.303375	-0.644733	-0.356611
C68	C	0.029959	-0.311399	-0.023278
C69	C	0.363292	0.021934	0.310056
C70	C	-0.237075	-0.613677	-0.377945
C71	C	0.096259	-0.280344	-0.044612
C72	C	0.429592	0.052989	0.288722
C73	C	-0.237367	-0.528032	-0.378352
C74	C	0.095966	-0.194699	-0.045018
C75	C	0.429300	0.138634	0.288315
C76	C	-0.320227	-0.527898	-0.278194
C77	C	0.013106	-0.194564	0.055140
C78	C	0.346439	0.138769	0.388473
C79	C	-0.321683	-0.613548	-0.278611
C80	C	0.011650	-0.280214	0.054722
C81	C	0.344983	0.053119	0.388056
C82	C	-0.303362	-0.728592	-0.356617
C83	C	0.029972	-0.395259	-0.023283
C84	C	0.363305	-0.061925	0.310050
C85	C	-0.303400	-0.412491	-0.356595
C86	C	0.029934	-0.079157	-0.023261
C87	C	0.363267	0.254176	0.310072
C88	C	-0.466932	-1.070069	-0.356545
C89	C	-0.133599	-0.736735	-0.023211
C90	C	0.199735	-0.403402	0.310122
C91	C	-0.536900	-1.070095	-0.356552
C92	C	-0.203567	-0.736762	-0.023219
C93	C	0.129766	-0.403428	0.310115
C94	C	-0.569757	-1.117492	-0.309231
C95	C	-0.236423	-0.784159	0.024102
C96	C	0.096910	-0.450825	0.357435
C97	C	-0.635499	-1.117527	-0.309248
C98	C	-0.302166	-0.784193	0.024085
C99	C	0.031168	-0.450860	0.357419
C100	C	-0.668383	-1.070151	-0.356577
C101	C	-0.335049	-0.736818	-0.023244
C102	C	-0.001716	-0.403484	0.310089
C103	C	-0.635518	-1.022750	-0.403907
C104	C	-0.302185	-0.689417	-0.070574
C105	C	0.031148	-0.356084	0.262759
C106	C	-0.569777	-1.022722	-0.403894
C107	C	-0.236444	-0.689389	-0.070561
C108	C	0.096890	-0.356056	0.262772
N109	N	-0.771644	-1.005367	-0.362228
N110	N	-0.438311	-0.672033	-0.028895
N111	N	-0.104978	-0.338700	0.304439
N112	N	-0.834096	-1.005396	-0.362236
N113	N	-0.500762	-0.672062	-0.028902
N114	N	-0.167429	-0.338729	0.304431
C115	C	-0.866457	-1.070234	-0.356620
C116	C	-0.533124	-0.736901	-0.023287
C117	C	-0.199791	-0.403567	0.310047
N118	N	-0.834008	-1.135044	-0.350981
N119	N	-0.500675	-0.801711	-0.017648
N120	N	-0.167342	-0.468377	0.315685
N121	N	-0.771551	-1.135014	-0.350970
N122	N	-0.438218	-0.801681	-0.017636
N123	N	-0.104885	-0.468348	0.315697
C124	C	-0.739668	-1.070177	-0.356597
C125	C	-0.406335	-0.736843	-0.023264
C126	C	-0.073001	-0.403510	0.310070
C127	C	-0.970599	-1.117673	-0.309315
C128	C	-0.637266	-0.784340	0.024018
C129	C	-0.303933	-0.451006	0.357352
C130	C	-1.036343	-1.117709	-0.309337
C131	C	-0.703010	-0.784375	0.023997
C132	C	-0.369676	-0.451042	0.357330
C133	C	-1.036361	-1.022926	-0.403992
C134	C	-0.703028	-0.689593	-0.070659
C135	C	-0.369694	-0.356259	0.262675
C136	C	-0.970619	-1.022897	-0.403974
C137	C	-0.637285	-0.689563	-0.070641
C138	C	-0.303952	-0.356230	0.262693
C139	C	-0.937742	-1.070269	-0.356632
C140	C	-0.604408	-0.736936	-0.023298
C141	C	-0.271075	-0.403602	0.310035
C142	C	-0.139190	-1.070283	-0.356643
C143	C	0.194143	-0.736950	-0.023310
C144	C	0.527476	-0.403617	0.310024
C145	C	-0.069222	-1.070333	-0.356667
C146	C	0.264111	-0.737000	-0.023334
C147	C	0.597445	-0.403667	0.309999
C148	C	-0.303365	-1.070209	-0.549748
C149	C	0.029969	-0.736875	-0.216414
C150	C	0.363302	-0.403542	0.116919
C151	C	-0.303358	-1.070227	-0.632062
C152	C	0.029976	-0.736893	-0.298728
C153	C	0.363309	-0.403560	0.034605
C154	C	-0.303405	-0.263328	-0.356577
C155	C	0.029928	0.070006	-0.023244
C156	C	0.363262	0.403339	0.310090
C157	C	-0.303408	-0.345642	-0.356586
C158	C	0.029925	-0.012308	-0.023253
C159	C	0.363258	0.321025	0.310081
C160	C	-0.303240	-1.070270	-0.931153
C161	C	0.030094	-0.736937	-0.597820
C162	C	0.363427	-0.403603	-0.264486
C163	C	-0.351726	-1.012805	-0.899815
C164	C	-0.018392	-0.679472	-0.566482
C165	C	0.314941	-0.346138	-0.233148
C166	C	-0.351951	-1.012960	-0.814196
C167	C	-0.018617	-0.679627	-0.480863
C168	C	0.314716	-0.346294	-0.147530
C169	C	-0.303298	-1.070248	-0.782770
C170	C	0.030035	-0.736915	-0.449437
C171	C	0.363368	-0.403581	-0.116104
C172	C	-0.321311	-1.148273	-0.813853
C173	C	0.012022	-0.814940	-0.480520
C174	C	0.345356	-0.481607	-0.147186
C175	C	-0.321629	-1.147953	-0.899498
C176	C	0.011704	-0.814620	-0.566165
C177	C	0.345037	-0.481287	-0.232831
C178	C	-0.236633	-1.050388	-0.899588
C179	C	0.096700	-0.717054	-0.566255
C180	C	0.430033	-0.383721	-0.232922
C181	C	-0.237018	-1.048652	-0.813938
C182	C	0.096315	-0.715318	-0.480604
C183	C	0.429649	-0.381985	-0.147271
C184	C	-0.303330	-1.070240	-0.698911
C185	C	0.030003	-0.736907	-0.365577
C186	C	0.363336	-0.403574	-0.032244
C187	C	-0.303209	-1.070283	-1.015012
C188	C	0.030124	-0.736949	-0.681679
C189	C	0.363457	-0.403616	-0.348346
C190	C	-0.303351	-1.070166	-0.164175
C191	C	0.029982	-0.736832	0.169158
C192	C	0.363316	-0.403499	0.502492
C193	C	-0.303180	-1.070291	-0.081861
C194	C	0.030153	-0.736958	0.251472
C195	C	0.363486	-0.403624	0.584805
H196	H	-0.340980	-0.633799	-0.471856
H197	H	-0.007646	-0.300465	-0.138522
H198	H	0.325687	0.032868	0.194811
H199	H	-0.199644	-0.507310	-0.338786
H200	H	0.133689	-0.173977	-0.005453
H201	H	0.467023	0.159357	0.327881
H202	H	-0.223434	-0.991232	-0.793623
H203	H	0.109899	-0.657898	-0.460290
H204	H	0.443232	-0.324565	-0.126956
O205	O	-0.218453	-0.501581	-0.454273
O206	O	0.114880	-0.168248	-0.120940
O207	O	0.448214	0.165085	0.212394
H208	H	-0.209187	-0.549961	-0.490353
H209	H	0.124146	-0.216628	-0.157020
H210	H	0.457479	0.116706	0.176313
O211	O	-0.417243	-0.641116	-0.396056
O212	O	-0.083909	-0.307782	-0.062723
O213	O	0.249424	0.025551	0.270611
H214	H	-0.450746	-0.620551	-0.438277
H215	H	-0.117413	-0.287217	-0.104944
H216	H	0.215921	0.046116	0.228390
H217	H	-0.401596	-0.507063	-0.400310
H218	H	-0.068263	-0.173730	-0.066977
H219	H	0.265070	0.159603	0.266357
O220	O	-0.187519	-0.640654	-0.324741
O221	O	0.145814	-0.307320	0.008592
O222	O	0.479147	0.026013	0.341925
H223	H	-0.209672	-0.676570	-0.282429
H224	H	0.123661	-0.343237	0.050904
H225	H	0.456994	-0.009903	0.384237
H226	H	-0.542990	-1.156067	-0.270684
H227	H	-0.209657	-0.822734	0.062649
H228	H	0.123677	-0.489401	0.395982
H229	H	-0.370470	-0.633852	-0.262521
H230	H	-0.037137	-0.300519	0.070812
H231	H	0.296196	0.032814	0.404146
H232	H	-0.367745	-0.506285	-0.258808
H233	H	-0.034412	-0.172951	0.074525
H234	H	0.298921	0.160382	0.407859
H235	H	-0.662296	-0.984178	-0.442444
H236	H	-0.328963	-0.650845	-0.109111
H237	H	0.004370	-0.317512	0.224222
H238	H	-0.341273	-0.506167	-0.471288
H239	H	-0.007940	-0.172834	-0.137955
H240	H	0.325393	0.160499	0.195378
O241	O	-0.385123	-1.170985	-0.785441
O242	O	-0.051789	-0.837652	-0.452108
O243	O	0.281544	-0.504318	-0.118775
H244	H	-0.380701	-1.223052	-0.753481
H245	H	-0.047368	-0.889719	-0.420148
H246	H	0.285965	-0.556386	-0.086814
H247	H	-0.222535	-0.635142	-0.434639
H248	H	0.110798	-0.301809	-0.101305
H249	H	0.444131	0.031525	0.232028
H250	H	-0.943830	-1.156249	-0.270768
H251	H	-0.610497	-0.822916	0.062565
H252	H	-0.277163	-0.489582	0.395899
H253	H	-0.943865	-0.984298	-0.442504
H254	H	-0.610532	-0.650965	-0.109170
H255	H	-0.277198	-0.317631	0.224163
O256	O	-0.277950	-0.641888	-0.219396
O257	O	0.055383	-0.308554	0.113937
O258	O	0.388717	0.024779	0.447270
H259	H	-0.229173	-0.624511	-0.232229
H260	H	0.104160	-0.291178	0.101104
H261	H	0.437494	0.042156	0.434437
H262	H	-0.284624	-0.507639	-0.235773
H263	H	0.048710	-0.174306	0.097560
H264	H	0.382043	0.159028	0.430893
O265	O	-0.670950	-1.168643	-0.258202
O266	O	-0.337616	-0.835310	0.075132
O267	O	-0.004283	-0.501976	0.408465
H268	H	-0.637043	-1.201575	-0.225276
H269	H	-0.303710	-0.868241	0.108057
H270	H	0.029623	-0.534908	0.441391
H271	H	-0.543025	-0.984125	-0.442429
H272	H	-0.209692	-0.650792	-0.109096
H273	H	0.123642	-0.317459	0.224237
O274	O	-1.071824	-0.971826	-0.455038
O275	O	-0.738490	-0.638493	-0.121705
O276	O	-0.405157	-0.305160	0.211629
H277	H	-1.059174	-0.984491	-0.513168
H278	H	-0.725840	-0.651157	-0.179835
H279	H	-0.392507	-0.317824	0.153498
H280	H	-0.340678	-0.955101	-0.793181
H281	H	-0.007345	-0.621768	-0.459847
H282	H	0.325989	-0.288434	-0.126514
O283	O	-0.214892	-0.976331	-0.928194
O284	O	0.118442	-0.642997	-0.594861
O285	O	0.451775	-0.309664	-0.261528
H286	H	-0.207011	-0.938334	-0.880970
H287	H	0.126322	-0.605001	-0.547637
H288	H	0.459655	-0.271667	-0.214304
O289	O	-1.071786	-1.168831	-0.258295
O290	O	-0.738453	-0.835498	0.075039
O291	O	-0.405120	-0.502164	0.408372
H292	H	-1.037877	-1.201759	-0.225369
H293	H	-0.704544	-0.868426	0.107964
H294	H	-0.371211	-0.535093	0.441297
H295	H	-0.340569	-0.954772	-0.920418
H296	H	-0.007235	-0.621438	-0.587084
H297	H	0.326098	-0.288105	-0.253751
H298	H	-0.400795	-1.025801	-0.921333
H299	H	-0.067462	-0.692468	-0.587999
H300	H	0.265872	-0.359134	-0.254666
O301	O	-0.186620	-1.100049	-0.785615
O302	O	0.146713	-0.766715	-0.452282
O303	O	0.480046	-0.433382	-0.118948
H304	H	-0.208123	-1.141979	-0.748721
H305	H	0.125210	-0.808645	-0.415388
H306	H	0.458544	-0.475312	-0.082054
O307	O	-0.417364	-1.030252	-0.787044
O308	O	-0.084031	-0.696918	-0.453710
O309	O	0.249303	-0.363585	-0.120377
H310	H	-0.448956	-1.038559	-0.835086
H311	H	-0.115622	-0.705225	-0.501752
H312	H	0.217711	-0.371892	-0.168419
O313	O	-0.386126	-1.170274	-0.925960
O314	O	-0.052792	-0.836941	-0.592626
O315	O	0.280541	-0.503607	-0.259293
H316	H	-0.386992	-1.170270	-0.987269
H317	H	-0.053659	-0.836937	-0.653936
H318	H	0.279674	-0.503603	-0.320602
O319	O	-0.188776	-1.105821	-0.926435
O320	O	0.144557	-0.772488	-0.593102
O321	O	0.477891	-0.439154	-0.259768
H322	H	-0.212275	-1.147334	-0.962086
H323	H	0.121059	-0.814000	-0.628753
H324	H	0.454392	-0.480667	-0.295420
H325	H	-0.287848	-1.192220	-0.920229
H326	H	0.045486	-0.858887	-0.586896
H327	H	0.378819	-0.525554	-0.253562
O328	O	-0.276012	-1.206516	-0.786880
O329	O	0.057321	-0.873183	-0.453546
O330	O	0.390654	-0.539850	-0.120213
H331	H	-0.227825	-1.192551	-0.805621
H332	H	0.105508	-0.859218	-0.472288
H333	H	0.438841	-0.525885	-0.138954
