data_functionalizedCrystal
_audit_creation_method	'MofGen! by Chris Wilmer'
_symmetry_space_group_name_H-M	'P1'
_symmetry_Int_Tables_number	1
_symmetry_cell_setting	triclinic
loop_
_symmetry_equiv_pos_as_xyz
  x,y,z
_cell_length_a	13.897449
_cell_length_b	19.120904
_cell_length_c	13.897448
_cell_angle_alpha	87.585296
_cell_angle_beta	89.981028
_cell_angle_gamma	92.423877
loop_
_atom_site_label
_atom_site_type_symbol
_atom_site_fract_x
_atom_site_fract_y
_atom_site_fract_z
Zn1	Zn	1.451391	-0.397102	0.407269
Zn2	Zn	1.784724	-0.063769	0.740603
Zn3	Zn	2.118058	0.269565	1.073936
Zn4	Zn	1.458180	-0.279657	0.561695
Zn5	Zn	1.791513	0.053676	0.895028
Zn6	Zn	2.124846	0.387009	1.228361
Zn7	Zn	1.296974	-0.279670	0.400420
Zn8	Zn	1.630307	0.053664	0.733753
Zn9	Zn	1.963641	0.386997	1.067086
Zn10	Zn	1.290064	-0.397068	0.568526
Zn11	Zn	1.623397	-0.063735	0.901859
Zn12	Zn	1.956731	0.269598	1.235192
O13	O	1.374152	-0.338374	0.484477
O14	O	1.707485	-0.005041	0.817811
O15	O	2.040819	0.328292	1.151144
O16	O	1.587273	-0.381531	0.427762
O17	O	1.920606	-0.048198	0.761095
O18	O	2.253939	0.285135	1.094429
O19	O	1.442528	-0.181376	0.534576
O20	O	1.775861	0.151957	0.867909
O21	O	2.109195	0.485290	1.201242
O22	O	1.317509	-0.295267	0.266348
O23	O	1.650842	0.038067	0.599681
O24	O	1.984175	0.371400	0.933014
O25	O	1.592260	-0.295246	0.541218
O26	O	1.925593	0.038088	0.874551
O27	O	2.258927	0.371421	1.207884
O28	O	1.430958	-0.381543	0.271380
O29	O	1.764292	-0.048210	0.604713
O30	O	2.097625	0.285123	0.938047
O31	O	1.324091	-0.181386	0.416088
O32	O	1.657424	0.151948	0.749421
O33	O	1.990758	0.485281	1.082754
O34	O	1.161076	-0.295234	0.422711
O35	O	1.494410	0.038099	0.756045
O36	O	1.827743	0.371433	1.089378
O37	O	1.305731	-0.495355	0.552860
O38	O	1.639065	-0.162022	0.886193
O39	O	1.972398	0.171311	1.219527
O40	O	1.155999	-0.381486	0.546218
O41	O	1.489333	-0.048153	0.879551
O42	O	1.822666	0.285180	1.212885
O43	O	1.424258	-0.495380	0.434386
O44	O	1.757591	-0.162047	0.767719
O45	O	2.090924	0.171287	1.101052
O46	O	1.435828	-0.295213	0.697581
O47	O	1.769161	0.038120	1.030915
O48	O	2.102494	0.371454	1.364248
O49	O	1.312314	-0.381474	0.702600
O50	O	1.645647	-0.048141	1.035933
O51	O	1.978981	0.285192	1.369267
C52	C	1.123539	-0.338358	0.484463
C53	C	1.456872	-0.005025	0.817797
C54	C	1.790205	0.328308	1.151130
C55	C	1.016324	-0.338368	0.484482
C56	C	1.349658	-0.005035	0.817815
C57	C	1.682991	0.328298	1.151148
C58	C	1.363467	-0.521564	0.495149
C59	C	1.696800	-0.188231	0.828482
C60	C	2.030133	0.145103	1.161816
C61	C	1.358913	-0.599628	0.499697
C62	C	1.692246	-0.266295	0.833030
C63	C	2.025580	0.067038	1.166363
C64	C	0.820028	-0.338387	0.484486
C65	C	1.153361	-0.005053	0.817820
C66	C	1.486695	0.328280	1.151153
C67	C	0.929261	-0.338374	0.484481
C68	C	1.262595	-0.005041	0.817814
C69	C	1.595928	0.328292	1.151147
C70	C	1.418481	-0.636317	0.440153
C71	C	1.751814	-0.302984	0.773486
C72	C	2.085148	0.030350	1.106819
C73	C	1.414191	-0.709667	0.444422
C74	C	1.747524	-0.376334	0.777755
C75	C	2.080857	-0.043000	1.111089
C76	C	1.350337	-0.746327	0.508241
C77	C	1.683670	-0.412993	0.841574
C78	C	2.017003	-0.079660	1.174908
C79	C	1.290762	-0.709633	0.567787
C80	C	1.624096	-0.376299	0.901121
C81	C	1.957429	-0.042966	1.234454
C82	C	1.295048	-0.636284	0.563512
C83	C	1.628382	-0.302951	0.896846
C84	C	1.961715	0.030382	1.230179
C85	C	1.334304	-0.967791	0.524230
C86	C	1.667637	-0.634458	0.857563
C87	C	2.000970	-0.301124	1.190896
C88	C	1.330024	-1.041145	0.528502
C89	C	1.663357	-0.707811	0.861835
C90	C	1.996691	-0.374478	1.195169
C91	C	1.453452	-1.041174	0.405135
C92	C	1.786785	-0.707841	0.738468
C93	C	2.120118	-0.374507	1.071802
C94	C	1.457736	-0.967824	0.400870
C95	C	1.791070	-0.634491	0.734203
C96	C	2.124403	-0.301157	1.067537
C97	C	1.398158	-0.931136	0.460413
C98	C	1.731492	-0.597803	0.793746
C99	C	2.064825	-0.264470	1.127079
C100	C	1.345952	-0.821302	0.512608
C101	C	1.679285	-0.487969	0.845942
C102	C	2.012619	-0.154635	1.179275
C103	C	1.402539	-0.856162	0.456039
C104	C	1.735872	-0.522829	0.789373
C105	C	2.069206	-0.189496	1.122706
C106	C	1.625744	-0.338391	0.484492
C107	C	1.959077	-0.005058	0.817825
C108	C	2.292411	0.328276	1.151158
C109	C	1.732958	-0.338398	0.484498
C110	C	2.066291	-0.005065	0.817831
C111	C	2.399624	0.328269	1.151165
C112	C	1.374083	-0.338354	0.735090
C113	C	1.707416	-0.005021	1.068424
C114	C	2.040750	0.328313	1.401757
C115	C	1.374140	-0.338369	0.842305
C116	C	1.707474	-0.005036	1.175639
C117	C	2.040807	0.328298	1.508972
C118	C	1.384852	-0.155898	0.473777
C119	C	1.718185	0.177436	0.807111
C120	C	2.051518	0.510769	1.140444
C121	C	1.389592	-0.077834	0.468958
C122	C	1.722925	0.255500	0.802291
C123	C	2.056259	0.588833	1.135625
C124	C	1.374247	-0.338410	0.232886
C125	C	1.707580	-0.005077	0.566220
C126	C	2.040914	0.328256	0.899553
C127	C	1.374287	-0.338425	0.125673
C128	C	1.707621	-0.005092	0.459007
C129	C	2.040954	0.328241	0.792340
C130	C	1.374239	-0.338413	1.038603
C131	C	1.707572	-0.005080	1.371936
C132	C	2.040906	0.328254	1.705269
C133	C	1.374181	-0.338391	0.929369
C134	C	1.707514	-0.005057	1.262702
C135	C	2.040848	0.328276	1.596036
H136	H	1.470481	-0.606474	0.388187
H137	H	1.803814	-0.273141	0.721521
H138	H	2.137147	0.060193	1.054854
C139	C	1.268762	-0.927444	0.589726
C140	C	1.602096	-0.594111	0.923059
C141	C	1.935429	-0.260778	1.256393
N142	N	1.219392	-0.897053	0.639060
N143	N	1.552725	-0.563719	0.972393
N144	N	1.886059	-0.230386	1.305726
C145	C	1.220512	-0.749961	0.637979
C146	C	1.553846	-0.416628	0.971313
C147	C	1.887179	-0.083294	1.304646
N148	N	1.167599	-0.780336	0.690849
N149	N	1.500932	-0.447002	1.024183
N150	N	1.834265	-0.113669	1.357516
H151	H	1.246532	-0.606413	0.611990
H152	H	1.579865	-0.273080	0.945323
H153	H	1.913199	0.060253	1.278656
H154	H	1.501955	-1.071053	0.356658
H155	H	1.835289	-0.737719	0.689991
H156	H	2.168622	-0.404386	1.023324
C157	C	1.259774	-1.081469	0.598708
C158	C	1.593107	-0.748136	0.932041
C159	C	1.926440	-0.414802	1.265374
N160	N	1.206864	-1.111841	0.651584
N161	N	1.540198	-0.778508	0.984918
N162	N	1.873531	-0.445175	1.318251
H163	H	1.462699	-0.739536	0.395937
H164	H	1.796033	-0.406202	0.729271
H165	H	2.129366	-0.072869	1.062604
C166	C	1.472776	-0.815835	0.385840
C167	C	1.806109	-0.482501	0.719174
C168	C	2.139443	-0.149168	1.052507
N169	N	1.525682	-0.785453	0.332969
N170	N	1.859015	-0.452120	0.666303
N171	N	2.192349	-0.118787	0.999636
H172	H	1.509736	-0.937981	0.348904
H173	H	1.843069	-0.604647	0.682238
H174	H	2.176402	-0.271314	1.015571
H175	H	1.293966	-0.851159	0.564574
H176	H	1.627299	-0.517825	0.897908
H177	H	1.960633	-0.184492	1.231241
