data_functionalizedCrystal
_audit_creation_method	'MofGen! by Chris Wilmer'
_symmetry_space_group_name_H-M	'P1'
_symmetry_Int_Tables_number	1
_symmetry_cell_setting	triclinic
loop_
_symmetry_equiv_pos_as_xyz
  x,y,z
_cell_length_a	17.699104
_cell_length_b	15.995292
_cell_length_c	16.176319
_cell_angle_alpha	89.996390
_cell_angle_beta	89.991696
_cell_angle_gamma	83.380067
loop_
_atom_site_label
_atom_site_type_symbol
_atom_site_fract_x
_atom_site_fract_y
_atom_site_fract_z
O1	O	1.004225	0.105971	-0.068757
O2	O	1.504225	0.605971	0.431243
O3	O	0.783869	0.119729	-0.068755
O4	O	1.283869	0.619729	0.431245
O5	O	0.900094	-0.009052	-0.068757
O6	O	1.400094	0.490948	0.431243
O7	O	0.888001	0.234753	-0.068755
O8	O	1.388001	0.734753	0.431245
O9	O	0.900078	-0.009061	0.068736
O10	O	1.400078	0.490939	0.568736
O11	O	0.783853	0.119721	0.068739
O12	O	1.283853	0.619721	0.568739
O13	O	1.004209	0.105963	0.068736
O14	O	1.504209	0.605963	0.568736
Cu15	Cu	0.894030	0.112841	0.081291
Cu16	Cu	1.394030	0.612841	0.581291
Cu17	Cu	0.894049	0.112851	-0.081310
Cu18	Cu	1.394049	0.612851	0.418690
O19	O	0.887985	0.234745	0.068738
O20	O	1.387985	0.734745	0.568738
C21	C	0.755664	0.119229	-0.000008
C22	C	1.255664	0.619229	0.499992
C23	C	0.671644	0.117741	-0.000007
C24	C	1.171644	0.617741	0.499993
C25	C	0.146872	0.184943	-0.000015
C26	C	0.646872	0.684943	0.499985
C27	C	0.225818	0.186336	-0.000017
C28	C	0.725818	0.686336	0.499983
C29	C	0.274324	0.110736	-0.000018
C30	C	0.774324	0.610736	0.499982
C31	C	0.243881	0.033738	-0.000025
C32	C	0.743881	0.533738	0.499975
C33	C	0.164936	0.032346	-0.000028
C34	C	0.664936	0.532346	0.499972
C35	C	0.562255	0.039351	-0.000011
C36	C	1.062255	0.539351	0.499989
C37	C	0.641204	0.040749	-0.000005
C38	C	1.141204	0.540749	0.499995
C39	C	0.623137	0.193340	-0.000000
C40	C	1.123137	0.693340	0.500000
C41	C	0.544192	0.191948	-0.000004
C42	C	1.044192	0.691948	0.499996
C43	C	0.513756	0.114951	-0.000015
C44	C	1.013756	0.614951	0.499985
C45	C	0.428154	0.113442	-0.000014
C46	C	0.928154	0.613442	0.499986
C47	C	0.359925	0.112245	-0.000013
C48	C	0.859925	0.612245	0.499987
C49	C	0.899593	-0.040251	-0.000013
C50	C	1.399593	0.459749	0.499987
C51	C	0.898118	-0.133201	-0.000019
C52	C	1.398118	0.366799	0.499981
C53	C	0.892693	-0.470929	-0.000011
C54	C	1.392693	0.029071	0.499989
C55	C	0.976581	-0.447781	0.000295
C56	C	1.476581	0.052219	0.500295
C57	C	0.978175	-0.351108	-0.000018
C58	C	1.478175	0.148892	0.499982
C59	C	0.895385	-0.303378	-0.000015
C60	C	1.395385	0.196622	0.499985
C61	C	0.853454	-0.332393	-0.078527
C62	C	1.353454	0.167607	0.421473
C63	C	0.852444	-0.429181	-0.078590
C64	C	1.352444	0.070819	0.421410
C65	C	0.850713	-0.429045	0.077766
C66	C	1.350713	0.070955	0.577766
C67	C	0.853822	-0.332558	0.078800
C68	C	1.353822	0.167442	0.578800
C69	C	0.896902	-0.208685	-0.000019
C70	C	1.396902	0.291315	0.499981
C71	C	0.891174	-0.565622	-0.000012
C72	C	1.391174	-0.065622	0.499988
C73	C	1.032414	0.106463	-0.000013
C74	C	1.532414	0.606463	0.499987
C75	C	1.116434	0.107951	-0.000019
C76	C	1.616434	0.607951	0.499981
C77	C	0.888485	0.265944	-0.000008
C78	C	1.388485	0.765944	0.499992
C79	C	0.889960	0.358894	-0.000007
C80	C	1.389960	0.858894	0.499993
N81	N	0.894022	0.112834	0.195657
N82	N	1.394022	0.612834	0.695657
N83	N	0.894062	0.112852	-0.195675
N84	N	1.394062	0.612852	0.304325
C85	C	0.945502	0.055833	0.238920
C86	C	1.445502	0.555833	0.738920
C87	C	0.945505	0.055832	0.325467
C88	C	1.445505	0.555832	0.825467
C89	C	0.894033	0.112837	0.368749
C90	C	1.394033	0.612837	0.868749
C91	C	0.842547	0.169841	0.325480
C92	C	1.342547	0.669841	0.825480
C93	C	0.842540	0.169837	0.238935
C94	C	1.342540	0.669837	0.738935
C95	C	0.842573	0.169857	0.674508
C96	C	1.342573	0.669857	1.174508
C97	C	0.842586	0.169858	0.761060
C98	C	1.342586	0.669858	1.261060
C99	C	0.945538	0.055851	0.761040
C100	C	1.445538	0.555851	1.261040
C101	C	0.945531	0.055848	0.674495
C102	C	1.445531	0.555848	1.174495
C103	C	0.894044	0.112848	0.631233
C104	C	1.394044	0.612848	1.131233
C105	C	0.894039	0.112847	0.537389
C106	C	1.394039	0.612847	1.037389
C107	C	0.894040	0.112842	0.462592
C108	C	1.394040	0.612842	0.962592
H109	H	0.250597	0.249030	-0.000022
H110	H	0.750597	0.749030	0.499978
H111	H	0.987448	0.009432	0.639257
H112	H	1.487448	0.509432	1.139257
Cl113	Cl	0.891222	-0.472818	0.169643
Cl114	Cl	1.391222	0.027182	0.669643
Cl115	Cl	0.524003	-0.057446	-0.000045
Cl116	Cl	1.024003	0.442554	0.499955
Cl117	Cl	0.483217	0.286992	-0.000001
Cl118	Cl	0.983217	0.786992	0.499999
H119	H	1.011015	-0.332150	0.056261
H120	H	1.511015	0.167850	0.556261
H121	H	0.881497	-0.456051	-0.137282
H122	H	1.381497	0.043949	0.362718
Cl123	Cl	1.010223	-0.015829	0.379856
Cl124	Cl	1.510223	0.484171	0.879856
H125	H	0.647927	0.256035	0.000005
H126	H	1.147927	0.756035	0.500005
Cl127	Cl	0.757486	-0.451465	-0.084094
Cl128	Cl	1.257486	0.048535	0.415906
H129	H	0.283381	-0.027816	-0.000030
H130	H	0.783381	0.472184	0.499970
H131	H	0.140155	-0.030349	-0.000033
H132	H	0.640155	0.469651	0.499967
H133	H	0.987460	0.009435	0.796273
H134	H	1.487460	0.509435	1.296273
Cl135	Cl	0.759395	-0.283005	-0.083038
Cl136	Cl	1.259395	0.216995	0.416962
H137	H	0.800633	0.216253	0.360726
H138	H	1.300633	0.716253	0.860726
Cl139	Cl	1.029193	-0.322781	-0.087067
Cl140	Cl	1.529193	0.177219	0.412933
Cl141	Cl	0.898430	-0.301511	-0.168742
Cl142	Cl	1.398430	0.198489	0.331258
Cl143	Cl	0.900953	-0.303984	0.168479
Cl144	Cl	1.400953	0.196016	0.668479
Cl145	Cl	0.777871	0.241526	0.815472
Cl146	Cl	1.277871	0.741526	1.315472
Cl147	Cl	0.760520	-0.281478	0.086126
Cl148	Cl	1.260520	0.218522	0.586126
H149	H	0.800652	0.216270	0.639292
H150	H	1.300652	0.716270	1.139292
Cl151	Cl	0.702184	-0.054299	-0.000008
Cl152	Cl	1.202184	0.445701	0.499992
Cl153	Cl	1.026497	-0.491108	0.087225
Cl154	Cl	1.526497	0.008892	0.587225
Cl155	Cl	0.777817	0.241497	0.184548
Cl156	Cl	1.277817	0.741497	0.684548
Cl157	Cl	1.026239	-0.492670	-0.086148
Cl158	Cl	1.526239	0.007330	0.413852
H159	H	0.107383	0.246505	-0.000008
H160	H	0.607383	0.746505	0.499992
H161	H	0.788965	-0.442915	0.078297
H162	H	1.288965	0.057085	0.578297
H163	H	0.987420	0.009416	0.203685
H164	H	1.487420	0.509416	0.703685
