data_functionalizedCrystal
_audit_creation_method	'MofGen! by Chris Wilmer'
_symmetry_space_group_name_H-M	'P1'
_symmetry_Int_Tables_number	1
_symmetry_cell_setting	triclinic
loop_
_symmetry_equiv_pos_as_xyz
  x,y,z
_cell_length_a	19.077212
_cell_length_b	18.050590
_cell_length_c	18.050571
_cell_angle_alpha	89.910881
_cell_angle_beta	87.635582
_cell_angle_gamma	92.310617
loop_
_atom_site_label
_atom_site_type_symbol
_atom_site_fract_x
_atom_site_fract_y
_atom_site_fract_z
Zn1	Zn	1.076373	-0.249657	-0.465664
Zn2	Zn	1.576373	0.250343	0.034336
Zn3	Zn	1.076209	-0.373990	-0.341465
Zn4	Zn	1.576209	0.126010	0.158535
Zn5	Zn	0.958580	-0.254798	-0.336481
Zn6	Zn	1.458580	0.245202	0.163519
Zn7	Zn	0.958649	-0.378793	-0.460617
Zn8	Zn	1.458649	0.121207	0.039383
O9	O	1.017453	-0.314309	-0.401056
O10	O	1.517453	0.185691	0.098944
O11	O	1.174847	-0.261988	-0.453387
O12	O	1.674847	0.238012	0.046613
O13	O	1.060508	-0.358320	-0.236875
O14	O	1.560508	0.141680	0.263125
O15	O	0.974245	-0.150189	-0.353643
O16	O	1.474245	0.349811	0.146357
O17	O	1.174727	-0.353335	-0.362139
O18	O	1.674727	0.146665	0.137861
O19	O	1.060787	-0.146412	-0.448554
O20	O	1.560787	0.353588	0.051446
O21	O	0.974086	-0.270750	-0.233213
O22	O	1.474086	0.229250	0.266787
O23	O	0.860093	-0.275408	-0.348749
O24	O	1.360093	0.224592	0.151251
O25	O	0.974363	-0.361522	-0.565215
O26	O	1.474363	0.138478	-0.065215
O27	O	0.860144	-0.366507	-0.439951
O28	O	1.360144	0.133493	0.060049
O29	O	1.060854	-0.266646	-0.568923
O30	O	1.560854	0.233354	-0.068923
O31	O	1.060575	-0.478553	-0.357244
O32	O	1.560575	0.021447	0.142756
O33	O	0.974204	-0.482082	-0.444784
O34	O	1.474204	0.017918	0.055216
C35	C	0.834579	-0.322037	-0.393262
C36	C	1.334579	0.177963	0.106738
C37	C	0.756345	-0.325361	-0.389945
C38	C	1.256345	0.174639	0.110055
C39	C	0.315963	-0.349168	-0.366190
C40	C	0.815963	0.150832	0.133810
C41	C	0.389472	-0.346041	-0.369301
C42	C	0.889472	0.153959	0.130699
C43	C	0.426291	-0.296996	-0.418442
C44	C	0.926291	0.203004	0.081558
C45	C	0.389598	-0.251069	-0.464470
C46	C	0.889598	0.248931	0.035530
C47	C	0.316090	-0.254193	-0.461355
C48	C	0.816090	0.245807	0.038645
C49	C	0.646144	-0.282558	-0.432858
C50	C	1.146144	0.217442	0.067142
C51	C	0.719657	-0.279439	-0.435971
C52	C	1.219657	0.220561	0.064029
C53	C	0.719526	-0.374411	-0.340801
C54	C	1.219526	0.125589	0.159199
C55	C	0.646017	-0.377533	-0.337693
C56	C	1.146017	0.122467	0.162307
C57	C	0.609329	-0.331604	-0.383718
C58	C	1.109329	0.168396	0.116282
N59	N	0.501430	-0.293800	-0.421625
N60	N	1.001430	0.206200	0.078375
N61	N	0.534192	-0.334796	-0.380531
N62	N	1.034192	0.165204	0.119469
C63	C	1.017399	-0.507264	-0.401025
C64	C	1.517399	-0.007264	0.098975
C65	C	1.017440	-0.589808	-0.401038
C66	C	1.517440	-0.089808	0.098962
C67	C	1.064506	-0.787308	-0.353508
C68	C	1.564506	-0.287308	0.146492
C69	C	1.081748	-0.835839	-0.422021
C70	C	1.581748	-0.335839	0.077979
C71	C	1.017480	-0.740936	-0.401070
C72	C	1.517480	-0.240936	0.098930
C73	C	1.000309	-0.839484	-0.332590
C74	C	1.500309	-0.339484	0.167410
C75	C	1.017520	-0.886920	-0.401094
C76	C	1.517520	-0.386920	0.098906
C77	C	1.034755	-0.788379	-0.469620
C78	C	1.534755	-0.288379	0.030380
C79	C	0.953286	-0.792021	-0.380142
C80	C	1.453286	-0.292021	0.119858
C81	C	0.970504	-0.840530	-0.448701
C82	C	1.470504	-0.340530	0.051299
C83	C	1.017459	-0.656839	-0.401055
C84	C	1.517459	-0.156839	0.098945
C85	C	1.017541	-0.971015	-0.401117
C86	C	1.517541	-0.471015	0.098883
C87	C	1.201040	-0.306552	-0.408882
C88	C	1.701040	0.193448	0.091118
C89	C	1.279274	-0.303246	-0.412216
C90	C	1.779274	0.196754	0.087784
C91	C	1.017634	-0.314046	-0.594770
C92	C	1.517634	0.185954	-0.094770
C93	C	1.017712	-0.313934	-0.677320
C94	C	1.517712	0.186066	-0.177320
C95	C	1.017526	-0.120601	-0.401106
C96	C	1.517526	0.379399	0.098894
C97	C	1.017558	-0.038053	-0.401126
C98	C	1.517558	0.461947	0.098874
C99	C	1.017312	-0.314516	-0.208098
C100	C	1.517312	0.185484	0.291902
C101	C	1.017371	-0.314413	-0.125555
C102	C	1.517371	0.185587	0.374445
C103	C	0.970218	-0.266894	0.125231
C104	C	1.470218	0.233106	0.625231
C105	C	0.953402	-0.335540	0.076765
C106	C	1.453402	0.164460	0.576765
C107	C	1.017597	-0.314097	0.171555
C108	C	1.517597	0.185903	0.671555
C109	C	1.034268	-0.245614	0.072945
C110	C	1.534268	0.254386	0.572945
C111	C	1.017484	-0.314249	0.025575
C112	C	1.517484	0.185751	0.525575
C113	C	1.000749	-0.382779	0.124179
C114	C	1.500749	0.117221	0.624179
C115	C	1.081644	-0.292806	0.120362
C116	C	1.581644	0.207194	0.620362
C117	C	1.064853	-0.361497	0.071918
C118	C	1.564853	0.138503	0.571918
C119	C	1.017660	-0.314009	0.255651
C120	C	1.517660	0.185991	0.755651
C121	C	1.017421	-0.314345	-0.058518
C122	C	1.517421	0.185655	0.441482
H123	H	0.616043	-0.417470	-0.297677
H124	H	1.116043	0.082530	0.202323
H125	H	1.135841	-0.274711	0.139625
H126	H	1.635841	0.225289	0.639625
C127	C	0.759888	-0.424921	-0.290169
C128	C	1.259888	0.075079	0.209831
N129	N	0.790289	-0.462965	-0.252027
N130	N	1.290289	0.037035	0.247973
C131	C	1.155110	-0.861972	-0.445951
C132	C	1.655110	-0.361972	0.054049
N133	N	1.210367	-0.881653	-0.463970
N134	N	1.710367	-0.381653	0.036030
H135	H	1.104288	-0.764000	-0.313330
H136	H	1.604288	-0.264000	0.186670
C137	C	1.054487	-0.758213	-0.547896
C138	C	1.554487	-0.258213	-0.047896
N139	N	1.069353	-0.735490	-0.606852
N140	N	1.569353	-0.235490	-0.106852
C141	C	0.916799	-0.871832	-0.503117
C142	C	1.416799	-0.371832	-0.003117
N143	N	0.876351	-0.895408	-0.544104
N144	N	1.376351	-0.395408	-0.044104
H145	H	0.749633	-0.239495	-0.475987
H146	H	1.249633	0.260505	0.024013
H147	H	0.898997	-0.772664	-0.362407
H148	H	1.398997	-0.272664	0.137593
C149	C	0.605797	-0.232039	-0.483493
C150	C	1.105797	0.267961	0.016507
N151	N	0.575406	-0.193988	-0.521635
N152	N	1.075406	0.306012	-0.021635
C153	C	0.430102	-0.197116	-0.518524
C154	C	0.930102	0.302884	-0.018524
N155	N	0.460608	-0.156479	-0.559239
N156	N	0.960608	0.343521	-0.059239
H157	H	0.985770	-0.861904	-0.274668
H158	H	1.485770	-0.361904	0.225332
C159	C	0.429826	-0.396559	-0.318669
C160	C	0.929826	0.103441	0.181331
N161	N	0.460220	-0.434611	-0.280530
N162	N	0.960220	0.065389	0.219470
H163	H	0.286219	-0.216796	-0.498832
H164	H	0.786219	0.283204	0.001168
H165	H	1.048417	-0.187634	0.050474
H166	H	1.548417	0.312366	0.550474
H167	H	0.930169	-0.226964	0.148577
H168	H	1.430169	0.273036	0.648577
C169	C	0.880165	-0.359960	0.050760
C170	C	1.380165	0.140040	0.550760
N171	N	0.825002	-0.378348	0.031174
N172	N	1.325002	0.121652	0.531174
H173	H	0.986539	-0.440778	0.146564
H174	H	1.486539	0.059222	0.646564
H175	H	0.285990	-0.389110	-0.326178
H176	H	0.785990	0.110890	0.173822
C177	C	1.118916	-0.415577	0.040560
C178	C	1.618916	0.084423	0.540560
N179	N	1.159632	-0.456313	0.016939
N180	N	1.659632	0.043687	0.516939
