data_functionalizedCrystal
_audit_creation_method	'MofGen! by Chris Wilmer'
_symmetry_space_group_name_H-M	'P1'
_symmetry_Int_Tables_number	1
_symmetry_cell_setting	triclinic
loop_
_symmetry_equiv_pos_as_xyz
  x,y,z
_cell_length_a	11.169417
_cell_length_b	18.215404
_cell_length_c	18.215399
_cell_angle_alpha	90.027515
_cell_angle_beta	89.983970
_cell_angle_gamma	89.974928
loop_
_atom_site_label
_atom_site_type_symbol
_atom_site_fract_x
_atom_site_fract_y
_atom_site_fract_z
Zn1	Zn	1.834809	0.292967	-0.416043
Zn2	Zn	1.834663	0.416039	-0.292978
Zn3	Zn	1.634107	0.292993	-0.292999
Zn4	Zn	1.634055	0.415999	-0.416011
O5	O	1.734408	0.354500	-0.354508
O6	O	2.002739	0.309299	-0.399723
O7	O	1.808019	0.399744	-0.189997
O8	O	1.660813	0.190005	-0.309343
O9	O	2.002632	0.399719	-0.309308
O10	O	1.808268	0.189986	-0.399744
O11	O	1.660672	0.309343	-0.190012
O12	O	1.466150	0.309305	-0.309312
O13	O	1.660724	0.399652	-0.519000
O14	O	1.466112	0.399677	-0.399689
O15	O	1.808217	0.309261	-0.519023
O16	O	1.807969	0.519018	-0.309276
O17	O	1.660583	0.518989	-0.399668
C18	C	1.422584	0.354490	-0.354499
C19	C	1.289184	0.354503	-0.354513
C20	C	1.734287	0.545706	-0.354483
C21	C	1.734345	0.627505	-0.354496
C22	C	1.811275	0.815689	-0.307526
C23	C	1.811331	0.892548	-0.307548
C24	C	1.657725	0.892558	-0.401596
C25	C	1.657676	0.815701	-0.401577
C26	C	1.734449	0.777268	-0.354538
C27	C	1.734554	0.930984	-0.354579
C28	C	1.734614	1.014318	-0.354603
C29	C	1.734391	0.693929	-0.354515
C30	C	2.047451	0.354510	-0.354517
C31	C	2.180851	0.354515	-0.354521
C32	C	1.734570	1.162547	-0.354563
C33	C	1.734658	1.080748	-0.354620
C34	C	1.734481	0.354449	-0.546461
C35	C	1.734513	0.354427	-0.628260
C36	C	1.811340	0.307317	-0.816467
C37	C	1.811354	0.307295	-0.893326
C38	C	1.657770	0.401424	-0.893290
C39	C	1.657751	0.401441	-0.816433
C40	C	1.734542	0.354389	-0.778023
C41	C	1.734576	0.354350	-0.931740
C42	C	1.734591	0.354327	-1.015073
C43	C	1.734526	0.354410	-0.694684
C44	C	1.734404	0.354497	-0.163302
C45	C	1.734606	0.354311	-0.081503
H46	H	1.873892	0.923827	-0.269267
C47	C	1.573270	0.934836	-0.453327
H48	H	1.584291	0.986112	-0.446600
H49	H	1.590770	0.922198	-0.502781
H50	H	1.492631	0.922286	-0.442501
C51	C	1.573317	0.453184	-0.935543
H52	H	1.584336	0.446439	-0.986823
H53	H	1.492682	0.442419	-0.922946
H54	H	1.590853	0.502636	-0.922934
C55	C	1.573162	0.773435	-0.453292
H56	H	1.527434	0.807330	-0.481302
H57	H	1.619022	0.743406	-0.485373
H58	H	1.520875	0.743500	-0.425098
H59	H	1.873865	0.269001	-0.785197
C60	C	1.895842	0.255526	-0.935615
H61	H	1.884853	0.262249	-0.986890
H62	H	1.976466	0.266307	-0.923021
H63	H	1.878316	0.206077	-0.923031
C64	C	1.573271	0.453221	-0.774138
H65	H	1.584250	0.446486	-0.722864
H66	H	1.590796	0.502667	-0.786719
H67	H	1.492639	0.442441	-0.786730
C68	C	1.895733	0.773416	-0.255793
H69	H	1.941503	0.807309	-0.227803
H70	H	1.849842	0.743479	-0.223693
H71	H	1.947981	0.743389	-0.283973
