data_functionalizedCrystal
_audit_creation_method	'MofGen! by Chris Wilmer'
_symmetry_space_group_name_H-M	'P1'
_symmetry_Int_Tables_number	1
_symmetry_cell_setting	triclinic
loop_
_symmetry_equiv_pos_as_xyz
  x,y,z
_cell_length_a	14.044220
_cell_length_b	14.044191
_cell_length_c	8.140239
_cell_angle_alpha	90.000073
_cell_angle_beta	89.997843
_cell_angle_gamma	86.809673
loop_
_atom_site_label
_atom_site_type_symbol
_atom_site_fract_x
_atom_site_fract_y
_atom_site_fract_z
O1	O	-1.277171	0.230167	-0.136413
O2	O	-1.000500	0.221861	-0.136456
O3	O	-1.134679	0.087678	-0.136438
O4	O	-1.142992	0.364350	-0.136431
O5	O	-1.134671	0.087675	0.136789
O6	O	-1.000491	0.221859	0.136772
O7	O	-1.277163	0.230164	0.136814
Zn8	Zn	-1.138826	0.226011	0.180173
Zn9	Zn	-1.138837	0.226014	-0.179815
O10	O	-1.142984	0.364348	0.136797
C11	C	-0.964874	0.218224	0.000152
C12	C	-0.858731	0.207380	0.000136
C13	C	-1.131039	0.052054	0.000171
C14	C	-1.120191	-0.054089	0.000156
C15	C	-1.312789	0.233801	0.000203
C16	C	-1.418932	0.244646	0.000209
C17	C	-0.664392	0.187553	0.000168
C18	C	-0.613264	0.264468	0.000177
C19	C	-0.505128	0.253436	0.000194
C20	C	-0.772539	0.198583	0.000150
C21	C	-1.146624	0.399971	0.000184
C22	C	-1.157472	0.506114	0.000188
C23	C	-1.100371	0.751572	0.000165
C24	C	-1.177287	0.700447	0.000179
C25	C	-1.166259	0.592310	0.000184
C26	C	-1.111398	0.859719	0.000160
N27	N	-1.138826	0.226009	0.425856
N28	N	-1.138844	0.226009	-0.425498
H29	H	-0.650706	0.338602	0.000171
O30	O	-1.265779	0.745002	0.000423
C31	C	-1.315639	0.718285	0.141969
H32	H	-1.283892	0.646973	0.189135
H33	H	-1.393997	0.711320	0.110173
H34	H	-1.309347	0.774957	0.241055
H35	H	-1.026245	0.714131	0.000158
H36	H	-0.626954	0.113425	0.000174
