data_functionalizedCrystal
_audit_creation_method	'MofGen! by Chris Wilmer'
_symmetry_space_group_name_H-M	'P1'
_symmetry_Int_Tables_number	1
_symmetry_cell_setting	triclinic
loop_
_symmetry_equiv_pos_as_xyz
  x,y,z
_cell_length_a	6.817900
_cell_length_b	17.982959
_cell_length_c	11.452834
_cell_angle_alpha	82.898892
_cell_angle_beta	108.697278
_cell_angle_gamma	102.451857
loop_
_atom_site_label
_atom_site_type_symbol
_atom_site_fract_x
_atom_site_fract_y
_atom_site_fract_z
V1	V	-4.050645	-0.054906	-0.380914
O2	O	-4.042911	0.054541	-0.373139
O3	O	-3.996989	-0.158787	-0.378813
O4	O	-4.014945	-0.031287	-0.546814
O5	O	-4.024831	-0.073842	-0.203975
V6	V	-4.533308	-0.044506	-0.359690
O7	O	-4.313789	-0.077720	-0.427472
O8	O	-4.720361	-0.021692	-0.313132
O9	O	-4.363756	0.059376	-0.361791
O10	O	-4.658438	-0.153953	-0.367465
O11	O	-4.676518	-0.025570	-0.536629
O12	O	-4.345800	-0.068124	-0.193790
C13	C	-3.840301	-0.184823	-0.372934
C14	C	-3.877803	-0.269601	-0.372322
C15	C	-3.863204	-0.022183	-0.587235
C16	C	-3.915265	-0.003560	-0.722862
C17	C	-4.077805	-0.312501	-0.378139
C18	C	-4.113034	-0.392158	-0.377572
C19	C	-3.948253	-0.428914	-0.371178
C20	C	-3.748235	-0.386008	-0.365364
C21	C	-3.713013	-0.306352	-0.365941
C22	C	-3.890278	-0.707252	-0.363040
C23	C	-3.925514	-0.786914	-0.362460
C24	C	-4.290298	-0.793058	-0.374671
C25	C	-4.255076	-0.713402	-0.375248
C26	C	-4.055066	-0.670503	-0.369440
C27	C	-4.016870	-0.584129	-0.370058
C28	C	-3.986442	-0.515286	-0.370551
C29	C	-3.974757	-0.059325	-0.800210
C30	C	-4.028566	-0.040078	-0.940388
C31	C	-4.183787	0.085407	-0.367666
C32	C	-4.125524	0.170185	-0.368286
C33	C	-4.160883	-0.077232	-0.153363
C34	C	-4.088061	-0.095851	-0.017735
H35	H	-4.211989	-0.282580	-0.383334
O36	O	-3.747787	-0.826560	-0.355588
H37	H	-3.617474	-0.812741	-0.269201
O38	O	-3.900493	0.078561	-0.772585
H39	H	-4.009185	0.105347	-0.744340
O40	O	-4.013819	0.042042	-0.990131
H41	H	-3.849742	0.073254	-0.952551
H42	H	-4.275893	-0.427084	-0.382310
O43	O	-4.102755	-0.177974	-0.968011
H44	H	-4.218641	-0.191357	-0.915433
O45	O	-4.432814	-0.673754	-0.382177
H46	H	-4.577822	-0.716967	-0.386150
H47	H	-3.550155	-0.271424	-0.361209
H48	H	-3.727419	-0.672333	-0.358305
O49	O	-4.506038	-0.839326	-0.380940
H50	H	-4.502864	-0.900891	-0.379477
H51	H	-3.985866	-0.121317	-0.762652
H52	H	-3.614074	-0.415941	-0.360166
