data_functionalizedCrystal
_audit_creation_method	'MofGen! by Chris Wilmer'
_symmetry_space_group_name_H-M	'P1'
_symmetry_Int_Tables_number	1
_symmetry_cell_setting	triclinic
loop_
_symmetry_equiv_pos_as_xyz
  x,y,z
_cell_length_a	8.559649
_cell_length_b	10.540539
_cell_length_c	7.681481
_cell_angle_alpha	84.202085
_cell_angle_beta	94.913240
_cell_angle_gamma	77.152078
loop_
_atom_site_label
_atom_site_type_symbol
_atom_site_fract_x
_atom_site_fract_y
_atom_site_fract_z
O1	O	2.104686	-0.029542	-0.146402
O2	O	1.640228	0.035941	-0.146408
O3	O	1.883054	-0.182616	-0.146403
O4	O	1.861861	0.189016	-0.146407
O5	O	1.912941	-0.209571	0.146456
O6	O	1.670116	0.008986	0.146450
O7	O	2.134573	-0.056497	0.146457
Zn8	Zn	1.907089	-0.028035	0.192951
Zn9	Zn	1.867712	0.007479	-0.192902
O10	O	1.891748	0.162061	0.146451
C11	C	1.595699	0.027426	0.000020
C12	C	1.418487	0.042198	0.000017
C13	C	1.896408	-0.243230	0.000023
C14	C	1.891652	-0.383679	0.000014
C15	C	1.709382	-0.547970	-0.000646
C16	C	1.714270	-0.401917	0.000013
C17	C	1.994083	-0.469667	0.167252
C18	C	1.988043	-0.615591	0.167393
C19	C	1.957664	-0.585834	-0.165642
C20	C	1.959072	-0.438819	-0.167853
C21	C	2.179102	-0.047981	0.000025
C22	C	2.356313	-0.062752	0.000016
C23	C	1.878393	0.222675	0.000021
C24	C	1.883148	0.363125	0.000019
N25	N	1.933975	-0.052274	0.456286
N26	N	1.840839	0.031708	-0.456237
H27	H	1.634867	-0.341248	-0.119869
C28	C	2.062433	-0.168084	0.557884
N29	N	2.159183	-0.255312	0.634410
H30	H	1.438655	-0.163903	0.000009
H31	H	2.124982	-0.461523	0.173472
H32	H	1.336134	0.143358	0.000006
C33	C	1.598173	-0.561797	-0.162653
N34	N	1.514407	-0.572224	-0.284677
H35	H	1.651768	-0.581848	0.118609
H36	H	2.085671	-0.646370	-0.166765
C37	C	1.712387	0.147510	0.442172
N38	N	1.615633	0.234734	0.365642
H39	H	1.658885	-0.364132	0.120094
H40	H	1.937713	-0.648691	0.292404
H41	H	2.116388	-0.677614	0.174981
C42	C	1.931124	-0.419215	0.335383
N43	N	1.883692	-0.381216	0.462016
C44	C	1.862624	-0.604572	-0.336884
N45	N	1.791023	-0.618682	-0.465856
C46	C	1.857715	-0.359339	-0.334998
N47	N	1.781357	-0.299476	-0.460888
H48	H	2.087366	-0.427208	-0.177950
