data_functionalizedCrystal
_audit_creation_method	'MofGen! by Chris Wilmer'
_symmetry_space_group_name_H-M	'P1'
_symmetry_Int_Tables_number	1
_symmetry_cell_setting	triclinic
loop_
_symmetry_equiv_pos_as_xyz
  x,y,z
_cell_length_a	12.759401
_cell_length_b	16.120484
_cell_length_c	12.759393
_cell_angle_alpha	92.864008
_cell_angle_beta	89.979062
_cell_angle_gamma	92.926992
loop_
_atom_site_label
_atom_site_type_symbol
_atom_site_fract_x
_atom_site_fract_y
_atom_site_fract_z
Zn1	Zn	1.584985	-0.331832	-0.615183
Zn2	Zn	1.575933	-0.471268	-0.448395
Zn3	Zn	1.409280	-0.331877	-0.439521
Zn4	Zn	1.400336	-0.471209	-0.624029
O5	O	1.492634	-0.401546	-0.531782
O6	O	1.730804	-0.350334	-0.593070
O7	O	1.553781	-0.452820	-0.300200
O8	O	1.440119	-0.215205	-0.455406
O9	O	1.724154	-0.452777	-0.470532
O10	O	1.569208	-0.215173	-0.584465
O11	O	1.431342	-0.350410	-0.293680
O12	O	1.261073	-0.350354	-0.463984
O13	O	1.424875	-0.452678	-0.769874
O14	O	1.254502	-0.452721	-0.599541
O15	O	1.560535	-0.350278	-0.763375
O16	O	1.545108	-0.587925	-0.479110
O17	O	1.416098	-0.587883	-0.608147
C18	C	1.219667	-0.401536	-0.531760
C19	C	1.102889	-0.401552	-0.531777
C20	C	1.044628	-0.454936	-0.602261
C21	C	0.934904	-0.454939	-0.602282
C22	C	0.941712	-0.348172	-0.461326
C23	C	1.051434	-0.348166	-0.461311
C24	C	1.478679	-0.618154	-0.545574
C25	C	1.472805	-0.710820	-0.551509
C26	C	1.462088	-0.880481	-0.562368
C27	C	1.523367	-0.921772	-0.501213
C28	C	1.517404	-1.016177	-0.507255
C29	C	1.468050	-0.786067	-0.556327
C30	C	1.766666	-0.401557	-0.531804
C31	C	1.883442	-0.401562	-0.531814
C32	C	1.492717	-0.401466	-0.805810
C33	C	1.492753	-0.401432	-0.922585
C34	C	1.506671	-0.184093	-0.517959
C35	C	1.512653	-0.091427	-0.512068
C36	C	1.563397	-0.348104	-0.974064
C37	C	1.563417	-0.348068	-1.083786
C38	C	1.422146	-0.454696	-1.090540
C39	C	1.422122	-0.454727	-0.980820
C40	C	1.492614	-0.401566	-0.258816
C41	C	1.492797	-0.401365	-0.142027
H42	H	1.098873	-0.304689	-0.403914
O43	O	0.878466	-0.506876	-0.670787
C44	C	0.883302	-0.612740	-0.810634
C45	C	0.947343	-0.553976	-0.733088
H46	H	0.938963	-0.650823	-0.861039
H47	H	0.829127	-0.656344	-0.765143
H48	H	0.834398	-0.574507	-0.863181
H49	H	0.996309	-0.592143	-0.680522
H50	H	1.001453	-0.510370	-0.778644
H51	H	1.364643	-0.498088	-1.137969
O52	O	1.394294	-0.922977	-0.630289
C53	C	1.373989	-1.021308	-0.778319
C54	C	1.450880	-0.973235	-0.701459
H55	H	1.419710	-1.061941	-0.835893
H56	H	1.316572	-1.062203	-0.732646
H57	H	1.328757	-0.975317	-0.823366
H58	H	1.496184	-1.019167	-0.656393
H59	H	1.508228	-0.932328	-0.747192
O60	O	1.353600	-0.506654	-0.930861
C61	C	1.293393	-0.648470	-0.906329
C62	C	1.371066	-0.589765	-0.962961
H63	H	1.307472	-0.715676	-0.932277
H64	H	1.305507	-0.639406	-0.817898
H65	H	1.209636	-0.633776	-0.926940
H66	H	1.454853	-0.604423	-0.942435
H67	H	1.358860	-0.598840	-1.051377
O68	O	1.094736	-0.506671	-0.670761
C69	C	1.217904	-0.518007	-0.813335
C70	C	1.161252	-0.459326	-0.735798
H71	H	1.271679	-0.479751	-0.865952
H72	H	1.266517	-0.561540	-0.767835
H73	H	1.157390	-0.556179	-0.863670
H74	H	1.221694	-0.421100	-0.685444
H75	H	1.112620	-0.415847	-0.781361
H76	H	1.580308	-0.886221	-0.444319
O77	O	1.631938	-0.296290	-1.133956
C78	C	1.694617	-0.249007	-1.299991
C79	C	1.616947	-0.307680	-1.243307
H80	H	1.682539	-0.258207	-1.388411
H81	H	1.680501	-0.181771	-1.274211
H82	H	1.778374	-0.263647	-1.279304
H83	H	1.533160	-0.293114	-1.263966
H84	H	1.631154	-0.374898	-1.269091
O85	O	0.891893	-0.296243	-0.392833
C86	C	0.910225	-0.190385	-0.252974
C87	C	0.966775	-0.249136	-0.330507
H88	H	0.970741	-0.152296	-0.202548
H89	H	0.861714	-0.146785	-0.298477
H90	H	0.856340	-0.228628	-0.200446
H91	H	1.020713	-0.210961	-0.383054
H92	H	1.015220	-0.292739	-0.284939
O93	O	1.632037	-0.296252	-0.917650
C94	C	1.772196	-0.190519	-0.922538
C95	C	1.694502	-0.249189	-0.986549
H96	H	1.822735	-0.152466	-0.978216
H97	H	1.726818	-0.146883	-0.868417
H98	H	1.824605	-0.228824	-0.873584
H99	H	1.642075	-0.210951	-1.035564
H100	H	1.739946	-0.292827	-1.040604
