data_functionalizedCrystal
_audit_creation_method	'MofGen! by Chris Wilmer'
_symmetry_space_group_name_H-M	'P1'
_symmetry_Int_Tables_number	1
_symmetry_cell_setting	triclinic
loop_
_symmetry_equiv_pos_as_xyz
  x,y,z
_cell_length_a	19.805407
_cell_length_b	17.640280
_cell_length_c	19.805399
_cell_angle_alpha	78.776890
_cell_angle_beta	89.980427
_cell_angle_gamma	78.800112
loop_
_atom_site_label
_atom_site_type_symbol
_atom_site_fract_x
_atom_site_fract_y
_atom_site_fract_z
Zn1	Zn	1.089281	-0.314680	-0.328317
Zn2	Zn	1.112106	-0.446853	-0.192279
Zn3	Zn	0.976099	-0.314701	-0.215138
Zn4	Zn	0.998962	-0.446811	-0.305433
O5	O	1.044112	-0.380761	-0.260292
O6	O	1.187026	-0.332221	-0.310282
O7	O	1.094048	-0.429350	-0.100590
O8	O	0.971992	-0.204095	-0.249296
O9	O	1.203796	-0.429329	-0.210335
O10	O	1.055146	-0.204079	-0.332448
O11	O	0.994125	-0.332258	-0.117385
O12	O	0.884414	-0.332218	-0.227105
O13	O	1.010958	-0.429257	-0.403190
O14	O	0.901211	-0.429278	-0.293444
O15	O	1.077315	-0.332180	-0.420003
O16	O	1.116217	-0.557452	-0.188145
O17	O	1.033091	-0.557421	-0.271278
C18	C	0.868253	-0.380746	-0.260272
C19	C	0.793023	-0.380759	-0.260277
C20	C	0.766456	-0.431374	-0.294736
C21	C	0.695768	-0.431376	-0.294746
C22	C	0.651649	-0.380765	-0.260291
C23	C	0.678220	-0.330144	-0.225831
C24	C	0.748906	-0.330139	-0.225826
C25	C	0.393149	-0.330161	-0.225850
C26	C	0.322459	-0.330172	-0.225856
C27	C	0.340012	-0.431398	-0.294770
C28	C	0.410698	-0.431393	-0.294765
C29	C	0.437262	-0.380770	-0.260308
C30	C	0.513910	-0.380768	-0.260299
C31	C	0.575003	-0.380770	-0.260295
C32	C	1.079630	-0.586114	-0.224762
C33	C	1.094887	-0.673965	-0.209586
C34	C	0.928484	-0.962953	-0.375835
C35	C	0.942822	-1.045502	-0.361553
C36	C	1.029435	-1.045469	-0.275073
C37	C	1.015107	-0.962918	-0.289351
C38	C	0.964630	-0.921667	-0.339732
C39	C	1.051253	-0.921632	-0.253247
C40	C	1.036924	-0.839088	-0.267522
C41	C	0.986448	-0.797831	-0.317899
C42	C	0.950301	-0.839123	-0.354006
C43	C	1.101726	-0.962885	-0.202863
C44	C	1.137872	-0.921598	-0.166760
C45	C	1.123546	-0.839053	-0.181037
C46	C	1.073071	-0.797796	-0.231415
C47	C	1.159693	-0.797761	-0.144930
C48	C	1.145364	-0.715217	-0.159204
C49	C	1.058741	-0.715252	-0.245689
C50	C	1.220657	-0.380777	-0.260311
C51	C	1.295890	-0.380784	-0.260320
C52	C	1.044141	-0.380712	-0.436843
C53	C	1.044154	-0.380690	-0.512079
C54	C	1.008473	-0.174606	-0.295974
C55	C	0.993286	-0.086756	-0.311180
C56	C	1.078706	-0.330140	-0.556179
C57	C	1.078709	-0.330117	-0.626872
C58	C	1.044163	-0.380649	-0.653462
C59	C	1.009606	-0.431202	-0.609356
C60	C	1.009600	-0.431220	-0.538666
C61	C	1.009632	-0.431128	-0.894442
C62	C	1.009643	-0.431107	-0.965138
C63	C	1.078741	-0.330025	-0.982648
C64	C	1.078735	-0.330043	-0.911958
C65	C	1.044175	-0.380593	-0.867859
C66	C	1.044171	-0.380616	-0.791206
C67	C	1.044171	-0.380631	-0.730112
C68	C	1.044112	-0.380754	-0.084437
C69	C	1.044192	-0.380553	-0.009240
H70	H	0.446618	-0.472609	-0.322819
O71	O	0.976192	-0.480280	-0.990982
C72	C	0.985535	-0.586939	-1.052356
C73	C	1.023501	-0.531314	-1.023107
H74	H	1.023765	-0.628202	-1.078348
H75	H	0.960855	-0.623127	-1.008714
H76	H	0.943861	-0.550621	-1.091703
H77	H	1.065205	-0.567571	-0.983770
H78	H	1.048133	-0.495123	-1.066786
H79	H	1.200787	-0.831360	-0.103905
H80	H	0.981503	-0.472300	-0.858543
H81	H	1.070531	-1.079067	-0.234051
O82	O	1.180558	-0.675228	-0.124091
C83	C	1.267952	-0.683897	-0.036770
C84	C	1.228162	-0.729282	-0.076500
H85	H	1.306438	-0.727580	0.001727
H86	H	1.296655	-0.645223	-0.074531
H87	H	1.230178	-0.645279	-0.008058
H88	H	1.265888	-0.767943	-0.105214
H89	H	1.199448	-0.767907	-0.038705
H90	H	1.106847	-0.288956	-0.662776
H91	H	0.642291	-0.288932	-0.197781
H92	H	0.981475	-0.472343	-0.631011
H93	H	0.770534	-0.288918	-0.197770
H94	H	1.017643	-0.681663	-0.286719
H95	H	0.802375	-0.472590	-0.322791
O96	O	1.112274	-0.280978	-0.530470
C97	C	1.180844	-0.180742	-0.555303
C98	C	1.142844	-0.236369	-0.584508
H99	H	1.205582	-0.144673	-0.598976
H100	H	1.142644	-0.139367	-0.529384
H101	H	1.222480	-0.217053	-0.515912
H102	H	1.101210	-0.200121	-0.623924
H103	H	1.181086	-0.277746	-0.610385
O104	O	0.972523	-0.717647	-0.331644
C105	C	0.934575	-0.599237	-0.287230
C106	C	0.950335	-0.690043	-0.271566
H107	H	0.916619	-0.576892	-0.238672
H108	H	0.983076	-0.576728	-0.305175
H109	H	0.892313	-0.576867	-0.329464
H110	H	0.992576	-0.712480	-0.229321
H111	H	0.901801	-0.712499	-0.253661
O112	O	1.112373	-0.281063	-0.886076
C113	C	1.201861	-0.270433	-0.808076
C114	C	1.163843	-0.326001	-0.837342
H115	H	1.243473	-0.306742	-0.768659
H116	H	1.226607	-0.234302	-0.851703
H117	H	1.163607	-0.229105	-0.782166
H118	H	1.202053	-0.367377	-0.863245
H119	H	1.139085	-0.362076	-0.793689
O120	O	0.907818	-1.085697	-0.396645
C121	C	0.914822	-1.178821	-0.471941
C122	C	0.954550	-1.133362	-0.432224
H123	H	0.952587	-1.217356	-0.500728
H124	H	0.886189	-1.217566	-0.434167
H125	H	0.876267	-1.135143	-0.510371
H126	H	0.993140	-1.176983	-0.393794
H127	H	0.983137	-1.094605	-0.470039
O128	O	1.112247	-0.280938	-1.025589
C129	C	1.142916	-0.236133	-1.142247
C130	C	1.104930	-0.291747	-1.093700
H131	H	1.137026	-0.244865	-1.197322
H132	H	1.120009	-0.172387	-1.139427
H133	H	1.199884	-0.250016	-1.125916
H134	H	1.047959	-0.277936	-1.109997
H135	H	1.127893	-0.355476	-1.096525
O136	O	0.976037	-0.480409	-0.495914
C137	C	0.907484	-0.580656	-0.486004
C138	C	0.945478	-0.524999	-0.534494
H139	H	0.882755	-0.616710	-0.517178
H140	H	0.945685	-0.622045	-0.445775
H141	H	0.865841	-0.544371	-0.459161
H142	H	0.987119	-0.561221	-0.561384
H143	H	0.907234	-0.483609	-0.574681
O144	O	0.670034	-0.480515	-0.328314
C145	C	0.655101	-0.519058	-0.436723
C146	C	0.684288	-0.463365	-0.398790
H147	H	0.666602	-0.505201	-0.493712
H148	H	0.680036	-0.582779	-0.413765
H149	H	0.597007	-0.510387	-0.430776
H150	H	0.742379	-0.471966	-0.404723
H151	H	0.659301	-0.399665	-0.421756
O152	O	0.314088	-0.480495	-0.328240
C153	C	0.212978	-0.525404	-0.358762
C154	C	0.242241	-0.469749	-0.320847
H155	H	0.154889	-0.516747	-0.352785
H156	H	0.224466	-0.511609	-0.415759
H157	H	0.237932	-0.589107	-0.335768
H158	H	0.217304	-0.406027	-0.343783
H159	H	0.230762	-0.483612	-0.263852
O160	O	0.901234	-0.799166	-0.402957
C161	C	0.816877	-0.807901	-0.487285
C162	C	0.872409	-0.853250	-0.431855
H163	H	0.793566	-0.851608	-0.510675
H164	H	0.774758	-0.769320	-0.462890
H165	H	0.841236	-0.769194	-0.529363
H166	H	0.848112	-0.892000	-0.389760
H167	H	0.914521	-0.891781	-0.456301
O168	O	1.115713	-1.043068	-0.189106
C169	C	1.153594	-1.161470	-0.233548
C170	C	1.137792	-1.070665	-0.249216
H171	H	1.171435	-1.183810	-0.282140
H172	H	1.195907	-1.183903	-0.191368
H173	H	1.105087	-1.183924	-0.215541
H174	H	1.186260	-1.048144	-0.267251
H175	H	1.095453	-1.048286	-0.291372
H176	H	0.887386	-0.929364	-0.416866
O177	O	0.279691	-0.280927	-0.192380
C178	C	0.269740	-0.180544	-0.123998
C179	C	0.318249	-0.236254	-0.161893
H180	H	0.300897	-0.144424	-0.099327
H181	H	0.229527	-0.139220	-0.162255
H182	H	0.242885	-0.216791	-0.082314
H183	H	0.345152	-0.200071	-0.203575
H184	H	0.358419	-0.277580	-0.123593
O185	O	1.186974	-0.961714	-0.117907
C186	C	1.294494	-1.054887	-0.092763
C187	C	1.238948	-1.009490	-0.148162
H188	H	1.336521	-1.093537	-0.117200
H189	H	1.317926	-1.011239	-0.069411
H190	H	1.270125	-1.093535	-0.050649
H191	H	1.263264	-0.970840	-0.190317
H192	H	1.215521	-1.053180	-0.171460
O193	O	0.419039	-0.281101	-0.192321
C194	C	0.496901	-0.270315	-0.102777
C195	C	0.467649	-0.325967	-0.140705
H196	H	0.536197	-0.306568	-0.061028
H197	H	0.522912	-0.229039	-0.141007
H198	H	0.453205	-0.234133	-0.078187
H199	H	0.511305	-0.362201	-0.165297
H200	H	0.441620	-0.367191	-0.102445
