data_functionalizedCrystal
_audit_creation_method	'MofGen! by Chris Wilmer'
_symmetry_space_group_name_H-M	'P1'
_symmetry_Int_Tables_number	1
_symmetry_cell_setting	triclinic
loop_
_symmetry_equiv_pos_as_xyz
  x,y,z
_cell_length_a	21.295420
_cell_length_b	21.295417
_cell_length_c	16.959447
_cell_angle_alpha	90.035193
_cell_angle_beta	90.015600
_cell_angle_gamma	90.028757
loop_
_atom_site_label
_atom_site_type_symbol
_atom_site_fract_x
_atom_site_fract_y
_atom_site_fract_z
Zn1	Zn	0.962299	-0.250626	0.446909
Zn2	Zn	0.962218	-0.355903	0.314719
Zn3	Zn	0.857039	-0.250648	0.314743
Zn4	Zn	0.856991	-0.355858	0.446855
O5	O	0.909637	-0.303259	0.380807
O6	O	1.050378	-0.264601	0.429386
O7	O	0.948252	-0.341969	0.204111
O8	O	0.871055	-0.162556	0.332308
O9	O	1.050318	-0.341947	0.332267
O10	O	0.948390	-0.162540	0.429410
O11	O	0.870977	-0.264639	0.204129
O12	O	0.768943	-0.264595	0.332256
O13	O	0.870975	-0.341871	0.557473
O14	O	0.768908	-0.341892	0.429317
O15	O	0.948344	-0.264557	0.557513
O16	O	0.948206	-0.443986	0.332214
O17	O	0.870896	-0.443954	0.429294
C18	C	0.746085	-0.303242	0.380784
C19	C	0.676117	-0.303250	0.380793
C20	C	0.909554	-0.466811	0.380763
C21	C	0.909577	-0.536779	0.380770
C22	C	0.176657	-0.343582	0.431297
C23	C	0.242400	-0.343582	0.431289
C24	C	0.275278	-0.303273	0.380831
C25	C	0.242407	-0.262973	0.330364
C26	C	0.176666	-0.262978	0.330368
N27	N	0.378519	-0.248157	0.374889
N28	N	0.440971	-0.248154	0.374889
C29	C	0.473352	-0.303255	0.380815
N30	N	0.440923	-0.358362	0.386754
N31	N	0.378466	-0.358365	0.386758
C32	C	0.346563	-0.303263	0.380821
C33	C	0.577500	-0.343557	0.431266
C34	C	0.643244	-0.343558	0.431252
C35	C	0.643250	-0.262943	0.330331
C36	C	0.577508	-0.262948	0.330341
C37	C	0.544637	-0.303254	0.380812
C38	C	0.949867	-0.569641	0.330273
C39	C	0.949897	-0.635384	0.330291
C40	C	0.909624	-0.668261	0.380798
C41	C	0.869331	-0.635390	0.431305
C42	C	0.869307	-0.569649	0.431291
N43	N	0.854557	-0.771525	0.386816
N44	N	0.854581	-0.833976	0.386824
C45	C	0.909695	-0.866336	0.380843
N46	N	0.964784	-0.833885	0.374838
N47	N	0.964759	-0.771427	0.374825
C48	C	0.909646	-0.739546	0.380818
C49	C	0.950021	-0.970484	0.330362
C50	C	0.950052	-1.036228	0.330385
C51	C	0.869480	-1.036233	0.431396
C52	C	0.869455	-0.970491	0.431376
C53	C	0.909725	-0.937620	0.380855
C54	C	1.073827	-0.303276	0.380830
C55	C	1.143795	-0.303284	0.380840
C56	C	0.909663	-0.303207	0.586975
C57	C	0.909674	-0.303185	0.674831
C58	C	0.909737	-0.139069	0.380868
C59	C	0.909779	-0.069100	0.380894
C60	C	0.909647	-0.303265	0.175440
C61	C	0.909758	-0.303110	0.087584
C62	C	0.869467	-0.343372	1.046289
C63	C	0.950032	-0.262865	1.046326
C64	C	0.950015	-0.262878	0.963780
C65	C	0.909724	-0.303139	0.922485
C66	C	0.869450	-0.343388	0.963735
C67	C	0.990293	-0.222635	0.922523
C68	C	0.990278	-0.222647	0.839972
C69	C	0.949984	-0.262906	0.798675
C70	C	0.909708	-0.303155	0.839931
C71	C	0.869417	-0.343417	0.798636
C72	C	0.829137	-0.383664	0.839890
C73	C	0.829156	-0.383647	0.922439
C74	C	0.949965	-0.262923	0.716127
C75	C	0.869400	-0.343433	0.716082
H76	H	0.149898	-0.376404	0.472393
C77	C	0.557270	-0.232163	0.196566
C78	C	0.541393	-0.218644	0.274871
H79	H	0.534980	-0.204808	0.162317
H80	H	0.546468	-0.274442	0.184911
H81	H	0.601131	-0.226396	0.189364
H82	H	0.497532	-0.224415	0.282075
H83	H	0.552191	-0.176355	0.286530
H84	H	0.269180	-0.230154	0.289279
H85	H	0.670018	-0.230125	0.289244
H86	H	0.982813	-0.943720	0.289227
H87	H	0.982659	-0.542880	0.289138
H88	H	0.149910	-0.230161	0.289279
C89	C	0.784697	-0.352195	0.623247
C90	C	0.825109	-0.387692	0.670698
H91	H	0.757352	-0.379521	0.595234
H92	H	0.808680	-0.328239	0.586863
H93	H	0.760644	-0.324759	0.655468
H94	H	0.849166	-0.415125	0.638476
H95	H	0.801123	-0.411659	0.707086
C96	C	0.316303	-0.428260	0.442090
C97	C	0.278531	-0.387879	0.486760
H98	H	0.338603	-0.455608	0.476337
H99	H	0.345287	-0.404255	0.412042
H100	H	0.290632	-0.452311	0.407605
H101	H	0.304202	-0.363824	0.521241
H102	H	0.249544	-0.411886	0.516822
H103	H	0.550735	-0.376377	0.472362
C104	C	0.749512	-0.463256	0.848130
C105	C	0.784860	-0.427929	0.794494
H106	H	0.722184	-0.490588	0.820100
H107	H	0.725445	-0.435824	0.880327
H108	H	0.776935	-0.487323	0.880328
H109	H	0.757436	-0.403858	0.762299
H110	H	0.808928	-0.455365	0.762283
C111	C	0.636630	-0.423231	0.531021
C112	C	0.679369	-0.387857	0.486720
H113	H	0.658935	-0.450576	0.565268
H114	H	0.610970	-0.447280	0.496534
H115	H	0.611009	-0.395824	0.561316
H116	H	0.704988	-0.415263	0.456421
H117	H	0.705041	-0.363806	0.521212
C118	C	1.069932	-0.143063	0.914273
C119	C	1.034579	-0.178382	0.967913
H120	H	1.097275	-0.115745	0.942300
H121	H	1.042516	-0.118988	0.882086
H122	H	1.093988	-0.170506	0.882065
H123	H	1.010520	-0.150940	1.000118
H124	H	1.061998	-0.202459	1.000114
C125	C	1.029523	-0.628782	0.230428
C126	C	0.994183	-0.671517	0.274774
H127	H	1.056859	-0.651089	0.196151
H128	H	1.053580	-0.603102	0.264884
H129	H	1.002094	-0.603179	0.200163
H130	H	1.021611	-0.697117	0.305044
H131	H	0.970124	-0.697208	0.240314
C132	C	0.789693	-0.628794	0.531150
C133	C	0.825063	-0.671526	0.486826
H134	H	0.762368	-0.651103	0.565433
H135	H	0.765623	-0.603196	0.496681
H136	H	0.817103	-0.603109	0.561408
H137	H	0.797653	-0.697208	0.456563
H138	H	0.849135	-0.697134	0.521300
C139	C	0.860479	-0.495659	0.537589
C140	C	0.825014	-0.533523	0.486800
H141	H	0.833133	-0.473359	0.571859
H142	H	0.884452	-0.466676	0.507502
H143	H	0.887898	-0.521268	0.567859
H144	H	0.797598	-0.507913	0.456525
H145	H	0.801030	-0.562510	0.516890
H146	H	0.982762	-0.230157	0.682541
C147	C	0.793414	-0.419371	1.048963
C148	C	0.784886	-0.427885	0.967787
H149	H	0.766087	-0.446685	1.076959
H150	H	0.784230	-0.377077	1.062506
H151	H	0.835709	-0.428587	1.062476
H152	H	0.742592	-0.418665	0.954273
H153	H	0.794066	-0.470189	0.954238
H154	H	0.982865	-1.062984	0.289266
H155	H	0.836692	-1.063001	0.472523
C156	C	0.789811	-0.977101	0.531209
C157	C	0.825157	-0.934363	0.486875
H158	H	0.762460	-0.954797	0.565470
H159	H	0.817230	-1.002697	0.561483
H160	H	0.765763	-1.002788	0.496738
H161	H	0.849208	-0.908680	0.521346
H162	H	0.797734	-0.908757	0.456598
C163	C	0.958848	-0.178179	1.139200
C164	C	0.994319	-0.218613	1.091715
H165	H	0.986192	-0.150856	1.167220
H166	H	0.934872	-0.202148	1.175578
H167	H	0.931432	-0.154103	1.107002
H168	H	1.021732	-0.242692	1.123915
H169	H	1.018306	-0.194641	1.055333
C170	C	0.999037	-0.137977	0.747203
C171	C	1.034540	-0.178393	0.794635
H172	H	1.026360	-0.110655	0.719213
H173	H	0.971632	-0.113905	0.779427
H174	H	0.975048	-0.161963	0.710791
H175	H	1.058526	-0.154407	0.831051
H176	H	1.061956	-0.202467	0.762408
H177	H	0.836670	-0.376138	1.079882
