data_functionalizedCrystal
_audit_creation_method	'MofGen! by Chris Wilmer'
_symmetry_space_group_name_H-M	'P1'
_symmetry_Int_Tables_number	1
_symmetry_cell_setting	triclinic
loop_
_symmetry_equiv_pos_as_xyz
  x,y,z
_cell_length_a	12.759401
_cell_length_b	17.077402
_cell_length_c	17.077396
_cell_angle_alpha	90.029784
_cell_angle_beta	89.982209
_cell_angle_gamma	89.975592
loop_
_atom_site_label
_atom_site_type_symbol
_atom_site_fract_x
_atom_site_fract_y
_atom_site_fract_z
Zn1	Zn	1.606174	0.312476	-0.443800
Zn2	Zn	1.606050	0.443751	-0.312531
Zn3	Zn	1.430482	0.312507	-0.312552
Zn4	Zn	1.430440	0.443707	-0.443758
O5	O	1.518286	0.378110	-0.378160
O6	O	1.753178	0.329896	-0.426395
O7	O	1.582726	0.426372	-0.202687
O8	O	1.453858	0.202656	-0.329988
O9	O	1.753087	0.426343	-0.329953
O10	O	1.582938	0.202633	-0.426416
O11	O	1.453738	0.329948	-0.202702
O12	O	1.283456	0.329905	-0.329948
O13	O	1.453785	0.426268	-0.553611
O14	O	1.283424	0.426298	-0.426345
O15	O	1.582897	0.329853	-0.553641
O16	O	1.582685	0.553592	-0.329912
O17	O	1.453665	0.553560	-0.426325
C18	C	1.245319	0.378101	-0.378145
C19	C	1.128542	0.378116	-0.378157
C20	C	1.518185	0.582058	-0.378129
C21	C	1.518238	0.669308	-0.378142
C22	C	1.518350	0.378053	-0.582905
C23	C	1.518377	0.378028	-0.670154
C24	C	1.073692	0.428384	-0.428271
C25	C	0.963967	0.428387	-0.428287
C26	C	0.963955	0.327851	-0.328066
C27	C	1.073677	0.327845	-0.328055
C28	C	0.814059	0.456561	-0.520827
C29	C	0.759205	0.506841	-0.570935
C30	C	0.794787	0.583448	-0.582845
C31	C	0.885222	0.609791	-0.544636
C32	C	0.940071	0.559515	-0.494522
C33	C	0.904490	0.482897	-0.482627
C34	C	1.223587	0.299679	-0.235513
C35	C	1.278438	0.249406	-0.185395
C36	C	1.242858	0.172798	-0.173477
C37	C	1.152419	0.146458	-0.211673
C38	C	1.097568	0.196731	-0.261791
C39	C	1.133156	0.273338	-0.273711
C40	C	1.792320	0.378121	-0.378176
C41	C	1.909096	0.378125	-0.378183
C42	C	1.518417	0.173366	-0.378209
C43	C	1.518472	0.086116	-0.378230
C44	C	1.585487	0.710289	-0.327994
C45	C	1.585538	0.792269	-0.328014
C46	C	1.518334	0.833267	-0.378178
C47	C	1.451082	0.792281	-0.428332
C48	C	1.451037	0.710302	-0.428315
C49	C	1.451179	0.963151	-0.428362
C50	C	1.451223	1.045135	-0.428377
C51	C	1.585681	1.045118	-0.328060
C52	C	1.585636	0.963139	-0.328044
C53	C	1.518382	0.922158	-0.378196
C54	C	1.585608	0.327820	-0.711162
C55	C	1.585620	0.327794	-0.793142
C56	C	1.518407	0.377980	-0.834114
C57	C	1.451169	0.428190	-0.793101
C58	C	1.451152	0.428211	-0.711122
C59	C	1.451211	0.428143	-0.963971
C60	C	1.451229	0.428122	-1.045956
C61	C	1.585680	0.327725	-1.045991
C62	C	1.585663	0.327747	-0.964012
C63	C	1.518426	0.377958	-0.923005
C64	C	1.518284	0.378111	-0.174212
C65	C	1.518460	0.377915	-0.086963
H66	H	1.118360	0.469315	-0.469069
H67	H	1.640344	0.286956	-0.677808
Br68	Br	1.676688	0.654656	-0.259902
Br69	Br	0.765777	0.352583	-0.504683
Br70	Br	0.889488	0.259631	-0.260074
Br71	Br	1.401164	0.285159	-0.133542
H72	H	1.640445	1.078489	-0.287227
Br73	Br	1.359942	0.496296	-0.848704
Br74	Br	1.359773	0.654684	-0.496381
H75	H	0.685573	0.485386	-0.602046
Br76	Br	1.676935	0.259585	-1.101643
H77	H	1.023934	0.175276	-0.292898
Br78	Br	1.360000	0.496225	-1.101560
H79	H	1.252572	0.362058	-0.245220
H80	H	0.914179	0.672175	-0.554330
Br81	Br	1.676915	0.259689	-0.848792
H82	H	1.640400	0.286886	-0.930655
Br83	Br	1.359900	0.496348	-0.655468
H84	H	0.750117	0.624387	-0.623645
H85	H	1.123437	0.084082	-0.201957
H86	H	1.640299	0.825632	-0.287178
Br87	Br	1.317287	0.104575	-0.105444
H88	H	1.013701	0.580962	-0.463412
Br89	Br	1.676840	0.907499	-0.259961
H90	H	1.396519	1.078514	-0.469241
Br91	Br	1.359910	0.907534	-0.496430
H92	H	1.396368	0.825668	-0.469180
H93	H	1.396443	0.469018	-0.930585
