data_functionalizedCrystal
_audit_creation_method	'MofGen! by Chris Wilmer'
_symmetry_space_group_name_H-M	'P1'
_symmetry_Int_Tables_number	1
_symmetry_cell_setting	triclinic
loop_
_symmetry_equiv_pos_as_xyz
  x,y,z
_cell_length_a	10.686220
_cell_length_b	12.594516
_cell_length_c	10.685986
_cell_angle_alpha	85.593168
_cell_angle_beta	99.031303
_cell_angle_gamma	94.397503
loop_
_atom_site_label
_atom_site_type_symbol
_atom_site_fract_x
_atom_site_fract_y
_atom_site_fract_z
Zn1	Zn	1.885516	-0.264675	-0.569041
Zn2	Zn	1.901643	-0.455391	-0.356815
Zn3	Zn	1.689515	-0.290118	-0.373072
Zn4	Zn	1.673240	-0.455315	-0.585259
O5	O	1.787478	-0.366375	-0.471047
O6	O	2.065269	-0.279358	-0.527298
O7	O	1.887064	-0.444146	-0.181353
O8	O	1.715576	-0.137792	-0.399085
O9	O	2.077118	-0.419476	-0.371376
O10	O	1.859577	-0.119100	-0.543062
O11	O	1.731214	-0.322721	-0.193298
O12	O	1.509741	-0.322648	-0.414811
O13	O	1.687838	-0.419347	-0.760726
O14	O	1.497784	-0.444018	-0.570703
O15	O	1.843796	-0.279285	-0.748811
O16	O	1.871283	-0.604332	-0.387102
O17	O	1.703476	-0.604276	-0.554939
C18	C	1.457709	-0.386086	-0.496282
C19	C	1.316631	-0.394542	-0.507107
C20	C	1.787396	-0.642922	-0.471041
C21	C	1.787474	-0.761220	-0.471072
C22	C	1.696200	-0.830486	-0.562299
C23	C	1.674147	-0.910130	-0.448847
C24	C	1.809641	-0.892366	-0.584535
C25	C	1.765364	-0.839314	-0.357563
C26	C	1.900906	-0.821535	-0.493324
C27	C	1.878903	-0.901150	-0.379789
C28	C	2.118535	-0.346588	-0.445714
C29	C	2.259611	-0.338155	-0.434919
C30	C	1.762203	-0.346470	-0.802110
C31	C	1.751432	-0.337987	-0.943190
C32	C	1.787593	-0.088745	-0.471078
C33	C	1.787642	0.029565	-0.471091
C34	C	1.812728	-0.386122	-0.141266
C35	C	1.823745	-0.394289	-0.000168
H36	H	1.318724	-0.283412	-0.364833
Cl37	Cl	1.932066	-0.478723	-0.908845
H38	H	1.956169	-0.931985	-0.302567
H39	H	1.257511	-0.449297	-0.577190
H40	H	1.996729	-0.782889	-0.512183
Cl41	Cl	1.838484	-0.928803	-0.732665
Cl42	Cl	1.576850	-0.782591	-0.681265
H43	H	1.681289	-0.283295	-1.002338
H44	H	1.578297	-0.948778	-0.430045
H45	H	1.746571	-0.815854	-0.261599
