data_functionalizedCrystal
_audit_creation_method	'MofGen! by Chris Wilmer'
_symmetry_space_group_name_H-M	'P1'
_symmetry_Int_Tables_number	1
_symmetry_cell_setting	triclinic
loop_
_symmetry_equiv_pos_as_xyz
  x,y,z
_cell_length_a	8.559649
_cell_length_b	10.654550
_cell_length_c	9.730223
_cell_angle_alpha	89.997176
_cell_angle_beta	89.996947
_cell_angle_gamma	77.131797
loop_
_atom_site_label
_atom_site_type_symbol
_atom_site_fract_x
_atom_site_fract_y
_atom_site_fract_z
O1	O	-2.119654	0.042561	0.114267
O2	O	-1.655168	-0.022226	0.114274
O3	O	-1.898091	0.194010	0.114262
O4	O	-1.876732	-0.173675	0.114279
O5	O	-1.898074	0.194008	-0.114318
O6	O	-1.655151	-0.022228	-0.114305
O7	O	-2.119637	0.042559	-0.114313
Zn8	Zn	-1.887391	0.010165	-0.150601
Zn9	Zn	-1.887414	0.010168	0.150563
O10	O	-1.876715	-0.173677	-0.114301
C11	C	-1.896514	0.240645	-0.000027
C12	C	-1.891822	0.379603	-0.000025
C13	C	-1.595684	-0.027137	-0.000015
C14	C	-1.418466	-0.041751	-0.000012
C15	C	-2.179121	0.047469	-0.000021
C16	C	-2.356339	0.062084	-0.000015
C17	C	-1.878292	-0.220312	-0.000008
C18	C	-1.882984	-0.359271	-0.000001
N19	N	-1.887387	0.010165	-0.356138
C20	C	-2.034851	0.473864	-0.000027
C21	C	-2.030432	0.604428	-0.000010
C22	C	-1.739944	0.546458	0.000005
C23	C	-1.744364	0.415896	-0.000002
C24	C	-1.985032	-0.056630	-0.428056
C25	C	-1.985059	-0.056620	-0.571939
C26	C	-1.789782	0.076982	-0.571972
C27	C	-1.789765	0.076979	-0.428092
N28	N	-1.887431	0.010178	0.356099
H29	H	-1.438727	0.162162	-0.000013
Cl30	Cl	-2.220226	0.428242	-0.000052
H31	H	-1.619888	0.576024	0.000020
H32	H	-1.627885	0.339143	0.000003
Cl33	Cl	-2.107771	-0.140613	-0.337605
H34	H	-1.336069	-0.141836	0.000000
Cl35	Cl	-1.666997	0.160955	-0.337673
Cl36	Cl	-2.107821	-0.140594	-0.662346
H37	H	-1.710299	0.131378	-0.630575
H38	H	-2.146901	0.681172	-0.000009
