data_functionalizedCrystal
_audit_creation_method	'MofGen! by Chris Wilmer'
_symmetry_space_group_name_H-M	'P1'
_symmetry_Int_Tables_number	1
_symmetry_cell_setting	triclinic
loop_
_symmetry_equiv_pos_as_xyz
  x,y,z
_cell_length_a	31.640172
_cell_length_b	31.640171
_cell_length_c	23.096457
_cell_angle_alpha	60.001126
_cell_angle_beta	90.007887
_cell_angle_gamma	59.974735
loop_
_atom_site_label
_atom_site_type_symbol
_atom_site_fract_x
_atom_site_fract_y
_atom_site_fract_z
Zr1	Zr	0.406946	0.462753	-0.076179
O2	O	0.339399	0.550967	-0.168659
O3	O	0.427681	0.374544	-0.047806
O4	O	0.427619	0.462752	-0.168631
O5	O	0.339478	0.462758	0.047447
O6	O	0.497175	0.462745	-0.168634
O7	O	0.339462	0.462759	-0.047835
O8	O	0.497287	0.304957	0.047498
O9	O	0.339366	0.620546	-0.168685
O10	O	0.488399	0.410818	-0.035736
O11	O	0.436502	0.410823	0.035374
O12	O	0.436428	0.514676	-0.106881
O13	O	0.384532	0.514680	-0.035770
Zr14	Zr	0.517906	0.462740	0.075778
Zr15	Zr	0.517880	0.462741	-0.076186
Zr16	Zr	0.406972	0.462751	0.075784
Zr17	Zr	0.406893	0.573723	-0.076221
Zr18	Zr	0.517959	0.351770	0.075820
O19	O	0.497171	0.550948	0.047405
O20	O	0.497133	0.550951	-0.168668
O21	O	0.339437	0.550965	0.047414
O22	O	0.585453	0.374525	0.168258
O23	O	0.585415	0.374528	-0.047815
O24	O	0.427719	0.374541	0.168267
O25	O	0.585374	0.462734	-0.047848
O26	O	0.497233	0.462740	0.168229
O27	O	0.427677	0.462748	0.168233
O28	O	0.585390	0.462733	0.047434
O29	O	0.427544	0.620537	-0.168690
O30	O	0.497308	0.304955	0.168289
O31	O	0.585486	0.304946	0.168284
O32	O	0.585465	0.304948	0.047493
O33	O	0.339387	0.620544	-0.047895
O34	O	0.427565	0.620535	-0.047899
O35	O	0.488423	0.410816	0.106479
O36	O	0.540320	0.410812	0.035369
O37	O	0.488350	0.514670	-0.035776
O38	O	0.436453	0.514674	0.035335
C39	C	0.462491	0.323940	-0.000148
C40	C	0.462514	0.276830	-0.000130
C41	C	0.500777	-0.097741	0.052299
C42	C	0.500822	0.079212	0.052338
O43	O	0.533452	0.069476	0.096979
N44	N	0.462481	0.139692	-0.000162
C45	C	0.424127	0.155934	-0.052679
O46	O	0.391519	0.211436	-0.097337
C47	C	0.424084	-0.021019	-0.052720
C48	C	0.462425	-0.081499	-0.000212
C49	C	0.539115	-0.158218	0.104802
C50	C	0.539102	-0.202453	0.104794
C51	C	0.500750	-0.186211	0.052283
C52	C	0.462411	-0.125734	-0.000220
C53	C	0.385732	-0.004777	-0.105239
C54	C	0.385726	-0.049022	-0.105246
C55	C	0.424067	-0.109502	-0.052738
C56	C	0.424046	-0.153728	-0.052740
N57	N	0.462388	-0.214208	-0.000239
C58	C	0.500740	-0.230449	0.052272
C59	C	0.424152	0.248834	-0.052653
C60	C	0.424162	0.293072	-0.052642
C61	C	0.500858	0.216347	0.052375
C62	C	0.500845	0.172109	0.052366
C63	C	0.462493	0.188354	-0.000152
C64	C	0.500708	-0.323344	0.052251
C65	C	0.500690	-0.367579	0.052240
C66	C	0.423996	-0.290851	-0.052778
C67	C	0.424012	-0.246619	-0.052765
C68	C	0.462373	-0.262870	-0.000247
O69	O	0.391437	-0.144036	-0.097362
O70	O	0.533349	-0.285954	0.096914
C71	C	0.500790	-0.053506	0.052307
C72	C	0.462452	0.006971	-0.000196
C73	C	0.424100	0.023213	-0.052707
C74	C	0.462462	0.051209	-0.000185
C75	C	0.500814	0.034968	0.052326
C76	C	0.539155	-0.025512	0.104827
C77	C	0.539142	-0.069747	0.104819
C78	C	0.385758	0.083693	-0.105208
C79	C	0.385775	0.127925	-0.105195
C80	C	0.424126	0.111683	-0.052684
C81	C	0.323664	0.462760	-0.000193
C82	C	0.276570	0.462765	-0.000190
C83	C	-0.015445	0.462736	-0.052691
C84	C	-0.192431	0.462729	-0.052696
O85	O	-0.215312	0.462703	-0.097321
N86	N	-0.214553	0.462729	-0.000205
C87	C	-0.192423	0.462728	0.052294
O88	O	-0.215297	0.462722	0.096944
C89	C	-0.015435	0.462731	0.052301
C90	C	0.006681	0.462736	-0.000197
C91	C	0.006672	0.462741	-0.105185
C92	C	0.050914	0.462746	-0.105185
C93	C	0.073040	0.462746	-0.052692
C94	C	0.050923	0.462741	-0.000198
C95	C	0.006696	0.462725	0.104802
C96	C	0.050946	0.462724	0.104800
C97	C	0.073063	0.462730	0.052302
C98	C	0.117291	0.462747	0.052295
N99	N	0.139413	0.462746	-0.000196
C100	C	0.117287	0.462746	-0.052689
C101	C	-0.285345	0.462727	0.052285
C102	C	-0.329592	0.462727	0.052283
C103	C	-0.329597	0.462727	-0.052706
C104	C	-0.285351	0.462731	-0.052706
C105	C	-0.263223	0.462727	-0.000206
C106	C	0.210199	0.462757	-0.052686
C107	C	0.254444	0.462765	-0.052684
C108	C	0.254446	0.462762	0.052307
C109	C	0.210204	0.462758	0.052303
C110	C	0.188082	0.462753	-0.000197
O111	O	0.140202	0.462766	0.096901
O112	O	0.140175	0.462739	-0.097324
C113	C	-0.059687	0.462731	-0.052690
C114	C	-0.081804	0.462726	-0.000197
C115	C	-0.059678	0.462726	0.052297
C116	C	-0.126051	0.462726	-0.000199
C117	C	-0.148177	0.462726	-0.052693
C118	C	-0.126055	0.462725	-0.105183
C119	C	-0.081813	0.462731	-0.105184
C120	C	-0.081800	0.462727	0.104788
C121	C	-0.126042	0.462722	0.104783
C122	C	-0.148168	0.462722	0.052290
C123	C	0.601188	0.462732	-0.000208
C124	C	0.648282	0.462727	-0.000211
C125	C	0.462393	0.462748	-0.190284
C126	C	0.462382	0.462749	-0.254797
C127	C	0.462360	0.601553	-0.000253
C128	C	0.462338	0.648662	-0.000271
C129	C	0.435256	0.516960	-0.322237
C130	C	0.435270	0.516961	-0.382853
C131	C	0.462401	0.462748	-0.376025
C132	C	0.489533	0.408530	-0.308573
C133	C	0.489523	0.408530	-0.247959
N134	N	0.458681	0.422396	-0.443565
N135	N	0.458687	0.422399	-0.501149
C136	C	0.462433	0.462743	-0.558651
N137	N	0.466162	0.503092	-0.556400
N138	N	0.466153	0.503090	-0.498812
C139	C	0.462415	0.462741	-0.441747
C140	C	0.435321	0.516958	-0.691821
C141	C	0.435338	0.516957	-0.752437
C142	C	0.489597	0.408524	-0.678154
C143	C	0.489584	0.408527	-0.617541
C144	C	0.462443	0.462746	-0.624379
C145	C	0.462459	0.462744	0.189883
C146	C	0.462470	0.462743	0.254396
C147	C	0.601253	0.323925	-0.000156
C148	C	0.648370	0.276811	-0.000140
C149	C	0.462524	0.323937	0.189935
C150	C	0.462558	0.276827	0.254466
C151	C	0.601286	0.323923	0.189928
C152	C	0.648414	0.276808	0.254456
C153	C	0.323566	0.601569	-0.190329
C154	C	0.276438	0.648685	-0.254857
C155	C	0.323599	0.601567	-0.000246
C156	C	0.276482	0.648681	-0.000261
C157	C	0.462327	0.601555	-0.190337
C158	C	0.462294	0.648665	-0.254867
C159	C	0.643394	0.254689	-0.037256
C160	C	0.687661	0.210426	-0.037256
C161	C	0.736903	0.188283	-0.000136
C162	C	0.741878	0.210409	0.036981
C163	C	0.697612	0.254675	0.036976
C164	C	0.489676	0.254700	0.321893
C165	C	0.489705	0.210441	0.382532
C166	C	0.462619	0.188306	0.375742
C167	C	0.435498	0.210438	0.308309
C168	C	0.435466	0.254699	0.247671
C169	C	0.697640	0.254680	0.247640
C170	C	0.741926	0.210416	0.308264
C171	C	0.736985	0.188278	0.375705
C172	C	0.687754	0.210411	0.382520
C173	C	0.643469	0.254677	0.321895
C174	C	0.227212	0.670818	-0.248041
C175	C	0.182926	0.715096	-0.308666
C176	C	0.187867	0.737236	-0.376106
C177	C	0.237098	0.715100	-0.382921
C178	C	0.281383	0.670827	-0.322297
C179	C	0.281458	0.670808	0.036848
C180	C	0.237191	0.715083	0.036831
C181	C	0.187949	0.737228	-0.000291
C182	C	0.182974	0.715099	-0.037404
C183	C	0.227240	0.670828	-0.037391
C184	C	0.489385	0.670786	-0.248055
C185	C	0.489364	0.715045	-0.308683
C186	C	0.462248	0.737186	-0.376121
C187	C	0.435156	0.715062	-0.382932
C188	C	0.435181	0.670800	-0.322305
H189	H	0.570381	-0.038730	0.147586
H190	H	0.192193	0.462753	-0.095436
H191	H	-0.347601	0.462732	0.095025
H192	H	0.413079	0.733096	-0.437848
H193	H	0.683600	0.192416	-0.067480
C194	C	0.433159	0.124891	0.422210
C195	C	0.462659	0.139651	0.442400
H196	H	0.433184	0.094856	0.463365
H197	H	0.447669	0.110377	0.394802
H198	H	0.398615	0.159431	0.394779
H199	H	0.497205	0.105112	0.469827
H200	H	0.448152	0.154164	0.469820
C201	C	0.341163	0.693358	-0.366960
C202	C	0.335489	0.646503	-0.329807
H203	H	0.374563	0.678345	-0.371606
H204	H	0.337294	0.710608	-0.341768
H205	H	0.315484	0.722892	-0.412708
H206	H	0.361166	0.616970	-0.284058
H207	H	0.339363	0.629243	-0.354999
C208	C	0.094937	0.800641	-0.422508
C209	C	0.139185	0.785897	-0.442741
H210	H	0.064882	0.830679	-0.463645
H211	H	0.094944	0.815148	-0.395097
H212	H	0.094972	0.766097	-0.395069
H213	H	0.139152	0.820441	-0.470176
H214	H	0.139177	0.771393	-0.470164
C215	C	0.440146	0.268302	0.136443
C216	C	0.405662	0.279012	0.173555
H217	H	0.421743	0.283314	0.090687
H218	H	0.465808	0.226513	0.161658
H219	H	0.456266	0.287826	0.131807
H220	H	0.389544	0.259485	0.178197
H221	H	0.379991	0.320809	0.148334
C222	C	0.384186	-0.239083	-0.177296
C223	C	0.381840	-0.272990	-0.110512
H224	H	0.358159	-0.228050	-0.212944
H225	H	0.417270	-0.262109	-0.179454
H226	H	0.378709	-0.204088	-0.184786
H227	H	0.387320	-0.307987	-0.103019
H228	H	0.348748	-0.249963	-0.108352
H229	H	0.151908	0.773277	-0.000296
C230	C	0.833869	0.142580	0.368212
C231	C	0.796037	0.186101	0.300763
H232	H	0.867273	0.127577	0.363578
H233	H	0.830020	0.110797	0.393412
H234	H	0.829975	0.159857	0.393383
H235	H	0.799929	0.168823	0.275593
H236	H	0.799887	0.217890	0.275553
C237	C	0.245582	0.584892	-0.136770
C238	C	0.221768	0.646493	-0.173916
H239	H	0.242214	0.569882	-0.091013
H240	H	0.281236	0.565370	-0.132140
H241	H	0.229438	0.577649	-0.161963
H242	H	0.237915	0.653736	-0.148726
H243	H	0.186107	0.666021	-0.178544
C244	C	0.091046	0.782966	-0.070363
C245	C	0.128844	0.739440	-0.078201
H246	H	0.057628	0.797988	-0.095543
H247	H	0.094913	0.814736	-0.088711
H248	H	0.094959	0.765687	-0.021519
H249	H	0.124933	0.756720	-0.127045
H250	H	0.124975	0.707664	-0.059856
C251	C	-0.210001	0.411600	0.148234
C252	C	-0.261027	0.462726	0.109996
H253	H	-0.194992	0.411600	0.183862
H254	H	-0.190495	0.411603	0.116978
H255	H	-0.209912	0.376922	0.169804
H256	H	-0.261115	0.497404	0.088421
H257	H	-0.280538	0.462728	0.141257
C258	C	0.425220	0.609381	-0.834387
C259	C	0.405518	0.576552	-0.826572
H260	H	0.406808	0.646175	-0.880154
H261	H	0.460878	0.587108	-0.829053
H262	H	0.421328	0.617134	-0.799259
H263	H	0.409415	0.568796	-0.861697
H264	H	0.369852	0.598831	-0.831913
C265	C	0.353155	0.232932	0.263725
C266	C	0.405733	0.186094	0.300860
H267	H	0.334783	0.217897	0.259135
H268	H	0.349250	0.262453	0.217961
H269	H	0.339773	0.250205	0.288903
H270	H	0.419116	0.168825	0.275680
H271	H	0.409641	0.156563	0.346632
C272	C	0.815096	0.088711	0.069601
C273	C	0.785559	0.139620	-0.000127
H274	H	0.845134	0.058670	0.069604
H275	H	0.795084	0.074214	0.089472
H276	H	0.825109	0.098723	0.097011
H277	H	0.775543	0.129610	-0.027536
H278	H	0.805575	0.154119	-0.020008
C279	C	0.614916	-0.238508	0.208608
C280	C	0.581274	-0.176081	0.162534
H281	H	0.640941	-0.249539	0.244256
H282	H	0.630647	-0.254170	0.182674
H283	H	0.595975	-0.254152	0.230152
H284	H	0.600214	-0.160437	0.140986
H285	H	0.565542	-0.160412	0.188472
C286	C	0.557020	0.584846	-0.136791
C287	C	0.519196	0.646451	-0.173930
H288	H	0.575424	0.569824	-0.091029
H289	H	0.580402	0.577593	-0.161980
H290	H	0.540883	0.565341	-0.132165
H291	H	0.535334	0.665957	-0.178560
H292	H	0.495811	0.653709	-0.148735
H293	H	0.701673	0.272698	0.192732
C294	C	0.785668	0.161014	0.482742
C295	C	0.785669	0.139621	0.442338
H296	H	0.815727	0.130976	0.523873
H297	H	0.755651	0.171014	0.496462
H298	H	0.785635	0.195557	0.455294
H299	H	0.785698	0.105081	0.469784
H300	H	0.815694	0.129613	0.428619
H301	H	0.142844	0.733111	-0.303103
C302	C	-0.165236	0.513839	0.159267
C303	C	-0.150348	0.462716	0.162497
H304	H	-0.180235	0.513828	0.194901
H305	H	-0.189851	0.548516	0.113949
H306	H	-0.135715	0.513838	0.166771
H307	H	-0.179870	0.462720	0.154987
H308	H	-0.125731	0.428031	0.207825
C309	C	0.551526	0.322523	0.261947
C310	C	0.589359	0.278994	0.329394
H311	H	0.518123	0.337536	0.266582
H312	H	0.555411	0.305256	0.236772
H313	H	0.555384	0.354305	0.236749
H314	H	0.585504	0.247210	0.354590
H315	H	0.585473	0.296261	0.354579
C316	C	0.543210	0.301349	-0.550208
C317	C	0.519394	0.348935	-0.543404
H318	H	0.561613	0.264559	-0.504438
H319	H	0.566600	0.303600	-0.575378
H320	H	0.517567	0.303612	-0.575415
H321	H	0.545038	0.346675	-0.518203
H322	H	0.496002	0.346684	-0.518224
H323	H	0.511793	0.192427	0.437433
H324	H	0.532085	0.203129	0.095133
C325	C	0.542933	0.710590	-0.229187
C326	C	0.519139	0.739366	-0.301185
H327	H	0.561311	0.725608	-0.224559
H328	H	0.566343	0.668803	-0.207074
H329	H	0.517281	0.717853	-0.207104
H330	H	0.544792	0.732099	-0.323267
H331	H	0.495727	0.781163	-0.323307
C332	C	-0.114100	0.411597	-0.159647
C333	C	-0.150379	0.462723	-0.162885
H334	H	-0.129117	0.411596	-0.195269
H335	H	-0.103995	0.376923	-0.114322
H336	H	-0.084588	0.411607	-0.167167
H337	H	-0.179891	0.462711	-0.155360
H338	H	-0.160492	0.497407	-0.208220
C339	C	0.194674	0.621062	-0.051123
C340	C	0.221765	0.646501	-0.078175
H341	H	0.191295	0.606043	-0.076301
H342	H	0.161271	0.650600	-0.056445
H343	H	0.213091	0.589284	-0.002279
H344	H	0.203347	0.678282	-0.127017
H345	H	0.255174	0.616961	-0.072859
H346	H	0.354527	0.096926	-0.147971
C347	C	0.193255	0.782964	-0.508820
C348	C	0.242524	0.739436	-0.457056
H349	H	0.196605	0.797983	-0.554588
H350	H	0.174867	0.814737	-0.503508
H351	H	0.174883	0.765690	-0.503476
H352	H	0.260895	0.756711	-0.462397
H353	H	0.260920	0.707658	-0.462370
H354	H	0.701670	0.272681	0.067204
C355	C	0.543241	0.250265	0.401362
C356	C	0.519442	0.279033	0.329368
H357	H	0.561612	0.265292	0.405980
H358	H	0.566657	0.208478	0.423477
H359	H	0.517592	0.257523	0.423451
H360	H	0.545093	0.271771	0.307280
H361	H	0.496025	0.320830	0.307244
C362	C	0.483613	0.764450	-0.483168
C363	C	0.462222	0.785842	-0.442759
H364	H	0.483599	0.794488	-0.524303
H365	H	0.463596	0.754452	-0.496882
H366	H	0.518154	0.729907	-0.455727
H367	H	0.427679	0.820383	-0.470200
H368	H	0.482239	0.795849	-0.429047
H369	H	-0.011305	0.462720	0.147551
H370	H	0.683738	0.192380	0.437438
C371	C	0.330591	0.675255	0.110217
C372	C	0.335582	0.646474	0.077656
H373	H	0.364004	0.660237	0.135406
H374	H	0.312214	0.668002	0.142255
H375	H	0.312176	0.717046	0.075067
H376	H	0.353994	0.604683	0.112807
H377	H	0.353967	0.653722	0.045615
H378	H	0.413118	0.652794	-0.327861
H379	H	-0.347619	0.462728	-0.095450
H380	H	0.511612	0.364384	-0.193044
C381	C	0.193418	0.782932	0.069792
C382	C	0.242667	0.739394	0.077639
H383	H	0.196801	0.797939	0.094984
H384	H	0.175041	0.765673	0.088121
H385	H	0.175016	0.814715	0.020947
H386	H	0.261068	0.707608	0.126484
H387	H	0.261052	0.756652	0.059313
C388	C	0.576506	-0.438970	0.156046
C389	C	0.542839	-0.434061	0.109959
H390	H	0.602527	-0.480011	0.191674
H391	H	0.557585	-0.420112	0.177609
H392	H	0.592243	-0.420122	0.130112
H393	H	0.527099	-0.452905	0.135893
H394	H	0.561763	-0.452927	0.088395
H395	H	0.531945	-0.336584	0.095017
C396	C	0.594261	0.250255	-0.110643
C397	C	0.589270	0.279024	-0.078066
H398	H	0.560848	0.265282	-0.135843
H399	H	0.612672	0.208468	-0.075507
H400	H	0.612643	0.257514	-0.142680
H401	H	0.570892	0.271761	-0.046024
H402	H	0.570852	0.320821	-0.113205
C403	C	0.315661	-0.054236	-0.131175
C404	C	0.343559	-0.031158	-0.162971
H405	H	0.289629	-0.043208	-0.166810
H406	H	0.299938	-0.038567	-0.105243
H407	H	0.338495	-0.096587	-0.099915
H408	H	0.320725	0.011194	-0.194227
H409	H	0.359281	-0.046825	-0.188914
H410	H	0.570324	-0.251696	0.147550
C411	C	0.801747	0.160597	0.149781
C412	C	0.796009	0.186057	0.077792
H413	H	0.835165	0.145562	0.174978
H414	H	0.797872	0.128833	0.168104
H415	H	0.776098	0.190133	0.155083
H416	H	0.821655	0.156520	0.072489
H417	H	0.799889	0.217824	0.059463
C418	C	0.576654	0.100726	0.156171
C419	C	0.542993	0.105631	0.110081
H420	H	0.602678	0.059685	0.191799
H421	H	0.557730	0.119582	0.177732
H422	H	0.592391	0.119575	0.130238
H423	H	0.527254	0.086785	0.136013
H424	H	0.561920	0.086766	0.088518
H425	H	0.511624	0.364389	-0.303017
H426	H	0.392935	0.342315	-0.095391
C427	C	0.381624	0.624143	-0.450196
C428	C	0.405448	0.576554	-0.456996
H429	H	0.363212	0.660932	-0.495968
H430	H	0.407260	0.621892	-0.425003
H431	H	0.358237	0.621883	-0.425016
H432	H	0.428838	0.578811	-0.482172
H433	H	0.379810	0.578806	-0.482200
H434	H	0.354514	0.044462	-0.148002
C435	C	0.354043	0.243667	-0.078488
C436	C	0.381928	0.266744	-0.110346
H437	H	0.327959	0.254737	-0.114095
H438	H	0.338387	0.259297	-0.052496
H439	H	0.376871	0.201312	-0.047276
H440	H	0.359100	0.309099	-0.141555
H441	H	0.397584	0.251116	-0.136351
C442	C	0.309966	0.199311	-0.209010
C443	C	0.343627	0.194406	-0.162919
H444	H	0.283951	0.240351	-0.244650
H445	H	0.294224	0.180474	-0.183086
H446	H	0.328896	0.180441	-0.230563
H447	H	0.324697	0.213272	-0.141363
H448	H	0.359370	0.213250	-0.188847
C449	C	0.249990	0.462760	-0.156461
C450	C	0.278756	0.462766	-0.110391
H451	H	0.265002	0.462757	-0.192082
H452	H	0.215377	0.497439	-0.178034
H453	H	0.250092	0.428074	-0.130510
H454	H	0.278651	0.497455	-0.136341
H455	H	0.313378	0.428084	-0.088817
C456	C	0.046456	0.462737	-0.208953
C457	C	0.075225	0.462742	-0.162887
H458	H	0.061466	0.462729	-0.244573
H459	H	0.011844	0.497417	-0.230527
H460	H	0.046554	0.428053	-0.182999
H461	H	0.075124	0.497428	-0.188840
H462	H	0.109846	0.428058	-0.141312
C463	C	-0.017499	0.411616	-0.131093
C464	C	-0.017643	0.462741	-0.162894
H465	H	-0.032506	0.411619	-0.166726
H466	H	-0.037010	0.411619	-0.099844
H467	H	0.017121	0.376937	-0.105150
H468	H	-0.052264	0.497421	-0.188832
H469	H	0.001868	0.462744	-0.194155
C470	C	-0.289809	0.462729	-0.156480
C471	C	-0.261039	0.462729	-0.110408
H472	H	-0.274798	0.462723	-0.192100
H473	H	-0.324420	0.497411	-0.178053
H474	H	-0.289712	0.428046	-0.130531
H475	H	-0.261139	0.497415	-0.136357
H476	H	-0.226419	0.428044	-0.088834
C477	C	0.046497	0.462736	0.208571
C478	C	0.075260	0.462734	0.162502
H479	H	0.061504	0.462750	0.244186
H480	H	0.046603	0.428051	0.230150
H481	H	0.011878	0.497415	0.182618
H482	H	0.109879	0.428053	0.188454
H483	H	0.075160	0.497423	0.140921
C484	C	0.405079	-0.152371	-0.148680
C485	C	0.381865	-0.180136	-0.110474
H486	H	0.379060	-0.111328	-0.184306
H487	H	0.423991	-0.171230	-0.170246
H488	H	0.427923	-0.155717	-0.117399
H489	H	0.359023	-0.176793	-0.141754
H490	H	0.362944	-0.161271	-0.088908
H491	H	0.570363	-0.118990	0.147576
H492	H	0.192192	0.462762	0.095046
C493	C	0.322283	0.462757	0.098920
C494	C	0.278775	0.462758	0.110009
H495	H	0.337306	0.462747	0.134549
H496	H	0.312171	0.497441	0.053601
H497	H	0.346882	0.428076	0.101102
H498	H	0.254174	0.497441	0.107822
H499	H	0.288886	0.428071	0.155340
H500	H	-0.063788	0.462726	0.147535
C501	C	0.352933	0.609388	-0.736496
C502	C	0.405494	0.576554	-0.699331
H503	H	0.334521	0.646180	-0.741136
H504	H	0.339566	0.587116	-0.711316
H505	H	0.349065	0.617142	-0.782246
H506	H	0.409362	0.568795	-0.653578
H507	H	0.418864	0.598830	-0.724510
H508	H	0.413158	0.561110	-0.327811
H509	H	-0.063809	0.462735	-0.147933
H510	H	0.511689	0.364382	-0.672594
