data_functionalizedCrystal
_audit_creation_method	'MofGen! by Chris Wilmer'
_symmetry_space_group_name_H-M	'P1'
_symmetry_Int_Tables_number	1
_symmetry_cell_setting	triclinic
loop_
_symmetry_equiv_pos_as_xyz
  x,y,z
_cell_length_a	14.044220
_cell_length_b	13.101039
_cell_length_c	15.538191
_cell_angle_alpha	87.970672
_cell_angle_beta	70.230486
_cell_angle_gamma	93.659868
loop_
_atom_site_label
_atom_site_type_symbol
_atom_site_fract_x
_atom_site_fract_y
_atom_site_fract_z
O1	O	1.188562	0.085094	0.216104
O2	O	0.915335	0.085120	0.208137
O3	O	1.105135	0.085107	0.079460
O4	O	0.998762	0.085107	0.344781
O5	O	1.091511	-0.085322	0.088709
O6	O	0.901712	-0.085309	0.217387
O7	O	1.174938	-0.085335	0.225353
Zn8	Zn	1.036162	-0.112381	0.222838
Zn9	Zn	1.054112	0.112166	0.210652
O10	O	0.985139	-0.085322	0.354030
C11	C	0.874409	-0.000091	0.209275
C12	C	0.772762	-0.000081	0.198875
C13	C	0.586641	-0.000101	0.179863
C14	C	0.503630	-0.000105	0.253622
C15	C	0.400065	-0.000116	0.243044
C16	C	0.690216	-0.000090	0.190440
N17	N	1.023919	-0.265629	0.231155
C18	C	1.007258	-0.474670	0.242478
C19	C	1.083021	-0.525551	0.191008
C20	C	1.073751	-0.641869	0.197309
C21	C	1.016527	-0.358342	0.236179
C22	C	1.215865	-0.000122	0.224215
C23	C	1.317513	-0.000125	0.234615
C24	C	1.109453	-0.000105	0.049924
C25	C	1.142604	-0.000098	-0.051864
N26	N	1.066365	0.265414	0.202329
C27	C	0.813261	-0.000089	-0.367329
C28	C	0.844434	-0.000094	-0.462975
C29	C	1.019776	-0.000110	-0.470684
C30	C	0.988618	-0.000100	-0.375037
C31	C	0.885359	-0.000090	-0.323367
C32	C	1.060716	-0.000102	-0.331074
C33	C	1.029560	-0.000097	-0.235435
C34	C	0.926305	-0.000090	-0.183759
C35	C	0.854203	-0.000085	-0.227728
C36	C	1.163973	-0.000119	-0.382745
C37	C	1.236072	-0.000121	-0.338782
C38	C	1.204916	-0.000108	-0.243142
C39	C	1.101662	-0.000102	-0.191466
C40	C	1.277019	-0.000113	-0.199173
C41	C	1.245863	-0.000108	-0.103534
C42	C	1.070506	-0.000097	-0.095827
C43	C	0.980821	-0.000107	0.383566
C44	C	0.947671	-0.000108	0.485354
H45	H	0.510342	-0.000100	0.324714
H46	H	0.935439	-0.518462	0.291273
H47	H	0.785714	-0.000107	-0.498765
F48	F	0.577868	-0.000104	0.086947
H49	H	1.304572	-0.000111	-0.067739
H50	H	1.154846	-0.481754	0.142212
F51	F	0.893145	-0.000094	-0.081969
H52	H	0.986423	-0.000081	-0.053754
F53	F	0.744303	-0.000065	-0.172732
H54	H	0.729178	-0.000073	-0.325257
F55	F	1.345963	-0.000139	-0.393782
H56	H	1.103849	-0.000122	-0.512766
F57	F	1.197130	-0.000131	-0.484533
H58	H	1.361091	-0.000131	-0.241256
