data_functionalizedCrystal
_audit_creation_method	'MofGen! by Chris Wilmer'
_symmetry_space_group_name_H-M	'P1'
_symmetry_Int_Tables_number	1
_symmetry_cell_setting	triclinic
loop_
_symmetry_equiv_pos_as_xyz
  x,y,z
_cell_length_a	25.639240
_cell_length_b	12.759401
_cell_length_c	12.759393
_cell_angle_alpha	89.981433
_cell_angle_beta	89.967965
_cell_angle_gamma	90.031103
loop_
_atom_site_label
_atom_site_type_symbol
_atom_site_fract_x
_atom_site_fract_y
_atom_site_fract_z
Zn1	Zn	-0.208133	1.606129	-0.593980
Zn2	Zn	-0.295580	1.605970	-0.418299
Zn3	Zn	-0.208159	1.430431	-0.418319
Zn4	Zn	-0.295538	1.430366	-0.593940
O5	O	-0.251853	1.518224	-0.506134
O6	O	-0.219740	1.753129	-0.570684
O7	O	-0.284012	1.582645	-0.271280
O8	O	-0.134990	1.453831	-0.441646
O9	O	-0.283987	1.753012	-0.441611
O10	O	-0.134971	1.582915	-0.570703
O11	O	-0.219784	1.453677	-0.271295
O12	O	-0.219743	1.283401	-0.441607
O13	O	-0.283915	1.453721	-0.740966
O14	O	-0.283940	1.283354	-0.570635
O15	O	-0.219699	1.582853	-0.740996
O16	O	-0.368740	1.582582	-0.441572
O17	O	-0.368709	1.453567	-0.570615
C18	C	-0.251840	1.245256	-0.506120
C19	C	-0.251848	1.128480	-0.506138
C20	C	-0.218457	1.073672	-0.573450
C21	C	-0.218467	0.963947	-0.573457
C22	C	-0.285262	0.963850	-0.438837
C23	C	-0.285249	1.073572	-0.438825
C24	C	-0.179896	1.073727	-0.651176
C25	C	-0.179906	0.964003	-0.651182
C26	C	-0.387695	1.518079	-0.506110
C27	C	-0.445809	1.518113	-0.506135
C28	C	-0.696941	1.585432	-0.573403
C29	C	-0.642337	1.585401	-0.573395
O30	O	-0.614049	1.642517	-0.630554
N31	N	-0.615083	1.518228	-0.506148
C32	C	-0.642436	1.451089	-0.438897
O33	O	-0.614240	1.393952	-0.381697
C34	C	-0.697039	1.451127	-0.438900
C35	C	-0.724291	1.518297	-0.506159
C36	C	-0.724193	1.652597	-0.640656
C37	C	-0.778793	1.652627	-0.640665
C38	C	-0.806143	1.585492	-0.573421
C39	C	-0.778891	1.518327	-0.506168
C40	C	-0.724391	1.383995	-0.371645
C41	C	-0.778998	1.384039	-0.371653
C42	C	-0.806250	1.451209	-0.438912
C43	C	-0.860841	1.451222	-0.438934
N44	N	-0.888095	1.518394	-0.506181
C45	C	-0.860746	1.585530	-0.573425
C46	C	-0.527765	1.451017	-0.438894
C47	C	-0.473163	1.450973	-0.438895
C48	C	-0.473068	1.585286	-0.573392
C49	C	-0.527671	1.585323	-0.573395
C50	C	-0.555020	1.518190	-0.506141
C51	C	-0.975411	1.585587	-0.573439
C52	C	-1.030016	1.585608	-0.573445
C53	C	-1.030107	1.451299	-0.438945
C54	C	-0.975506	1.451274	-0.438942
C55	C	-0.948160	1.518426	-0.506193
O56	O	-0.889164	1.394137	-0.381801
O57	O	-0.888948	1.642668	-0.630606
C58	C	-0.115480	1.518398	-0.506182
C59	C	-0.057365	1.518472	-0.506202
C60	C	-0.251800	1.518297	-0.780168
C61	C	-0.251777	1.518329	-0.896944
C62	C	-0.251865	1.792257	-0.506150
C63	C	-0.251871	1.909034	-0.506156
C64	C	-0.218337	1.585577	-0.951824
C65	C	-0.218318	1.585602	-1.061548
C66	C	-0.285184	1.451127	-1.061504
C67	C	-0.285200	1.451098	-0.951782
C68	C	-0.179734	1.663218	-0.951850
C69	C	-0.179715	1.663243	-1.061574
C70	C	-0.251867	1.518211	-0.233167
C71	C	-0.251743	1.518383	-0.116391
H72	H	-0.139385	1.103519	-0.629523
H73	H	-0.141423	0.929985	-0.622184
C74	C	-0.199542	1.119743	-0.755516
H75	H	-0.208298	1.064308	-0.801991
H76	H	-0.229516	1.161626	-0.742924
H77	H	-0.172926	1.161672	-0.786014
C78	C	-0.194643	0.923803	-0.761043
H79	H	-0.200701	0.981728	-0.806218
H80	H	-0.166956	0.882467	-0.788197
H81	H	-0.225376	0.882425	-0.756485
H82	H	-1.052202	1.640304	-0.628222
H83	H	-0.141242	1.634153	-1.095622
C84	C	-0.321974	1.133858	-0.364774
H85	H	-0.341870	1.085439	-0.324695
H86	H	-0.301939	1.176653	-0.319068
H87	H	-0.344778	1.176662	-0.404879
C88	C	-0.557643	1.659219	-0.647369
H89	H	-0.533530	1.699198	-0.687408
H90	H	-0.578951	1.619030	-0.693115
H91	H	-0.578932	1.705041	-0.607212
C92	C	-0.322005	0.903447	-0.364806
H93	H	-0.317233	0.830251	-0.374456
H94	H	-0.314311	0.921405	-0.294241
H95	H	-0.357143	0.921413	-0.380067
C96	C	-0.125038	1.633839	-0.911639
H97	H	-0.125051	1.633832	-0.837182
H98	H	-0.115984	1.566059	-0.936449
H99	H	-0.100337	1.683521	-0.936468
C100	C	-0.945337	1.659433	-0.647432
H101	H	-0.969394	1.699423	-0.687492
H102	H	-0.924026	1.705231	-0.607302
H103	H	-0.924045	1.619188	-0.693173
C104	C	-0.442977	1.659143	-0.647351
H105	H	-0.406555	1.649503	-0.637702
H106	H	-0.451907	1.643744	-0.717933
H107	H	-0.451899	1.729751	-0.632025
C108	C	-0.808763	1.726526	-0.714639
H109	H	-0.784648	1.766507	-0.754672
H110	H	-0.830069	1.686338	-0.760391
H111	H	-0.830053	1.772345	-0.674483
H112	H	-0.701930	1.707272	-0.695413
H113	H	-0.550029	1.396339	-0.384130
C114	C	-0.443192	1.377079	-0.364917
H115	H	-0.467306	1.337109	-0.324870
H116	H	-0.421897	1.331265	-0.405058
H117	H	-0.421891	1.417285	-0.319164
C118	C	-0.199337	1.767594	-0.905861
H119	H	-0.208053	1.814097	-0.961308
H120	H	-0.229328	1.755060	-0.863938
H121	H	-0.172716	1.798027	-0.863977
C122	C	-0.694424	1.310110	-0.297659
H123	H	-0.657986	1.319687	-0.307281
H124	H	-0.703392	1.325536	-0.227087
H125	H	-0.703402	1.239515	-0.312980
C126	C	-0.809081	1.310189	-0.297676
H127	H	-0.845504	1.319828	-0.307303
H128	H	-0.800155	1.239586	-0.312985
H129	H	-0.800146	1.325610	-0.227095
C130	C	-0.945528	1.377380	-0.364970
H131	H	-0.969639	1.337403	-0.324922
H132	H	-0.924231	1.331573	-0.405114
H133	H	-0.924229	1.417588	-0.319215
C134	C	-1.060198	1.377463	-0.364976
H135	H	-1.096619	1.387117	-0.374610
H136	H	-1.051279	1.306853	-0.380275
H137	H	-1.051265	1.392889	-0.294396
H138	H	-0.312429	1.396334	-0.907103
H139	H	-0.312395	1.396388	-1.106166
H140	H	-0.190561	1.744607	-1.091352
