data_functionalizedCrystal
_audit_creation_method	'MofGen! by Chris Wilmer'
_symmetry_space_group_name_H-M	'P1'
_symmetry_Int_Tables_number	1
_symmetry_cell_setting	triclinic
loop_
_symmetry_equiv_pos_as_xyz
  x,y,z
_cell_length_a	12.759401
_cell_length_b	11.169409
_cell_length_c	12.759399
_cell_angle_alpha	89.965848
_cell_angle_beta	90.014202
_cell_angle_gamma	89.979031
loop_
_atom_site_label
_atom_site_type_symbol
_atom_site_fract_x
_atom_site_fract_y
_atom_site_fract_z
Zn1	Zn	1.606275	-0.678540	-0.418207
Zn2	Zn	1.606162	-0.477850	-0.593933
Zn3	Zn	1.430571	-0.477873	-0.418266
Zn4	Zn	1.430565	-0.678494	-0.593842
O5	O	1.518393	-0.578189	-0.506062
O6	O	1.753281	-0.651928	-0.441531
O7	O	1.582824	-0.309904	-0.570693
O8	O	1.453928	-0.504521	-0.271237
O9	O	1.753198	-0.504482	-0.570636
O10	O	1.583018	-0.651950	-0.271194
O11	O	1.453818	-0.309920	-0.441631
O12	O	1.283549	-0.504476	-0.441543
O13	O	1.453918	-0.846450	-0.570481
O14	O	1.283545	-0.651871	-0.570538
O15	O	1.583012	-0.846484	-0.441443
O16	O	1.582818	-0.504437	-0.740942
O17	O	1.453808	-0.651849	-0.740875
C18	C	1.245426	-0.578172	-0.506038
C19	C	1.128649	-0.578193	-0.506052
C20	C	0.964094	-0.655094	-0.438973
C21	C	1.073818	-0.655086	-0.438953
C22	C	1.073750	-0.501310	-0.573185
C23	C	0.964028	-0.501325	-0.573210
C24	C	1.518477	-0.891232	-0.505946
C25	C	1.518513	-1.024632	-0.505896
C26	C	1.792426	-0.578208	-0.506087
C27	C	1.909203	-0.578216	-0.506098
C28	C	1.518329	-0.578162	-0.779029
C29	C	1.518397	-0.578190	-0.895806
C30	C	1.518370	-0.266365	-0.506102
C31	C	1.518537	-0.132965	-0.505856
C32	C	1.585650	-0.501520	-0.950668
C33	C	1.585717	-0.501561	-1.060392
C34	C	1.451271	-0.654944	-1.060383
C35	C	1.451209	-0.654909	-0.950661
C36	C	1.518486	-0.578243	-0.232029
C37	C	1.518526	-0.578266	-0.115252
H38	H	0.919459	-0.717703	-0.384326
H39	H	1.396444	-0.717349	-0.905989
H40	H	1.118506	-0.717690	-0.384294
H41	H	1.396567	-0.717404	-1.105059
H42	H	1.118402	-0.438707	-0.627823
H43	H	0.919335	-0.438720	-0.627877
H44	H	1.640360	-0.439053	-0.906008
H45	H	1.640482	-0.439130	-1.105055
