data_functionalizedCrystal
_audit_creation_method	'MofGen! by Chris Wilmer'
_symmetry_space_group_name_H-M	'P1'
_symmetry_Int_Tables_number	1
_symmetry_cell_setting	triclinic
loop_
_symmetry_equiv_pos_as_xyz
  x,y,z
_cell_length_a	13.635800
_cell_length_b	10.912946
_cell_length_c	11.102291
_cell_angle_alpha	92.334093
_cell_angle_beta	108.605752
_cell_angle_gamma	107.496056
loop_
_atom_site_label
_atom_site_type_symbol
_atom_site_fract_x
_atom_site_fract_y
_atom_site_fract_z
V1	V	2.052861	0.177780	0.396254
O2	O	2.035425	-0.008526	0.388716
O3	O	2.038391	0.352491	0.393540
O4	O	2.041298	0.175052	0.569077
O5	O	2.032498	0.170141	0.211964
V6	V	2.291776	0.155495	0.374212
O7	O	2.189732	0.226664	0.444606
O8	O	2.380003	0.106610	0.325861
O9	O	2.194643	-0.019217	0.376927
O10	O	2.367911	0.341801	0.381751
O11	O	2.370838	0.163133	0.558503
O12	O	2.191736	0.158222	0.201390
V13	V	2.552861	0.177780	0.396254
O14	O	2.535425	-0.008526	0.388716
O15	O	2.538391	0.352491	0.393540
O16	O	2.541298	0.175052	0.569077
O17	O	2.532498	0.170141	0.211964
V18	V	2.791776	0.155495	0.374212
O19	O	2.689732	0.226664	0.444606
O20	O	2.880003	0.106610	0.325861
O21	O	2.694643	-0.019217	0.376927
O22	O	2.867911	0.341801	0.381751
O23	O	2.870838	0.163133	0.558503
O24	O	2.691736	0.158222	0.201390
C25	C	2.101856	-0.061801	0.383176
C26	C	2.062579	-0.204629	0.384251
C27	C	2.110131	-0.415566	0.378623
C28	C	2.150889	-0.267089	0.377000
C29	C	1.955067	-0.273863	0.266544
C30	C	1.914822	-0.422534	0.267530
C31	C	1.995093	-0.384214	0.510493
C32	C	2.038454	-0.235495	0.510823
C33	C	1.962849	0.395082	0.387288
C34	C	1.991746	0.537911	0.386220
C35	C	1.966557	0.168739	0.611201
C36	C	1.997809	0.167666	0.752484
C37	C	2.098148	0.164539	0.159259
C38	C	2.056515	0.165606	0.017975
C39	C	2.462849	0.395082	0.387288
C40	C	2.491746	0.537911	0.386220
C41	C	2.466557	0.168739	0.611201
C42	C	2.497809	0.167666	0.752484
C43	C	2.104390	0.173569	0.825332
C44	C	2.133742	0.172535	0.958078
C45	C	1.949924	0.159699	0.945117
C46	C	1.920571	0.160724	0.812372
C47	C	2.210517	0.180985	0.832816
C48	C	2.239870	0.179951	0.965563
C49	C	2.601856	-0.061801	0.383176
C50	C	2.562579	-0.204629	0.384251
C51	C	2.598148	0.164539	0.159259
C52	C	2.556515	0.165606	0.017975
C53	C	2.597218	0.611557	0.392058
C54	C	2.624367	0.745762	0.391066
C55	C	2.440559	0.732661	0.378392
C56	C	2.413414	0.598461	0.379393
C57	C	2.703338	0.619121	0.399370
C58	C	2.730486	0.753325	0.398378
C59	C	2.604390	0.173569	0.825332
C60	C	2.633742	0.172535	0.958078
C61	C	2.449924	0.159699	0.945117
C62	C	2.420571	0.160724	0.812372
C63	C	2.710517	0.180985	0.832816
C64	C	2.739870	0.179951	0.965563
H65	H	2.230829	-0.219923	0.461136
Cl66	Cl	2.270329	0.039115	1.010510
H67	H	1.887043	0.154045	0.993894
H68	H	1.887283	-0.233427	0.267378
Cl69	Cl	2.182616	-0.238318	0.236774
Cl70	Cl	2.078658	-0.423469	0.649828
Cl71	Cl	2.348454	0.323373	1.047159
H72	H	2.721681	0.093780	0.785723
H73	H	2.327534	0.538505	0.374654
Cl74	Cl	2.704742	0.536026	0.261024
Cl75	Cl	2.227742	0.046346	0.760096
H76	H	2.256648	0.276801	0.808351
H77	H	2.376788	0.781977	0.372835
H78	H	2.759590	0.599694	0.491800
Cl79	Cl	2.770329	0.039115	1.010510
H80	H	2.170521	-0.440617	0.463324
Cl81	Cl	2.848454	0.323373	1.047159
Cl82	Cl	1.863141	-0.429292	0.520896
H83	H	2.110673	-0.469725	0.288971
Cl84	Cl	2.830636	0.843664	0.543811
H85	H	2.755726	0.778564	0.311562
Cl86	Cl	2.286577	0.153293	0.720794
Cl87	Cl	2.781738	0.328912	0.795032
Cl88	Cl	2.352834	0.150976	1.020415
H89	H	1.975794	-0.191427	0.523499
H90	H	1.827284	-0.453561	0.267890
Cl91	Cl	1.908600	-0.502573	0.123051
H92	H	1.970114	-0.253694	0.172882
H93	H	2.116167	-0.188889	0.597978
H94	H	1.833785	0.155918	0.753064
