data_functionalizedCrystal
_audit_creation_method	'MofGen! by Chris Wilmer'
_symmetry_space_group_name_H-M	'P1'
_symmetry_Int_Tables_number	1
_symmetry_cell_setting	triclinic
loop_
_symmetry_equiv_pos_as_xyz
  x,y,z
_cell_length_a	10.654550
_cell_length_b	19.188930
_cell_length_c	9.730223
_cell_angle_alpha	89.990488
_cell_angle_beta	89.999957
_cell_angle_gamma	83.814856
loop_
_atom_site_label
_atom_site_type_symbol
_atom_site_fract_x
_atom_site_fract_y
_atom_site_fract_z
O1	O	1.665764	0.098062	-0.114205
O2	O	1.300088	0.107404	-0.114232
O3	O	1.493479	0.001147	-0.114191
O4	O	1.472373	0.204320	-0.114246
O5	O	1.493466	0.001144	0.114389
O6	O	1.300076	0.107402	0.114348
O7	O	1.665752	0.098059	0.114375
Zn8	Zn	1.482912	0.102730	0.150654
Zn9	Zn	1.482928	0.102734	-0.150510
O10	O	1.472361	0.204317	0.114334
C11	C	1.253298	0.106717	0.000055
C12	C	1.113898	0.104665	0.000046
C13	C	1.033089	0.167228	0.000033
C14	C	0.902109	0.165295	0.000058
C15	C	0.932761	0.038231	0.000103
C16	C	1.063738	0.040164	0.000088
C17	C	1.492789	-0.024870	0.000103
C18	C	1.490737	-0.102388	0.000115
C19	C	1.604213	-0.146570	0.000130
C20	C	1.602285	-0.219407	0.000108
C21	C	1.486876	-0.248058	0.000098
C22	C	1.373386	-0.203866	0.000076
C23	C	1.375316	-0.131032	0.000084
N24	N	1.398655	-0.356641	0.077882
N25	N	1.396829	-0.425831	0.077877
C26	C	1.481052	-0.467505	0.000070
N27	N	1.567189	-0.437375	-0.077714
N28	N	1.569019	-0.368178	-0.077703
C29	C	1.484770	-0.327034	0.000088
C30	C	1.592445	-0.590665	0.000059
C31	C	1.590513	-0.663502	0.000028
C32	C	1.361610	-0.647960	0.000010
C33	C	1.363545	-0.575124	0.000027
C34	C	1.478966	-0.546481	0.000058
C35	C	1.712541	0.098746	0.000085
C36	C	1.851941	0.100799	0.000085
C37	C	1.473051	0.230334	0.000037
C38	C	1.475102	0.307852	0.000017
N39	N	1.482910	0.102727	0.356190
N40	N	1.482940	0.102731	-0.356047
C41	C	1.568572	0.055696	0.428134
C42	C	1.568584	0.055696	0.572017
C43	C	1.397269	0.149764	0.571999
C44	C	1.397251	0.149760	0.428119
H45	H	1.129537	-0.010785	0.000102
C46	C	1.729652	-0.115607	0.000083
C47	C	1.828617	-0.169896	0.000057
C48	C	1.944189	-0.141398	-0.000005
H49	H	1.735336	-0.087535	0.079776
H50	H	1.735241	-0.087529	-0.079656
H51	H	1.823031	-0.197962	0.079789
H52	H	1.822975	-0.197972	-0.079629
H53	H	1.949778	-0.113320	-0.079745
H54	H	1.949860	-0.113326	0.079689
H55	H	2.011351	-0.178228	-0.000036
C56	C	1.240378	-0.527118	-0.000257
C57	C	1.234790	-0.484849	-0.117869
C58	C	1.121334	-0.440624	-0.118193
H59	H	1.236246	-0.498325	0.079363
H60	H	1.171331	-0.554587	-0.000340
H61	H	1.303818	-0.457381	-0.117774
H62	H	1.238901	-0.513623	-0.197509
H63	H	1.052288	-0.468094	-0.118276
H64	H	1.117213	-0.411836	-0.038567
H65	H	1.117523	-0.411944	-0.197997
H66	H	1.073924	0.219748	0.000010
H67	H	1.279418	-0.227199	0.000065
C68	C	1.725453	-0.267422	-0.000148
C69	C	1.731062	-0.309669	-0.117764
C70	C	1.844510	-0.353901	-0.118052
H71	H	1.729558	-0.296229	0.079470
H72	H	1.794506	-0.239957	-0.000204
H73	H	1.662028	-0.337132	-0.117696
H74	H	1.726978	-0.280881	-0.197401
H75	H	1.913563	-0.326436	-0.118108
H76	H	1.848606	-0.382704	-0.038429
H77	H	1.848336	-0.382566	-0.197859
C78	C	1.252011	-0.083141	-0.000137
C79	C	1.182487	-0.096166	-0.117729
C80	C	1.068884	-0.052068	-0.117967
H81	H	1.269511	-0.035638	-0.000196
H82	H	1.204595	-0.091906	0.079526
H83	H	1.229893	-0.087395	-0.197371
H84	H	1.164954	-0.143661	-0.117695
H85	H	1.021469	-0.060833	-0.038304
H86	H	1.086397	-0.004567	-0.118022
H87	H	1.021694	-0.060904	-0.197745
C88	C	1.661645	0.004723	0.349929
C89	C	1.738326	0.042282	0.267281
C90	C	1.824063	-0.004661	0.195222
H91	H	1.616715	-0.024575	0.293735
H92	H	1.712738	-0.023295	0.413316
H93	H	1.687240	0.070288	0.203903
H94	H	1.783284	0.071577	0.323442
H95	H	1.875156	-0.032679	0.258608
H96	H	1.779122	-0.033956	0.139035
H97	H	1.876109	0.020816	0.139147
H98	H	1.686428	-0.567342	0.000078
H99	H	1.638337	0.017398	0.630590
C100	C	1.713858	-0.711358	0.000113
C101	C	1.815344	-0.670679	0.000181
C102	C	1.928990	-0.714740	0.000279
H103	H	1.718055	-0.740098	-0.079581
H104	H	1.717919	-0.740093	0.079851
H105	H	1.811286	-0.641956	-0.079549
H106	H	1.811189	-0.641940	0.079869
H107	H	1.933050	-0.743476	0.080017
H108	H	1.933174	-0.743479	-0.079416
H109	H	1.997861	-0.687147	0.000338
H110	H	1.327489	0.188059	0.369538
C111	C	1.304077	0.200748	0.650029
C112	C	1.180742	0.188770	0.615085
C113	C	1.094860	0.235717	0.686950
H114	H	1.317274	0.247446	0.626486
H115	H	1.316273	0.194011	0.746036
H116	H	1.168550	0.195513	0.519099
H117	H	1.167504	0.142081	0.638631
H118	H	1.107057	0.228980	0.782957
H119	H	1.108069	0.282412	0.663402
H120	H	1.011168	0.227592	0.663261
H121	H	0.836318	0.216240	0.000050
H122	H	1.267641	-0.671287	-0.000005
H123	H	0.891904	-0.014283	0.000145
