data_functionalizedCrystal
_audit_creation_method	'MofGen! by Chris Wilmer'
_symmetry_space_group_name_H-M	'P1'
_symmetry_Int_Tables_number	1
_symmetry_cell_setting	triclinic
loop_
_symmetry_equiv_pos_as_xyz
  x,y,z
_cell_length_a	12.594516
_cell_length_b	13.897449
_cell_length_c	13.897441
_cell_angle_alpha	90.026069
_cell_angle_beta	89.972755
_cell_angle_gamma	89.981899
loop_
_atom_site_label
_atom_site_type_symbol
_atom_site_fract_x
_atom_site_fract_y
_atom_site_fract_z
Zn1	Zn	-0.423710	-1.474699	-0.545541
Zn2	Zn	-0.090377	-1.141366	-0.212208
Zn3	Zn	0.242957	-0.808033	0.121126
Zn4	Zn	-0.601721	-1.474592	-0.384252
Zn5	Zn	-0.268388	-1.141259	-0.050918
Zn6	Zn	0.064946	-0.807925	0.282415
Zn7	Zn	-0.423757	-1.313389	-0.384244
Zn8	Zn	-0.090423	-0.980055	-0.050911
Zn9	Zn	0.242910	-0.646722	0.282422
Zn10	Zn	-0.601647	-1.313369	-0.545489
Zn11	Zn	-0.268313	-0.980036	-0.212156
Zn12	Zn	0.065020	-0.646702	0.121177
O13	O	-0.512709	-1.394012	-0.464882
O14	O	-0.179375	-1.060679	-0.131548
O15	O	0.153958	-0.727346	0.201785
O16	O	-0.447335	-1.609667	-0.524170
O17	O	-0.114002	-1.276333	-0.190837
O18	O	0.219331	-0.943000	0.142496
O19	O	-0.578164	-1.453171	-0.249269
O20	O	-0.244831	-1.119838	0.084064
O21	O	0.088503	-0.786505	0.417398
O22	O	-0.274805	-1.334840	-0.405659
O23	O	0.058529	-1.001507	-0.072326
O24	O	0.391862	-0.668173	0.261008
O25	O	-0.578119	-1.609588	-0.405672
O26	O	-0.244786	-1.276255	-0.072339
O27	O	0.088548	-0.942921	0.260995
O28	O	-0.274771	-1.453354	-0.524163
O29	O	0.058563	-1.120021	-0.190830
O30	O	0.391896	-0.786688	0.142504
O31	O	-0.447414	-1.334736	-0.249264
O32	O	-0.114081	-1.001403	0.084070
O33	O	0.219252	-0.668069	0.417403
O34	O	-0.447343	-1.178404	-0.405609
O35	O	-0.114009	-0.845071	-0.072276
O36	O	0.219324	-0.511738	0.261058
O37	O	-0.577993	-1.334807	-0.680478
O38	O	-0.244659	-1.001473	-0.347145
O39	O	0.088674	-0.668140	-0.013811
O40	O	-0.578038	-1.178390	-0.524075
O41	O	-0.244704	-0.845057	-0.190742
O42	O	0.088629	-0.511723	0.142591
O43	O	-0.447263	-1.453335	-0.680516
O44	O	-0.113930	-1.120002	-0.347183
O45	O	0.219403	-0.786669	-0.013849
O46	O	-0.750657	-1.453152	-0.405622
O47	O	-0.417324	-1.119819	-0.072289
O48	O	-0.083990	-0.786486	0.261045
O49	O	-0.750602	-1.334702	-0.524082
O50	O	-0.417269	-1.001369	-0.190749
O51	O	-0.083936	-0.668036	0.142584
C52	C	-0.512688	-1.143398	-0.464836
C53	C	-0.179355	-0.810065	-0.131503
C54	C	0.153979	-0.476731	0.201830
C55	C	-0.512705	-1.036184	-0.464840
C56	C	-0.179371	-0.702851	-0.131506
C57	C	0.153962	-0.369517	0.201827
C58	C	-0.789250	-1.393940	-0.464868
C59	C	-0.455916	-1.060606	-0.131535
C60	C	-0.122583	-0.727273	0.201798
C61	C	-0.907555	-1.393997	-0.464895
C62	C	-0.574222	-1.060664	-0.131562
C63	C	-0.240888	-0.727330	0.201772
C64	C	-0.512707	-0.949114	-0.464852
C65	C	-0.179373	-0.615781	-0.131518
C66	C	0.153960	-0.282448	0.201815
C67	C	-0.512712	-0.839882	-0.464876
C68	C	-0.179379	-0.506548	-0.131543
C69	C	0.153954	-0.173215	0.201791
C70	C	-1.047581	-1.329625	-0.529293
C71	C	-0.714247	-0.996291	-0.195960
C72	C	-0.380914	-0.662958	0.137374
C73	C	-0.976670	-1.417562	-0.552965
C74	C	-0.643336	-1.084229	-0.219632
C75	C	-0.310003	-0.750896	0.113702
C76	C	-0.976895	-1.306068	-0.441266
C77	C	-0.643561	-0.972735	-0.107933
C78	C	-0.310228	-0.639401	0.225401
C79	C	-1.047429	-1.482139	-0.488649
C80	C	-0.714096	-1.148806	-0.155315
C81	C	-0.380763	-0.815472	0.178018
C82	C	-1.047661	-1.370585	-0.376908
C83	C	-0.714327	-1.037252	-0.043575
C84	C	-0.380994	-0.703918	0.289758
C85	C	-0.976781	-1.458584	-0.400547
C86	C	-0.643448	-1.125250	-0.067214
C87	C	-0.310115	-0.791917	0.266120
C88	C	-0.235088	-1.394111	-0.464916
C89	C	0.098246	-1.060778	-0.131583
C90	C	0.431579	-0.727445	0.201751
C91	C	-0.116782	-1.394154	-0.464931
C92	C	0.216551	-1.060820	-0.131597
C93	C	0.549884	-0.727487	0.201736
C94	C	-0.512615	-1.394081	-0.716475
C95	C	-0.179281	-1.060747	-0.383141
C96	C	0.154052	-0.727414	-0.049808
C97	C	-0.512574	-1.394110	-0.823689
C98	C	-0.179241	-1.060777	-0.490355
C99	C	0.154092	-0.727443	-0.157022
C100	C	-0.512726	-0.645605	-0.464916
C101	C	-0.179393	-0.312272	-0.131583
C102	C	0.153941	0.021061	0.201751
C103	C	-0.512722	-0.752819	-0.464901
C104	C	-0.179389	-0.419486	-0.131567
C105	C	0.153945	-0.086152	0.201766
C106	C	-0.512502	-1.394136	-1.019984
C107	C	-0.179169	-1.060803	-0.686651
C108	C	0.154164	-0.727469	-0.353317
C109	C	-0.512545	-1.394119	-0.910751
C110	C	-0.179212	-1.060785	-0.577418
C111	C	0.154121	-0.727452	-0.244085
C112	C	-0.512726	-1.394000	-0.214267
C113	C	-0.179392	-1.060666	0.119066
C114	C	0.153941	-0.727333	0.452399
C115	C	-0.512466	-1.394157	-0.107054
C116	C	-0.179132	-1.060824	0.226279
C117	C	0.154201	-0.727491	0.559613
H118	H	-0.945490	-1.437436	-0.627388
H119	H	-0.612156	-1.104103	-0.294055
H120	H	-0.278823	-0.770770	0.039278
H121	H	-1.078864	-1.350685	-0.302507
H122	H	-0.745531	-1.017352	0.030827
H123	H	-0.412198	-0.684019	0.364160
O124	O	-1.088287	-1.580755	-0.515272
O125	O	-0.754953	-1.247422	-0.181939
O126	O	-0.421620	-0.914088	0.151394
H127	H	-1.176413	-1.580036	-0.515119
H128	H	-0.843079	-1.246702	-0.181786
H129	H	-0.509746	-0.913369	0.151547
H130	H	-1.078664	-1.275188	-0.583779
H131	H	-0.745331	-0.941855	-0.250446
H132	H	-0.411997	-0.608522	0.082888
H133	H	-0.945905	-1.231641	-0.421266
H134	H	-0.612572	-0.898307	-0.087933
H135	H	-0.279239	-0.564974	0.245401
H136	H	-0.945892	-1.513150	-0.346102
H137	H	-0.612559	-1.179816	-0.012769
H138	H	-0.279225	-0.846483	0.320564
