data_functionalizedCrystal
_audit_creation_method	'MofGen! by Chris Wilmer'
_symmetry_space_group_name_H-M	'P1'
_symmetry_Int_Tables_number	1
_symmetry_cell_setting	triclinic
loop_
_symmetry_equiv_pos_as_xyz
  x,y,z
_cell_length_a	12.759401
_cell_length_b	19.120786
_cell_length_c	12.759393
_cell_angle_alpha	87.524000
_cell_angle_beta	89.980198
_cell_angle_gamma	92.464332
loop_
_atom_site_label
_atom_site_type_symbol
_atom_site_fract_x
_atom_site_fract_y
_atom_site_fract_z
Zn1	Zn	1.588344	-0.279614	-0.576103
Zn2	Zn	1.580705	-0.397089	-0.392908
Zn3	Zn	1.412641	-0.279647	-0.400439
Zn4	Zn	1.405108	-0.397035	-0.568553
O5	O	1.496700	-0.338346	-0.484501
O6	O	1.734351	-0.295207	-0.551810
O7	O	1.558367	-0.381546	-0.246884
O8	O	1.442297	-0.181352	-0.430053
O9	O	1.728739	-0.381515	-0.417218
O10	O	1.571386	-0.181328	-0.559112
O11	O	1.434890	-0.295262	-0.252417
O12	O	1.264621	-0.295210	-0.422732
O13	O	1.429459	-0.381423	-0.716578
O14	O	1.259087	-0.381454	-0.546244
O15	O	1.564082	-0.295154	-0.722125
O16	O	1.551063	-0.495372	-0.409897
O17	O	1.422053	-0.495333	-0.538942
C18	C	1.223733	-0.338330	-0.484486
C19	C	1.106956	-0.338340	-0.484504
C20	C	0.945273	-0.293497	-0.554691
C21	C	1.054998	-0.293483	-0.554685
C22	C	1.049182	-0.383218	-0.414332
C23	C	0.939459	-0.383235	-0.414344
C24	C	1.484940	-0.520838	-0.472806
C25	C	1.480005	-0.598909	-0.467837
C26	C	1.544846	-0.635514	-0.532752
C27	C	1.540206	-0.708870	-0.528086
C28	C	1.470728	-0.745619	-0.458499
C29	C	1.405880	-0.709009	-0.393582
C30	C	1.410516	-0.635655	-0.398254
C31	C	1.453365	-0.967106	-0.441032
C32	C	1.448736	-1.040466	-0.436363
C33	C	1.583060	-1.040321	-0.570869
C34	C	1.587695	-0.966966	-0.575531
C35	C	1.522843	-0.930362	-0.510617
C36	C	1.465985	-0.820601	-0.453725
C37	C	1.527581	-0.855382	-0.515397
C38	C	1.770732	-0.338363	-0.484516
C39	C	1.887508	-0.338370	-0.484522
C40	C	1.496783	-0.338279	-0.758538
C41	C	1.496818	-0.338250	-0.875317
C42	C	1.508534	-0.155142	-0.496264
C43	C	1.513577	-0.077071	-0.501277
C44	C	1.566921	-0.293323	-0.933069
C45	C	1.566941	-0.293293	-1.042796
C46	C	1.426751	-0.383123	-1.037007
C47	C	1.426727	-0.383149	-0.927283
C48	C	1.496681	-0.338363	-0.211532
C49	C	1.496862	-0.338194	-0.094767
H50	H	0.892425	-0.419781	-0.357203
O51	O	1.110953	-0.249825	-0.622882
C52	C	1.041565	-0.210246	-0.684840
H53	H	0.963491	-0.207792	-0.641976
H54	H	1.028275	-0.236031	-0.762920
C55	C	1.185080	-0.138511	-0.757597
C56	C	1.089191	-0.135491	-0.704946
H57	H	1.214458	-0.092399	-0.770005
H58	H	1.231829	-0.165177	-0.715859
H59	H	1.173992	-0.160001	-0.822658
H60	H	1.100282	-0.114009	-0.639882
H61	H	1.042444	-0.108820	-0.746675
H62	H	1.091495	-0.419744	-0.357194
O63	O	1.338296	-0.744597	-0.325958
C64	C	1.282077	-0.696555	-0.269647
H65	H	1.281722	-0.644248	-0.316010
H66	H	1.321084	-0.688769	-0.190384
C67	C	1.168891	-0.789500	-0.195635
C68	C	1.168447	-0.725257	-0.252583
H69	H	1.098799	-0.807205	-0.185104
H70	H	1.206768	-0.821867	-0.233569
H71	H	1.201402	-0.783003	-0.129588
H72	H	1.135948	-0.731756	-0.318633
H73	H	1.130561	-0.692891	-0.214659
O74	O	1.635082	-0.249748	-1.099008
C75	C	1.700383	-0.289725	-1.159906
H76	H	1.659894	-0.342948	-1.172921
H77	H	1.777737	-0.297458	-1.117141
C78	C	1.771647	-0.185683	-1.250631
C79	C	1.721913	-0.251050	-1.266624
H80	H	1.784932	-0.161825	-1.316458
H81	H	1.727656	-0.158749	-1.209601
H82	H	1.836103	-0.192136	-1.214990
H83	H	1.657453	-0.244595	-1.302252
H84	H	1.765894	-0.277982	-1.307663
H85	H	1.601427	-0.605597	-0.589413
O86	O	1.603316	-0.744319	-0.591167
C87	C	1.665626	-0.696153	-0.653593
H88	H	1.672569	-0.643880	-0.613896
H89	H	1.627629	-0.688341	-0.733863
C90	C	1.767114	-0.788908	-0.715732
C91	C	1.775648	-0.724707	-0.666971
H92	H	1.834979	-0.806522	-0.723989
H93	H	1.725132	-0.821359	-0.673678
H94	H	1.735446	-0.782389	-0.782619
H95	H	1.807303	-0.731228	-0.600081
H96	H	1.817638	-0.692258	-0.709014
H97	H	1.369687	-0.419679	-1.079331
O98	O	1.347422	-0.600062	-0.335347
C99	C	1.282235	-0.557629	-0.397811
H100	H	1.274310	-0.579702	-0.479145
H101	H	1.318233	-0.502015	-0.405003
C102	C	1.182841	-0.529475	-0.246563
C103	C	1.173100	-0.556589	-0.346456
H104	H	1.115522	-0.528830	-0.214884
H105	H	1.226760	-0.558061	-0.204479
H106	H	1.212842	-0.483133	-0.252571
H107	H	1.143111	-0.602933	-0.340447
H108	H	1.129172	-0.528011	-0.388539
O109	O	0.894684	-0.250020	-0.622911
C110	C	0.828700	-0.290076	-0.688126
H111	H	0.808833	-0.343277	-0.647529
H112	H	0.870525	-0.297852	-0.765460
C113	C	0.751362	-0.186119	-0.759597
C114	C	0.726954	-0.251459	-0.709732
H115	H	0.688602	-0.162298	-0.772929
H116	H	0.795819	-0.159132	-0.715664
H117	H	0.786218	-0.192608	-0.824037
H118	H	0.692110	-0.244969	-0.645288
H119	H	0.682488	-0.278445	-0.753655
O120	O	1.358588	-0.426861	-0.871333
C121	C	1.296718	-0.466477	-0.940726
H122	H	1.339607	-0.468896	-1.018792
H123	H	1.218590	-0.440746	-0.954035
C124	C	1.224058	-0.538268	-0.797211
C125	C	1.276740	-0.541245	-0.893090
H126	H	1.211730	-0.584387	-0.767827
H127	H	1.265738	-0.511577	-0.750459
H128	H	1.158958	-0.516823	-0.808316
H129	H	1.341844	-0.562681	-0.881983
H130	H	1.235070	-0.567941	-0.939840
H131	H	1.644269	-0.937046	-0.632194
O132	O	1.381144	-1.076057	-0.368740
C133	C	1.324914	-1.028021	-0.312430
H134	H	1.324557	-0.975712	-0.358789
H135	H	1.363913	-1.020235	-0.233162
C136	C	1.211731	-1.120973	-0.238434
C137	C	1.211285	-1.056728	-0.295378
H138	H	1.141641	-1.138682	-0.227911
H139	H	1.249617	-1.153337	-0.276368
H140	H	1.244236	-1.114477	-0.172384
H141	H	1.178793	-1.063227	-0.361431
H142	H	1.173392	-1.024366	-0.257454
O143	O	1.398355	-0.856271	-0.386238
C144	C	1.294758	-0.838386	-0.410218
H145	H	1.290678	-0.818176	-0.495428
H146	H	1.270012	-0.795856	-0.356565
C147	C	1.225549	-0.928421	-0.289128
C148	C	1.220535	-0.903605	-0.393787
H149	H	1.179762	-0.968650	-0.278988
H150	H	1.295344	-0.940469	-0.272969
H151	H	1.204929	-0.892973	-0.244429
H152	H	1.241167	-0.939049	-0.438483
H153	H	1.150741	-0.891564	-0.409953
H154	H	1.635858	-1.070132	-0.623719
H155	H	1.400562	-0.937309	-0.388175
H156	H	1.584146	-0.825458	-0.572059
H157	H	1.623991	-0.256762	-0.890762
