data_functionalizedCrystal
_audit_creation_method	'MofGen! by Chris Wilmer'
_symmetry_space_group_name_H-M	'P1'
_symmetry_Int_Tables_number	1
_symmetry_cell_setting	triclinic
loop_
_symmetry_equiv_pos_as_xyz
  x,y,z
_cell_length_a	6.817900
_cell_length_b	19.453114
_cell_length_c	19.453103
_cell_angle_alpha	96.316406
_cell_angle_beta	101.709178
_cell_angle_gamma	101.709288
loop_
_atom_site_label
_atom_site_type_symbol
_atom_site_fract_x
_atom_site_fract_y
_atom_site_fract_z
V1	V	-3.997997	-0.219328	-0.097914
O2	O	-3.995098	-0.214817	0.003953
O3	O	-3.941017	-0.218151	-0.193423
O4	O	-3.941018	-0.314837	-0.096738
O5	O	-3.995097	-0.117462	-0.093402
V6	V	-4.483849	-0.207105	-0.085690
O7	O	-4.254148	-0.246141	-0.124727
O8	O	-4.677895	-0.180292	-0.058877
O9	O	-4.317623	-0.208282	0.009819
O10	O	-4.604145	-0.211616	-0.187557
O11	O	-4.604146	-0.308971	-0.090202
O12	O	-4.317621	-0.111596	-0.086866
C13	C	-3.784208	-0.214774	-0.216695
C14	C	-3.818849	-0.214449	-0.294777
C15	C	-4.016582	-0.217808	-0.335044
C16	C	-4.049135	-0.217509	-0.408411
C17	C	-3.883937	-0.213837	-0.441507
C18	C	-3.686178	-0.210481	-0.401231
C19	C	-3.653634	-0.210787	-0.327867
N20	N	-3.779057	-0.170551	-0.547627
N21	N	-3.809984	-0.170259	-0.617320
C22	C	-3.981979	-0.212916	-0.662551
N23	N	-4.121905	-0.255867	-0.635454
N24	N	-4.090980	-0.256156	-0.565754
C25	C	-3.919205	-0.213505	-0.521058
C26	C	-4.215023	-0.215953	-0.782371
C27	C	-4.247572	-0.215658	-0.855741
C28	C	-3.884605	-0.208622	-0.848558
C29	C	-3.852066	-0.208924	-0.775191
C30	C	-4.017281	-0.212586	-0.742102
C31	C	-3.784208	-0.338106	-0.093363
C32	C	-3.818848	-0.416187	-0.093034
C33	C	-4.016587	-0.456456	-0.096405
C34	C	-4.049136	-0.529822	-0.096095
C35	C	-3.883941	-0.562918	-0.092429
C36	C	-3.686172	-0.522640	-0.089054
C37	C	-3.653625	-0.449274	-0.089356
N38	N	-3.820865	-0.681832	-0.129523
N39	N	-3.851796	-0.751526	-0.129237
C40	C	-3.981989	-0.783963	-0.091516
N41	N	-4.080118	-0.744075	-0.054100
N42	N	-4.049192	-0.674375	-0.054389
C43	C	-3.919211	-0.642470	-0.092100
C44	C	-4.215033	-0.903783	-0.094550
C45	C	-4.247572	-0.977150	-0.094236
C46	C	-3.884605	-0.969967	-0.087202
C47	C	-3.852068	-0.896601	-0.087509
C48	C	-4.017291	-0.863515	-0.091187
C49	C	-4.137773	-0.211656	0.033088
C50	C	-4.082370	-0.211986	0.111169
C51	C	-4.137773	-0.088323	-0.090243
C52	C	-4.082372	-0.010241	-0.090569
H53	H	-4.408596	-0.218398	-0.888526
H54	H	-3.691053	-0.863815	-0.084771
Cl55	Cl	-3.603469	-0.204694	-0.724567
H56	H	-4.408596	-1.009935	-0.096976
H57	H	-3.492597	-0.416487	-0.086606
Cl58	Cl	-4.422731	-0.862184	-0.099168
Cl59	Cl	-3.676918	-1.011565	-0.082579
H60	H	-4.151127	-0.429521	-0.099397
Cl61	Cl	-4.224277	-0.222401	-0.293448
H62	H	-4.210158	-0.220245	-0.441203
Cl63	Cl	-4.297742	-0.580454	-0.100329
H64	H	-3.551675	-0.207492	-0.428183
H65	H	-3.492614	-0.208052	-0.295081
Cl66	Cl	-4.422723	-0.220572	-0.740772
H67	H	-3.750099	-0.205636	-0.875504
H68	H	-3.551669	-0.549591	-0.086066
