data_functionalizedCrystal
_audit_creation_method	'MofGen! by Chris Wilmer'
_symmetry_space_group_name_H-M	'P1'
_symmetry_Int_Tables_number	1
_symmetry_cell_setting	triclinic
loop_
_symmetry_equiv_pos_as_xyz
  x,y,z
_cell_length_a	10.489716
_cell_length_b	15.944493
_cell_length_c	9.565339
_cell_angle_alpha	90.006105
_cell_angle_beta	89.996780
_cell_angle_gamma	84.002090
loop_
_atom_site_label
_atom_site_type_symbol
_atom_site_fract_x
_atom_site_fract_y
_atom_site_fract_z
O1	O	1.692392	0.118406	-0.116229
O2	O	1.321034	0.129551	-0.116232
O3	O	1.516893	0.001761	-0.116242
O4	O	1.496534	0.246196	-0.116219
O5	O	1.516877	0.001769	0.116278
O6	O	1.321019	0.129559	0.116288
O7	O	1.692377	0.118413	0.116292
Zn8	Zn	1.506695	0.123988	0.153207
Zn9	Zn	1.506716	0.123977	-0.153148
O10	O	1.496518	0.246204	0.116301
C11	C	1.273506	0.128718	0.000027
C12	C	1.131911	0.126212	0.000025
C13	C	1.033126	0.204577	0.000029
C14	C	0.956359	0.163172	0.114676
C15	C	0.956382	0.163145	-0.114570
C16	C	1.057010	0.084839	0.114767
C17	C	1.057037	0.084824	-0.114583
C18	C	0.980320	0.043361	0.000092
C19	C	1.516053	-0.029535	0.000012
C20	C	1.513558	-0.122798	-0.000006
C21	C	1.628845	-0.357872	0.000022
C22	C	1.566683	-0.408814	-0.114622
C23	C	1.508936	-0.293547	0.000012
C24	C	1.566640	-0.408782	0.114624
C25	C	1.504480	-0.458483	0.000034
C26	C	1.446806	-0.343261	-0.114727
C27	C	1.446780	-0.343226	0.114622
C28	C	1.384530	-0.394135	-0.000050
C29	C	1.511506	-0.198532	-0.000003
C30	C	1.501900	-0.553496	0.000038
C31	C	1.739905	0.119247	0.000029
C32	C	1.881500	0.121752	0.000022
C33	C	1.497358	0.277500	0.000044
C34	C	1.499853	0.370763	0.000053
N35	N	1.506691	0.123994	0.362287
N36	N	1.506730	0.123964	-0.362227
C37	C	1.416085	0.183073	0.453494
C38	C	1.531343	0.200063	0.546677
C39	C	1.391483	0.107011	0.546660
C40	C	1.622006	0.141022	0.453417
C41	C	1.482071	0.047937	0.453393
C42	C	1.597411	0.064895	0.546532
H43	H	0.912435	0.196239	-0.211482
N44	N	1.765656	-0.336354	-0.000111
H45	H	1.810808	-0.360339	-0.086794
H46	H	1.766303	-0.273061	0.000828
N47	N	0.949221	-0.046993	0.000152
H48	H	1.031398	-0.086128	0.001002
H49	H	0.897034	-0.057451	0.085947
H50	H	1.461184	-0.016349	0.412386
N51	N	1.115286	0.041027	-0.242977
H52	H	1.078497	0.070693	-0.329531
H53	H	1.211279	0.042590	-0.241420
N54	N	1.633757	-0.446766	-0.243009
H55	H	1.725991	-0.433852	-0.242927
H56	H	1.630719	-0.509867	-0.242436
H57	H	1.339533	0.233081	0.412644
N58	N	1.379746	-0.305255	0.243007
H59	H	1.425137	-0.329196	0.329567
H60	H	1.381244	-0.242030	0.241428
N61	N	1.262405	0.087999	0.600904
H62	H	1.243087	0.030999	0.565513
H63	H	1.263706	0.087633	0.706478
H64	H	1.617298	-0.437409	0.211541
N65	N	1.064529	0.294867	0.000163
H66	H	1.027699	0.324378	0.086850
H67	H	1.160632	0.295883	-0.000785
H68	H	0.912401	0.196256	0.211606
N69	N	1.114983	0.041051	0.243288
H70	H	1.210898	0.043057	0.242518
H71	H	1.077339	0.070438	0.329708
H72	H	1.281163	-0.410217	-0.000114
H73	H	1.552194	0.264369	0.587650
H74	H	1.719473	0.155450	0.412632
N75	N	1.379778	-0.305490	-0.243249
H76	H	1.441835	-0.275204	-0.300266
H77	H	1.347679	-0.351840	-0.301320
N78	N	1.699027	-0.001306	0.600319
H79	H	1.785979	0.011622	0.566217
H80	H	1.697879	-0.001256	0.705897
