data_functionalizedCrystal
_audit_creation_method	'MofGen! by Chris Wilmer'
_symmetry_space_group_name_H-M	'P1'
_symmetry_Int_Tables_number	1
_symmetry_cell_setting	triclinic
loop_
_symmetry_equiv_pos_as_xyz
  x,y,z
_cell_length_a	15.944545
_cell_length_b	15.944551
_cell_length_c	8.140239
_cell_angle_alpha	89.995530
_cell_angle_beta	90.000062
_cell_angle_gamma	83.497455
loop_
_atom_site_label
_atom_site_type_symbol
_atom_site_fract_x
_atom_site_fract_y
_atom_site_fract_z
O1	O	1.114525	0.108306	-0.136511
O2	O	0.869975	0.121667	-0.136538
O3	O	0.998928	-0.007288	-0.136509
O4	O	0.985572	0.237262	-0.136540
O5	O	0.998921	-0.007290	0.136718
O6	O	0.869968	0.121666	0.136689
O7	O	1.114518	0.108304	0.136716
Zn8	Zn	0.992242	0.114985	0.180084
Zn9	Zn	0.992251	0.114987	-0.179905
O10	O	0.985565	0.237260	0.136687
C11	C	0.838677	0.121113	0.000072
C12	C	0.745431	0.119453	0.000063
C13	C	0.474798	0.034559	0.000091
C14	C	0.525377	0.075487	0.134805
C15	C	0.409787	0.113532	0.000092
C16	C	0.525364	0.075510	-0.134576
C17	C	0.574701	0.116437	0.000075
C18	C	0.459137	0.154439	0.134917
C19	C	0.459121	0.154450	-0.134585
C20	C	0.509667	0.195436	0.000162
C21	C	0.314785	0.111856	0.000103
C22	C	0.669700	0.118119	0.000075
C23	C	0.998370	-0.038583	0.000105
C24	C	0.996708	-0.131829	0.000106
C25	C	0.912803	-0.346684	0.000074
C26	C	0.951762	-0.407703	0.134796
C27	C	0.993701	-0.302555	0.000093
C28	C	0.951789	-0.407685	-0.134585
C29	C	0.990790	-0.467468	0.000073
C30	C	1.032682	-0.362346	0.134926
C31	C	1.032697	-0.362321	-0.134576
C32	C	1.071715	-0.423322	0.000179
C33	C	0.995375	-0.207553	0.000106
C34	C	0.989122	-0.562469	0.000072
C35	C	1.145816	0.108859	0.000103
C36	C	1.239062	0.110519	0.000102
C37	C	0.986123	0.268555	0.000070
C38	C	0.987785	0.361801	0.000058
N39	N	0.992242	0.114983	0.425766
N40	N	0.992258	0.114982	-0.425587
H41	H	0.430325	0.187766	0.248929
H42	H	0.845655	-0.313375	0.000201
O43	O	1.073495	-0.338158	-0.270320
C44	C	1.121320	-0.222681	-0.421639
C45	C	1.075126	-0.249936	-0.267803
H46	H	1.122638	-0.151350	-0.419673
H47	H	1.188714	-0.255377	-0.422822
H48	H	1.086751	-0.241139	-0.536383
H49	H	1.109625	-0.231482	-0.152977
H50	H	1.007729	-0.217246	-0.266765
H51	H	0.554285	0.042145	-0.248459
O52	O	1.151947	-0.462745	0.000360
C53	C	1.300399	-0.446636	0.001824
C54	C	1.209580	-0.401888	0.001639
H55	H	1.347021	-0.397453	0.002823
H56	H	1.310535	-0.488195	0.115670
H57	H	1.310874	-0.487396	-0.113014
H58	H	1.199043	-0.361085	0.116400
H59	H	1.199488	-0.360381	-0.112282
O60	O	0.910808	-0.431641	0.270543
C61	C	0.780784	-0.419371	0.424077
C62	C	0.827063	-0.392213	0.270266
H63	H	0.713074	-0.387492	0.423922
H64	H	0.780388	-0.490825	0.423392
H65	H	0.814658	-0.399857	0.538859
H66	H	0.793226	-0.411670	0.155402
H67	H	0.827467	-0.320762	0.271096
H68	H	0.917565	-0.427760	-0.248490
H69	H	0.459145	-0.033453	0.000230
O70	O	0.528200	0.276619	-0.000051
C71	C	0.595985	0.383161	-0.142102
C72	C	0.575033	0.291212	-0.142097
H73	H	0.633867	0.394983	-0.256917
H74	H	0.534930	0.427919	-0.141073
H75	H	0.634720	0.394636	-0.028238
H76	H	0.536322	0.279655	-0.255943
H77	H	0.636120	0.246502	-0.143042
H78	H	0.554304	0.042134	0.248703
O79	O	0.424530	0.194329	-0.270292
C80	C	0.327669	0.308578	-0.375998
C81	C	0.366792	0.263516	-0.222158
H82	H	0.280966	0.364514	-0.337137
H83	H	0.379683	0.331974	-0.453954
H84	H	0.293351	0.262559	-0.450809
H85	H	0.401103	0.309485	-0.147220
H86	H	0.314741	0.240105	-0.144325
H87	H	1.066867	-0.342356	0.248948
