data_functionalizedCrystal
_audit_creation_method	'MofGen! by Chris Wilmer'
_symmetry_space_group_name_H-M	'P1'
_symmetry_Int_Tables_number	1
_symmetry_cell_setting	triclinic
loop_
_symmetry_equiv_pos_as_xyz
  x,y,z
_cell_length_a	19.288862
_cell_length_b	12.996460
_cell_length_c	19.288857
_cell_angle_alpha	90.008298
_cell_angle_beta	96.865805
_cell_angle_gamma	89.977761
loop_
_atom_site_label
_atom_site_type_symbol
_atom_site_fract_x
_atom_site_fract_y
_atom_site_fract_z
O1	O	-0.921348	0.085969	0.086641
O2	O	-0.588015	0.419302	0.419975
O3	O	-0.254681	0.752635	0.753308
O4	O	-0.719087	0.085884	0.098332
O5	O	-0.385753	0.419217	0.431665
O6	O	-0.052420	0.752551	0.764999
O7	O	-0.826064	0.085916	-0.008644
O8	O	-0.492731	0.419250	0.324689
O9	O	-0.159398	0.752583	0.658023
O10	O	-0.814370	0.085936	0.193617
O11	O	-0.481037	0.419270	0.526951
O12	O	-0.147703	0.752603	0.860284
O13	O	-0.826053	-0.085217	-0.008650
O14	O	-0.492720	0.248116	0.324683
O15	O	-0.159387	0.581449	0.658017
O16	O	-0.719076	-0.085250	0.098326
O17	O	-0.385742	0.248084	0.431659
O18	O	-0.052409	0.581417	0.764993
O19	O	-0.921337	-0.085165	0.086636
O20	O	-0.588003	0.248168	0.419969
O21	O	-0.254670	0.581501	0.753302
Cu22	Cu	-0.820205	-0.100833	0.092480
Cu23	Cu	-0.486872	0.232500	0.425814
Cu24	Cu	-0.153539	0.565833	0.759147
Cu25	Cu	-0.820218	0.101552	0.092487
Cu26	Cu	-0.486885	0.434886	0.425821
Cu27	Cu	-0.153552	0.768219	0.759154
O28	O	-0.814359	-0.085198	0.193612
O29	O	-0.481026	0.248136	0.526945
O30	O	-0.147692	0.581469	0.860278
C31	C	-0.693205	0.000306	0.097953
C32	C	-0.359871	0.333640	0.431287
C33	C	-0.026538	0.666973	0.764620
C34	C	-0.616101	0.000274	0.096825
C35	C	-0.282768	0.333607	0.430158
C36	C	0.050566	0.666940	0.763491
N37	N	-0.820201	-0.243180	0.092475
N38	N	-0.486868	0.090153	0.425808
N39	N	-0.153534	0.423486	0.759142
C40	C	-0.571403	0.000293	0.159593
C41	C	-0.238070	0.333626	0.492927
C42	C	0.095264	0.666960	0.826260
C43	C	-0.498956	0.000299	0.158533
C44	C	-0.165623	0.333632	0.491867
C45	C	0.167711	0.666966	0.825200
C46	C	-0.471210	0.000306	0.094701
C47	C	-0.137877	0.333640	0.428034
C48	C	0.195457	0.666973	0.761368
C49	C	-0.515918	0.000281	0.031924
C50	C	-0.182585	0.333614	0.365258
C51	C	0.150749	0.666948	0.698591
C52	C	-0.588363	0.000265	0.032986
C53	C	-0.255030	0.333598	0.366320
C54	C	0.078303	0.666931	0.699653
C55	C	-0.362953	0.060284	0.044525
C56	C	-0.029620	0.393617	0.377858
C57	C	0.303713	0.726950	0.711191
C58	C	-0.290509	0.060306	0.043465
C59	C	0.042825	0.393640	0.376799
C60	C	0.376158	0.726973	0.710132
C61	C	-0.247764	0.000352	0.091423
C62	C	0.085569	0.333685	0.424757
C63	C	0.418902	0.667019	0.758090
C64	C	-0.277472	-0.059612	0.140452
C65	C	0.055862	0.273722	0.473786
C66	C	0.389195	0.607055	0.807119
C67	C	-0.349917	-0.059628	0.141514
C68	C	-0.016584	0.273705	0.474847
C69	C	0.316749	0.607039	0.808181
C70	C	-0.392656	0.000323	0.093543
C71	C	-0.059323	0.333657	0.426876
C72	C	0.274011	0.666990	0.760209
C73	C	-0.124510	0.000376	0.153047
C74	C	0.208823	0.333710	0.486380
C75	C	0.542156	0.667043	0.819713
C76	C	-0.052062	0.000376	0.151984
C77	C	0.281271	0.333709	0.485317
C78	C	0.614605	0.667043	0.818651
C79	C	-0.069026	0.000369	0.025373
C80	C	0.264308	0.333702	0.358707
C81	C	0.597641	0.667035	0.692040
C82	C	-0.141472	0.000359	0.026438
C83	C	0.191861	0.333692	0.359771
C84	C	0.525194	0.667025	0.693104
C85	C	-0.169210	0.000367	0.090276
C86	C	0.164123	0.333701	0.423610
C87	C	0.497457	0.667034	0.756943
C88	C	-0.820217	-0.662995	0.092488
C89	C	-0.486884	-0.329661	0.425821
C90	C	-0.153551	0.003672	0.759155
C91	C	-0.820211	-0.546190	0.092487
C92	C	-0.486877	-0.212856	0.425820
C93	C	-0.153544	0.120477	0.759153
C94	C	-0.820210	-0.453091	0.092482
C95	C	-0.486876	-0.119758	0.425815
C96	C	-0.153543	0.213575	0.759149
C97	C	-0.820202	-0.336279	0.092480
C98	C	-0.486869	-0.002945	0.425813
C99	C	-0.153536	0.330388	0.759146
C100	C	0.052781	0.000397	0.087017
C101	C	0.386115	0.333730	0.420350
C102	C	0.719448	0.667063	0.753683
C103	C	-0.024321	0.000382	0.088151
C104	C	0.309012	0.333715	0.421485
C105	C	0.642345	0.667048	0.754818
C106	C	-0.825684	0.000348	-0.034523
C107	C	-0.492350	0.333682	0.298810
C108	C	-0.159017	0.667015	0.632143
C109	C	-0.824557	0.000345	-0.111627
C110	C	-0.491223	0.333678	0.221706
C111	C	-0.157890	0.667012	0.555039
N112	N	-0.820228	0.243899	0.092487
N113	N	-0.486895	0.577233	0.425820
N114	N	-0.153561	0.910566	0.759154
C115	C	-0.824037	0.093630	-0.147835
C116	C	-0.490703	0.426963	0.185499
C117	C	-0.157370	0.760297	0.518832
C118	C	-0.822968	0.093637	-0.220281
C119	C	-0.489635	0.426971	0.113053
C120	C	-0.156301	0.760304	0.446386
C121	C	-0.822433	0.000354	-0.256518
C122	C	-0.489100	0.333687	0.076815
C123	C	-0.155767	0.667021	0.410148
C124	C	-0.822949	-0.092943	-0.220302
C125	C	-0.489616	0.240390	0.113032
C126	C	-0.156283	0.573724	0.446365
C127	C	-0.824011	-0.092948	-0.147856
C128	C	-0.490678	0.240386	0.185477
C129	C	-0.157344	0.573719	0.518810
C130	C	-0.861430	-0.071090	-0.376753
C131	C	-0.528097	0.262243	-0.043419
C132	C	-0.194764	0.595577	0.289914
C133	C	-0.860373	-0.071081	-0.449197
C134	C	-0.527040	0.262252	-0.115864
C135	C	-0.193706	0.595585	0.217469
C136	C	-0.819156	0.000364	-0.479964
C137	C	-0.485822	0.333698	-0.146631
C138	C	-0.152489	0.667031	0.186702
C139	C	-0.779005	0.071819	-0.438279
C140	C	-0.445671	0.405152	-0.104945
C141	C	-0.112338	0.738486	0.228388
C142	C	-0.780066	0.071815	-0.365833
C143	C	-0.446733	0.405148	-0.032500
C144	C	-0.113400	0.738481	0.300834
C145	C	-0.821282	0.000349	-0.335073
C146	C	-0.487948	0.333682	-0.001740
C147	C	-0.154615	0.667015	0.331593
C148	C	-0.817476	0.093664	-0.594726
C149	C	-0.484142	0.426997	-0.261392
C150	C	-0.150809	0.760330	0.071941
C151	C	-0.816403	0.093667	-0.667173
C152	C	-0.483069	0.427000	-0.333839
C153	C	-0.149736	0.760334	-0.000506
C154	C	-0.816391	-0.092916	-0.667193
C155	C	-0.483058	0.240417	-0.333860
C156	C	-0.149724	0.573751	-0.000526
C157	C	-0.817457	-0.092917	-0.594747
C158	C	-0.484124	0.240417	-0.261413
C159	C	-0.150790	0.573750	0.071920
C160	C	-0.818003	0.000376	-0.558518
C161	C	-0.484669	0.333709	-0.225185
C162	C	-0.151336	0.667043	0.108149
C163	C	-0.814740	0.000373	0.219491
C164	C	-0.481407	0.333706	0.552824
C165	C	-0.148073	0.667039	0.886158
C166	C	-0.815867	0.000383	0.296595
C167	C	-0.482534	0.333716	0.629928
C168	C	-0.149200	0.667050	0.963262
H169	H	-0.593982	0.000302	0.211576
H170	H	-0.260648	0.333635	0.544909
H171	H	0.072685	0.666969	0.878242
F172	F	-0.189045	0.000343	-0.040370
F173	F	0.144288	0.333677	0.292963
F174	F	0.477621	0.667010	0.626297
H175	H	-0.046436	0.000438	-0.026600
H176	H	0.286897	0.333772	0.306733
H177	H	0.620231	0.667105	0.640067
H178	H	-0.624757	0.000250	-0.018129
H179	H	-0.291424	0.333583	0.315204
H180	H	0.041909	0.666916	0.648538
F181	F	-0.824614	0.192921	-0.109281
F182	F	-0.491281	0.526254	0.224052
F183	F	-0.157947	0.859588	0.557386
F184	F	-0.818010	-0.192205	-0.556211
F185	F	-0.484677	0.141129	-0.222877
F186	F	-0.151344	0.474462	0.110456
F187	F	-0.818052	0.192952	-0.556165
F188	F	-0.484719	0.526286	-0.222832
F189	F	-0.151386	0.859619	0.110501
H190	H	-0.824431	-0.168914	-0.118376
H191	H	-0.491098	0.164419	0.214957
H192	H	-0.157765	0.497753	0.548291
F193	F	-0.815845	0.192959	-0.705706
F194	F	-0.482511	0.526293	-0.372373
F195	F	-0.149178	0.859626	-0.039040
F196	F	-0.451376	0.000317	0.225343
F197	F	-0.118043	0.333650	0.558676
F198	F	0.215291	0.666983	0.892009
F199	F	-0.258898	0.124134	-0.008709
F200	F	0.074436	0.457467	0.324624
F201	F	0.407769	0.790800	0.657958
H202	H	-0.374102	-0.108456	0.181433
H203	H	-0.040769	0.224878	0.514766
H204	H	0.292564	0.558211	0.848100
H205	H	-0.397751	0.109112	0.005470
H206	H	-0.064417	0.442445	0.338804
H207	H	0.268916	0.775779	0.672137
H208	H	-0.493323	0.000301	-0.020048
H209	H	-0.159989	0.333635	0.313285
H210	H	0.173344	0.666968	0.646618
F211	F	-0.154033	0.000378	0.220988
F212	F	0.179300	0.333711	0.554322
F213	F	0.512634	0.667045	0.887655
F214	F	-0.004490	0.000391	0.218795
F215	F	0.328843	0.333725	0.552128
F216	F	0.662176	0.667058	0.885461
F217	F	-0.822414	0.192928	-0.258823
F218	F	-0.489081	0.526261	0.074510
F219	F	-0.155747	0.859594	0.407844
H220	H	-0.815950	-0.168869	-0.696696
H221	H	-0.482617	0.164464	-0.363363
H222	H	-0.149284	0.497798	-0.030030
H223	H	-0.747373	0.129993	-0.331895
H224	H	-0.414039	0.463327	0.001438
H225	H	-0.080706	0.796660	0.334772
H226	H	-0.745442	0.129997	-0.463327
H227	H	-0.412108	0.463331	-0.129993
H228	H	-0.078775	0.796664	0.203340
H229	H	-0.893069	-0.129261	-0.483133
H230	H	-0.559735	0.204073	-0.149800
H231	H	-0.226402	0.537406	0.183534
F232	F	-0.822376	-0.192222	-0.258869
F233	F	-0.489042	0.141112	0.074465
F234	F	-0.155709	0.474445	0.407798
F235	F	-0.231986	-0.123424	0.191497
F236	F	0.101348	0.209909	0.524831
F237	F	0.434681	0.543243	0.858164
H238	H	-0.894994	-0.129278	-0.351709
H239	H	-0.561660	0.204056	-0.018376
H240	H	-0.228327	0.537389	0.314958
