data_functionalizedCrystal
_audit_creation_method	'MofGen! by Chris Wilmer'
_symmetry_space_group_name_H-M	'P1'
_symmetry_Int_Tables_number	1
_symmetry_cell_setting	triclinic
loop_
_symmetry_equiv_pos_as_xyz
  x,y,z
_cell_length_a	19.077409
_cell_length_b	12.759400
_cell_length_c	19.076919
_cell_angle_alpha	92.275542
_cell_angle_beta	94.476475
_cell_angle_gamma	92.316286
loop_
_atom_site_label
_atom_site_type_symbol
_atom_site_fract_x
_atom_site_fract_y
_atom_site_fract_z
Zn1	Zn	1.061716	-0.375879	-0.355463
Zn2	Zn	1.066390	-0.544223	-0.237590
Zn3	Zn	0.948571	-0.375914	-0.242312
Zn4	Zn	0.943820	-0.558874	-0.360153
O5	O	1.005124	-0.463723	-0.298879
O6	O	1.160983	-0.392064	-0.335889
O7	O	1.054705	-0.515780	-0.139569
O8	O	0.963612	-0.228887	-0.257335
O9	O	1.164417	-0.515746	-0.249287
O10	O	1.046739	-0.228862	-0.340467
O11	O	0.968144	-0.392124	-0.143038
O12	O	0.849293	-0.406330	-0.261882
O13	O	0.955515	-0.540717	-0.458178
O14	O	0.845803	-0.540750	-0.348459
O15	O	1.042132	-0.406271	-0.454733
O16	O	1.050098	-0.693189	-0.253834
O17	O	0.960047	-0.703953	-0.343881
C18	C	0.821970	-0.475135	-0.306193
C19	C	0.743615	-0.480043	-0.309338
C20	C	0.302366	-0.515166	-0.331930
C21	C	0.375989	-0.510561	-0.328961
C22	C	0.414592	-0.438170	-0.282476
C23	C	0.379568	-0.370386	-0.238951
C24	C	0.305947	-0.374997	-0.241916
C25	C	0.634970	-0.416870	-0.268778
C26	C	0.708596	-0.412263	-0.265818
C27	C	0.705012	-0.552439	-0.355828
C28	C	0.631389	-0.557039	-0.358792
C29	C	0.596372	-0.489259	-0.315264
N30	N	0.489847	-0.433459	-0.279442
N31	N	0.521119	-0.493976	-0.318295
C32	C	1.005083	-0.736692	-0.298869
C33	C	1.005129	-0.853467	-0.298885
C34	C	1.048392	-0.908229	-0.342211
C35	C	1.048431	-1.017952	-0.342228
C36	C	0.961942	-1.018140	-0.255588
C37	C	0.961900	-0.908420	-0.255575
C38	C	1.070284	-1.171413	-0.424401
C39	C	1.113558	-1.226178	-0.467720
C40	C	1.181885	-1.186858	-0.475848
C41	C	1.206953	-1.092773	-0.440645
C42	C	1.163682	-1.038013	-0.397321
C43	C	1.095345	-1.077333	-0.389207
C44	C	0.940054	-0.754957	-0.173401
C45	C	0.896787	-0.700194	-0.130072
C46	C	0.828458	-0.739511	-0.121937
C47	C	0.803394	-0.833599	-0.157127
C48	C	0.846661	-0.888361	-0.200456
C49	C	0.914989	-0.849036	-0.208592
C50	C	1.188993	-0.452267	-0.291538
C51	C	1.267347	-0.447385	-0.288410
C52	C	0.997772	-0.475124	-0.482748
C53	C	0.994639	-0.479983	-0.561103
C54	C	1.005184	-0.189687	-0.298905
C55	C	1.005210	-0.072910	-0.298916
C56	C	1.038262	-0.412270	-0.596121
C57	C	1.035310	-0.416831	-0.669743
C58	C	0.988738	-0.489112	-0.708346
C59	C	0.945110	-0.556828	-0.673322
C60	C	0.948060	-0.552260	-0.599701
C61	C	0.975079	-0.510273	-0.928721
C62	C	0.972134	-0.514838	-1.002347
C63	C	1.062333	-0.374839	-0.998762
C64	C	1.065281	-0.370283	-0.925140
C65	C	1.021651	-0.437995	-0.890123
N66	N	0.985721	-0.493778	-0.783599
N67	N	1.024665	-0.433322	-0.814871
C68	C	1.012488	-0.452288	-0.115724
C69	C	1.015757	-0.447125	-0.037365
H70	H	0.277435	-0.319800	-0.206479
H71	H	0.926747	-1.062896	-0.220325
F72	F	1.094398	-0.849748	-0.388307
H73	H	0.826248	-0.964972	-0.229110
F74	F	0.922561	-0.591768	-1.043429
F75	F	1.227940	-1.245147	-0.521951
F76	F	0.782414	-0.681231	-0.075813
H77	H	1.184092	-0.961413	-0.368658
H78	H	0.404498	-0.565758	-0.364399
H79	H	0.599964	-0.615990	-0.396644
H80	H	1.262595	-1.060772	-0.447260
F81	F	1.087835	-0.335343	-0.555044
H82	H	0.939562	-0.565424	-0.900219
F83	F	0.895542	-0.633750	-0.714408
F84	F	1.114850	-0.293352	-0.884062
H85	H	1.014644	-1.203430	-0.417795
F86	F	1.108763	-0.302778	-1.036035
H87	H	0.747756	-0.865614	-0.150502
H88	H	0.912530	-0.607389	-0.571191
H89	H	0.270941	-0.574109	-0.369787
F90	F	0.742286	-0.624576	-0.402145
H91	H	0.740025	-0.353300	-0.227969
F92	F	1.081764	-0.344796	-0.707008
H93	H	1.093142	-1.302782	-0.496383
F94	F	1.012779	-0.713105	-0.182055
F95	F	0.420654	-0.293346	-0.189475
F96	F	0.597711	-0.344724	-0.222458
H97	H	0.917202	-0.623586	-0.101415
