data_functionalizedCrystal
_audit_creation_method	'MofGen! by Chris Wilmer'
_symmetry_space_group_name_H-M	'P1'
_symmetry_Int_Tables_number	1
_symmetry_cell_setting	triclinic
loop_
_symmetry_equiv_pos_as_xyz
  x,y,z
_cell_length_a	17.917603
_cell_length_b	14.560438
_cell_length_c	14.560438
_cell_angle_alpha	59.997697
_cell_angle_beta	57.013001
_cell_angle_gamma	90.001010
loop_
_atom_site_label
_atom_site_type_symbol
_atom_site_fract_x
_atom_site_fract_y
_atom_site_fract_z
Zr1	Zr	0.754912	-0.078303	0.920755
O2	O	0.629788	-0.231970	1.126376
O3	O	0.793268	-0.031188	0.724852
O4	O	0.793268	-0.222801	0.916457
O5	O	0.629788	0.110781	0.934774
O6	O	0.922226	-0.215578	0.902013
O7	O	0.629788	-0.040357	0.934771
O8	O	0.922225	0.127184	0.559266
O9	O	0.629789	-0.231980	1.277520
O10	O	0.905867	-0.005713	0.791051
O11	O	0.809628	0.101689	0.801833
O12	O	0.809628	-0.123911	1.027423
O13	O	0.713390	-0.016509	1.038204
Zr14	Zr	0.960585	0.174265	0.897723
Zr15	Zr	0.960583	-0.066783	0.897719
Zr16	Zr	0.754913	0.162745	0.920759
Zr17	Zr	0.754913	-0.078319	1.161812
Zr18	Zr	0.960583	0.174281	0.656666
O19	O	0.922228	0.127150	1.093626
O20	O	0.922227	-0.215590	1.093621
O21	O	0.629790	0.110769	1.126382
O22	O	1.085708	0.327932	0.692102
O23	O	1.085707	-0.014807	0.692096
O24	O	0.793270	0.311552	0.724857
O25	O	1.085708	-0.014819	0.883704
O26	O	0.922228	0.318763	0.902021
O27	O	0.793271	0.311540	0.916465
O28	O	1.085709	0.136319	0.883707
O29	O	0.793271	-0.222823	1.259208
O30	O	0.922226	0.318785	0.559270
O31	O	1.085707	0.327942	0.540958
O32	O	1.085706	0.136341	0.540955
O33	O	0.629790	-0.040379	1.277523
O34	O	0.793271	-0.031222	1.259212
O35	O	0.905868	0.219873	0.791055
O36	O	1.002107	0.112471	0.780274
O37	O	0.905868	-0.005727	1.016645
O38	O	0.809629	0.101675	1.027427
C39	C	0.600484	0.033571	0.938055
C40	C	0.513171	0.028680	0.947834
C41	C	0.857746	0.048000	0.607714
C42	C	0.857746	0.048007	0.505379
C43	C	0.857750	0.349495	0.909244
C44	C	0.857750	0.451827	0.909246
C45	C	0.353327	0.019748	0.965698
C46	C	0.362162	0.076211	0.852785
C47	C	0.273220	0.071241	0.862725
C48	C	0.442276	0.024717	0.955761
C49	C	1.115012	0.062391	0.880423
C50	C	1.202325	0.067282	0.870644
C51	C	0.857747	-0.253533	0.909234
C52	C	0.857746	-0.355865	0.909232
C53	C	0.807516	0.438207	1.032627
C54	C	0.807511	0.534362	1.032621
C55	C	0.907982	0.657753	0.785842
C56	C	0.907981	0.561599	0.785850
C57	C	0.786700	-0.039254	0.548549
C58	C	0.786704	-0.039282	0.452409
C59	C	0.928803	0.135221	0.269928
C60	C	0.928802	0.135244	0.366068
C61	C	0.857750	0.047962	1.210764
C62	C	0.857751	0.047955	1.313099
C63	C	1.115010	0.062411	0.578898
C64	C	1.202323	0.067308	0.466783
C65	C	0.857748	0.349515	0.607719
C66	C	0.857747	0.451853	0.505385
C67	C	1.115012	0.363925	0.578903
C68	C	1.202324	0.471154	0.466790
C69	C	0.600485	-0.267963	1.239575
C70	C	0.513172	-0.375192	1.351688
C71	C	0.600486	0.033551	1.239580
C72	C	0.513174	0.028654	1.351695
C73	C	0.857749	-0.253553	1.210759
C74	C	0.857749	-0.355891	1.313093
C75	C	1.193089	0.007907	0.419759
C76	C	1.275121	0.012485	0.314429
C77	C	1.366385	0.076472	0.256120
C78	C	1.375616	0.135875	0.303154
C79	C	1.293585	0.131289	0.408488
C80	C	1.293572	0.465447	0.408512
C81	C	1.375619	0.566191	0.303182
C82	C	1.366417	0.672640	0.256126
C83	C	1.275161	0.678344	0.314415
C84	C	1.193115	0.577601	0.419749
C85	C	0.421925	-0.369485	1.409978
C86	C	0.339877	-0.470229	1.515337
C87	C	0.349079	-0.576678	1.562398
C88	C	0.440336	-0.582382	1.504103
C89	C	0.522381	-0.481639	1.398753
C90	C	0.522407	0.088045	1.398729
C91	C	0.440376	0.083440	1.504085
C92	C	0.349112	0.019450	1.562398
C93	C	0.339880	-0.039948	1.515360
C94	C	0.421911	-0.035349	1.410012
C95	C	0.907983	0.561622	0.451681
C96	C	0.907971	0.657774	0.355539
C97	C	0.807489	0.534375	0.366809
C98	C	0.807495	0.438225	0.462957
H99	H	0.436524	0.128282	0.748652
H100	H	0.986661	0.206304	0.330904
H101	H	1.118820	0.582263	0.467187
H102	H	0.414414	-0.282818	1.371668
H103	H	0.278970	-0.032320	1.069823
Cl104	Cl	1.263609	0.812176	0.255241
H105	H	0.596711	0.140160	1.351258
H106	H	0.265580	-0.465562	1.562784
Cl107	Cl	0.744365	0.300211	1.187753
Cl108	Cl	0.971124	0.795769	0.288032
H109	H	0.948887	0.572697	0.685372
Cl110	Cl	1.078367	-0.072548	0.493047
H111	H	1.433232	0.754662	0.170355
Cl112	Cl	0.744346	0.517232	1.187738
H113	H	0.766576	0.523293	0.332250
H114	H	0.414379	-0.083710	1.371721
H115	H	0.265562	-0.092048	1.562854
Cl116	Cl	0.971130	0.795754	0.630724
H117	H	0.596677	-0.486299	1.351293
Cl118	Cl	0.744331	0.300218	0.530484
H119	H	0.728853	-0.110340	0.487571
H120	H	0.728836	-0.110282	0.661980
Cl121	Cl	1.018122	0.244889	0.094795
Cl122	Cl	1.263493	-0.062193	0.255318
H123	H	0.447911	0.131814	1.542366
Cl124	Cl	1.469500	0.082228	0.123696
Cl125	Cl	1.490355	0.216316	0.229830
Cl126	Cl	1.490330	0.558993	0.229920
Cl127	Cl	1.305210	0.205982	0.467582
Cl128	Cl	1.305165	0.331638	0.467653
H129	H	0.948898	0.572724	0.486228
Cl130	Cl	0.245925	-0.703317	1.694840
H131	H	0.447817	-0.669065	1.542434
H132	H	0.282325	0.015715	1.648178
