data_functionalizedCrystal
_audit_creation_method	'MofGen! by Chris Wilmer'
_symmetry_space_group_name_H-M	'P1'
_symmetry_Int_Tables_number	1
_symmetry_cell_setting	triclinic
loop_
_symmetry_equiv_pos_as_xyz
  x,y,z
_cell_length_a	21.395362
_cell_length_b	14.908178
_cell_length_c	21.395355
_cell_angle_alpha	93.314561
_cell_angle_beta	90.043940
_cell_angle_gamma	93.328618
loop_
_atom_site_label
_atom_site_type_symbol
_atom_site_fract_x
_atom_site_fract_y
_atom_site_fract_z
Zn1	Zn	0.943530	-0.358911	0.340196
Zn2	Zn	1.276864	-0.025577	0.673529
Zn3	Zn	1.610197	0.307756	1.006862
Zn4	Zn	0.937410	-0.509764	0.229370
Zn5	Zn	1.270744	-0.176430	0.562703
Zn6	Zn	1.604077	0.156903	0.896037
Zn7	Zn	0.838744	-0.358953	0.235395
Zn8	Zn	1.172077	-0.025619	0.568729
Zn9	Zn	1.505410	0.307714	0.902062
Zn10	Zn	0.832691	-0.509782	0.334074
Zn11	Zn	1.166024	-0.176449	0.667407
Zn12	Zn	1.499358	0.156885	1.000741
O13	O	0.888094	-0.434352	0.284759
O14	O	1.221427	-0.101019	0.618092
O15	O	1.554761	0.232314	0.951425
O16	O	1.030397	-0.378896	0.325535
O17	O	1.363731	-0.045563	0.658868
O18	O	1.697064	0.287770	0.992201
O19	O	0.924294	-0.489768	0.142491
O20	O	1.257627	-0.156435	0.475824
O21	O	1.590960	0.176899	0.809158
O22	O	0.857738	-0.232692	0.254381
O23	O	1.191071	0.100641	0.587714
O24	O	1.524405	0.433975	0.921047
O25	O	1.025901	-0.489727	0.244112
O26	O	1.359234	-0.156394	0.577445
O27	O	1.692568	0.176939	0.910778
O28	O	0.934725	-0.232661	0.331377
O29	O	1.268058	0.100672	0.664711
O30	O	1.601391	0.434006	0.998044
O31	O	0.851804	-0.378968	0.146918
O32	O	1.185137	-0.045634	0.480251
O33	O	1.518470	0.287699	0.813584
O34	O	0.750262	-0.378986	0.248445
O35	O	1.083595	-0.045652	0.581778
O36	O	1.416929	0.287681	0.915112
O37	O	0.847422	-0.489759	0.422564
O38	O	1.180756	-0.156426	0.755898
O39	O	1.514089	0.176908	1.089231
O40	O	0.745815	-0.489800	0.320944
O41	O	1.079148	-0.156466	0.654277
O42	O	1.412482	0.176867	0.987610
O43	O	0.928856	-0.378914	0.427062
O44	O	1.262189	-0.045581	0.760395
O45	O	1.595522	0.287752	1.093729
O46	O	0.918425	-0.636021	0.238176
O47	O	1.251758	-0.302688	0.571509
O48	O	1.585091	0.030645	0.904842
O49	O	0.841488	-0.636035	0.315101
O50	O	1.174821	-0.302701	0.648435
O51	O	1.508155	0.030632	0.981768
C52	C	0.725304	-0.434400	0.284684
C53	C	1.058638	-0.101067	0.618017
C54	C	1.391971	0.232267	0.951351
C55	C	0.655661	-0.434442	0.284666
C56	C	0.988995	-0.101109	0.618000
C57	C	1.322328	0.232225	0.951333
C58	C	0.878652	-0.668765	0.275334
C59	C	1.211986	-0.335431	0.608667
C60	C	1.545319	-0.002098	0.942001
C61	C	0.874671	-0.769047	0.271323
C62	C	1.208004	-0.435714	0.604656
C63	C	1.541337	-0.102380	0.937990
C64	C	0.620646	-0.492219	0.322353
C65	C	0.953979	-0.158886	0.655687
C66	C	1.287313	0.174447	0.989020
C67	C	0.555212	-0.492197	0.322382
C68	C	0.888545	-0.158864	0.655715
C69	C	1.221878	0.174470	0.989049
C70	C	0.524794	-0.434407	0.284712
C71	C	0.858128	-0.101074	0.618046
C72	C	1.191461	0.232259	0.951379
C73	C	0.559818	-0.376619	0.247023
C74	C	0.893151	-0.043286	0.580356
C75	C	1.226485	0.290048	0.913689
C76	C	0.625251	-0.376636	0.247000
C77	C	0.958585	-0.043303	0.580333
C78	C	1.291918	0.290030	0.913666
C79	C	0.421360	-0.427139	0.228598
C80	C	0.754693	-0.093806	0.561932
C81	C	1.088027	0.239528	0.895265
C82	C	0.355927	-0.427128	0.228620
C83	C	0.689261	-0.093795	0.561953
C84	C	1.022594	0.239539	0.895287
C85	C	0.322976	-0.434348	0.284784
C86	C	0.656309	-0.101015	0.618117
C87	C	0.989643	0.232318	0.951450
C88	C	0.355465	-0.441599	0.340927
C89	C	0.688798	-0.108266	0.674260
C90	C	1.022131	0.225068	1.007593
C91	C	0.420898	-0.441616	0.340904
C92	C	0.754231	-0.108283	0.674237
C93	C	1.087565	0.225050	1.007570
C94	C	0.453843	-0.434382	0.284733
C95	C	0.787176	-0.101048	0.618067
C96	C	1.120510	0.232285	0.951400
C97	C	0.217009	-0.492105	0.322505
C98	C	0.550343	-0.158771	0.655839
C99	C	0.883676	0.174562	0.989172
C100	C	0.151574	-0.492076	0.322535
C101	C	0.484907	-0.158743	0.655869
C102	C	0.818240	0.174590	0.989202
C103	C	0.156181	-0.376503	0.247170
C104	C	0.489515	-0.043170	0.580504
C105	C	0.822848	0.290164	0.913837
C106	C	0.221616	-0.376527	0.247146
C107	C	0.554949	-0.043193	0.580479
C108	C	0.888282	0.290140	0.913813
C109	C	0.252025	-0.434332	0.284812
C110	C	0.585359	-0.100999	0.618146
C111	C	0.918692	0.232334	0.951479
C112	C	0.947294	-0.957307	0.344048
C113	C	1.280627	-0.623973	0.677382
C114	C	1.613961	-0.290640	1.010715
C115	C	0.943555	-1.051531	0.340282
C116	C	1.276888	-0.718198	0.673615
C117	C	1.610221	-0.384864	1.006948
C118	C	0.863451	-1.051722	0.260027
C119	C	1.196784	-0.718389	0.593360
C120	C	1.530118	-0.385055	0.926694
C121	C	0.867190	-0.957498	0.263793
C122	C	1.200523	-0.624164	0.597127
C123	C	1.533857	-0.290831	0.930460
C124	C	0.909113	-0.910293	0.305805
C125	C	1.242447	-0.576960	0.639138
C126	C	1.575780	-0.243627	0.972472
C127	C	0.912855	-0.816067	0.309568
C128	C	1.246189	-0.482734	0.642901
C129	C	1.579522	-0.149400	0.976235
C130	C	0.832749	-0.816260	0.229317
C131	C	1.166082	-0.482926	0.562650
C132	C	1.499415	-0.149593	0.895983
C133	C	0.829010	-0.910484	0.225550
C134	C	1.162343	-0.577151	0.558883
C135	C	1.495676	-0.243818	0.892217
C136	C	1.051519	-0.434305	0.284834
C137	C	1.384852	-0.100972	0.618167
C138	C	1.718186	0.232362	0.951501
C139	C	1.121161	-0.434285	0.284866
C140	C	1.454494	-0.100952	0.618199
C141	C	1.787828	0.232382	0.951533
C142	C	0.888147	-0.434334	0.448183
C143	C	1.221480	-0.101001	0.781516
C144	C	1.554813	0.232333	1.114849
C145	C	0.888169	-0.434326	0.517824
C146	C	1.221502	-0.100993	0.851158
C147	C	1.554836	0.232340	1.184491
C148	C	0.897589	-0.199025	0.294234
C149	C	1.230922	0.134309	0.627567
C150	C	1.564256	0.467642	0.960901
C151	C	0.901635	-0.098742	0.298272
C152	C	1.234969	0.234591	0.631605
C153	C	1.568302	0.567925	0.964938
C154	C	0.888080	-0.434305	0.121973
C155	C	1.221413	-0.100972	0.455306
C156	C	1.554747	0.232361	0.788640
C157	C	0.888189	-0.434059	0.052342
C158	C	1.221522	-0.100726	0.385675
C159	C	1.554856	0.232608	0.719009
C160	C	0.930570	-0.376607	0.552881
C161	C	1.263903	-0.043274	0.886214
C162	C	1.597236	0.290060	1.219547
C163	C	0.930570	-0.376568	0.618318
C164	C	1.263904	-0.043235	0.951651
C165	C	1.597237	0.290099	1.284984
C166	C	0.888176	-0.434265	0.648695
C167	C	1.221510	-0.100931	0.982029
C168	C	1.554843	0.232402	1.315362
C169	C	0.845768	-0.491988	0.613631
C170	C	1.179101	-0.158655	0.946964
C171	C	1.512435	0.174679	1.280298
C172	C	0.845764	-0.492019	0.548196
C173	C	1.179098	-0.158685	0.881529
C174	C	1.512431	0.174648	1.214862
C175	C	0.879957	-0.515504	0.749102
C176	C	1.213290	-0.182171	1.082435
C177	C	1.546624	0.151163	1.415769
C178	C	0.879965	-0.515475	0.814536
C179	C	1.213298	-0.182142	1.147869
C180	C	1.546632	0.151192	1.481203
C181	C	0.888184	-0.434169	0.850520
C182	C	1.221517	-0.100836	1.183853
C183	C	1.554851	0.232497	1.517187
C184	C	0.896408	-0.352891	0.821062
C185	C	1.229742	-0.019557	1.154395
C186	C	1.563075	0.313776	1.487728
C187	C	0.896405	-0.352921	0.755626
C188	C	1.229738	-0.019588	1.088960
C189	C	1.563071	0.313745	1.422293
C190	C	0.888175	-0.434237	0.719649
C191	C	1.221509	-0.100904	1.052982
C192	C	1.554842	0.232429	1.386315
C193	C	0.930588	-0.376403	0.956531
C194	C	1.263921	-0.043070	1.289864
C195	C	1.597254	0.290264	1.623197
C196	C	0.930584	-0.376363	1.021969
C197	C	1.263917	-0.043030	1.355302
C198	C	1.597251	0.290304	1.688635
C199	C	0.845785	-0.491791	1.017281
C200	C	1.179118	-0.158457	1.350614
C201	C	1.512451	0.174876	1.683947
C202	C	0.845785	-0.491823	0.951844
C203	C	1.179119	-0.158490	1.285177
C204	C	1.512452	0.174844	1.618511
C205	C	0.888190	-0.434130	0.921473
C206	C	1.221524	-0.100797	1.254806
C207	C	1.554857	0.232536	1.588140
H208	H	0.645402	-0.539288	0.353025
H209	H	0.978735	-0.205955	0.686359
H210	H	1.312068	0.127379	1.019692
F211	F	0.800647	-0.553390	0.645962
F212	F	1.133981	-0.220057	0.979295
F213	F	1.467314	0.113277	1.312629
H214	H	0.829316	-1.090172	0.225826
H215	H	1.162649	-0.756839	0.559160
H216	H	1.495983	-0.423505	0.892493
F217	F	0.975716	-0.314999	0.924205
F218	F	1.309049	0.018334	1.257538
F219	F	1.642382	0.351668	1.590872
H220	H	0.794875	-0.948931	0.191347
H221	H	1.128209	-0.615598	0.524681
H222	H	1.461542	-0.282264	0.858014
H223	H	0.903102	-0.286684	0.850359
H224	H	1.236435	0.046649	1.183692
H225	H	1.569769	0.379983	1.517025
H226	H	0.250125	-0.329483	0.216454
H227	H	0.583459	0.003851	0.549787
H228	H	0.916792	0.337184	0.883120
F229	F	0.455472	-0.449329	0.400653
F230	F	0.788806	-0.115996	0.733987
F231	F	1.122139	0.217338	1.067320
H232	H	0.974642	-1.089806	0.371427
H233	H	1.307975	-0.756472	0.704760
H234	H	1.641309	-0.423139	1.038093
H235	H	0.123065	-0.539124	0.353229
H236	H	0.456399	-0.205790	0.686562
H237	H	0.789732	0.127543	1.019895
F238	F	0.527445	-0.315111	0.206935
F239	F	0.860779	0.018222	0.540268
F240	F	1.194112	0.351555	0.873601
F241	F	0.792116	-0.766218	0.188609
F242	F	1.125449	-0.432885	0.521942
F243	F	1.458782	-0.099551	0.855275
F244	F	0.456423	-0.419456	0.168817
F245	F	0.789756	-0.086122	0.502150
F246	F	1.123089	0.247211	0.835484
F247	F	0.957475	-0.765830	0.354278
F248	F	1.290809	-0.432497	0.687611
F249	F	1.624142	-0.099163	1.020944
H250	H	0.328637	-0.447477	0.386661
H251	H	0.661971	-0.114144	0.719994
H252	H	0.995304	0.219190	1.053327
F253	F	0.975722	-0.314937	1.059278
F254	F	1.309055	0.018396	1.392611
F255	F	1.642389	0.351730	1.725945
F256	F	0.871223	-0.602048	0.710811
F257	F	1.204556	-0.268715	1.044144
F258	F	1.537890	0.064618	1.377478
H259	H	0.965098	-0.329628	0.528157
H260	H	1.298432	0.003705	0.861490
H261	H	1.631765	0.337039	1.194823
H262	H	0.981434	-0.918872	0.378251
H263	H	1.314767	-0.585539	0.711585
H264	H	1.648101	-0.252205	1.044918
H265	H	0.965097	-0.329561	0.646866
H266	H	1.298430	0.003772	0.980199
H267	H	1.631764	0.337105	1.313533
F268	F	0.321357	-0.419412	0.168869
F269	F	0.654690	-0.086078	0.502202
F270	F	0.988023	0.247255	0.835535
F271	F	0.905154	-0.266421	0.724277
F272	F	1.238488	0.066912	1.057610
F273	F	1.571821	0.400246	1.390944
H274	H	0.811261	-0.538759	1.042014
H275	H	1.144594	-0.205426	1.375347
H276	H	1.477927	0.127907	1.708681
F277	F	0.800658	-0.553260	0.914533
F278	F	1.133992	-0.219926	1.247866
F279	F	1.467325	0.113407	1.581200
H280	H	0.873272	-0.581657	0.838516
H281	H	1.206606	-0.248324	1.171849
H282	H	1.539939	0.085010	1.505183
F283	F	0.662518	-0.315139	0.206887
F284	F	0.995852	0.018195	0.540220
F285	F	1.329185	0.351528	0.873553
H286	H	0.131416	-0.329445	0.216502
H287	H	0.464750	0.003888	0.549835
H288	H	0.798083	0.337222	0.883169
F289	F	0.800634	-0.553454	0.510885
F290	F	1.133967	-0.220121	0.844218
F291	F	1.467300	0.113212	1.177552
H292	H	0.526697	-0.539246	0.353074
H293	H	0.860030	-0.205913	0.686407
H294	H	1.193363	0.127421	1.019740
H295	H	0.241770	-0.539169	0.353179
H296	H	0.575104	-0.205836	0.686512
H297	H	0.908437	0.127498	1.019846
