data_functionalizedCrystal
_audit_creation_method	'MofGen! by Chris Wilmer'
_symmetry_space_group_name_H-M	'P1'
_symmetry_Int_Tables_number	1
_symmetry_cell_setting	triclinic
loop_
_symmetry_equiv_pos_as_xyz
  x,y,z
_cell_length_a	6.817900
_cell_length_b	11.353959
_cell_length_c	10.773894
_cell_angle_alpha	107.082425
_cell_angle_beta	96.645922
_cell_angle_gamma	107.526623
loop_
_atom_site_label
_atom_site_type_symbol
_atom_site_fract_x
_atom_site_fract_y
_atom_site_fract_z
V1	V	-3.980486	-0.175628	-0.427091
O2	O	-3.935538	0.013371	-0.378636
O3	O	-3.964386	-0.352984	-0.462954
O4	O	-3.897273	-0.170763	-0.595667
O5	O	-4.003116	-0.170112	-0.245004
V6	V	-4.464439	-0.153278	-0.400601
O7	O	-4.240800	-0.224657	-0.485200
O8	O	-4.654322	-0.104249	-0.342492
O9	O	-4.257332	0.024078	-0.364739
O10	O	-4.626784	-0.342277	-0.449056
O11	O	-4.559206	-0.158794	-0.582688
O12	O	-4.324446	-0.158143	-0.232026
C13	C	-3.818372	-0.396287	-0.466224
C14	C	-3.886263	-0.541264	-0.496669
C15	C	-3.897067	-0.589539	-0.398124
C16	C	-3.967236	-0.739380	-0.429589
C17	C	-3.732760	-0.163845	-0.635510
C18	C	-3.746222	-0.161040	-0.773576
C19	C	-3.925181	-0.165901	-0.842494
C20	C	-3.939098	-0.163002	-0.985193
C21	C	-4.066691	0.067374	-0.361467
C22	C	-3.978036	0.212350	-0.331030
C23	C	-4.152302	-0.165066	-0.192177
C24	C	-4.118079	-0.167863	-0.054108
H25	H	-4.009940	-0.808977	-0.537258
C26	C	-3.839385	-0.495527	-0.252680
H27	H	-3.799775	-0.407150	-0.250612
H28	H	-3.957845	-0.514909	-0.213739
H29	H	-3.724908	-0.506512	-0.203960
H30	H	-3.935346	-0.718056	-0.223361
C31	C	-3.553154	-0.152524	-0.836572
H32	H	-3.587841	-0.151703	-0.924221
H33	H	-3.439121	-0.074058	-0.784226
H34	H	-3.513409	-0.226580	-0.840153
C35	C	-4.118259	-0.174424	-0.779506
H36	H	-4.232338	-0.177090	-0.841247
H37	H	-4.157913	-0.251971	-0.757172
H38	H	-4.083649	-0.099449	-0.701250
H39	H	-3.928968	-0.610864	-0.604331
H40	H	-3.796170	-0.156687	-1.031825
H41	H	-4.261007	-0.174175	-1.007476
