data_functionalizedCrystal
_audit_creation_method	'MofGen! by Chris Wilmer'
_symmetry_space_group_name_H-M	'P1'
_symmetry_Int_Tables_number	1
_symmetry_cell_setting	triclinic
loop_
_symmetry_equiv_pos_as_xyz
  x,y,z
_cell_length_a	27.440280
_cell_length_b	20.875641
_cell_length_c	20.875658
_cell_angle_alpha	55.998508
_cell_angle_beta	87.033807
_cell_angle_gamma	62.438438
loop_
_atom_site_label
_atom_site_type_symbol
_atom_site_fract_x
_atom_site_fract_y
_atom_site_fract_z
Zr1	Zr	0.493409	0.702031	-0.109851
O2	O	0.423554	0.835859	-0.217193
O3	O	0.512102	0.568210	-0.073541
O4	O	0.521303	0.702025	-0.212267
O5	O	0.410192	0.702047	0.027090
O6	O	0.601505	0.702013	-0.212254
O7	O	0.414353	0.702044	-0.078467
O8	O	0.585046	0.462643	0.035902
O9	O	0.426651	0.941417	-0.221066
O10	O	0.583216	0.623241	-0.062158
O11	O	0.520256	0.623252	0.016608
O12	O	0.531090	0.780802	-0.146724
O13	O	0.468130	0.780813	-0.067958
Zr14	Zr	0.614685	0.702016	0.058523
Zr15	Zr	0.621322	0.702012	-0.109829
Zr16	Zr	0.486772	0.702035	0.058501
Zr17	Zr	0.498348	0.870384	-0.116027
Zr18	Zr	0.609746	0.533663	0.064698
O19	O	0.595992	0.835837	0.022212
O20	O	0.605430	0.835831	-0.217162
O21	O	0.414117	0.835865	0.022181
O22	O	0.684540	0.568188	0.165865
O23	O	0.693977	0.568182	-0.073510
O24	O	0.502664	0.568216	0.165834
O25	O	0.697902	0.702000	-0.078419
O26	O	0.586791	0.702022	0.160939
O27	O	0.506589	0.702034	0.160925
O28	O	0.693741	0.702003	0.027139
O29	O	0.528324	0.941401	-0.221048
O30	O	0.579770	0.462646	0.169720
O31	O	0.681443	0.462630	0.169737
O32	O	0.686719	0.462627	0.035920
O33	O	0.421375	0.941420	-0.087248
O34	O	0.523048	0.941405	-0.087231
O35	O	0.577004	0.623245	0.095395
O36	O	0.639964	0.623234	0.016629
O37	O	0.587838	0.780795	-0.067937
O38	O	0.524878	0.780806	0.010829
C39	C	0.547870	0.491440	-0.017940
C40	C	0.545774	0.419970	-0.015318
C41	C	0.577652	0.386387	-0.055201
C42	C	0.575683	0.319228	-0.052730
C43	C	0.541833	0.285658	-0.010380
C44	C	0.509954	0.319243	0.029508
C45	C	0.511926	0.386396	0.027042
C46	C	0.532414	0.084816	0.001411
C47	C	0.530443	0.017660	0.003873
C48	C	0.596172	0.017649	-0.078365
C49	C	0.598139	0.084806	-0.080832
C50	C	0.566262	0.118383	-0.040940
N51	N	0.539818	0.217013	-0.007855
N52	N	0.568280	0.187022	-0.043461
C53	C	0.394048	0.702048	-0.025692
C54	C	0.339745	0.702057	-0.025701
C55	C	0.030253	0.619763	0.018500
C56	C	-0.020765	0.619758	0.018508
O57	O	-0.024014	0.549812	0.056073
N58	N	-0.073492	0.702003	-0.025636
C59	C	-0.075198	0.784257	-0.069783
O60	O	-0.124731	0.854212	-0.107329
C61	C	-0.024180	0.784261	-0.069785
C62	C	0.028545	0.702012	-0.025645
C63	C	0.082977	0.537521	0.062637
C64	C	0.133992	0.537526	0.062629
C65	C	0.132284	0.619774	0.018483
C66	C	0.079561	0.702017	-0.025653
C67	C	-0.025888	0.866515	-0.113926
C68	C	0.025136	0.866512	-0.113924
C69	C	0.077862	0.784262	-0.069784
C70	C	0.128868	0.784271	-0.069807
N71	N	0.181594	0.702027	-0.025664
C72	C	0.183302	0.619778	0.018481
C73	C	-0.182338	0.784243	-0.069774
C74	C	-0.233355	0.784239	-0.069777
C75	C	-0.178919	0.619740	0.018515
C76	C	-0.127900	0.619744	0.018513
C77	C	-0.129612	0.701998	-0.025630
C78	C	0.290436	0.619796	0.018460
C79	C	0.341453	0.619808	0.018445
C80	C	0.287013	0.784307	-0.069843
C81	C	0.235999	0.784295	-0.069832
C82	C	0.237715	0.702032	-0.025674
O83	O	0.132160	0.854181	-0.107351
O84	O	0.232837	0.549835	0.056030
C85	C	0.714046	0.701999	-0.025637
C86	C	0.768349	0.701991	-0.025628
C87	C	0.562350	0.702019	-0.236247
C88	C	0.565167	0.702017	-0.307717
C89	C	0.560224	0.912607	-0.033389
C90	C	0.562320	0.984078	-0.036011
C91	C	0.522309	0.702022	-0.341303
C92	C	0.524958	0.702028	-0.408461
C93	C	0.570468	0.702023	-0.442028
C94	C	0.613329	0.702021	-0.408438
C95	C	0.610677	0.702021	-0.341285
C96	C	0.583135	0.702028	-0.642869
C97	C	0.585785	0.702025	-0.710026
C98	C	0.497413	0.702035	-0.710045
C99	C	0.494767	0.702029	-0.642887
C100	C	0.537626	0.702032	-0.609306
N101	N	0.573178	0.702027	-0.510672
N102	N	0.534914	0.702034	-0.540666
C103	C	0.545744	0.702029	0.184918
C104	C	0.542927	0.702030	0.256388
C105	C	0.707869	0.491415	-0.017912
C106	C	0.760075	0.419936	-0.015281
C107	C	0.539568	0.491445	0.192643
C108	C	0.534653	0.419976	0.266735
C109	C	0.699567	0.491420	0.192670
C110	C	0.748955	0.419943	0.266771
C111	C	0.408527	0.912627	-0.243999
C112	C	0.359139	0.984104	-0.318100
C113	C	0.400225	0.912632	-0.033416
C114	C	0.348019	0.984111	-0.036047
C115	C	0.568526	0.912602	-0.243972
C116	C	0.573441	0.984071	-0.318063
C117	C	0.754970	0.386373	-0.055178
C118	C	0.804019	0.319221	-0.052722
C119	C	0.858173	0.285628	-0.010364
C120	C	0.863277	0.319198	0.029534
C121	C	0.814228	0.386354	0.027073
C122	C	0.561967	0.386410	0.342662
C123	C	0.557348	0.319267	0.412285
C124	C	0.525417	0.285687	0.405979
C125	C	0.498100	0.319260	0.330044
C126	C	0.502717	0.386406	0.260423
C127	C	0.805018	0.386371	0.260455
C128	C	0.851429	0.319220	0.330074
C129	C	0.841775	0.285638	0.406008
C130	C	0.785707	0.319217	0.412323
C131	C	0.739297	0.386371	0.342705
C132	C	0.303076	1.017684	-0.311784
C133	C	0.256666	1.084856	-0.381403
C134	C	0.266320	1.118441	-0.457338
C135	C	0.322388	1.084858	-0.463653
C136	C	0.368797	1.017692	-0.394034
C137	C	0.353124	1.017681	0.003843
C138	C	0.304076	1.084852	0.001367
C139	C	0.249923	1.118447	-0.040994
C140	C	0.244819	1.084874	-0.080889
C141	C	0.293867	1.017709	-0.078418
C142	C	0.605375	1.017630	-0.311732
C143	C	0.610004	1.084773	-0.381342
C144	C	0.582694	1.118361	-0.457283
C145	C	0.550758	1.084795	-0.463613
C146	C	0.546133	1.017649	-0.394003
H147	H	0.502875	-0.009669	0.038359
C148	C	0.912122	0.211748	-0.007658
N149	N	0.952754	0.156099	-0.005619
C150	C	0.819853	0.423257	0.070976
N151	N	0.824094	0.451049	0.104047
H152	H	0.200721	1.112237	-0.115378
C153	C	-0.184228	0.874735	-0.118351
N154	N	-0.185654	0.942893	-0.154941
C155	C	0.597091	0.423341	0.349617
N156	N	0.623544	0.451157	0.354863
C157	C	0.412688	0.980744	0.050441
N158	N	0.457551	0.952931	0.085537
H159	H	0.622126	-0.009696	-0.110842
H160	H	0.211017	1.112188	-0.376246
C161	C	0.587407	0.282341	0.495806
N162	N	0.610050	0.254528	0.558712
H163	H	0.879570	0.230957	0.462690
H164	H	0.485252	0.702021	-0.313975
H165	H	0.650383	0.702022	-0.435775
C166	C	0.497368	0.121712	0.045323
N167	N	0.470977	0.149494	0.078411
C168	C	0.292444	0.980758	-0.228262
N169	N	0.284430	0.952955	-0.165355
H170	H	0.490059	0.702033	-0.435807
H171	H	0.193067	0.851269	-0.105784
C172	C	0.913099	0.282288	0.323109
N173	N	0.959548	0.254470	0.317862
H174	H	0.627615	0.990293	-0.249903
H175	H	0.605213	0.413719	-0.089691
C176	C	0.472674	0.423312	0.176905
N177	N	0.450044	0.451105	0.114000
C178	C	0.309703	1.121763	0.045265
N179	N	0.313943	1.149560	0.078330
H180	H	0.520126	0.990333	-0.399170
H181	H	0.777855	0.291865	0.474158
C182	C	-0.069906	0.529264	0.067075
N183	N	-0.026225	0.461111	0.103657
C184	C	0.610736	0.282312	-0.096628
N185	N	0.637135	0.254514	-0.129701
H186	H	0.528524	1.112153	-0.525453
C187	C	-0.083877	0.956998	-0.162482
N188	N	-0.127556	1.025155	-0.199056
H189	H	0.645576	0.702018	-0.313941
C190	C	0.023248	0.957001	-0.162490
N191	N	0.021825	1.025156	-0.199072
C192	C	0.635379	0.121726	-0.127418
N193	N	0.663427	0.149534	-0.162508
C194	C	0.472718	0.282314	0.076094
N195	N	0.444670	0.254502	0.111180
C196	C	0.645133	1.121687	-0.374361
N197	N	0.671592	1.149489	-0.369101
C198	C	0.215261	1.192319	-0.533913
N199	N	0.176802	1.247960	-0.591587
H200	H	0.285632	0.851271	-0.105788
C201	C	0.191986	0.447044	0.111194
N202	N	0.235665	0.378888	0.147779
C203	C	0.332997	1.121804	-0.547189
N204	N	0.340986	1.149628	-0.610110
H205	H	0.289701	0.990378	-0.110899
C206	C	0.084869	0.447033	0.111197
N207	N	0.086300	0.378871	0.147767
C208	C	0.430465	0.980751	-0.400995
N209	N	0.476914	0.952928	-0.406244
C210	C	0.520351	0.211815	0.482573
N211	N	0.516539	0.156171	0.540267
C212	C	0.587786	1.192226	-0.533849
N213	N	0.591622	1.247863	-0.591515
H214	H	0.799852	0.291896	-0.085213
H215	H	0.472102	0.291909	0.324922
C216	C	0.922850	0.282230	0.076133
N217	N	0.967723	0.254378	0.111236
C218	C	0.195974	1.192327	-0.043700
N219	N	0.155342	1.247971	-0.045732
H220	H	0.693650	0.413697	0.347859
C221	C	0.292332	0.529302	0.067029
N222	N	0.293760	0.461142	0.103606
H223	H	0.485966	0.413741	0.059517
C224	C	0.695406	0.423317	-0.101784
N225	N	0.650545	0.451144	-0.136895
C226	C	-0.291349	0.874720	-0.118343
N227	N	-0.335030	0.942874	-0.154921
H228	H	0.384384	0.552828	0.054391
H229	H	0.812889	0.413704	0.198631
C230	C	0.444640	0.702224	-0.606070
N231	N	0.406862	0.702436	-0.578375
H232	H	0.462519	0.702034	-0.737393
C233	C	0.635844	0.702044	-0.746961
N234	N	0.673544	0.702066	-0.774784
H235	H	-0.177535	0.552769	0.054458
C236	C	0.630286	0.702019	-0.605932
N237	N	0.665803	0.702008	-0.578107
