data_functionalizedCrystal
_audit_creation_method	'MofGen! by Chris Wilmer'
_symmetry_space_group_name_H-M	'P1'
_symmetry_Int_Tables_number	1
_symmetry_cell_setting	triclinic
loop_
_symmetry_equiv_pos_as_xyz
  x,y,z
_cell_length_a	16.625547
_cell_length_b	16.625545
_cell_length_c	12.759387
_cell_angle_alpha	90.033270
_cell_angle_beta	90.027132
_cell_angle_gamma	90.025495
loop_
_atom_site_label
_atom_site_type_symbol
_atom_site_fract_x
_atom_site_fract_y
_atom_site_fract_z
Zn1	Zn	1.232682	-0.320960	0.594173
Zn2	Zn	1.732682	0.179040	1.094173
Zn3	Zn	1.232572	-0.455816	0.418486
Zn4	Zn	1.732572	0.044184	0.918486
Zn5	Zn	1.097838	-0.321001	0.418489
Zn6	Zn	1.597838	0.178999	0.918489
Zn7	Zn	1.097807	-0.455755	0.594104
Zn8	Zn	1.597807	0.044245	1.094104
O9	O	1.165225	-0.388383	0.506313
O10	O	1.665225	0.111617	1.006313
O11	O	1.345499	-0.338858	0.570894
O12	O	1.845499	0.161142	1.070894
O13	O	1.214667	-0.437975	0.271465
O14	O	1.714667	0.062025	0.771465
O15	O	1.115784	-0.208163	0.441824
O16	O	1.615784	0.291837	0.941824
O17	O	1.345419	-0.437936	0.441818
O18	O	1.845419	0.062064	0.941818
O19	O	1.214853	-0.208133	0.570898
O20	O	1.714853	0.291867	1.070898
O21	O	1.115678	-0.338927	0.271468
O22	O	1.615678	0.161073	0.771468
O23	O	0.985001	-0.338867	0.441758
O24	O	1.485001	0.161133	0.941758
O25	O	1.115731	-0.437831	0.741135
O26	O	1.615731	0.062169	1.241135
O27	O	0.984978	-0.437870	0.570782
O28	O	1.484978	0.062130	1.070782
O29	O	1.214823	-0.338799	0.741185
O30	O	1.714823	0.161201	1.241185
O31	O	1.214636	-0.568640	0.441752
O32	O	1.714636	-0.068640	0.941752
O33	O	1.115625	-0.568595	0.570778
O34	O	1.615625	-0.068595	1.070778
C35	C	0.955734	-0.388367	0.506263
C36	C	1.455734	0.111633	1.006263
C37	C	0.866113	-0.388380	0.506267
C38	C	1.366113	0.111620	1.006267
C39	C	0.793330	-0.388381	0.506280
C40	C	1.293330	0.111619	1.006280
C41	C	0.702022	-0.388386	0.506306
C42	C	1.202022	0.111614	1.006306
C43	C	0.629245	-0.388393	0.506333
C44	C	1.129245	0.111607	1.006333
C45	C	0.537931	-0.388399	0.506358
C46	C	1.037931	0.111601	1.006358
C47	C	1.165137	-0.597874	0.506280
C48	C	1.665137	-0.097874	1.006280
C49	C	1.165173	-0.687495	0.506301
C50	C	1.665173	-0.187495	1.006301
C51	C	1.165205	-0.760277	0.506322
C52	C	1.665205	-0.260277	1.006322
C53	C	1.165251	-0.851586	0.506345
C54	C	1.665251	-0.351586	1.006345
C55	C	1.165293	-0.924362	0.506358
C56	C	1.665293	-0.424362	1.006358
C57	C	1.165339	-1.015676	0.506380
C58	C	1.665339	-0.515676	1.006380
C59	C	1.375533	-0.388399	0.506363
C60	C	1.875533	0.111601	1.006363
C61	C	1.465155	-0.388406	0.506385
C62	C	1.965155	0.111594	1.006385
C63	C	1.165285	-0.388304	0.780347
C64	C	1.665285	0.111696	1.280347
C65	C	1.165311	-0.388270	0.897123
C66	C	1.665311	0.111730	1.397123
C67	C	1.165334	-0.178074	0.506369
C68	C	1.665334	0.321926	1.006369
C69	C	1.165381	-0.088453	0.506393
C70	C	1.665381	0.411547	1.006393
C71	C	1.165210	-0.388403	0.233345
C72	C	1.665210	0.111597	0.733345
C73	C	1.165341	-0.388210	0.116569
C74	C	1.665341	0.111790	0.616569
C75	C	1.268503	-0.285154	0.897195
C76	C	1.768503	0.214846	1.397195
C77	C	1.320110	-0.233584	0.952092
C78	C	1.820110	0.266416	1.452092
C79	C	1.320130	-0.233555	1.061814
C80	C	1.820130	0.266445	1.561814
C81	C	1.268535	-0.285099	1.116641
C82	C	1.768535	0.214901	1.616641
C83	C	1.216928	-0.336669	1.061744
C84	C	1.716928	0.163331	1.561744
C85	C	1.216916	-0.336695	0.952020
C86	C	1.716916	0.163305	1.452020
C87	C	1.113734	-0.439780	1.061672
C88	C	1.613734	0.060220	1.561672
C89	C	1.113717	-0.439815	0.951951
C90	C	1.613717	0.060185	1.451951
C91	C	1.062139	-0.491324	1.116500
C92	C	1.562139	0.008676	1.616500
C93	C	1.010535	-0.542900	1.061603
C94	C	1.510535	-0.042900	1.561603
C95	C	1.010518	-0.542928	0.951875
C96	C	1.510518	-0.042928	1.451875
C97	C	1.062110	-0.491385	0.897054
C98	C	1.562110	0.008615	1.397054
H99	H	1.362116	-0.191616	0.907440
H100	H	1.862116	0.308384	1.407440
O101	O	0.960460	-0.593076	1.114745
O102	O	1.460460	-0.093076	1.614745
C103	C	0.978044	-0.673451	1.087945
C104	C	1.478044	-0.173451	1.587945
H105	H	1.009028	-0.675154	1.008291
H106	H	1.509028	-0.175154	1.508291
H107	H	0.919830	-0.709599	1.084162
H108	H	1.419830	-0.209599	1.584162
H109	H	1.019491	-0.700593	1.149709
H110	H	1.519491	-0.200593	1.649709
O111	O	1.370335	-0.183434	1.114984
O112	O	1.870335	0.316566	1.614984
C113	C	1.415852	-0.137929	1.043071
C114	C	1.915852	0.362071	1.543071
H115	H	1.418615	-0.170970	0.964844
H116	H	1.918615	0.329030	1.464844
H117	H	1.479389	-0.129331	1.074804
H118	H	1.979389	0.370669	1.574804
H119	H	1.386361	-0.076689	1.031416
H120	H	1.886361	0.423311	1.531416
O121	O	1.268340	-0.285178	0.790612
O122	O	1.768340	0.214822	1.290612
C123	C	1.191077	-0.264441	0.753932
C124	C	1.691077	0.235559	1.253932
H125	H	1.144633	-0.278193	0.817139
H126	H	1.644633	0.221807	1.317139
H127	H	1.176711	-0.300823	0.680507
H128	H	1.676711	0.199177	1.180507
H129	H	1.189411	-0.197543	0.734490
H130	H	1.689411	0.302457	1.234490
O131	O	1.268675	-0.284989	1.223224
O132	O	1.768675	0.215011	1.723224
C133	C	1.325267	-0.228400	1.259921
C134	C	1.825267	0.271600	1.759921
H135	H	1.372377	-0.217134	1.196714
H136	H	1.872377	0.282866	1.696714
H137	H	1.355857	-0.252712	1.333334
H138	H	1.855857	0.247288	1.833334
H139	H	1.293332	-0.169596	1.279388
H140	H	1.793332	0.330404	1.779388
O141	O	1.062248	-0.491412	0.790471
O142	O	1.562248	0.008588	1.290471
C143	C	1.139504	-0.512162	0.753844
C144	C	1.639504	-0.012162	1.253844
H145	H	1.185960	-0.498385	0.817105
H146	H	1.685960	0.001615	1.317105
H147	H	1.153855	-0.475810	0.680462
H148	H	1.653855	0.024190	1.180462
H149	H	1.141167	-0.579068	0.734346
H150	H	1.641167	-0.079068	1.234346
O151	O	1.062160	-0.491446	1.223083
O152	O	1.562160	0.008554	1.723083
C153	C	1.082843	-0.568714	1.259717
C154	C	1.582843	-0.068714	1.759717
H155	H	1.069025	-0.615168	1.196464
H156	H	1.569025	-0.115168	1.696464
H157	H	1.046478	-0.583022	1.333106
H158	H	1.546478	-0.083022	1.833106
H159	H	1.149747	-0.570432	1.279205
H160	H	1.649747	-0.070432	1.779205
H161	H	0.968484	-0.584914	0.907184
H162	H	1.468484	-0.084914	1.407184
