data_functionalizedCrystal
_audit_creation_method	'MofGen! by Chris Wilmer'
_symmetry_space_group_name_H-M	'P1'
_symmetry_Int_Tables_number	1
_symmetry_cell_setting	triclinic
loop_
_symmetry_equiv_pos_as_xyz
  x,y,z
_cell_length_a	15.944499
_cell_length_b	14.971486
_cell_length_c	14.048226
_cell_angle_alpha	90.001501
_cell_angle_beta	89.996813
_cell_angle_gamma	96.454131
loop_
_atom_site_label
_atom_site_type_symbol
_atom_site_fract_x
_atom_site_fract_y
_atom_site_fract_z
O1	O	0.109466	-1.186807	-0.079044
O2	O	0.122575	-0.926390	-0.079069
O3	O	-0.006251	-1.063734	-0.079058
O4	O	0.238291	-1.049463	-0.079056
O5	O	-0.006258	-1.063718	0.079264
O6	O	0.122567	-0.926374	0.079252
O7	O	0.109458	-1.186791	0.079277
Zn8	Zn	0.116011	-1.056580	0.104402
Zn9	Zn	0.116021	-1.056601	-0.104194
O10	O	0.238284	-1.049447	0.079266
C11	C	0.121985	-0.893058	0.000088
C12	C	0.120228	-0.793763	0.000078
C13	C	-0.037550	-1.063142	0.000101
C14	C	-0.130800	-1.061390	0.000093
C15	C	-0.422260	-1.141183	0.000106
C16	C	-0.361278	-1.099697	0.078166
C17	C	-0.466442	-1.055026	0.000104
C18	C	-0.361277	-1.099690	-0.077926
C19	C	-0.301531	-1.058158	0.000097
C20	C	-0.406688	-1.013516	0.078228
C21	C	-0.406694	-1.013521	-0.077934
C22	C	-0.345729	-0.971971	0.000145
C23	C	-0.561444	-1.053225	0.000108
C24	C	-0.206530	-1.059952	0.000099
C25	C	0.110048	-1.220123	0.000118
C26	C	0.111805	-1.319418	0.000121
C27	C	0.269583	-1.050039	0.000105
C28	C	0.362833	-1.051791	0.000106
N29	N	0.116004	-1.056571	0.246762
C30	C	0.195909	-0.736441	0.000080
C31	C	0.194253	-0.643144	0.000094
C32	C	0.116915	-0.607170	0.000100
C33	C	0.041228	-0.664500	0.000101
C34	C	0.042885	-0.757795	0.000093
C35	C	0.037781	-0.470042	0.000114
C36	C	0.036124	-0.376740	0.000119
C37	C	0.189149	-0.355390	0.000115
C38	C	0.190806	-0.448686	0.000107
C39	C	0.115118	-0.506009	0.000107
N40	N	0.116022	-1.056617	-0.246554
C41	C	0.058984	-1.117406	0.296585
C42	C	0.058983	-1.117412	0.396243
C43	C	0.116008	-1.056587	0.446076
C44	C	0.173031	-0.995746	0.396246
C45	C	0.173027	-0.995736	0.296590
C46	C	0.173037	-0.995771	0.603960
C47	C	0.173042	-0.995782	0.703623
C48	C	0.058994	-1.117448	0.703613
C49	C	0.058989	-1.117438	0.603957
C50	C	0.116014	-1.056598	0.554134
H51	H	-0.455522	-1.212685	0.000188
H52	H	0.012551	-1.166941	0.256018
Br53	Br	0.300874	-0.785253	0.000063
Br54	Br	0.295766	-0.497507	0.000086
Br55	Br	-0.327730	-1.160424	0.188164
H56	H	0.012553	-1.166948	0.436809
H57	H	-0.426708	-0.977097	0.144291
H58	H	-0.312615	-0.900408	0.000184
H59	H	0.012560	-1.166971	0.563384
H60	H	0.250777	-0.308713	0.000120
Br61	Br	0.250417	-0.913188	0.463872
Br62	Br	-0.440272	-0.952842	-0.187943
H63	H	0.012563	-1.166986	0.744185
H64	H	0.219477	-0.946251	0.744191
Br65	Br	0.250425	-0.913196	0.536345
Br66	Br	-0.059830	-0.835591	0.000099
H67	H	-0.341158	-1.136153	-0.143914
H68	H	0.219457	-0.946197	0.256025
H69	H	0.255881	-0.596476	0.000095
Br70	Br	-0.068836	-0.327918	0.000159
Br71	Br	-0.064939	-0.547837	0.000118
H72	H	-0.021742	-0.635203	0.000119
