data_functionalizedCrystal
_audit_creation_method	'MofGen! by Chris Wilmer'
_symmetry_space_group_name_H-M	'P1'
_symmetry_Int_Tables_number	1
_symmetry_cell_setting	triclinic
loop_
_symmetry_equiv_pos_as_xyz
  x,y,z
_cell_length_a	10.685980
_cell_length_b	13.897448
_cell_length_c	10.686551
_cell_angle_alpha	85.592616
_cell_angle_beta	81.591741
_cell_angle_gamma	94.384308
loop_
_atom_site_label
_atom_site_type_symbol
_atom_site_fract_x
_atom_site_fract_y
_atom_site_fract_z
Zn1	Zn	1.995774	-0.216203	-0.866694
Zn2	Zn	1.979340	-0.390948	-0.654423
Zn3	Zn	1.767199	-0.243050	-0.638157
Zn4	Zn	1.783463	-0.390854	-0.850333
O5	O	1.881444	-0.310264	-0.752402
O6	O	2.171228	-0.228187	-0.852190
O7	O	1.937514	-0.382604	-0.474633
O8	O	1.797591	-0.104500	-0.668513
O9	O	2.159154	-0.356571	-0.696235
O10	O	1.965524	-0.084776	-0.836418
O11	O	1.781655	-0.273944	-0.462683
O12	O	1.591722	-0.273853	-0.652649
O13	O	1.825311	-0.356412	-1.030136
O14	O	1.603672	-0.382444	-0.808533
O15	O	1.981295	-0.228096	-1.042156
O16	O	1.953285	-0.525924	-0.680371
O17	O	1.809376	-0.525855	-0.824305
C18	C	1.551638	-0.331052	-0.727051
C19	C	1.410548	-0.339967	-0.716236
C20	C	1.881348	-0.560886	-0.752358
C21	C	1.881427	-0.668094	-0.752391
C22	C	1.881566	-0.864375	-0.752481
C23	C	1.881486	-0.755150	-0.752434
C24	C	2.212537	-0.289395	-0.777852
C25	C	2.353630	-0.280502	-0.788698
C26	C	1.906950	-0.289249	-1.083492
C27	C	1.917820	-0.280293	-1.224583
C28	C	1.881576	-0.058659	-0.752476
C29	C	1.881633	0.048560	-0.752508
C30	C	1.856110	-0.331123	-0.422605
C31	C	1.845486	-0.339791	-0.281534
H32	H	1.351334	-0.397701	-0.645915
C33	C	1.432792	-0.203613	-0.882428
C34	C	1.561691	-0.209778	-0.874918
C35	C	1.634662	-0.138972	-0.961256
H36	H	1.409876	-0.141249	-0.862454
H37	H	1.417785	-0.213777	-0.966076
H38	H	1.576691	-0.199607	-0.791289
H39	H	1.584645	-0.272126	-0.894904
H40	H	1.619654	-0.149136	-1.044904
H41	H	1.611735	-0.076613	-0.941274
H42	H	1.722127	-0.143151	-0.956180
C43	C	1.752016	-0.416903	-1.202481
C44	C	1.818065	-0.478958	-1.131855
C45	C	1.732002	-0.549999	-1.058994
H46	H	1.708051	-0.453135	-1.256974
H47	H	1.692805	-0.386763	-1.146450
H48	H	1.877253	-0.509097	-1.187880
H49	H	1.862025	-0.442755	-1.077339
H50	H	1.672791	-0.519858	-1.002963
H51	H	1.688042	-0.586223	-1.113497
H52	H	1.776802	-0.592106	-1.011057
H53	H	1.988073	-0.222503	-1.283771
