data_functionalizedCrystal
_audit_creation_method	'MofGen! by Chris Wilmer'
_symmetry_space_group_name_H-M	'P1'
_symmetry_Int_Tables_number	1
_symmetry_cell_setting	triclinic
loop_
_symmetry_equiv_pos_as_xyz
  x,y,z
_cell_length_a	12.759395
_cell_length_b	12.759400
_cell_length_c	12.759393
_cell_angle_alpha	89.968831
_cell_angle_beta	89.980182
_cell_angle_gamma	90.015177
loop_
_atom_site_label
_atom_site_type_symbol
_atom_site_fract_x
_atom_site_fract_y
_atom_site_fract_z
Zn1	Zn	1.606258	-0.418183	-0.594021
Zn2	Zn	1.606153	-0.593902	-0.418343
Zn3	Zn	1.430560	-0.418240	-0.418357
Zn4	Zn	1.430550	-0.593823	-0.593980
O5	O	1.518380	-0.506037	-0.506175
O6	O	1.753265	-0.441502	-0.570729
O7	O	1.582821	-0.570657	-0.271323
O8	O	1.453915	-0.271211	-0.441682
O9	O	1.753188	-0.570602	-0.441658
O10	O	1.583000	-0.271169	-0.570742
O11	O	1.453813	-0.441599	-0.271334
O12	O	1.283538	-0.441522	-0.441642
O13	O	1.453897	-0.570467	-0.741007
O14	O	1.283530	-0.570522	-0.570672
O15	O	1.582990	-0.441425	-0.741037
O16	O	1.582811	-0.740912	-0.441618
O17	O	1.453796	-0.740854	-0.570658
C18	C	1.245413	-0.506020	-0.506155
C19	C	1.128636	-0.506039	-0.506171
C20	C	0.909281	-0.371847	-0.640824
C21	C	0.964188	-0.304729	-0.708120
C22	C	1.073909	-0.304711	-0.708102
C23	C	1.128727	-0.371821	-0.640782
C24	C	1.073821	-0.438939	-0.573486
C25	C	0.964097	-0.438947	-0.573509
C26	C	1.073730	-0.573157	-0.438874
C27	C	0.964008	-0.573171	-0.438886
C28	C	1.128548	-0.640266	-0.371554
C29	C	1.073641	-0.707381	-0.304251
C30	C	0.963913	-0.707395	-0.304271
C31	C	0.909102	-0.640289	-0.371589
C32	C	1.518319	-0.779004	-0.506155
C33	C	1.518389	-0.895781	-0.506182
C34	C	1.585628	-1.060261	-0.573474
C35	C	1.585572	-0.950537	-0.573444
C36	C	1.451267	-0.950754	-0.438937
C37	C	1.451329	-1.060476	-0.438962
C38	C	1.652808	-1.115012	-0.640748
C39	C	1.719932	-1.060047	-0.707992
C40	C	1.719875	-0.950323	-0.707962
C41	C	1.652694	-0.895564	-0.640689
C42	C	1.792414	-0.506054	-0.506196
C43	C	1.909190	-0.506062	-0.506205
C44	C	1.518454	-0.505931	-0.780209
C45	C	1.518485	-0.505886	-0.896985
C46	C	1.518470	-0.232004	-0.506218
C47	C	1.518509	-0.115227	-0.506237
C48	C	1.585713	-0.438687	-0.951865
C49	C	1.585738	-0.438649	-1.061589
C50	C	1.451305	-0.573017	-1.061544
C51	C	1.451275	-0.573049	-0.951822
C52	C	1.652923	-0.371524	-0.897028
C53	C	1.720157	-0.304321	-0.951908
C54	C	1.720182	-0.304283	-1.061632
C55	C	1.652973	-0.371448	-1.116476
C56	C	1.518368	-0.506067	-0.233208
C57	C	1.518540	-0.505816	-0.116432
H58	H	1.218068	-0.371810	-0.640783
H59	H	1.396674	-1.105230	-0.384213
H60	H	1.652912	-0.371549	-0.807685
H61	H	0.819761	-0.640281	-0.371599
H62	H	1.774869	-0.249631	-0.907246
C63	C	0.903519	-0.781228	-0.230249
H64	H	0.830321	-0.771635	-0.239903
H65	H	0.921468	-0.765773	-0.159681
H66	H	0.921502	-0.851836	-0.245513
C67	C	1.793709	-0.889858	-0.781918
H68	H	1.784062	-0.816670	-0.772263
H69	H	1.778303	-0.907796	-0.852499
H70	H	1.864322	-0.907797	-0.766605
C71	C	1.652869	-1.235704	-0.640788
H72	H	1.702493	-1.260442	-0.690478
H73	H	1.585071	-1.260560	-0.658896
H74	H	1.671099	-1.260571	-0.573011
C75	C	0.903892	-0.230916	-0.782172
H76	H	0.952308	-0.190950	-0.822255
H77	H	0.861071	-0.185096	-0.742076
H78	H	0.861113	-0.271177	-0.827891
C79	C	1.652630	-0.774870	-0.640660
H80	H	1.702222	-0.749975	-0.690343
H81	H	1.670818	-0.750082	-0.572873
H82	H	1.584803	-0.750096	-0.658771
H83	H	1.396516	-0.627752	-0.907138
C84	C	1.249238	-0.640245	-0.371531
H85	H	1.274089	-0.590654	-0.421242
H86	H	1.274066	-0.708059	-0.389574
H87	H	1.274018	-0.621986	-0.303752
C88	C	1.133935	-0.781200	-0.230215
H89	H	1.085524	-0.821180	-0.190140
H90	H	1.176730	-0.740957	-0.184505
H91	H	1.176742	-0.827023	-0.270334
C92	C	1.794133	-0.230363	-1.121997
H93	H	1.834159	-0.190376	-1.073620
H94	H	1.753976	-0.184566	-1.164808
H95	H	1.839908	-0.270554	-1.164792
C96	C	1.377365	-0.890522	-0.364954
H97	H	1.386933	-0.817303	-0.374578
H98	H	1.392783	-0.908541	-0.294380
H99	H	1.306774	-0.908553	-0.380282
H100	H	1.396586	-0.627699	-1.106208
C101	C	0.788591	-0.371863	-0.640845
H102	H	0.763808	-0.322289	-0.690579
H103	H	0.763733	-0.353622	-0.573084
H104	H	0.763773	-0.439690	-0.658911
C105	C	1.653003	-0.371407	-1.237170
H106	H	1.702671	-0.321769	-1.262003
H107	H	1.585218	-0.353229	-1.261994
H108	H	1.671163	-0.439203	-1.261973
H109	H	1.774634	-1.104638	-0.762757
H110	H	1.118614	-0.250059	-0.762902
