data_functionalizedCrystal
_audit_creation_method	'MofGen! by Chris Wilmer'
_symmetry_space_group_name_H-M	'P1'
_symmetry_Int_Tables_number	1
_symmetry_cell_setting	triclinic
loop_
_symmetry_equiv_pos_as_xyz
  x,y,z
_cell_length_a	10.685980
_cell_length_b	18.050590
_cell_length_c	10.685314
_cell_angle_alpha	94.331864
_cell_angle_beta	89.642737
_cell_angle_gamma	94.384981
loop_
_atom_site_label
_atom_site_type_symbol
_atom_site_fract_x
_atom_site_fract_y
_atom_site_fract_z
Zn1	Zn	1.863557	-0.250191	-0.856488
Zn2	Zn	1.879502	-0.364222	-0.646703
Zn3	Zn	1.669845	-0.248782	-0.630637
Zn4	Zn	1.653739	-0.383077	-0.840309
O5	O	1.766661	-0.311568	-0.743534
O6	O	2.041223	-0.258017	-0.842153
O7	O	1.865103	-0.340428	-0.469028
O8	O	1.695608	-0.145043	-0.660644
O9	O	2.052938	-0.341795	-0.688026
O10	O	1.837928	-0.146079	-0.826575
O11	O	1.711069	-0.255614	-0.457225
O12	O	1.492157	-0.273897	-0.644957
O13	O	1.668159	-0.373930	-1.017999
O14	O	1.480324	-0.372564	-0.799002
O15	O	1.822311	-0.276300	-1.029885
O16	O	1.849487	-0.470649	-0.672339
O17	O	1.683620	-0.484501	-0.814580
C18	C	1.440722	-0.325124	-0.718481
C19	C	1.301282	-0.330943	-0.707793
C20	C	1.766568	-0.504522	-0.743477
C21	C	1.766640	-0.587065	-0.743503
C22	C	1.857004	-0.778954	-0.666283
C23	C	1.878873	-0.832561	-0.783123
C24	C	1.766707	-0.738195	-0.743559
C25	C	1.744961	-0.831668	-0.626779
C26	C	1.766776	-0.884179	-0.743602
C27	C	1.788631	-0.790715	-0.860464
C28	C	1.654672	-0.789816	-0.704039
C29	C	1.676492	-0.843406	-0.820955
C30	C	1.766671	-0.654097	-0.743532
C31	C	1.766810	-0.968276	-0.743642
C32	C	2.093872	-0.297960	-0.768686
C33	C	2.233310	-0.292160	-0.779405
C34	C	1.741660	-0.327376	-1.070731
C35	C	1.731006	-0.334112	-1.210163
C36	C	1.766786	-0.117861	-0.743622
C37	C	1.766839	-0.035314	-0.743659
C38	C	1.791636	-0.295765	-0.417616
C39	C	1.802533	-0.288810	-0.278203
H40	H	1.973648	-0.851448	-0.816575
N41	N	1.237064	-0.380830	-0.615743
H42	H	1.302232	-0.405883	-0.569476
H43	H	1.187122	-0.349990	-0.553659
N44	N	1.639096	-0.392324	-1.274275
H45	H	1.551188	-0.383430	-1.244652
H46	H	1.644363	-0.389026	-1.368119
H47	H	1.871914	-0.244862	-1.229779
N48	N	1.813176	-0.766829	-0.991358
H49	H	1.813035	-0.710847	-0.990528
H50	H	1.897518	-0.782795	-1.021317
N51	N	1.575384	-0.880390	-0.907659
H52	H	1.575478	-0.936291	-0.906659
H53	H	1.490977	-0.864104	-0.878540
N54	N	1.529172	-0.764769	-0.659696
H55	H	1.512797	-0.779509	-0.571409
H56	H	1.529908	-0.708843	-0.660884
N57	N	1.720532	-0.855684	-0.495947
H58	H	1.793612	-0.882696	-0.467973
H59	H	1.710202	-0.810350	-0.436475
N60	N	1.297517	-0.242283	-0.871464
H61	H	1.391367	-0.245058	-0.866316
H62	H	1.267842	-0.259201	-0.959286
H63	H	1.933382	-0.750903	-0.601008
