data_functionalizedCrystal
_audit_creation_method	'MofGen! by Chris Wilmer'
_symmetry_space_group_name_H-M	'P1'
_symmetry_Int_Tables_number	1
_symmetry_cell_setting	triclinic
loop_
_symmetry_equiv_pos_as_xyz
  x,y,z
_cell_length_a	9.065218
_cell_length_b	10.654550
_cell_length_c	7.540329
_cell_angle_alpha	89.996554
_cell_angle_beta	89.996962
_cell_angle_gamma	84.750408
loop_
_atom_site_label
_atom_site_type_symbol
_atom_site_fract_x
_atom_site_fract_y
_atom_site_fract_z
O1	O	1.959392	0.184158	-0.147487
O2	O	1.530024	0.199263	-0.147489
O3	O	1.754580	0.009010	-0.147477
O4	O	1.734836	0.374410	-0.147499
O5	O	1.754567	0.009008	0.147488
O6	O	1.530011	0.199261	0.147476
O7	O	1.959378	0.184155	0.147478
Cu8	Cu	1.744693	0.191708	0.174410
Cu9	Cu	1.744709	0.191711	-0.174421
O10	O	1.734823	0.374408	0.147466
C11	C	1.475039	0.197810	-0.000007
C12	C	1.311220	0.193469	-0.000008
C13	C	1.753124	-0.037795	0.000005
C14	C	1.748786	-0.177255	0.000002
C15	C	1.881001	-0.256217	0.000002
C16	C	1.876917	-0.387254	-0.000019
C17	C	1.608391	-0.360354	-0.000034
C18	C	1.612477	-0.229320	-0.000025
C19	C	2.032639	-0.582481	-0.103368
C20	C	2.164861	-0.661449	-0.103337
C21	C	2.284719	-0.630803	0.000031
C22	C	2.272361	-0.521192	0.103411
C23	C	2.140137	-0.442232	0.103397
C24	C	2.020284	-0.472876	-0.000013
C25	C	1.456764	-0.034091	0.103338
C26	C	1.324539	0.044872	0.103336
C27	C	1.204668	0.014230	-0.000021
C28	C	1.217012	-0.095383	-0.103375
C29	C	1.349237	-0.174347	-0.103373
C30	C	1.469109	-0.143695	-0.000019
C31	C	2.014364	0.185608	-0.000008
C32	C	2.178183	0.189949	-0.000019
C33	C	1.736279	0.421213	-0.000020
C34	C	1.740616	0.560673	-0.000028
N35	N	1.744693	0.191705	0.419758
N36	N	1.744721	0.191703	-0.419769
H37	H	2.130073	-0.352992	0.187573
H38	H	1.991993	-0.213831	0.000020
O39	O	2.176887	-0.767786	-0.204038
C40	C	2.154745	-0.735226	-0.383936
H41	H	2.179824	-0.633401	-0.405227
H42	H	2.231723	-0.800189	-0.470084
H43	H	2.034789	-0.745758	-0.421967
H44	H	2.369960	-0.496258	0.187596
O45	O	1.312275	0.151373	0.203688
C46	C	1.169880	0.214510	0.181488
H47	H	1.089945	0.144579	0.135455
H48	H	1.129934	0.257973	0.313090
H49	H	1.174615	0.292031	0.077971
H50	H	1.497413	-0.402762	-0.000052
H51	H	1.935056	-0.607436	-0.187564
O52	O	2.413219	-0.707430	-0.000242
C53	C	2.470771	-0.716381	-0.173959
H54	H	2.425495	-0.630553	-0.253928
H55	H	2.596783	-0.720223	-0.168688
H56	H	2.436576	-0.805601	-0.239730
O57	O	1.100455	-0.124941	-0.203747
C58	C	0.981093	-0.031758	-0.181558
H59	H	1.024913	0.059736	-0.135507
H60	H	0.920543	-0.015188	-0.313170
H61	H	0.901306	-0.064469	-0.078060
H62	H	1.359288	-0.263590	-0.187556
O63	O	1.573099	-0.004394	0.203994
C64	C	1.530645	0.001667	0.383900
H65	H	1.432870	-0.056733	0.405232
H66	H	1.627606	-0.037237	0.470036
H67	H	1.497132	0.103870	0.421909
H68	H	1.096996	0.078524	0.000009
