data_functionalizedCrystal
_audit_creation_method	'MofGen! by Chris Wilmer'
_symmetry_space_group_name_H-M	'P1'
_symmetry_Int_Tables_number	1
_symmetry_cell_setting	triclinic
loop_
_symmetry_equiv_pos_as_xyz
  x,y,z
_cell_length_a	12.759401
_cell_length_b	25.639240
_cell_length_c	12.759393
_cell_angle_alpha	89.956840
_cell_angle_beta	89.980324
_cell_angle_gamma	90.033185
loop_
_atom_site_label
_atom_site_type_symbol
_atom_site_fract_x
_atom_site_fract_y
_atom_site_fract_z
Zn1	Zn	1.606135	-0.208120	-0.593892
Zn2	Zn	2.106135	0.291880	-0.093892
Zn3	Zn	1.605970	-0.295565	-0.418174
Zn4	Zn	2.105970	0.204435	0.081826
Zn5	Zn	1.430433	-0.208146	-0.418231
Zn6	Zn	1.930433	0.291854	0.081769
Zn7	Zn	1.430370	-0.295526	-0.593815
Zn8	Zn	1.930370	0.204474	-0.093815
O9	O	1.518227	-0.251839	-0.506028
O10	O	2.018227	0.248161	-0.006028
O11	O	1.753134	-0.219724	-0.570591
O12	O	2.253134	0.280276	-0.070591
O13	O	1.582643	-0.283995	-0.271160
O14	O	2.082643	0.216005	0.228840
O15	O	1.453836	-0.134977	-0.441590
O16	O	1.953836	0.365023	0.058410
O17	O	1.753013	-0.283970	-0.441491
O18	O	2.253013	0.216030	0.058509
O19	O	1.582923	-0.134958	-0.570647
O20	O	2.082923	0.365042	-0.070647
O21	O	1.453676	-0.219769	-0.271202
O22	O	1.953676	0.280231	0.228798
O23	O	1.283404	-0.219732	-0.441514
O24	O	1.783404	0.280268	0.058486
O25	O	1.453728	-0.283905	-0.740846
O26	O	1.953728	0.216095	-0.240846
O27	O	1.283357	-0.283930	-0.570515
O28	O	1.783357	0.216070	-0.070515
O29	O	1.582861	-0.219687	-0.740903
O30	O	2.082861	0.280313	-0.240903
O31	O	1.582581	-0.368725	-0.441416
O32	O	2.082581	0.131275	0.058584
O33	O	1.453568	-0.368697	-0.570459
O34	O	1.953568	0.131303	-0.070459
C35	C	1.245260	-0.251830	-0.506013
C36	C	1.745260	0.248170	-0.006013
C37	C	1.128483	-0.251839	-0.506032
C38	C	1.628483	0.248161	-0.006032
C39	C	1.073684	-0.218447	-0.573358
C40	C	1.573684	0.281553	-0.073358
C41	C	0.963960	-0.218452	-0.573364
C42	C	1.463960	0.281548	-0.073364
C43	C	0.963843	-0.285246	-0.438717
C44	C	1.463843	0.214754	0.061283
C45	C	1.073565	-0.285238	-0.438705
C46	C	1.573565	0.214762	0.061295
C47	C	1.518078	-0.387682	-0.505946
C48	C	2.018078	0.112318	-0.005946
C49	C	1.518111	-0.445796	-0.505946
C50	C	2.018111	0.054204	-0.005946
C51	C	1.585476	-0.806110	-0.573349
C52	C	2.085476	-0.306110	-0.073349
C53	C	1.585507	-0.860715	-0.573371
C54	C	2.085507	-0.360715	-0.073371
O55	O	1.642606	-0.888910	-0.630595
O56	O	2.142606	-0.388910	-0.130595
N57	N	1.518373	-0.888078	-0.506129
N58	N	2.018373	-0.388078	-0.006129
C59	C	1.451196	-0.860835	-0.438870
C60	C	1.951196	-0.360835	0.061130
O61	O	1.394095	-0.889123	-0.381679
O62	O	1.894095	-0.389123	0.118321
C63	C	1.451160	-0.806231	-0.438855
C64	C	1.951160	-0.306231	0.061145
C65	C	1.518306	-0.778871	-0.506093
C66	C	2.018306	-0.278871	-0.006093
C67	C	1.652616	-0.778749	-0.640583
C68	C	2.152616	-0.278749	-0.140583
C69	C	1.652586	-0.724149	-0.640560
C70	C	2.152586	-0.224149	-0.140560
C71	C	1.585416	-0.696909	-0.573303
C72	C	2.085416	-0.196909	-0.073303
C73	C	1.518276	-0.724270	-0.506070
C74	C	2.018276	-0.224270	-0.006070
C75	C	1.383979	-0.778989	-0.371601
C76	C	1.883979	-0.278989	0.128399
C77	C	1.383948	-0.724382	-0.371592
C78	C	1.883948	-0.224382	0.128408
C79	C	1.451094	-0.697021	-0.438831
C80	C	1.951094	-0.197021	0.061169
C81	C	1.451077	-0.642430	-0.438790
C82	C	1.951077	-0.142430	0.061210
N83	N	1.518211	-0.615066	-0.506032
N84	N	2.018211	-0.115066	-0.006032
C85	C	1.585381	-0.642306	-0.573288
C86	C	2.085381	-0.142306	-0.073288
C87	C	1.451274	-0.975505	-0.438909
C88	C	1.951274	-0.475505	0.061091
C89	C	1.451314	-1.030107	-0.438918
C90	C	1.951314	-0.530107	0.061082
C91	C	1.585624	-1.029984	-0.573420
C92	C	2.085624	-0.529984	-0.073420
C93	C	1.585589	-0.975380	-0.573405
C94	C	2.085589	-0.475380	-0.073405
C95	C	1.518408	-0.948142	-0.506150
C96	C	2.018408	-0.448142	-0.006150
C97	C	1.585314	-0.527641	-0.573234
C98	C	2.085314	-0.027641	-0.073234
C99	C	1.585281	-0.473035	-0.573202
C100	C	2.085281	0.026965	-0.073202
C101	C	1.450967	-0.473164	-0.438704
C102	C	1.950967	0.026836	0.061296
C103	C	1.451003	-0.527765	-0.438732
C104	C	1.951003	-0.027765	0.061268
C105	C	1.518180	-0.555002	-0.506005
C106	C	2.018180	-0.055002	-0.006005
O107	O	1.394004	-0.614199	-0.381598
O108	O	1.894004	-0.114199	0.118402
O109	O	1.642462	-0.614010	-0.630479
O110	O	2.142462	-0.114010	-0.130479
C111	C	1.792260	-0.251849	-0.506043
C112	C	2.292260	0.248151	-0.006043
C113	C	1.909037	-0.251853	-0.506050
C114	C	2.409037	0.248147	-0.006050
C115	C	1.518306	-0.251789	-0.780061
C116	C	2.018306	0.248211	-0.280061
C117	C	1.518339	-0.251768	-0.896838
C118	C	2.018339	0.248232	-0.396838
C119	C	1.518405	-0.115466	-0.506134
C120	C	2.018405	0.384534	-0.006134
C121	C	1.518480	-0.057352	-0.506179
C122	C	2.018480	0.442648	-0.006179
C123	C	1.585584	-0.218324	-0.951731
C124	C	2.085584	0.281676	-0.451731
C125	C	1.585602	-0.218302	-1.061456
C126	C	2.085602	0.281698	-0.561456
C127	C	1.451127	-0.285170	-1.061383
C128	C	1.951127	0.214830	-0.561383
C129	C	1.451105	-0.285190	-0.951661
C130	C	1.951105	0.214810	-0.451661
C131	C	1.518209	-0.251851	-0.233061
C132	C	2.018209	0.248149	0.266939
C133	C	1.518379	-0.251725	-0.116284
C134	C	2.018379	0.248275	0.383716
H135	H	0.919115	-0.312439	-0.383903
H136	H	1.419115	0.187561	0.116097
F137	F	1.132128	-0.182899	-0.645009
F138	F	1.632128	0.317101	-0.145009
F139	F	0.905644	-0.182911	-0.645021
F140	F	1.405644	0.317089	-0.145021
H141	H	1.118183	-0.312430	-0.383875
H142	H	1.618183	0.187570	0.116125
H143	H	1.640358	-0.191068	-1.106145
H144	H	2.140358	0.308932	-0.606145
H145	H	1.639963	-0.450760	-0.627955
H146	H	2.139963	0.049240	-0.127955
H147	H	1.640328	-0.191108	-0.907098
H148	H	2.140328	0.308892	-0.407098
F149	F	1.312508	-0.808096	-0.300039
F150	F	1.812508	-0.308096	0.199961
H151	H	1.640008	-0.549811	-0.628022
H152	H	2.140008	-0.049811	-0.128022
H153	H	1.396389	-0.312383	-1.106034
H154	H	1.896389	0.187617	-0.606034
H155	H	1.396338	-0.312423	-0.906966
H156	H	1.896338	0.187577	-0.406966
H157	H	1.707259	-0.701875	-0.695314
H158	H	2.207259	-0.201875	-0.195314
H159	H	1.707313	-0.800922	-0.695357
H160	H	2.207313	-0.300922	-0.195357
F161	F	1.657053	-0.946266	-0.644969
F162	F	2.157053	-0.446266	-0.144969
F163	F	1.379553	-0.556885	-0.367157
F164	F	1.879553	-0.056885	0.132843
H165	H	1.396648	-1.052380	-0.384154
H166	H	1.896648	-0.552380	0.115846
H167	H	1.640316	-1.052172	-0.628186
H168	H	2.140316	-0.552172	-0.128186
F169	F	1.379773	-0.946520	-0.367315
F170	F	1.879773	-0.446520	0.132685
F171	F	1.312443	-0.695395	-0.300009
F172	F	1.812443	-0.195395	0.199991
H173	H	1.396281	-0.450977	-0.383941
H174	H	1.896281	0.049023	0.116059
