data_functionalizedCrystal
_audit_creation_method	'MofGen! by Chris Wilmer'
_symmetry_space_group_name_H-M	'P1'
_symmetry_Int_Tables_number	1
_symmetry_cell_setting	triclinic
loop_
_symmetry_equiv_pos_as_xyz
  x,y,z
_cell_length_a	27.732048
_cell_length_b	10.967874
_cell_length_c	10.065875
_cell_angle_alpha	69.229500
_cell_angle_beta	98.710990
_cell_angle_gamma	83.697956
loop_
_atom_site_label
_atom_site_type_symbol
_atom_site_fract_x
_atom_site_fract_y
_atom_site_fract_z
O1	O	0.035363	1.739087	-0.522506
O2	O	0.047366	1.361261	-0.433653
O3	O	-0.029132	1.561904	-0.480812
O4	O	0.111861	1.538443	-0.475347
O5	O	-0.014488	1.523643	-0.244830
O6	O	0.062010	1.323000	-0.197671
O7	O	0.050007	1.700825	-0.286524
Zn8	Zn	0.058333	1.505838	-0.204631
Zn9	Zn	0.039039	1.556248	-0.515546
O10	O	0.126505	1.500182	-0.239365
C11	C	0.054921	1.293808	-0.304298
C12	C	0.055610	1.149822	-0.270436
C13	C	0.048331	1.105449	-0.377585
C14	C	0.049042	0.956633	-0.342589
C15	C	-0.039812	1.542280	-0.362701
C16	C	-0.093454	1.540795	-0.362341
C17	C	-0.433215	1.650037	-0.388101
C18	C	-0.634828	1.644536	-0.386827
O19	O	-0.666949	1.744430	-0.410378
N20	N	-0.652926	1.525560	-0.358846
C21	C	-0.620618	1.407953	-0.331191
O22	O	-0.640638	1.306633	-0.307377
C23	C	-0.419006	1.413456	-0.332476
C24	C	-0.400910	1.532438	-0.360444
C25	C	-0.415119	1.769009	-0.416068
C26	C	-0.364718	1.770381	-0.416379
C27	C	-0.332413	1.652782	-0.388722
C28	C	-0.350509	1.533810	-0.360755
C29	C	-0.386699	1.295852	-0.304832
C30	C	-0.336294	1.297239	-0.305160
C31	C	-0.318198	1.416220	-0.333128
C32	C	-0.267804	1.417584	-0.333409
N33	N	-0.249706	1.536560	-0.361390
C34	C	-0.282011	1.654159	-0.389046
C35	C	-0.726467	1.405071	-0.330516
C36	C	-0.776870	1.403694	-0.330192
C37	C	-0.791077	1.640279	-0.385830
C38	C	-0.740673	1.641652	-0.386143
C39	C	-0.708369	1.524047	-0.358496
C40	C	-0.176165	1.657032	-0.389695
C41	C	-0.125758	1.658394	-0.389998
C42	C	-0.111556	1.421811	-0.334367
C43	C	-0.161957	1.420448	-0.334057
C44	C	-0.194261	1.538070	-0.361729
O45	O	-0.235656	1.317746	-0.309886
O46	O	-0.261983	1.755469	-0.412888
C47	C	-0.483616	1.648664	-0.387791
C48	C	-0.501712	1.529692	-0.359823
C49	C	-0.469408	1.412093	-0.332166
C50	C	-0.552115	1.528316	-0.359499
C51	C	-0.584419	1.645915	-0.387156
C52	C	-0.566321	1.764891	-0.415137
C53	C	-0.515921	1.766263	-0.415447
C54	C	-0.487505	1.293117	-0.304186
C55	C	-0.537907	1.291754	-0.303876
C56	C	-0.570211	1.409353	-0.331533
C57	C	0.137185	1.519807	-0.357479
C58	C	0.190826	1.521294	-0.357849
C59	C	0.042452	1.768279	-0.415882
C60	C	0.041762	1.912266	-0.449753
N61	N	0.071501	1.471443	0.007559
N62	N	0.025868	1.590653	-0.727738
C63	C	0.043618	1.544273	0.058220
C64	C	0.053755	1.517812	0.221607
H65	H	0.055804	0.884452	-0.224939
H66	H	-0.817388	1.736032	-0.408348
H67	H	0.041575	1.177632	-0.495226
O68	O	0.006131	1.641900	-0.034265
C69	C	-0.081648	1.726455	-0.098156
C70	C	-0.039247	1.615785	0.006684
H71	H	-0.118344	1.705395	-0.065068
H72	H	-0.083183	1.730355	-0.213440
H73	H	-0.074797	1.825609	-0.093516
H74	H	-0.046067	1.516573	0.002172
H75	H	-0.037723	1.612003	0.121922
O76	O	0.091245	1.420124	0.313982
C77	C	0.179034	1.335699	0.377875
C78	C	0.136624	1.446398	0.273136
H79	H	0.215734	1.356917	0.344909
H80	H	0.172250	1.236515	0.373181
H81	H	0.180515	1.331756	0.493155
H82	H	0.135118	1.450463	0.157810
H83	H	0.143424	1.545527	0.277957
O84	O	-0.108096	1.773854	-0.417085
C85	C	-0.036754	1.880852	-0.442319
C86	C	-0.056686	1.750003	-0.411585
H87	H	0.004811	1.861619	-0.437913
H88	H	-0.044011	1.922920	-0.357202
H89	H	-0.056319	1.954917	-0.554711
H90	H	-0.037135	1.675844	-0.299235
H91	H	-0.049437	1.708044	-0.496791
H92	H	-0.005512	1.672596	0.194681
H93	H	0.062371	1.077637	-0.152794
O94	O	0.108939	1.373592	0.099917
C95	C	0.175344	1.200253	0.125932
C96	C	0.132954	1.311010	0.021186
H97	H	0.194779	1.149642	0.062315
H98	H	0.159587	1.124406	0.210648
H99	H	0.203073	1.244786	0.182377
H100	H	0.105210	1.266595	-0.035362
H101	H	0.148747	1.386841	-0.063441
O102	O	0.033685	0.998551	-0.590034
C103	C	0.025663	1.225528	-0.752811
C104	C	0.034804	1.127962	-0.593886
H105	H	0.026575	1.330173	-0.755977
H106	H	-0.012107	1.221945	-0.813029
H107	H	0.055792	1.196668	-0.807087
H108	H	0.004705	1.156755	-0.539485
H109	H	0.072589	1.131560	-0.533775
H110	H	-0.552634	1.194856	-0.281087
H111	H	-0.791597	1.306804	-0.307393
O112	O	-0.207576	1.771172	-0.416359
C113	C	-0.265118	1.887149	-0.325994
C114	C	-0.229572	1.757804	-0.295636
H115	H	-0.282904	1.876394	-0.228398
H116	H	-0.295224	1.908458	-0.425936
H117	H	-0.243513	1.972395	-0.346096
H118	H	-0.251135	1.672477	-0.275467
H119	H	-0.199467	1.736610	-0.195729
H120	H	-0.349990	1.867269	-0.439159
H121	H	-0.401424	1.198966	-0.282066
O122	O	-0.446458	1.883370	-0.443141
C123	C	-0.481612	2.104967	-0.612864
C124	C	-0.446102	1.975533	-0.582391
H125	H	-0.481344	2.179505	-0.725458
H126	H	-0.469074	2.147643	-0.527967
H127	H	-0.520740	2.083532	-0.607755
H128	H	-0.406964	1.996857	-0.587523
H129	H	-0.458682	1.932894	-0.667289
O130	O	-0.723183	1.757357	-0.413415
C131	C	-0.742603	1.991855	-0.468485
C132	C	-0.762473	1.860912	-0.437646
H133	H	-0.774358	2.075608	-0.488053
H134	H	-0.725508	2.014524	-0.568835
H135	H	-0.713220	1.982345	-0.371283
H136	H	-0.791873	1.870322	-0.534760
H137	H	-0.779537	1.838287	-0.337244
O138	O	-0.695154	1.290690	-0.303554
C139	C	-0.686399	1.055899	-0.248403
C140	C	-0.721911	1.185335	-0.278891
H141	H	-0.708020	0.970691	-0.228485
H142	H	-0.656330	1.034518	-0.148358
H143	H	-0.668558	1.066690	-0.345908
H144	H	-0.739787	1.174642	-0.181473
H145	H	-0.751950	1.206672	-0.378989
H146	H	-0.309994	1.201468	-0.282648
H147	H	-0.176689	1.323558	-0.311244
H148	H	-0.085244	1.326064	-0.311845
H149	H	-0.501192	1.863150	-0.438222
O150	O	-0.597742	1.879135	-0.442250
C151	C	-0.670498	2.034634	-0.596395
C152	C	-0.634942	1.905259	-0.565865
H153	H	-0.700588	2.055781	-0.696319
H154	H	-0.648942	2.119984	-0.616552
H155	H	-0.688305	2.023865	-0.498833
H156	H	-0.617126	1.915898	-0.663380
H157	H	-0.656523	1.819959	-0.545649
H158	H	-0.461207	1.197352	-0.281667
