data_functionalizedCrystal
_audit_creation_method	'MofGen! by Chris Wilmer'
_symmetry_space_group_name_H-M	'P1'
_symmetry_Int_Tables_number	1
_symmetry_cell_setting	triclinic
loop_
_symmetry_equiv_pos_as_xyz
  x,y,z
_cell_length_a	12.759401
_cell_length_b	12.759400
_cell_length_c	12.759393
_cell_angle_alpha	89.968916
_cell_angle_beta	89.982549
_cell_angle_gamma	90.013689
loop_
_atom_site_label
_atom_site_type_symbol
_atom_site_fract_x
_atom_site_fract_y
_atom_site_fract_z
Zn1	Zn	1.606244	-0.418229	-0.593988
Zn2	Zn	1.606142	-0.593949	-0.418311
Zn3	Zn	1.430550	-0.418281	-0.418328
Zn4	Zn	1.430535	-0.593864	-0.593952
O5	O	1.518368	-0.506081	-0.506145
O6	O	1.753252	-0.441552	-0.570692
O7	O	1.582813	-0.570703	-0.271292
O8	O	1.453905	-0.271253	-0.441652
O9	O	1.753177	-0.570653	-0.441623
O10	O	1.582987	-0.271215	-0.570709
O11	O	1.453806	-0.441641	-0.271304
O12	O	1.283527	-0.441559	-0.441616
O13	O	1.453880	-0.570508	-0.740978
O14	O	1.283516	-0.570559	-0.570647
O15	O	1.582973	-0.441470	-0.741005
O16	O	1.582799	-0.740958	-0.441587
O17	O	1.453781	-0.740896	-0.570630
C18	C	1.245400	-0.506056	-0.506130
C19	C	1.128624	-0.506071	-0.506149
C20	C	1.073794	-0.438975	-0.573459
C21	C	0.964070	-0.438995	-0.573466
C22	C	0.964015	-0.573216	-0.438848
C23	C	1.073737	-0.573189	-0.438837
C24	C	1.073824	-0.361487	-0.651183
C25	C	0.964100	-0.361507	-0.651190
C26	C	1.518306	-0.779048	-0.506126
C27	C	1.518375	-0.895825	-0.506153
C28	C	1.585559	-0.950577	-0.573410
C29	C	1.585618	-1.060301	-0.573439
C30	C	1.451306	-1.060511	-0.438944
C31	C	1.451243	-0.950789	-0.438921
C32	C	1.623175	-1.210128	-0.697407
C33	C	1.690375	-1.264883	-0.764655
C34	C	1.792860	-1.229177	-0.780866
C35	C	1.828165	-1.138716	-0.729813
C36	C	1.760971	-1.083966	-0.662557
C37	C	1.658471	-1.119671	-0.646366
C38	C	1.413697	-0.800960	-0.314952
C39	C	1.346507	-0.746208	-0.247690
C40	C	1.244020	-0.781912	-0.231469
C41	C	1.208718	-0.872377	-0.282503
C42	C	1.275909	-0.927129	-0.349765
C43	C	1.378394	-0.891417	-0.365988
C44	C	1.792401	-0.506106	-0.506160
C45	C	1.909178	-0.506117	-0.506166
C46	C	1.518436	-0.505974	-0.780178
C47	C	1.518465	-0.505928	-0.896955
C48	C	1.518459	-0.232047	-0.506186
C49	C	1.518498	-0.115271	-0.506204
C50	C	1.451320	-0.438713	-0.951829
C51	C	1.451351	-0.438682	-1.061553
C52	C	1.585683	-0.573083	-1.061519
C53	C	1.585645	-0.573119	-0.951797
C54	C	1.373767	-0.361114	-0.951850
C55	C	1.373799	-0.361083	-1.061574
C56	C	1.518360	-0.506111	-0.233177
C57	C	1.518535	-0.505861	-0.116401
H58	H	1.103592	-0.280084	-0.629528
Cl59	Cl	0.911534	-0.242126	-0.606412
H60	H	1.789717	-1.010316	-0.620989
Cl61	Cl	0.895008	-0.657588	-0.354232
H62	H	1.375261	-0.672550	-0.206130
Cl63	Cl	1.126425	-0.406620	-0.770430
H64	H	1.292378	-0.382902	-0.922073
H65	H	1.539720	-1.239202	-0.684225
Cl66	Cl	1.670133	-0.657548	-1.130470
Cl67	Cl	1.418793	-0.241806	-0.899322
Cl68	Cl	1.542545	-0.756070	-0.335337
Cl69	Cl	0.918166	-0.395314	-0.776760
Cl70	Cl	1.669949	-0.881482	-0.657934
H71	H	1.395616	-0.279701	-1.091371
H72	H	1.640306	-0.627867	-0.907122
Cl73	Cl	1.231526	-1.040853	-0.413930
Cl74	Cl	1.877338	-1.298016	-0.865405
Cl75	Cl	1.254470	-0.406067	-1.114117
H76	H	1.118376	-0.627815	-0.384016
H77	H	1.911623	-1.109658	-0.743008
Cl78	Cl	1.366915	-1.129616	-0.354430
Cl79	Cl	1.645992	-1.378603	-0.828831
H80	H	1.125266	-0.901450	-0.269293
H81	H	1.189316	-0.737324	-0.176695
