data_functionalizedCrystal
_audit_creation_method	'MofGen! by Chris Wilmer'
_symmetry_space_group_name_H-M	'P1'
_symmetry_Int_Tables_number	1
_symmetry_cell_setting	triclinic
loop_
_symmetry_equiv_pos_as_xyz
  x,y,z
_cell_length_a	17.699104
_cell_length_b	17.699083
_cell_length_c	13.448316
_cell_angle_alpha	89.992503
_cell_angle_beta	89.992351
_cell_angle_gamma	83.287266
loop_
_atom_site_label
_atom_site_type_symbol
_atom_site_fract_x
_atom_site_fract_y
_atom_site_fract_z
O1	O	1.004068	0.095788	-0.082714
O2	O	0.783692	0.108224	-0.082712
O3	O	0.900106	-0.008183	-0.082704
O4	O	0.887654	0.212195	-0.082722
O5	O	0.900092	-0.008190	0.082680
O6	O	0.783677	0.108217	0.082672
O7	O	1.004054	0.095781	0.082670
Cu8	Cu	0.893864	0.101998	0.097772
Cu9	Cu	0.893881	0.102007	-0.097814
O10	O	0.887639	0.212188	0.082662
C11	C	0.755488	0.107772	-0.000019
C12	C	0.671471	0.106427	-0.000018
C13	C	0.146600	0.167171	-0.000034
C14	C	0.225543	0.168430	-0.000037
C15	C	0.274161	0.100095	-0.000031
C16	C	0.243831	0.030496	-0.000032
C17	C	0.164889	0.029238	-0.000037
C18	C	0.562197	0.035569	-0.000017
C19	C	0.641144	0.036833	-0.000010
C20	C	0.622852	0.174762	-0.000017
C21	C	0.543909	0.173503	-0.000021
C22	C	0.513587	0.103905	-0.000028
C23	C	0.427987	0.102541	-0.000027
C24	C	0.359759	0.101459	-0.000025
C25	C	0.899653	-0.036383	-0.000012
C26	C	0.898314	-0.120402	-0.000012
C27	C	0.966647	-0.169017	-0.000011
C28	C	0.965385	-0.247961	-0.000020
C29	C	0.895789	-0.278287	-0.000022
C30	C	0.827451	-0.229665	-0.000026
C31	C	0.828714	-0.150723	-0.000024
C32	C	0.822356	-0.548028	-0.000034
C33	C	0.821098	-0.626976	-0.000033
C34	C	0.959026	-0.645266	-0.000029
C35	C	0.960289	-0.566324	-0.000028
C36	C	0.891952	-0.517709	-0.000037
C37	C	0.893321	-0.432110	-0.000029
C38	C	0.894419	-0.363885	-0.000023
C39	C	1.032258	0.096233	-0.000025
C40	C	1.116275	0.097578	-0.000032
C41	C	0.888093	0.240388	-0.000032
C42	C	0.889431	0.324406	-0.000039
N43	N	0.893858	0.101992	0.235336
N44	N	0.893894	0.102007	-0.235378
C45	C	0.945422	0.050468	0.287380
C46	C	0.945426	0.050467	0.391483
C47	C	0.893870	0.101995	0.443541
C48	C	0.842300	0.153521	0.391490
C49	C	0.842293	0.153517	0.287388
C50	C	0.842321	0.153526	0.608470
C51	C	0.842330	0.153531	0.712578
C52	C	0.945455	0.050476	0.712565
C53	C	0.945447	0.050472	0.608463
C54	C	0.893878	0.102000	0.556419
H55	H	0.107020	0.222818	-0.000031
H56	H	0.987444	0.008521	0.754945
H57	H	0.987432	0.008519	0.566078
H58	H	0.680728	-0.018817	-0.000008
F59	F	0.755985	-0.098982	-0.000028
F60	F	1.000300	-0.004372	0.231986
F61	F	0.787455	0.208373	0.767975
H62	H	0.504328	0.229149	-0.000021
H63	H	0.987413	0.008512	0.433857
F64	F	0.749624	-0.496298	-0.000046
H65	H	0.537518	-0.021102	-0.000020
F66	F	0.787433	0.208366	0.553085
H67	H	0.250230	0.225100	-0.000047
F68	F	0.753381	-0.261942	-0.000040
H69	H	0.647550	0.231432	-0.000016
H70	H	1.014670	-0.684858	-0.000027
H71	H	0.283422	-0.025143	-0.000034
H72	H	0.800318	0.195473	0.433881
H73	H	0.140200	-0.027432	-0.000037
H74	H	0.800303	0.195472	0.245015
H75	H	1.021028	-0.287541	-0.000017
F76	F	1.034362	-0.534054	-0.000026
F77	F	1.040721	-0.136750	0.000001
H78	H	0.764421	-0.651664	-0.000033
