data_functionalizedCrystal
_audit_creation_method	'MofGen! by Chris Wilmer'
_symmetry_space_group_name_H-M	'P1'
_symmetry_Int_Tables_number	1
_symmetry_cell_setting	triclinic
loop_
_symmetry_equiv_pos_as_xyz
  x,y,z
_cell_length_a	14.628931
_cell_length_b	21.606444
_cell_length_c	21.606444
_cell_angle_alpha	59.991153
_cell_angle_beta	90.001559
_cell_angle_gamma	60.002975
loop_
_atom_site_label
_atom_site_type_symbol
_atom_site_fract_x
_atom_site_fract_y
_atom_site_fract_z
Zr1	Zr	0.880617	0.677513	-0.081337
O2	O	0.734650	0.806648	-0.180186
O3	O	0.925363	0.548382	-0.051020
O4	O	0.925355	0.677518	-0.180164
O5	O	0.734666	0.677508	0.050813
O6	O	1.075786	0.677518	-0.180164
O7	O	0.734659	0.677512	-0.051041
O8	O	1.075802	0.446517	0.050851
O9	O	0.734651	0.908508	-0.180203
O10	O	1.056713	0.601494	-0.038108
O11	O	0.944453	0.601491	0.037904
O12	O	0.944443	0.753532	-0.114146
O13	O	0.832183	0.753529	-0.038134
Zr14	Zr	1.120551	0.677506	0.081108
Zr15	Zr	1.120539	0.677513	-0.081338
Zr16	Zr	0.880629	0.677506	0.081108
Zr17	Zr	0.880619	0.839968	-0.081365
Zr18	Zr	1.120550	0.515051	0.081135
O19	O	1.075805	0.806638	0.050791
O20	O	1.075788	0.806648	-0.180186
O21	O	0.734667	0.806638	0.050791
O22	O	1.266518	0.548372	0.179956
O23	O	1.266501	0.548382	-0.051021
O24	O	0.925381	0.548372	0.179957
O25	O	1.266502	0.677512	-0.051042
O26	O	1.075813	0.677502	0.179935
O27	O	0.925382	0.677502	0.179935
O28	O	1.266509	0.677508	0.050812
O29	O	0.925356	0.908508	-0.180203
O30	O	1.075812	0.446512	0.179973
O31	O	1.266517	0.446512	0.179973
O32	O	1.266508	0.446517	0.050851
O33	O	0.734661	0.908502	-0.051080
O34	O	0.925366	0.908502	-0.051080
O35	O	1.056725	0.601488	0.113917
O36	O	1.168985	0.601491	0.037904
O37	O	1.056715	0.753529	-0.038134
O38	O	0.944455	0.753525	0.037879
C39	C	1.000582	0.474303	-0.000081
C40	C	1.000582	0.405337	-0.000069
C41	C	0.917700	0.429074	-0.056197
C42	C	0.917703	0.364285	-0.056213
C43	C	1.000584	0.275759	-0.000097
C44	C	1.083474	0.252022	0.056034
C45	C	1.083474	0.316810	0.056046
C46	C	1.083473	-0.009265	0.055987
C47	C	1.083464	-0.074054	0.055972
C48	C	0.917702	0.038209	-0.056273
C49	C	0.917703	0.102998	-0.056261
C50	C	1.000595	0.079256	-0.000132
C51	C	1.000592	0.149508	-0.000117
C52	C	1.000583	0.205507	-0.000109
C53	C	0.700479	0.677510	-0.000114
C54	C	0.598626	0.677510	-0.000114
C55	C	0.553213	0.677512	-0.053440
C56	C	0.447942	0.677512	-0.053442
C57	C	1.300689	0.677510	-0.000115
C58	C	1.402542	0.677510	-0.000115
C59	C	1.000569	0.677519	-0.203309
C60	C	1.000564	0.677521	-0.272272
C61	C	1.000586	0.880716	-0.000149
C62	C	1.000586	0.949683	-0.000160
C63	C	0.941959	0.756883	-0.344361
C64	C	0.941969	0.756880	-0.409156
C65	C	1.000577	0.677516	-0.401860
C66	C	1.059189	0.598148	-0.329763
C67	C	1.059185	0.598152	-0.264969
C68	C	1.059206	0.598133	-0.591066
C69	C	1.059203	0.598136	-0.655866
C70	C	0.941990	0.756862	-0.735253
C71	C	0.941987	0.756865	-0.670459
C72	C	1.000603	0.677498	-0.598368
C73	C	1.000593	0.677502	-0.528110
C74	C	1.000581	0.677511	-0.472116
C75	C	1.000599	0.677501	0.203080
C76	C	1.000604	0.677498	0.272042
C77	C	1.300688	0.474303	-0.000081
C78	C	1.402540	0.405337	-0.000070
C79	C	1.000598	0.474294	0.203114
C80	C	1.000602	0.405325	0.272088
C81	C	1.300703	0.474294	0.203113
C82	C	1.402560	0.405325	0.272087
C83	C	0.700465	0.880725	-0.203343
C84	C	0.598608	0.949695	-0.272317
C85	C	0.700480	0.880716	-0.000148
C86	C	0.598628	0.949683	-0.000160
C87	C	1.000570	0.880725	-0.203343
C88	C	1.000566	0.949695	-0.272317
C89	C	1.391766	0.372951	-0.039749
C90	C	1.487458	0.308159	-0.039753
C91	C	1.593923	0.275749	-0.000074
C92	C	1.604694	0.308141	0.039607
C93	C	1.509003	0.372936	0.039606
C94	C	1.059209	0.372934	0.344163
C95	C	1.059209	0.308139	0.408978
C96	C	1.000608	0.275732	0.401715
C97	C	0.941994	0.308128	0.329632
C98	C	0.941988	0.372927	0.264819
C99	C	1.509002	0.372938	0.264800
C100	C	1.604718	0.308143	0.329602
C101	C	1.593988	0.275731	0.401690
C102	C	1.487535	0.308125	0.408976
C103	C	1.391822	0.372923	0.344175
C104	C	0.492166	0.982090	-0.265030
C105	C	0.396450	1.046905	-0.329832
C106	C	0.407180	1.079320	-0.401920
C107	C	0.513633	1.046922	-0.409206
C108	C	0.609346	0.982112	-0.344404
C109	C	0.609402	0.982075	0.039513
C110	C	0.513710	1.046886	0.039499
C111	C	0.407245	1.079298	-0.000183
C112	C	0.396474	1.046903	-0.039860
C113	C	0.492165	0.982098	-0.039850
C114	C	1.059178	0.982082	-0.265030
C115	C	1.059196	1.046877	-0.329833
C116	C	1.000594	1.079289	-0.401921
C117	C	0.941980	1.046895	-0.409206
C118	C	0.941970	0.982097	-0.344405
H119	H	0.850209	0.175078	-0.101954
H120	H	0.441586	0.677513	0.045540
H121	H	0.850198	0.501154	-0.101886
F122	F	1.520447	0.407425	0.188084
H123	H	0.894268	0.399291	0.206135
H124	H	1.691388	0.281775	0.323657
F125	F	1.171682	-0.168275	0.115701
H126	H	0.559575	0.677503	0.045542
H127	H	1.106932	0.533504	-0.649917
H128	H	1.106898	0.955703	-0.206338
H129	H	0.894226	0.821511	-0.350311
H130	H	1.106943	0.281769	0.467664
F131	F	0.480681	0.947626	-0.082073
H132	H	0.894283	0.281732	0.323730
H133	H	1.671933	0.222968	0.454450
F134	F	0.829487	0.389554	-0.115951
F135	F	1.000625	0.206766	0.470703
H136	H	0.309778	1.073303	-0.072168
F137	F	1.695757	0.206786	-0.000079
H138	H	0.696082	0.955690	0.071831
H139	H	1.106936	0.533508	-0.532374
H140	H	1.478816	0.281726	0.467679
H141	H	1.305156	0.399284	0.350119
H142	H	0.696013	0.955737	-0.350347
F143	F	0.879608	0.841332	-0.811984
H144	H	0.850210	0.057535	-0.101978
F145	F	1.171688	-0.034542	0.115728
H146	H	1.106929	0.399314	0.350091
H147	H	0.894250	0.821504	-0.467853
F148	F	1.171692	0.291544	0.115783
F149	F	1.171685	0.157804	0.115755
F150	F	0.604258	0.677508	-0.113113
H151	H	0.522502	1.073251	0.071812
H152	H	0.329337	1.132066	-0.000184
F153	F	0.480721	0.947602	-0.188314
H154	H	0.309781	1.073272	-0.323885
F155	F	1.121577	1.081345	-0.322063
F156	F	0.305303	1.148296	-0.470882
F157	F	0.525034	1.081427	-0.485934
H158	H	1.106915	0.533528	-0.323826
F159	F	0.396894	0.677521	-0.113121
F160	F	0.879594	0.841336	-0.678230
H161	H	1.106906	0.533527	-0.206271
F162	F	1.000612	1.148256	-0.470882
H163	H	0.894268	1.073295	-0.467909
H164	H	0.894236	0.955734	-0.350348
F165	F	1.278468	0.407434	-0.081987
H166	H	1.478666	0.281793	-0.072066
H167	H	1.517791	0.399296	0.071922
F168	F	1.718011	0.273637	0.081836
