data_functionalizedCrystal
_audit_creation_method	'MofGen! by Chris Wilmer'
_symmetry_space_group_name_H-M	'P1'
_symmetry_Int_Tables_number	1
_symmetry_cell_setting	triclinic
loop_
_symmetry_equiv_pos_as_xyz
  x,y,z
_cell_length_a	16.625546
_cell_length_b	12.645331
_cell_length_c	16.625539
_cell_angle_alpha	90.008658
_cell_angle_beta	89.971468
_cell_angle_gamma	89.979378
loop_
_atom_site_label
_atom_site_type_symbol
_atom_site_fract_x
_atom_site_fract_y
_atom_site_fract_z
Zn1	Zn	-0.321055	-1.620639	-0.455717
Zn2	Zn	-0.071055	-1.370639	-0.205717
Zn3	Zn	0.178945	-1.120639	0.044283
Zn4	Zn	0.428945	-0.870639	0.294283
Zn5	Zn	-0.455894	-1.620523	-0.320879
Zn6	Zn	-0.205894	-1.370523	-0.070879
Zn7	Zn	0.044106	-1.120523	0.179121
Zn8	Zn	0.294106	-0.870523	0.429121
Zn9	Zn	-0.321074	-1.443371	-0.320917
Zn10	Zn	-0.071074	-1.193371	-0.070917
Zn11	Zn	0.178926	-0.943371	0.179083
Zn12	Zn	0.428926	-0.693371	0.429083
Zn13	Zn	-0.455845	-1.443321	-0.455689
Zn14	Zn	-0.205845	-1.193321	-0.205689
Zn15	Zn	0.044155	-0.943321	0.044311
Zn16	Zn	0.294155	-0.693321	0.294311
O17	O	-0.388467	-1.531963	-0.388301
O18	O	-0.138467	-1.281963	-0.138301
O19	O	0.111533	-1.031963	0.111699
O20	O	0.361533	-0.781963	0.361699
O21	O	-0.338954	-1.768971	-0.437826
O22	O	-0.088954	-1.518971	-0.187826
O23	O	0.161046	-1.268971	0.062174
O24	O	0.411046	-1.018971	0.312174
O25	O	-0.438038	-1.596995	-0.208052
O26	O	-0.188038	-1.346995	0.041948
O27	O	0.061962	-1.096995	0.291948
O28	O	0.311962	-0.846995	0.541948
O29	O	-0.208239	-1.466955	-0.338826
O30	O	0.041761	-1.216955	-0.088826
O31	O	0.291761	-0.966955	0.161174
O32	O	0.541761	-0.716955	0.411174
O33	O	-0.438019	-1.768886	-0.338762
O34	O	-0.188019	-1.518886	-0.088762
O35	O	0.061981	-1.268886	0.161238
O36	O	0.311981	-1.018886	0.411238
O37	O	-0.208225	-1.597194	-0.437863
O38	O	0.041775	-1.347194	-0.187863
O39	O	0.291775	-1.097194	0.062137
O40	O	0.541775	-0.847194	0.312137
O41	O	-0.338987	-1.466842	-0.208080
O42	O	-0.088987	-1.216842	0.041920
O43	O	0.161013	-0.966842	0.291920
O44	O	0.411013	-0.716842	0.541920
O45	O	-0.338940	-1.295017	-0.338799
O46	O	-0.088940	-1.045017	-0.088799
O47	O	0.161060	-0.795017	0.161201
O48	O	0.411060	-0.545017	0.411201
O49	O	-0.437936	-1.466870	-0.568525
O50	O	-0.187936	-1.216870	-0.318525
O51	O	0.062064	-0.966870	-0.068525
O52	O	0.312064	-0.716870	0.181475
O53	O	-0.437955	-1.294980	-0.437815
O54	O	-0.187955	-1.044980	-0.187815
O55	O	0.062045	-0.794980	0.062185
O56	O	0.312045	-0.544980	0.312185
O57	O	-0.338906	-1.597146	-0.568546
O58	O	-0.088906	-1.347146	-0.318546
O59	O	0.161094	-1.097146	-0.068546
O60	O	0.411094	-0.847146	0.181454
O61	O	-0.568719	-1.596947	-0.338734
O62	O	-0.318719	-1.346947	-0.088734
O63	O	-0.068719	-1.096947	0.161266
O64	O	0.181281	-0.846947	0.411266
O65	O	-0.568684	-1.466758	-0.437778
O66	O	-0.318684	-1.216758	-0.187778
O67	O	-0.068684	-0.966758	0.062222
O68	O	0.181316	-0.716758	0.312222
C69	C	-0.388445	-1.256534	-0.388309
C70	C	-0.138445	-1.006534	-0.138309
C71	C	0.111555	-0.756534	0.111691
C72	C	0.361555	-0.506534	0.361691
C73	C	-0.388455	-1.138704	-0.388331
C74	C	-0.138455	-0.888704	-0.138331
C75	C	0.111545	-0.638704	0.111669
C76	C	0.361545	-0.388704	0.361669
C77	C	-0.451084	-0.971152	-0.450301
C78	C	-0.201084	-0.721152	-0.200301
C79	C	0.048916	-0.471152	0.049699
C80	C	0.298916	-0.221152	0.299699
C81	C	-0.450884	-1.093712	-0.450558
C82	C	-0.200884	-0.843712	-0.200558
C83	C	0.049116	-0.593712	0.049442
C84	C	0.299116	-0.343712	0.299442
C85	C	-0.303531	-1.094232	-0.411556
C86	C	-0.053531	-0.844232	-0.161556
C87	C	0.196469	-0.594232	0.088444
C88	C	0.446469	-0.344232	0.338444
C89	C	-0.303911	-0.971634	-0.411995
C90	C	-0.053911	-0.721634	-0.161995
C91	C	0.196089	-0.471634	0.088005
C92	C	0.446089	-0.221634	0.338005
C93	C	-0.410059	-0.971466	-0.302949
C94	C	-0.160059	-0.721466	-0.052949
C95	C	0.089941	-0.471466	0.197051
C96	C	0.339941	-0.221466	0.447051
C97	C	-0.411918	-1.094072	-0.303406
C98	C	-0.161918	-0.844072	-0.053406
C99	C	0.088082	-0.594072	0.196594
C100	C	0.338082	-0.344072	0.446594
C101	C	-0.597958	-1.531863	-0.388267
C102	C	-0.347958	-1.281863	-0.138267
C103	C	-0.097958	-1.031863	0.111733
C104	C	0.152042	-0.781863	0.361733
C105	C	-0.687579	-1.531917	-0.388279
C106	C	-0.437579	-1.281917	-0.138279
C107	C	-0.187579	-1.031917	0.111721
C108	C	0.062421	-0.781917	0.361721
C109	C	-1.015754	-1.532102	-0.388363
C110	C	-0.765754	-1.282102	-0.138363
C111	C	-0.515754	-1.032102	0.111637
C112	C	-0.265754	-0.782102	0.361637
C113	C	-0.924446	-1.532047	-0.388342
C114	C	-0.674446	-1.282047	-0.138342
C115	C	-0.424446	-1.032047	0.111658
C116	C	-0.174446	-0.782047	0.361658
C117	C	-0.851670	-1.532009	-0.388321
C118	C	-0.601670	-1.282009	-0.138321
C119	C	-0.351670	-1.032009	0.111679
C120	C	-0.101670	-0.782009	0.361679
C121	C	-0.760355	-1.531956	-0.388301
C122	C	-0.510355	-1.281956	-0.138301
C123	C	-0.260355	-1.031956	0.111699
C124	C	-0.010355	-0.781956	0.361699
C125	C	-0.178158	-1.532093	-0.388352
C126	C	0.071842	-1.282093	-0.138352
C127	C	0.321842	-1.032093	0.111648
C128	C	0.571842	-0.782093	0.361648
C129	C	-0.088537	-1.532148	-0.388374
C130	C	0.161463	-1.282148	-0.138374
C131	C	0.411463	-1.032148	0.111626
C132	C	0.661463	-0.782148	0.361626
C133	C	-0.388414	-1.532015	-0.598610
C134	C	-0.138414	-1.282015	-0.348610
C135	C	0.111586	-1.032015	-0.098610
C136	C	0.361586	-0.782015	0.151390
C137	C	-0.388391	-1.532038	-0.688231
C138	C	-0.138391	-1.282038	-0.438231
C139	C	0.111609	-1.032038	-0.188231
C140	C	0.361609	-0.782038	0.061769
C141	C	-0.388486	-0.808469	-0.388298
C142	C	-0.138486	-0.558469	-0.138298
C143	C	0.111514	-0.308469	0.111702
C144	C	0.361514	-0.058469	0.361702
C145	C	-0.388485	-0.926299	-0.388312
C146	C	-0.138485	-0.676299	-0.138312
C147	C	0.111515	-0.426299	0.111688
C148	C	0.361515	-0.176299	0.361688
C149	C	-0.388373	-1.532055	-0.761013
C150	C	-0.138373	-1.282055	-0.511013
C151	C	0.111627	-1.032055	-0.261013
C152	C	0.361627	-0.782055	-0.011013
C153	C	-0.388343	-1.532080	-0.852322
C154	C	-0.138343	-1.282080	-0.602322
C155	C	0.111657	-1.032080	-0.352322
C156	C	0.361657	-0.782080	-0.102322
C157	C	-0.388315	-1.532105	-0.925098
C158	C	-0.138315	-1.282105	-0.675098
C159	C	0.111685	-1.032105	-0.425098
C160	C	0.361685	-0.782105	-0.175098
C161	C	-0.388286	-1.532131	-1.016413
C162	C	-0.138286	-1.282131	-0.766413
C163	C	0.111714	-1.032131	-0.516413
C164	C	0.361714	-0.782131	-0.266413
C165	C	-0.388462	-1.531973	-0.178810
C166	C	-0.138462	-1.281973	0.071190
C167	C	0.111538	-1.031973	0.321190
C168	C	0.361538	-0.781973	0.571190
C169	C	-0.388257	-1.532156	-0.089189
C170	C	-0.138257	-1.282156	0.160811
C171	C	0.111743	-1.032156	0.410811
C172	C	0.361743	-0.782156	0.660811
H173	H	-0.255623	-1.123375	-0.367815
H174	H	-0.005623	-0.873375	-0.117815
H175	H	0.244377	-0.623375	0.132185
H176	H	0.494377	-0.373375	0.382185
F177	F	-0.533672	-0.932592	-0.431492
F178	F	-0.283672	-0.682592	-0.181492
F179	F	-0.033672	-0.432592	0.068508
F180	F	0.216328	-0.182592	0.318508
H181	H	-0.513860	-1.123779	-0.436001
H182	H	-0.263860	-0.873779	-0.186001
H183	H	-0.013860	-0.623779	0.063999
H184	H	0.236140	-0.373779	0.313999
F185	F	-0.356645	-1.134097	-0.239794
F186	F	-0.106645	-0.884097	0.010206
F187	F	0.143355	-0.634097	0.260206
F188	F	0.393355	-0.384097	0.510206
F189	F	-0.432223	-1.132070	-0.533229
F190	F	-0.182223	-0.882070	-0.283229
F191	F	0.067777	-0.632070	-0.033229
F192	F	0.317777	-0.382070	0.216771
F193	F	-0.432678	-0.930880	-0.532492
F194	F	-0.182678	-0.680880	-0.282492
F195	F	0.067322	-0.430880	-0.032492
F196	F	0.317322	-0.180880	0.217508
F197	F	-0.279175	-1.134381	-0.492238
F198	F	-0.029175	-0.884381	-0.242238
F199	F	0.220825	-0.634381	0.007762
F200	F	0.470825	-0.384381	0.257762
F201	F	-0.279994	-0.934274	-0.493562
F202	F	-0.029994	-0.684274	-0.243562
F203	F	0.220006	-0.434274	0.006438
F204	F	0.470006	-0.184274	0.256438
H205	H	-0.470929	-0.940540	-0.281843
H206	H	-0.220929	-0.690540	-0.031843
H207	H	0.029071	-0.440540	0.218157
H208	H	0.279071	-0.190540	0.468157
F209	F	-0.493606	-1.132062	-0.280516
F210	F	-0.243606	-0.882062	-0.030516
F211	F	0.006394	-0.632062	0.219484
F212	F	0.256394	-0.382062	0.469484
F213	F	-0.350463	-0.933551	-0.242577
F214	F	-0.100463	-0.683551	0.007423
F215	F	0.149537	-0.433551	0.257423
F216	F	0.399537	-0.183551	0.507423
H217	H	-0.255599	-0.941964	-0.368916
H218	H	-0.005599	-0.691964	-0.118916
H219	H	0.244401	-0.441964	0.131084
H220	H	0.494401	-0.191964	0.381084
