data_functionalizedCrystal
_audit_creation_method	'MofGen! by Chris Wilmer'
_symmetry_space_group_name_H-M	'P1'
_symmetry_Int_Tables_number	1
_symmetry_cell_setting	triclinic
loop_
_symmetry_equiv_pos_as_xyz
  x,y,z
_cell_length_a	19.188925
_cell_length_b	10.654541
_cell_length_c	9.730217
_cell_angle_alpha	90.003041
_cell_angle_beta	89.997646
_cell_angle_gamma	96.186761
loop_
_atom_site_label
_atom_site_type_symbol
_atom_site_fract_x
_atom_site_fract_y
_atom_site_fract_z
O1	O	0.927169	-0.156745	-0.114319
O2	O	0.723995	-0.177858	-0.114315
O3	O	0.830254	0.015537	-0.114309
O4	O	0.820909	-0.350140	-0.114325
O5	O	0.830251	0.015539	0.114271
O6	O	0.723991	-0.177856	0.114265
O7	O	0.927165	-0.156744	0.114261
Zn8	Zn	0.825578	-0.167300	0.150555
Zn9	Zn	0.825582	-0.167302	-0.150609
O10	O	0.820906	-0.350138	0.114255
C11	C	0.697978	-0.177174	-0.000025
C12	C	0.620459	-0.175125	-0.000023
C13	C	0.059341	-0.274883	-0.000031
C14	C	0.132177	-0.276819	-0.000038
C15	C	0.176370	-0.163342	-0.000031
C16	C	0.147721	-0.047919	-0.000051
C17	C	0.074887	-0.045986	-0.000057
N18	N	0.296509	-0.081188	0.077783
N19	N	0.365698	-0.083032	0.077792
C20	C	0.395817	-0.169158	-0.000015
N21	N	0.354131	-0.253391	-0.077814
N22	N	0.284935	-0.251550	-0.077816
C23	C	0.255348	-0.165425	-0.000025
C24	C	0.503434	-0.286673	-0.000012
C25	C	0.576272	-0.288604	-0.000028
C26	C	0.591815	-0.059701	-0.000027
C27	C	0.518979	-0.057773	-0.000025
C28	C	0.474792	-0.171262	-0.000011
C29	C	0.829567	0.062321	-0.000020
C30	C	0.827515	0.201721	-0.000022
C31	C	0.953182	-0.157427	-0.000033
C32	C	1.030701	-0.159476	-0.000043
C33	C	0.821594	-0.396923	-0.000038
C34	C	0.823645	-0.536323	-0.000044
N35	N	0.825580	-0.167297	0.356091
C36	C	0.954576	0.232385	-0.000007
C37	C	1.017140	0.313206	0.000003
C38	C	1.015208	0.444183	-0.000001
C39	C	0.950705	0.494341	-0.000020
C40	C	0.888141	0.413521	-0.000030
C41	C	0.890080	0.282542	-0.000021
C42	C	0.761081	0.382857	-0.000055
C43	C	0.763012	0.251879	-0.000041
C44	C	0.696578	0.433015	-0.000073
C45	C	0.634013	0.352194	-0.000074
C46	C	0.635947	0.221210	-0.000068
C47	C	0.700448	0.171059	-0.000051
N48	N	0.825586	-0.167294	-0.356146
C49	C	0.919711	0.003905	0.356088
C50	C	0.966782	0.089502	0.428026
C51	C	0.966789	0.089503	0.571906
C52	C	0.919719	0.003900	0.643851
C53	C	0.872649	-0.081698	0.571913
C54	C	0.872648	-0.081692	0.428030
C55	C	0.778515	-0.252892	0.571916
C56	C	0.778510	-0.252901	0.428037
C57	C	0.731446	-0.338495	0.643861
C58	C	0.684377	-0.424101	0.571923
C59	C	0.684373	-0.424099	0.428035
C60	C	0.731440	-0.338498	0.356099
H61	H	0.051569	0.047995	-0.000068
Br62	Br	0.919718	0.003892	0.160821
Br63	Br	0.171057	-0.433455	-0.000021
Br64	Br	1.100116	0.553873	-0.000005
Br65	Br	0.948084	0.672097	-0.000133
H66	H	0.695010	0.539664	-0.000085
H67	H	0.581499	0.393044	-0.000098
Br68	Br	0.731442	-0.338496	0.160832
H69	H	1.069658	0.272352	0.000031
Br70	Br	0.207695	0.106088	-0.000052
Br71	Br	1.030655	0.205682	0.330386
Br72	Br	0.731447	-0.338490	0.839128
H73	H	1.005115	0.159209	0.630478
H74	H	0.919722	0.003916	0.761005
Br75	Br	0.620498	-0.540254	0.669565
Br76	Br	0.551034	0.111535	-0.000098
Br77	Br	0.703078	-0.006695	-0.000028
H78	H	0.599588	-0.382587	-0.000030
Br79	Br	-0.000623	-0.428904	-0.000028
Br80	Br	0.443463	-0.440690	0.000005
Br81	Br	0.620482	-0.540264	0.330417
H82	H	0.495660	0.036205	-0.000027
Br83	Br	0.957203	0.054631	0.000038
Br84	Br	0.651783	0.094308	-0.000046
