data_functionalizedCrystal
_audit_creation_method	'MofGen! by Chris Wilmer'
_symmetry_space_group_name_H-M	'P1'
_symmetry_Int_Tables_number	1
_symmetry_cell_setting	triclinic
loop_
_symmetry_equiv_pos_as_xyz
  x,y,z
_cell_length_a	18.101398
_cell_length_b	21.295417
_cell_length_c	18.101389
_cell_angle_alpha	90.022566
_cell_angle_beta	90.024327
_cell_angle_gamma	90.025773
loop_
_atom_site_label
_atom_site_type_symbol
_atom_site_fract_x
_atom_site_fract_y
_atom_site_fract_z
Zn1	Zn	1.132124	-0.250755	0.418817
Zn2	Zn	1.465457	0.082579	0.752151
Zn3	Zn	1.798791	0.415912	1.085484
Zn4	Zn	1.132021	-0.356008	0.294967
Zn5	Zn	1.465355	-0.022675	0.628300
Zn6	Zn	1.798688	0.310658	0.961634
Zn7	Zn	1.008283	-0.250748	0.294979
Zn8	Zn	1.341616	0.082585	0.628312
Zn9	Zn	1.674950	0.415919	0.961645
Zn10	Zn	1.008235	-0.355981	0.418755
Zn11	Zn	1.341568	-0.022648	0.752089
Zn12	Zn	1.674902	0.310685	1.085422
O13	O	1.070166	-0.303373	0.356880
O14	O	1.403499	0.029960	0.690213
O15	O	1.736832	0.363294	1.023546
O16	O	1.235743	-0.264731	0.402409
O17	O	1.569077	0.068603	0.735743
O18	O	1.902410	0.401936	1.069076
O19	O	1.115584	-0.342054	0.191335
O20	O	1.448917	-0.008720	0.524669
O21	O	1.782251	0.324613	0.858002
O22	O	1.024774	-0.162660	0.311437
O23	O	1.358107	0.170674	0.644770
O24	O	1.691441	0.504007	0.978103
O25	O	1.235668	-0.342060	0.311417
O26	O	1.569001	-0.008727	0.644750
O27	O	1.902334	0.324607	0.978084
O28	O	1.115759	-0.162664	0.402421
O29	O	1.449093	0.170669	0.735754
O30	O	1.782426	0.504002	1.069087
O31	O	1.024674	-0.264720	0.191344
O32	O	1.358008	0.068614	0.524677
O33	O	1.691341	0.401947	0.858011
O34	O	0.904644	-0.264694	0.311377
O35	O	1.237977	0.068640	0.644710
O36	O	1.571310	0.401973	0.978043
O37	O	1.024692	-0.342014	0.522397
O38	O	1.358025	-0.008681	0.855730
O39	O	1.691359	0.324652	1.189063
O40	O	0.904609	-0.342008	0.402315
O41	O	1.237942	-0.008675	0.735648
O42	O	1.571275	0.324659	1.068982
O43	O	1.115713	-0.264705	0.522442
O44	O	1.449046	0.068629	0.855775
O45	O	1.782380	0.401962	1.189109
O46	O	1.115538	-0.444094	0.311357
O47	O	1.448871	-0.110761	0.644690
O48	O	1.782204	0.222573	0.978024
O49	O	1.024592	-0.444074	0.402304
O50	O	1.357926	-0.110741	0.735637
O51	O	1.691259	0.222592	1.068971
C52	C	0.877755	-0.303348	0.356841
C53	C	1.211089	0.029986	0.690174
C54	C	1.544422	0.363319	1.023508
C55	C	0.795441	-0.303352	0.356842
C56	C	1.128775	0.029982	0.690175
C57	C	1.462108	0.363315	1.023509
C58	C	0.496350	-0.303391	0.356904
C59	C	0.829684	0.029942	0.690238
C60	C	1.163017	0.363276	1.023571
C61	C	0.527673	-0.254504	0.299967
C62	C	0.861006	0.078829	0.633301
C63	C	1.194340	0.412163	0.966634
C64	C	0.613291	-0.254635	0.299724
C65	C	0.946624	0.078698	0.633058
C66	C	1.279958	0.412032	0.966391
C67	C	0.644733	-0.303371	0.356873
C68	C	0.978066	0.029962	0.690207
C69	C	1.311399	0.363296	1.023540
C70	C	0.613615	-0.369679	0.335543
C71	C	0.946949	-0.036346	0.668876
C72	C	1.280282	0.296988	1.002210
C73	C	0.527970	-0.369407	0.335147
C74	C	0.861304	-0.036074	0.668481
C75	C	1.194637	0.297259	1.001814
C76	C	0.527965	-0.286547	0.435305
C77	C	0.861298	0.046786	0.768638
C78	C	1.194631	0.380120	1.101972
C79	C	0.613615	-0.285070	0.434877
C80	C	0.946949	0.048263	0.768211
C81	C	1.280282	0.381597	1.101544
C82	C	0.728592	-0.303364	0.356857
C83	C	1.061926	0.029970	0.690190
C84	C	1.395259	0.363303	1.023524
C85	C	0.412491	-0.303403	0.356919
C86	C	0.745824	0.029931	0.690252
C87	C	1.079157	0.363264	1.023585
C88	C	1.070069	-0.466925	0.356839
C89	C	1.403402	-0.133591	0.690172
C90	C	1.736735	0.199742	1.023505
C91	C	1.070095	-0.536893	0.356846
C92	C	1.403428	-0.203559	0.690179
C93	C	1.736762	0.129774	1.023512
C94	C	1.117492	-0.569749	0.309538
C95	C	1.450826	-0.236416	0.642872
C96	C	1.784159	0.096918	0.976205
C97	C	1.117527	-0.635491	0.309555
C98	C	1.450860	-0.302158	0.642888
C99	C	1.784194	0.031175	0.976222
C100	C	1.070151	-0.668375	0.356871
C101	C	1.403484	-0.335042	0.690205
C102	C	1.736818	-0.001709	1.023538
C103	C	1.022751	-0.635511	0.404188
C104	C	1.356084	-0.302178	0.737521
C105	C	1.689417	0.031155	1.070855
C106	C	1.022722	-0.569770	0.404175
C107	C	1.356056	-0.236437	0.737509
C108	C	1.689389	0.096897	1.070842
N109	N	1.005367	-0.771637	0.362504
N110	N	1.338700	-0.438304	0.695837
N111	N	1.672034	-0.104971	1.029171
N112	N	1.005396	-0.834089	0.362512
N113	N	1.338729	-0.500755	0.695845
N114	N	1.672062	-0.167422	1.029178
C115	C	1.070234	-0.866450	0.356914
C116	C	1.403567	-0.533117	0.690247
C117	C	1.736901	-0.199783	1.023580
N118	N	1.135044	-0.834001	0.351293
N119	N	1.468377	-0.500667	0.684626
N120	N	1.801711	-0.167334	1.017960
N121	N	1.135014	-0.771543	0.351282
N122	N	1.468348	-0.438210	0.684615
N123	N	1.801681	-0.104877	1.017948
C124	C	1.070177	-0.739661	0.356891
C125	C	1.403510	-0.406327	0.690224
C126	C	1.736843	-0.072994	1.023557
C127	C	1.117673	-0.970592	0.309622
C128	C	1.451006	-0.637258	0.642955
C129	C	1.784340	-0.303925	0.976288
C130	C	1.117709	-1.036335	0.309644
C131	C	1.451042	-0.703002	0.642977
C132	C	1.784376	-0.369669	0.976310
C133	C	1.022926	-1.036354	0.404273
C134	C	1.356259	-0.703021	0.737606
C135	C	1.689593	-0.369687	1.070940
C136	C	1.022897	-0.970612	0.404255
C137	C	1.356230	-0.637278	0.737588
C138	C	1.689563	-0.303945	1.070922
C139	C	1.070269	-0.937734	0.356925
C140	C	1.403602	-0.604401	0.690259
C141	C	1.736936	-0.271068	1.023592
C142	C	1.263328	-0.303399	0.356919
C143	C	1.596661	0.029934	0.690252
C144	C	1.929994	0.363267	1.023585
C145	C	1.345642	-0.303410	0.356935
C146	C	1.678975	0.029923	0.690269
C147	C	2.012308	0.363256	1.023602
C148	C	1.070209	-0.303357	0.550042
C149	C	1.403542	0.029976	0.883375
C150	C	1.736875	0.363310	1.216708
C151	C	1.070227	-0.303350	0.632356
C152	C	1.403560	0.029983	0.965689
C153	C	1.736894	0.363316	1.299022
C154	C	1.070283	-0.139183	0.356937
C155	C	1.403617	0.194151	0.690270
C156	C	1.736950	0.527484	1.023604
C157	C	1.070334	-0.069215	0.356961
C158	C	1.403667	0.264119	0.690295
C159	C	1.737000	0.597452	1.023628
C160	C	1.070166	-0.303344	0.164469
C161	C	1.403499	0.029990	0.497802
C162	C	1.736832	0.363323	0.831136
C163	C	1.070291	-0.303173	0.082155
C164	C	1.403624	0.030160	0.415489
C165	C	1.736958	0.363494	0.748822
C166	C	1.070270	-0.303232	0.931447
C167	C	1.403603	0.030101	1.264780
C168	C	1.736937	0.363434	1.598114
C169	C	1.012805	-0.351719	0.900093
C170	C	1.346138	-0.018385	1.233426
C171	C	1.679472	0.314948	1.566760
C172	C	1.012960	-0.351944	0.814475
C173	C	1.346294	-0.018610	1.147808
C174	C	1.679627	0.314723	1.481141
C175	C	1.070248	-0.303291	0.783064
C176	C	1.403581	0.030042	1.116398
C177	C	1.736915	0.363376	1.449731
C178	C	1.148274	-0.321303	0.814168
C179	C	1.481607	0.012030	1.147502
C180	C	1.814940	0.345364	1.480835
C181	C	1.147953	-0.321621	0.899813
C182	C	1.481287	0.011712	1.233147
C183	C	1.814620	0.345045	1.566480
C184	C	1.050388	-0.236626	0.899877
C185	C	1.383721	0.096707	1.233210
C186	C	1.717054	0.430041	1.566543
C187	C	1.048652	-0.237011	0.814226
C188	C	1.381985	0.096323	1.147559
C189	C	1.715318	0.429656	1.480892
C190	C	1.070240	-0.303323	0.699205
C191	C	1.403574	0.030010	1.032538
C192	C	1.736907	0.363344	1.365871
C193	C	1.070283	-0.303202	1.015306
C194	C	1.403616	0.030131	1.348640
C195	C	1.736950	0.363465	1.681973
H196	H	0.633745	-0.265769	0.241630
H197	H	0.967078	0.067564	0.574964
H198	H	1.300411	0.400897	0.908297
H199	H	0.991232	-0.223428	0.793895
H200	H	1.324565	0.109906	1.127228
H201	H	1.657898	0.443239	1.460562
H202	H	1.025801	-0.400788	0.921614
H203	H	1.359134	-0.067455	1.254948
H204	H	1.692468	0.265879	1.588281
F205	F	0.972446	-0.935642	0.454604
F206	F	1.305780	-0.602309	0.787937
F207	F	1.639113	-0.268976	1.121271
F208	F	1.099373	-0.187285	0.786288
F209	F	1.432706	0.146048	1.119622
F210	F	1.766039	0.479382	1.452955
H211	H	0.507249	-0.407065	0.374809
H212	H	0.840582	-0.073731	0.708142
H213	H	1.173915	0.259602	1.041475
H214	H	1.156310	-1.063086	0.271122
H215	H	1.489643	-0.729752	0.604455
H216	H	1.822977	-0.396419	0.937788
F217	F	0.977312	-0.215178	0.928090
F218	F	1.310645	0.118155	1.261424
F219	F	1.643978	0.451489	1.594757
H220	H	0.635030	-0.384213	0.278847
H221	H	0.968364	-0.050880	0.612180
H222	H	1.301697	0.282454	0.945514
F223	F	1.030152	-0.416468	0.787694
F224	F	1.363486	-0.083135	1.121027
F225	F	1.696819	0.250199	1.454360
H226	H	1.092243	-0.200501	0.920156
H227	H	1.425576	0.132832	1.253489
H228	H	1.758909	0.466165	1.586822
H229	H	0.507959	-0.383693	0.277832
H230	H	0.841292	-0.050360	0.611166
H231	H	1.174625	0.282973	0.944499
F232	F	1.169983	-0.385263	0.925930
F233	F	1.503316	-0.051930	1.259263
F234	F	1.836649	0.281404	1.592597
F235	F	1.205782	-0.277438	0.926929
F236	F	1.539115	0.055895	1.260262
F237	F	1.872449	0.389228	1.593595
H238	H	1.156249	-0.943822	0.271085
H239	H	1.489582	-0.610489	0.604419
H240	H	1.822916	-0.277155	0.937752
H241	H	1.192239	-0.287098	0.793825
H242	H	1.525572	0.046236	1.127159
H243	H	1.858906	0.379569	1.460492
H244	H	0.635021	-0.318083	0.479573
H245	H	0.968354	0.015250	0.812906
H246	H	1.301688	0.348584	1.146240
H247	H	0.955101	-0.340671	0.793443
H248	H	1.288435	-0.007338	1.126776
H249	H	1.621768	0.325995	1.460110
F250	F	0.640794	-0.190366	0.317200
F251	F	0.974127	0.142968	0.650533
F252	F	1.307461	0.476301	0.983866
H253	H	0.507102	-0.205183	0.313191
H254	H	0.840435	0.128150	0.646524
H255	H	1.173769	0.461483	0.979858
F256	F	0.499494	-0.268882	0.224478
F257	F	0.832828	0.064451	0.557811
F258	F	1.166161	0.397784	0.891144
F259	F	0.640225	-0.418564	0.388054
F260	F	0.973559	-0.085231	0.721388
F261	F	1.306892	0.248102	1.054721
F262	F	0.972509	-1.071347	0.454635
F263	F	1.305842	-0.738014	0.787969
F264	F	1.639176	-0.404680	1.121302
H265	H	0.954772	-0.340562	0.920680
H266	H	1.288105	-0.007229	1.254013
H267	H	1.621439	0.326105	1.587346
H268	H	0.506392	-0.239037	0.454697
H269	H	0.839725	0.094296	0.788031
H270	H	1.173059	0.427629	1.121364
H271	H	0.633959	-0.236275	0.450961
H272	H	0.967292	0.097058	0.784294
H273	H	1.300626	0.430392	1.117628
F274	F	1.167919	-0.534762	0.259174
F275	F	1.501252	-0.201429	0.592507
F276	F	1.834585	0.131904	0.925841
F277	F	0.501489	-0.333088	0.490756
F278	F	0.834822	0.000246	0.824089
F279	F	1.168155	0.333579	1.157423
F280	F	1.167975	-0.670466	0.259201
F281	F	1.501308	-0.337133	0.592534
F282	F	1.834642	-0.003800	0.925868
H283	H	0.984178	-0.662290	0.442715
H284	H	1.317512	-0.328956	0.776048
H285	H	1.650845	0.004377	1.109381
F286	F	0.972274	-0.534801	0.454529
F287	F	1.305607	-0.201468	0.787862
F288	F	1.638940	0.131865	1.121195
F289	F	1.170687	-0.384268	0.786138
F290	F	1.504021	-0.050935	1.119471
F291	F	1.837354	0.282398	1.452805
