data_functionalizedCrystal
_audit_creation_method	'MofGen! by Chris Wilmer'
_symmetry_space_group_name_H-M	'P1'
_symmetry_Int_Tables_number	1
_symmetry_cell_setting	triclinic
loop_
_symmetry_equiv_pos_as_xyz
  x,y,z
_cell_length_a	13.032831
_cell_length_b	29.839131
_cell_length_c	13.032268
_cell_angle_alpha	82.859460
_cell_angle_beta	89.113023
_cell_angle_gamma	82.845366
loop_
_atom_site_label
_atom_site_type_symbol
_atom_site_fract_x
_atom_site_fract_y
_atom_site_fract_z
Zn1	Zn	1.498202	-0.303377	0.780727
Zn2	Zn	1.519883	-0.370307	0.608723
Zn3	Zn	1.348078	-0.284611	0.586974
Zn4	Zn	1.326134	-0.367878	0.758849
O5	O	1.423074	-0.331543	0.683818
O6	O	1.644991	-0.321125	0.776168
O7	O	1.515350	-0.352102	0.461924
O8	O	1.368102	-0.224242	0.612730
O9	O	1.660920	-0.370299	0.649797
O10	O	1.478398	-0.238029	0.755079
O11	O	1.389125	-0.289141	0.445945
O12	O	1.201254	-0.286786	0.591516
O13	O	1.330702	-0.366159	0.905665
O14	O	1.185132	-0.347962	0.717792
O15	O	1.457120	-0.318770	0.921739
O16	O	1.494072	-0.432843	0.628583
O17	O	1.351725	-0.431059	0.738880
C18	C	1.155878	-0.315075	0.649920
C19	C	1.041567	-0.308042	0.635443
C20	C	0.982667	-0.335214	0.691374
C21	C	0.864520	-0.327945	0.676412
C22	C	1.422895	-0.448252	0.683744
C23	C	1.422908	-0.498188	0.683758
C24	C	1.497302	-0.808772	0.626498
C25	C	1.497423	-0.996455	0.626554
O26	O	1.560533	-1.021509	0.577811
N27	N	1.423278	-1.019002	0.683923
C28	C	1.349100	-0.994626	0.741287
O29	O	1.286044	-1.018111	0.790093
C30	C	1.348984	-0.806945	0.741236
C31	C	1.423128	-0.784399	0.683855
C32	C	1.571441	-0.786226	0.569122
C33	C	1.571406	-0.739308	0.569105
C34	C	1.497232	-0.714935	0.626462
C35	C	1.423093	-0.737481	0.683837
C36	C	1.274811	-0.782571	0.798606
C37	C	1.274790	-0.735648	0.798590
C38	C	1.348935	-0.713102	0.741209
C39	C	1.348885	-0.666190	0.741177
N40	N	1.423031	-0.643643	0.683808
C41	C	1.497205	-0.668015	0.626451
C42	C	1.349165	-1.093162	0.741308
C43	C	1.349193	-1.140082	0.741320
C44	C	1.497518	-1.141907	0.626588
C45	C	1.497485	-1.094986	0.626571
C46	C	1.423311	-1.070614	0.683939
C47	C	1.497126	-0.569483	0.626417
C48	C	1.497082	-0.522561	0.626401
C49	C	1.348761	-0.520740	0.741137
C50	C	1.348801	-0.567658	0.741149
C51	C	1.422992	-0.592029	0.683787
O52	O	1.285815	-0.641109	0.789903
O53	O	1.560265	-0.644524	0.577671
C54	C	1.497336	-0.855690	0.626516
C55	C	1.423197	-0.878236	0.683891
C56	C	1.349024	-0.853863	0.741249
C57	C	1.423225	-0.925156	0.683903
C58	C	1.497399	-0.949529	0.626545
C59	C	1.571545	-0.926981	0.569176
C60	C	1.571510	-0.880063	0.569158
C61	C	1.274878	-0.876411	0.798618
C62	C	1.274918	-0.923329	0.798630
C63	C	1.349091	-0.947702	0.741272
C64	C	1.691313	-0.348076	0.717849
C65	C	1.805621	-0.355122	0.732351
C66	C	1.389044	-0.344287	0.952061
C67	C	1.374543	-0.349718	1.066370
C68	C	1.423279	-0.214382	0.683919
C69	C	1.423367	-0.164454	0.683962
C70	C	1.457031	-0.318820	0.416627
C71	C	1.471732	-0.313275	0.302344
C72	C	1.430627	-0.328692	1.125285
C73	C	1.415640	-0.334304	1.243430
H74	H	0.842654	-0.383766	0.791322
N75	N	0.995129	-0.272101	0.561478
N76	N	1.006220	-0.231715	0.569979
H77	H	0.973426	-0.206330	0.517739
N78	N	1.572825	-0.499538	0.567773
N79	N	1.639044	-0.521309	0.516567
H80	H	1.692537	-0.505051	0.475161
N81	N	1.572914	-0.594366	0.567816
N82	N	1.639096	-0.574223	0.516593
H83	H	1.692618	-0.591795	0.475199
N84	N	1.300395	-0.377518	1.112805
N85	N	1.308640	-0.418826	1.101721
H86	H	1.256270	-0.438460	1.134513
H87	H	1.214390	-0.715807	0.845310
N88	N	1.647298	-0.951881	0.510569
N89	N	1.619495	-0.972751	0.440436
H90	H	1.672994	-0.990339	0.399049
N91	N	1.341463	-0.362096	1.289848
N92	N	1.248075	-0.352702	1.265891
H93	H	1.195685	-0.372329	1.298674
N94	N	1.504778	-0.300890	1.078862
N95	N	1.496526	-0.259583	1.089953
H96	H	1.548896	-0.239947	1.057169
N97	N	1.545877	-0.285469	1.255913
N98	N	1.517291	-0.251786	1.191388
H99	H	1.569654	-0.232147	1.158596
N100	N	1.029142	-0.371149	0.765331
N101	N	1.093673	-0.401686	0.736559
H102	H	1.126496	-0.427066	0.788793
N103	N	0.818052	-0.292007	0.602454
N104	N	0.722143	-0.286151	0.590409
H105	H	0.689321	-0.260769	0.538178
N106	N	1.199160	-0.946354	0.857230
N107	N	1.105141	-0.934983	0.838294
H108	H	1.051642	-0.951244	0.879684
N109	N	1.647139	-0.716287	0.510472
N110	N	1.652429	-0.716632	0.414718
H111	H	1.705921	-0.700378	0.373302
N112	N	1.647226	-0.811112	0.510528
N113	N	1.713411	-0.790967	0.459313
H114	H	1.766937	-0.808539	0.417921
H115	H	1.557860	-1.076632	0.579847
N116	N	1.573275	-1.166814	0.567998
N117	N	1.573280	-1.208706	0.568025
H118	H	1.626783	-1.226300	0.526653
N119	N	1.273434	-1.163099	0.799920
N120	N	1.207217	-1.141327	0.851124
H121	H	1.153711	-1.157582	0.892516
H122	H	1.288761	-1.073321	0.788025
N123	N	1.199065	-0.805585	0.857225
N124	N	1.132857	-0.783810	0.908435
H125	H	1.079357	-0.800063	0.949840
H126	H	1.288429	-0.586016	0.787877
H127	H	1.288366	-0.500888	0.787833
N128	N	1.647254	-0.857035	0.510558
N129	N	1.708151	-0.836574	0.555085
H130	H	1.761647	-0.820312	0.513696
N131	N	1.199102	-0.851526	0.857220
N132	N	1.132914	-0.871668	0.908436
H133	H	1.079389	-0.854095	0.949825
