data_functionalizedCrystal
_audit_creation_method	'MofGen! by Chris Wilmer'
_symmetry_space_group_name_H-M	'P1'
_symmetry_Int_Tables_number	1
_symmetry_cell_setting	triclinic
loop_
_symmetry_equiv_pos_as_xyz
  x,y,z
_cell_length_a	8.634740
_cell_length_b	10.654550
_cell_length_c	9.130313
_cell_angle_alpha	90.002181
_cell_angle_beta	89.999573
_cell_angle_gamma	87.472395
loop_
_atom_site_label
_atom_site_type_symbol
_atom_site_fract_x
_atom_site_fract_y
_atom_site_fract_z
O1	O	2.050435	-0.409965	0.121789
O2	O	1.601116	-0.375586	0.121793
O3	O	1.836106	-0.211213	0.121785
O4	O	1.815445	-0.574338	0.121796
O5	O	1.836106	-0.211226	-0.121814
O6	O	1.601115	-0.375600	-0.121806
O7	O	2.050435	-0.409978	-0.121810
Cu8	Cu	1.825775	-0.392790	-0.144051
Cu9	Cu	1.825776	-0.392774	0.144033
O10	O	1.815444	-0.574351	-0.121803
C11	C	1.543582	-0.367805	-0.000006
C12	C	1.372150	-0.344585	-0.000005
C13	C	1.834589	-0.164249	-0.000013
C14	C	1.830050	-0.024289	-0.000007
C15	C	2.107969	-0.417759	-0.000008
C16	C	2.279400	-0.440980	0.000000
C17	C	1.816962	-0.621315	-0.000002
C18	C	1.821500	-0.761276	0.000003
N19	N	1.825786	-0.392802	-0.346673
C20	C	1.968409	0.039436	-0.000013
C21	C	1.964135	0.170944	-0.000003
C22	C	1.683131	0.174991	0.000013
C23	C	1.687407	0.043485	0.000013
C24	C	2.130644	0.037101	-0.000028
C25	C	2.126370	0.168608	-0.000018
C26	C	1.721706	-0.465520	-0.576697
C27	C	1.721706	-0.465541	-0.423361
C28	C	1.929862	-0.320027	-0.423331
C29	C	1.929853	-0.320001	-0.576665
C30	C	1.601533	-0.549535	-0.576713
C31	C	1.601533	-0.549556	-0.423377
N32	N	1.825777	-0.392754	0.346656
H33	H	1.331150	-0.541279	-0.000007
H34	H	1.574742	-0.008394	0.000038
N35	N	1.636492	-0.681403	-0.368277
H36	H	1.636502	-0.681470	-0.257657
H37	H	1.554763	-0.738513	-0.405236
N38	N	2.214709	-0.011366	0.134986
H39	H	2.217840	-0.106239	0.135031
H40	H	2.323991	0.018739	0.134930
H41	H	1.320408	-0.244292	0.000030
H42	H	2.175400	0.208672	0.105161
H43	H	2.014597	-0.260792	-0.360882
N44	N	1.529286	0.248090	0.000036
H45	H	1.547569	0.341068	0.000040
H46	H	1.468675	0.225988	-0.090267
N47	N	1.444374	-0.503121	-0.631833
H48	H	1.362581	-0.560234	-0.595002
H49	H	1.421085	-0.414930	-0.594957
N50	N	2.198927	-0.017908	-0.139407
H51	H	2.228798	0.052238	-0.206742
H52	H	2.293893	-0.072715	-0.115206
N53	N	2.042122	-0.241539	-0.659337
H54	H	2.108067	-0.195471	-0.587491
H55	H	2.110876	-0.297987	-0.722954
N56	N	1.651238	-0.675996	-0.639768
H57	H	1.675258	-0.737120	-0.557454
H58	H	1.564873	-0.708206	-0.702067
H59	H	2.187498	0.203399	-0.101962
N60	N	1.453045	-0.492142	-0.360342
H61	H	1.381294	-0.464389	-0.442665
H62	H	1.401293	-0.556480	-0.298058
