data_functionalizedCrystal
_audit_creation_method	'MofGen! by Chris Wilmer'
_symmetry_space_group_name_H-M	'P1'
_symmetry_Int_Tables_number	1
_symmetry_cell_setting	triclinic
loop_
_symmetry_equiv_pos_as_xyz
  x,y,z
_cell_length_a	23.532407
_cell_length_b	23.532407
_cell_length_c	22.010155
_cell_angle_alpha	90.000423
_cell_angle_beta	89.996931
_cell_angle_gamma	97.151322
loop_
_atom_site_label
_atom_site_type_symbol
_atom_site_fract_x
_atom_site_fract_y
_atom_site_fract_z
O1	O	0.755264	-0.069127	-0.050455
O2	O	0.589400	-0.079130	-0.050474
O3	O	0.677334	0.008803	-0.050453
O4	O	0.667330	-0.157060	-0.050476
O5	O	0.677318	0.008790	0.050597
O6	O	0.589384	-0.079143	0.050576
O7	O	0.755248	-0.069140	0.050595
Cu8	Cu	0.672315	-0.074143	0.059812
Cu9	Cu	0.672333	-0.074127	-0.059691
O10	O	0.667314	-0.157073	0.050574
C11	C	0.568176	-0.078882	0.000049
C12	C	0.504959	-0.078116	0.000042
C13	C	0.105856	-0.125350	0.000063
C14	C	0.046456	-0.124638	0.000067
O15	O	0.009711	-0.168424	0.000083
N16	N	0.023830	-0.072362	0.000073
C17	C	0.060607	-0.020794	0.000082
O18	O	0.035908	0.023737	0.000088
C19	C	0.120006	-0.021506	0.000082
C20	C	0.142629	-0.073785	0.000070
C21	C	0.128479	-0.177625	0.000051
C22	C	0.187876	-0.178336	0.000046
C23	C	0.224649	-0.126772	0.000053
C24	C	0.202025	-0.074497	0.000065
C25	C	0.156783	0.030062	0.000096
C26	C	0.216185	0.029345	0.000097
C27	C	0.238808	-0.022934	0.000084
C28	C	0.298194	-0.023643	0.000067
N29	N	0.320820	-0.075920	0.000061
C30	C	0.284048	-0.127484	0.000054
C31	C	-0.064135	-0.019302	0.000082
C32	C	-0.123533	-0.018589	0.000077
C33	C	-0.137680	-0.122434	0.000063
C34	C	-0.078281	-0.123146	0.000064
C35	C	-0.041509	-0.071578	0.000076
C36	C	0.408784	-0.128974	0.000043
C37	C	0.468186	-0.129680	0.000035
C38	C	0.482329	-0.025836	0.000052
C39	C	0.422932	-0.025129	0.000057
C40	C	0.386160	-0.076702	0.000054
O41	O	0.334974	0.020119	0.000054
O42	O	0.308755	-0.172007	0.000055
C43	C	0.677071	0.030013	0.000074
C44	C	0.676305	0.093230	0.000078
C45	C	0.776472	-0.069388	0.000071
C46	C	0.839689	-0.070154	0.000073
C47	C	0.667577	-0.178283	0.000046
C48	C	0.668343	-0.241500	0.000037
N49	N	0.672305	-0.074153	0.143865
C50	C	0.723539	0.492333	0.000050
C51	C	0.722827	0.551733	0.000046
O52	O	0.766613	0.588478	0.000028
N53	N	0.670551	0.574359	0.000040
C54	C	0.618983	0.537582	0.000033
O55	O	0.574452	0.562281	0.000027
C56	C	0.619695	0.478182	0.000033
C57	C	0.671974	0.455560	0.000045
C58	C	0.775814	0.469710	0.000061
C59	C	0.776525	0.410313	0.000067
C60	C	0.724961	0.373540	0.000062
C61	C	0.672685	0.396164	0.000051
C62	C	0.568127	0.441406	0.000022
C63	C	0.568844	0.382004	0.000022
C64	C	0.621123	0.359381	0.000034
C65	C	0.621832	0.299995	0.000052
N66	N	0.674109	0.277368	0.000057
C67	C	0.725673	0.314141	0.000062
C68	C	0.617491	0.662324	0.000031
C69	C	0.616778	0.721722	0.000035
C70	C	0.720623	0.735869	0.000047
C71	C	0.721335	0.676470	0.000047
C72	C	0.669767	0.639698	0.000037
C73	C	0.727163	0.189405	0.000075
C74	C	0.727869	0.130003	0.000083
C75	C	0.624025	0.115860	0.000069
C76	C	0.623318	0.175257	0.000064
C77	C	0.674891	0.212029	0.000065
O78	O	0.578070	0.263215	0.000067
O79	O	0.770196	0.289433	0.000060
N80	N	0.672347	-0.074112	-0.143744
C81	C	0.711273	-0.035196	0.563653
C82	C	0.711275	-0.035192	0.627261
O83	O	0.744384	-0.002076	0.660160
N84	N	0.672333	-0.074115	0.659072
C85	C	0.633382	-0.113041	0.627272
O86	O	0.600259	-0.146148	0.660170
C87	C	0.633377	-0.113042	0.563665
C88	C	0.672326	-0.074120	0.531858
C89	C	0.750217	0.003723	0.531846
C90	C	0.750215	0.003719	0.468243
C91	C	0.711268	-0.035205	0.436447
C92	C	0.672324	-0.074125	0.468255
C93	C	0.594424	-0.151965	0.531866
C94	C	0.594422	-0.151962	0.468256
C95	C	0.633370	-0.113040	0.436448
C96	C	0.633374	-0.113054	0.372856
N97	N	0.672317	-0.074130	0.341045
C98	C	0.711263	-0.035206	0.372841
C99	C	0.633395	-0.113036	0.760850
C100	C	0.633402	-0.113039	0.824455
C101	C	0.711294	-0.035188	0.824440
C102	C	0.711290	-0.035189	0.760833
C103	C	0.672337	-0.074113	0.729039
C104	C	0.711256	-0.035220	0.239269
C105	C	0.711252	-0.035229	0.175660
C106	C	0.633358	-0.113077	0.175681
C107	C	0.633364	-0.113070	0.239284
C108	C	0.672315	-0.074136	0.271077
O109	O	0.600282	-0.146151	0.339916
O110	O	0.744376	-0.002100	0.339935
H111	H	0.098544	-0.219617	0.000048
C112	C	0.792305	0.046086	0.433605
C113	C	0.783907	0.037829	0.371093
C114	C	0.822599	0.076922	0.339171
H115	H	0.786194	0.084016	0.444063
H116	H	0.830362	0.040268	0.443890
H117	H	0.745859	0.043652	0.360812
H118	H	0.790022	-0.000092	0.360617
H119	H	0.860656	0.071103	0.349456
H120	H	0.816485	0.114849	0.349633
H121	H	0.816910	0.071321	0.296753
H122	H	-0.034198	0.022693	0.000086
C123	C	0.590982	-0.155308	0.141231
C124	C	0.535075	-0.146360	0.156719
C125	C	0.496020	-0.185254	0.125001
H126	H	0.596479	-0.149774	0.098786
H127	H	0.596910	-0.193301	0.151666
H128	H	0.529149	-0.108376	0.146280
H129	H	0.529559	-0.151899	0.199159
H130	H	0.501948	-0.223247	0.135436
H131	H	0.501523	-0.179717	0.082557
H132	H	0.458083	-0.179192	0.135509
H133	H	0.486602	-0.172255	0.000025
H134	H	0.206289	-0.220908	0.000036
C135	C	0.568024	0.075957	0.000184
C136	C	0.536515	0.086122	0.052171
C137	C	0.484928	0.049368	0.052295
H138	H	0.546516	0.082750	-0.035020
H139	H	0.575915	0.037334	0.000218
H140	H	0.528623	0.124736	0.052131
H141	H	0.558007	0.079325	0.087382
H142	H	0.492818	0.010744	0.052329
H143	H	0.463424	0.056164	0.017089
H144	H	0.463545	0.056255	0.087570
C145	C	0.792573	0.046012	0.566250
C146	C	0.826682	0.080081	0.524768
C147	C	0.865717	0.119037	0.556434
H148	H	0.772299	0.069677	0.591070
H149	H	0.816198	0.025659	0.591044
H150	H	0.803060	0.100432	0.499985
H151	H	0.846968	0.056432	0.499947
H152	H	0.889342	0.098685	0.581227
H153	H	0.845439	0.142698	0.581252
H154	H	0.888868	0.142154	0.528293
H155	H	0.743004	-0.003495	0.734939
C156	C	0.784692	0.105553	0.000062
C157	C	0.829695	0.150475	0.000047
C158	C	0.882046	0.127976	0.000017
H159	H	0.787207	0.082687	0.035293
H160	H	0.787165	0.082690	-0.035189
H161	H	0.827223	0.173328	0.035294
H162	H	0.827199	0.173345	-0.035182
H163	H	0.884519	0.105113	-0.035233
H164	H	0.884555	0.105110	0.035249
H165	H	0.912587	0.158452	0.000002
C166	C	0.833247	0.385680	-0.000025
C167	C	0.836693	0.351983	-0.052005
C168	C	0.888937	0.329281	-0.052110
H169	H	0.863898	0.416036	-0.000056
H170	H	0.835691	0.362771	0.035195
H171	H	0.834254	0.374891	-0.087216
H172	H	0.806054	0.321618	-0.051985
H173	H	0.891381	0.306372	-0.016890
H174	H	0.919584	0.359641	-0.052139
H175	H	0.891280	0.306411	-0.087375
C176	C	-0.053833	-0.179966	0.000086
C177	C	-0.098758	-0.224967	0.000093
C178	C	-0.076262	-0.277319	0.000123
H179	H	-0.030961	-0.182482	-0.035142
H180	H	-0.030977	-0.182440	0.035340
H181	H	-0.121604	-0.222494	-0.035157
H182	H	-0.121634	-0.222470	0.035318
H183	H	-0.053406	-0.279794	0.035377
H184	H	-0.053390	-0.279829	-0.035106
H185	H	-0.106739	-0.307859	0.000133
C186	C	0.512914	0.341985	-0.000017
C187	C	0.524720	0.285122	-0.000026
C188	C	0.473213	0.248243	-0.000069
H189	H	0.491415	0.348742	0.035207
H190	H	0.491468	0.348780	-0.035275
H191	H	0.546157	0.278331	0.035227
H192	H	0.546211	0.278348	-0.035248
H193	H	0.451767	0.255038	-0.035327
H194	H	0.451719	0.255005	0.035156
H195	H	0.481217	0.209658	-0.000081
H196	H	0.742971	-0.003534	0.149765
H197	H	0.743006	-0.003493	0.850339
H198	H	0.769159	0.219337	0.000073
H199	H	0.378851	-0.170970	0.000042
H200	H	0.762610	0.765821	0.000048
C201	C	0.831865	0.509534	0.000101
C202	C	0.877790	0.476996	0.000125
C203	C	0.929437	0.513658	0.000176
H204	H	0.833842	0.533016	-0.035126
H205	H	0.833773	0.532989	0.035355
H206	H	0.875883	0.453550	-0.035126
H207	H	0.875833	0.453515	0.035350
H208	H	0.931345	0.537113	0.035430
H209	H	0.931408	0.537138	-0.035052
H210	H	0.960603	0.491586	0.000198
C211	C	0.778054	0.651832	-0.000041
C212	C	0.781502	0.618137	-0.052023
C213	C	0.833742	0.595428	-0.052123
H214	H	0.808709	0.682186	-0.000068
H215	H	0.780493	0.628921	0.035178
H216	H	0.779069	0.641046	-0.087233
H217	H	0.750860	0.587774	-0.052007
H218	H	0.836180	0.572517	-0.016903
H219	H	0.864392	0.625785	-0.052148
H220	H	0.836085	0.572559	-0.087388
H221	H	0.574207	0.740136	0.000036
C222	C	0.511306	0.465846	-0.000025
C223	C	0.466308	0.420918	-0.000049
C224	C	0.413953	0.443409	-0.000102
H225	H	0.508773	0.488716	0.035201
H226	H	0.508844	0.488704	-0.035280
H227	H	0.468769	0.398070	0.035203
H228	H	0.468822	0.398045	-0.035273
H229	H	0.411491	0.466267	-0.035357
H230	H	0.411427	0.466278	0.035125
H231	H	0.383416	0.412929	-0.000124
C232	C	0.132343	0.086883	0.000147
C233	C	0.177271	0.131881	0.000174
C234	C	0.154780	0.184236	0.000232
H235	H	0.109475	0.089417	-0.035079
H236	H	0.109483	0.089344	0.035403
H237	H	0.200121	0.129421	-0.035078
H238	H	0.200142	0.129366	0.035397
H239	H	0.131920	0.186697	0.035488
H240	H	0.131913	0.186763	-0.034994
H241	H	0.185260	0.214773	0.000257
C242	C	0.561437	0.622496	0.000061
C243	C	0.515509	0.655031	0.000072
C244	C	0.463865	0.618365	0.000107
H245	H	0.559475	0.599016	-0.035167
H246	H	0.559518	0.599039	0.035314
H247	H	0.517427	0.678478	-0.035178
H248	H	0.517452	0.678510	0.035298
H249	H	0.461946	0.594908	0.035361
H250	H	0.461909	0.594886	-0.035122
H251	H	0.432697	0.640434	0.000120
H252	H	0.601692	-0.144738	0.850348
C253	C	0.591081	-0.155370	0.726442
C254	C	0.556993	-0.189464	0.767921
C255	C	0.518012	-0.228472	0.736251
H256	H	0.567431	-0.135076	0.701629
H257	H	0.611415	-0.179008	0.701641
H258	H	0.536660	-0.165829	0.792711
H259	H	0.580626	-0.209771	0.792735
H260	H	0.538347	-0.252110	0.711450
H261	H	0.494367	-0.208173	0.711439
H262	H	0.494882	-0.251613	0.764389
C263	C	0.256177	0.085292	0.000012
C264	C	0.290701	0.087922	-0.051971
C265	C	0.327552	0.139447	-0.052067
H266	H	0.234265	0.116574	-0.000012
H267	H	0.279676	0.087173	0.035231
H268	H	0.267205	0.086046	-0.087180
H269	H	0.312626	0.056652	-0.051958
H270	H	0.351051	0.141327	-0.016848
H271	H	0.305635	0.170724	-0.052090
H272	H	0.350985	0.141235	-0.087333
H273	H	0.562708	-0.183658	0.557755
H274	H	0.742973	-0.003516	0.265148
C275	C	0.552105	-0.194290	0.433847
C276	C	0.518010	-0.228381	0.475322
C277	C	0.479029	-0.267385	0.443648
H278	H	0.528460	-0.173992	0.409032
H279	H	0.572438	-0.217930	0.409047
H280	H	0.497678	-0.204745	0.500111
H281	H	0.541640	-0.248692	0.500138
H282	H	0.499362	-0.291025	0.418849
H283	H	0.455388	-0.247083	0.418835
H284	H	0.455895	-0.290524	0.471784
C285	C	0.591170	-0.155396	0.273851
C286	C	0.621301	-0.190115	0.310361
C287	C	0.582446	-0.229115	0.342199
H288	H	0.567564	-0.135094	0.298711
H289	H	0.567985	-0.178611	0.245819
H290	H	0.644476	-0.166903	0.338389
H291	H	0.644905	-0.210430	0.285516
H292	H	0.559262	-0.252329	0.314168
H293	H	0.558842	-0.208807	0.367056
H294	H	0.602885	-0.252680	0.366970
H295	H	-0.167632	-0.164421	0.000060
H296	H	-0.141947	0.023982	0.000078
H297	H	0.404512	0.017441	0.000058
H298	H	0.512280	0.016146	0.000056
H299	H	0.580748	0.193677	0.000071
