data_functionalizedCrystal
_audit_creation_method	'MofGen! by Chris Wilmer'
_symmetry_space_group_name_H-M	'P1'
_symmetry_Int_Tables_number	1
_symmetry_cell_setting	triclinic
loop_
_symmetry_equiv_pos_as_xyz
  x,y,z
_cell_length_a	19.288864
_cell_length_b	11.026607
_cell_length_c	17.766277
_cell_angle_alpha	89.996915
_cell_angle_beta	89.976791
_cell_angle_gamma	95.861131
loop_
_atom_site_label
_atom_site_type_symbol
_atom_site_fract_x
_atom_site_fract_y
_atom_site_fract_z
O1	O	0.940539	0.151279	-0.062839
O2	O	0.740867	0.171687	-0.062788
O3	O	0.824155	-0.015080	-0.062806
O4	O	0.857252	0.338046	-0.062820
O5	O	0.824135	-0.015089	0.062382
O6	O	0.740847	0.171677	0.062401
O7	O	0.940520	0.151270	0.062350
Cu8	Cu	0.840682	0.161473	0.073806
Cu9	Cu	0.840705	0.161484	-0.074244
O10	O	0.857232	0.338036	0.062368
C11	C	0.714897	0.171025	-0.000187
C12	C	0.637544	0.169054	-0.000167
C13	C	0.606746	0.278640	-0.000183
C14	C	0.534064	0.276788	-0.000191
C15	C	0.492182	0.165344	-0.000198
C16	C	0.522988	0.055744	-0.000178
C17	C	0.595669	0.057599	-0.000162
C18	C	0.372816	0.077740	-0.044079
C19	C	0.300137	0.075890	-0.044100
C20	C	0.268011	0.159618	-0.000244
C21	C	0.308573	0.245218	0.043623
C22	C	0.381254	0.247073	0.043639
C23	C	0.413372	0.163320	-0.000215
C24	C	0.158403	0.267204	-0.000268
C25	C	0.085720	0.265347	-0.000271
C26	C	0.074645	0.044300	-0.000266
C27	C	0.147327	0.046159	-0.000255
C28	C	0.189202	0.157615	-0.000259
C29	C	0.818039	-0.060262	-0.000211
C30	C	0.799837	-0.194876	-0.000209
C31	C	0.850095	-0.268957	-0.000223
C32	C	0.831284	-0.408088	-0.000221
C33	C	0.966489	0.151931	-0.000253
C34	C	1.043843	0.153902	-0.000277
C35	C	0.863348	0.383218	-0.000228
C36	C	0.881550	0.517833	-0.000235
N37	N	0.840670	0.161464	0.177936
N38	N	0.840721	0.161483	-0.178374
C39	C	0.877570	0.078804	0.217315
C40	C	0.877573	0.078799	0.296117
C41	C	0.840686	0.161474	0.335537
C42	C	0.803778	0.244140	0.296149
C43	C	0.803770	0.244135	0.217349
C44	C	0.845401	0.271967	0.460372
C45	C	0.845414	0.271973	0.539171
C46	C	0.840706	0.161488	0.578583
C47	C	0.836000	0.050992	0.539187
C48	C	0.835992	0.050987	0.460387
C49	C	0.840690	0.161488	0.420983
C50	C	0.877612	0.078816	0.703408
C51	C	0.877610	0.078808	0.782211
C52	C	0.803819	0.244160	0.782242
C53	C	0.803816	0.244157	0.703440
C54	C	0.840716	0.161486	0.664028
H55	H	0.508984	0.366029	-0.000202
N56	N	0.724390	-0.247278	-0.000192
H57	H	0.714599	-0.299103	-0.046598
H58	H	0.714634	-0.299059	0.046248
N59	N	0.628884	-0.060609	-0.000151
H60	H	0.658816	-0.064764	-0.046553
H61	H	0.658732	-0.064701	0.046292
H62	H	0.938508	-0.442594	-0.000306
N63	N	0.830926	-0.068186	0.581683
H64	H	0.831641	-0.051422	0.637581
H65	H	0.786019	-0.118520	0.567933
N66	N	0.203572	0.387411	-0.000258
H67	H	0.254289	0.371958	-0.000251
H68	H	0.193310	0.435355	-0.046669
H69	H	0.907050	-0.229377	-0.000233
N70	N	0.755835	-0.460494	-0.000209
H71	H	0.753091	-0.552456	-0.000211
H72	H	0.731968	-0.431990	0.046206
N73	N	0.425004	0.339384	0.090951
H74	H	0.393629	0.392148	0.118733
H75	H	0.452901	0.295519	0.128419
N76	N	0.917365	-0.010362	0.174807
H77	H	0.940741	-0.062729	0.211715
H78	H	0.884085	-0.063861	0.142134
H79	H	0.907623	0.011485	0.328185
H80	H	0.282418	0.313397	0.079335
N81	N	0.830914	-0.068179	0.417894
H82	H	0.827934	-0.138176	0.454813
H83	H	0.787855	-0.075071	0.385224
N84	N	0.052498	0.383549	-0.000229
H85	H	0.090057	0.454432	-0.000213
H86	H	0.022590	0.387652	-0.046625
N87	N	0.256391	-0.016427	-0.091412
H88	H	0.287769	-0.069198	-0.119184
H89	H	0.223610	-0.069189	-0.057771
H90	H	0.172402	-0.043078	-0.000246
H91	H	0.398967	0.009556	-0.079797
H92	H	0.907656	0.011496	0.671317
N93	N	0.651908	0.398850	-0.000171
H94	H	0.702626	0.383400	-0.000156
H95	H	0.641651	0.446794	-0.046583
H96	H	0.773720	0.311447	0.185286
H97	H	0.907655	0.011490	0.814274
N98	N	0.029483	-0.075904	-0.000265
H99	H	-0.021234	-0.060452	-0.000275
H100	H	0.039793	-0.123841	-0.046669
N101	N	0.477821	-0.064458	-0.000177
H102	H	0.427104	-0.049006	-0.000190
H103	H	0.488132	-0.112400	-0.046579
N104	N	0.764028	0.333326	0.824749
H105	H	0.713014	0.319566	0.811061
H106	H	0.769685	0.320735	0.880630
N107	N	0.764016	0.333311	0.660961
H108	H	0.740646	0.385685	0.697888
H109	H	0.797287	0.386805	0.628243
H110	H	0.849250	0.361946	0.571241
H111	H	0.849223	0.361943	0.428289
N112	N	0.763987	0.333306	0.338661
H113	H	0.769592	0.320768	0.394556
H114	H	0.782755	0.419300	0.324871
