data_functionalizedCrystal
_audit_creation_method	'MofGen! by Chris Wilmer'
_symmetry_space_group_name_H-M	'P1'
_symmetry_Int_Tables_number	1
_symmetry_cell_setting	triclinic
loop_
_symmetry_equiv_pos_as_xyz
  x,y,z
_cell_length_a	23.532407
_cell_length_b	23.532407
_cell_length_c	22.610064
_cell_angle_alpha	89.999397
_cell_angle_beta	89.997161
_cell_angle_gamma	82.848678
loop_
_atom_site_label
_atom_site_type_symbol
_atom_site_fract_x
_atom_site_fract_y
_atom_site_fract_z
O1	O	0.755263	0.069127	-0.049117
O2	O	1.005263	0.319127	0.200883
O3	O	1.255263	0.569127	0.450883
O4	O	1.505263	0.819127	0.700883
O5	O	0.589400	0.079130	-0.049135
O6	O	0.839400	0.329130	0.200865
O7	O	1.089400	0.579130	0.450865
O8	O	1.339400	0.829130	0.700865
O9	O	0.677333	-0.008803	-0.049114
O10	O	0.927333	0.241197	0.200886
O11	O	1.177333	0.491197	0.450886
O12	O	1.427333	0.741197	0.700886
O13	O	0.667330	0.157060	-0.049137
O14	O	0.917330	0.407060	0.200863
O15	O	1.167330	0.657060	0.450863
O16	O	1.417330	0.907060	0.700863
O17	O	0.677318	-0.008790	0.049255
O18	O	0.927318	0.241210	0.299255
O19	O	1.177318	0.491210	0.549255
O20	O	1.427318	0.741210	0.799255
O21	O	0.589385	0.079143	0.049234
O22	O	0.839385	0.329143	0.299234
O23	O	1.089385	0.579143	0.549234
O24	O	1.339385	0.829143	0.799234
O25	O	0.755248	0.069140	0.049252
O26	O	1.005248	0.319140	0.299252
O27	O	1.255248	0.569140	0.549252
O28	O	1.505248	0.819140	0.799252
Zn29	Zn	0.672314	0.074144	0.064862
Zn30	Zn	0.922314	0.324144	0.314862
Zn31	Zn	1.172314	0.574144	0.564862
Zn32	Zn	1.422314	0.824144	0.814862
Zn33	Zn	0.672334	0.074127	-0.064744
Zn34	Zn	0.922334	0.324127	0.185256
Zn35	Zn	1.172334	0.574127	0.435256
Zn36	Zn	1.422334	0.824127	0.685256
O37	O	0.667315	0.157073	0.049232
O38	O	0.917315	0.407073	0.299232
O39	O	1.167315	0.657073	0.549232
O40	O	1.417315	0.907073	0.799232
C41	C	0.568176	0.078882	0.000048
C42	C	0.818176	0.328882	0.250048
C43	C	1.068176	0.578882	0.500048
C44	C	1.318176	0.828882	0.750048
C45	C	0.504959	0.078116	0.000041
C46	C	0.754959	0.328116	0.250041
C47	C	1.004959	0.578116	0.500041
C48	C	1.254959	0.828116	0.750041
C49	C	0.105856	0.125350	0.000061
C50	C	0.355856	0.375350	0.250061
C51	C	0.605856	0.625350	0.500061
C52	C	0.855856	0.875350	0.750061
C53	C	0.046456	0.124638	0.000065
C54	C	0.296456	0.374638	0.250065
C55	C	0.546456	0.624638	0.500065
C56	C	0.796456	0.874638	0.750065
O57	O	0.009711	0.168424	0.000081
O58	O	0.259711	0.418424	0.250081
O59	O	0.509711	0.668424	0.500081
O60	O	0.759711	0.918424	0.750081
N61	N	0.023830	0.072362	0.000071
N62	N	0.273830	0.322362	0.250071
N63	N	0.523830	0.572362	0.500071
N64	N	0.773830	0.822362	0.750071
C65	C	0.060607	0.020794	0.000080
C66	C	0.310607	0.270794	0.250080
C67	C	0.560607	0.520794	0.500080
C68	C	0.810607	0.770794	0.750080
O69	O	0.035908	-0.023737	0.000086
O70	O	0.285908	0.226263	0.250086
O71	O	0.535908	0.476263	0.500086
O72	O	0.785908	0.726263	0.750086
C73	C	0.120006	0.021506	0.000080
C74	C	0.370006	0.271506	0.250080
C75	C	0.620006	0.521506	0.500080
C76	C	0.870006	0.771506	0.750080
C77	C	0.142629	0.073785	0.000068
C78	C	0.392629	0.323785	0.250068
C79	C	0.642629	0.573785	0.500068
C80	C	0.892629	0.823785	0.750068
C81	C	0.128479	0.177625	0.000050
C82	C	0.378479	0.427625	0.250050
C83	C	0.628479	0.677625	0.500050
C84	C	0.878479	0.927625	0.750050
C85	C	0.187876	0.178336	0.000045
C86	C	0.437876	0.428336	0.250045
C87	C	0.687876	0.678336	0.500045
C88	C	0.937876	0.928336	0.750045
C89	C	0.224649	0.126772	0.000052
C90	C	0.474649	0.376772	0.250052
C91	C	0.724649	0.626772	0.500052
C92	C	0.974649	0.876772	0.750052
C93	C	0.202025	0.074497	0.000063
C94	C	0.452025	0.324497	0.250063
C95	C	0.702025	0.574497	0.500063
C96	C	0.952025	0.824497	0.750063
C97	C	0.156783	-0.030062	0.000093
C98	C	0.406783	0.219938	0.250093
C99	C	0.656783	0.469938	0.500093
C100	C	0.906783	0.719938	0.750093
C101	C	0.216185	-0.029345	0.000094
C102	C	0.466185	0.220655	0.250094
C103	C	0.716185	0.470655	0.500094
C104	C	0.966185	0.720655	0.750094
C105	C	0.238808	0.022934	0.000082
C106	C	0.488808	0.272934	0.250082
C107	C	0.738808	0.522934	0.500082
C108	C	0.988808	0.772934	0.750082
C109	C	0.298194	0.023643	0.000065
C110	C	0.548194	0.273643	0.250065
C111	C	0.798194	0.523643	0.500065
C112	C	1.048194	0.773643	0.750065
N113	N	0.320820	0.075920	0.000059
N114	N	0.570820	0.325920	0.250059
N115	N	0.820820	0.575920	0.500059
N116	N	1.070820	0.825920	0.750059
C117	C	0.284048	0.127484	0.000052
C118	C	0.534048	0.377484	0.250052
C119	C	0.784048	0.627484	0.500052
C120	C	1.034048	0.877484	0.750052
C121	C	-0.064135	0.019302	0.000080
C122	C	0.185865	0.269302	0.250080
C123	C	0.435865	0.519302	0.500080
C124	C	0.685865	0.769302	0.750080
C125	C	-0.123533	0.018589	0.000075
C126	C	0.126467	0.268589	0.250075
C127	C	0.376467	0.518589	0.500075
C128	C	0.626467	0.768589	0.750075
C129	C	-0.137680	0.122434	0.000061
C130	C	0.112320	0.372434	0.250061
C131	C	0.362320	0.622434	0.500061
C132	C	0.612320	0.872434	0.750061
C133	C	-0.078281	0.123146	0.000062
C134	C	0.171719	0.373146	0.250062
C135	C	0.421719	0.623146	0.500062
C136	C	0.671719	0.873146	0.750062
C137	C	-0.041509	0.071578	0.000074
C138	C	0.208491	0.321578	0.250074
C139	C	0.458491	0.571578	0.500074
C140	C	0.708491	0.821578	0.750074
C141	C	0.408784	0.128974	0.000042
C142	C	0.658784	0.378974	0.250042
C143	C	0.908784	0.628974	0.500042
C144	C	1.158784	0.878974	0.750042
C145	C	0.468186	0.129680	0.000034
C146	C	0.718186	0.379680	0.250034
C147	C	0.968186	0.629680	0.500034
C148	C	1.218186	0.879680	0.750034
C149	C	0.482329	0.025836	0.000051
C150	C	0.732329	0.275836	0.250051
C151	C	0.982329	0.525836	0.500051
C152	C	1.232329	0.775836	0.750051
C153	C	0.422932	0.025129	0.000055
C154	C	0.672932	0.275129	0.250055
C155	C	0.922932	0.525129	0.500055
C156	C	1.172932	0.775129	0.750055
C157	C	0.386160	0.076702	0.000052
C158	C	0.636160	0.326702	0.250052
C159	C	0.886160	0.576702	0.500052
C160	C	1.136160	0.826702	0.750052
O161	O	0.334974	-0.020119	0.000052
O162	O	0.584974	0.229881	0.250052
O163	O	0.834974	0.479881	0.500052
O164	O	1.084974	0.729881	0.750052
O165	O	0.308755	0.172007	0.000054
O166	O	0.558755	0.422007	0.250054
O167	O	0.808755	0.672007	0.500054
O168	O	1.058755	0.922007	0.750054
C169	C	0.677071	-0.030013	0.000072
C170	C	0.927071	0.219987	0.250072
C171	C	1.177071	0.469987	0.500072
C172	C	1.427071	0.719987	0.750072
C173	C	0.676305	-0.093230	0.000076
C174	C	0.926305	0.156770	0.250076
C175	C	1.176305	0.406770	0.500076
C176	C	1.426305	0.656770	0.750076
C177	C	0.723539	-0.492333	0.000049
C178	C	0.973539	-0.242333	0.250049
C179	C	1.223539	0.007667	0.500049
C180	C	1.473539	0.257667	0.750049
C181	C	0.722827	-0.551733	0.000044
C182	C	0.972827	-0.301733	0.250044
C183	C	1.222827	-0.051733	0.500044
C184	C	1.472827	0.198267	0.750044
O185	O	0.766613	-0.588478	0.000027
O186	O	1.016613	-0.338478	0.250027
O187	O	1.266613	-0.088478	0.500027
O188	O	1.516613	0.161522	0.750027
N189	N	0.670551	-0.574359	0.000039
N190	N	0.920551	-0.324359	0.250039
N191	N	1.170551	-0.074359	0.500039
N192	N	1.420551	0.175641	0.750039
C193	C	0.618983	-0.537582	0.000032
C194	C	0.868983	-0.287582	0.250032
C195	C	1.118983	-0.037582	0.500032
C196	C	1.368983	0.212418	0.750032
O197	O	0.574452	-0.562281	0.000027
O198	O	0.824452	-0.312281	0.250027
O199	O	1.074452	-0.062281	0.500027
O200	O	1.324452	0.187719	0.750027
C201	C	0.619695	-0.478182	0.000033
C202	C	0.869695	-0.228182	0.250033
C203	C	1.119695	0.021818	0.500033
C204	C	1.369695	0.271818	0.750033
C205	C	0.671974	-0.455560	0.000044
C206	C	0.921974	-0.205560	0.250044
C207	C	1.171974	0.044440	0.500044
C208	C	1.421974	0.294440	0.750044
C209	C	0.775814	-0.469710	0.000060
C210	C	1.025814	-0.219710	0.250060
C211	C	1.275814	0.030290	0.500060
C212	C	1.525814	0.280290	0.750060
C213	C	0.776525	-0.410313	0.000065
C214	C	1.026525	-0.160313	0.250065
C215	C	1.276525	0.089687	0.500065
C216	C	1.526525	0.339687	0.750065
C217	C	0.724961	-0.373540	0.000060
C218	C	0.974961	-0.123540	0.250060
C219	C	1.224961	0.126460	0.500060
C220	C	1.474961	0.376460	0.750060
C221	C	0.672685	-0.396164	0.000050
C222	C	0.922685	-0.146164	0.250050
C223	C	1.172685	0.103836	0.500050
C224	C	1.422685	0.353836	0.750050
C225	C	0.568127	-0.441406	0.000022
C226	C	0.818127	-0.191406	0.250022
C227	C	1.068127	0.058594	0.500022
C228	C	1.318127	0.308594	0.750022
C229	C	0.568844	-0.382004	0.000021
C230	C	0.818844	-0.132004	0.250021
C231	C	1.068844	0.117996	0.500021
C232	C	1.318844	0.367996	0.750021
C233	C	0.621123	-0.359381	0.000033
C234	C	0.871123	-0.109381	0.250033
C235	C	1.121123	0.140619	0.500033
C236	C	1.371123	0.390619	0.750033
C237	C	0.621832	-0.299995	0.000050
C238	C	0.871832	-0.049995	0.250050
C239	C	1.121832	0.200005	0.500050
C240	C	1.371832	0.450005	0.750050
N241	N	0.674109	-0.277368	0.000056
N242	N	0.924109	-0.027368	0.250056
N243	N	1.174109	0.222632	0.500056
N244	N	1.424109	0.472632	0.750056
C245	C	0.725673	-0.314141	0.000061
C246	C	0.975673	-0.064141	0.250061
C247	C	1.225673	0.185859	0.500061
C248	C	1.475673	0.435859	0.750061
C249	C	0.617491	-0.662324	0.000031
C250	C	0.867491	-0.412324	0.250031
C251	C	1.117491	-0.162324	0.500031
C252	C	1.367491	0.087676	0.750031
C253	C	0.616778	-0.721722	0.000034
C254	C	0.866778	-0.471722	0.250034
C255	C	1.116778	-0.221722	0.500034
C256	C	1.366778	0.028278	0.750034
C257	C	0.720623	-0.735869	0.000045
C258	C	0.970623	-0.485869	0.250045
C259	C	1.220623	-0.235869	0.500045
C260	C	1.470623	0.014131	0.750045
C261	C	0.721335	-0.676470	0.000046
C262	C	0.971335	-0.426470	0.250046
C263	C	1.221335	-0.176470	0.500046
C264	C	1.471335	0.073530	0.750046
C265	C	0.669767	-0.639698	0.000036
C266	C	0.919767	-0.389698	0.250036
C267	C	1.169767	-0.139698	0.500036
C268	C	1.419767	0.110302	0.750036
C269	C	0.727163	-0.189405	0.000073
C270	C	0.977163	0.060595	0.250073
C271	C	1.227163	0.310595	0.500073
C272	C	1.477163	0.560595	0.750073
C273	C	0.727869	-0.130003	0.000081
C274	C	0.977869	0.119997	0.250081
C275	C	1.227869	0.369997	0.500081
C276	C	1.477869	0.619997	0.750081
C277	C	0.624025	-0.115860	0.000067
C278	C	0.874025	0.134140	0.250067
C279	C	1.124025	0.384140	0.500067
C280	C	1.374025	0.634140	0.750067
C281	C	0.623318	-0.175257	0.000062
C282	C	0.873318	0.074743	0.250062
C283	C	1.123318	0.324743	0.500062
C284	C	1.373318	0.574743	0.750062
C285	C	0.674891	-0.212029	0.000063
C286	C	0.924891	0.037971	0.250063
C287	C	1.174891	0.287971	0.500063
C288	C	1.424891	0.537971	0.750063
O289	O	0.578070	-0.263215	0.000065
O290	O	0.828070	-0.013215	0.250065
O291	O	1.078070	0.236785	0.500065
O292	O	1.328070	0.486785	0.750065
O293	O	0.770196	-0.289433	0.000058
O294	O	1.020196	-0.039433	0.250058
O295	O	1.270196	0.210567	0.500058
O296	O	1.520196	0.460567	0.750058
C297	C	0.776472	0.069388	0.000069
C298	C	1.026472	0.319388	0.250069
C299	C	1.276472	0.569388	0.500069
C300	C	1.526472	0.819388	0.750069
C301	C	0.839689	0.070154	0.000071
C302	C	1.089689	0.320154	0.250071
C303	C	1.339689	0.570154	0.500071
C304	C	1.589689	0.820154	0.750071
C305	C	0.667577	0.178283	0.000045
C306	C	0.917577	0.428283	0.250045
C307	C	1.167577	0.678283	0.500045
C308	C	1.417577	0.928283	0.750045
C309	C	0.668343	0.241500	0.000036
C310	C	0.918343	0.491500	0.250036
C311	C	1.168343	0.741500	0.500036
C312	C	1.418343	0.991500	0.750036
N313	N	0.672304	0.074155	0.153314
N314	N	0.922304	0.324155	0.403314
N315	N	1.172304	0.574155	0.653314
N316	N	1.422304	0.824155	0.903314
N317	N	0.672349	0.074111	-0.153196
N318	N	0.922349	0.324111	0.096804
N319	N	1.172349	0.574111	0.346804
N320	N	1.422349	0.824111	0.596804
C321	C	0.711273	0.035196	0.561965
C322	C	0.961273	0.285196	0.811965
C323	C	1.211273	0.535196	1.061965
C324	C	1.461273	0.785196	1.311965
C325	C	0.711276	0.035192	0.623884
C326	C	0.961276	0.285192	0.873884
C327	C	1.211276	0.535192	1.123884
C328	C	1.461276	0.785192	1.373884
O329	O	0.744384	0.002076	0.655911
O330	O	0.994384	0.252076	0.905911
O331	O	1.244384	0.502076	1.155911
O332	O	1.494384	0.752076	1.405911
N333	N	0.672334	0.074115	0.654851
N334	N	0.922334	0.324115	0.904851
N335	N	1.172334	0.574115	1.154851
N336	N	1.422334	0.824115	1.404851
C337	C	0.633383	0.113041	0.623895
C338	C	0.883383	0.363041	0.873895
C339	C	1.133383	0.613041	1.123895
C340	C	1.383383	0.863041	1.373895
O341	O	0.600259	0.146147	0.655920
O342	O	0.850259	0.396147	0.905920
O343	O	1.100259	0.646147	1.155920
O344	O	1.350259	0.896147	1.405920
C345	C	0.633377	0.113042	0.561976
C346	C	0.883377	0.363042	0.811976
C347	C	1.133377	0.613042	1.061976
C348	C	1.383377	0.863042	1.311976
C349	C	0.672326	0.074120	0.531013
C350	C	0.922326	0.324120	0.781013
C351	C	1.172326	0.574120	1.031013
C352	C	1.422326	0.824120	1.281013
C353	C	0.750218	-0.003724	0.531001
C354	C	1.000218	0.246276	0.781001
C355	C	1.250218	0.496276	1.031001
C356	C	1.500218	0.746276	1.281001
C357	C	0.750215	-0.003719	0.469085
C358	C	1.000215	0.246281	0.719085
C359	C	1.250215	0.496281	0.969085
C360	C	1.500215	0.746281	1.219085
C361	C	0.711268	0.035206	0.438133
C362	C	0.961268	0.285206	0.688133
C363	C	1.211268	0.535206	0.938133
C364	C	1.461268	0.785206	1.188133
C365	C	0.672323	0.074125	0.469097
C366	C	0.922323	0.324125	0.719097
C367	C	1.172323	0.574125	0.969097
C368	C	1.422323	0.824125	1.219097
C369	C	0.594424	0.151965	0.531021
C370	C	0.844424	0.401965	0.781021
C371	C	1.094424	0.651965	1.031021
C372	C	1.344424	0.901965	1.281021
C373	C	0.594422	0.151962	0.469098
C374	C	0.844422	0.401962	0.719098
C375	C	1.094422	0.651962	0.969098
C376	C	1.344422	0.901962	1.219098
C377	C	0.633370	0.113040	0.438134
C378	C	0.883370	0.363040	0.688134
C379	C	1.133370	0.613040	0.938134
C380	C	1.383370	0.863040	1.188134
C381	C	0.633374	0.113054	0.376229
C382	C	0.883374	0.363054	0.626229
C383	C	1.133374	0.613054	0.876229
C384	C	1.383374	0.863054	1.126229
N385	N	0.672316	0.074131	0.345262
N386	N	0.922316	0.324131	0.595262
N387	N	1.172316	0.574131	0.845262
N388	N	1.422316	0.824131	1.095262
C389	C	0.711263	0.035207	0.376214
C390	C	0.961263	0.285207	0.626214
C391	C	1.211263	0.535207	0.876214
C392	C	1.461263	0.785207	1.126214
C393	C	0.633396	0.113035	0.753928
C394	C	0.883396	0.363035	1.003928
C395	C	1.133396	0.613035	1.253928
C396	C	1.383396	0.863035	1.503928
C397	C	0.633403	0.113037	0.815846
C398	C	0.883403	0.363037	1.065846
C399	C	1.133403	0.613037	1.315846
C400	C	1.383403	0.863037	1.565846
C401	C	0.711296	0.035187	0.815831
C402	C	0.961296	0.285187	1.065831
C403	C	1.211296	0.535187	1.315831
C404	C	1.461296	0.785187	1.565831
C405	C	0.711291	0.035188	0.753913
C406	C	0.961291	0.285188	1.003913
C407	C	1.211291	0.535188	1.253913
C408	C	1.461291	0.785188	1.503913
C409	C	0.672338	0.074112	0.722962
C410	C	0.922338	0.324112	0.972962
C411	C	1.172338	0.574112	1.222962
C412	C	1.422338	0.824112	1.472962
C413	C	0.711255	0.035220	0.246187
C414	C	0.961255	0.285220	0.496187
C415	C	1.211255	0.535220	0.746187
C416	C	1.461255	0.785220	0.996187
C417	C	0.711251	0.035230	0.184266
C418	C	0.961251	0.285230	0.434266
C419	C	1.211251	0.535230	0.684266
C420	C	1.461251	0.785230	0.934266
C421	C	0.633357	0.113078	0.184286
C422	C	0.883357	0.363078	0.434286
C423	C	1.133357	0.613078	0.684286
C424	C	1.383357	0.863078	0.934286
C425	C	0.633363	0.113071	0.246202
C426	C	0.883363	0.363071	0.496202
C427	C	1.133363	0.613071	0.746202
C428	C	1.383363	0.863071	0.996202
C429	C	0.672314	0.074137	0.277151
C430	C	0.922314	0.324137	0.527151
C431	C	1.172314	0.574137	0.777151
C432	C	1.422314	0.824137	1.027151
O433	O	0.600281	0.146152	0.344163
O434	O	0.850281	0.396152	0.594163
O435	O	1.100281	0.646152	0.844163
O436	O	1.350281	0.896152	1.094163
O437	O	0.744376	0.002101	0.344182
O438	O	0.994376	0.252101	0.594182
O439	O	1.244376	0.502101	0.844182
O440	O	1.494376	0.752101	1.094182
H441	H	-0.167632	0.164421	0.000059
H442	H	0.082368	0.414421	0.250059
H443	H	0.332368	0.664421	0.500059
H444	H	0.582368	0.914421	0.750059
H445	H	0.575496	-0.632386	0.000028
H446	H	0.825496	-0.382386	0.250028
H447	H	1.075496	-0.132386	0.500028
H448	H	1.325496	0.117614	0.750028
Cl449	Cl	0.502400	-0.469831	0.000003
Cl450	Cl	0.752400	-0.219831	0.250003
Cl451	Cl	1.002400	0.030169	0.500003
Cl452	Cl	1.252400	0.280169	0.750003
Cl453	Cl	0.793597	-0.101567	0.000094
Cl454	Cl	1.043597	0.148433	0.250094
Cl455	Cl	1.293597	0.398433	0.500094
Cl456	Cl	1.543597	0.648433	0.750094
H457	H	0.763906	-0.658056	0.000054
H458	H	1.013906	-0.408056	0.250054
H459	H	1.263906	-0.158056	0.500054
H460	H	1.513906	0.091944	0.750054
H461	H	0.769159	-0.219337	0.000071
H462	H	1.019159	0.030663	0.250071
H463	H	1.269159	0.280663	0.500071
H464	H	1.519159	0.530663	0.750071
H465	H	0.582043	-0.085909	0.000065
H466	H	0.832043	0.164091	0.250065
H467	H	1.082043	0.414091	0.500065
H468	H	1.332043	0.664091	0.750065
H469	H	-0.034198	-0.022693	0.000084
H470	H	0.215802	0.227307	0.250084
H471	H	0.465802	0.477307	0.500084
H472	H	0.715802	0.727307	0.750084
H473	H	0.562700	0.183658	0.443901
H474	H	0.812700	0.433658	0.693901
H475	H	1.062700	0.683658	0.943901
H476	H	1.312700	0.933658	1.193901
H477	H	0.819097	-0.391900	0.000072
H478	H	1.069097	-0.141900	0.250072
H479	H	1.319097	0.108100	0.500072
H480	H	1.569097	0.358100	0.750072
H481	H	0.512280	-0.016146	0.000054
H482	H	0.762280	0.233854	0.250054
H483	H	1.012280	0.483854	0.500054
H484	H	1.262280	0.733854	0.750054
H485	H	0.601653	0.144770	0.271413
H486	H	0.851653	0.394770	0.521413
H487	H	1.101653	0.644770	0.771413
H488	H	1.351653	0.894770	1.021413
Cl489	Cl	0.785447	-0.782109	0.000047
Cl490	Cl	1.035447	-0.532109	0.250047
Cl491	Cl	1.285447	-0.282109	0.500047
Cl492	Cl	1.535447	-0.032109	0.750047
Cl493	Cl	0.760219	-0.013703	0.145344
Cl494	Cl	1.010219	0.236297	0.395344
Cl495	Cl	1.260219	0.486297	0.645344
Cl496	Cl	1.510219	0.736297	0.895344
Cl497	Cl	0.760225	-0.013725	0.285084
Cl498	Cl	1.010225	0.236275	0.535084
Cl499	Cl	1.260225	0.486275	0.785084
Cl500	Cl	1.510225	0.736275	1.035084
H501	H	0.601648	0.144772	0.159075
H502	H	0.851648	0.394772	0.409075
H503	H	1.101648	0.644772	0.659075
H504	H	1.351648	0.894772	0.909075
H505	H	0.486602	0.172255	0.000024
H506	H	0.736602	0.422255	0.250024
H507	H	0.986602	0.672255	0.500024
H508	H	1.236602	0.922255	0.750024
Cl509	Cl	0.557594	-0.203698	0.000059
Cl510	Cl	0.807594	0.046302	0.250059
Cl511	Cl	1.057594	0.296302	0.500059
Cl512	Cl	1.307594	0.546302	0.750059
Cl513	Cl	0.362567	0.193810	0.000037
Cl514	Cl	0.612567	0.443810	0.250037
Cl515	Cl	0.862567	0.693810	0.500037
Cl516	Cl	1.112567	0.943810	0.750037
H517	H	0.574207	-0.740136	0.000035
H518	H	0.824207	-0.490136	0.250035
H519	H	1.074207	-0.240136	0.500035
H520	H	1.324207	0.009864	0.750035
H521	H	0.098544	0.219617	0.000046
H522	H	0.348544	0.469617	0.250046
H523	H	0.598544	0.719617	0.500046
H524	H	0.848544	0.969617	0.750046
Cl525	Cl	0.799177	-0.052655	0.430166
Cl526	Cl	1.049177	0.197345	0.680166
Cl527	Cl	1.299177	0.447345	0.930166
Cl528	Cl	1.549177	0.697345	1.180166
H529	H	0.138375	-0.072634	0.000103
H530	H	0.388375	0.177366	0.250103
H531	H	0.638375	0.427366	0.500103
H532	H	0.888375	0.677366	0.750103
Cl533	Cl	0.262410	-0.094178	0.000110
Cl534	Cl	0.512410	0.155822	0.250110
Cl535	Cl	0.762410	0.405822	0.500110
Cl536	Cl	1.012410	0.655822	0.750110
H537	H	0.781933	-0.035423	0.556197
H538	H	1.031933	0.214577	0.806197
H539	H	1.281933	0.464577	1.056197
H540	H	1.531933	0.714577	1.306197
Cl541	Cl	0.504011	-0.335779	0.000008
Cl542	Cl	0.754011	-0.085779	0.250008
Cl543	Cl	1.004011	0.164221	0.500008
Cl544	Cl	1.254011	0.414221	0.750008
H545	H	0.817806	-0.499645	0.000061
H546	H	1.067806	-0.249645	0.250061
H547	H	1.317806	0.000355	0.500061
H548	H	1.567806	0.250355	0.750061
Cl549	Cl	0.216306	0.244063	0.000034
Cl550	Cl	0.466306	0.494063	0.250034
Cl551	Cl	0.716306	0.744063	0.500034
Cl552	Cl	0.966306	0.994063	0.750034
H553	H	-0.059867	0.165717	0.000055
H554	H	0.190133	0.415717	0.250055
H555	H	0.440133	0.665717	0.500055
H556	H	0.690133	0.915717	0.750055
Cl557	Cl	0.584445	0.161977	0.854765
Cl558	Cl	0.834445	0.411977	1.104765
Cl559	Cl	1.084445	0.661977	1.354765
Cl560	Cl	1.334445	0.911977	1.604765
Cl561	Cl	0.760255	-0.013745	0.714994
Cl562	Cl	1.010255	0.236255	0.964994
Cl563	Cl	1.260255	0.486255	1.214994
Cl564	Cl	1.510255	0.736255	1.464994
H565	H	0.743008	0.003492	0.841044
H566	H	0.993008	0.253492	1.091044
H567	H	1.243008	0.503492	1.341044
H568	H	1.493008	0.753492	1.591044
H569	H	0.562709	0.183658	0.556223
H570	H	0.812709	0.433658	0.806223
H571	H	1.062709	0.683658	1.056223
H572	H	1.312709	0.933658	1.306223
Cl573	Cl	-0.151965	-0.047136	0.000075
Cl574	Cl	0.098035	0.202864	0.250075
Cl575	Cl	0.348035	0.452864	0.500075
Cl576	Cl	0.598035	0.702864	0.750075
Cl577	Cl	0.394491	-0.040595	0.000073
Cl578	Cl	0.644491	0.209405	0.250073
Cl579	Cl	0.894491	0.459405	0.500073
Cl580	Cl	1.144491	0.709405	0.750073
H581	H	0.601677	0.144736	0.728731
H582	H	0.851677	0.394736	0.978731
H583	H	1.101677	0.644736	1.228731
H584	H	1.351677	0.894736	1.478731
