data_functionalizedCrystal
_audit_creation_method	'MofGen! by Chris Wilmer'
_symmetry_space_group_name_H-M	'P1'
_symmetry_Int_Tables_number	1
_symmetry_cell_setting	triclinic
loop_
_symmetry_equiv_pos_as_xyz
  x,y,z
_cell_length_a	14.853569
_cell_length_b	16.109301
_cell_length_c	14.586319
_cell_angle_alpha	90.005214
_cell_angle_beta	89.998466
_cell_angle_gamma	96.451477
loop_
_atom_site_label
_atom_site_type_symbol
_atom_site_fract_x
_atom_site_fract_y
_atom_site_fract_z
O1	O	1.196183	-0.108553	-0.076201
O2	O	1.529517	0.224781	0.257132
O3	O	1.862850	0.558114	0.590465
O4	O	0.933703	-0.121482	-0.076213
O5	O	1.267036	0.211851	0.257121
O6	O	1.600369	0.545185	0.590454
O7	O	1.072154	0.006004	-0.076197
O8	O	1.405487	0.339337	0.257136
O9	O	1.738820	0.672670	0.590469
O10	O	1.057732	-0.236038	-0.076217
O11	O	1.391066	0.097295	0.257117
O12	O	1.724399	0.430629	0.590450
O13	O	1.072144	0.006005	0.076283
O14	O	1.405477	0.339339	0.409617
O15	O	1.738811	0.672672	0.742950
O16	O	0.933693	-0.121480	0.076268
O17	O	1.267026	0.211853	0.409601
O18	O	1.600360	0.545187	0.742935
O19	O	1.196174	-0.108551	0.076279
O20	O	1.529507	0.224783	0.409613
O21	O	1.862840	0.558116	0.742946
Cu22	Cu	1.064933	-0.115015	0.090196
Cu23	Cu	1.398266	0.218318	0.423530
Cu24	Cu	1.731599	0.551651	0.756863
Cu25	Cu	1.064944	-0.115017	-0.090130
Cu26	Cu	1.398277	0.218316	0.243204
Cu27	Cu	1.731611	0.551649	0.576537
O28	O	1.057723	-0.236036	0.076264
O29	O	1.391056	0.097297	0.409597
O30	O	1.724390	0.430631	0.742931
C31	C	0.900110	-0.120895	0.000026
C32	C	1.233444	0.212438	0.333360
C33	C	1.566777	0.545772	0.666693
C34	C	0.800030	-0.119139	0.000022
C35	C	1.133363	0.214195	0.333356
C36	C	1.466696	0.547528	0.666689
C37	C	0.763779	-0.042586	0.000025
C38	C	1.097113	0.290748	0.333358
C39	C	1.430446	0.624081	0.666692
C40	C	0.742240	-0.194042	0.000023
C41	C	1.075573	0.139292	0.333357
C42	C	1.408906	0.472625	0.666690
C43	C	0.648208	-0.192394	0.000024
C44	C	0.981542	0.140939	0.333358
C45	C	1.314875	0.474272	0.666691
C46	C	0.611958	-0.115841	0.000027
C47	C	0.945292	0.217492	0.333361
C48	C	1.278625	0.550825	0.666694
C49	C	0.669740	-0.040936	0.000029
C50	C	1.003073	0.292398	0.333362
C51	C	1.336406	0.625731	0.666696
C52	C	0.590420	-0.267298	0.000032
C53	C	0.923753	0.066035	0.333365
C54	C	1.257087	0.399368	0.666699
C55	C	0.496382	-0.265654	0.000034
C56	C	0.829716	0.067679	0.333368
C57	C	1.163049	0.401013	0.666701
C58	C	0.460131	-0.189100	0.000031
C59	C	0.793464	0.144233	0.333364
C60	C	1.126797	0.477567	0.666697
C61	C	0.517918	-0.114191	0.000031
C62	C	0.851252	0.219142	0.333365
C63	C	1.184585	0.552475	0.666698
C64	C	0.481668	-0.037638	0.000034
C65	C	0.815002	0.295695	0.333367
C66	C	1.148335	0.629028	0.666701
C67	C	0.539454	0.037271	0.000028
C68	C	0.872788	0.370605	0.333362
C69	C	1.206121	0.703938	0.666695
C70	C	0.633488	0.035618	0.000025
C71	C	0.966821	0.368952	0.333359
C72	C	1.300155	0.702285	0.666692
C73	C	0.366097	-0.187447	0.000034
C74	C	0.699430	0.145886	0.333367
C75	C	1.032764	0.479220	0.666700
C76	C	0.387628	-0.035988	0.000038
C77	C	0.720962	0.297345	0.333371
C78	C	1.054295	0.630678	0.666705
C79	C	1.071565	0.036980	0.000043
C80	C	1.404898	0.370314	0.333377
C81	C	1.738231	0.703647	0.666710
C82	C	1.069813	0.129278	0.000045
C83	C	1.403147	0.462611	0.333378
C84	C	1.736480	0.795945	0.666711
C85	C	1.229766	-0.109138	0.000038
C86	C	1.563100	0.224196	0.333372
C87	C	1.896433	0.557529	0.666705
C88	C	1.329847	-0.110894	0.000036
C89	C	1.663180	0.222439	0.333370
C90	C	1.996514	0.555773	0.666703
C91	C	1.058312	-0.267013	0.000021
C92	C	1.391645	0.066321	0.333355
C93	C	1.724978	0.399654	0.666688
C94	C	1.060063	-0.359311	0.000014
C95	C	1.393397	-0.025977	0.333347
C96	C	1.726730	0.307356	0.666681
N97	N	1.064931	-0.115013	0.217028
N98	N	1.398265	0.218320	0.550362
N99	N	1.731598	0.551654	0.883695
C100	C	1.147895	0.351440	0.000034
C101	C	1.481228	0.684774	0.333367
C102	C	1.814562	1.018107	0.666700
C103	C	1.146243	0.438163	0.000026
C104	C	1.479576	0.771496	0.333359
C105	C	1.812909	1.104830	0.666693
C106	C	0.981975	0.418520	0.000022
C107	C	1.315309	0.751854	0.333356
C108	C	1.648642	1.085187	0.666689
C109	C	0.983629	0.331799	0.000023
C110	C	1.316962	0.665133	0.333357
C111	C	1.650295	0.998466	0.666690
C112	C	1.066591	0.298262	0.000034
C113	C	1.399925	0.631595	0.333367
C114	C	1.733258	0.964928	0.666700
C115	C	1.063285	0.471706	0.000025
C116	C	1.396619	0.805039	0.333358
C117	C	1.729952	1.138372	0.666692
C118	C	1.061493	0.565734	0.000017
C119	C	1.394826	0.899067	0.333350
C120	C	1.728159	1.232401	0.666683
C121	C	1.068384	0.204227	0.000040
C122	C	1.401718	0.537561	0.333373
C123	C	1.735051	0.870894	0.666707
N124	N	1.064953	-0.115013	-0.216962
N125	N	1.398286	0.218320	0.116372
N126	N	1.731619	0.551654	0.449705
C127	C	1.126258	-0.058581	0.452041
C128	C	1.459591	0.274752	0.785375
C129	C	1.792924	0.608085	1.118708
C130	C	1.126260	-0.058579	0.548023
C131	C	1.459593	0.274754	0.881356
C132	C	1.792927	0.608087	1.214689
C133	C	1.003620	-0.171447	0.548019
C134	C	1.336953	0.161886	0.881352
C135	C	1.670286	0.495219	1.214685
C136	C	1.003613	-0.171445	0.452039
C137	C	1.336947	0.161889	0.785372
C138	C	1.670280	0.495222	1.118706
C139	C	1.064937	-0.115013	0.404053
C140	C	1.398271	0.218321	0.737386
C141	C	1.731604	0.551654	1.070720
C142	C	1.064946	-0.115013	0.596014
C143	C	1.398280	0.218320	0.929347
C144	C	1.731613	0.551653	1.262680
C145	C	1.064949	-0.115012	0.700081
C146	C	1.398282	0.218322	1.033414
C147	C	1.731615	0.551655	1.366748
C148	C	1.064934	-0.115013	0.299979
C149	C	1.398268	0.218320	0.633313
C150	C	1.731601	0.551654	0.966646
H151	H	0.810833	0.018404	0.000017
H152	H	1.144166	0.351737	0.333350
H153	H	1.477499	0.685071	0.666683
H154	H	0.358122	0.026351	0.000035
H155	H	0.691455	0.359685	0.333369
H156	H	1.024788	0.693018	0.666702
H157	H	1.215449	0.324137	0.000040
H158	H	1.548782	0.657471	0.333373
H159	H	1.882115	0.990804	0.666707
H160	H	1.176191	-0.012627	0.587092
H161	H	1.509525	0.320706	0.920426
H162	H	1.842858	0.654040	1.253759
Cl163	Cl	0.926515	-0.242388	0.391705
Cl164	Cl	1.259848	0.090945	0.725038
Cl165	Cl	1.593182	0.424278	1.058371
Cl166	Cl	0.926534	-0.242390	0.608348
Cl167	Cl	1.259867	0.090943	0.941681
Cl168	Cl	1.593200	0.424276	1.275015
H169	H	0.917417	0.288499	0.000021
H170	H	1.250751	0.621832	0.333354
H171	H	1.584084	0.955165	0.666687
Cl172	Cl	0.493871	0.133506	0.000040
Cl173	Cl	0.827204	0.466839	0.333374
Cl174	Cl	1.160538	0.800172	0.666707
Cl175	Cl	1.203347	0.012365	0.391720
Cl176	Cl	1.536680	0.345698	0.725053
Cl177	Cl	1.870014	0.679031	1.058387
Cl178	Cl	0.787813	-0.290274	0.000021
Cl179	Cl	1.121146	0.043059	0.333354
Cl180	Cl	1.454480	0.376392	0.666688
H181	H	0.680545	0.096606	0.000022
H182	H	1.013878	0.429939	0.333356
H183	H	1.347212	0.763272	0.666689
H184	H	1.212448	0.481458	0.000024
H185	H	1.545782	0.814791	0.333357
H186	H	1.879115	1.148125	0.666691
H187	H	0.449340	-0.326650	0.000038
H188	H	0.782674	0.006683	0.333371
H189	H	1.116007	0.340017	0.666704
Cl190	Cl	0.635996	-0.363530	0.000025
Cl191	Cl	0.969329	-0.030197	0.333358
Cl192	Cl	1.302663	0.303137	0.666691
Cl193	Cl	0.877685	0.460688	0.000010
Cl194	Cl	1.211018	0.794022	0.333343
Cl195	Cl	1.544352	1.127355	0.666677
H196	H	0.319052	-0.248437	0.000046
H197	H	0.652386	0.084896	0.333380
H198	H	0.985719	0.418229	0.666713
