data_functionalizedCrystal
_audit_creation_method	'MofGen! by Chris Wilmer'
_symmetry_space_group_name_H-M	'P1'
_symmetry_Int_Tables_number	1
_symmetry_cell_setting	triclinic
loop_
_symmetry_equiv_pos_as_xyz
  x,y,z
_cell_length_a	8.497374
_cell_length_b	18.215405
_cell_length_c	18.215407
_cell_angle_alpha	89.974667
_cell_angle_beta	89.996297
_cell_angle_gamma	90.014029
loop_
_atom_site_label
_atom_site_type_symbol
_atom_site_fract_x
_atom_site_fract_y
_atom_site_fract_z
Zn1	Zn	0.891978	-0.293103	-1.124955
Zn2	Zn	0.628155	-0.416139	-1.124898
Zn3	Zn	0.628196	-0.293092	-1.001922
Zn4	Zn	0.891878	-0.416133	-1.001853
O5	O	0.760052	-0.354617	-1.063407
O6	O	0.857006	-0.309431	-1.227931
O7	O	0.407398	-0.399814	-1.108590
O8	O	0.663247	-0.190109	-1.018295
O9	O	0.663177	-0.399825	-1.227890
O10	O	0.857046	-0.190117	-1.108687
O11	O	0.407429	-0.309412	-1.018240
O12	O	0.663149	-0.309406	-0.898929
O13	O	1.112653	-0.399816	-1.018178
O14	O	0.856875	-0.399805	-0.898878
O15	O	1.112727	-0.309426	-1.108620
O16	O	0.663079	-0.519122	-1.108523
O17	O	0.856835	-0.519118	-1.018123
C18	C	0.759976	-0.545823	-1.063329
C19	C	0.759996	-0.627622	-1.063363
C20	C	0.760007	-0.354604	-0.872201
C21	C	0.760025	-0.354616	-0.790402
C22	C	0.659293	-0.815793	-1.110545
C23	C	0.659332	-0.892652	-1.110578
C24	C	0.860924	-0.892688	-1.016363
C25	C	0.860892	-0.815831	-1.016334
C26	C	0.760068	-0.777385	-1.063424
C27	C	0.760138	-0.931101	-1.063486
C28	C	0.760180	-1.014435	-1.063521
C29	C	0.760028	-0.694046	-1.063390
C30	C	1.171532	-0.354618	-1.063401
C31	C	1.350176	-0.354626	-1.063403
C32	C	0.760098	-0.354630	-1.255360
C33	C	0.760118	-0.354636	-1.337159
C34	C	0.760163	-0.162664	-1.063505
C35	C	0.760210	-0.080865	-1.063547
C36	C	0.860771	-0.401761	-0.602201
C37	C	0.860791	-0.401763	-0.525342
C38	C	0.659367	-0.307486	-0.525365
C39	C	0.659357	-0.307481	-0.602222
C40	C	0.760056	-0.354622	-0.640638
C41	C	0.760086	-0.354630	-0.486922
C42	C	0.760107	-0.354632	-0.403589
C43	C	0.760038	-0.354619	-0.723977
H44	H	0.577199	-0.784493	-1.148890
C45	C	0.969940	-0.452907	-0.644043
C46	C	0.948350	-0.442829	-0.719579
C47	C	1.048881	-0.489938	-0.758145
H48	H	1.076042	-0.442257	-0.631546
H49	H	0.946654	-0.502354	-0.631469
H50	H	0.971647	-0.393393	-0.732148
H51	H	0.842269	-0.453484	-0.732099
H52	H	1.025595	-0.539386	-0.745571
H53	H	1.154976	-0.479285	-0.745641
H54	H	1.034236	-0.483112	-0.809400
H55	H	0.577273	-0.923921	-1.148950
C56	C	0.970568	-0.774218	-0.965213
C57	C	1.126695	-0.792883	-0.981167
C58	C	1.227769	-0.754572	-0.934088
H59	H	0.956326	-0.722928	-0.971896
H60	H	0.947479	-0.786872	-0.915767
H61	H	1.149775	-0.780224	-1.030601
H62	H	1.140986	-0.844166	-0.974479
H63	H	1.204680	-0.767225	-0.884642
H64	H	1.213513	-0.703283	-0.940775
H65	H	1.333711	-0.767235	-0.944901
H66	H	0.942805	-0.440147	-0.494050
C67	C	0.970200	-0.934563	-0.965260
C68	C	0.948628	-1.010093	-0.975354
C69	C	1.049249	-1.048689	-0.928281
H70	H	1.076280	-0.922028	-0.975933
H71	H	0.946985	-0.922053	-0.915803
H72	H	0.971855	-1.022598	-1.024800
H73	H	0.842569	-1.022650	-0.964676
H74	H	1.026034	-1.036178	-0.878824
H75	H	1.155323	-1.036147	-0.938958
H76	H	1.034616	-1.099939	-0.935119
C77	C	0.550098	-0.256388	-0.483522
C78	C	0.571631	-0.266494	-0.407986
C79	C	0.470983	-0.219441	-0.369419
H80	H	0.573278	-0.206927	-0.496049
H81	H	0.444022	-0.267086	-0.496064
H82	H	0.677683	-0.255790	-0.395448
H83	H	0.548439	-0.315944	-0.395437
H84	H	0.364907	-0.230139	-0.381962
H85	H	0.494172	-0.169983	-0.381952
H86	H	0.485569	-0.226296	-0.318164
C87	C	0.549828	-0.256271	-0.643828
C88	C	0.461603	-0.215006	-0.593737
C89	C	0.360684	-0.167832	-0.632036
H90	H	0.610122	-0.224182	-0.673828
H91	H	0.480897	-0.284356	-0.673780
H92	H	0.530524	-0.186923	-0.563797
H93	H	0.401277	-0.247075	-0.563735
H94	H	0.291753	-0.195917	-0.661989
H95	H	0.420991	-0.135748	-0.662035
H96	H	0.300801	-0.139832	-0.598056
