data_functionalizedCrystal
_audit_creation_method	'MofGen! by Chris Wilmer'
_symmetry_space_group_name_H-M	'P1'
_symmetry_Int_Tables_number	1
_symmetry_cell_setting	triclinic
loop_
_symmetry_equiv_pos_as_xyz
  x,y,z
_cell_length_a	14.519709
_cell_length_b	10.268362
_cell_length_c	14.519709
_cell_angle_alpha	89.993769
_cell_angle_beta	96.319855
_cell_angle_gamma	89.998968
loop_
_atom_site_label
_atom_site_type_symbol
_atom_site_fract_x
_atom_site_fract_y
_atom_site_fract_z
O1	O	-1.223868	-0.108133	0.120892
O2	O	-0.973868	0.141867	0.370892
O3	O	-0.723868	0.391867	0.620892
O4	O	-0.473868	0.641867	0.870892
O5	O	-0.955391	-0.108174	0.135128
O6	O	-0.705391	0.141826	0.385128
O7	O	-0.455391	0.391826	0.635128
O8	O	-0.205391	0.641826	0.885128
O9	O	-1.096747	-0.108141	-0.006228
O10	O	-0.846747	0.141859	0.243772
O11	O	-0.596747	0.391859	0.493772
O12	O	-0.346747	0.641859	0.743772
O13	O	-1.082511	-0.108166	0.262249
O14	O	-0.832511	0.141834	0.512249
O15	O	-0.582511	0.391834	0.762249
O16	O	-0.332511	0.641834	1.012249
O17	O	-1.096735	0.108460	-0.006234
O18	O	-0.846735	0.358460	0.243766
O19	O	-0.596735	0.608460	0.493766
O20	O	-0.346735	0.858460	0.743766
O21	O	-0.955378	0.108427	0.135123
O22	O	-0.705378	0.358427	0.385123
O23	O	-0.455378	0.608427	0.635123
O24	O	-0.205378	0.858427	0.885123
O25	O	-1.223855	0.108467	0.120886
O26	O	-0.973855	0.358467	0.370886
O27	O	-0.723855	0.608467	0.620886
O28	O	-0.473855	0.858467	0.870886
Cu29	Cu	-1.089616	0.128224	0.128004
Cu30	Cu	-0.839616	0.378224	0.378004
Cu31	Cu	-0.589616	0.628224	0.628004
Cu32	Cu	-0.339616	0.878224	0.878004
Cu33	Cu	-1.089630	-0.127931	0.128011
Cu34	Cu	-0.839630	0.122069	0.378011
Cu35	Cu	-0.589630	0.372069	0.628011
Cu36	Cu	-0.339630	0.622069	0.878011
O37	O	-1.082498	0.108434	0.262243
O38	O	-0.832498	0.358434	0.512243
O39	O	-0.582498	0.608434	0.762243
O40	O	-0.332498	0.858434	1.012243
C41	C	-0.921025	0.000122	0.134462
C42	C	-0.671025	0.250122	0.384462
C43	C	-0.421025	0.500122	0.634462
C44	C	-0.171025	0.750122	0.884462
C45	C	-0.818643	0.000107	0.132474
C46	C	-0.568643	0.250107	0.382474
C47	C	-0.318643	0.500107	0.632474
C48	C	-0.068643	0.750107	0.882474
C49	C	-1.258221	0.000169	0.121553
C50	C	-1.008221	0.250169	0.371553
C51	C	-0.758221	0.500169	0.621553
C52	C	-0.508221	0.750169	0.871553
C53	C	-1.360602	0.000175	0.123541
C54	C	-1.110602	0.250175	0.373541
C55	C	-0.860602	0.500175	0.623541
C56	C	-0.610602	0.750175	0.873541
N57	N	-1.089612	0.308390	0.127998
N58	N	-0.839612	0.558390	0.377998
N59	N	-0.589612	0.808390	0.627998
N60	N	-0.339612	1.058390	0.877998
C61	C	-0.443748	0.000167	0.125154
C62	C	-0.193748	0.250167	0.375154
C63	C	0.056252	0.500167	0.625154
C64	C	0.306252	0.750167	0.875154
C65	C	-0.548056	0.000150	0.127187
C66	C	-0.298056	0.250150	0.377187
C67	C	-0.048056	0.500150	0.627187
C68	C	0.201944	0.750150	0.877187
C69	C	-0.631192	0.000135	0.128814
C70	C	-0.381192	0.250135	0.378814
C71	C	-0.131192	0.500135	0.628814
C72	C	0.118808	0.750135	0.878814
C73	C	-0.735507	0.000121	0.130847
C74	C	-0.485507	0.250121	0.380847
C75	C	-0.235507	0.500121	0.630847
C76	C	0.014493	0.750121	0.880847
C77	C	-1.096078	0.000160	-0.040591
C78	C	-0.846078	0.250160	0.209409
C79	C	-0.596078	0.500160	0.459409
C80	C	-0.346078	0.750160	0.709409
C81	C	-1.094090	0.000160	-0.142972
C82	C	-0.844090	0.250160	0.107028
C83	C	-0.594090	0.500160	0.357028
C84	C	-0.344090	0.750160	0.607028
N85	N	-1.089641	-0.308097	0.128009
N86	N	-0.839641	-0.058097	0.378009
N87	N	-0.589641	0.191903	0.628009
N88	N	-0.339641	0.441903	0.878009
C89	C	-1.089626	0.574061	0.128009
C90	C	-0.839626	0.824061	0.378009
C91	C	-0.589626	1.074061	0.628009
C92	C	-0.339626	1.324061	0.878009
C93	C	-1.089615	0.426223	0.128006
C94	C	-0.839615	0.676223	0.378006
C95	C	-0.589615	0.926223	0.628006
C96	C	-0.339615	1.176223	0.878006
C97	C	-1.086770	0.000125	-0.517868
C98	C	-0.836770	0.250125	-0.267868
C99	C	-0.586770	0.500125	-0.017868
C100	C	-0.336770	0.750125	0.232132
C101	C	-1.088803	0.000135	-0.413560
C102	C	-0.838803	0.250135	-0.163560
C103	C	-0.588803	0.500135	0.086440
C104	C	-0.338803	0.750135	0.336440
C105	C	-1.090430	0.000144	-0.330423
C106	C	-0.840430	0.250144	-0.080423
C107	C	-0.590430	0.500144	0.169577
C108	C	-0.340430	0.750144	0.419577
C109	C	-1.092463	0.000152	-0.226109
C110	C	-0.842463	0.250152	0.023891
C111	C	-0.592463	0.500152	0.273891
C112	C	-0.342463	0.750152	0.523891
C113	C	-1.083168	0.000131	0.296605
C114	C	-0.833168	0.250131	0.546605
C115	C	-0.583168	0.500131	0.796605
C116	C	-0.333168	0.750131	1.046605
C117	C	-1.085156	0.000122	0.398987
C118	C	-0.835156	0.250122	0.648987
C119	C	-0.585156	0.500122	0.898987
C120	C	-0.335156	0.750122	1.148987
