data_functionalizedCrystal
_audit_creation_method	'MofGen! by Chris Wilmer'
_symmetry_space_group_name_H-M	'P1'
_symmetry_Int_Tables_number	1
_symmetry_cell_setting	triclinic
loop_
_symmetry_equiv_pos_as_xyz
  x,y,z
_cell_length_a	14.044220
_cell_length_b	19.188930
_cell_length_c	12.503572
_cell_angle_alpha	93.506241
_cell_angle_beta	86.164750
_cell_angle_gamma	88.166830
loop_
_atom_site_label
_atom_site_type_symbol
_atom_site_fract_x
_atom_site_fract_y
_atom_site_fract_z
O1	O	1.262485	0.164589	-0.089229
O2	O	0.986542	0.158515	-0.089255
O3	O	1.132475	0.060411	-0.089220
O4	O	1.116552	0.262693	-0.089264
O5	O	1.121500	0.067803	0.089419
O6	O	0.975567	0.165907	0.089384
O7	O	1.251510	0.171980	0.089411
Cu8	Cu	1.112536	0.169618	0.105709
Cu9	Cu	1.125516	0.160877	-0.105553
O10	O	1.105577	0.270084	0.089376
C11	C	0.945752	0.159553	0.000061
C12	C	0.840559	0.151624	0.000052
C13	C	0.647956	0.137129	0.000077
C14	C	0.590090	0.193363	0.000069
C15	C	0.482920	0.185298	0.000083
C16	C	0.755137	0.145193	0.000063
C17	C	1.126472	0.038063	0.000102
C18	C	1.124923	-0.039541	0.000112
C19	C	1.210552	-0.078939	0.000125
C20	C	1.209099	-0.151857	0.000108
C21	C	1.122010	-0.185374	0.000098
C22	C	1.036370	-0.145968	0.000079
C23	C	1.037826	-0.073051	0.000086
N24	N	1.051706	-0.295160	0.060886
N25	N	1.050328	-0.364427	0.060882
C26	C	1.117616	-0.405067	0.000076
N27	N	1.186348	-0.373823	-0.060712
N28	N	1.187729	-0.304548	-0.060704
C29	C	1.120421	-0.264440	0.000091
C30	C	1.201676	-0.523532	0.000069
C31	C	1.200219	-0.596451	0.000045
C32	C	1.027487	-0.590560	0.000028
C33	C	1.028947	-0.517642	0.000041
C34	C	1.116043	-0.484132	0.000067
C35	C	1.292301	0.170943	0.000092
C36	C	1.397493	0.178872	0.000094
C37	C	1.111580	0.292433	0.000051
C38	C	1.113129	0.370037	0.000034
N39	N	1.103414	0.175766	0.254299
N40	N	1.134645	0.154724	-0.254143
C41	C	1.089995	0.184816	0.473411
C42	C	1.148061	0.145676	0.526752
C43	C	1.140595	0.150712	0.648673
C44	C	1.097461	0.179782	0.351478
H45	H	0.621038	0.247564	0.000052
H46	H	1.034680	0.222105	0.519305
H47	H	0.617011	0.082933	0.000094
O48	O	1.295193	-0.046431	-0.000049
C49	C	1.353070	-0.069874	-0.092548
H50	H	1.306111	-0.090861	-0.157222
H51	H	1.404784	-0.113174	-0.071625
C52	C	1.467546	0.017138	-0.055053
C53	C	1.409869	-0.008633	-0.134491
H54	H	1.502586	0.054912	-0.080924
H55	H	1.428555	0.032931	0.007267
H56	H	1.510632	-0.018952	-0.037625
H57	H	1.366777	0.027454	-0.151908
H58	H	1.448855	-0.024419	-0.196815
O59	O	1.292268	-0.190177	-0.000062
C60	C	1.302273	-0.236364	-0.092566
H61	H	1.257689	-0.215386	-0.157246
H62	H	1.276672	-0.289969	-0.071655
C63	C	1.462771	-0.268506	-0.055048
C64	C	1.408018	-0.242738	-0.134491
H65	H	1.527999	-0.272441	-0.080908
H66	H	1.456029	-0.237391	0.007276
H67	H	1.441425	-0.313174	-0.037629
H68	H	1.429356	-0.198066	-0.151899
H69	H	1.414766	-0.273845	-0.196820
O70	O	0.951840	-0.178608	-0.000071
C71	C	0.951507	-0.224415	-0.092606
H72	H	1.028168	-0.239167	-0.123441
H73	H	0.913431	-0.197535	-0.157396
C74	C	0.804865	-0.272716	-0.026639
C75	C	0.899022	-0.290840	-0.064506
H76	H	0.772487	-0.313689	-0.009309
H77	H	0.805087	-0.241853	0.035702
H78	H	0.773148	-0.250315	-0.080637
H79	H	0.930741	-0.313232	-0.010503
H80	H	0.898804	-0.321708	-0.126837
H81	H	0.956578	-0.617849	0.000015
O82	O	1.283476	-0.634655	-0.000087
C83	C	1.342053	-0.622453	-0.092604
H84	H	1.320449	-0.569945	-0.123445
H85	H	1.333250	-0.665754	-0.157400
C86	C	1.473649	-0.686052	-0.026597
C87	C	1.447120	-0.621558	-0.064471
H88	H	1.538460	-0.685503	-0.009246
H89	H	1.434184	-0.694275	0.035732
H90	H	1.466305	-0.722129	-0.080600
H91	H	1.454452	-0.585484	-0.010464
H92	H	1.486588	-0.613329	-0.126791
H93	H	0.959218	-0.485563	0.000036
O94	O	1.213846	0.101022	0.471996
C95	C	1.166929	0.052193	0.407130
H96	H	1.093811	0.074867	0.390305
H97	H	1.157764	0.002064	0.450592
C98	C	1.316636	0.008094	0.320958
C99	C	1.226834	0.035946	0.300285
H100	H	1.353589	-0.001931	0.255052
H101	H	1.348246	0.040989	0.364662
H102	H	1.308985	-0.033677	0.357178
H103	H	1.234486	0.077720	0.264078
H104	H	1.195227	0.003057	0.256573
H105	H	0.968095	-0.040973	0.000075
O106	O	1.286191	-0.490863	0.000129
C107	C	1.269117	-0.418056	0.000114
H108	H	1.193018	-0.404173	0.033931
H109	H	1.278887	-0.401036	-0.085584
C110	C	1.433535	-0.397325	0.028646
C111	C	1.340070	-0.380272	0.070190
H112	H	1.477304	-0.374017	0.071868
H113	H	1.445040	-0.446376	0.028653
H114	H	1.441663	-0.383141	-0.042768
H115	H	1.331941	-0.394465	0.141598
H116	H	1.328566	-0.331223	0.070197
