data_functionalizedCrystal
_audit_creation_method	'MofGen! by Chris Wilmer'
_symmetry_space_group_name_H-M	'P1'
_symmetry_Int_Tables_number	1
_symmetry_cell_setting	triclinic
loop_
_symmetry_equiv_pos_as_xyz
  x,y,z
_cell_length_a	18.050582
_cell_length_b	17.077404
_cell_length_c	17.077402
_cell_angle_alpha	90.023108
_cell_angle_beta	90.023347
_cell_angle_gamma	90.014815
loop_
_atom_site_label
_atom_site_type_symbol
_atom_site_fract_x
_atom_site_fract_y
_atom_site_fract_z
Zn1	Zn	-0.419906	-1.200018	0.312553
Zn2	Zn	0.080094	-0.700018	0.812553
Zn3	Zn	-0.295715	-1.199936	0.443813
Zn4	Zn	0.204285	-0.699936	0.943813
Zn5	Zn	-0.295731	-1.068761	0.312566
Zn6	Zn	0.204269	-0.568761	0.812566
Zn7	Zn	-0.419863	-1.068718	0.443782
Zn8	Zn	0.080137	-0.568718	0.943782
O9	O	-0.357804	-1.134358	0.378179
O10	O	0.142196	-0.634358	0.878179
O11	O	-0.403443	-1.309854	0.329973
O12	O	0.096557	-0.809854	0.829973
O13	O	-0.191792	-1.182519	0.426422
O14	O	0.308208	-0.682519	0.926422
O15	O	-0.312228	-1.086225	0.202717
O16	O	0.187772	-0.586225	0.702717
O17	O	-0.312200	-1.309794	0.426409
O18	O	0.187800	-0.809794	0.926409
O19	O	-0.403459	-1.182659	0.202708
O20	O	0.096541	-0.682659	0.702708
O21	O	-0.191804	-1.086145	0.329995
O22	O	0.308196	-0.586145	0.829995
O23	O	-0.312186	-0.958908	0.329964
O24	O	0.187814	-0.458908	0.829964
O25	O	-0.523794	-1.086152	0.426355
O26	O	-0.023794	-0.586152	0.926355
O27	O	-0.403386	-0.958877	0.426368
O28	O	0.096614	-0.458877	0.926368
O29	O	-0.523825	-1.182618	0.329942
O30	O	-0.023825	-0.682618	0.829942
O31	O	-0.312159	-1.182478	0.553656
O32	O	0.187841	-0.682478	1.053656
O33	O	-0.403370	-1.086072	0.553633
O34	O	0.096630	-0.586072	1.053633
C35	C	-0.357783	-0.930411	0.378164
C36	C	0.142217	-0.430411	0.878164
C37	C	-0.357792	-0.843161	0.378177
C38	C	0.142208	-0.343161	0.878177
C39	C	-0.357774	-1.134283	0.582126
C40	C	0.142226	-0.634283	1.082126
C41	C	-0.357786	-1.134322	0.669376
C42	C	0.142214	-0.634322	1.169376
C43	C	-0.551510	-1.134389	0.378144
C44	C	-0.051510	-0.634389	0.878144
C45	C	-0.634055	-1.134402	0.378129
C46	C	-0.134055	-0.634402	0.878129
C47	C	-0.833489	-1.081984	0.430487
C48	C	-0.333489	-0.581984	0.930487
C49	C	-0.882880	-1.153603	0.449674
C50	C	-0.382880	-0.653603	0.949674
C51	C	-0.785186	-1.134441	0.378069
C52	C	-0.285186	-0.634441	0.878069
C53	C	-0.882877	-1.062862	0.358860
C54	C	-0.382877	-0.562862	0.858860
C55	C	-0.931171	-1.134472	0.378013
C56	C	-0.431171	-0.634472	0.878013
C57	C	-0.833490	-1.206097	0.397294
C58	C	-0.333490	-0.706097	0.897294
C59	C	-0.833482	-1.115308	0.306446
C60	C	-0.333482	-0.615308	0.806446
C61	C	-0.882851	-1.186976	0.325607
C62	C	-0.382851	-0.686976	0.825607
C63	C	-0.701087	-1.134422	0.378104
C64	C	-0.201087	-0.634422	0.878104
C65	C	-1.015268	-1.134499	0.377978
C66	C	-0.515268	-0.634499	0.877978
C67	C	-0.164852	-1.134373	0.378157
C68	C	0.335148	-0.634373	0.878157
C69	C	-0.082306	-1.134512	0.377950
C70	C	0.417694	-0.634512	0.877950
C71	C	-0.357825	-1.339103	0.378193
C72	C	0.142175	-0.839103	0.878193
C73	C	-0.357834	-1.426352	0.378200
C74	C	0.142166	-0.926352	0.878200
C75	C	-0.405204	-0.802175	0.428450
C76	C	0.094796	-0.302175	0.928450
C77	C	-0.405216	-0.720194	0.428452
C78	C	0.094784	-0.220194	0.928452
C79	C	-0.357812	-0.679201	0.378184
C80	C	0.142188	-0.179201	0.878184
C81	C	-0.310398	-0.720193	0.327905
C82	C	0.189602	-0.220193	0.827905
C83	C	-0.310390	-0.802172	0.327900
C84	C	0.189610	-0.302172	0.827900
C85	C	-0.310416	-0.549323	0.327921
C86	C	0.189584	-0.049323	0.827921
C87	C	-0.310422	-0.467338	0.327927
C88	C	0.189578	0.032662	0.827927
C89	C	-0.405241	-0.467345	0.428472
C90	C	0.094759	0.032655	0.928472
C91	C	-0.405234	-0.549324	0.428467
C92	C	0.094766	-0.049324	0.928467
C93	C	-0.357819	-0.590310	0.378190
C94	C	0.142181	-0.090310	0.878190
C95	C	-0.357850	-1.134456	0.173434
C96	C	0.142150	-0.634456	0.673434
C97	C	-0.357869	-1.134497	0.086184
C98	C	0.142131	-0.634497	0.586184
C99	C	-0.310344	-1.184572	0.710353
C100	C	0.189656	-0.684572	1.210353
C101	C	-0.310362	-1.184610	0.792333
C102	C	0.189638	-0.684610	1.292333
C103	C	-0.357821	-1.134394	0.833336
C104	C	0.142179	-0.634394	1.333336
C105	C	-0.405269	-1.084142	0.792354
C106	C	0.094731	-0.584142	1.292354
C107	C	-0.405253	-1.084109	0.710375
C108	C	0.094747	-0.584109	1.210375
C109	C	-0.405297	-1.084215	0.963224
C110	C	0.094703	-0.584215	1.463224
C111	C	-0.405312	-1.084248	1.045208
C112	C	0.094688	-0.584248	1.545208
C113	C	-0.310406	-1.184716	1.045182
C114	C	0.189594	-0.684716	1.545182
C115	C	-0.310391	-1.184683	0.963203
C116	C	0.189609	-0.684683	1.463203
C117	C	-0.357838	-1.134430	0.922227
C118	C	0.142162	-0.634430	1.422227
H119	H	-0.811816	-1.037665	0.474872
H120	H	-0.311816	-0.537665	0.974872
H121	H	-0.271694	-1.225459	0.676974
H122	H	0.228306	-0.725459	1.176974
C123	C	-0.457358	-0.675113	0.483771
C124	C	0.042642	-0.175113	0.983771
N125	N	-0.496629	-0.641159	0.525445
N126	N	0.003371	-0.141159	1.025445
C127	C	-0.804308	-1.287915	0.419313
C128	C	-0.304308	-0.787915	0.919313
N129	N	-0.782326	-1.349538	0.435901
N130	N	-0.282326	-0.849538	0.935901
H131	H	-0.271787	-0.835542	0.286959
H132	H	0.228213	-0.335542	0.786959
C133	C	-0.804140	-1.093390	0.224676
C134	C	-0.304140	-0.593390	0.724676
N135	N	-0.782038	-1.076872	0.163087
N136	N	-0.282038	-0.576872	0.663087
H137	H	-0.443887	-1.043191	0.677013
H138	H	0.056113	-0.543191	1.177013
C139	C	-0.258167	-1.239883	0.837403
C140	C	0.241833	-0.739883	1.337403
N141	N	-0.218849	-1.281517	0.871349
N142	N	0.281151	-0.781517	1.371349
C143	C	-0.258220	-1.240002	1.090257
C144	C	0.241780	-0.740002	1.590257
N145	N	-0.218915	-1.281641	1.124212
N146	N	0.281085	-0.781641	1.624212
C147	C	-0.258255	-0.594406	0.272614
C148	C	0.241745	-0.094406	0.772614
N149	N	-0.218965	-0.628362	0.230962
N150	N	0.281035	-0.128362	0.730962
C151	C	-0.457402	-0.422259	0.483775
C152	C	0.042598	0.077741	0.983775
N153	N	-0.496686	-0.388297	0.525428
N154	N	0.003314	0.111703	1.025428
H155	H	-0.443803	-0.835545	0.469387
H156	H	0.056197	-0.335545	0.969387
C157	C	-0.258278	-0.422248	0.272627
C158	C	0.241722	0.077752	0.772627
N159	N	-0.219003	-0.388285	0.230973
N160	N	0.280997	0.111715	0.730973
C161	C	-0.457527	-1.029016	1.090310
C162	C	0.042473	-0.529016	1.590310
N163	N	-0.496858	-0.987418	1.124280
N164	N	0.003142	-0.487418	1.624280
H165	H	-0.904578	-1.169804	0.510220
H166	H	-0.404578	-0.669804	1.010220
C167	C	-0.912181	-0.981066	0.336938
C168	C	-0.412181	-0.481066	0.836938
N169	N	-0.934249	-0.919456	0.320432
N170	N	-0.434249	-0.419456	0.820432
C171	C	-0.457486	-1.028927	0.918152
C172	C	0.042514	-0.528927	1.418152
N173	N	-0.496788	-0.987280	0.884203
N174	N	0.003212	-0.487280	1.384203
H175	H	-0.904387	-1.231401	0.281255
H176	H	-0.404387	-0.731401	0.781255
H177	H	-0.443830	-0.582699	0.469404
H178	H	0.056170	-0.082699	0.969404
H179	H	-0.443914	-1.043259	0.825745
H180	H	0.056086	-0.543259	1.325745
H181	H	-0.271804	-0.686810	0.286973
H182	H	0.228196	-0.186810	0.786973
H183	H	-0.271743	-1.225568	0.929819
H184	H	0.228257	-0.725568	1.429819
