data_functionalizedCrystal
_audit_creation_method	'MofGen! by Chris Wilmer'
_symmetry_space_group_name_H-M	'P1'
_symmetry_Int_Tables_number	1
_symmetry_cell_setting	triclinic
loop_
_symmetry_equiv_pos_as_xyz
  x,y,z
_cell_length_a	10.967926
_cell_length_b	10.967829
_cell_length_c	13.448316
_cell_angle_alpha	77.865540
_cell_angle_beta	102.122502
_cell_angle_gamma	87.248880
loop_
_atom_site_label
_atom_site_type_symbol
_atom_site_fract_x
_atom_site_fract_y
_atom_site_fract_z
O1	O	1.657148	0.175008	0.171296
O2	O	2.157148	0.675008	0.671296
O3	O	1.294007	0.191768	0.106193
O4	O	1.794007	0.691768	0.606193
O5	O	1.483950	0.001808	0.171299
O6	O	1.983950	0.501808	0.671299
O7	O	1.467205	0.364968	0.106191
O8	O	1.967205	0.864968	0.606191
O9	O	1.483926	0.001796	0.336680
O10	O	1.983926	0.501796	0.836680
O11	O	1.293983	0.191756	0.271575
O12	O	1.793983	0.691756	0.771575
O13	O	1.657124	0.174996	0.336678
O14	O	2.157124	0.674996	0.836678
Cu15	Cu	1.475551	0.183375	0.319227
Cu16	Cu	1.975551	0.683375	0.819227
Cu17	Cu	1.475580	0.183389	0.123644
Cu18	Cu	1.975580	0.683389	0.623644
O19	O	1.467181	0.364956	0.271573
O20	O	1.967181	0.864956	0.771573
C21	C	1.247496	0.190543	0.181125
C22	C	1.747496	0.690543	0.681125
C23	C	1.108946	0.186898	0.158006
C24	C	1.608946	0.686898	0.658006
C25	C	1.047163	0.185266	0.233372
C26	C	1.547163	0.685266	0.733372
C27	C	0.903964	0.181498	0.209480
C28	C	1.403964	0.681498	0.709480
C29	C	1.482717	-0.044699	0.261748
C30	C	1.982717	0.455301	0.761748
C31	C	1.479067	-0.183256	0.284862
C32	C	1.979067	0.316744	0.784862
C33	C	1.477452	-0.245017	0.209493
C34	C	1.977452	0.254983	0.709493
C35	C	1.473679	-0.388223	0.233380
C36	C	1.973679	0.111777	0.733380
C37	C	1.703634	0.176221	0.261744
C38	C	2.203634	0.676221	0.761744
C39	C	1.842185	0.179867	0.284856
C40	C	2.342185	0.679867	0.784856
C41	C	1.468413	0.411463	0.181121
C42	C	1.968413	0.911463	0.681121
C43	C	1.472064	0.550020	0.158001
C44	C	1.972064	1.050020	0.658001
N45	N	1.475540	0.183364	0.456791
N46	N	1.975540	0.683364	0.956791
N47	N	1.475600	0.183390	-0.013917
N48	N	1.975600	0.683390	0.486083
C49	C	1.559673	0.099285	0.537659
C50	C	2.059673	0.599285	1.037659
C51	C	1.559681	0.099284	0.641764
C52	C	2.059681	0.599284	1.141764
C53	C	1.475561	0.183369	0.664999
C54	C	1.975561	0.683369	1.164999
C55	C	1.391418	0.267452	0.584122
C56	C	1.891418	0.767452	1.084122
C57	C	1.391405	0.267446	0.480019
C58	C	1.891405	0.767446	0.980019
C59	C	1.391453	0.267461	0.801106
C60	C	1.891453	0.767461	1.301106
C61	C	1.391467	0.267469	0.905216
C62	C	1.891467	0.767469	1.405216
C63	C	1.559729	0.099299	0.962851
C64	C	2.059729	0.599299	1.462851
C65	C	1.559716	0.099293	0.858748
C66	C	2.059716	0.599293	1.358748
C67	C	1.475575	0.183378	0.777878
C68	C	1.975575	0.683378	1.277878
H69	H	1.478857	-0.191872	0.127281
H70	H	1.978857	0.308128	0.627281
F71	F	1.649224	0.009797	0.727830
F72	F	2.149224	0.509797	1.227830
F73	F	0.911604	0.181672	0.392324
F74	F	1.411604	0.681672	0.892324
H75	H	1.472260	-0.441361	0.315595
H76	H	1.972260	0.058639	0.815595
H77	H	1.473460	-0.396841	0.075782
H78	H	1.973460	0.103159	0.575782
F79	F	1.477214	-0.252711	0.392317
F80	F	1.977214	0.247289	0.892317
H81	H	1.055827	0.185502	0.075796
H82	H	1.555827	0.685502	0.575796
F83	F	1.649252	0.009809	0.834020
F84	F	2.149252	0.509809	1.334020
H85	H	1.322919	0.335912	0.603045
H86	H	1.822919	0.835912	1.103045
F87	F	1.649214	0.009794	0.512943
F88	F	2.149214	0.509794	1.012943
H89	H	1.628239	0.030834	1.028702
H90	H	2.128239	0.530834	1.528702
H91	H	1.322966	0.335939	0.924125
H92	H	1.822966	0.835939	1.424125
F93	F	0.834545	0.179669	0.102017
F94	F	1.334545	0.679669	0.602017
H95	H	1.322894	0.335911	0.414175
H96	H	1.822894	0.835911	0.914175
F97	F	1.116589	0.187082	0.340831
F98	F	1.616589	0.687082	0.840831
F99	F	1.301895	0.356952	0.715041
F100	F	1.801895	0.856952	1.215041
