data_functionalizedCrystal
_audit_creation_method	'MofGen! by Chris Wilmer'
_symmetry_space_group_name_H-M	'P1'
_symmetry_Int_Tables_number	1
_symmetry_cell_setting	triclinic
loop_
_symmetry_equiv_pos_as_xyz
  x,y,z
_cell_length_a	9.565339
_cell_length_b	14.044220
_cell_length_c	14.044220
_cell_angle_alpha	93.188878
_cell_angle_beta	89.999264
_cell_angle_gamma	90.001002
loop_
_atom_site_label
_atom_site_type_symbol
_atom_site_fract_x
_atom_site_fract_y
_atom_site_fract_z
O1	O	0.116117	-1.277167	-0.230161
O2	O	0.616117	-0.777167	0.269839
O3	O	0.116152	-1.000495	-0.221855
O4	O	0.616152	-0.500495	0.278145
O5	O	0.116121	-1.134678	-0.087672
O6	O	0.616121	-0.634678	0.412328
O7	O	0.116148	-1.142984	-0.364344
O8	O	0.616148	-0.642984	0.135656
O9	O	-0.116399	-1.134667	-0.087680
O10	O	0.383601	-0.634667	0.412320
O11	O	-0.116368	-1.000485	-0.221863
O12	O	0.383632	-0.500485	0.278137
O13	O	-0.116403	-1.277156	-0.230169
O14	O	0.383597	-0.777156	0.269831
Zn15	Zn	-0.153303	-1.138819	-0.226017
Zn16	Zn	0.346697	-0.638819	0.273983
Zn17	Zn	0.153052	-1.138833	-0.226007
Zn18	Zn	0.653052	-0.638833	0.273993
O19	O	-0.116372	-1.142973	-0.364352
O20	O	0.383628	-0.642973	0.135648
C21	C	-0.000104	-0.964868	-0.218223
C22	C	0.499896	-0.464868	0.281777
C23	C	-0.000091	-0.858725	-0.207379
C24	C	0.499909	-0.358725	0.292621
C25	C	-0.000139	-1.131037	-0.052054
C26	C	0.499861	-0.631037	0.447946
C27	C	-0.000139	-1.120193	0.054088
C28	C	0.499861	-0.620193	0.554088
N29	N	-0.362383	-1.138816	-0.226025
N30	N	0.137617	-0.638816	0.273975
C31	C	-0.453571	-1.076738	-0.288056
C32	C	0.046429	-0.576738	0.211944
C33	C	-0.546759	-1.164577	-0.313875
C34	C	-0.046759	-0.664577	0.186125
C35	C	-0.546750	-1.051015	-0.200215
C36	C	-0.046750	-0.551015	0.299785
C37	C	-0.453519	-1.226701	-0.251891
C38	C	0.046481	-0.726701	0.248109
C39	C	-0.453501	-1.113080	-0.138189
C40	C	0.046499	-0.613080	0.361811
C41	C	-0.546647	-1.200978	-0.163977
C42	C	-0.046647	-0.700978	0.336023
N43	N	0.362131	-1.138843	-0.225992
N44	N	0.862131	-0.638843	0.274008
C45	C	-0.000145	-1.312783	-0.233800
C46	C	0.499855	-0.812783	0.266200
C47	C	-0.000148	-1.418926	-0.244645
C48	C	0.499852	-0.918926	0.255355
C49	C	-0.000120	-0.664388	-0.187553
C50	C	0.499880	-0.164388	0.312447
C51	C	-0.000119	-0.613258	-0.264467
C52	C	0.499881	-0.113258	0.235533
C53	C	-0.000135	-0.505122	-0.253435
C54	C	0.499865	-0.005122	0.246565
C55	C	-0.000104	-0.772534	-0.198583
C56	C	0.499896	-0.272534	0.301417
C57	C	-0.000109	-1.146614	-0.399969
C58	C	0.499891	-0.646614	0.100031
C59	C	-0.000100	-1.157459	-0.506112
C60	C	0.499900	-0.657459	-0.006112
C61	C	-0.000117	-1.100366	0.248426
C62	C	0.499883	-0.600366	0.748426
C63	C	-0.000122	-1.177281	0.299556
C64	C	0.499878	-0.677281	0.799556
C65	C	-0.000110	-1.166249	0.407692
C66	C	0.499890	-0.666249	0.907692
C67	C	-0.000129	-1.111397	0.140280
C68	C	0.499871	-0.611397	0.640280
H69	H	-0.412705	-1.024298	-0.340570
H70	H	0.087295	-0.524298	0.159430
C71	C	-0.000127	-0.613811	-0.087408
C72	C	0.499873	-0.113811	0.412592
N73	N	-0.000125	-0.575706	-0.011979
N74	N	0.499875	-0.075706	0.488021
H75	H	-0.412738	-1.300987	-0.273794
H76	H	0.087262	-0.800987	0.226206
C77	C	-0.602114	-1.194002	-0.414204
C78	C	-0.102114	-0.694002	0.085796
N79	N	-0.643807	-1.216158	-0.489773
N80	N	-0.143807	-0.716158	0.010227
H81	H	-0.000105	-0.650697	-0.338600
H82	H	0.499895	-0.150697	0.161400
H83	H	-0.000038	-1.251414	0.262117
H84	H	0.499962	-0.751414	0.762117
H85	H	-0.000104	-1.026239	0.285863
H86	H	0.499896	-0.526239	0.785863
H87	H	-0.412506	-1.091269	-0.063942
H88	H	0.087494	-0.591269	0.436058
C89	C	-0.602069	-0.950689	-0.170739
C90	C	-0.102069	-0.450689	0.329261
N91	N	-0.643730	-0.875121	-0.148544
N92	N	-0.143730	-0.375121	0.351456
C93	C	-0.601535	-1.271999	-0.093102
C94	C	-0.101535	-0.771999	0.406898
N95	N	-0.642885	-1.325495	-0.039725
N96	N	-0.142885	-0.825495	0.460275
