data_functionalizedCrystal
_audit_creation_method	'MofGen! by Chris Wilmer'
_symmetry_space_group_name_H-M	'P1'
_symmetry_Int_Tables_number	1
_symmetry_cell_setting	triclinic
loop_
_symmetry_equiv_pos_as_xyz
  x,y,z
_cell_length_a	11.792241
_cell_length_b	16.053802
_cell_length_c	11.792253
_cell_angle_alpha	87.402334
_cell_angle_beta	95.803993
_cell_angle_gamma	87.400001
loop_
_atom_site_label
_atom_site_type_symbol
_atom_site_fract_x
_atom_site_fract_y
_atom_site_fract_z
O1	O	1.502152	0.069360	-0.160311
O2	O	1.171810	0.069381	-0.176346
O3	O	1.344991	0.069353	-0.003158
O4	O	1.328971	0.069388	-0.333499
O5	O	1.354513	-0.069508	0.006346
O6	O	1.181332	-0.069480	-0.166842
O7	O	1.511674	-0.069500	-0.150807
Zn8	Zn	1.348015	-0.091537	-0.157316
Zn9	Zn	1.335469	0.091418	-0.169837
O10	O	1.338493	-0.069472	-0.323995
C11	C	1.134280	-0.000047	-0.170587
C12	C	1.008266	-0.000040	-0.167573
N13	N	1.356585	-0.216399	-0.148769
N14	N	1.326908	0.216279	-0.178375
C15	C	0.777555	-0.000064	-0.162028
C16	C	0.905939	-0.000051	-0.165109
C17	C	1.549204	-0.000071	-0.156566
C18	C	1.675218	-0.000072	-0.159581
C19	C	1.348744	-0.000080	0.043885
C20	C	1.345724	-0.000088	0.169899
C21	C	1.400740	0.259961	-0.104826
C22	C	1.394748	0.347369	-0.110795
C23	C	1.314919	0.391093	-0.190310
C24	C	1.241084	0.347405	-0.263866
C25	C	1.247082	0.259999	-0.257901
C26	C	1.288748	0.652507	-0.216361
C27	C	1.282753	0.739919	-0.222318
C28	C	1.436420	0.739877	-0.069248
C29	C	1.442406	0.652469	-0.063286
C30	C	1.368575	0.608789	-0.136846
N31	N	1.308791	0.480438	-0.196411
N32	N	1.374710	0.519446	-0.130750
C33	C	1.343270	-0.000092	0.272236
C34	C	1.340202	-0.000093	0.400622
C35	C	1.334742	-0.000055	0.628963
C36	C	1.337765	-0.000093	0.502953
H37	H	1.454869	0.382935	-0.050907
H38	H	1.186961	0.224434	-0.317794
H39	H	1.507410	0.616871	0.001461
H40	H	1.496531	0.775450	-0.009360
C41	C	1.196043	0.787243	-0.308776
C42	C	1.132689	0.730282	-0.371945
C43	C	1.052816	0.773846	-0.451604
H44	H	1.146183	0.821334	-0.269991
H45	H	1.234704	0.821333	-0.358766
H46	H	1.094030	0.696206	-0.321962
H47	H	1.182518	0.696189	-0.410754
H48	H	1.091477	0.807936	-0.501594
H49	H	1.002965	0.807936	-0.412809
H50	H	1.009829	0.735205	-0.494480
C51	C	1.208530	0.604987	-0.296030
C52	C	1.142271	0.554779	-0.231535
C53	C	1.068366	0.510981	-0.304889
H54	H	1.160025	0.643455	-0.344256
H55	H	1.251855	0.570852	-0.341302
H56	H	1.098949	0.588911	-0.186283
H57	H	1.190745	0.516295	-0.183312
H58	H	1.111691	0.476846	-0.350161
H59	H	1.019869	0.549456	-0.353112
H60	H	1.023408	0.476904	-0.261141
C61	C	1.487232	0.212447	-0.018358
C62	C	1.429932	0.162271	0.055102
C63	C	1.509573	0.118499	0.134779
H64	H	1.537014	0.178288	-0.057139
H65	H	1.530333	0.250956	0.024657
H66	H	1.386850	0.123766	0.012092
H67	H	1.380156	0.196409	0.093910
H68	H	1.552674	0.157008	0.177795
H69	H	1.559350	0.084345	0.095988
H70	H	1.470707	0.084456	0.184638
H71	H	1.176089	0.383010	-0.328614
