data_functionalizedCrystal
_audit_creation_method	'MofGen! by Chris Wilmer'
_symmetry_space_group_name_H-M	'P1'
_symmetry_Int_Tables_number	1
_symmetry_cell_setting	triclinic
loop_
_symmetry_equiv_pos_as_xyz
  x,y,z
_cell_length_a	13.032831
_cell_length_b	16.625545
_cell_length_c	13.033109
_cell_angle_alpha	97.153577
_cell_angle_beta	76.665514
_cell_angle_gamma	82.830132
loop_
_atom_site_label
_atom_site_type_symbol
_atom_site_fract_x
_atom_site_fract_y
_atom_site_fract_z
Zn1	Zn	1.700010	-0.566823	-0.806381
Zn2	Zn	2.200010	-0.066823	-0.306381
Zn3	Zn	1.677320	-0.682040	-0.628758
Zn4	Zn	2.177320	-0.182040	-0.128758
Zn5	Zn	1.499841	-0.527606	-0.606276
Zn6	Zn	1.999841	-0.027606	-0.106276
Zn7	Zn	1.522335	-0.681969	-0.783802
Zn8	Zn	2.022335	-0.181969	-0.283802
O9	O	1.599877	-0.614609	-0.706304
O10	O	2.099877	-0.114609	-0.206304
O11	O	1.845633	-0.598549	-0.801677
O12	O	2.345633	-0.098549	-0.301677
O13	O	1.634868	-0.645171	-0.477145
O14	O	2.134868	-0.145171	0.022855
O15	O	1.526475	-0.419987	-0.632860
O16	O	2.026475	0.080013	-0.132860
O17	O	1.828963	-0.683198	-0.671178
O18	O	2.328963	-0.183198	-0.171178
O19	O	1.673538	-0.448800	-0.779877
O20	O	2.173538	0.051200	-0.279877
O21	O	1.504475	-0.531709	-0.460627
O22	O	2.004475	-0.031709	0.039373
O23	O	1.354192	-0.531640	-0.610967
O24	O	1.854192	-0.031640	-0.110967
O25	O	1.564814	-0.683077	-0.935428
O26	O	2.064814	-0.183077	-0.435428
O27	O	1.370718	-0.645050	-0.741395
O28	O	1.870718	-0.145050	-0.241395
O29	O	1.695350	-0.598480	-0.952016
O30	O	2.195350	-0.098480	-0.452016
O31	O	1.656680	-0.794851	-0.649285
O32	O	2.156680	-0.294851	-0.149285
O33	O	1.542813	-0.794799	-0.763195
O34	O	2.042813	-0.294799	-0.263195
C35	C	1.323916	-0.584083	-0.671292
C36	C	1.823916	-0.084083	-0.171292
C37	C	1.205862	-0.571045	-0.656338
C38	C	1.705862	-0.071045	-0.156338
C39	C	1.161423	-0.621414	-0.714108
C40	C	1.661423	-0.121414	-0.214108
C41	C	1.039408	-0.607940	-0.698655
C42	C	1.539408	-0.107940	-0.198655
C43	C	1.599757	-0.824084	-0.706256
C44	C	2.099757	-0.324084	-0.206256
C45	C	1.599807	-0.913713	-0.706283
C46	C	2.099807	-0.413713	-0.206283
C47	C	1.599851	-0.986502	-0.706310
C48	C	2.099851	-0.486502	-0.206310
C49	C	1.599916	-1.077820	-0.706341
C50	C	2.099916	-0.577820	-0.206341
C51	C	1.599973	-1.150604	-0.706361
C52	C	2.099973	-0.650604	-0.206361
C53	C	1.600037	-1.241927	-0.706391
C54	C	2.100037	-0.741927	-0.206391
C55	C	1.876915	-0.645256	-0.741454
C56	C	2.376915	-0.145256	-0.241454
C57	C	1.994972	-0.658316	-0.756433
C58	C	2.494972	-0.158316	-0.256433
C59	C	1.635122	-0.645145	-0.983338
C60	C	2.135122	-0.145145	-0.483338
C61	C	1.650142	-0.658158	-1.101394
C62	C	2.150142	-0.158158	-0.601394
C63	C	1.600029	-0.404323	-0.706379
C64	C	2.100029	0.095677	-0.206379
C65	C	1.600093	-0.314711	-0.706411
C66	C	2.100093	0.185289	-0.206411
C67	C	1.592322	-0.607820	-1.145854
C68	C	2.092322	-0.107820	-0.645854
C69	C	1.607844	-0.621268	-1.267870
C70	C	2.107844	-0.121268	-0.767870
C71	C	1.564829	-0.584141	-0.430355
C72	C	2.064829	-0.084141	0.069645
C73	C	1.550016	-0.570924	-0.312327
C74	C	2.050016	-0.070924	0.187673
H75	H	1.047252	-0.711413	-0.817343
H76	H	1.547252	-0.211413	-0.317343
C77	C	1.690157	-0.693004	-1.338462
C78	C	2.190157	-0.193004	-0.838462
N79	N	1.752122	-0.747055	-1.391629
N80	N	2.252122	-0.247055	-0.891629
H81	H	1.153579	-0.517945	-0.595443
H82	H	1.653579	-0.017945	-0.095443
C83	C	1.509929	-0.536142	-1.075248
C84	C	2.009929	-0.036142	-0.575248
N85	N	1.447874	-0.482149	-1.022069
N86	N	1.947874	0.017851	-0.522069
C87	C	1.732451	-0.729890	-1.171989
C88	C	2.232451	-0.229890	-0.671989
N89	N	1.794416	-0.783941	-1.225156
N90	N	2.294416	-0.283941	-0.725156
C91	C	1.232051	-0.693149	-0.796381
C92	C	1.732051	-0.193149	-0.296381
N93	N	1.285248	-0.747184	-0.858348
N94	N	1.785248	-0.247184	-0.358348
C95	C	0.968782	-0.536202	-0.616376
C96	C	1.468782	-0.036202	-0.116376
N97	N	0.915585	-0.482170	-0.554405
N98	N	1.415585	0.017830	-0.054405
C99	C	1.467608	-0.499248	-1.241725
C100	C	1.967608	0.000752	-0.741725
N101	N	1.405540	-0.445263	-1.188547
N102	N	1.905540	0.054737	-0.688547
