data_functionalizedCrystal
_audit_creation_method	'MofGen! by Chris Wilmer'
_symmetry_space_group_name_H-M	'P1'
_symmetry_Int_Tables_number	1
_symmetry_cell_setting	triclinic
loop_
_symmetry_equiv_pos_as_xyz
  x,y,z
_cell_length_a	15.944551
_cell_length_b	15.021413
_cell_length_c	11.792241
_cell_angle_alpha	90.008678
_cell_angle_beta	96.153923
_cell_angle_gamma	89.999533
loop_
_atom_site_label
_atom_site_type_symbol
_atom_site_fract_x
_atom_site_fract_y
_atom_site_fract_z
O1	O	1.115185	-0.073940	-0.146386
O2	O	0.870717	-0.073962	-0.164433
O3	O	0.998883	-0.073944	0.009810
O4	O	0.987018	-0.073957	-0.320629
O5	O	0.998872	0.074120	0.009828
O6	O	0.870705	0.074103	-0.164415
O7	O	1.115173	0.074125	-0.146368
Zn8	Zn	0.992938	0.097622	-0.155389
Zn9	Zn	0.992952	-0.097459	-0.155412
O10	O	0.987007	0.074107	-0.320611
C11	C	0.839414	0.000068	-0.163675
C12	C	0.746157	0.000059	-0.161429
N13	N	0.992934	0.230760	-0.155372
C14	C	0.998132	0.000088	0.052104
C15	C	0.995901	0.000087	0.178099
C16	C	0.530789	0.000081	-0.048056
C17	C	0.470012	-0.072924	-0.100711
C18	C	0.575413	0.000070	-0.157365
C19	C	0.470023	0.073055	-0.100720
C20	C	0.410483	0.000084	-0.153432
C21	C	0.515865	-0.072996	-0.210051
C22	C	0.515882	0.073049	-0.210044
C23	C	0.455123	0.000026	-0.262778
C24	C	0.670426	0.000061	-0.159628
C25	C	0.315471	0.000087	-0.151178
C26	C	1.146476	0.000093	-0.147126
C27	C	1.239733	0.000096	-0.149372
C28	C	1.051749	0.529759	-0.074162
C29	C	1.069197	0.470390	-0.176409
C30	C	0.992954	0.587797	-0.155407
C31	C	0.975535	0.470424	-0.053145
C32	C	0.992946	0.412372	-0.155384
C33	C	1.010441	0.529734	-0.257705
C34	C	0.916745	0.529773	-0.134374
C35	C	0.934162	0.470431	-0.236695
C36	C	0.992961	0.688854	-0.155418
C37	C	0.992939	0.311317	-0.155384
N38	N	0.992964	0.769403	-0.155420
C39	C	0.987758	0.000073	-0.362905
C40	C	0.989989	0.000068	-0.488900
C41	C	0.991799	0.000072	0.408777
C42	C	0.994079	0.000080	0.280411
H43	H	0.449698	-0.134642	-0.054485
H44	H	0.884435	0.444545	-0.305465
H45	H	0.563713	-0.000005	0.042662
H46	H	0.536065	-0.134784	-0.256257
O47	O	0.540037	0.146653	-0.265298
C48	C	0.499975	0.147272	-0.377850
H49	H	0.440231	0.105153	-0.382482
H50	H	0.482808	0.218566	-0.404107
H51	H	0.544489	0.118601	-0.437973
H52	H	1.101507	0.555808	-0.005543
H53	H	0.422374	-0.000019	-0.353590
O54	O	0.445917	0.146661	-0.045385
C55	C	0.484799	0.146371	0.067784
H56	H	0.544178	0.103636	0.073219
H57	H	0.502378	0.217370	0.095004
H58	H	0.439284	0.117876	0.126642
H59	H	1.133642	0.444306	-0.194198
H60	H	0.960805	0.444370	0.033326
O61	O	1.028150	0.560826	-0.360797
C62	C	1.027964	0.654682	-0.359553
H63	H	1.040152	0.679264	-0.267801
H64	H	1.079547	0.680581	-0.410798
H65	H	0.964044	0.680097	-0.399055
H66	H	0.852320	0.555876	-0.116553
