data_functionalizedCrystal
_audit_creation_method	'MofGen! by Chris Wilmer'
_symmetry_space_group_name_H-M	'P1'
_symmetry_Int_Tables_number	1
_symmetry_cell_setting	triclinic
loop_
_symmetry_equiv_pos_as_xyz
  x,y,z
_cell_length_a	15.538191
_cell_length_b	17.038272
_cell_length_c	14.185569
_cell_angle_alpha	75.875097
_cell_angle_beta	97.875798
_cell_angle_gamma	69.191825
loop_
_atom_site_label
_atom_site_type_symbol
_atom_site_fract_x
_atom_site_fract_y
_atom_site_fract_z
O1	O	1.210508	-0.225025	-0.083426
O2	O	0.943323	-0.136755	-0.083427
O3	O	1.075329	-0.294257	-0.083419
O4	O	1.078502	-0.067523	-0.083435
O5	O	1.114326	-0.340781	0.083418
O6	O	0.982319	-0.183279	0.083410
O7	O	1.249504	-0.271549	0.083411
Cu8	Cu	1.119472	-0.231662	0.098644
Cu9	Cu	1.073355	-0.176642	-0.098660
O10	O	1.117498	-0.114046	0.083402
C11	C	0.928466	-0.150781	-0.000008
C12	C	0.826096	-0.123272	-0.000009
C13	C	0.516405	-0.396569	-0.000005
C14	C	0.420212	-0.370700	-0.000008
C15	C	0.409427	-0.225194	-0.000017
C16	C	0.505622	-0.251052	-0.000010
C17	C	0.559104	-0.336740	-0.000005
C18	C	0.548321	-0.191224	-0.000010
C19	C	0.644507	-0.217079	-0.000008
C20	C	0.697994	-0.302762	-0.000006
C21	C	0.655290	-0.362595	-0.000003
C22	C	0.494836	-0.105534	-0.000022
C23	C	0.537535	-0.045706	-0.000022
C24	C	0.633725	-0.071563	-0.000013
C25	C	0.687212	-0.157246	-0.000011
C26	C	0.676429	-0.011729	-0.000016
C27	C	0.772615	-0.037584	-0.000014
C28	C	0.783398	-0.183101	-0.000009
C29	C	1.091939	-0.345828	-0.000000
C30	C	1.083321	-0.430177	-0.000001
C31	C	1.162445	-0.502729	0.000001
C32	C	1.154339	-0.581979	-0.000009
C33	C	1.067111	-0.588678	-0.000012
C34	C	0.987981	-0.516117	-0.000017
C35	C	0.996085	-0.436867	-0.000014
C36	C	1.038478	-0.826313	-0.000026
C37	C	1.030380	-0.905572	-0.000026
C38	C	1.196740	-0.971428	-0.000020
C39	C	1.204838	-0.892175	-0.000011
C40	C	1.125706	-0.819620	-0.000021
C41	C	1.058825	-0.669684	-0.000019
C42	C	1.133991	-0.738614	-0.000021
C43	C	1.264361	-0.257521	-0.000010
C44	C	1.366729	-0.285029	-0.000016
C45	C	1.100888	-0.062475	-0.000018
C46	C	1.109504	0.021876	-0.000024
N47	N	1.151915	-0.270362	0.237417
N48	N	1.040918	-0.137950	-0.237433
C49	C	0.945597	-0.024281	0.605054
C50	C	0.970180	-0.053593	0.710077
C51	C	1.087100	-0.193030	0.710045
C52	C	1.062524	-0.163731	0.605020
C53	C	0.991773	-0.079356	0.552533
C54	C	1.108700	-0.218806	0.552499
C55	C	1.084130	-0.189508	0.447483
C56	C	1.013383	-0.105135	0.394988
C57	C	0.967203	-0.050058	0.447517
C58	C	1.179455	-0.303179	0.604988
C59	C	1.225631	-0.358254	0.552467
C60	C	1.201056	-0.328958	0.447449
C61	C	1.130310	-0.244585	0.394954
C62	C	1.247237	-0.384035	0.394921
C63	C	1.222666	-0.354737	0.289904
C64	C	1.105740	-0.215287	0.289938
H65	H	0.807383	0.011131	-0.000004
N66	N	1.301933	-0.449259	0.609077
H67	H	1.363728	-0.453874	0.590782
H68	H	1.310413	-0.459411	0.683556
N69	N	0.986867	-0.073538	0.281721
H70	H	0.935039	-0.011733	0.256442
H71	H	1.044457	-0.073138	0.256474
N72	N	0.574102	-0.488993	0.000015
H73	H	0.532461	-0.522977	0.000020
H74	H	0.599791	-0.485644	-0.061832
N75	N	1.029423	-0.124283	0.233322
H76	H	1.057132	-0.088246	0.189740
H77	H	0.976141	-0.129874	0.189821
H78	H	0.632868	0.058040	-0.000030
N79	N	0.910756	-0.358612	0.000005
H80	H	0.895953	-0.307010	-0.061838
H81	H	0.854320	-0.374951	0.000047
N82	N	1.298923	-0.884962	-0.000030
H83	H	1.291531	-0.836300	-0.061879
H84	H	1.320415	-0.870834	0.061855
N85	N	0.890883	0.040943	0.390893
H86	H	0.865352	0.071389	0.440099
H87	H	0.918653	0.076910	0.347312
N88	N	1.256530	-0.495509	0.000014
H89	H	1.305423	-0.553498	0.000012
H90	H	1.249062	-0.446812	-0.061832
H91	H	1.304849	-0.452731	0.437670
H92	H	0.974043	-0.767247	-0.000034
N93	N	0.841089	-0.275523	0.000000
H94	H	0.908501	-0.282820	0.000002
H95	H	0.841089	-0.320021	0.061854
N96	N	1.272470	-0.414133	0.233247
H97	H	1.321017	-0.472030	0.282433
H98	H	1.224309	-0.425784	0.189683
N99	N	1.282078	-1.049678	-0.000028
H100	H	1.338565	-1.033407	-0.000027
H101	H	1.296799	-1.101247	0.061818
N102	N	0.374154	-0.435231	-0.000014
H103	H	0.422633	-0.493434	-0.000012
H104	H	0.348935	-0.444924	0.061833
H105	H	0.365868	-0.155426	-0.000026
N106	N	1.163401	-0.284035	0.766655
H107	H	1.225196	-0.288650	0.748360
H108	H	1.171881	-0.294187	0.841135
N109	N	1.239681	-0.660233	-0.000002
H110	H	1.296171	-0.643966	0.000010
H111	H	1.254390	-0.711796	0.061847
N112	N	0.479849	0.046712	-0.000033
H113	H	0.412435	0.054015	-0.000036
H114	H	0.508762	0.056715	0.061817
H115	H	0.887978	0.044422	0.562317
H116	H	1.205007	-0.733150	-0.000041
N117	N	0.920380	0.005817	0.766728
H118	H	0.871835	0.063713	0.717538
H119	H	0.887512	-0.024068	0.810314
N120	N	1.205960	-0.334777	0.718256
H121	H	1.148417	-0.335238	0.743571
H122	H	1.257814	-0.396565	0.743456
H123	H	0.776312	-0.323808	-0.000017
H124	H	0.698839	-0.432372	0.000007
N125	N	0.893894	-0.523332	-0.000021
H126	H	0.872368	-0.537498	-0.061866
H127	H	0.901347	-0.571981	0.061868
N128	N	0.936294	-0.912798	-0.000031
H129	H	0.887392	-0.854809	-0.000040
H130	H	0.914862	-0.927001	-0.061879
H131	H	0.416515	-0.084485	-0.000027
H132	H	0.987804	-0.675148	-0.000020
