data_functionalizedCrystal
_audit_creation_method	'MofGen! by Chris Wilmer'
_symmetry_space_group_name_H-M	'P1'
_symmetry_Int_Tables_number	1
_symmetry_cell_setting	triclinic
loop_
_symmetry_equiv_pos_as_xyz
  x,y,z
_cell_length_a	10.654541
_cell_length_b	15.995292
_cell_length_c	9.730217
_cell_angle_alpha	89.999943
_cell_angle_beta	89.999932
_cell_angle_gamma	83.976272
loop_
_atom_site_label
_atom_site_type_symbol
_atom_site_fract_x
_atom_site_fract_y
_atom_site_fract_z
O1	O	1.666266	0.117594	-0.114237
O2	O	1.300637	0.128801	-0.114248
O3	O	1.493484	0.001365	-0.114244
O4	O	1.473418	0.245031	-0.114241
O5	O	1.493478	0.001364	0.114336
O6	O	1.300631	0.128800	0.114332
O7	O	1.666260	0.117593	0.114343
Zn8	Zn	1.483444	0.123196	0.150629
Zn9	Zn	1.483452	0.123198	-0.150535
O10	O	1.473412	0.245029	0.114339
C11	C	1.253847	0.127978	0.000040
C12	C	1.114436	0.125518	0.000036
C13	C	1.492664	-0.029836	0.000042
C14	C	1.490216	-0.122803	0.000032
C15	C	1.084427	0.277902	0.000021
C16	C	1.003929	0.352935	0.000008
C17	C	0.872942	0.350618	0.000006
C18	C	0.822451	0.273260	0.000022
C19	C	0.902949	0.198227	0.000035
C20	C	1.033938	0.200552	0.000033
C21	C	0.932958	0.045844	0.000060
C22	C	1.063946	0.048159	0.000052
C23	C	0.882468	-0.031514	0.000076
C24	C	0.962966	-0.106549	0.000079
C25	C	1.093960	-0.104228	0.000079
C26	C	1.144443	-0.026873	0.000065
C27	C	1.481215	-0.460594	0.000044
C28	C	1.620407	-0.436474	0.000559
C29	C	1.623052	-0.339783	0.000039
C30	C	1.485681	-0.293012	0.000039
C31	C	1.416095	-0.322516	-0.130490
C32	C	1.414420	-0.419316	-0.130594
C33	C	1.411570	-0.419191	0.129344
C34	C	1.416729	-0.322669	0.131065
C35	C	1.488198	-0.198301	0.000031
C36	C	1.478694	-0.555304	0.000042
C37	C	1.713050	0.118416	0.000051
C38	C	1.852460	0.120877	0.000047
C39	C	1.474232	0.276230	0.000050
C40	C	1.476680	0.369198	0.000051
N41	N	1.483448	0.123195	0.356166
N42	N	1.483458	0.123193	-0.356071
C43	C	1.654284	0.010383	0.356160
C44	C	1.739710	-0.046020	0.428097
C45	C	1.739723	-0.046020	0.571976
C46	C	1.654297	0.010387	0.643923
C47	C	1.568871	0.066790	0.571986
C48	C	1.568870	0.066786	0.428103
C49	C	1.398032	0.179596	0.571992
C50	C	1.398023	0.179602	0.428112
C51	C	1.312607	0.236004	0.643938
C52	C	1.227185	0.292412	0.572001
C53	C	1.227176	0.292411	0.428113
C54	C	1.312597	0.236006	0.356175
H55	H	1.045053	0.415919	-0.000001
H56	H	1.809260	-0.091948	0.369506
H57	H	1.654292	0.010385	0.239005
H58	H	1.315008	-0.291235	-0.135342
O59	O	1.180774	-0.185162	0.000105
H60	H	1.280343	-0.170558	0.000113
O61	O	1.285722	-0.024373	0.000075
H62	H	1.307302	0.042022	0.000076
H63	H	0.807399	0.411716	0.000005
O64	O	1.275859	-0.438513	0.130516
H65	H	1.227329	-0.409066	0.222087
O66	O	1.831865	-0.106847	0.649580
H67	H	1.891271	-0.146066	0.575387
H68	H	1.464422	-0.302174	-0.227628
O69	O	1.312628	0.236004	0.799123
H70	H	1.218836	0.222016	0.837076
H71	H	0.775810	-0.033395	0.000082
O72	O	0.908514	-0.189979	0.000101
H73	H	0.803908	-0.178984	0.000101
O74	O	1.135074	0.353253	0.649604
H75	H	1.075673	0.392479	0.575415
O76	O	0.681173	0.270755	0.000038
H77	H	0.633681	0.335925	0.000027
O78	O	1.691091	-0.474495	-0.122733
H79	H	1.723971	-0.423620	-0.186684
O80	O	1.279237	-0.439373	-0.138458
H81	H	1.257037	-0.476113	-0.046450
O82	O	1.695266	-0.314155	0.123954
H83	H	1.728611	-0.370871	0.184791
O84	O	1.283909	-0.279771	0.141509
H85	H	1.237994	-0.302111	0.235042
O86	O	1.691475	-0.473120	0.124572
H87	H	1.628359	-0.508927	0.187162
O88	O	1.135040	0.353249	0.350523
H89	H	1.075654	0.392472	0.424728
H90	H	1.312602	0.236003	0.239021
H91	H	1.654303	0.010376	0.761077
O92	O	1.695653	-0.314975	-0.124128
H93	H	1.793569	-0.346323	-0.119587
H94	H	1.462617	-0.445852	-0.228166
O95	O	1.225706	0.280398	0.000017
H96	H	1.247292	0.346792	0.000012
H97	H	1.455402	-0.447026	0.228284
O98	O	1.483824	-0.297683	0.258986
H99	H	1.565936	-0.264277	0.229387
