data_functionalizedCrystal
_audit_creation_method	'MofGen! by Chris Wilmer'
_symmetry_space_group_name_H-M	'P1'
_symmetry_Int_Tables_number	1
_symmetry_cell_setting	triclinic
loop_
_symmetry_equiv_pos_as_xyz
  x,y,z
_cell_length_a	12.759401
_cell_length_b	19.121063
_cell_length_c	12.759393
_cell_angle_alpha	92.404035
_cell_angle_beta	89.979062
_cell_angle_gamma	92.470439
loop_
_atom_site_label
_atom_site_type_symbol
_atom_site_fract_x
_atom_site_fract_y
_atom_site_fract_z
Zn1	Zn	1.588334	-0.279551	-0.611809
Zn2	Zn	1.580690	-0.397017	-0.443603
Zn3	Zn	1.412630	-0.279588	-0.436146
Zn4	Zn	1.405092	-0.396968	-0.619238
O5	O	1.496686	-0.338281	-0.527699
O6	O	1.734340	-0.295138	-0.589508
O7	O	1.558352	-0.381476	-0.295595
O8	O	1.442291	-0.181299	-0.453218
O9	O	1.728724	-0.381440	-0.465928
O10	O	1.571380	-0.181271	-0.582277
O11	O	1.434879	-0.295201	-0.290117
O12	O	1.264609	-0.295154	-0.460422
O13	O	1.429444	-0.381356	-0.765271
O14	O	1.259071	-0.381393	-0.594938
O15	O	1.564071	-0.295090	-0.759813
O16	O	1.551042	-0.495295	-0.473132
O17	O	1.422032	-0.495259	-0.602169
C18	C	1.223720	-0.338272	-0.527678
C19	C	1.106942	-0.338286	-0.527694
C20	C	1.484918	-0.520761	-0.539289
C21	C	1.479980	-0.598827	-0.544282
C22	C	1.049220	-0.383259	-0.597636
C23	C	0.939495	-0.383261	-0.597657
C24	C	0.945226	-0.293316	-0.457786
C25	C	1.054948	-0.293311	-0.457771
C26	C	1.544881	-0.635498	-0.479500
C27	C	1.540243	-0.708849	-0.484203
C28	C	1.470697	-0.745528	-0.553682
C29	C	1.405794	-0.708852	-0.618471
C30	C	1.410438	-0.635502	-0.613773
C31	C	1.453316	-0.966997	-0.571229
C32	C	1.448675	-1.040352	-0.575920
C33	C	1.583126	-1.040344	-0.441653
C34	C	1.587759	-0.966993	-0.436957
C35	C	1.522860	-0.930323	-0.501749
C36	C	1.465952	-0.820504	-0.558488
C37	C	1.527611	-0.855348	-0.496948
C38	C	1.770719	-0.338290	-0.527721
C39	C	1.887495	-0.338294	-0.527731
C40	C	1.496769	-0.338214	-0.801728
C41	C	1.496805	-0.338185	-0.918503
C42	C	1.508529	-0.155088	-0.516087
C43	C	1.513576	-0.077023	-0.511139
C44	C	1.566910	-0.293259	-0.970524
C45	C	1.566930	-0.293229	-1.080246
C46	C	1.426735	-0.383056	-1.085917
C47	C	1.426711	-0.383083	-0.976196
C48	C	1.496667	-0.338298	-0.254733
C49	C	1.496848	-0.338128	-0.137946
H50	H	1.091550	-0.419879	-0.654575
C51	C	1.547480	-0.772930	-0.350368
C52	C	1.604051	-0.815033	-0.420573
H53	H	1.594669	-0.748041	-0.303212
H54	H	1.509501	-0.740599	-0.388287
H55	H	1.499914	-0.801600	-0.311981
H56	H	1.651611	-0.786362	-0.458966
H57	H	1.642047	-0.847368	-0.382651
H58	H	0.902879	-0.256700	-0.400855
C59	C	1.184422	-0.198816	-0.437389
C60	C	1.118405	-0.243872	-0.380885
H61	H	1.223591	-0.168293	-0.389925
H62	H	1.231084	-0.225597	-0.479024
H63	H	1.143357	-0.171991	-0.481527
H64	H	1.159470	-0.270700	-0.336752
H65	H	1.071737	-0.217088	-0.339232
H66	H	1.349173	-0.738721	-0.675047
H67	H	1.644389	-0.937130	-0.380382
H68	H	0.892502	-0.419882	-0.654611
H69	H	1.601508	-0.605639	-0.422919
H70	H	1.369670	-0.419612	-1.132904
C71	C	1.635728	-1.152780	-0.389253
C72	C	1.654479	-1.080653	-0.370455
H73	H	1.679791	-1.177663	-0.345304
H74	H	1.564394	-1.164849	-0.374572
H75	H	1.650300	-1.164744	-0.460630
H76	H	1.639899	-1.068688	-0.299079
H77	H	1.725829	-1.068578	-0.385128
H78	H	1.593091	-0.738703	-0.431450
C79	C	1.316257	-1.032996	-0.708194
C80	C	1.372235	-1.080671	-0.652308
H81	H	1.269075	-1.057889	-0.755353
H82	H	1.277893	-1.004435	-0.660563
H83	H	1.363840	-1.004338	-0.746580
H84	H	1.324652	-1.109326	-0.613916
H85	H	1.410601	-1.109243	-0.699945
C86	C	1.443855	-0.884460	-0.707271
C87	C	1.381968	-0.926701	-0.642444
H88	H	1.399801	-0.859586	-0.751241
H89	H	1.485924	-0.852116	-0.665228
H90	H	1.487799	-0.913035	-0.749322
H91	H	1.338029	-0.898125	-0.600387
H92	H	1.339880	-0.959049	-0.684491
C93	C	1.277073	-0.642873	-0.746960
C94	C	1.339098	-0.595190	-0.684984
H95	H	1.233031	-0.617985	-0.790923
H96	H	1.321020	-0.671435	-0.789010
H97	H	1.235091	-0.671528	-0.702975
H98	H	1.381087	-0.566539	-0.728970
H99	H	1.295146	-0.566616	-0.642931
C100	C	1.705478	-0.204459	-0.975944
C101	C	1.643945	-0.243901	-0.907106
H102	H	1.753031	-0.173983	-0.936791
H103	H	1.743696	-0.235050	-1.020681
H104	H	1.661436	-0.177585	-1.017032
H105	H	1.687988	-0.270779	-0.866023
H106	H	1.605724	-0.213306	-0.862351
H107	H	1.409326	-0.850376	-0.615056
H108	H	1.369615	-0.419666	-0.933840
H109	H	1.624015	-0.256644	-1.122597
