data_functionalizedCrystal
_audit_creation_method	'MofGen! by Chris Wilmer'
_symmetry_space_group_name_H-M	'P1'
_symmetry_Int_Tables_number	1
_symmetry_cell_setting	triclinic
loop_
_symmetry_equiv_pos_as_xyz
  x,y,z
_cell_length_a	27.731994
_cell_length_b	27.731996
_cell_length_c	26.210047
_cell_angle_alpha	89.998501
_cell_angle_beta	89.997128
_cell_angle_gamma	82.620961
loop_
_atom_site_label
_atom_site_type_symbol
_atom_site_fract_x
_atom_site_fract_y
_atom_site_fract_z
O1	O	0.640938	0.057387	-0.042363
O2	O	0.500139	0.066160	-0.042381
O3	O	0.574924	-0.008626	-0.042360
O4	O	0.566152	0.132173	-0.042383
O5	O	0.574910	-0.008614	0.042498
O6	O	0.500124	0.066172	0.042477
O7	O	0.640923	0.057398	0.042495
Cu8	Cu	0.570522	0.061786	0.050235
Cu9	Cu	0.570540	0.061772	-0.050120
O10	O	0.566138	0.132184	0.042475
C11	C	0.482124	0.065986	0.000046
C12	C	0.428468	0.065443	0.000040
C13	C	0.095742	0.062034	0.046316
C14	C	-0.105915	0.059972	0.046322
O15	O	-0.131995	0.059690	0.085661
N16	N	-0.131122	0.059710	0.000066
C17	C	-0.105911	0.059960	-0.046195
O18	O	-0.131978	0.059684	-0.085538
C19	C	0.095746	0.062018	-0.046200
C20	C	0.120950	0.062285	0.000059
C21	C	0.120946	0.062301	0.092572
C22	C	0.171357	0.062819	0.092570
C23	C	0.196564	0.063070	0.046312
C24	C	0.171361	0.062803	0.000057
C25	C	0.120957	0.062264	-0.092460
C26	C	0.171374	0.062777	-0.092458
C27	C	0.196578	0.063045	-0.046199
C28	C	0.246979	0.063572	-0.046202
N29	N	0.272186	0.063835	0.000054
C30	C	0.246979	0.063584	0.046311
C31	C	-0.211784	0.058880	-0.046188
C32	C	-0.262199	0.058366	-0.046187
C33	C	-0.262199	0.058378	0.046330
C34	C	-0.211785	0.058895	0.046328
C35	C	-0.186578	0.059142	0.000068
C36	C	0.352845	0.064672	0.046303
C37	C	0.403261	0.065192	0.046297
C38	C	0.403257	0.065178	-0.046220
C39	C	0.352846	0.064660	-0.046214
C40	C	0.327642	0.064406	0.000052
O41	O	0.273090	0.063849	-0.085521
O42	O	0.273055	0.063848	0.085649
C43	C	0.045331	0.061516	0.046318
C44	C	0.020127	0.061249	0.000063
C45	C	0.045335	0.061500	-0.046194
C46	C	-0.030287	0.060735	0.000064
C47	C	-0.055494	0.060484	0.046322
C48	C	-0.030287	0.060746	0.092578
C49	C	0.020124	0.061264	0.092576
C50	C	0.020128	0.061238	-0.092450
C51	C	-0.030283	0.060720	-0.092445
C52	C	-0.055491	0.060469	-0.046187
C53	C	0.574737	-0.026628	0.000071
C54	C	0.574194	-0.080284	0.000076
C55	C	0.570787	-0.413006	-0.046206
C56	C	0.568726	-0.614664	-0.046215
O57	O	0.568445	-0.640740	-0.085554
N58	N	0.568462	-0.639874	0.000041
C59	C	0.568710	-0.614667	0.046302
O60	O	0.568434	-0.640737	0.085645
C61	C	0.570768	-0.413010	0.046311
C62	C	0.571037	-0.387802	0.000052
C63	C	0.571055	-0.387798	-0.092461
C64	C	0.571573	-0.337387	-0.092458
C65	C	0.571823	-0.312184	-0.046200
C66	C	0.571555	-0.337391	0.000055
C67	C	0.571013	-0.387803	0.092571
C68	C	0.571526	-0.337385	0.092569
C69	C	0.571795	-0.312178	0.046311
C70	C	0.572322	-0.261777	0.046315
N71	N	0.572586	-0.236566	0.000060
C72	C	0.572336	-0.261769	-0.046198
C73	C	0.567631	-0.720540	0.046294
C74	C	0.567118	-0.770954	0.046292
C75	C	0.567132	-0.770947	-0.046225
C76	C	0.567649	-0.720533	-0.046222
C77	C	0.567895	-0.695329	0.000038
C78	C	0.573424	-0.155903	-0.046189
C79	C	0.573944	-0.105487	-0.046182
C80	C	0.573927	-0.105498	0.046335
C81	C	0.573410	-0.155910	0.046328
C82	C	0.573157	-0.181110	0.000062
O83	O	0.572598	-0.235669	0.085634
O84	O	0.572602	-0.235689	-0.085535
C85	C	0.570269	-0.463417	-0.046209
C86	C	0.570001	-0.488624	0.000046
C87	C	0.570251	-0.463421	0.046304
C88	C	0.569487	-0.539039	0.000044
C89	C	0.569238	-0.564242	-0.046213
C90	C	0.569502	-0.539031	-0.092469
C91	C	0.570020	-0.488620	-0.092466
C92	C	0.569987	-0.488632	0.092560
C93	C	0.569469	-0.539043	0.092553
C94	C	0.569220	-0.564246	0.046296
C95	C	0.658938	0.057573	0.000067
C96	C	0.712594	0.058115	0.000070
C97	C	0.566325	0.150186	0.000043
C98	C	0.566868	0.203842	0.000034
N99	N	0.570514	0.061795	0.120818
N100	N	0.570552	0.061759	-0.120704
C101	C	0.603651	0.028664	0.473342
C102	C	0.603662	0.028658	0.687000
O103	O	0.631818	0.000491	0.714630
N104	N	0.570542	0.061762	0.713712
C105	C	0.537415	0.094867	0.687007
O106	O	0.509242	0.123021	0.714630
C107	C	0.537403	0.094872	0.473349
C108	C	0.570528	0.061769	0.446640
C109	C	0.636773	-0.004436	0.446632
C110	C	0.636772	-0.004432	0.393221
C111	C	0.603649	0.028672	0.366519
C112	C	0.570527	0.061773	0.393228
C113	C	0.504274	0.127975	0.446644
C114	C	0.504273	0.127972	0.393226
C115	C	0.537398	0.094869	0.366517
C116	C	0.537402	0.094881	0.313115
N117	N	0.570522	0.061777	0.286403
C118	C	0.603645	0.028672	0.313105
C119	C	0.537425	0.094864	0.799180
C120	C	0.537429	0.094863	0.852594
C121	C	0.603675	0.028653	0.852584
C122	C	0.603673	0.028656	0.799169
C123	C	0.570545	0.061760	0.772468
C124	C	0.603640	0.028683	0.200937
C125	C	0.603637	0.028691	0.147520
C126	C	0.537390	0.094900	0.147535
C127	C	0.537394	0.094894	0.200947
C128	C	0.570521	0.061781	0.227646
O129	O	0.509257	0.123029	0.285452
O130	O	0.631807	0.000516	0.285472
C131	C	0.603652	0.028661	0.526753
C132	C	0.570530	0.061761	0.553463
C133	C	0.537407	0.094865	0.526761
C134	C	0.570534	0.061761	0.606877
C135	C	0.603657	0.028657	0.633579
C136	C	0.636777	-0.004447	0.606867
C137	C	0.636776	-0.004444	0.553455
C138	C	0.504287	0.127969	0.553473
C139	C	0.504292	0.127963	0.606884
C140	C	0.537415	0.094859	0.633586
H141	H	0.423779	0.065411	0.083969
N142	N	-0.186041	0.059178	0.093579
N143	N	-0.196394	0.093217	0.124541
H144	H	-0.178214	0.093418	0.157913
N145	N	0.327112	0.064410	0.093566
N146	N	0.349630	0.064648	0.134859
H147	H	0.331456	0.064466	0.168239
H148	H	0.567867	-0.700012	-0.083890
H149	H	0.570238	-0.468101	-0.130135
H150	H	0.571790	-0.316867	-0.130126
N151	N	0.470446	0.161788	0.526210
N152	N	0.440878	0.191339	0.550072
H153	H	0.416976	0.215226	0.530820
H154	H	0.570850	-0.408313	-0.130131
N155	N	0.670610	-0.038254	0.526169
N156	N	0.700498	-0.023133	0.496361
H157	H	0.724394	-0.047013	0.477092
H158	H	0.191874	0.063033	0.130239
N159	N	-0.056049	0.060495	0.139824
N160	N	-0.101061	0.060035	0.139812
H161	H	-0.119259	0.059857	0.173178
H162	H	0.477295	0.154929	0.371489
H163	H	0.566906	-0.791475	0.083961
H164	H	0.100428	0.062095	0.130242
N165	N	-0.287953	0.058131	0.093583
N166	N	-0.320804	0.091933	0.103898
H167	H	-0.338993	0.091757	0.137269
H168	H	0.663746	-0.031396	0.468368
H169	H	0.571719	-0.316866	0.130242
H170	H	0.573195	-0.176435	0.083996
H171	H	-0.050800	0.060507	-0.130117
N172	N	0.570743	-0.413536	0.139829
N173	N	0.570964	-0.391017	0.181122
H174	H	0.570774	-0.409190	0.214502
H175	H	0.566929	-0.791477	-0.083890
H176	H	0.574164	-0.084966	-0.083853
H177	H	0.567833	-0.700025	0.083967
H178	H	0.574133	-0.084969	0.083997
N179	N	0.569240	-0.564773	-0.139725
N180	N	0.569475	-0.542265	-0.181026
H181	H	0.569287	-0.560447	-0.214399
N182	N	0.045865	0.061492	-0.139708
N183	N	0.023348	0.061256	-0.181001
H184	H	0.041522	0.061438	-0.214381
H185	H	0.569254	-0.559563	0.130225
H186	H	0.510425	0.121854	0.222694
H187	H	0.100445	0.062046	-0.130130
H188	H	0.040640	0.061482	0.130245
N189	N	0.503587	0.128678	0.771900
N190	N	0.473696	0.113559	0.742098
H191	H	0.449800	0.137441	0.722832
H192	H	0.570191	-0.468116	0.130229
N193	N	0.637474	-0.005132	0.120246
N194	N	0.667040	-0.034691	0.144098
H195	H	0.690934	-0.058582	0.124837
N196	N	0.637480	-0.005145	0.228196
N197	N	0.667048	-0.034694	0.204334
H198	H	0.690949	-0.058584	0.223585
N199	N	0.503562	0.128712	0.120246
N200	N	0.503569	0.128705	0.072556
H201	H	0.479676	0.152584	0.053281
H202	H	0.332323	0.064450	-0.083882
H203	H	-0.282716	0.058156	-0.083856
H204	H	0.663744	-0.031389	0.371477
H205	H	0.630646	0.001700	0.777425
H206	H	0.573216	-0.176415	-0.083863
H207	H	0.630646	0.001699	0.874334
N208	N	0.503596	0.128687	0.879866
N209	N	0.474026	0.158240	0.856012
H210	H	0.450128	0.182129	0.875270
N211	N	0.197115	0.063026	-0.139718
N212	N	0.174602	0.062786	-0.181013
H213	H	0.192780	0.062961	-0.214391
N214	N	0.470437	0.161796	0.473910
N215	N	0.440867	0.191347	0.450053
H216	H	0.416968	0.215235	0.469308
H217	H	0.663749	-0.031401	0.628616
H218	H	0.423790	0.065384	-0.083881
N219	N	0.470446	0.161780	0.634155
N220	N	0.425774	0.161429	0.628184
H221	H	0.401868	0.185309	0.647442
N222	N	-0.186047	0.059131	-0.093450
N223	N	-0.208565	0.058897	-0.134743
H224	H	-0.190391	0.059076	-0.168123
