data_functionalizedCrystal
_audit_creation_method	'MofGen! by Chris Wilmer'
_symmetry_space_group_name_H-M	'P1'
_symmetry_Int_Tables_number	1
_symmetry_cell_setting	triclinic
loop_
_symmetry_equiv_pos_as_xyz
  x,y,z
_cell_length_a	17.699083
_cell_length_b	14.472311
_cell_length_c	17.699083
_cell_angle_alpha	89.996457
_cell_angle_beta	83.283015
_cell_angle_gamma	90.003549
loop_
_atom_site_label
_atom_site_type_symbol
_atom_site_fract_x
_atom_site_fract_y
_atom_site_fract_z
O1	O	1.004074	-0.076713	0.095709
O2	O	1.504074	0.423287	0.595709
O3	O	0.783695	-0.076744	0.108162
O4	O	1.283695	0.423256	0.608162
O5	O	0.900111	-0.076719	-0.008254
O6	O	1.400111	0.423281	0.491746
O7	O	0.887658	-0.076738	0.212125
O8	O	1.387658	0.423262	0.712125
O9	O	0.900105	0.076963	-0.008253
O10	O	1.400105	0.576963	0.491747
O11	O	0.783689	0.076938	0.108162
O12	O	1.283689	0.576938	0.608162
O13	O	1.004068	0.076969	0.095710
O14	O	1.504068	0.576969	0.595710
Cu15	Cu	0.893878	0.090986	0.101936
Cu16	Cu	1.393878	0.590986	0.601936
Cu17	Cu	0.893885	-0.090761	0.101935
Cu18	Cu	1.393885	0.409239	0.601935
O19	O	0.887652	0.076944	0.212125
O20	O	1.387652	0.576944	0.712125
C21	C	0.755495	0.000093	0.107716
C22	C	1.255495	0.500093	0.607716
C23	C	0.671477	0.000082	0.106377
C24	C	1.171477	0.500082	0.606377
C25	C	0.622856	0.000077	0.174710
C26	C	1.122856	0.500077	0.674710
C27	C	0.543913	0.000089	0.173448
C28	C	1.043913	0.500089	0.673448
C29	C	0.513592	0.000100	0.103852
C30	C	1.013592	0.500100	0.603852
C31	C	0.562219	0.000108	0.035513
C32	C	1.062219	0.500108	0.535513
C33	C	0.641161	0.000102	0.036776
C34	C	1.141161	0.500102	0.536776
C35	C	0.243856	0.000131	0.030418
C36	C	0.743856	0.500131	0.530418
C37	C	0.164908	0.000134	0.029160
C38	C	0.664908	0.500134	0.529160
C39	C	0.146608	0.000118	0.167090
C40	C	0.646608	0.500118	0.667090
C41	C	0.225550	0.000112	0.168353
C42	C	0.725550	0.500112	0.668353
C43	C	0.274170	0.000125	0.100015
C44	C	0.774170	0.500125	0.600015
C45	C	0.359769	0.000114	0.101384
C46	C	0.859769	0.500114	0.601384
C47	C	0.427995	0.000104	0.102481
C48	C	0.927995	0.500104	0.602481
N49	N	0.893891	-0.218592	0.101929
N50	N	1.393891	0.281408	0.601929
C51	C	0.893883	-0.592683	0.101934
C52	C	1.393883	-0.092683	0.601934
C53	C	0.956105	-0.553475	0.039579
C54	C	1.456105	-0.053475	0.539579
C55	C	0.956328	-0.446387	0.039737
C56	C	1.456328	0.053613	0.539737
C57	C	0.893887	-0.407092	0.101931
C58	C	1.393887	0.092908	0.601931
C59	C	0.910785	-0.445971	0.180933
C60	C	1.410785	0.054029	0.680933
C61	C	0.911230	-0.553092	0.180568
C62	C	1.411230	-0.053092	0.680568
C63	C	0.814574	-0.553213	0.085998
C64	C	1.314574	-0.053213	0.585998
C65	C	0.815109	-0.446084	0.084200
C66	C	1.315109	0.053916	0.584200
C67	C	0.893887	-0.302204	0.101934
C68	C	1.393887	0.197796	0.601934
C69	C	0.893883	-0.697571	0.101936
C70	C	1.393883	-0.197571	0.601936
C71	C	1.032268	0.000130	0.096156
C72	C	1.532268	0.500130	0.596156
C73	C	1.116286	0.000135	0.097494
C74	C	1.616286	0.500135	0.597494
C75	C	0.899662	0.000122	-0.036451
C76	C	1.399662	0.500122	0.463549
C77	C	0.898323	0.000122	-0.120469
C78	C	1.398323	0.500122	0.379531
N79	N	0.893878	0.218817	0.101936
N80	N	1.393878	0.718817	0.601936
C81	C	0.966656	0.000133	-0.169090
C82	C	1.466656	0.500133	0.330910
C83	C	0.965394	0.000124	-0.248033
C84	C	1.465394	0.500124	0.251967
C85	C	0.895798	0.000112	-0.278354
C86	C	1.395798	0.500112	0.221646
C87	C	0.827459	0.000098	-0.229727
C88	C	1.327459	0.500098	0.270273
C89	C	0.828722	0.000100	-0.150785
C90	C	1.328722	0.500100	0.349215
C91	C	0.822364	0.000090	-0.548090
C92	C	1.322364	0.500090	-0.048090
C93	C	0.821106	0.000091	-0.627038
C94	C	1.321106	0.500091	-0.127038
C95	C	0.959036	0.000114	-0.645338
C96	C	1.459036	0.500114	-0.145338
C97	C	0.960299	0.000116	-0.566396
C98	C	1.460299	0.500116	-0.066396
C99	C	0.891961	0.000098	-0.517776
C100	C	1.391961	0.500098	-0.017776
C101	C	0.893330	0.000105	-0.432177
C102	C	1.393330	0.500105	0.067823
C103	C	0.894427	0.000111	-0.363951
C104	C	1.394427	0.500111	0.136049
C105	C	0.888102	0.000101	0.240322
C106	C	1.388102	0.500101	0.740322
C107	C	0.889440	0.000095	0.324340
C108	C	1.389440	0.500095	0.824340
H109	H	0.504328	0.000083	0.229092
H110	H	1.004328	0.500083	0.729092
N111	N	1.032749	0.000119	-0.697775
N112	N	1.532749	0.500119	-0.197775
H113	H	1.063113	0.057097	-0.688041
H114	H	1.563113	0.557097	-0.188041
H115	H	1.021333	0.000077	-0.752365
H116	H	1.521333	0.500077	-0.252365
H117	H	0.766718	0.000075	-0.508512
H118	H	1.266718	0.500075	-0.008512
N119	N	0.655550	0.000057	0.249779
N120	N	1.155550	0.500057	0.749779
H121	H	0.637816	0.057025	0.279711
H122	H	1.137816	0.557025	0.779711
H123	H	0.712932	0.000016	0.240153
H124	H	1.212932	0.500016	0.740153
H125	H	0.967951	-0.419133	0.195310
H126	H	1.467951	0.080867	0.695310
H127	H	0.802278	-0.420675	0.026084
H128	H	1.302278	0.079325	0.526084
H129	H	0.107012	0.000112	0.222734
H130	H	0.607012	0.500112	0.722734
H131	H	0.770792	0.000082	-0.254420
H132	H	1.270792	0.500082	0.245580
H133	H	0.946273	-0.579256	-0.019337
H134	H	1.446273	-0.079256	0.480663
N135	N	1.039099	0.000144	-0.300471
N136	N	1.539099	0.500144	0.199529
H137	H	1.041641	0.057112	-0.333637
H138	H	1.541641	0.557112	0.166363
H139	H	1.041612	-0.056866	-0.333579
H140	H	1.541612	0.443134	0.166421
H141	H	0.283434	0.000142	-0.025228
H142	H	0.783434	0.500142	0.474772
N143	N	0.258250	0.000111	0.243418
N144	N	0.758250	0.500111	0.743418
H145	H	0.315638	0.000108	0.233849
H146	H	0.815638	0.500108	0.733849
H147	H	0.240451	-0.056861	0.273317
H148	H	0.740451	0.443139	0.773317
H149	H	0.140225	0.000144	-0.027517
H150	H	0.640225	0.500144	0.472483
H151	H	0.764429	0.000083	-0.651721
H152	H	1.264429	0.500083	-0.151721
N153	N	0.755020	0.000083	-0.098340
N154	N	1.255020	0.500083	0.401660
H155	H	0.710739	0.000076	-0.129525
H156	H	1.210739	0.500076	0.370475
H157	H	0.752535	0.057053	-0.065188
H158	H	1.252535	0.557053	0.434812
H159	H	0.537526	0.000130	-0.021154
H160	H	1.037526	0.500130	0.478846
N161	N	1.035366	0.000135	-0.533698
N162	N	1.535366	0.500135	-0.033698
H163	H	1.065299	-0.056832	-0.551434
H164	H	1.565299	0.443168	-0.051434
H165	H	1.025735	0.000171	-0.476316
H166	H	1.525735	0.500171	0.023684
N167	N	0.693606	0.000115	-0.036926
N168	N	1.193606	0.500115	0.463074
H169	H	0.662421	0.000122	-0.081207
H170	H	1.162421	0.500122	0.418793
H171	H	0.726756	-0.056856	-0.039410
H172	H	1.226756	0.443144	0.460590
N173	N	1.033628	-0.589184	0.052829
N174	N	1.533628	-0.089184	0.552829
H175	H	1.028619	-0.630639	0.099053
H176	H	1.528619	-0.130639	0.599053
H177	H	1.067969	-0.535388	0.061388
H178	H	1.567969	-0.035388	0.561388
H179	H	0.946318	-0.420100	-0.018987
H180	H	1.446318	0.079900	0.481013
H181	H	1.015189	-0.420752	0.049922
H182	H	1.515189	0.079248	0.549922
H183	H	0.969058	-0.578068	0.194605
H184	H	1.469058	-0.078068	0.694605
N185	N	0.750932	-0.410673	0.140461
N186	N	1.250932	0.089327	0.640461
H187	H	0.701091	-0.436866	0.127646
H188	H	1.201091	0.063134	0.627646
H189	H	0.749269	-0.340999	0.137887
H190	H	1.249269	0.159001	0.637887
H191	H	0.866655	-0.420519	0.228451
H192	H	1.366655	0.079481	0.728451
N193	N	0.853463	-0.587459	0.243879
N194	N	1.353463	-0.087459	0.743879
H195	H	0.827824	-0.533019	0.271903
H196	H	1.327824	-0.033019	0.771903
H197	H	0.879905	-0.626146	0.280357
H198	H	1.379905	-0.126146	0.780357
H199	H	0.798249	-0.580232	0.029621
H200	H	1.298249	-0.080232	0.529621
H201	H	1.023330	0.000148	-0.144409
H202	H	1.523330	0.500148	0.355591
N203	N	0.753240	-0.586796	0.146227
N204	N	1.253240	-0.086796	0.646227
H205	H	0.776669	-0.627379	0.183660
H206	H	1.276669	-0.127379	0.683660
H207	H	0.714282	-0.623415	0.121412
H208	H	1.214282	-0.123415	0.621412
