data_functionalizedCrystal
_audit_creation_method	'MofGen! by Chris Wilmer'
_symmetry_space_group_name_H-M	'P1'
_symmetry_Int_Tables_number	1
_symmetry_cell_setting	triclinic
loop_
_symmetry_equiv_pos_as_xyz
  x,y,z
_cell_length_a	23.532407
_cell_length_b	23.532407
_cell_length_c	15.186229
_cell_angle_alpha	89.999328
_cell_angle_beta	89.991614
_cell_angle_gamma	82.848712
loop_
_atom_site_label
_atom_site_type_symbol
_atom_site_fract_x
_atom_site_fract_y
_atom_site_fract_z
O1	O	0.069135	0.755259	-0.073182
O2	O	0.319135	1.005259	0.176818
O3	O	0.569135	1.255259	0.426818
O4	O	0.819135	1.505259	0.676818
O5	O	0.079138	0.589395	-0.073197
O6	O	0.329138	0.839395	0.176803
O7	O	0.579138	1.089395	0.426803
O8	O	0.829138	1.339395	0.676803
O9	O	-0.008796	0.677329	-0.073173
O10	O	0.241204	0.927329	0.176827
O11	O	0.491204	1.177329	0.426827
O12	O	0.741204	1.427329	0.676827
O13	O	0.157068	0.667325	-0.073206
O14	O	0.407068	0.917325	0.176794
O15	O	0.657068	1.167325	0.426794
O16	O	0.907068	1.417325	0.676794
O17	O	-0.008797	0.677323	0.073284
O18	O	0.241203	0.927323	0.323284
O19	O	0.491203	1.177323	0.573284
O20	O	0.741203	1.427323	0.823284
O21	O	0.079136	0.589389	0.073260
O22	O	0.329136	0.839389	0.323260
O23	O	0.579136	1.089389	0.573260
O24	O	0.829136	1.339389	0.823260
O25	O	0.069133	0.755253	0.073275
O26	O	0.319133	1.005253	0.323275
O27	O	0.569133	1.255253	0.573275
O28	O	0.819133	1.505253	0.823275
Zn29	Zn	0.074135	0.672320	0.096521
Zn30	Zn	0.324135	0.922320	0.346521
Zn31	Zn	0.574135	1.172320	0.596521
Zn32	Zn	0.824135	1.422320	0.846521
Zn33	Zn	0.074136	0.672328	-0.096443
Zn34	Zn	0.324136	0.922328	0.153557
Zn35	Zn	0.574136	1.172328	0.403557
Zn36	Zn	0.824136	1.422328	0.653557
O37	O	0.157067	0.667319	0.073251
O38	O	0.407067	0.917319	0.323251
O39	O	0.657067	1.167319	0.573251
O40	O	0.907067	1.417319	0.823251
C41	C	0.078882	0.568176	0.000030
C42	C	0.328882	0.818176	0.250030
C43	C	0.578882	1.068176	0.500030
C44	C	0.828882	1.318176	0.750030
C45	C	0.078116	0.504959	0.000025
C46	C	0.328116	0.754959	0.250025
C47	C	0.578116	1.004959	0.500025
C48	C	0.828116	1.254959	0.750025
C49	C	0.022921	0.238792	0.000060
C50	C	0.272921	0.488792	0.250060
C51	C	0.522921	0.738792	0.500060
C52	C	0.772921	0.988792	0.750060
C53	C	0.023632	0.298192	0.000059
C54	C	0.273632	0.548192	0.250059
C55	C	0.523632	0.798192	0.500059
C56	C	0.773632	1.048192	0.750059
O57	O	-0.020153	0.334937	0.000099
O58	O	0.229847	0.584937	0.250099
O59	O	0.479847	0.834937	0.500099
O60	O	0.729847	1.084937	0.750099
N61	N	0.075909	0.320818	0.000043
N62	N	0.325909	0.570818	0.250043
N63	N	0.575909	0.820818	0.500043
N64	N	0.825909	1.070818	0.750043
C65	C	0.127477	0.284041	0.000036
C66	C	0.377477	0.534041	0.250036
C67	C	0.627477	0.784041	0.500036
C68	C	0.877477	1.034041	0.750036
O69	O	0.172007	0.308740	0.000023
O70	O	0.422007	0.558740	0.250023
O71	O	0.672007	0.808740	0.500023
O72	O	0.922007	1.058740	0.750023
C73	C	0.126765	0.224642	0.000043
C74	C	0.376765	0.474642	0.250043
C75	C	0.626765	0.724642	0.500043
C76	C	0.876765	0.974642	0.750043
C77	C	0.074485	0.202019	0.000050
C78	C	0.324485	0.452019	0.250050
C79	C	0.574485	0.702019	0.500050
C80	C	0.824485	0.952019	0.750050
C81	C	-0.029354	0.216169	0.000068
C82	C	0.220646	0.466169	0.250068
C83	C	0.470646	0.716169	0.500068
C84	C	0.720646	0.966169	0.750068
C85	C	-0.030066	0.156772	0.000067
C86	C	0.219934	0.406772	0.250067
C87	C	0.469934	0.656772	0.500067
C88	C	0.719934	0.906772	0.750067
C89	C	0.021499	0.119999	0.000057
C90	C	0.271499	0.369999	0.250057
C91	C	0.521499	0.619999	0.500057
C92	C	0.771499	0.869999	0.750057
C93	C	0.073774	0.142623	0.000049
C94	C	0.323774	0.392623	0.250049
C95	C	0.573774	0.642623	0.500049
C96	C	0.823774	0.892623	0.750049
C97	C	0.178333	0.187865	0.000042
C98	C	0.428333	0.437865	0.250042
C99	C	0.678333	0.687865	0.500042
C100	C	0.928333	0.937865	0.750042
C101	C	0.177616	0.128463	0.000049
C102	C	0.427616	0.378463	0.250049
C103	C	0.677616	0.628463	0.500049
C104	C	0.927616	0.878463	0.750049
C105	C	0.125336	0.105840	0.000057
C106	C	0.375336	0.355840	0.250057
C107	C	0.625336	0.605840	0.500057
C108	C	0.875336	0.855840	0.750057
C109	C	0.124627	0.046454	0.000038
C110	C	0.374627	0.296454	0.250038
C111	C	0.624627	0.546454	0.500038
C112	C	0.874627	0.796454	0.750038
N113	N	0.072351	0.023828	0.000054
N114	N	0.322351	0.273828	0.250054
N115	N	0.572351	0.523828	0.500054
N116	N	0.822351	0.773828	0.750054
C117	C	0.020787	0.060600	0.000064
C118	C	0.270787	0.310600	0.250064
C119	C	0.520787	0.560600	0.500064
C120	C	0.770787	0.810600	0.750064
C121	C	0.128968	0.408783	0.000023
C122	C	0.378968	0.658783	0.250023
C123	C	0.628968	0.908783	0.500023
C124	C	0.878968	1.158783	0.750023
C125	C	0.129681	0.468181	0.000010
C126	C	0.379681	0.718181	0.250010
C127	C	0.629681	0.968181	0.500010
C128	C	0.879681	1.218181	0.750010
C129	C	0.025836	0.482328	0.000036
C130	C	0.275836	0.732328	0.250036
C131	C	0.525836	0.982328	0.500036
C132	C	0.775836	1.232328	0.750036
C133	C	0.025124	0.422929	0.000042
C134	C	0.275124	0.672929	0.250042
C135	C	0.525124	0.922929	0.500042
C136	C	0.775124	1.172929	0.750042
C137	C	0.076692	0.386157	0.000040
C138	C	0.326692	0.636157	0.250040
C139	C	0.576692	0.886157	0.500040
C140	C	0.826692	1.136157	0.750040
C141	C	0.019297	-0.064136	0.000060
C142	C	0.269297	0.185864	0.250060
C143	C	0.519297	0.435864	0.500060
C144	C	0.769297	0.685864	0.750060
C145	C	0.018590	-0.123538	0.000056
C146	C	0.268590	0.126462	0.250056
C147	C	0.518590	0.376462	0.500056
C148	C	0.768590	0.626462	0.750056
C149	C	0.122435	-0.137680	0.000035
C150	C	0.372435	0.112320	0.250035
C151	C	0.622435	0.362320	0.500035
C152	C	0.872435	0.612320	0.750035
C153	C	0.123142	-0.078284	0.000035
C154	C	0.373142	0.171716	0.250035
C155	C	0.623142	0.421716	0.500035
C156	C	0.873142	0.671716	0.750035
C157	C	0.071568	-0.041512	0.000051
C158	C	0.321568	0.208488	0.250051
C159	C	0.571568	0.458488	0.500051
C160	C	0.821568	0.708488	0.750051
O161	O	0.168390	0.009675	0.000002
O162	O	0.418390	0.259675	0.250002
O163	O	0.668390	0.509675	0.500002
O164	O	0.918390	0.759675	0.750002
O165	O	-0.023737	0.035892	0.000089
O166	O	0.226263	0.285892	0.250089
O167	O	0.476263	0.535892	0.500089
O168	O	0.726263	0.785892	0.750089
C169	C	-0.030012	0.677071	0.000058
C170	C	0.219988	0.927071	0.250058
C171	C	0.469988	1.177071	0.500058
C172	C	0.719988	1.427071	0.750058
C173	C	-0.093229	0.676305	0.000065
C174	C	0.156771	0.926305	0.250065
C175	C	0.406771	1.176305	0.500065
C176	C	0.656771	1.426305	0.750065
C177	C	-0.492332	0.723538	0.000021
C178	C	-0.242332	0.973538	0.250021
C179	C	0.007668	1.223538	0.500021
C180	C	0.257668	1.473538	0.750021
C181	C	-0.551733	0.722827	0.000014
C182	C	-0.301733	0.972827	0.250014
C183	C	-0.051733	1.222827	0.500014
C184	C	0.198267	1.472827	0.750014
O185	O	-0.588477	0.766613	-0.000015
O186	O	-0.338477	1.016613	0.249985
O187	O	-0.088477	1.266613	0.499985
O188	O	0.161523	1.516613	0.749985
N189	N	-0.574359	0.670551	0.000010
N190	N	-0.324359	0.920551	0.250010
N191	N	-0.074359	1.170551	0.500010
N192	N	0.175641	1.420551	0.750010
C193	C	-0.537581	0.618982	0.000003
C194	C	-0.287581	0.868982	0.250003
C195	C	-0.037581	1.118982	0.500003
C196	C	0.212419	1.368982	0.750003
O197	O	-0.562281	0.574452	-0.000001
O198	O	-0.312281	0.824452	0.249999
O199	O	-0.062281	1.074452	0.499999
O200	O	0.187719	1.324452	0.749999
C201	C	-0.478182	0.619695	0.000004
C202	C	-0.228182	0.869695	0.250004
C203	C	0.021818	1.119695	0.500004
C204	C	0.271818	1.369695	0.750004
C205	C	-0.455559	0.671974	0.000017
C206	C	-0.205559	0.921974	0.250017
C207	C	0.044441	1.171974	0.500017
C208	C	0.294441	1.421974	0.750017
C209	C	-0.469709	0.775814	0.000033
C210	C	-0.219709	1.025814	0.250033
C211	C	0.030291	1.275814	0.500033
C212	C	0.280291	1.525814	0.750033
C213	C	-0.410313	0.776525	0.000041
C214	C	-0.160313	1.026525	0.250041
C215	C	0.089687	1.276525	0.500041
C216	C	0.339687	1.526525	0.750041
C217	C	-0.373540	0.724961	0.000038
C218	C	-0.123540	0.974961	0.250038
C219	C	0.126460	1.224961	0.500038
C220	C	0.376460	1.474961	0.750038
C221	C	-0.396163	0.672685	0.000025
C222	C	-0.146163	0.922685	0.250025
C223	C	0.103837	1.172685	0.500025
C224	C	0.353837	1.422685	0.750025
C225	C	-0.441406	0.568127	-0.000009
C226	C	-0.191406	0.818127	0.249991
C227	C	0.058594	1.068127	0.499991
C228	C	0.308594	1.318127	0.749991
C229	C	-0.382003	0.568843	-0.000009
C230	C	-0.132003	0.818843	0.249991
C231	C	0.117997	1.068843	0.499991
C232	C	0.367997	1.318843	0.749991
C233	C	-0.359381	0.621123	0.000004
C234	C	-0.109381	0.871123	0.250004
C235	C	0.140619	1.121123	0.500004
C236	C	0.390619	1.371123	0.750004
C237	C	-0.299994	0.621832	0.000030
C238	C	-0.049994	0.871832	0.250030
C239	C	0.200006	1.121832	0.500030
C240	C	0.450006	1.371832	0.750030
N241	N	-0.277368	0.674109	0.000034
N242	N	-0.027368	0.924109	0.250034
N243	N	0.222632	1.174109	0.500034
N244	N	0.472632	1.424109	0.750034
C245	C	-0.314141	0.725673	0.000038
C246	C	-0.064141	0.975673	0.250038
C247	C	0.185859	1.225673	0.500038
C248	C	0.435859	1.475673	0.750038
C249	C	-0.662324	0.617491	0.000001
C250	C	-0.412324	0.867491	0.250001
C251	C	-0.162324	1.117491	0.500001
C252	C	0.087676	1.367491	0.750001
C253	C	-0.721722	0.616778	0.000007
C254	C	-0.471722	0.866778	0.250007
C255	C	-0.221722	1.116778	0.500007
C256	C	0.028278	1.366778	0.750007
C257	C	-0.735869	0.720623	0.000016
C258	C	-0.485869	0.970623	0.250016
C259	C	-0.235869	1.220623	0.500016
C260	C	0.014131	1.470623	0.750016
C261	C	-0.676470	0.721335	0.000016
C262	C	-0.426470	0.971335	0.250016
C263	C	-0.176470	1.221335	0.500016
C264	C	0.073530	1.471335	0.750016
C265	C	-0.639698	0.669767	0.000005
C266	C	-0.389698	0.919767	0.250005
C267	C	-0.139698	1.169767	0.500005
C268	C	0.110302	1.419767	0.750005
C269	C	-0.189404	0.727163	0.000056
C270	C	0.060596	0.977163	0.250056
C271	C	0.310596	1.227163	0.500056
C272	C	0.560596	1.477163	0.750056
C273	C	-0.130002	0.727869	0.000068
C274	C	0.119998	0.977869	0.250068
C275	C	0.369998	1.227869	0.500068
C276	C	0.619998	1.477869	0.750068
C277	C	-0.115860	0.624025	0.000055
C278	C	0.134140	0.874025	0.250055
C279	C	0.384140	1.124025	0.500055
C280	C	0.634140	1.374025	0.750055
C281	C	-0.175257	0.623318	0.000047
C282	C	0.074743	0.873318	0.250047
C283	C	0.324743	1.123318	0.500047
C284	C	0.574743	1.373318	0.750047
C285	C	-0.212028	0.674891	0.000045
C286	C	0.037972	0.924891	0.250045
C287	C	0.287972	1.174891	0.500045
C288	C	0.537972	1.424891	0.750045
O289	O	-0.263215	0.578069	0.000055
O290	O	-0.013215	0.828069	0.250055
O291	O	0.236785	1.078069	0.500055
O292	O	0.486785	1.328069	0.750055
O293	O	-0.289433	0.770196	0.000031
O294	O	-0.039433	1.020196	0.250031
O295	O	0.210567	1.270196	0.500031
O296	O	0.460567	1.520196	0.750031
C297	C	0.178283	0.667577	0.000018
C298	C	0.428283	0.917577	0.250018
C299	C	0.678283	1.167577	0.500018
C300	C	0.928283	1.417577	0.750018
C301	C	0.241500	0.668343	0.000006
C302	C	0.491500	0.918343	0.250006
C303	C	0.741500	1.168343	0.500006
C304	C	0.991500	1.418343	0.750006
N305	N	0.074133	0.672319	0.228214
N306	N	0.324133	0.922319	0.478214
N307	N	0.574133	1.172319	0.728214
N308	N	0.824133	1.422319	0.978214
C309	C	0.069389	0.776472	0.000047
C310	C	0.319389	1.026472	0.250047
C311	C	0.569389	1.276472	0.500047
C312	C	0.819389	1.526472	0.750047
C313	C	0.070155	0.839689	0.000046
C314	C	0.320155	1.089689	0.250046
C315	C	0.570155	1.339689	0.500046
C316	C	0.820155	1.589689	0.750046
N317	N	0.074133	0.672333	-0.228135
N318	N	0.324133	0.922333	0.021865
N319	N	0.574133	1.172333	0.271865
N320	N	0.824133	1.422333	0.521865
C321	C	0.035209	0.711269	0.453947
C322	C	0.285209	0.961269	0.703947
C323	C	0.535209	1.211269	0.953947
C324	C	0.785209	1.461269	1.203947
C325	C	0.035208	0.711271	0.546137
C326	C	0.285208	0.961271	0.796137
C327	C	0.535208	1.211271	1.046137
C328	C	0.785208	1.461271	1.296137
C329	C	0.113059	0.633379	0.546125
C330	C	0.363059	0.883379	0.796125
C331	C	0.613059	1.133379	1.046125
C332	C	0.863059	1.383379	1.296125
C333	C	0.113057	0.633375	0.453937
C334	C	0.363057	0.883375	0.703937
C335	C	0.613057	1.133375	0.953937
C336	C	0.863057	1.383375	1.203937
C337	C	0.074133	0.672323	0.407850
C338	C	0.324133	0.922323	0.657850
C339	C	0.574133	1.172323	0.907850
C340	C	0.824133	1.422323	1.157850
C341	C	0.074133	0.672329	0.592228
C342	C	0.324133	0.922329	0.842228
C343	C	0.574133	1.172329	1.092228
C344	C	0.824133	1.422329	1.342228
C345	C	0.074132	0.672331	0.692184
C346	C	0.324132	0.922331	0.942184
C347	C	0.574132	1.172331	1.192184
C348	C	0.824132	1.422331	1.442184
C349	C	0.074133	0.672321	0.307888
C350	C	0.324133	0.922321	0.557888
C351	C	0.574133	1.172321	0.807888
C352	C	0.824133	1.422321	1.057888
H353	H	-0.071347	0.246104	0.000079
H354	H	0.178653	0.496104	0.250079
H355	H	0.428653	0.746104	0.500079
H356	H	0.678653	0.996104	0.750079
H357	H	0.144751	0.601669	0.583657
H358	H	0.394751	0.851669	0.833657
H359	H	0.644751	1.101669	1.083657
H360	H	0.894751	1.351669	1.333657
H361	H	-0.219337	0.769159	0.000051
H362	H	0.030663	1.019159	0.250051
H363	H	0.280663	1.269159	0.500051
H364	H	0.530663	1.519159	0.750051
H365	H	-0.765821	0.762610	0.000015
H366	H	-0.515821	1.012610	0.250015
H367	H	-0.265821	1.262610	0.500015
H368	H	-0.015821	1.512610	0.750015
Br369	Br	-0.017622	0.764125	0.608696
Br370	Br	0.232378	1.014125	0.858696
Br371	Br	0.482378	1.264125	1.108696
Br372	Br	0.732378	1.514125	1.358696
H373	H	-0.023984	-0.141954	0.000059
H374	H	0.226016	0.108046	0.250059
H375	H	0.476016	0.358046	0.500059
H376	H	0.726016	0.608046	0.750059
Br377	Br	-0.050696	-0.014242	0.000082
Br378	Br	0.199304	0.235758	0.250082
Br379	Br	0.449304	0.485758	0.500082
Br380	Br	0.699304	0.735758	0.750082
H381	H	0.144754	0.601658	0.416402
H382	H	0.394754	0.851658	0.666402
H383	H	0.644754	1.101658	0.916402
H384	H	0.894754	1.351658	1.166402
Br385	Br	-0.045829	0.392234	0.000055
Br386	Br	0.204171	0.642234	0.250055
Br387	Br	0.454171	0.892234	0.500055
Br388	Br	0.704171	1.142234	0.750055
H389	H	-0.193677	0.580747	0.000061
H390	H	0.056323	0.830747	0.250061
H391	H	0.306323	1.080747	0.500061
H392	H	0.556323	1.330747	0.750061
H393	H	0.172252	0.486595	-0.000008
H394	H	0.422252	0.736595	0.249992
H395	H	0.672252	0.986595	0.499992
H396	H	0.922252	1.236595	0.749992
H397	H	-0.072637	0.138359	0.000077
H398	H	0.177363	0.388359	0.250077
H399	H	0.427363	0.638359	0.500077
H400	H	0.677363	0.888359	0.750077
Br401	Br	-0.332101	0.498854	-0.000028
Br402	Br	-0.082101	0.748854	0.249972
Br403	Br	0.167899	0.998854	0.499972
Br404	Br	0.417899	1.248854	0.749972
Br405	Br	-0.752416	0.545825	0.000010
Br406	Br	-0.502416	0.795825	0.250010
Br407	Br	-0.252416	1.045825	0.500010
Br408	Br	-0.002416	1.295825	0.750010
H409	H	-0.016150	0.512280	0.000044
H410	H	0.233850	0.762280	0.250044
H411	H	0.483850	1.012280	0.500044
H412	H	0.733850	1.262280	0.750044
H413	H	0.170964	0.378846	0.000015
H414	H	0.420964	0.628846	0.250015
H415	H	0.670964	0.878846	0.500015
H416	H	0.920964	1.128846	0.750015
H417	H	0.003514	0.742982	0.416426
H418	H	0.253514	0.992982	0.666426
H419	H	0.503514	1.242982	0.916426
H420	H	0.753514	1.492982	1.166426
H421	H	0.220904	0.206274	0.000032
H422	H	0.470904	0.456274	0.250032
H423	H	0.720904	0.706274	0.500032
H424	H	0.970904	0.956274	0.750032
H425	H	-0.111587	0.770443	0.000081
H426	H	0.138413	1.020443	0.250081
H427	H	0.388413	1.270443	0.500081
H428	H	0.638413	1.520443	0.750081
H429	H	0.219610	0.098525	0.000051
H430	H	0.469610	0.348525	0.250051
H431	H	0.719610	0.598525	0.500051
H432	H	0.969610	0.848525	0.750051
H433	H	0.165712	-0.059864	0.000028
H434	H	0.415712	0.190136	0.250028
H435	H	0.665712	0.440136	0.500028
H436	H	0.915712	0.690136	0.750028
H437	H	-0.085909	0.582043	0.000055
H438	H	0.164091	0.832043	0.250055
H439	H	0.414091	1.082043	0.500055
H440	H	0.664091	1.332043	0.750055
H441	H	0.164417	-0.167631	0.000023
H442	H	0.414417	0.082369	0.250023
H443	H	0.664417	0.332369	0.500023
H444	H	0.914417	0.582369	0.750023
H445	H	-0.499644	0.817806	0.000033
H446	H	-0.249644	1.067806	0.250033
H447	H	0.000356	1.317806	0.500033
H448	H	0.250356	1.567806	0.750033
Br449	Br	-0.645774	0.792288	0.000036
Br450	Br	-0.395774	1.042288	0.250036
Br451	Br	-0.145774	1.292288	0.500036
Br452	Br	0.104226	1.542288	0.750036
Br453	Br	-0.612423	0.547499	-0.000006
Br454	Br	-0.362423	0.797499	0.249994
Br455	Br	-0.112423	1.047499	0.499994
Br456	Br	0.137577	1.297499	0.749994
Br457	Br	-0.379620	0.847480	0.000034
Br458	Br	-0.129620	1.097480	0.250034
Br459	Br	0.120380	1.347480	0.500034
Br460	Br	0.370380	1.597480	0.750034
Br461	Br	-0.472092	0.497171	-0.000030
Br462	Br	-0.222092	0.747171	0.249970
Br463	Br	0.027908	0.997171	0.499970
Br464	Br	0.277908	1.247171	0.749970
