data_functionalizedCrystal
_audit_creation_method	'MofGen! by Chris Wilmer'
_symmetry_space_group_name_H-M	'P1'
_symmetry_Int_Tables_number	1
_symmetry_cell_setting	triclinic
loop_
_symmetry_equiv_pos_as_xyz
  x,y,z
_cell_length_a	21.295418
_cell_length_b	21.295417
_cell_length_c	21.295411
_cell_angle_alpha	90.021644
_cell_angle_beta	90.043738
_cell_angle_gamma	90.046319
loop_
_atom_site_label
_atom_site_type_symbol
_atom_site_fract_x
_atom_site_fract_y
_atom_site_fract_z
Zn1	Zn	0.962356	-0.250415	0.356234
Zn2	Zn	1.462356	0.249585	0.856234
Zn3	Zn	0.962258	-0.355667	0.250959
Zn4	Zn	1.462258	0.144333	0.750959
Zn5	Zn	0.857079	-0.250445	0.250943
Zn6	Zn	1.357079	0.249555	0.750943
Zn7	Zn	0.857048	-0.355680	0.356155
Zn8	Zn	1.357048	0.144320	0.856155
O9	O	0.909685	-0.303052	0.303573
O10	O	1.409685	0.196948	0.803573
O11	O	1.050432	-0.264360	0.342308
O12	O	1.550432	0.235640	0.842308
O13	O	0.948278	-0.341716	0.162867
O14	O	1.448278	0.158284	0.662867
O15	O	0.871098	-0.162351	0.264937
O16	O	1.371098	0.337649	0.764937
O17	O	1.050361	-0.341688	0.264963
O18	O	1.550361	0.158312	0.764963
O19	O	0.948444	-0.162330	0.342293
O20	O	1.448444	0.337670	0.842293
O21	O	0.871003	-0.264410	0.162856
O22	O	1.371003	0.235590	0.662856
O23	O	0.768985	-0.264422	0.264861
O24	O	1.268985	0.235578	0.764861
O25	O	0.871046	-0.341709	0.444255
O26	O	1.371046	0.158291	0.944255
O27	O	0.768963	-0.341738	0.342160
O28	O	1.268963	0.158262	0.842160
O29	O	0.948415	-0.264372	0.444313
O30	O	1.448415	0.235628	0.944313
O31	O	0.948248	-0.443758	0.264887
O32	O	1.448248	0.056242	0.764887
O33	O	0.870951	-0.443767	0.342175
O34	O	1.370951	0.056233	0.842175
C35	C	0.746134	-0.303085	0.303500
C36	C	1.246134	0.196915	0.803500
C37	C	0.676166	-0.303114	0.303484
C38	C	1.176166	0.196886	0.803484
C39	C	0.643304	-0.343426	0.343674
C40	C	1.143304	0.156574	0.843674
C41	C	0.577561	-0.343410	0.343702
C42	C	1.077561	0.156590	0.843702
C43	C	0.544683	-0.303090	0.303530
C44	C	1.044683	0.196910	0.803530
C45	C	0.577553	-0.262770	0.263337
C46	C	1.077553	0.237230	0.763337
C47	C	0.643294	-0.262783	0.263315
C48	C	1.143294	0.237217	0.763315
N49	N	0.441407	-0.298163	0.248472
N50	N	0.941407	0.201837	0.748472
N51	N	0.378956	-0.298155	0.248495
N52	N	0.878956	0.201845	0.748495
C53	C	0.346608	-0.303050	0.303596
C54	C	0.846608	0.196950	0.803596
N55	N	0.379072	-0.307965	0.358675
N56	N	0.879072	0.192035	0.858675
N57	N	0.441529	-0.307976	0.358650
N58	N	0.941529	0.192024	0.858650
C59	C	0.473398	-0.303072	0.303550
C60	C	0.973398	0.196928	0.803550
C61	C	0.242461	-0.343346	0.343820
C62	C	0.742461	0.156654	0.843820
C63	C	0.176717	-0.343326	0.343849
C64	C	0.676717	0.156674	0.843849
C65	C	0.176710	-0.262690	0.263479
C66	C	0.676710	0.237310	0.763479
C67	C	0.242453	-0.262707	0.263455
C68	C	0.742453	0.237293	0.763455
C69	C	0.275324	-0.303038	0.303625
C70	C	0.775324	0.196962	0.803625
C71	C	0.909603	-0.466603	0.303538
C72	C	1.409603	0.033397	0.803538
C73	C	0.909625	-0.536571	0.303544
C74	C	1.409625	-0.036571	0.803544
C75	C	0.949910	-0.569412	0.263342
C76	C	1.449910	-0.069412	0.763342
C77	C	0.949939	-0.635155	0.263356
C78	C	1.449939	-0.135155	0.763356
C79	C	0.909673	-0.668054	0.303566
C80	C	1.409673	-0.168054	0.803566
C81	C	0.869386	-0.635205	0.343776
C82	C	1.369386	-0.135205	0.843776
C83	C	0.869362	-0.569464	0.343765
C84	C	1.369362	-0.069464	0.843765
N85	N	0.854606	-0.771336	0.308340
N86	N	1.354606	-0.271336	0.808340
N87	N	0.854630	-0.833787	0.308347
N88	N	1.354630	-0.333787	0.808347
C89	C	0.909743	-0.866129	0.303602
C90	C	1.409743	-0.366129	0.803602
N91	N	0.964832	-0.833659	0.298838
N92	N	1.464832	-0.333659	0.798838
N93	N	0.964807	-0.771202	0.298828
N94	N	1.464807	-0.271202	0.798828
C95	C	0.909695	-0.739339	0.303582
C96	C	1.409695	-0.239339	0.803582
C97	C	0.950063	-0.970255	0.263413
C98	C	1.450063	-0.470255	0.763413
C99	C	0.950094	-1.035999	0.263431
C100	C	1.450094	-0.535999	0.763431
C101	C	0.869535	-1.036048	0.343848
C102	C	1.369535	-0.536048	0.843848
C103	C	0.869510	-0.970305	0.343833
C104	C	1.369510	-0.470305	0.843833
C105	C	0.909773	-0.937413	0.303612
C106	C	1.409773	-0.437413	0.803612
C107	C	1.073876	-0.303019	0.303646
C108	C	1.573876	0.196981	0.803646
C109	C	1.143844	-0.303005	0.303677
C110	C	1.643844	0.196995	0.803677
C111	C	0.909738	-0.303038	0.467763
C112	C	1.409738	0.196962	0.967763
C113	C	0.909760	-0.303033	0.537731
C114	C	1.409760	0.196967	1.037731
C115	C	0.909785	-0.138861	0.303622
C116	C	1.409785	0.361139	0.803622
C117	C	0.909828	-0.068893	0.303642
C118	C	1.409828	0.431107	0.803642
C119	C	0.909670	-0.303019	0.140021
C120	C	1.409670	0.196981	0.640021
C121	C	0.909769	-0.302848	0.070054
C122	C	1.409769	0.197152	0.570054
C123	C	0.950044	-0.262761	0.570629
C124	C	1.450044	0.237239	1.070629
C125	C	0.950043	-0.262734	0.636371
C126	C	1.450043	0.237266	1.136371
C127	C	0.909765	-0.302989	0.669214
C128	C	1.409765	0.197011	1.169214
C129	C	0.869473	-0.343263	0.636308
C130	C	1.369473	0.156737	1.136308
C131	C	0.869470	-0.343285	0.570567
C132	C	1.369470	0.156715	1.070567
N133	N	0.904908	-0.358058	0.772428
N134	N	1.404908	0.141942	1.272428
N135	N	0.904914	-0.358036	0.834879
N136	N	1.404914	0.141964	1.334879
C137	C	0.909769	-0.302926	0.867289
C138	C	1.409769	0.197074	1.367289
N139	N	0.914629	-0.247837	0.834888
N140	N	1.414629	0.252163	1.334888
N141	N	0.914627	-0.247860	0.772430
N142	N	1.414627	0.252140	1.272430
C143	C	0.909763	-0.302970	0.740499
C144	C	1.409763	0.197030	1.240499
C145	C	0.950054	-0.262621	0.971472
C146	C	1.450054	0.237379	1.471472
C147	C	0.950049	-0.262593	1.037216
C148	C	1.450049	0.237407	1.537216
C149	C	0.869482	-0.343128	1.037151
C150	C	1.369482	0.156872	1.537151
C151	C	0.869484	-0.343151	0.971409
C152	C	1.369484	0.156849	1.471409
C153	C	0.909773	-0.302898	0.938573
C154	C	1.409773	0.197102	1.438573
H155	H	0.149962	-0.376152	0.376580
H156	H	0.649962	0.123848	0.876580
H157	H	0.982746	-0.661899	0.230619
H158	H	1.482746	-0.161899	0.730619
C159	C	0.679464	-0.387784	0.387863
C160	C	1.179464	0.112216	0.887863
C161	C	0.724741	-0.360589	0.437319
C162	C	1.224741	0.139411	0.937319
C163	C	0.760904	-0.404946	0.481508
C164	C	1.260904	0.095054	0.981508
C165	C	0.751789	-0.476498	0.476241
C166	C	1.251789	0.023502	0.976241
C167	C	0.706509	-0.503697	0.426782
C168	C	1.206509	-0.003697	0.926782
C169	C	0.670347	-0.459340	0.382593
C170	C	1.170347	0.040660	0.882593
H171	H	0.731490	-0.307618	0.441220
H172	H	1.231490	0.192382	0.941220
H173	H	0.794423	-0.384811	0.518120
H174	H	1.294423	0.115189	1.018120
H175	H	0.778559	-0.509334	0.508952
H176	H	1.278559	-0.009334	1.008952
H177	H	0.699760	-0.556668	0.422881
H178	H	1.199760	-0.056668	0.922881
H179	H	0.636828	-0.479475	0.345981
H180	H	1.136828	0.020525	0.845981
C181	C	0.825091	-0.671391	0.388006
C182	C	1.325091	-0.171391	0.888006
C183	C	0.780776	-0.635263	0.432230
C184	C	1.280776	-0.135263	0.932230
C185	C	0.736482	-0.671448	0.476465
C186	C	1.236482	-0.171448	0.976465
C187	C	0.736503	-0.743760	0.476476
C188	C	1.236503	-0.243760	0.976476
C189	C	0.780819	-0.779892	0.432250
C190	C	1.280819	-0.279892	0.932250
C191	C	0.825113	-0.743708	0.388016
C192	C	1.325113	-0.243708	0.888016
H193	H	0.780759	-0.581729	0.432223
H194	H	1.280759	-0.081729	0.932223
H195	H	0.703676	-0.644700	0.509203
H196	H	1.203676	-0.144700	1.009203
H197	H	0.703714	-0.770547	0.509221
H198	H	1.203714	-0.270547	1.009221
H199	H	0.780836	-0.833426	0.432257
H200	H	1.280836	-0.333426	0.932257
H201	H	0.857920	-0.770455	0.355277
H202	H	1.357920	-0.270455	0.855277
H203	H	0.836557	-0.542724	0.376503
H204	H	1.336557	-0.042724	0.876503
H205	H	0.836683	-0.375948	0.944623
H206	H	1.336683	0.124052	1.444623
C207	C	0.994358	-0.934066	0.219181
C208	C	1.494358	-0.434066	0.719181
C209	C	0.967092	-0.888931	0.169715
C210	C	1.467092	-0.388931	0.669715
C211	C	1.011389	-0.852743	0.125485
C212	C	1.511389	-0.352743	0.625485
C213	C	1.082951	-0.861691	0.130721
C214	C	1.582951	-0.361691	0.630721
C215	C	1.110221	-0.906828	0.180189
C216	C	1.610221	-0.406828	0.680189
C217	C	1.065924	-0.943016	0.224419
C218	C	1.565924	-0.443016	0.724419
H219	H	0.914114	-0.882306	0.165837
H220	H	1.414114	-0.382306	0.665837
H221	H	0.991201	-0.819330	0.088865
H222	H	1.491201	-0.319330	0.588865
H223	H	1.115742	-0.834902	0.097979
H224	H	1.615742	-0.334902	0.597979
H225	H	1.163199	-0.913453	0.184067
H226	H	1.663199	-0.413453	0.684067
H227	H	1.086112	-0.976429	0.261039
H228	H	1.586112	-0.476429	0.761039
H229	H	0.836704	-0.943564	0.376567
H230	H	1.336704	-0.443564	0.876567
H231	H	0.269226	-0.376183	0.376531
H232	H	0.769226	0.123817	0.876531
H233	H	0.982696	-0.542633	0.230593
H234	H	1.482696	-0.042633	0.730593
C235	C	0.541390	-0.218416	0.219148
C236	C	1.041390	0.281584	0.719148
C237	C	0.577541	-0.174071	0.174939
C238	C	1.077541	0.325929	0.674939
C239	C	0.541379	-0.129712	0.130751
C240	C	1.041379	0.370288	0.630751
C241	C	0.469067	-0.129698	0.130772
C242	C	0.969067	0.370302	0.630772
C243	C	0.432912	-0.174045	0.174983
C244	C	0.932912	0.325955	0.674983
C245	C	0.469073	-0.218404	0.219171
C246	C	0.969073	0.281596	0.719171
H247	H	0.631075	-0.174080	0.174922
H248	H	1.131075	0.325920	0.674922
H249	H	0.568144	-0.096883	0.098024
H250	H	1.068144	0.403117	0.598024
H251	H	0.442297	-0.096861	0.098062
H252	H	0.942297	0.403139	0.598062
H253	H	0.379378	-0.174036	0.175000
H254	H	0.879378	0.325964	0.675000
H255	H	0.442309	-0.251232	0.251898
H256	H	0.942309	0.248768	0.751898
C257	C	0.278608	-0.218371	0.219239
C258	C	0.778608	0.281629	0.719239
C259	C	0.323722	-0.245590	0.169756
C260	C	0.823722	0.254410	0.669756
C261	C	0.359879	-0.201252	0.125539
C262	C	0.859879	0.298748	0.625539
C263	C	0.350922	-0.129695	0.130806
C264	C	0.850922	0.370305	0.630806
C265	C	0.305805	-0.102473	0.180292
C266	C	0.805805	0.397527	0.680292
C267	C	0.269649	-0.146811	0.224509
C268	C	0.769649	0.353189	0.724509
H269	H	0.330355	-0.298563	0.165855
H270	H	0.830355	0.201437	0.665855
H271	H	0.393277	-0.221404	0.088906
H272	H	0.893277	0.278596	0.588906
H273	H	0.377687	-0.096873	0.098074
H274	H	0.877687	0.403127	0.598074
H275	H	0.299173	-0.049499	0.184193
H276	H	0.799173	0.450501	0.684193
H277	H	0.236251	-0.126659	0.261141
H278	H	0.736251	0.373341	0.761141
H279	H	0.982902	-1.062737	0.230695
H280	H	1.482902	-0.562737	0.730695
C281	C	0.541403	-0.387760	0.387908
C282	C	1.041403	0.112240	0.887908
C283	C	0.577559	-0.432122	0.432091
C284	C	1.077559	0.067878	0.932091
C285	C	0.541403	-0.476473	0.476296
C286	C	1.041403	0.023527	0.976296
C287	C	0.469090	-0.476461	0.476317
C288	C	0.969090	0.023539	0.976317
C289	C	0.432930	-0.432096	0.432133
C290	C	0.932930	0.067904	0.932133
C291	C	0.469086	-0.387746	0.387928
C292	C	0.969086	0.112254	0.887928
H293	H	0.631093	-0.432133	0.432077
H294	H	1.131093	0.067867	0.932077
H295	H	0.568172	-0.509315	0.509004
H296	H	1.068172	-0.009315	1.009004
H297	H	0.442325	-0.509292	0.509040
H298	H	0.942325	-0.009292	1.009040
H299	H	0.379396	-0.432086	0.432147
H300	H	0.879396	0.067914	0.932147
H301	H	0.442317	-0.354904	0.355220
H302	H	0.942317	0.145096	0.855220
C303	C	0.825242	-1.072228	0.388082
C304	C	1.325242	-0.572228	0.888082
C305	C	0.780926	-1.036099	0.432303
C306	C	1.280926	-0.536099	0.932303
C307	C	0.736634	-1.072284	0.476541
C308	C	1.236634	-0.572284	0.976541
C309	C	0.736659	-1.144596	0.476557
C310	C	1.236659	-0.644596	0.976557
C311	C	0.780977	-1.180729	0.432334
C312	C	1.280977	-0.680729	0.932334
C313	C	0.825268	-1.144545	0.388096
C314	C	1.325268	-0.644545	0.888096
H315	H	0.780906	-0.982566	0.432293
H316	H	1.280906	-0.482566	0.932293
H317	H	0.703827	-1.045535	0.509278
H318	H	1.203827	-0.545535	1.009278
H319	H	0.703871	-1.171382	0.509304
H320	H	1.203871	-0.671382	1.009304
H321	H	0.780996	-1.234263	0.432344
H322	H	1.280996	-0.734263	0.932344
H323	H	0.858075	-1.171293	0.355359
H324	H	1.358075	-0.671293	0.855359
C325	C	0.994364	-0.218291	1.073407
C326	C	1.494364	0.281709	1.573407
C327	C	0.967121	-0.168856	1.118582
C328	C	1.467121	0.331144	1.618582
C329	C	1.011437	-0.124555	1.154775
C330	C	1.511437	0.375445	1.654775
C331	C	1.082995	-0.129689	1.145794
C332	C	1.582995	0.370311	1.645794
C333	C	1.110241	-0.179126	1.100617
C334	C	1.610241	0.320874	1.600617
C335	C	1.065926	-0.223428	1.064424
C336	C	1.565926	0.276572	1.564424
H337	H	0.914146	-0.165054	1.125232
H338	H	1.414146	0.334946	1.625232
H339	H	0.991267	-0.087958	1.188218
H340	H	1.491267	0.412042	1.688218
H341	H	1.115800	-0.096894	1.172586
H342	H	1.615800	0.403106	1.672586
H343	H	1.163216	-0.182929	1.093967
H344	H	1.663216	0.317071	1.593967
H345	H	1.086096	-0.260025	1.030981
H346	H	1.586096	0.239975	1.530981
C347	C	0.825164	-0.387404	1.073265
C348	C	1.325164	0.112596	1.573265
C349	C	0.830243	-0.458969	1.064227
C350	C	1.330243	0.041031	1.564227
C351	C	0.785917	-0.503242	1.100341
C352	C	1.285917	-0.003242	1.600341
C353	C	0.736512	-0.475950	1.145493
C354	C	1.236512	0.024050	1.645493
C355	C	0.731430	-0.404382	1.154533
C356	C	1.231430	0.095618	1.654533
C357	C	0.775756	-0.360109	1.118419
C358	C	1.275756	0.139891	1.618419
H359	H	0.866818	-0.479175	1.030800
H360	H	1.366818	0.020825	1.530800
H361	H	0.789679	-0.556221	1.093648
H362	H	1.289679	-0.056221	1.593648
H363	H	0.703699	-0.508724	1.172227
H364	H	1.203699	-0.008724	1.672227
H365	H	0.694855	-0.384176	1.187960
H366	H	1.194855	0.115824	1.687960
H367	H	0.771994	-0.307129	1.125112
H368	H	1.271994	0.192871	1.625112
C369	C	0.679445	-0.218442	0.219098
C370	C	1.179445	0.281558	0.719098
C371	C	0.670487	-0.146885	0.224368
C372	C	1.170487	0.353115	0.724368
C373	C	0.706639	-0.102546	0.180149
C374	C	1.206639	0.397454	0.680149
C375	C	0.751750	-0.129763	0.130661
C376	C	1.251750	0.370237	0.630661
C377	C	0.760710	-0.201323	0.125389
C378	C	1.260710	0.298677	0.625389
C379	C	0.724557	-0.245662	0.169608
C380	C	1.224557	0.254338	0.669608
H381	H	0.637092	-0.126735	0.261004
H382	H	1.137092	0.373265	0.761004
H383	H	0.700006	-0.049572	0.184052
H384	H	1.200006	0.450428	0.684052
H385	H	0.778511	-0.096940	0.097927
H386	H	1.278511	0.403060	0.597927
H387	H	0.794105	-0.221473	0.088753
H388	H	1.294105	0.278527	0.588753
H389	H	0.731191	-0.298636	0.165706
H390	H	1.231191	0.201364	0.665706
H391	H	0.836676	-0.376038	0.663053
H392	H	1.336676	0.123962	1.163053
H393	H	0.982850	-0.229984	0.543898
H394	H	1.482850	0.270016	1.043898
C395	C	0.994364	-0.218438	0.672569
C396	C	1.494364	0.281562	1.172569
C397	C	1.038681	-0.174165	0.636452
C398	C	1.538681	0.325835	1.136452
C399	C	1.083003	-0.129871	0.672647
C400	C	1.583003	0.370129	1.172647
C401	C	1.083008	-0.129852	0.744960
C402	C	1.583008	0.370148	1.244960
C403	C	1.038688	-0.174127	0.781081
C404	C	1.538688	0.325873	1.281081
C405	C	0.994366	-0.218420	0.744886
C406	C	1.494366	0.281580	1.244886
H407	H	1.038679	-0.174178	0.582918
H408	H	1.538679	0.325822	1.082918
H409	H	1.115811	-0.097096	0.645907
H410	H	1.615811	0.402904	1.145907
H411	H	1.115817	-0.097063	0.771754
H412	H	1.615817	0.402937	1.271754
H413	H	1.038690	-0.174114	0.834615
H414	H	1.538690	0.325886	1.334615
H415	H	0.961559	-0.251196	0.771626
H416	H	1.461559	0.248804	1.271626
H417	H	0.149942	-0.229857	0.230773
H418	H	0.649942	0.270143	0.730773
C419	C	0.994364	-0.218340	0.935346
C420	C	1.494364	0.281660	1.435346
C421	C	0.989267	-0.146776	0.944379
C422	C	1.489267	0.353224	1.444379
C423	C	1.033576	-0.102495	0.908254
C424	C	1.533576	0.397505	1.408254
C425	C	1.082982	-0.129777	0.863096
C426	C	1.582982	0.370223	1.363096
C427	C	1.088081	-0.201345	0.854061
C428	C	1.588081	0.298655	1.354061
C429	C	1.043772	-0.245626	0.890186
C430	C	1.543772	0.254374	1.390186
H431	H	0.952692	-0.126577	0.977809
H432	H	1.452692	0.373423	1.477809
H433	H	1.029801	-0.049515	0.914942
H434	H	1.529801	0.450485	1.414942
H435	H	1.115782	-0.096998	0.836354
H436	H	1.615782	0.403002	1.336354
H437	H	1.124656	-0.221544	0.820631
H438	H	1.624656	0.278456	1.320631
H439	H	1.047547	-0.298606	0.883498
H440	H	1.547547	0.201394	1.383498
H441	H	0.836663	-0.376078	0.543782
H442	H	1.336663	0.123922	1.043782
