data_functionalizedCrystal
_audit_creation_method	'MofGen! by Chris Wilmer'
_symmetry_space_group_name_H-M	'P1'
_symmetry_Int_Tables_number	1
_symmetry_cell_setting	triclinic
loop_
_symmetry_equiv_pos_as_xyz
  x,y,z
_cell_length_a	12.827893
_cell_length_b	12.645329
_cell_length_c	12.827885
_cell_angle_alpha	90.030356
_cell_angle_beta	90.019272
_cell_angle_gamma	90.017948
loop_
_atom_site_label
_atom_site_type_symbol
_atom_site_fract_x
_atom_site_fract_y
_atom_site_fract_z
Zn1	Zn	1.597651	-0.421989	0.590845
Zn2	Zn	1.597537	-0.599290	0.416103
Zn3	Zn	1.422892	-0.422040	0.416118
Zn4	Zn	1.422870	-0.599211	0.590803
O5	O	1.510237	-0.510632	0.503467
O6	O	1.743872	-0.445520	0.567676
O7	O	1.574332	-0.575832	0.269869
O8	O	1.446131	-0.273686	0.439320
O9	O	1.743788	-0.575782	0.439294
O10	O	1.574526	-0.273648	0.567690
O11	O	1.446021	-0.445608	0.269880
O12	O	1.276653	-0.445531	0.439279
O13	O	1.446093	-0.575647	0.737045
O14	O	1.276637	-0.575697	0.567620
O15	O	1.574504	-0.445443	0.737075
O16	O	1.574310	-0.747626	0.439254
O17	O	1.445983	-0.747568	0.567605
C18	C	1.238728	-0.510612	0.503447
C19	C	1.122574	-0.510629	0.503464
C20	C	1.070809	-0.575140	0.566872
C21	C	0.950759	-0.575159	0.566891
C22	C	1.510160	-0.786062	0.503446
C23	C	1.510222	-0.903892	0.503472
C24	C	1.429454	-0.948782	0.584171
C25	C	1.429788	-1.071342	0.584521
C26	C	1.620552	-1.071657	0.533147
C27	C	1.619988	-0.949059	0.533699
C28	C	1.481827	-0.949190	0.392966
C29	C	1.479494	-1.071799	0.393589
C30	C	1.782808	-0.510654	0.503488
C31	C	1.898961	-0.510663	0.503497
C32	C	1.510309	-0.510531	0.776038
C33	C	1.510339	-0.510487	0.892191
C34	C	1.510344	-0.234127	0.503511
C35	C	1.510389	-0.116297	0.503530
C36	C	1.510227	-0.510657	0.231957
C37	C	1.510399	-0.510402	0.115805
C38	C	1.573888	-0.446045	0.943991
C39	C	1.573920	-0.445999	1.064041
H40	H	1.115368	-0.630352	0.621149
H41	H	1.540648	-0.920148	0.332842
C42	C	1.553207	-1.113131	0.308065
H43	H	1.604021	-1.158262	0.338426
H44	H	1.514161	-1.151502	0.257739
H45	H	1.586939	-1.055118	0.275282
H46	H	1.348109	-1.101531	0.566011
H47	H	1.078016	-0.455408	0.449195
C48	C	1.436908	-0.584956	1.055646
H49	H	1.397069	-0.625365	1.103696
H50	H	1.391414	-0.544394	1.013060
H51	H	1.476913	-0.631127	1.013074
H52	H	1.398420	-1.100990	0.371249
H53	H	0.906242	-0.630392	0.621174
H54	H	1.455950	-0.565617	0.936720
C55	C	1.375086	-0.907576	0.356453
H56	H	1.359438	-0.935856	0.289626
H57	H	1.322863	-0.928605	0.404668
H58	H	1.377112	-0.832584	0.352530
H59	H	0.943471	-0.455433	0.449203
C60	C	1.318700	-0.909093	0.559455
H61	H	1.320721	-0.864784	0.499704
H62	H	1.274417	-0.967810	0.546217
H63	H	1.292640	-0.870173	0.617197
H64	H	1.628266	-0.390905	0.899461
H65	H	1.448044	-0.917898	0.665587
H66	H	1.644024	-0.920379	0.614470
C67	C	1.455281	-1.110862	0.695152
H68	H	1.465483	-1.051989	0.740054
H69	H	1.399124	-1.152621	0.720350
H70	H	1.516985	-1.152345	0.693308
H71	H	1.682237	-0.919355	0.477463
H72	H	1.682423	-1.100768	0.476193
H73	H	1.628330	-0.390832	1.108588
C74	C	1.653650	-1.113008	0.641087
H75	H	1.600490	-1.157463	0.668248
H76	H	1.716550	-1.152101	0.634702
H77	H	1.664308	-1.054960	0.686915
