data_functionalizedCrystal
_audit_creation_method	'MofGen! by Chris Wilmer'
_symmetry_space_group_name_H-M	'P1'
_symmetry_Int_Tables_number	1
_symmetry_cell_setting	triclinic
loop_
_symmetry_equiv_pos_as_xyz
  x,y,z
_cell_length_a	23.532361
_cell_length_b	23.532407
_cell_length_c	8.965430
_cell_angle_alpha	89.995773
_cell_angle_beta	90.000502
_cell_angle_gamma	82.839173
loop_
_atom_site_label
_atom_site_type_symbol
_atom_site_fract_x
_atom_site_fract_y
_atom_site_fract_z
O1	O	0.755277	0.069004	-0.123905
O2	O	0.589410	0.079035	-0.123943
O3	O	0.677345	-0.008913	-0.123895
O4	O	0.667341	0.156952	-0.123952
O5	O	0.677337	-0.008907	0.124184
O6	O	0.589402	0.079041	0.124136
O7	O	0.755269	0.069010	0.124174
Cu8	Cu	0.672335	0.074026	0.146807
Cu9	Cu	0.672344	0.074019	-0.146575
O10	O	0.667334	0.156958	0.124127
C11	C	0.568189	0.078787	0.000092
C12	C	0.504971	0.078032	0.000079
C13	C	0.231731	0.074725	-0.135139
C14	C	0.291131	0.075440	-0.135143
O15	O	0.321860	0.075787	-0.250146
N16	N	0.320832	0.075804	0.000086
C17	C	0.291132	0.075448	0.135327
O18	O	0.321850	0.075823	0.250348
C19	C	0.231734	0.074729	0.135329
C20	C	0.202035	0.074370	0.000092
C21	C	0.202032	0.074366	-0.270365
C22	C	0.142636	0.073652	-0.270360
C23	C	0.112939	0.073297	-0.135130
C24	C	0.142639	0.073657	0.000096
C25	C	0.202035	0.074368	0.270568
C26	C	0.142633	0.073649	0.270559
C27	C	0.112934	0.073290	0.135322
C28	C	0.053547	0.072588	0.135331
N29	N	0.023845	0.072224	0.000103
C30	C	0.053541	0.072578	-0.135127
C31	C	0.415872	0.076957	0.135311
C32	C	0.475269	0.077680	0.135311
C33	C	0.475264	0.077671	-0.135159
C34	C	0.415865	0.076952	-0.135157
C35	C	0.386171	0.076593	0.000083
C36	C	-0.071194	0.071080	-0.135108
C37	C	-0.130596	0.070368	-0.135091
C38	C	-0.130585	0.070374	0.135377
C39	C	-0.071189	0.071089	0.135362
C40	C	-0.041495	0.071440	0.000107
O41	O	0.022780	0.072238	0.250276
O42	O	0.022817	0.072196	-0.250130
C43	C	0.677086	-0.030126	0.000148
C44	C	0.676320	-0.093343	0.000159
C45	C	0.723555	-0.492454	0.000088
C46	C	0.722844	-0.551854	0.000077
O47	O	0.766630	-0.588606	0.000032
N48	N	0.670566	-0.574471	0.000066
C49	C	0.618997	-0.537685	0.000051
O50	O	0.574465	-0.562377	0.000040
C51	C	0.619709	-0.478286	0.000052
C52	C	0.671990	-0.455672	0.000078
C53	C	0.775832	-0.469839	0.000113
C54	C	0.776543	-0.410443	0.000127
C55	C	0.724977	-0.373662	0.000117
C56	C	0.672701	-0.396276	0.000092
C57	C	0.568140	-0.441501	0.000027
C58	C	0.568857	-0.382099	0.000027
C59	C	0.621137	-0.359485	0.000053
C60	C	0.621847	-0.300099	0.000097
N61	N	0.674124	-0.277481	0.000107
C62	C	0.725690	-0.314263	0.000118
C63	C	0.617505	-0.662427	0.000047
C64	C	0.616793	-0.721825	0.000057
C65	C	0.720640	-0.735990	0.000079
C66	C	0.721352	-0.676591	0.000080
C67	C	0.669783	-0.639810	0.000058
C68	C	0.727179	-0.189526	0.000149
C69	C	0.727886	-0.130124	0.000169
C70	C	0.624039	-0.115965	0.000139
C71	C	0.623332	-0.175361	0.000126
C72	C	0.674907	-0.212141	0.000126
O73	O	0.578083	-0.263312	0.000136
O74	O	0.770214	-0.289562	0.000110
C75	C	0.776489	0.069258	0.000136
C76	C	0.839708	0.070014	0.000139
C77	C	0.667592	0.178171	0.000080
C78	C	0.668358	0.241388	0.000059
N79	N	0.672333	0.074031	0.353156
N80	N	0.672350	0.074010	-0.352924
C81	C	0.631654	0.114690	0.450440
C82	C	0.683057	0.125442	0.549861
C83	C	0.620951	0.063284	0.549862
C84	C	0.723762	0.084807	0.450388
C85	C	0.661623	0.022627	0.450381
C86	C	0.713064	0.033357	0.549757
H87	H	0.118460	0.073358	-0.380484
H88	H	0.652536	-0.020820	0.406650
C89	C	0.808935	-0.766377	0.127612
C90	C	0.777322	-0.776430	0.000077
H91	H	0.843923	-0.791347	0.127612
H92	H	0.816846	-0.727772	0.127609
H93	H	0.787476	-0.773204	0.214109
H94	H	0.798779	-0.769599	-0.086420
H95	H	0.769412	-0.815044	0.000067
C96	C	0.051584	0.072548	0.390684
C97	C	0.109993	0.073254	0.419222
H98	H	0.031436	0.072301	0.482463
H99	H	0.037317	0.105645	0.335127
H100	H	0.046387	0.039213	0.335126
H101	H	0.115190	0.106591	0.474771
H102	H	0.124264	0.040154	0.474803
C103	C	0.519748	0.093662	0.558692
C104	C	0.562284	0.051017	0.608838
H105	H	0.483528	0.086089	0.595090
H106	H	0.527640	0.129887	0.594227
H107	H	0.519223	0.093925	0.452745
H108	H	0.562811	0.050757	0.714785
H109	H	0.554389	0.014783	0.573311
C110	C	0.745381	0.177158	0.694776
C111	C	0.695301	0.184110	0.608874
H112	H	0.752938	0.213379	0.731199
H113	H	0.740605	0.152471	0.776421
H114	H	0.776568	0.160919	0.634954
H115	H	0.664114	0.200345	0.668700
H116	H	0.700074	0.208806	0.527218
H117	H	0.597283	0.149106	0.406833
C118	C	-0.124625	0.070429	-0.402446
C119	C	-0.163240	0.069971	-0.283754
H120	H	-0.144777	0.070179	-0.494219
H121	H	-0.105992	0.103921	-0.396834
H122	H	-0.096923	0.037490	-0.396792
H123	H	-0.190940	0.102912	-0.289403
H124	H	-0.181882	0.036475	-0.289370
H125	H	0.499453	0.077959	-0.245272
C126	C	0.775389	0.147008	0.304842
C127	C	0.782440	0.097176	0.391716
H128	H	0.811612	0.154656	0.268642
H129	H	0.750892	0.141869	0.223041
H130	H	0.758888	0.178297	0.363936
H131	H	0.798937	0.065886	0.332618
H132	H	0.806945	0.102312	0.473529
H133	H	-0.047024	0.071366	-0.245245
C134	C	0.514218	-0.701843	0.000031
C135	C	0.559324	-0.746678	0.000040
H136	H	0.478738	-0.717186	0.000005
H137	H	0.516654	-0.678977	0.086544
H138	H	0.516666	-0.678965	-0.086478
H139	H	0.556878	-0.769554	0.086556
H140	H	0.556886	-0.769553	-0.086481
H141	H	0.226205	0.074653	-0.380492
H142	H	0.499444	0.077981	0.245434
H143	H	0.747510	-0.001039	0.593090
H144	H	0.391688	0.076660	-0.245279
C145	C	-0.190701	0.020604	0.292273
C146	C	-0.163235	0.069982	0.284019
H147	H	-0.210855	0.020358	0.384043
H148	H	-0.216884	0.020293	0.211736
H149	H	-0.162988	-0.012327	0.286662
H150	H	-0.190948	0.102913	0.289619
H151	H	-0.137049	0.070298	0.364578
C152	C	0.421852	0.077048	0.402661
C153	C	0.383233	0.076573	0.283982
H154	H	0.401702	0.076814	0.494440
H155	H	0.449551	0.044113	0.397046
H156	H	0.440486	0.110545	0.396993
H157	H	0.364602	0.043074	0.289642
H158	H	0.355523	0.109511	0.289599
H159	H	0.226206	0.074658	0.380693
H160	H	-0.047008	0.071392	0.245483
C161	C	0.830465	-0.150101	0.000179
C162	C	0.785357	-0.105269	0.000185
H163	H	0.865944	-0.134756	0.000177
H164	H	0.828026	-0.172977	0.086680
H165	H	0.828023	-0.172970	-0.086342
H166	H	0.787797	-0.082402	0.086712
H167	H	0.787798	-0.082383	-0.086325
H168	H	0.769176	-0.219466	0.000143
C169	C	0.879116	-0.430429	0.000133
C170	C	0.834012	-0.385591	0.000136
H171	H	0.914597	-0.415088	0.000126
H172	H	0.876675	-0.453302	0.086638
H173	H	0.876670	-0.453299	-0.086384
H174	H	0.836456	-0.362724	0.086659
H175	H	0.836455	-0.362709	-0.086378
C176	C	0.507070	-0.500074	0.127499
C177	C	0.510671	-0.466349	-0.000017
H178	H	0.471587	-0.515409	0.127469
H179	H	0.537670	-0.530483	0.127503
H180	H	0.509502	-0.477196	0.214008
H181	H	0.508243	-0.489228	-0.086527
H182	H	0.480062	-0.435935	-0.000035
C183	C	0.835299	-0.544846	-0.127402
C184	C	0.832520	-0.510262	0.000124
H185	H	0.870301	-0.569795	-0.127389
H186	H	0.804073	-0.566823	-0.127402
H187	H	0.833416	-0.521371	-0.213904
H188	H	0.834399	-0.533737	0.086627
H189	H	0.863754	-0.488283	0.000138
C190	C	0.782404	-0.618021	0.127623
C191	C	0.778821	-0.651738	0.000096
H192	H	0.817886	-0.602685	0.127631
H193	H	0.751803	-0.587613	0.127601
H194	H	0.779961	-0.640905	0.214125
H195	H	0.781259	-0.628853	-0.086407
H196	H	0.809430	-0.682151	0.000104
H197	H	0.526862	-0.352154	0.000006
C198	C	0.558048	-0.587411	-0.127485
C199	C	0.560814	-0.622000	0.000043
H200	H	0.523048	-0.562459	-0.127491
H201	H	0.589276	-0.565437	-0.127468
H202	H	0.559934	-0.610881	-0.213986
H203	H	0.558932	-0.598530	0.086544
H204	H	0.529578	-0.643976	0.000038
H205	H	0.582056	-0.086007	0.000136
C206	C	0.520755	-0.155391	0.000089
C207	C	0.565865	-0.200222	0.000096
H208	H	0.485278	-0.170737	0.000048
H209	H	0.523187	-0.132529	0.086610
H210	H	0.523204	-0.132508	-0.086412
H211	H	0.563418	-0.223103	0.086603
H212	H	0.563432	-0.223094	-0.086434
