data_functionalizedCrystal
_audit_creation_method	'MofGen! by Chris Wilmer'
_symmetry_space_group_name_H-M	'P1'
_symmetry_Int_Tables_number	1
_symmetry_cell_setting	triclinic
loop_
_symmetry_equiv_pos_as_xyz
  x,y,z
_cell_length_a	19.805407
_cell_length_b	19.077114
_cell_length_c	19.805398
_cell_angle_alpha	87.729807
_cell_angle_beta	89.988649
_cell_angle_gamma	87.674325
loop_
_atom_site_label
_atom_site_type_symbol
_atom_site_fract_x
_atom_site_fract_y
_atom_site_fract_z
Zn1	Zn	1.023852	0.280261	-0.393514
Zn2	Zn	1.019226	0.397962	-0.284872
Zn3	Zn	0.910678	0.280277	-0.280342
Zn4	Zn	0.906079	0.397917	-0.398020
O5	O	0.964959	0.339104	-0.339187
O6	O	1.117954	0.295886	-0.379111
O7	O	1.004817	0.382376	-0.189555
O8	O	0.929552	0.181784	-0.291573
O9	O	1.114556	0.382360	-0.299293
O10	O	1.012700	0.181772	-0.374719
O11	O	0.925067	0.295913	-0.186227
O12	O	0.815352	0.295870	-0.295943
O13	O	0.921712	0.382284	-0.492138
O14	O	0.811973	0.382299	-0.382401
O15	O	1.008240	0.295842	-0.488827
O16	O	1.000356	0.496446	-0.303663
O17	O	0.917227	0.496413	-0.386793
C18	C	0.789104	0.339082	-0.339170
C19	C	0.713871	0.339089	-0.339179
C20	C	0.680294	0.294142	-0.380809
C21	C	0.609606	0.294145	-0.380812
C22	C	0.572495	0.339101	-0.339188
C23	C	0.606077	0.384050	-0.297552
C24	C	0.676765	0.384043	-0.297547
C25	C	0.321003	0.384082	-0.297574
C26	C	0.250311	0.384088	-0.297585
C27	C	0.253844	0.294185	-0.380840
C28	C	0.324531	0.294177	-0.380834
C29	C	0.358107	0.339124	-0.339197
C30	C	0.434756	0.339118	-0.339193
C31	C	0.495848	0.339110	-0.339194
C32	C	0.957809	0.521968	-0.346223
C33	C	0.954813	0.600197	-0.349256
C34	C	0.996719	0.636944	-0.307435
C35	C	0.993905	0.710449	-0.310292
C36	C	0.949180	0.747207	-0.354966
C37	C	0.907271	0.710455	-0.396791
C38	C	0.910090	0.636951	-0.393937
C39	C	0.936109	0.967041	-0.368140
C40	C	0.933292	1.040550	-0.370989
C41	C	1.019927	1.040539	-0.284491
C42	C	1.022738	0.967033	-0.281638
C43	C	0.980832	0.930288	-0.323466
N44	N	0.946300	0.822341	-0.357885
N45	N	0.983716	0.855155	-0.320550
C46	C	1.141501	0.339126	-0.339205
C47	C	1.216732	0.339136	-0.339212
C48	C	0.964979	0.339056	-0.515728
C49	C	0.964987	0.339036	-0.590959
C50	C	0.972149	1.155526	-0.332147
C51	C	0.975199	1.077296	-0.329169
C52	C	1.006624	0.383945	-1.054476
C53	C	1.006605	0.383964	-0.983789
C54	C	0.965074	0.338957	-0.946718
C55	C	0.923556	0.293932	-0.980339
C56	C	0.923572	0.293917	-1.051025
C57	C	0.923488	0.293992	-0.695268
C58	C	0.923477	0.294009	-0.624576
C59	C	1.006520	0.384039	-0.628031
C60	C	1.006537	0.384024	-0.698718
C61	C	0.965016	0.339003	-0.732332
C62	C	0.965037	0.338984	-0.808980
C63	C	0.965057	0.338972	-0.870071
C64	C	0.964980	0.339100	-0.163331
C65	C	0.965110	0.338922	-0.088092
H66	H	0.226498	0.257585	-0.414741
C67	C	0.209491	0.433539	-0.251786
N68	N	0.178745	0.470782	-0.217292
C69	C	0.877825	0.244456	-0.732234
N70	N	0.843432	0.207140	-0.760080
H71	H	0.889738	0.257289	-0.950150
H72	H	0.889768	0.257254	-1.078394
H73	H	0.348332	0.420681	-0.263671
H74	H	1.040327	0.420701	-0.600654
C75	C	0.565254	0.433501	-0.251764
N76	N	0.534506	0.470750	-0.217277
C77	C	0.713699	0.433490	-0.251751
N78	N	0.741517	0.470734	-0.217256
C79	C	1.045919	0.596517	-0.258288
N80	N	1.082980	0.566070	-0.221271
C81	C	0.721109	0.244686	-0.426600
N82	N	0.751849	0.207432	-0.461089
H83	H	1.054045	1.070464	-0.250438
C84	C	0.572674	0.244702	-0.426611
N85	N	0.544858	0.207459	-0.461109
H86	H	1.028029	0.740365	-0.276237
C87	C	1.071922	0.926606	-0.232476
N88	N	1.108960	0.896155	-0.195438
H89	H	0.896880	1.070476	-0.407380
C90	C	0.365349	0.244720	-0.426622
N91	N	0.396092	0.207465	-0.461107
H92	H	0.889656	0.257356	-0.594395
H93	H	0.901986	0.937128	-0.402197
H94	H	0.870858	0.740389	-0.433168
H95	H	1.040446	0.420592	-1.084654
C96	C	0.863989	0.596530	-0.439944
N97	N	0.829267	0.566087	-0.474599
C98	C	1.052307	0.433458	-0.946813
N99	N	1.086745	0.470728	-0.918963
C100	C	1.052222	0.433538	-0.739492
N101	N	1.086630	0.470835	-0.770202
