data_functionalizedCrystal
_audit_creation_method	'MofGen! by Chris Wilmer'
_symmetry_space_group_name_H-M	'P1'
_symmetry_Int_Tables_number	1
_symmetry_cell_setting	triclinic
loop_
_symmetry_equiv_pos_as_xyz
  x,y,z
_cell_length_a	42.784839
_cell_length_b	42.784841
_cell_length_c	42.784893
_cell_angle_alpha	90.002418
_cell_angle_beta	59.997780
_cell_angle_gamma	119.999863
loop_
_atom_site_label
_atom_site_type_symbol
_atom_site_fract_x
_atom_site_fract_y
_atom_site_fract_z
O1	O	0.275695	-0.214412	-0.009300
O2	O	0.211692	-0.168961	0.009253
O3	O	0.275692	-0.168961	-0.054750
O4	O	0.211694	-0.214412	0.054702
O5	O	0.223708	-0.220945	-0.054749
O6	O	0.159708	-0.220945	0.009253
O7	O	0.223710	-0.266397	-0.009300
Zn8	Zn	0.183455	-0.251924	-0.000023
Zn9	Zn	0.251947	-0.183433	-0.000024
O10	O	0.159710	-0.266396	0.054703
C11	C	0.051021	-0.022778	0.028112
C12	C	0.013142	-0.041761	0.028375
C13	C	0.051018	-0.079378	0.028116
C14	C	0.013139	-0.098275	0.028379
C15	C	-0.005578	-0.079377	0.028112
C16	C	0.069652	-0.041762	0.028379
C17	C	0.152948	0.113708	0.017863
C18	C	0.173786	0.152360	0.014965
C19	C	0.155902	0.171750	0.013509
C20	C	0.178499	0.213661	0.010359
C21	C	0.117177	0.152485	0.014953
C22	C	0.096339	0.113835	0.017857
C23	C	0.114226	0.094447	0.019312
C24	C	-0.131813	-0.113936	0.017859
C25	C	-0.167567	-0.131750	0.014961
C26	C	-0.185502	-0.169024	0.013506
C27	C	-0.224264	-0.188340	0.010358
C28	C	-0.167685	-0.188485	0.014954
C29	C	-0.131938	-0.170675	0.017859
C30	C	-0.114002	-0.133396	0.019309
C31	C	0.152939	-0.113943	0.017877
C32	C	0.173778	-0.131757	0.014977
C33	C	0.155892	-0.169032	0.013523
C34	C	0.178486	-0.188349	0.010377
C35	C	0.117170	-0.188491	0.014967
C36	C	0.096334	-0.170675	0.017865
C37	C	0.114220	-0.133401	0.019323
C38	C	0.091629	0.052537	0.022456
C39	C	0.073617	0.019131	0.024964
C40	C	0.073613	-0.098693	0.024971
C41	C	0.091623	-0.114089	0.022466
C42	C	-0.044339	-0.098690	0.024964
C43	C	-0.075237	-0.114084	0.022456
O44	O	-0.327856	-0.266388	-0.009322
O45	O	-0.236954	-0.220935	0.009228
O46	O	-0.236950	-0.220939	-0.054773
O47	O	-0.327860	-0.266385	0.054680
O48	O	-0.236948	-0.168954	-0.054776
O49	O	-0.236952	-0.168950	0.009225
O50	O	-0.327854	-0.214403	-0.009325
Zn51	Zn	-0.282403	-0.183423	-0.000050
Zn52	Zn	-0.282405	-0.251916	-0.000046
O53	O	-0.327858	-0.214400	0.054676
C54	C	0.384390	-0.079141	-0.361606
C55	C	0.422270	-0.041526	-0.380503
C56	C	0.384390	-0.079141	-0.305008
C57	C	0.422270	-0.041526	-0.323990
C58	C	0.440988	-0.022543	-0.361606
C59	C	0.365758	-0.098038	-0.323991
C60	C	0.282465	-0.170819	-0.396168
C61	C	0.261627	-0.188759	-0.413983
C62	C	0.279513	-0.169420	-0.451257
C63	C	0.256917	-0.188867	-0.470572
C64	C	0.318239	-0.132140	-0.470717
C65	C	0.339076	-0.114205	-0.452905
C66	C	0.321187	-0.133546	-0.415628
C67	C	0.567227	0.113942	-0.453282
C68	C	0.602981	0.152594	-0.471222
C69	C	0.620916	0.171985	-0.451883
C70	C	0.659678	0.213894	-0.471328
C71	C	0.603097	0.152719	-0.414603
C72	C	0.567349	0.114068	-0.396667
C73	C	0.549414	0.094682	-0.416011
C74	C	0.282465	-0.170819	-0.168522
C75	C	0.261624	-0.188757	-0.129868
C76	C	0.279510	-0.169418	-0.110479
C77	C	0.256914	-0.188865	-0.068568
C78	C	0.318233	-0.132140	-0.129742
C79	C	0.339070	-0.114203	-0.168394
C80	C	0.321184	-0.133548	-0.187782
C81	C	0.343783	-0.114094	-0.396315
C82	C	0.361794	-0.098590	-0.380920
C83	C	0.361794	-0.098590	-0.263099
C84	C	0.343783	-0.114094	-0.229693
C85	C	0.479750	0.019366	-0.381054
C86	C	0.510649	0.052771	-0.396557
C87	C	0.440758	-0.356212	-0.028193
C88	C	0.422041	-0.393827	-0.028459
C89	C	0.384158	-0.356213	-0.028190
C90	C	0.365526	-0.393828	-0.028456
C91	C	0.384160	-0.412810	-0.028193
C92	C	0.422038	-0.337315	-0.028456
C93	C	0.567000	-0.264532	-0.017949
C94	C	0.602755	-0.246591	-0.015053
C95	C	0.620692	-0.265931	-0.013601
C96	C	0.659455	-0.246483	-0.010453
C97	C	0.602873	-0.303210	-0.015048
C98	C	0.567125	-0.321146	-0.017949
C99	C	0.549188	-0.301805	-0.019399
C100	C	0.339356	-0.549295	-0.017951
C101	C	0.318645	-0.587947	-0.015055
C102	C	0.279915	-0.607338	-0.013597
C103	C	0.257452	-0.649247	-0.010452
C104	C	0.261899	-0.588073	-0.015042
C105	C	0.282613	-0.549422	-0.017945
C106	C	0.321343	-0.530035	-0.019397
C107	C	0.339344	-0.264537	-0.017936
C108	C	0.318628	-0.246599	-0.015032
C109	C	0.279898	-0.265939	-0.013577
C110	C	0.257433	-0.246493	-0.010426
C111	C	0.261884	-0.303217	-0.015022
C112	C	0.282601	-0.321153	-0.017924
C113	C	0.321334	-0.301808	-0.019385
C114	C	0.510421	-0.321258	-0.022542
C115	C	0.479522	-0.336762	-0.025048
C116	C	0.361696	-0.336765	-0.025041
C117	C	0.343793	-0.321261	-0.022532
C118	C	0.361701	-0.454719	-0.025047
C119	C	0.343799	-0.488125	-0.022541
O120	O	0.223728	0.336934	-0.009323
O121	O	0.159726	0.227482	0.009227
O122	O	0.223729	0.291478	-0.054775
O123	O	0.159725	0.272938	0.054678
O124	O	0.275711	0.291477	-0.054771
O125	O	0.211707	0.227481	0.009230
O126	O	0.275710	0.336932	-0.009320
Zn127	Zn	0.251962	0.282206	-0.000045
Zn128	Zn	0.183474	0.282208	-0.000049
O129	O	0.211707	0.272936	0.054681
O130	O	0.763271	0.337164	-0.496871
O131	O	0.672367	0.227713	-0.451422
O132	O	0.672365	0.291711	-0.451418
O133	O	0.763273	0.273165	-0.496876
O134	O	0.672366	0.291712	-0.503402
O135	O	0.672368	0.227714	-0.503407
O136	O	0.763272	0.337165	-0.548856
Zn137	Zn	0.717820	0.282440	-0.534385
Zn138	Zn	0.717819	0.282438	-0.465893
O139	O	0.763275	0.273167	-0.548860
O140	O	0.211690	-0.214417	-0.548617
O141	O	0.275691	-0.168962	-0.503167
O142	O	0.211689	-0.168964	-0.503163
O143	O	0.275692	-0.214415	-0.548621
O144	O	0.159706	-0.220947	-0.451179
O145	O	0.223708	-0.220945	-0.451183
O146	O	0.159707	-0.266400	-0.496633
Zn147	Zn	0.183454	-0.251926	-0.465654
Zn148	Zn	0.251944	-0.183436	-0.534146
O149	O	0.223709	-0.266398	-0.496637
C150	C	-0.005343	-0.412572	0.361558
C151	C	0.013375	-0.393590	0.380456
C152	C	0.051255	-0.355974	0.304961
C153	C	0.069887	-0.337077	0.323944
C154	C	0.051254	-0.355974	0.361560
C155	C	0.013375	-0.393589	0.323943
C156	C	-0.131582	-0.549057	0.396116
C157	C	-0.167336	-0.587709	0.413930
C158	C	-0.185271	-0.607098	0.451205
C159	C	-0.224034	-0.649009	0.470519
C160	C	-0.167452	-0.587833	0.470666
C161	C	-0.131705	-0.549184	0.452854
C162	C	-0.113770	-0.529796	0.415578
C163	C	0.096061	-0.321414	0.453239
C164	C	0.116773	-0.303600	0.471179
C165	C	0.155502	-0.266327	0.451842
C166	C	0.177965	-0.247011	0.471288
C167	C	0.173517	-0.246866	0.414562
C168	C	0.152802	-0.264677	0.396625
C169	C	0.114073	-0.301955	0.415968
C170	C	0.096064	-0.321412	0.168474
C171	C	0.116779	-0.303599	0.129820
C172	C	0.155508	-0.266324	0.110432
C173	C	0.177972	-0.247009	0.068521
C174	C	0.173522	-0.246865	0.129696
C175	C	0.152807	-0.264680	0.168348
C176	C	0.114075	-0.301953	0.187735
C177	C	-0.075004	-0.487887	0.396265
C178	C	-0.044106	-0.454481	0.380871
C179	C	0.073715	-0.336660	0.263052
C180	C	0.091618	-0.321265	0.229646
C181	C	0.073714	-0.336661	0.381009
C182	C	0.091616	-0.321267	0.396513
C183	C	0.051046	-0.022794	-0.361634
C184	C	0.069679	-0.041778	-0.380530
C185	C	-0.005555	-0.079390	-0.305034
C186	C	0.013163	-0.098288	-0.324016
C187	C	0.051045	-0.079393	-0.361631
C188	C	0.013164	-0.041775	-0.324018
C189	C	0.095858	0.113693	-0.396200
C190	C	0.116571	0.152344	-0.414015
C191	C	0.155302	0.171732	-0.451290
C192	C	0.177767	0.213642	-0.470607
C193	C	0.173317	0.152465	-0.470750
C194	C	0.152600	0.113815	-0.452936
C195	C	0.113869	0.094429	-0.415659
C196	C	0.152973	-0.113959	-0.453306
C197	C	0.173810	-0.131775	-0.471245
C198	C	0.155926	-0.169048	-0.451906
C199	C	0.178519	-0.188366	-0.471350
C200	C	0.117198	-0.188507	-0.414626
C201	C	0.096358	-0.170694	-0.396690
C202	C	0.114251	-0.133416	-0.416035
C203	C	-0.131801	-0.113944	-0.168548
C204	C	-0.167554	-0.131755	-0.129895
C205	C	-0.185491	-0.169029	-0.110504
C206	C	-0.224255	-0.188343	-0.068593
C207	C	-0.167671	-0.188490	-0.129767
C208	C	-0.131918	-0.170677	-0.168418
C209	C	-0.113988	-0.133404	-0.187808
C210	C	0.091411	0.052521	-0.396344
C211	C	0.073508	0.019115	-0.380949
C212	C	-0.044320	-0.098701	-0.263125
C213	C	-0.075220	-0.114094	-0.229719
C214	C	0.073641	-0.098707	-0.381079
C215	C	0.091652	-0.114103	-0.396582
C216	C	-0.615853	-0.356193	0.361535
C217	C	-0.634487	-0.393808	0.380433
C218	C	-0.559253	-0.356195	0.304938
C219	C	-0.577972	-0.393810	0.323921
C220	C	-0.615854	-0.412792	0.361537
C221	C	-0.577972	-0.337297	0.323920
C222	C	-0.660661	-0.264512	0.396093
C223	C	-0.681373	-0.246571	0.413906
C224	C	-0.720104	-0.265909	0.451181
C225	C	-0.742568	-0.246461	0.470495
C226	C	-0.738120	-0.303189	0.470643
C227	C	-0.717405	-0.321125	0.452831
C228	C	-0.678674	-0.301785	0.415554
C229	C	-0.717784	-0.549275	0.453218
C230	C	-0.738622	-0.587926	0.471159
C231	C	-0.720740	-0.607319	0.451822
C232	C	-0.743333	-0.649227	0.471268
C233	C	-0.682012	-0.588055	0.414542
C234	C	-0.661170	-0.549403	0.396604
C235	C	-0.679063	-0.530016	0.415946
C236	C	-0.433006	-0.264522	0.168449
C237	C	-0.397253	-0.246585	0.129796
C238	C	-0.379317	-0.265926	0.110407
C239	C	-0.340553	-0.246480	0.068496
C240	C	-0.397138	-0.303204	0.129672
C241	C	-0.432891	-0.321139	0.168324
C242	C	-0.450820	-0.301793	0.187711
C243	C	-0.656216	-0.321238	0.396242
C244	C	-0.638314	-0.336743	0.380848
C245	C	-0.520488	-0.336748	0.263028
C246	C	-0.489588	-0.321245	0.229622
C247	C	-0.638451	-0.454700	0.380987
C248	C	-0.656463	-0.488106	0.396492
C249	C	0.440756	0.310302	-0.361620
C250	C	0.422038	0.310564	-0.380518
C251	C	0.384160	0.310312	-0.305026
C252	C	0.365528	0.310574	-0.324010
C253	C	0.384159	0.310303	-0.361624
C254	C	0.422038	0.310573	-0.324006
C255	C	0.566989	0.300046	-0.396172
C256	C	0.602741	0.297145	-0.413984
C257	C	0.620675	0.295684	-0.451257
C258	C	0.659436	0.292531	-0.470569
C259	C	0.602857	0.297127	-0.470719
C260	C	0.567111	0.300033	-0.452909
C261	C	0.549177	0.301493	-0.415634
C262	C	0.339351	0.300042	-0.453303
C263	C	0.318640	0.297142	-0.471244
C264	C	0.279912	0.295690	-0.451908
C265	C	0.257449	0.292541	-0.471354
C266	C	0.261899	0.297143	-0.414629
C267	C	0.282613	0.300049	-0.396692
C268	C	0.321341	0.301496	-0.416033
C269	C	0.339354	0.300088	-0.168540
C270	C	0.318640	0.297192	-0.129888
C271	C	0.279912	0.295742	-0.110501
C272	C	0.257450	0.292601	-0.068591
C273	C	0.261898	0.297184	-0.129766
C274	C	0.282612	0.300078	-0.168417
C275	C	0.321344	0.301533	-0.187802
C276	C	0.510413	0.304640	-0.396323
C277	C	0.479516	0.307151	-0.380931
C278	C	0.361701	0.307173	-0.263117
C279	C	0.343799	0.304671	-0.229712
C280	C	0.361700	0.307154	-0.381073
C281	C	0.343798	0.304644	-0.396578
O282	O	0.275503	0.336913	-0.548651
O283	O	0.211494	0.227461	-0.503201
O284	O	0.275490	0.291455	-0.503192
O285	O	0.211507	0.272919	-0.548659
O286	O	0.223502	0.291457	-0.451211
O287	O	0.159506	0.227463	-0.451219
O288	O	0.223515	0.336915	-0.496669
Zn289	Zn	0.183256	0.282189	-0.465691
Zn290	Zn	0.251753	0.282187	-0.534179
O291	O	0.159519	0.272921	-0.496677
C292	C	0.051032	0.254111	0.361530
C293	C	0.013154	0.253851	0.380425
C294	C	0.051031	0.254102	0.304932
C295	C	0.013153	0.253842	0.323913
C296	C	-0.005564	0.254113	0.361527
C297	C	0.069663	0.253840	0.323916
C298	C	0.152954	0.264360	0.396096
C299	C	0.173791	0.267260	0.413911
C300	C	0.155906	0.268721	0.451185
C301	C	0.178502	0.271871	0.470501
C302	C	0.117182	0.267279	0.470643
C303	C	0.096345	0.264374	0.452830
C304	C	0.114233	0.262915	0.415555
C305	C	-0.131796	0.264379	0.453195
C306	C	-0.167548	0.267281	0.471133
C307	C	-0.185483	0.268734	0.451793
C308	C	-0.224243	0.271886	0.471236
C309	C	-0.167664	0.267282	0.414515
C310	C	-0.131919	0.264374	0.396581
C311	C	-0.113984	0.262925	0.415925
C312	C	0.152952	0.264325	0.168451
C313	C	0.173792	0.267221	0.129798
C314	C	0.155907	0.268673	0.110407
C315	C	0.178502	0.271814	0.068498
C316	C	0.117186	0.267232	0.129669
C317	C	0.096350	0.264339	0.168320
C318	C	0.114234	0.262881	0.187709
C319	C	0.091638	0.259769	0.396240
C320	C	0.073627	0.257260	0.380845
C321	C	0.073626	0.257242	0.263024
C322	C	0.091636	0.259743	0.229619
C323	C	-0.044324	0.257264	0.380973
C324	C	-0.075221	0.259775	0.396474
H325	H	0.167506	-0.083593	0.019063
H326	H	-0.117415	0.263190	0.366230
H327	H	0.437704	-0.306410	-0.028878
N328	N	0.097894	0.268857	0.510842
H329	H	0.067005	0.244817	0.528798
H330	H	0.117001	0.270930	0.519141
N331	N	0.219864	-0.228965	-0.109094
H332	H	0.209377	-0.237393	-0.081667
H333	H	0.196255	-0.229544	-0.109640
N334	N	-0.377797	-0.324069	0.108763
H335	H	-0.352443	-0.307052	0.081354
H336	H	-0.366719	-0.330913	0.121730
H337	H	-0.562304	-0.409050	0.308680
N338	N	0.220099	-0.324088	-0.013434
H339	H	0.209704	-0.307072	-0.011371
H340	H	0.226203	-0.330942	-0.037474
N341	N	0.054590	-0.191604	0.019392
H342	H	0.030905	-0.215762	0.042418
H343	H	0.044204	-0.174586	0.021421
H344	H	0.332793	-0.116391	-0.113952
H345	H	0.617485	0.168277	-0.501573
N346	N	-0.112715	-0.191658	0.019417
H347	H	-0.115187	-0.194181	0.044159
H348	H	-0.129509	-0.217962	0.018038
N349	N	-0.007600	0.253297	0.421361
H350	H	-0.038948	0.229573	0.438081
H351	H	0.010048	0.253191	0.430474
H352	H	0.064821	0.263164	0.184001
N353	N	0.263175	-0.191681	-0.189434
H354	H	0.235482	-0.218017	-0.171366
H355	H	0.255701	-0.176819	-0.199237
N356	N	0.325159	0.311148	-0.303830
H357	H	0.316141	0.311278	-0.277070
H358	H	0.332208	0.334877	-0.318495
H359	H	0.100149	0.253421	0.308676
N360	N	0.381123	0.301650	-0.189450
H361	H	0.405872	0.326391	-0.211728
H362	H	0.389352	0.300278	-0.171356
N363	N	0.215290	-0.206666	0.393702
H364	H	0.210266	-0.189357	0.408534
H365	H	0.240012	-0.206704	0.391234
H366	H	-0.117201	-0.533500	0.468702
H367	H	0.100368	-0.306171	0.308703
H368	H	0.102606	-0.218843	0.013783
N369	N	0.621959	0.295589	-0.392996
H370	H	0.605174	0.296954	-0.366681
H371	H	0.619483	0.270844	-0.390496
H372	H	-0.182060	-0.603623	0.501016
H373	H	0.333308	0.295959	-0.501595
H374	H	0.437707	0.310988	-0.411425
N375	N	0.172206	-0.243707	0.189149
H376	H	0.203103	-0.236850	0.176176
H377	H	0.173284	-0.219574	0.188637
H378	H	-0.002298	-0.408829	0.411365
H379	H	0.437930	-0.026285	-0.308746
N380	N	-0.674860	-0.413995	0.421373
H381	H	-0.683881	-0.396253	0.430516
H382	H	-0.699871	-0.437643	0.422911
N383	N	0.442788	0.311150	-0.303813
H384	H	0.420707	0.287684	-0.280161
H385	H	0.469676	0.311286	-0.321576
N386	N	0.172239	0.262759	0.189368
H387	H	0.173352	0.239722	0.188910
H388	H	0.203116	0.286818	0.176421
N389	N	-0.186780	-0.110771	-0.109118
H390	H	-0.184309	-0.108243	-0.086847
H391	H	-0.169987	-0.084469	-0.127292
N392	N	0.443026	-0.021338	-0.421442
H393	H	0.425408	-0.039078	-0.430586
H394	H	0.443200	0.002310	-0.422978
N395	N	0.054578	0.093058	0.019410
H396	H	0.059568	0.083261	-0.002928
H397	H	0.029801	0.070804	0.044166
N398	N	0.172265	-0.073759	-0.474173
H399	H	0.153189	-0.065425	-0.457154
H400	H	0.203156	-0.055833	-0.481019
N401	N	0.219860	-0.228962	-0.392991
H402	H	0.195067	-0.229012	-0.390466
H403	H	0.224878	-0.246298	-0.407782
H404	H	0.102110	-0.319446	0.114137
H405	H	0.333309	0.296016	-0.114204
N406	N	0.172242	0.262781	0.355896
H407	H	0.203132	0.286819	0.337940
H408	H	0.173318	0.239726	0.355287
H409	H	0.064526	-0.351765	0.468991
H410	H	0.552607	0.301210	-0.468757
N411	N	-0.618885	-0.243653	0.355891
H412	H	-0.623913	-0.258486	0.338584
H413	H	-0.610633	-0.217318	0.346298
N414	N	0.381132	-0.528382	-0.019526
H415	H	0.376104	-0.518579	0.002810
H416	H	0.389382	-0.546468	-0.018187
N417	N	0.054084	0.092784	-0.355997
H418	H	0.045815	0.110853	-0.346374
H419	H	0.029367	0.070508	-0.356023
N420	N	-0.452108	-0.361342	0.189105
H421	H	-0.484242	-0.378698	0.198902
H422	H	-0.435290	-0.370840	0.170940
H423	H	0.552391	0.301235	-0.365822
N424	N	0.622199	0.295554	-0.510919
H425	H	0.647548	0.293494	-0.519250
H426	H	0.598669	0.272518	-0.511538
H427	H	0.167516	0.097925	0.019049
N428	N	-0.661946	-0.206367	0.392917
H429	H	-0.634268	-0.196839	0.366601
H430	H	-0.684195	-0.206347	0.390421
N431	N	-0.007367	-0.413773	0.303749
H432	H	-0.038717	-0.421400	0.318375
H433	H	0.010286	-0.396007	0.276993
H434	H	0.064816	0.263199	0.468675
N435	N	-0.007604	0.253276	0.303731
H436	H	0.014474	0.276748	0.280085
H437	H	-0.016704	0.229535	0.296135
N438	N	0.097894	0.268801	0.108757
H439	H	0.116967	0.270852	0.081350
H440	H	0.067002	0.244757	0.121725
N441	N	0.263188	0.301614	-0.356487
H442	H	0.285408	0.326357	-0.356438
H443	H	0.235507	0.300238	-0.346980
N444	N	-0.737080	-0.528365	0.474077
H445	H	-0.764774	-0.546432	0.500414
H446	H	-0.714782	-0.506088	0.476521
N447	N	0.325379	-0.138974	-0.303800
H448	H	0.316358	-0.148117	-0.321540
H449	H	0.332415	-0.155666	-0.296180
N450	N	0.215551	0.173138	0.013405
H451	H	0.223720	0.154990	0.014766
H452	H	0.240317	0.195406	-0.011340
H453	H	-0.181841	-0.603391	0.398082
N454	N	0.547893	0.093033	-0.474149
H455	H	0.515754	0.083229	-0.459321
H456	H	0.564642	0.111121	-0.500484
N457	N	-0.779889	-0.324045	0.510845
H458	H	-0.790280	-0.307026	0.519176
H459	H	-0.803546	-0.348194	0.511466
N460	N	0.215554	0.268816	0.392926
H461	H	0.223723	0.267452	0.366611
H462	H	0.240321	0.293561	0.390429
H463	H	0.370885	0.301223	-0.469054
N464	N	0.622450	0.173630	-0.393750
H465	H	0.633560	0.160694	-0.386913
H466	H	0.647785	0.201034	-0.410791
H467	H	-0.002525	-0.129181	0.028805
H468	H	-0.117197	0.263199	0.468949
H469	H	0.205322	0.268398	0.114116
H470	H	-0.002524	-0.026519	0.028802
N471	N	0.220133	0.295584	-0.393773
H472	H	0.209743	0.293524	-0.410791
H473	H	0.196475	0.272552	-0.369620
H474	H	-0.182070	-0.115902	0.013781
N475	N	0.220132	-0.608983	-0.013479
H476	H	0.196443	-0.608519	0.009557
H477	H	0.226266	-0.596033	-0.037539
N478	N	0.097343	-0.324586	0.511385
H479	H	0.069666	-0.350902	0.520915
H480	H	0.119591	-0.327082	0.511408
N481	N	0.263164	-0.191676	-0.355961
H482	H	0.235471	-0.218012	-0.346336
H483	H	0.285460	-0.194121	-0.355977
N484	N	-0.112460	-0.073743	-0.189461
H485	H	-0.129170	-0.064116	-0.171394
H486	H	-0.080320	-0.056466	-0.199265
H487	H	0.552845	0.098385	-0.366316
H488	H	0.332799	-0.116397	-0.501067
N489	N	0.338074	-0.608723	-0.013498
H490	H	0.365751	-0.590576	-0.014858
H491	H	0.315826	-0.630993	0.011246
H492	H	0.370607	-0.083853	-0.468752
H493	H	0.167470	-0.248829	0.366274
H494	H	0.267941	0.301250	-0.184099
N495	N	-0.112469	-0.073732	0.019425
H496	H	-0.129181	-0.064107	0.018068
H497	H	-0.114937	-0.073754	0.044168
N498	N	0.621966	-0.206388	-0.013488
H499	H	0.619493	-0.206338	0.011255
H500	H	0.654092	-0.189053	-0.035842
N501	N	0.215543	-0.110767	0.013417
H502	H	0.209400	-0.103918	0.037465
H503	H	0.226010	-0.127725	0.011345
H504	H	-0.732075	-0.351477	0.468678
N505	N	0.110026	-0.021576	0.028943
H506	H	0.103016	-0.036203	0.052671
H507	H	0.135045	-0.020191	0.005456
N508	N	0.220127	0.295618	-0.108858
H509	H	0.209737	0.293567	-0.081450
H510	H	0.226251	0.319663	-0.121828
N511	N	-0.187027	-0.228687	0.013386
H512	H	-0.170317	-0.238313	0.014744
H513	H	-0.219168	-0.245965	0.035722
H514	H	0.617482	-0.318952	-0.013867
H515	H	0.370598	-0.083850	-0.184076
H516	H	0.335043	-0.409068	-0.028878
N517	N	0.054296	-0.361616	0.189381
H518	H	0.043906	-0.369948	0.216790
H519	H	0.030636	-0.362242	0.188890
H520	H	0.205059	-0.216514	0.113907
H521	H	-0.116983	-0.533275	0.365765
H522	H	0.437709	-0.409066	-0.028885
N523	N	0.215581	-0.110786	-0.511447
H524	H	0.226068	-0.127727	-0.519874
H525	H	0.209417	-0.103934	-0.529330
H526	H	0.102618	0.168275	0.013770
N527	N	-0.186763	0.268850	0.511335
H528	H	-0.169976	0.267492	0.520866
H529	H	-0.184284	0.293596	0.511350
H530	H	0.333296	-0.216247	-0.013853
H531	H	0.370881	-0.248784	-0.019122
H532	H	0.552400	-0.248780	-0.019131
N533	N	-0.007584	-0.139224	-0.303828
H534	H	-0.034469	-0.148366	-0.277067
H535	H	-0.016654	-0.155916	-0.318485
H536	H	0.267943	-0.533739	-0.019121
H537	H	-0.182272	0.268459	0.398770
H538	H	0.267931	-0.351506	-0.019101
N539	N	0.547908	-0.361350	-0.019511
H540	H	0.564694	-0.370881	-0.018151
H541	H	0.515773	-0.378676	0.002828
H542	H	-0.002500	-0.026531	-0.308780
N543	N	0.110055	-0.021595	-0.421468
H544	H	0.119076	0.005166	-0.430613
H545	H	0.135063	-0.020234	-0.423003
N546	N	0.097143	0.173123	-0.393029
H547	H	0.069465	0.154977	-0.366713
H548	H	0.119391	0.195393	-0.390534
H549	H	0.204850	0.168253	-0.501099
H550	H	0.167269	0.098131	-0.468782
H551	H	0.102633	-0.218858	-0.398880
H552	H	0.064825	-0.186540	-0.366338
H553	H	-0.117412	-0.186525	-0.184100
H554	H	-0.562326	-0.306401	0.308670
N555	N	-0.187012	-0.228692	-0.108855
H556	H	-0.212366	-0.237025	-0.081447
H557	H	-0.198091	-0.246618	-0.121821
H558	H	-0.382753	-0.216236	0.114110
N559	N	-0.780390	-0.608703	0.511364
H560	H	-0.788560	-0.590556	0.520892
H561	H	-0.805154	-0.630972	0.511383
H562	H	-0.447603	-0.248768	0.184232
N563	N	-0.662716	-0.608964	0.393684
H564	H	-0.681793	-0.636372	0.410702
H565	H	-0.661599	-0.608472	0.369533
N566	N	-0.619402	-0.528626	0.356400
H567	H	-0.611233	-0.546773	0.346869
H568	H	-0.624412	-0.518830	0.339072
