data_functionalizedCrystal
_audit_creation_method	'MofGen! by Chris Wilmer'
_symmetry_space_group_name_H-M	'P1'
_symmetry_Int_Tables_number	1
_symmetry_cell_setting	triclinic
loop_
_symmetry_equiv_pos_as_xyz
  x,y,z
_cell_length_a	6.817900
_cell_length_b	10.992469
_cell_length_c	10.992410
_cell_angle_alpha	91.830594
_cell_angle_beta	108.764651
_cell_angle_gamma	108.765624
loop_
_atom_site_label
_atom_site_type_symbol
_atom_site_fract_x
_atom_site_fract_y
_atom_site_fract_z
V1	V	-4.114252	-0.177761	-0.400575
O2	O	-4.072376	0.008542	-0.392968
O3	O	-4.091835	-0.352470	-0.397817
O4	O	-4.091844	-0.175026	-0.575288
O5	O	-4.072367	-0.170130	-0.214269
V6	V	-4.591146	-0.155477	-0.378293
O7	O	-4.390054	-0.226642	-0.449451
O8	O	-4.765541	-0.106595	-0.329417
O9	O	-4.390356	0.019232	-0.381051
O10	O	-4.750419	-0.341780	-0.385900
O11	O	-4.750428	-0.163108	-0.564599
O12	O	-4.390347	-0.158211	-0.203581
C13	C	-3.942316	-0.395060	-0.391493
C14	C	-4.005448	-0.537887	-0.390403
C15	C	-3.807069	-0.584385	-0.382247
C16	C	-3.872923	-0.733022	-0.381616
C17	C	-4.270158	-0.764535	-0.515760
C18	C	-4.203032	-0.615889	-0.516930
C19	C	-4.079366	-0.577587	-0.271579
C20	C	-4.140104	-0.725808	-0.268700
C21	C	-3.942326	-0.168712	-0.617873
C22	C	-4.005461	-0.167632	-0.760701
C23	C	-3.872583	-0.157796	-0.955826
C24	C	-3.807033	-0.159451	-0.807342
C25	C	-4.203480	-0.294312	-0.837792
C26	C	-4.267793	-0.293192	-0.986359
C27	C	-4.145553	-0.047893	-0.948352
C28	C	-4.074844	-0.047293	-0.799339
C29	C	-4.203218	0.061816	-0.387371
C30	C	-4.119326	0.204641	-0.388470
C31	C	-4.203207	-0.164530	-0.160989
C32	C	-4.119310	-0.165603	-0.018159
H33	H	-3.756357	-0.752659	-0.290140
C34	C	-3.714268	-0.034017	-0.981488
N35	N	-3.595038	0.059173	-1.000900
H36	H	-3.657894	-0.531792	-0.291257
C37	C	-4.406632	-0.308589	-0.798876
N38	N	-4.559644	-0.319340	-0.769560
C39	C	-4.141344	-0.584765	-0.638306
N40	N	-4.094872	-0.561328	-0.729726
C41	C	-3.838885	-0.272047	-1.020654
N42	N	-3.813510	-0.358101	-1.069488
C43	C	-4.253570	-0.830510	-0.635942
N44	N	-4.241058	-0.880197	-0.726460
C45	C	-3.988174	-0.750392	-0.141579
N46	N	-3.873743	-0.768919	-0.045833
C47	C	-3.881310	0.079312	-0.728624
N48	N	-3.735535	0.174668	-0.675351
H49	H	-4.042637	0.048305	-0.968721
C50	C	-4.387346	-0.054104	-1.003536
N51	N	-4.569465	-0.058790	-1.045109
H52	H	-4.353047	-0.586514	-0.528115
H53	H	-3.749666	-0.557714	-0.467603
H54	H	-3.942891	-0.523031	-0.176097
C55	C	-4.376129	-0.782062	-0.265434
N56	N	-4.553920	-0.824429	-0.262988
C57	C	-4.266643	-0.045187	-0.755268
N58	N	-4.411057	-0.043581	-0.722026
C59	C	-4.246750	-0.413592	-1.048857
N60	N	-4.230885	-0.504276	-1.095924
C61	C	-4.515295	-0.820963	-0.528810
N62	N	-4.699931	-0.863463	-0.538634
C63	C	-4.278870	-0.537659	-0.278034
N64	N	-4.429130	-0.507578	-0.282905
H65	H	-4.449795	-0.304208	-1.028989
C66	C	-3.606441	-0.036408	-0.735292
N67	N	-3.455337	0.056267	-0.681029
H68	H	-4.157720	-0.383659	-0.812178
H69	H	-3.847754	-0.779329	-0.467026
H70	H	-3.749855	-0.245201	-0.782519
