data_functionalizedCrystal
_audit_creation_method	'MofGen! by Chris Wilmer'
_symmetry_space_group_name_H-M	'P1'
_symmetry_Int_Tables_number	1
_symmetry_cell_setting	triclinic
loop_
_symmetry_equiv_pos_as_xyz
  x,y,z
_cell_length_a	27.440280
_cell_length_b	27.440280
_cell_length_c	19.851628
_cell_angle_alpha	90.005450
_cell_angle_beta	59.997527
_cell_angle_gamma	59.999099
loop_
_atom_site_label
_atom_site_type_symbol
_atom_site_fract_x
_atom_site_fract_y
_atom_site_fract_z
Zr1	Zr	0.533417	0.469483	-0.088432
O2	O	0.635096	0.391663	-0.196022
O3	O	0.431739	0.493342	-0.055434
O4	O	0.533405	0.493341	-0.195982
O5	O	0.533439	0.391661	0.055374
O6	O	0.533396	0.573544	-0.195968
O7	O	0.533429	0.391663	-0.055474
O8	O	0.351533	0.573545	0.055446
O9	O	0.715302	0.391660	-0.196040
O10	O	0.473554	0.563369	-0.041370
O11	O	0.473568	0.503513	0.041345
O12	O	0.593267	0.503512	-0.124132
O13	O	0.593281	0.443655	-0.041417
Zr14	Zr	0.533417	0.597394	0.088381
Zr15	Zr	0.533402	0.597397	-0.088410
Zr16	Zr	0.533432	0.469479	0.088359
Zr17	Zr	0.661337	0.469478	-0.088460
Zr18	Zr	0.405498	0.597398	0.088409
O19	O	0.635096	0.573535	0.055384
O20	O	0.635075	0.573540	-0.195990
O21	O	0.635118	0.391657	0.055352
O22	O	0.431739	0.675214	0.195971
O23	O	0.431717	0.675220	-0.055403
O24	O	0.431760	0.493337	0.195940
O25	O	0.533396	0.675216	-0.055425
O26	O	0.533429	0.573535	0.195931
O27	O	0.533439	0.493333	0.195917
O28	O	0.533405	0.675213	0.055424
O29	O	0.715290	0.493334	-0.196022
O30	O	0.351545	0.573542	0.195971
O31	O	0.351533	0.675217	0.195989
O32	O	0.351521	0.675220	0.055464
O33	O	0.715314	0.391657	-0.055514
O34	O	0.715302	0.493331	-0.055497
O35	O	0.473568	0.563365	0.124081
O36	O	0.473554	0.623221	0.041366
O37	O	0.593267	0.563364	-0.041396
O38	O	0.593281	0.503508	0.041319
C39	C	0.373410	0.533444	0.000010
C40	C	0.319105	0.533446	0.000022
C41	C	0.026606	0.489253	-0.061134
C42	C	-0.024411	0.489252	-0.061143
O43	O	-0.013218	0.451687	-0.113112
N44	N	-0.094115	0.533436	-0.000058
C45	C	-0.112802	0.577627	0.061035
O46	O	-0.176775	0.615209	0.112991
C47	C	-0.061785	0.577629	0.061040
C48	C	0.007919	0.533439	-0.000045
C49	C	0.096307	0.445066	-0.122214
C50	C	0.147321	0.445066	-0.122204
C51	C	0.128633	0.489253	-0.061115
C52	C	0.058932	0.533439	-0.000035
C53	C	-0.080473	0.621822	0.122128
C54	C	-0.029449	0.621821	0.122127
C55	C	0.040255	0.577630	0.061043
C56	C	0.091258	0.577625	0.061064
N57	N	0.160962	0.533441	-0.000021
C58	C	0.179650	0.489255	-0.061110
C59	C	-0.219937	0.577619	0.061020
C60	C	-0.270953	0.577615	0.061020
C61	C	-0.182558	0.489241	-0.061159
C62	C	-0.131542	0.489243	-0.061155
C63	C	-0.150233	0.533435	-0.000065
C64	C	0.286778	0.489258	-0.061085
C65	C	0.337792	0.489260	-0.061068
C66	C	0.249393	0.577636	0.061108
C67	C	0.198383	0.577632	0.061094
C68	C	0.217081	0.533440	-0.000009
O69	O	0.080117	0.615172	0.113005
O70	O	0.243623	0.451684	-0.113064
C71	C	0.533436	0.373437	-0.000053
C72	C	0.533443	0.319134	-0.000062
C73	C	0.470917	0.013681	0.043198
C74	C	0.470913	-0.037337	0.043206
O75	O	0.417768	-0.037152	0.079971
N76	N	0.533402	-0.094099	0.000004
C77	C	0.595898	-0.099841	-0.043201
O78	O	0.649049	-0.152806	-0.079946
C79	C	0.595901	-0.048823	-0.043203
C80	C	0.533408	0.007938	-0.000005
C81	C	0.408429	0.070440	0.086393
C82	C	0.408433	0.121455	0.086384
C83	C	0.470925	0.115711	0.043181
C84	C	0.533412	0.058953	-0.000014
C85	C	0.658397	-0.054566	-0.086403
C86	C	0.658395	-0.003542	-0.086401
C87	C	0.595902	0.053219	-0.043203
C88	C	0.595908	0.104224	-0.043227
N89	N	0.533420	0.160985	-0.000025
C90	C	0.470928	0.166729	0.043179
C91	C	0.595887	-0.206980	-0.043192
C92	C	0.595884	-0.257997	-0.043196
C93	C	0.470899	-0.195489	0.043212
C94	C	0.470902	-0.144471	0.043210
C95	C	0.533398	-0.150218	0.000009
C96	C	0.470941	0.273861	0.043157
C97	C	0.470951	0.324878	0.043141
C98	C	0.595936	0.262366	-0.043263
C99	C	0.595927	0.211354	-0.043252
C100	C	0.533424	0.217105	-0.000036
O101	O	0.649026	0.104085	-0.079971
O102	O	0.417786	0.219695	0.079927
C103	C	0.693425	0.533432	-0.000061
C104	C	0.747730	0.533430	-0.000073
C105	C	0.533399	0.533443	-0.221164
C106	C	0.533392	0.533445	-0.296216
C107	C	0.533399	0.693440	0.000002
C108	C	0.533392	0.747742	0.000012
C109	C	0.468135	0.566080	-0.432457
C110	C	0.500767	0.509799	-0.499927
C111	C	0.533410	0.533439	-0.433648
C112	C	0.500773	0.589708	-0.499913
C113	C	0.533422	0.533438	-0.566397
C114	C	0.566043	0.477125	-0.500129
C115	C	0.566040	0.557075	-0.500105
C116	C	0.598720	0.500761	-0.567587
C117	C	0.533401	0.533440	-0.357173
C118	C	0.533437	0.533431	-0.642874
C119	C	0.533436	0.533434	0.221113
C120	C	0.533443	0.533432	0.296166
C121	C	0.373391	0.693446	0.000038
C122	C	0.319080	0.747751	0.000059
C123	C	0.373429	0.533440	0.221149
C124	C	0.319130	0.533440	0.296213
C125	C	0.373410	0.693441	0.221176
C126	C	0.319105	0.747744	0.296250
C127	C	0.693425	0.373436	-0.221227
C128	C	0.747730	0.319133	-0.296301
C129	C	0.693444	0.373431	-0.000088
C130	C	0.747755	0.319126	-0.000110
C131	C	0.693406	0.533437	-0.221199
C132	C	0.747705	0.533437	-0.296264
C133	C	0.293574	0.742010	-0.043125
C134	C	0.242550	0.793031	-0.043122
C135	C	0.217028	0.849791	0.000072
C136	C	0.242539	0.855530	0.043257
C137	C	0.293566	0.804510	0.043248
C138	C	0.293631	0.564683	0.374658
C139	C	0.242618	0.564681	0.445196
C140	C	0.217103	0.533439	0.437287
C141	C	0.242607	0.502193	0.358833
C142	C	0.293622	0.502192	0.288297
C143	C	0.293595	0.804495	0.288329
C144	C	0.242577	0.855524	0.358862
C145	C	0.217066	0.849800	0.437315
C146	C	0.242580	0.793043	0.445235
C147	C	0.293601	0.742016	0.374702
C148	C	0.773246	0.262382	-0.288380
C149	C	0.824280	0.211353	-0.358913
C150	C	0.849794	0.217077	-0.437366
C151	C	0.824276	0.273834	-0.445285
C152	C	0.773246	0.324861	-0.374753
C153	C	0.773266	0.324866	0.043067
C154	C	0.824304	0.273846	0.043044
C155	C	0.849828	0.217086	-0.000152
C156	C	0.824315	0.211347	-0.043334
C157	C	0.773281	0.262367	-0.043315
C158	C	0.773204	0.564684	-0.288328
C159	C	0.824217	0.564696	-0.358852
C160	C	0.849733	0.533456	-0.437311
C161	C	0.824228	0.502207	-0.445246
C162	C	0.773213	0.502200	-0.374722
H163	H	-0.327707	0.613594	0.110768
O164	O	0.167526	0.899309	0.505912
C165	C	0.150462	0.882094	0.576861
H166	H	0.195208	0.834996	0.560675
H167	H	0.139866	0.914335	0.626659
H168	H	0.102514	0.883032	0.600622
H169	H	0.302012	0.453273	-0.110842
H170	H	0.891273	0.533466	-0.494729
H171	H	0.204074	0.409087	-0.171952
H172	H	0.845056	0.278487	-0.509170
H173	H	0.420045	0.278553	0.078348
H174	H	0.891345	0.175522	-0.494791
H175	H	0.175478	0.891330	0.000073
H176	H	0.221752	0.901751	0.078424
O177	O	0.402324	0.598876	-0.363376
C178	C	0.391684	0.562420	-0.316006
H179	H	0.443346	0.522861	-0.332010
H180	H	0.356826	0.589457	-0.247627
H181	H	0.366276	0.545464	-0.330075
O182	O	0.748486	0.594940	-0.212099
C183	C	0.760948	0.554835	-0.168721
H184	H	0.805673	0.507761	-0.214492
H185	H	0.774459	0.568383	-0.129729
H186	H	0.712792	0.555930	-0.126867
O187	O	0.114588	0.402080	-0.181599
C188	C	0.187051	0.363096	-0.235512
H189	H	0.210450	0.365212	-0.202594
H190	H	0.203231	0.315547	-0.255239
H191	H	0.206066	0.377005	-0.292297
H192	H	0.314359	0.809167	0.224455
O193	O	0.318481	0.686876	0.382361
C194	C	0.389982	0.655471	0.344122
H195	H	0.403960	0.688567	0.340854
H196	H	0.404645	0.627265	0.381522
H197	H	0.419157	0.625187	0.279071
O198	O	0.656576	0.256900	-0.085156
C199	C	0.643171	0.314103	-0.075909
H200	H	0.589463	0.347927	-0.017573
H201	H	0.683078	0.313543	-0.070968
H202	H	0.646132	0.327096	-0.131706
O203	O	0.217848	0.910608	0.351012
C204	C	0.251314	0.904711	0.266641
H205	H	0.272336	0.859177	0.229038
H206	H	0.213035	0.941301	0.256820
H207	H	0.295633	0.908887	0.245840
O208	O	-0.238015	0.620468	0.120396
C209	C	-0.211165	0.593429	0.165094
H210	H	-0.165144	0.545170	0.125730
H211	H	-0.194005	0.618813	0.181738
H212	H	-0.252633	0.594440	0.223956
O213	O	0.748511	0.379944	-0.382601
C214	C	0.781988	0.374045	-0.466972
H215	H	0.803023	0.328508	-0.504580
H216	H	0.743713	0.410629	-0.476803
H217	H	0.826298	0.378230	-0.487758
O218	O	0.849182	0.279396	0.084872
C219	C	0.920679	0.251752	0.029432
H220	H	0.934651	0.249397	-0.035635
H221	H	0.935331	0.278817	0.048167
H222	H	0.949871	0.204689	0.030934
H223	H	0.752488	0.371079	0.078248
H224	H	0.314325	0.809192	0.078419
O225	O	0.217825	0.787342	-0.085081
C226	C	0.251302	0.726302	-0.123209
H227	H	0.272328	0.699102	-0.089336
H228	H	0.213029	0.719187	-0.120874
H229	H	0.295618	0.711259	-0.190247
O230	O	0.467854	0.646513	-0.500572
C231	C	0.444181	0.686396	-0.429374
H232	H	0.476107	0.661562	-0.404820
H233	H	0.449585	0.724072	-0.445540
H234	H	0.387709	0.705803	-0.380192
O235	O	0.318364	0.595034	0.382501
C236	C	0.284903	0.622613	0.466871
H237	H	0.263879	0.598108	0.504474
H238	H	0.323188	0.620917	0.476687
H239	H	0.240588	0.671112	0.487675
H240	H	0.845011	0.476772	-0.509137
H241	H	0.473183	0.489804	-0.500600
O242	O	0.748483	0.471779	-0.382346
C243	C	0.761003	0.427909	-0.344185
H244	H	0.767326	0.441057	-0.296103
H245	H	0.715711	0.424089	-0.312896
H246	H	0.810092	0.383106	-0.392697
O247	O	0.217901	0.787460	0.521430
C248	C	0.272349	0.755973	0.530462
H249	H	0.315727	0.760212	0.485792
H250	H	0.252882	0.775370	0.596432
H251	H	0.292466	0.706878	0.516468
H252	H	-0.074788	0.453256	-0.110890
O253	O	0.405473	0.446304	-0.120491
C254	C	0.411021	0.407299	-0.174399
H255	H	0.361697	0.431107	-0.171489
H256	H	0.456670	0.393035	-0.240119
H257	H	0.419183	0.366214	-0.155184
H258	H	0.844977	0.590141	-0.352375
O259	O	0.217710	0.471910	0.351303
C260	C	0.167221	0.478611	0.430388
H261	H	0.144931	0.520802	0.477132
H262	H	0.124276	0.482215	0.429641
H263	H	0.191629	0.438237	0.448339
O264	O	0.217911	0.594944	0.521417
C265	C	0.230380	0.554841	0.564796
H266	H	0.275099	0.507765	0.519026
H267	H	0.243901	0.568389	0.603774
H268	H	0.182222	0.555940	0.606665
O269	O	0.318417	0.686833	-0.085018
C270	C	0.368939	0.643023	-0.075794
H271	H	0.360560	0.662902	-0.017461
H272	H	0.364803	0.603677	-0.070863
H273	H	0.422306	0.627065	-0.131597
O274	O	-0.164458	0.446260	-0.120376
C275	C	-0.191306	0.413932	-0.082953
H276	H	-0.237348	0.442438	-0.016262
H277	H	-0.208434	0.401839	-0.118042
H278	H	-0.149847	0.371379	-0.084293
H279	H	-0.137222	0.657807	0.171869
H280	H	-0.044676	0.657809	0.171874
O281	O	0.318286	0.471838	0.212158
C282	C	0.284831	0.444256	0.220313
H283	H	0.233123	0.468764	0.283267
H284	H	0.276017	0.445944	0.169754
H285	H	0.318300	0.395759	0.214514
O286	O	0.748571	0.256707	-0.212238
C287	C	0.782036	0.195670	-0.220389
H288	H	0.833749	0.168463	-0.283337
H289	H	0.790842	0.188560	-0.169822
H290	H	0.748580	0.180630	-0.214598
H291	H	0.141625	0.613610	0.110842
O292	O	0.231333	0.620480	0.120466
C293	C	0.258186	0.593442	0.165162
H294	H	0.304194	0.545178	0.125807
H295	H	0.275366	0.618816	0.181781
H296	H	0.216713	0.594469	0.224038
O297	O	0.656589	0.156184	-0.085103
C298	C	0.660348	0.124812	-0.029662
H299	H	0.606094	0.144299	0.027194
H300	H	0.686800	0.075707	-0.060994
H301	H	0.691189	0.129062	-0.010357
O302	O	0.849165	0.156211	-0.351251
C303	C	0.920663	0.124817	-0.389475
H304	H	0.934630	0.157920	-0.392731
H305	H	0.935323	0.096614	-0.352071
H306	H	0.949851	0.094532	-0.454530
H307	H	0.891383	0.175547	-0.000160
H308	H	0.420060	0.371095	0.078321
O309	O	0.849163	0.156164	-0.085215
C310	C	0.899685	0.112370	-0.075979
H311	H	0.891303	0.132267	-0.017654
H312	H	0.895552	0.073023	-0.071024
H313	H	0.953052	0.096408	-0.131788
H314	H	0.593600	0.577084	-0.499400
H315	H	0.357545	0.167668	0.121557
H316	H	0.752512	0.257685	-0.078473
H317	H	0.709285	-0.100775	-0.121578
O318	O	0.347675	0.076103	0.128483
C319	C	0.309670	0.107575	0.212788
H320	H	0.327453	0.135723	0.219844
H321	H	0.252502	0.137920	0.239254
H322	H	0.318320	0.074535	0.247438
O323	O	0.410180	-0.089349	0.085310
C324	C	0.372163	-0.082815	0.169609
H325	H	0.408733	-0.115124	0.184882
H326	H	0.343815	-0.035088	0.208687
H327	H	0.333199	-0.092947	0.183426
O328	O	0.410254	-0.190020	0.085177
C329	C	0.423659	-0.247224	0.075898
H330	H	0.477370	-0.281045	0.059972
H331	H	0.383758	-0.246659	0.136017
H332	H	0.420688	-0.260224	0.024203
H333	H	0.646772	-0.304211	-0.078382
H334	H	0.646782	-0.211667	-0.078376
H335	H	0.593615	0.429516	-0.499548
O336	O	0.719167	-0.009233	-0.128441
C337	C	0.774317	-0.070272	-0.166545
H338	H	0.755990	-0.097477	-0.175084
H339	H	0.818026	-0.077396	-0.229287
H340	H	0.793531	-0.085302	-0.126076
H341	H	0.653959	0.473119	-0.625345
H342	H	0.175563	0.533445	0.494728
