data_functionalizedCrystal
_audit_creation_method	'MofGen! by Chris Wilmer'
_symmetry_space_group_name_H-M	'P1'
_symmetry_Int_Tables_number	1
_symmetry_cell_setting	triclinic
loop_
_symmetry_equiv_pos_as_xyz
  x,y,z
_cell_length_a	12.759401
_cell_length_b	14.908178
_cell_length_c	12.759393
_cell_angle_alpha	86.668487
_cell_angle_beta	89.982932
_cell_angle_gamma	93.314230
loop_
_atom_site_label
_atom_site_type_symbol
_atom_site_fract_x
_atom_site_fract_y
_atom_site_fract_z
Zn1	Zn	1.582083	-0.359141	-0.569812
Zn2	Zn	2.082083	0.140859	-0.069812
Zn3	Zn	1.571831	-0.510038	-0.383977
Zn4	Zn	2.071831	-0.010038	0.116023
Zn5	Zn	1.406386	-0.359185	-0.394148
Zn6	Zn	1.906386	0.140815	0.105852
Zn7	Zn	1.396228	-0.509971	-0.559623
Zn8	Zn	1.896228	-0.009971	-0.059623
O9	O	1.489132	-0.434584	-0.476890
O10	O	1.989132	0.065416	0.023110
O11	O	1.727743	-0.379167	-0.545168
O12	O	2.227743	0.120833	-0.045168
O13	O	1.549846	-0.490073	-0.238302
O14	O	2.049846	0.009927	0.261698
O15	O	1.438234	-0.232924	-0.425971
O16	O	1.938234	0.267076	0.074029
O17	O	1.720211	-0.490030	-0.408636
O18	O	2.220211	0.009970	0.091364
O19	O	1.567318	-0.232891	-0.555031
O20	O	2.067318	0.267109	-0.055031
O21	O	1.428294	-0.379243	-0.245775
O22	O	1.928294	0.120757	0.254225
O23	O	1.258018	-0.379178	-0.416091
O24	O	1.758018	0.120822	0.083909
O25	O	1.420921	-0.489916	-0.707999
O26	O	1.920921	0.010084	-0.207999
O27	O	1.250555	-0.489960	-0.537665
O28	O	1.750555	0.010040	-0.037665
O29	O	1.557467	-0.379102	-0.715484
O30	O	2.057467	0.120898	-0.215484
O31	O	1.539995	-0.636284	-0.398756
O32	O	2.039995	-0.136284	0.101244
O33	O	1.410980	-0.636235	-0.527802
O34	O	1.910980	-0.136235	-0.027802
C35	C	1.216166	-0.434567	-0.476877
C36	C	1.716166	0.065433	0.023123
C37	C	1.099388	-0.434582	-0.476895
C38	C	1.599388	0.065418	0.023105
C39	C	1.040661	-0.492358	-0.540081
C40	C	1.540661	0.007642	-0.040081
C41	C	0.930936	-0.492369	-0.540091
C42	C	1.430936	0.007631	-0.040091
C43	C	0.938675	-0.376826	-0.413721
C44	C	1.438675	0.123174	0.086279
C45	C	1.048398	-0.376810	-0.413717
C46	C	1.548398	0.123190	0.086283
C47	C	1.036192	-0.559069	-0.613036
C48	C	1.536192	-0.059069	-0.113036
C49	C	0.926467	-0.559080	-0.613047
C50	C	1.426467	-0.059080	-0.113047
C51	C	1.473301	-0.668996	-0.461092
C52	C	1.973301	-0.168996	0.038908
C53	C	1.466625	-0.769279	-0.454369
C54	C	1.966625	-0.269279	0.045631
C55	C	1.588393	-0.957536	-0.576269
C56	C	2.088393	-0.457536	-0.076269
C57	C	1.582124	-1.051761	-0.569956
C58	C	2.082124	-0.551761	-0.069956
C59	C	1.447813	-1.051954	-0.435435
C60	C	1.947813	-0.551954	0.064565
C61	C	1.454082	-0.957729	-0.441748
C62	C	1.954082	-0.457729	0.058252
C63	C	1.524376	-0.910524	-0.512167
C64	C	2.024376	-0.410524	-0.012167
C65	C	1.530649	-0.816298	-0.518474
C66	C	2.030649	-0.316298	-0.018474
C67	C	1.396334	-0.816493	-0.383959
C68	C	1.896334	-0.316493	0.116041
C69	C	1.390065	-0.910717	-0.377646
C70	C	1.890065	-0.410717	0.122354
C71	C	1.763164	-0.434601	-0.476904
C72	C	2.263164	0.065399	0.023096
C73	C	1.879940	-0.434608	-0.476909
C74	C	2.379940	0.065392	0.023091
C75	C	1.489204	-0.434497	-0.750929
C76	C	1.989204	0.065503	-0.250929
C77	C	1.489235	-0.434460	-0.867708
C78	C	1.989235	0.065540	-0.367708
C79	C	1.505053	-0.199256	-0.492772
C80	C	2.005053	0.300744	0.007228
C81	C	1.511837	-0.098973	-0.499540
C82	C	2.011837	0.401027	0.000460
C83	C	1.552582	-0.492107	-1.028404
C84	C	2.052582	0.007893	-0.528404
C85	C	1.552540	-0.492145	-0.918678
C86	C	2.052540	0.007855	-0.418678
C87	C	1.425961	-0.376738	-0.926471
C88	C	1.925961	0.123262	-0.426471
C89	C	1.425998	-0.376705	-1.036196
C90	C	1.925998	0.123295	-0.536196
C91	C	1.625664	-0.558734	-1.023904
C92	C	2.125664	-0.058734	-0.523904
C93	C	1.625623	-0.558772	-0.914177
C94	C	2.125623	-0.058772	-0.414177
C95	C	1.489124	-0.434605	-0.203921
C96	C	1.989124	0.065395	0.296079
C97	C	1.489314	-0.434388	-0.087160
C98	C	1.989314	0.065612	0.412840
H99	H	1.067252	-0.540436	-0.695697
H100	H	1.567252	-0.040436	-0.195697
H101	H	1.704662	-0.533698	-1.059625
H102	H	2.204662	-0.033698	-0.559625
H103	H	1.708247	-0.540065	-0.885659
H104	H	2.208247	-0.040065	-0.385659
N105	N	1.606450	-0.765375	-0.594429
N106	N	2.106450	-0.265375	-0.094429
H107	H	1.657770	-0.726272	-0.554403
H108	H	2.157770	-0.226272	-0.054403
H109	H	1.645977	-0.809512	-0.634067
H110	H	2.145977	-0.309512	-0.134067
N111	N	0.883674	-0.314529	-0.345571
N112	N	1.383674	0.185471	0.154429
H113	H	0.937530	-0.277927	-0.305541
H114	H	1.437530	0.222073	0.194459
H115	H	0.840976	-0.272825	-0.391231
H116	H	1.340976	0.227175	0.108769
N117	N	1.111728	-0.314471	-0.345584
N118	N	1.611728	0.185529	0.154416
H119	H	1.091671	-0.328394	-0.269550
H120	H	1.591671	0.171606	0.230450
H121	H	1.188957	-0.323242	-0.355252
H122	H	1.688957	0.176758	0.144748
H123	H	1.065744	-0.625409	-0.579287
H124	H	1.565744	-0.125409	-0.079287
N125	N	1.357754	-0.314447	-1.099556
N126	N	1.857754	0.185553	-0.599556
H127	H	1.403291	-0.272621	-1.147900
H128	H	1.903291	0.227379	-0.647900
H129	H	1.306609	-0.351157	-1.142543
H130	H	1.806609	0.148843	-0.642543
H131	H	0.894145	-0.534140	-0.692077
H132	H	1.394145	-0.034140	-0.192077
H133	H	0.891973	-0.628940	-0.586413
H134	H	1.391973	-0.128940	-0.086413
H135	H	1.645636	-0.919101	-0.633600
H136	H	2.145636	-0.419101	-0.133600
N137	N	1.357671	-0.314527	-0.871503
N138	N	1.857671	0.185473	-0.371503
H139	H	1.367244	-0.323306	-0.793077
H140	H	1.867244	0.176694	-0.293077
H141	H	1.378387	-0.250084	-0.895029
H142	H	1.878387	0.249916	-0.395029
H143	H	1.634248	-1.090035	-0.622160
H144	H	2.134248	-0.590035	-0.122160
H145	H	1.592000	-0.625169	-0.875666
H146	H	2.092000	-0.125169	-0.375666
H147	H	1.599158	-0.628601	-1.048964
H148	H	2.099158	-0.128601	-0.548964
H149	H	1.390579	-1.090405	-0.378109
H150	H	1.890579	-0.590405	0.121891
N151	N	1.314257	-0.961633	-0.301694
N152	N	1.814257	-0.461633	0.198306
H153	H	1.319999	-1.028459	-0.307418
H154	H	1.819999	-0.528459	0.192582
H155	H	1.331763	-0.945199	-0.227779
H156	H	1.831763	-0.445199	0.272221
H157	H	1.344210	-0.778204	-0.331759
H158	H	1.844210	-0.278204	0.168241
