data_functionalizedCrystal
_audit_creation_method	'MofGen! by Chris Wilmer'
_symmetry_space_group_name_H-M	'P1'
_symmetry_Int_Tables_number	1
_symmetry_cell_setting	triclinic
loop_
_symmetry_equiv_pos_as_xyz
  x,y,z
_cell_length_a	11.169417
_cell_length_b	18.101395
_cell_length_c	11.169409
_cell_angle_alpha	89.964326
_cell_angle_beta	89.980176
_cell_angle_gamma	90.031983
loop_
_atom_site_label
_atom_site_type_symbol
_atom_site_fract_x
_atom_site_fract_y
_atom_site_fract_z
Zn1	Zn	1.834789	-0.294752	-0.678515
Zn2	Zn	1.834606	-0.418619	-0.477820
Zn3	Zn	1.634075	-0.294797	-0.477849
Zn4	Zn	1.634010	-0.418558	-0.678465
O5	O	1.734370	-0.356682	-0.578162
O6	O	2.002715	-0.311190	-0.651901
O7	O	1.807956	-0.402238	-0.309874
O8	O	1.660804	-0.191159	-0.504501
O9	O	2.002580	-0.402194	-0.504451
O10	O	1.808268	-0.191125	-0.651929
O11	O	1.660626	-0.311267	-0.309896
O12	O	1.466117	-0.311208	-0.504453
O13	O	1.660693	-0.402091	-0.846421
O14	O	1.466069	-0.402135	-0.651844
O15	O	1.808205	-0.311131	-0.846458
O16	O	1.807892	-0.522244	-0.504403
O17	O	1.660515	-0.522199	-0.651816
C18	C	1.422545	-0.356670	-0.578147
C19	C	1.289145	-0.356684	-0.578169
C20	C	1.734209	-0.549092	-0.578127
C21	C	1.734250	-0.631406	-0.578152
C22	C	1.734514	-0.930497	-0.578217
C23	C	1.642003	-0.899175	-0.671195
C24	C	1.641564	-0.813557	-0.670904
C25	C	1.734383	-0.782115	-0.578186
C26	C	1.700132	-0.813278	-0.451699
C27	C	1.699535	-0.898923	-0.452255
C28	C	1.861478	-0.898837	-0.610612
C29	C	1.860732	-0.813186	-0.613386
C30	C	1.734311	-0.698255	-0.578160
C31	C	1.734583	-1.014357	-0.578234
C32	C	2.047412	-0.356694	-0.578178
C33	C	2.180812	-0.356699	-0.578185
C34	C	1.734462	-0.356599	-0.891205
C35	C	1.734501	-0.356564	-1.024605
C36	C	1.734564	-0.163520	-0.578224
C37	C	1.734647	-0.081206	-0.578250
C38	C	1.734347	-0.356710	-0.266338
C39	C	1.734541	-0.356537	-0.132938
H40	H	1.662994	-0.792484	-0.764693
Br41	Br	1.806953	-0.933468	-0.332847
Br42	Br	1.486105	-0.935177	-0.635914
Br43	Br	1.903788	-0.779235	-0.768540
H44	H	1.608304	-0.791896	-0.423764
Br45	Br	1.677359	-0.933409	-0.828030
H46	H	1.547455	-0.793137	-0.649447
Br47	Br	1.981700	-0.777499	-0.508751
Br48	Br	1.808900	-0.779341	-0.333079
Br49	Br	1.913526	-0.934737	-0.761721
H50	H	1.606724	-0.918969	-0.424813
Br51	Br	1.976363	-0.932611	-0.497762
