data_functionalizedCrystal
_audit_creation_method	'MofGen! by Chris Wilmer'
_symmetry_space_group_name_H-M	'P1'
_symmetry_Int_Tables_number	1
_symmetry_cell_setting	triclinic
loop_
_symmetry_equiv_pos_as_xyz
  x,y,z
_cell_length_a	20.919320
_cell_length_b	14.628931
_cell_length_c	14.628931
_cell_angle_alpha	60.000000
_cell_angle_beta	90.002062
_cell_angle_gamma	57.443477
loop_
_atom_site_label
_atom_site_type_symbol
_atom_site_fract_x
_atom_site_fract_y
_atom_site_fract_z
Zr1	Zr	0.641761	0.929165	-0.084222
O2	O	0.535391	1.131707	-0.236107
O3	O	0.674369	0.734831	-0.037661
O4	O	0.674370	0.925536	-0.228367
O5	O	0.535390	0.941002	0.105030
O6	O	0.783999	0.913337	-0.222262
O7	O	0.535391	0.941002	-0.045401
O8	O	0.783998	0.572200	0.118876
O9	O	0.535391	1.282138	-0.236107
O10	O	0.770091	0.802619	-0.013248
O11	O	0.688276	0.811724	0.094462
O12	O	0.688277	1.036254	-0.130070
O13	O	0.606462	1.045359	-0.022360
Zr14	Zr	0.816606	0.909709	0.165436
Zr15	Zr	0.816607	0.909708	-0.074485
Zr16	Zr	0.641761	0.929166	0.155699
Zr17	Zr	0.641761	1.169086	-0.084223
Zr18	Zr	0.816606	0.669788	0.165436
O19	O	0.783998	1.104043	0.118875
O20	O	0.783999	1.104042	-0.222262
O21	O	0.535391	1.131708	0.105030
O22	O	0.922977	0.707167	0.317321
O23	O	0.922977	0.707166	-0.023816
O24	O	0.674369	0.734832	0.303476
O25	O	0.922977	0.897872	-0.023817
O26	O	0.783998	0.913338	0.309581
O27	O	0.674369	0.925537	0.303475
O28	O	0.922977	0.897872	0.126615
O29	O	0.674370	1.266673	-0.228367
O30	O	0.783998	0.572201	0.309581
O31	O	0.922976	0.556736	0.317321
O32	O	0.922977	0.556735	0.126615
O33	O	0.535391	1.282139	-0.045402
O34	O	0.674370	1.266674	-0.037662
O35	O	0.770091	0.802620	0.211283
O36	O	0.851906	0.793515	0.103574
O37	O	0.770091	1.027150	-0.013248
O38	O	0.688276	1.036255	0.094461
C39	C	0.729183	0.619332	0.040607
C40	C	0.729183	0.517479	0.040607
C41	C	0.510479	0.943774	0.028427
C42	C	0.436252	0.952034	0.024293
C43	C	0.769769	0.467553	-0.012824
C44	C	0.769770	0.362283	-0.012825
C45	C	0.014284	1.004911	-0.002117
C46	C	0.084032	0.997139	0.001769
C47	C	0.161609	0.871297	0.064686
C48	C	0.169439	0.753218	0.123730
C49	C	0.099692	0.760990	0.119850
C50	C	0.374335	0.841727	0.079458
C51	C	0.444083	0.833963	0.083330
C52	C	0.358671	1.077886	-0.038630
C53	C	0.288927	1.085648	-0.042509
C54	C	0.296763	0.967569	0.016539
C55	C	0.232903	0.863350	0.068657
C56	C	0.225469	0.975517	0.012575
C57	C	0.947889	0.895100	0.052786
C58	C	1.022115	0.886840	0.056920
C59	C	0.729184	0.919436	-0.259498
C60	C	0.729184	0.919436	-0.361351
C61	C	0.729184	1.219542	0.040606
C62	C	0.729184	1.321395	0.040606
C63	C	0.688599	1.035334	-0.464712
C64	C	0.688598	1.035337	-0.569983
C65	C	0.729183	0.919438	0.340712
C66	C	0.729183	0.919438	0.442564
C67	C	0.947889	0.594995	0.052787
C68	C	1.022115	0.484882	0.056921
C69	C	0.729183	0.619333	0.340712
C70	C	0.729183	0.517480	0.442565
C71	C	0.947888	0.594996	0.352892
C72	C	1.022114	0.484883	0.458878
C73	C	0.510479	1.243878	-0.271678
C74	C	0.436253	1.353991	-0.377665
C75	C	0.510479	1.243879	0.028427
C76	C	0.436253	1.353992	0.024293
C77	C	0.729184	1.219541	-0.259498
C78	C	0.729185	1.321394	-0.361351
C79	C	1.014266	0.437924	-0.002128
C80	C	1.084003	0.334476	0.001734
C81	C	1.161588	0.277980	0.064651
C82	C	1.169435	0.324948	0.123701
C83	C	1.099699	0.428401	0.119832
C84	C	1.099686	0.428420	0.452428
C85	C	1.169436	0.324971	0.552005
C86	C	1.161613	0.277980	0.658031
C87	C	1.084033	0.334453	0.664479
C88	C	1.014285	0.437907	0.564903
C89	C	0.358682	1.410465	-0.371214
C90	C	0.288932	1.513945	-0.470791
C91	C	0.296755	1.560941	-0.576817
C92	C	0.374334	1.504461	-0.583265
C93	C	0.444082	1.400990	-0.483689
C94	C	0.444102	1.400960	0.083331
C95	C	0.374365	1.504435	0.079444
C96	C	0.296780	1.560933	0.016523
C97	C	0.288932	1.513961	-0.042523
C98	C	0.358668	1.410495	-0.038641
C99	C	0.769768	0.467555	0.545926
C100	C	0.769769	0.362285	0.651197
H101	H	0.804520	0.502737	-0.058563
Br102	Br	1.110325	0.492177	0.308549
H103	H	0.951099	0.483921	-0.053375
Br104	Br	0.549387	1.324309	0.168729
H105	H	0.225770	1.559914	-0.465519
Br106	Br	0.630673	1.200730	-0.717764
Br107	Br	0.549371	0.663165	0.168717
Br108	Br	1.073334	0.270754	-0.078410
H109	H	0.380770	1.542662	0.127531
H110	H	0.804513	0.319372	-0.058574
H111	H	0.239954	1.645194	-0.657890
H112	H	0.804511	0.502752	0.556481
H113	H	0.804517	0.319366	0.739863
H114	H	0.240003	1.645182	0.013372
Br115	Br	0.384937	1.568254	-0.727167
Br116	Br	0.671272	0.392904	0.490874
H117	H	0.951126	0.483867	0.570170
H118	H	1.232614	0.278935	0.174926
Br119	Br	0.384977	0.681476	0.159606
H120	H	0.296074	0.760889	0.119881
H121	H	0.225753	1.559978	-0.093751
Br122	Br	1.256223	0.137578	0.069889
H123	H	0.694432	0.364313	0.086347
Br124	Br	1.110366	0.492110	0.199985
H125	H	1.077676	0.296177	0.750818
H126	H	0.694439	0.482284	0.086354
H127	H	1.232598	0.279000	0.546735
H128	H	0.352297	1.372208	-0.284892
Br129	Br	0.348001	1.346760	-0.118767
H130	H	1.218413	0.193740	0.739103
Br131	Br	0.549355	1.324351	-0.492464
H132	H	-0.048879	1.107386	-0.053357
H133	H	0.077648	1.093285	-0.046320
H134	H	0.694433	0.482293	0.432010
H135	H	0.352302	1.174019	-0.086702
Br136	Br	0.274722	0.582428	0.209147
Br137	Br	0.183646	1.256441	-0.127890
Br138	Br	0.110321	0.600746	0.199982
H139	H	0.653856	1.134557	-0.475267
Br140	Br	0.120187	1.146298	-0.072801
Br141	Br	0.787094	0.754041	-0.409659
H142	H	0.763933	0.820212	-0.350795
