data_functionalizedCrystal
_audit_creation_method	'MofGen! by Chris Wilmer'
_symmetry_space_group_name_H-M	'P1'
_symmetry_Int_Tables_number	1
_symmetry_cell_setting	triclinic
loop_
_symmetry_equiv_pos_as_xyz
  x,y,z
_cell_length_a	12.811353
_cell_length_b	14.971486
_cell_length_c	13.448316
_cell_angle_alpha	89.997568
_cell_angle_beta	84.573570
_cell_angle_gamma	96.170965
loop_
_atom_site_label
_atom_site_type_symbol
_atom_site_fract_x
_atom_site_fract_y
_atom_site_fract_z
O1	O	1.392827	-0.120451	-0.042981
O2	O	1.892827	0.379549	0.457019
O3	O	1.087260	-0.133556	-0.015408
O4	O	1.587260	0.366444	0.484592
O5	O	1.248233	0.003174	-0.029941
O6	O	1.748233	0.503174	0.470059
O7	O	1.231853	-0.257181	-0.028449
O8	O	1.731853	0.242819	0.471551
O9	O	1.248206	0.003170	-0.195322
O10	O	1.748206	0.503170	0.304678
O11	O	1.087233	-0.133559	-0.180790
O12	O	1.587233	0.366441	0.319210
O13	O	1.392799	-0.120454	-0.208363
O14	O	1.892799	0.379546	0.291637
Cu15	Cu	1.240014	-0.127007	-0.209677
Cu16	Cu	1.740014	0.372993	0.290323
Cu17	Cu	1.240046	-0.127003	-0.014094
Cu18	Cu	1.740046	0.372997	0.485906
O19	O	1.231826	-0.257184	-0.193830
O20	O	1.731826	0.242816	0.306170
C21	C	1.048142	-0.132824	-0.094570
C22	C	1.548142	0.367176	0.405430
C23	C	0.931621	-0.130628	-0.084056
C24	C	1.431621	0.369372	0.415944
C25	C	1.247487	0.036499	-0.112565
C26	C	1.747487	0.536499	0.387435
C27	C	1.245292	0.135802	-0.112366
C28	C	1.745292	0.635802	0.387634
C29	C	1.431918	-0.121186	-0.129198
C30	C	1.931918	0.378814	0.370802
C31	C	1.548438	-0.123383	-0.139706
C32	C	2.048438	0.376617	0.360294
C33	C	1.712664	-0.126488	-0.244648
C34	C	2.212664	0.373512	0.255352
C35	C	1.603184	-0.124418	-0.234788
C36	C	2.103184	0.375582	0.265212
C37	C	1.603180	-0.124413	-0.054477
C38	C	2.103180	0.375587	0.445523
C39	C	1.712660	-0.126483	-0.064337
C40	C	2.212660	0.373517	0.435663
C41	C	1.767398	-0.127521	-0.159426
C42	C	2.267398	0.372479	0.340574
C43	C	1.876880	-0.129597	-0.169285
C44	C	2.376880	0.370403	0.330715
C45	C	1.876874	-0.129585	0.011025
C46	C	2.376874	0.370415	0.511025
C47	C	1.767394	-0.127516	0.020885
C48	C	2.267394	0.372484	0.520885
C49	C	1.232572	-0.290509	-0.111204
C50	C	1.732572	0.209491	0.388796
C51	C	1.234767	-0.389812	-0.111396
C52	C	1.734767	0.110188	0.388604
N53	N	1.239999	-0.127010	-0.347240
N54	N	1.739999	0.372990	0.152760
C55	C	1.339859	0.192763	-0.120900
C56	C	1.839859	0.692763	0.379100
C57	C	1.337790	0.286068	-0.120704
C58	C	1.837790	0.786068	0.379296
C59	C	1.241153	0.322411	-0.111980
C60	C	1.741153	0.822411	0.388020
C61	C	1.146578	0.265442	-0.103442
C62	C	1.646578	0.765442	0.396558
C63	C	1.148648	0.172139	-0.103632
C64	C	1.648648	0.672139	0.396368
C65	C	1.142271	0.459917	-0.103050
C66	C	1.642271	0.959917	0.396950
C67	C	1.140200	0.553227	-0.102862
C68	C	1.640200	1.053227	0.397138
C69	C	1.331413	0.573846	-0.120122
C70	C	1.831413	1.073846	0.379878
C71	C	1.333483	0.480543	-0.120311
C72	C	1.833483	0.980543	0.379689
C73	C	1.238907	0.423581	-0.111775
C74	C	1.738907	0.923581	0.388225
C75	C	1.311358	-0.066475	-0.830901
C76	C	1.811358	0.433525	-0.330901
C77	C	1.311349	-0.066481	-0.726796
C78	C	1.811349	0.433519	-0.226796
C79	C	1.240046	-0.127002	-0.668325
C80	C	1.740046	0.372998	-0.168325
C81	C	1.168753	-0.187528	-0.713964
C82	C	1.668753	0.312472	-0.213964
C83	C	1.168768	-0.187525	-0.818066
C84	C	1.668768	0.312475	-0.318066
C85	C	1.168726	-0.187527	-0.496981
C86	C	1.668726	0.312473	0.003019
C87	C	1.168710	-0.187529	-0.392871
C88	C	1.668710	0.312471	0.107129
C89	C	1.311308	-0.066483	-0.405711
C90	C	1.811308	0.433517	0.094289
C91	C	1.311322	-0.066480	-0.509814
C92	C	1.811322	0.433520	-0.009814
C93	C	1.240028	-0.127005	-0.555445
C94	C	1.740028	0.372995	-0.055445
N95	N	1.240069	-0.126994	0.123468
N96	N	1.740069	0.373006	0.623468
H97	H	1.921445	-0.130448	-0.246711
H98	H	2.421445	0.369552	0.253289
H99	H	1.369399	-0.017202	-0.689644
H100	H	1.869399	0.482798	-0.189644
H101	H	1.558595	-0.123553	0.022939
H102	H	2.058595	0.376447	0.522939
Cl103	Cl	1.025090	0.311130	-0.092463
Cl104	Cl	1.525090	0.811130	0.407537
Cl105	Cl	1.781480	-0.127806	-0.364184
Cl106	Cl	2.281480	0.372194	0.135816
H107	H	1.110648	-0.236812	-0.345269
H108	H	1.610648	0.263188	0.154731
Cl109	Cl	1.534379	-0.123117	-0.341930
Cl110	Cl	2.034379	0.376883	0.158070
H111	H	1.369418	-0.017187	-0.878501
H112	H	1.869418	0.482813	-0.378501
Cl113	Cl	1.698575	-0.126181	0.140418
Cl114	Cl	2.198575	0.373819	0.640418
H115	H	1.921449	-0.130432	0.080420
H116	H	2.421449	0.369568	0.580420
Cl117	Cl	1.400955	0.009609	-0.583322
Cl118	Cl	1.900955	0.509609	-0.083322
Cl119	Cl	1.023374	0.388309	-0.092318
Cl120	Cl	1.523374	0.888309	0.407682
Cl121	Cl	1.400931	0.009605	-0.348343
Cl122	Cl	1.900931	0.509605	0.151657
H123	H	1.418553	0.163181	-0.128010
H124	H	1.918553	0.663181	0.371990
H125	H	1.414797	0.332443	-0.127655
H126	H	1.914797	0.832443	0.372345
H127	H	1.412173	0.450956	-0.127422
H128	H	1.912173	0.950956	0.372578
H129	H	1.071642	0.125761	-0.096682
H130	H	1.571642	0.625761	0.403318
H131	H	1.110674	-0.236816	-0.534130
H132	H	1.610674	0.263184	-0.034130
Cl133	Cl	1.450307	0.645455	-0.130847
Cl134	Cl	1.950307	1.145455	0.369153
Cl135	Cl	1.079117	-0.263618	-0.640460
Cl136	Cl	1.579117	0.236382	-0.140460
Cl137	Cl	1.018711	0.598913	-0.091896
Cl138	Cl	1.518711	1.098913	0.408104
Cl139	Cl	1.079146	-0.263613	-0.875431
Cl140	Cl	1.579146	0.236387	-0.375431
