data_functionalizedCrystal
_audit_creation_method	'MofGen! by Chris Wilmer'
_symmetry_space_group_name_H-M	'P1'
_symmetry_Int_Tables_number	1
_symmetry_cell_setting	triclinic
loop_
_symmetry_equiv_pos_as_xyz
  x,y,z
_cell_length_a	15.297476
_cell_length_b	18.050589
_cell_length_c	15.298259
_cell_angle_alpha	80.289521
_cell_angle_beta	88.370467
_cell_angle_gamma	80.331867
loop_
_atom_site_label
_atom_site_type_symbol
_atom_site_fract_x
_atom_site_fract_y
_atom_site_fract_z
Zn1	Zn	1.253455	-0.370917	-0.726695
Zn2	Zn	1.278676	-0.519592	-0.580202
Zn3	Zn	1.132307	-0.378141	-0.554918
Zn4	Zn	1.106926	-0.477778	-0.701339
O5	O	1.192841	-0.436607	-0.640788
O6	O	1.379379	-0.405115	-0.728455
O7	O	1.280437	-0.521351	-0.454262
O8	O	1.148444	-0.273264	-0.577735
O9	O	1.397909	-0.514346	-0.620827
O10	O	1.237451	-0.267956	-0.703939
O11	O	1.172900	-0.417428	-0.435686
O12	O	1.006361	-0.376883	-0.553148
O13	O	1.105186	-0.443080	-0.827288
O14	O	0.987714	-0.450085	-0.660723
O15	O	1.212840	-0.364570	-0.845917
O16	O	1.255827	-0.617965	-0.596241
O17	O	1.129642	-0.587244	-0.685240
C18	C	0.965254	-0.409731	-0.601441
C19	C	0.867888	-0.398248	-0.584629
C20	C	0.831816	-0.354644	-0.520807
C21	C	0.740336	-0.343853	-0.505009
C22	C	0.684918	-0.376660	-0.553036
C23	C	0.720988	-0.420261	-0.616864
C24	C	0.812478	-0.431057	-0.632659
C25	C	0.665579	-0.453074	-0.664888
C26	C	0.701649	-0.496674	-0.728716
C27	C	0.793130	-0.507468	-0.744508
C28	C	0.848549	-0.474661	-0.696480
C29	C	0.574089	-0.442277	-0.649093
C30	C	0.554750	-0.518690	-0.760945
C31	C	0.646230	-0.529481	-0.776743
C32	C	1.192738	-0.629549	-0.640756
C33	C	1.192769	-0.712095	-0.640785
C34	C	1.124211	-0.894877	-0.689172
C35	C	1.116685	-0.955164	-0.605550
C36	C	1.192853	-0.863234	-0.640811
C37	C	1.200419	-0.950033	-0.724450
C38	C	1.192931	-1.009226	-0.640843
C39	C	1.185293	-0.922435	-0.557139
C40	C	1.269055	-0.917295	-0.676100
C41	C	1.261569	-0.977572	-0.592428
C42	C	1.192805	-0.779131	-0.640793
C43	C	1.192980	-1.093328	-0.640852
C44	C	1.421316	-0.463589	-0.680290
C45	C	1.518679	-0.475087	-0.697123
C46	C	1.153368	-0.398355	-0.869277
C47	C	1.136547	-0.382054	-0.966645
C48	C	1.192965	-0.242911	-0.640845
C49	C	1.193018	-0.160370	-0.640869
C50	C	1.313091	-0.552542	-1.279788
C51	C	1.328891	-0.567862	-1.188305
C52	C	1.280806	-0.521411	-1.132886
C53	C	1.216919	-0.459639	-1.168958
C54	C	1.201113	-0.444321	-1.260449
C55	C	1.168829	-0.413190	-1.113546
C56	C	1.104942	-0.351417	-1.149619
C57	C	1.089139	-0.336103	-1.241101
C58	C	1.137223	-0.382553	-1.296520
C59	C	1.184635	-0.428507	-1.022055
C60	C	1.072657	-0.320286	-1.002716
C61	C	1.056858	-0.304967	-1.094199
C62	C	1.232210	-0.474663	-0.413198
C63	C	1.249201	-0.490774	-0.315860
H64	H	0.610431	-0.367872	-0.540170
H65	H	1.319661	-1.013209	-0.551487
H66	H	1.293673	-0.533889	-1.058397
H67	H	1.236657	-0.478800	-0.992696
H68	H	1.380899	-0.618163	-1.158940
C69	C	1.029681	-0.977902	-0.565243
H70	H	0.980938	-0.949165	-0.599660
H71	H	1.023860	-0.967891	-0.506171
H72	H	1.030563	-1.030680	-0.565052
H73	H	1.352228	-0.590360	-1.324917
C74	C	0.949175	-0.486517	-0.713874
H75	H	0.962722	-0.517177	-0.758771
H76	H	0.979640	-0.511185	-0.660896
H77	H	0.967241	-0.438494	-0.732708
H78	H	1.178847	-0.910040	-0.486387
C79	C	1.356049	-0.894560	-0.716420
H80	H	1.361311	-0.903690	-0.775863
H81	H	1.404863	-0.923970	-0.682666
H82	H	1.355639	-0.841991	-0.715621
H83	H	1.124365	-0.370082	-1.371015
H84	H	1.004840	-0.254671	-1.123582
C85	C	1.209031	-0.966891	-0.819984
H86	H	1.160188	-0.938146	-0.854248
H87	H	1.209544	-1.019686	-0.819276
H88	H	1.262668	-0.953222	-0.845372
H89	H	0.876947	-0.327942	-0.481705
H90	H	1.033502	-0.282463	-0.957593
C91	C	0.534416	-0.394314	-0.578897
H92	H	0.471995	-0.392584	-0.576363
H93	H	0.547208	-0.344044	-0.594415
H94	H	0.559561	-0.416732	-0.522598
C95	C	0.700664	-0.295893	-0.434810
H96	H	0.746768	-0.277894	-0.408475
H97	H	0.671555	-0.326435	-0.390418
H98	H	0.659200	-0.253747	-0.462236
C99	C	0.832806	-0.555430	-0.814712
H100	H	0.786701	-0.573417	-0.841060
H101	H	0.874272	-0.597572	-0.787296
H102	H	0.861912	-0.524879	-0.859106
C103	C	0.493799	-0.554777	-0.813781
H104	H	0.434147	-0.542096	-0.795240
H105	H	0.510993	-0.608587	-0.803444
H106	H	0.498640	-0.535896	-0.875256
C107	C	0.685911	-0.577442	-0.846946
H108	H	0.639808	-0.595433	-0.873295
H109	H	0.727378	-0.619583	-0.819528
H110	H	0.715015	-0.546891	-0.891339
C111	C	1.045716	-0.846563	-0.744307
H112	H	0.991653	-0.859412	-0.719103
H113	H	1.050531	-0.856417	-0.803470
H114	H	1.046532	-0.794048	-0.744344
C115	C	1.018863	-0.268158	-1.280778
H116	H	0.992494	-0.242682	-1.234674
H117	H	0.974511	-0.286079	-1.309862
H118	H	1.046236	-0.233784	-1.322268
