data_functionalizedCrystal
_audit_creation_method	'MofGen! by Chris Wilmer'
_symmetry_space_group_name_H-M	'P1'
_symmetry_Int_Tables_number	1
_symmetry_cell_setting	triclinic
loop_
_symmetry_equiv_pos_as_xyz
  x,y,z
_cell_length_a	19.288864
_cell_length_b	14.853567
_cell_length_c	18.366186
_cell_angle_alpha	89.997562
_cell_angle_beta	89.977106
_cell_angle_gamma	83.385589
loop_
_atom_site_label
_atom_site_type_symbol
_atom_site_fract_x
_atom_site_fract_y
_atom_site_fract_z
O1	O	0.921732	0.112464	-0.060777
O2	O	0.719523	0.127635	-0.060727
O3	O	0.826029	-0.011211	-0.060755
O4	O	0.815226	0.251310	-0.060748
O5	O	0.826011	-0.011217	0.060344
O6	O	0.719505	0.127629	0.060373
O7	O	0.921714	0.112457	0.060322
Zn8	Zn	0.820607	0.120042	0.079575
Zn9	Zn	0.820631	0.120051	-0.079979
O10	O	0.815208	0.251304	0.060351
C11	C	0.693636	0.127144	-0.000171
C12	C	0.616527	0.125679	-0.000152
C13	C	0.572106	0.207147	-0.000161
C14	C	0.499654	0.205770	-0.000169
C15	C	0.471627	0.122920	-0.000182
C16	C	0.516058	0.041441	-0.000169
C17	C	0.588508	0.042820	-0.000154
C18	C	0.363152	0.057794	-0.042635
C19	C	0.290702	0.056418	-0.042655
C20	C	0.248167	0.118664	-0.000227
C21	C	0.278088	0.182300	0.042212
C22	C	0.350538	0.183679	0.042228
C23	C	0.393068	0.121416	-0.000199
C24	C	0.125185	0.198645	-0.000243
C25	C	0.052732	0.197265	-0.000247
C26	C	0.069138	0.032933	-0.000254
C27	C	0.141589	0.034316	-0.000244
C28	C	0.169608	0.117174	-0.000242
C29	C	0.825530	-0.044800	-0.000208
C30	C	0.824064	-0.144875	-0.000214
C31	C	0.754596	-0.557014	-0.000182
C32	C	0.881128	-0.579015	-0.000214
C33	C	0.882507	-0.484989	-0.000219
C34	C	0.819930	-0.426971	-0.000204
C35	C	0.755974	-0.462979	-0.000185
C36	C	0.946462	-0.448973	-0.000231
C37	C	0.947844	-0.354942	-0.000235
C38	C	0.885266	-0.296923	-0.000225
C39	C	0.821307	-0.332936	-0.000207
C40	C	0.758730	-0.274918	-0.000192
C41	C	0.694770	-0.310930	-0.000179
C42	C	0.693396	-0.404960	-0.000176
C43	C	0.886641	-0.202893	-0.000228
C44	C	0.760107	-0.180883	-0.000194
C45	C	0.947601	0.112949	-0.000236
C46	C	1.024710	0.114414	-0.000259
C47	C	0.815707	0.284893	-0.000198
C48	C	0.817174	0.384968	-0.000197
N49	N	0.820595	0.120035	0.188466
N50	N	0.820647	0.120050	-0.188870
C51	C	0.867772	0.058584	0.226553
C52	C	0.867776	0.058580	0.302781
C53	C	0.820611	0.120043	0.340918
C54	C	0.773426	0.181498	0.302822
C55	C	0.773418	0.181495	0.226595
C56	C	0.811590	0.202186	0.461682
C57	C	0.811602	0.202191	0.537907
C58	C	0.820631	0.120054	0.576026
C59	C	0.829661	0.037908	0.537910
C60	C	0.829653	0.037905	0.461684
C61	C	0.820614	0.120053	0.423573
C62	C	0.867814	0.058594	0.696769
C63	C	0.867814	0.058588	0.772998
C64	C	0.773467	0.181514	0.773037
C65	C	0.773464	0.181512	0.696809
C66	C	0.820641	0.120052	0.658679
H67	H	0.463479	0.272114	-0.000174
C68	C	0.691273	-0.117067	-0.000182
H69	H	0.701251	-0.055908	-0.000189
H70	H	0.665042	-0.127957	0.042052
H71	H	0.665064	-0.127957	-0.042413
H72	H	0.938716	-0.173576	-0.000234
H73	H	0.906229	0.008543	0.804009
H74	H	0.641323	-0.434289	-0.000164
H75	H	0.374897	0.235492	0.076785
C76	C	1.018195	-0.315337	-0.000259
H77	H	1.055265	-0.363358	-0.000273
H78	H	1.021361	-0.279107	0.041966
H79	H	1.021365	-0.279120	-0.042500
H80	H	0.906227	0.008547	0.665722
H81	H	0.804254	0.269079	0.568935
C82	C	0.156013	0.289781	-0.000232
H83	H	0.205524	0.278935	-0.000232
H84	H	0.140748	0.323312	0.041997
H85	H	0.140791	0.323316	-0.042468
H86	H	0.243457	0.232986	0.076762
H87	H	0.906185	0.008539	0.195510
H88	H	0.735061	0.231555	0.804088
H89	H	0.804226	0.269076	0.430652
C90	C	0.684246	-0.596622	-0.000165
H91	H	0.692385	-0.660932	-0.000162
H92	H	0.658482	-0.576687	-0.042387
H93	H	0.658474	-0.576692	0.042078
C94	C	0.003865	0.286883	-0.000258
H95	H	-0.043297	0.274197	-0.000259
H96	H	0.012391	0.320866	-0.042487
H97	H	0.012346	0.320870	0.041978
H98	H	0.643820	-0.263680	-0.000162
H99	H	0.735022	0.231541	0.333877
H100	H	0.046319	-0.034525	-0.000311
C101	C	0.602923	0.298287	-0.000145
H102	H	0.566087	0.346610	-0.000144
H103	H	0.630873	0.302249	-0.042366
H104	H	0.630817	0.302235	0.042099
H105	H	0.624677	-0.023524	-0.000146
C106	C	0.949959	-0.642826	-0.000230
H107	H	0.988245	-0.607912	-0.000237
H108	H	0.952056	-0.679968	-0.042457
H109	H	0.952045	-0.679960	0.042008
C110	C	0.721527	0.249100	0.184697
H111	H	0.693438	0.285709	0.218325
H112	H	0.692584	0.216766	0.154975
H113	H	0.746550	0.286549	0.154950
H114	H	0.906194	0.008538	0.333798
H115	H	0.177758	-0.032025	-0.000240
C116	C	0.839575	-0.052445	0.419757
H117	H	0.845048	-0.101365	0.453369
H118	H	0.879954	-0.054351	0.389917
H119	H	0.799830	-0.057367	0.390125
C120	C	0.839587	-0.052447	0.579830
H121	H	0.838289	-0.040684	0.630686
H122	H	0.883360	-0.084745	0.567321
H123	H	0.803223	-0.087649	0.567354
H124	H	0.735051	0.231554	0.665796
C125	C	0.257796	-0.013581	-0.089332
H126	H	0.293504	-0.050467	-0.114587
H127	H	0.226441	0.017042	-0.123456
H128	H	0.233150	-0.050519	-0.058742
H129	H	0.397779	0.007104	-0.077190
H130	H	0.493234	-0.026016	-0.000190
H131	H	0.997409	-0.496218	-0.000236
