data_functionalizedCrystal
_audit_creation_method	'MofGen! by Chris Wilmer'
_symmetry_space_group_name_H-M	'P1'
_symmetry_Int_Tables_number	1
_symmetry_cell_setting	triclinic
loop_
_symmetry_equiv_pos_as_xyz
  x,y,z
_cell_length_a	14.908783
_cell_length_b	14.908178
_cell_length_c	12.827885
_cell_angle_alpha	86.668630
_cell_angle_beta	86.678907
_cell_angle_gamma	96.402596
loop_
_atom_site_label
_atom_site_type_symbol
_atom_site_fract_x
_atom_site_fract_y
_atom_site_fract_z
Zn1	Zn	1.363090	-0.280583	-0.663354
Zn2	Zn	1.354255	-0.431989	-0.477885
Zn3	Zn	1.211712	-0.289352	-0.477902
Zn4	Zn	1.202962	-0.440642	-0.641873
O5	O	1.283005	-0.360641	-0.565254
O6	O	1.488587	-0.293376	-0.647734
O7	O	1.335311	-0.413116	-0.331646
O8	O	1.239152	-0.161509	-0.511500
O9	O	1.482096	-0.404614	-0.511471
O10	O	1.350369	-0.155067	-0.647750
O11	O	1.230585	-0.308321	-0.331658
O12	O	1.083882	-0.316712	-0.490671
O13	O	1.224239	-0.419361	-0.790964
O14	O	1.077454	-0.427864	-0.611139
O15	O	1.341885	-0.301767	-0.806746
O16	O	1.326826	-0.559816	-0.490642
O17	O	1.215672	-0.566173	-0.611123
C18	C	1.047824	-0.374179	-0.548576
C19	C	0.947211	-0.379992	-0.541465
C20	C	1.269365	-0.595840	-0.548574
C21	C	1.263613	-0.696454	-0.541479
C22	C	0.764898	-0.275242	-0.670186
C23	C	0.670364	-0.280701	-0.663508
C24	C	0.663607	-0.396363	-0.521426
C25	C	0.758141	-0.390905	-0.528105
C26	C	0.808784	-0.330343	-0.602488
C27	C	0.903319	-0.324889	-0.609170
C28	C	0.896561	-0.440546	-0.467085
C29	C	0.802027	-0.446005	-0.460407
C30	C	1.368527	-0.878665	-0.670162
C31	C	1.363125	-0.973201	-0.663500
C32	C	1.247405	-0.980063	-0.521498
C33	C	1.252806	-0.885528	-0.528160
C34	C	1.313370	-0.834832	-0.602494
C35	C	1.318776	-0.740294	-0.609151
C36	C	1.203051	-0.747158	-0.467154
C37	C	1.197650	-0.841694	-0.460492
C38	C	1.519104	-0.347052	-0.581997
C39	C	1.619715	-0.341261	-0.589132
C40	C	1.283071	-0.360551	-0.837835
C41	C	1.283100	-0.360512	-0.953992
C42	C	1.296722	-0.124523	-0.582023
C43	C	1.302567	-0.023903	-0.589169
C44	C	1.341321	-0.302312	-1.013588
C45	C	1.341352	-0.302271	-1.133643
C46	C	1.282994	-0.360663	-0.293742
C47	C	1.283156	-0.360437	-0.177615
H48	H	0.806131	-0.225935	-0.730756
H49	H	1.233272	-0.410304	-0.991851
H50	H	1.148338	-0.882983	-0.399974
C51	C	1.406226	-1.115069	-0.716342
C52	C	1.423755	-1.021385	-0.737882
H53	H	1.443654	-1.144814	-0.762270
H54	H	1.418627	-1.129827	-0.645999
H55	H	1.344508	-1.134102	-0.726166
H56	H	1.485471	-1.002351	-0.728049
H57	H	1.411361	-1.006621	-0.808242
H58	H	0.634636	-0.235831	-0.718632
C59	C	0.923046	-0.482804	-0.288982
C60	C	0.944802	-0.501119	-0.392663
H61	H	0.952825	-0.520205	-0.243043
H62	H	0.942063	-0.421081	-0.279213
H63	H	0.859495	-0.494722	-0.274371
H64	H	1.008352	-0.489194	-0.407277
H65	H	0.925790	-0.562857	-0.402437
H66	H	0.622359	-0.445659	-0.460857
H67	H	0.944551	-0.275578	-0.669738
C68	C	1.119582	-1.093525	-0.490730
C69	C	1.180841	-1.035805	-0.439797
H70	H	1.078494	-1.127942	-0.440288
H71	H	1.087036	-1.058640	-0.536348
H72	H	1.151672	-1.133149	-0.530084
H73	H	1.148751	-0.996177	-0.400449
H74	H	1.213390	-1.070694	-0.394161
C75	C	0.654111	-0.505733	-0.387084
C76	C	0.746356	-0.512575	-0.378651
H77	H	0.619745	-0.546837	-0.336616
H78	H	0.642141	-0.445798	-0.375112
H79	H	0.637887	-0.519939	-0.455242
H80	H	0.762581	-0.498362	-0.310495
H81	H	0.758332	-0.572524	-0.390616
H82	H	1.391141	-0.252512	-0.975729
C83	C	1.364431	-0.708489	-0.791333
C84	C	1.385339	-0.684563	-0.690861
H85	H	1.405520	-0.674080	-0.841779
H86	H	1.369113	-0.771057	-0.797043
H87	H	1.304483	-0.696542	-0.803319
H88	H	1.445285	-0.696516	-0.678872
H89	H	1.380665	-0.621981	-0.685148
C90	C	1.414198	-0.846852	-0.852342
C91	C	1.435093	-0.822930	-0.751866
H92	H	1.455290	-0.812438	-0.902782
H93	H	1.418885	-0.909418	-0.858055
H94	H	1.354250	-0.834909	-0.864336
H95	H	1.495039	-0.834880	-0.739869
H96	H	1.430414	-0.760349	-0.746150
H97	H	1.158142	-0.711458	-0.412051
C98	C	1.360927	-0.179833	-1.266034
C99	C	1.408644	-0.234995	-1.202776
H100	H	1.402473	-0.138295	-1.308710
H101	H	1.324432	-0.216320	-1.309182
H102	H	1.323525	-0.147462	-1.223107
H103	H	1.446041	-0.267372	-1.245704
H104	H	1.445154	-0.198504	-1.159624
C105	C	1.263582	-0.482866	-1.045217
C106	C	1.215863	-0.427709	-1.108478
H107	H	1.222037	-0.524392	-1.002525
H108	H	1.300973	-0.515243	-1.088134
H109	H	1.300088	-0.446367	-1.002076
H110	H	1.179361	-0.464207	-1.151625
H111	H	1.178456	-0.395329	-1.065557
