data_functionalizedCrystal
_audit_creation_method	'MofGen! by Chris Wilmer'
_symmetry_space_group_name_H-M	'P1'
_symmetry_Int_Tables_number	1
_symmetry_cell_setting	triclinic
loop_
_symmetry_equiv_pos_as_xyz
  x,y,z
_cell_length_a	19.805407
_cell_length_b	19.805405
_cell_length_c	19.805398
_cell_angle_alpha	89.972363
_cell_angle_beta	90.017356
_cell_angle_gamma	89.974605
loop_
_atom_site_label
_atom_site_type_symbol
_atom_site_fract_x
_atom_site_fract_y
_atom_site_fract_z
Zn1	Zn	-1.034711	-0.269508	-0.382738
Zn2	Zn	-1.034633	-0.382693	-0.269547
Zn3	Zn	-0.921533	-0.269522	-0.269560
Zn4	Zn	-0.921489	-0.382659	-0.382691
O5	O	-0.978091	-0.326096	-0.326134
O6	O	-1.129417	-0.284531	-0.367738
O7	O	-1.019616	-0.367701	-0.174832
O8	O	-0.936597	-0.174803	-0.284599
O9	O	-1.129360	-0.367688	-0.284576
O10	O	-1.019748	-0.174793	-0.367751
O11	O	-0.936522	-0.284554	-0.174842
O12	O	-0.826810	-0.284521	-0.284553
O13	O	-0.936522	-0.367629	-0.477414
O14	O	-0.826778	-0.367642	-0.367669
O15	O	-1.019706	-0.284498	-0.477449
O16	O	-1.019573	-0.477405	-0.284530
O17	O	-0.936447	-0.477380	-0.367656
C18	C	-0.802235	-0.326079	-0.326108
C19	C	-0.727003	-0.326089	-0.326112
C20	C	-0.691660	-0.369435	-0.369320
C21	C	-0.620972	-0.369435	-0.369328
C22	C	-0.585628	-0.326092	-0.326124
C23	C	-0.620976	-0.282741	-0.282914
C24	C	-0.691663	-0.282738	-0.282910
C25	C	-0.335903	-0.282751	-0.282929
C26	C	-0.265211	-0.282759	-0.282935
C27	C	-0.265211	-0.369447	-0.369346
C28	C	-0.335899	-0.369445	-0.369343
C29	C	-0.371241	-0.326092	-0.326136
C30	C	-0.447889	-0.326091	-0.326129
C31	C	-0.508981	-0.326095	-0.326127
C32	C	-0.978015	-0.501952	-0.326101
C33	C	-0.978045	-0.577184	-0.326110
C34	C	-0.154634	-0.326108	-0.326154
C35	C	-0.229866	-0.326102	-0.326146
C36	C	-1.021371	-0.612518	-0.282871
C37	C	-1.021399	-0.683207	-0.282886
C38	C	-0.978098	-0.718559	-0.326137
C39	C	-0.934770	-0.683219	-0.369380
C40	C	-0.934746	-0.612532	-0.369368
C41	C	-0.934870	-0.968292	-0.369430
C42	C	-0.934897	-1.038985	-0.369438
C43	C	-1.021524	-1.038967	-0.282949
C44	C	-1.021499	-0.968280	-0.282936
C45	C	-0.978174	-0.932946	-0.326182
C46	C	-0.978144	-0.856298	-0.326166
C47	C	-0.978124	-0.795206	-0.326150
C48	C	-0.978118	-0.326058	-0.502677
C49	C	-0.978129	-0.326042	-0.577909
C50	C	-0.978186	-0.149553	-0.326182
C51	C	-0.978227	-0.074321	-0.326202
C52	C	-1.021525	-0.282636	-1.039719
C53	C	-1.021514	-0.282657	-0.969031
C54	C	-0.978199	-0.325948	-0.933671
C55	C	-0.934896	-0.369226	-0.969003
C56	C	-0.934911	-0.369208	-1.039690
C57	C	-0.934837	-0.369300	-0.683929
C58	C	-0.934825	-0.369313	-0.613237
C59	C	-1.021441	-0.282748	-0.613270
C60	C	-1.021455	-0.282730	-0.683958
C61	C	-0.978155	-0.326010	-0.719283
C62	C	-0.978168	-0.325988	-0.795932
C63	C	-0.978182	-0.325967	-0.857024
C64	C	-0.978104	-0.326084	-0.150278
C65	C	-0.978224	-0.325909	-0.075046
H66	H	-0.364670	-0.247456	-0.247742
H67	H	-0.899466	-0.583763	-0.404578
H68	H	-1.056793	-0.247379	-1.068505
C69	C	-0.887267	-1.077874	-0.417020
C70	C	-0.916585	-1.126417	-0.470188
C71	C	-0.868957	-1.165307	-0.517766
C72	C	-0.792011	-1.155654	-0.512178
C73	C	-0.762689	-1.107109	-0.459008
C74	C	-0.810317	-1.068219	-0.411429
H75	H	-0.973548	-1.133564	-0.474327
H76	H	-0.890664	-1.201243	-0.557126
H77	H	-0.756754	-1.184442	-0.547398
H78	H	-0.705725	-1.099961	-0.454869
H79	H	-0.788610	-1.032283	-0.372069
H80	H	-0.899592	-0.939529	-0.404641
C81	C	-0.887140	-0.722106	-0.416958
C82	C	-0.834036	-0.770762	-0.387587
C83	C	-0.786404	-0.809648	-0.435165
C84	C	-0.791877	-0.799878	-0.512114
C85	C	-0.844984	-0.751220	-0.541489
C86	C	-0.892616	-0.712334	-0.493911
H87	H	-0.829983	-0.777996	-0.330621
H88	H	-0.747091	-0.845668	-0.413419
H89	H	-0.756617	-0.828664	-0.547335
H90	H	-0.849037	-0.743985	-0.598455
H91	H	-0.931929	-0.676314	-0.515657
C92	C	-1.069145	-0.235054	-0.930171
C93	C	-1.116787	-0.187431	-0.969065
C94	C	-1.164421	-0.139827	-0.930206
C95	C	-1.164414	-0.139847	-0.852452
C96	C	-1.116770	-0.187472	-0.813554
C97	C	-1.069136	-0.235076	-0.852414
H98	H	-1.116794	-0.187414	-1.026626
H99	H	-1.199690	-0.104572	-0.959001
H100	H	-1.199676	-0.104608	-0.823686
H101	H	-1.116763	-0.187488	-0.755993
H102	H	-1.033866	-0.270331	-0.823618
C103	C	-0.887191	-0.416901	-0.722767
C104	C	-0.916474	-0.470049	-0.771349
C105	C	-0.868818	-0.517651	-0.810184
C106	C	-0.791878	-0.512105	-0.800435
C107	C	-0.762590	-0.458955	-0.751850
C108	C	-0.810247	-0.411353	-0.713016
H109	H	-0.973434	-0.474156	-0.778568
H110	H	-0.890499	-0.556997	-0.846149
H111	H	-0.756600	-0.547344	-0.829182
H112	H	-0.705631	-0.454848	-0.744632
H113	H	-0.788565	-0.372007	-0.677051
C114	C	-0.887283	-0.416814	-1.078552
C115	C	-0.839638	-0.464436	-1.039661
C116	C	-0.792014	-0.512048	-1.078523
C117	C	-0.792034	-0.512037	-1.156276
C118	C	-0.839680	-0.464413	-1.195172
C119	C	-0.887305	-0.416801	-1.156310
H120	H	-0.839622	-0.464446	-0.982099
H121	H	-0.756743	-0.547303	-1.049729
H122	H	-0.756780	-0.547282	-1.185043
H123	H	-0.839697	-0.464403	-1.252733
H124	H	-0.922575	-0.381546	-1.185104
H125	H	-0.720432	-0.404732	-0.404500
C126	C	-1.069003	-0.573634	-0.235295
C127	C	-1.063538	-0.583409	-0.158346
C128	C	-1.111174	-0.544527	-0.110769
C129	C	-1.164276	-0.495868	-0.140142
C130	C	-1.169744	-0.486091	-0.217095
C131	C	-1.122107	-0.524974	-0.264671
H132	H	-1.024227	-0.619431	-0.136599
H133	H	-1.107126	-0.551765	-0.053803
H134	H	-1.199539	-0.467085	-0.104923
H135	H	-1.209055	-0.450069	-0.238842
H136	H	-1.126155	-0.517735	-0.321637
H137	H	-0.592199	-0.404732	-0.404511
H138	H	-1.056724	-0.247475	-0.712744
C139	C	-1.069055	-0.722080	-0.235323
C140	C	-1.122195	-0.770611	-0.264712
C141	C	-1.169853	-0.809486	-0.217148
C142	C	-1.164372	-0.799829	-0.140195
C143	C	-1.111230	-0.751295	-0.110802
C144	C	-1.063572	-0.712420	-0.158366
H145	H	-1.126254	-0.777762	-0.321680
H146	H	-1.209192	-0.845414	-0.238907
H147	H	-1.199651	-0.828606	-0.104985
H148	H	-1.107170	-0.744144	-0.053834
H149	H	-1.024233	-0.676492	-0.136607
H150	H	-1.056757	-0.939499	-0.247716
H151	H	-0.364672	-0.404741	-0.404522
H152	H	-0.236436	-0.247459	-0.247753
C153	C	-0.582100	-0.235063	-0.235388
C154	C	-0.504347	-0.235067	-0.235386
C155	C	-0.465473	-0.187389	-0.187857
C156	C	-0.504351	-0.139708	-0.140330
C157	C	-0.582109	-0.139703	-0.140330
C158	C	-0.620983	-0.187380	-0.187859
H159	H	-0.475563	-0.270365	-0.270570
H160	H	-0.407911	-0.187393	-0.187857
H161	H	-0.475574	-0.104414	-0.105146
H162	H	-0.610893	-0.104405	-0.105146
H163	H	-0.678545	-0.187376	-0.187859
H164	H	-1.056699	-0.247509	-0.584500
C165	C	-0.887178	-0.416940	-0.574340
C166	C	-0.810237	-0.411418	-0.584052
C167	C	-0.762593	-0.459042	-0.545155
C168	C	-0.791891	-0.512188	-0.496545
C169	C	-0.868836	-0.517713	-0.486830
C170	C	-0.916480	-0.470089	-0.525728
H171	H	-0.788546	-0.372074	-0.620038
H172	H	-0.705633	-0.454952	-0.552346
H173	H	-0.756622	-0.547442	-0.467751
H174	H	-0.890527	-0.557057	-0.450844
H175	H	-0.973440	-0.474179	-0.518536
C176	C	-0.730545	-0.235057	-0.235382
C177	C	-0.720857	-0.158120	-0.241050
C178	C	-0.759738	-0.110434	-0.193524
C179	C	-0.808308	-0.139685	-0.140331
C180	C	-0.817999	-0.216626	-0.134661
C181	C	-0.779117	-0.264312	-0.182186
H182	H	-0.684900	-0.136463	-0.280429
H183	H	-0.752565	-0.053478	-0.197722
H184	H	-0.837091	-0.104386	-0.105149
H185	H	-0.853955	-0.238283	-0.095282
H186	H	-0.786291	-0.321269	-0.177989
H187	H	-0.236427	-0.404745	-0.404530
H188	H	-0.899631	-0.404478	-0.940207
C189	C	-1.069189	-1.077835	-0.235381
C190	C	-1.146127	-1.068045	-0.240972
C191	C	-1.193788	-1.106911	-0.193404
C192	C	-1.164512	-1.155566	-0.140245
C193	C	-1.087570	-1.165358	-0.134653
C194	C	-1.039909	-1.126493	-0.182221
H195	H	-1.167803	-1.032026	-0.280324
H196	H	-1.250746	-1.099662	-0.197544
H197	H	-1.199794	-1.184337	-0.105033
H198	H	-1.065895	-1.201378	-0.095300
H199	H	-0.982951	-1.133742	-0.178081
