data_functionalizedCrystal
_audit_creation_method	'MofGen! by Chris Wilmer'
_symmetry_space_group_name_H-M	'P1'
_symmetry_Int_Tables_number	1
_symmetry_cell_setting	triclinic
loop_
_symmetry_equiv_pos_as_xyz
  x,y,z
_cell_length_a	13.635800
_cell_length_b	17.296766
_cell_length_c	10.943624
_cell_angle_alpha	82.336118
_cell_angle_beta	71.161201
_cell_angle_gamma	102.621013
loop_
_atom_site_label
_atom_site_type_symbol
_atom_site_fract_x
_atom_site_fract_y
_atom_site_fract_z
V1	V	-2.045624	-0.111079	0.415536
O2	O	-2.037187	0.005359	0.394262
O3	O	-2.022681	-0.220271	0.425547
O4	O	-2.034792	-0.109360	0.590902
O5	O	-2.024991	-0.106319	0.227763
V6	V	-2.285542	-0.097152	0.391515
O7	O	-2.180295	-0.141627	0.468227
O8	O	-2.375970	-0.066604	0.338824
O9	O	-2.196882	0.012040	0.381504
O10	O	-2.352677	-0.213590	0.412790
O11	O	-2.364873	-0.101912	0.579289
O12	O	-2.184770	-0.098870	0.216150
V13	V	-1.545624	-0.111079	0.415536
O14	O	-1.537187	0.005359	0.394262
O15	O	-1.522681	-0.220271	0.425547
O16	O	-1.534792	-0.109360	0.590902
O17	O	-1.524991	-0.106319	0.227763
V18	V	-1.785542	-0.097152	0.391515
O19	O	-1.680295	-0.141627	0.468227
O20	O	-1.875970	-0.066604	0.338824
O21	O	-1.696882	0.012040	0.381504
O22	O	-1.852677	-0.213590	0.412790
O23	O	-1.864873	-0.101912	0.579289
O24	O	-1.684770	-0.098870	0.216150
C25	C	-1.945054	-0.246890	0.422308
C26	C	-1.967028	-0.336156	0.431663
C27	C	-1.948050	-0.366632	0.316484
C28	C	-1.968707	-0.450508	0.325278
C29	C	-2.008335	-0.503906	0.449251
C30	C	-2.027317	-0.473425	0.564438
C31	C	-2.006667	-0.389551	0.555644
C32	C	-2.072157	-0.757725	0.481787
C33	C	-2.092803	-0.841604	0.490573
C34	C	-2.034194	-0.818681	0.251411
C35	C	-2.013540	-0.734806	0.242627
C36	C	-2.032529	-0.704333	0.357815
C37	C	-2.029448	-0.589640	0.458242
C38	C	-2.011424	-0.618600	0.348823
C39	C	-1.960503	-0.105412	0.633233
C40	C	-1.992298	-0.104729	0.776679
C41	C	-2.106179	0.038655	0.384740
C42	C	-2.073825	0.127920	0.375394
C43	C	-2.090730	-0.102822	0.173812
C44	C	-2.048555	-0.103500	0.030364
C45	C	-1.445054	-0.246890	0.422308
C46	C	-1.467028	-0.336156	0.431663
C47	C	-1.460503	-0.105412	0.633233
C48	C	-1.492298	-0.104729	0.776679
C49	C	-1.915214	-0.100135	0.853290
C50	C	-2.002450	-0.168329	0.967252
C51	C	-1.961726	-0.035328	0.918317
C52	C	-2.079132	-0.172987	0.888772
C53	C	-2.038375	-0.039926	0.839807
C54	C	-2.125677	-0.108139	0.953741
C55	C	-1.606179	0.038655	0.384740
C56	C	-1.573825	0.127920	0.375394
C57	C	-1.590730	-0.102822	0.173812
C58	C	-1.548555	-0.103500	0.030364
C59	C	-1.568962	-0.382170	0.442985
C60	C	-1.589628	-0.466048	0.451794
C61	C	-1.508356	-0.503908	0.449272
C62	C	-1.406415	-0.457888	0.437952
C63	C	-1.385752	-0.374013	0.429153
C64	C	-1.644385	0.173934	0.364076
C65	C	-1.613991	0.257811	0.355273
C66	C	-1.513041	0.295671	0.357798
C67	C	-1.442475	0.249652	0.369114
C68	C	-1.472866	0.165777	0.377907
C69	C	-1.415214	-0.100135	0.853290
C70	C	-1.502450	-0.168329	0.967252
C71	C	-1.461726	-0.035328	0.918317
C72	C	-1.579132	-0.172987	0.888772
C73	C	-1.538375	-0.039926	0.839807
C74	C	-1.625677	-0.108139	0.953741
H75	H	-1.953255	-0.475317	0.231487
O76	O	-1.528607	-0.585407	0.457998
C77	C	-1.636344	-0.718898	0.588089
C78	C	-1.613533	-0.626622	0.578367
H79	H	-1.704992	-0.752248	0.685412
H80	H	-1.660139	-0.734725	0.501811
H81	H	-1.560724	-0.738037	0.584273
H82	H	-1.689113	-0.607417	0.582220
H83	H	-1.589692	-0.610846	0.664638
O84	O	-1.402990	0.034162	0.934831
C85	C	-1.354276	0.180471	0.885970
C86	C	-1.420877	0.101842	0.867193
H87	H	-1.368696	0.235211	0.831274
H88	H	-1.379833	0.180679	0.995900
H89	H	-1.264922	0.183730	0.844561
H90	H	-1.510246	0.098532	0.908527
H91	H	-1.395230	0.101668	0.757249
H92	H	-1.915774	-0.323160	0.215531
H93	H	-1.981279	-0.691334	0.141675
O94	O	-1.327578	-0.494794	0.435456
C95	C	-1.278254	-0.620409	0.442932
C96	C	-1.367626	-0.578712	0.445754
H97	H	-1.310607	-0.688266	0.451284
H98	H	-1.206524	-0.593170	0.345965
H99	H	-1.251484	-0.610660	0.529559
H100	H	-1.394487	-0.588446	0.359193
H101	H	-1.439296	-0.605957	0.542776
O102	O	-2.138148	-0.242420	0.872450
C103	C	-2.315433	-0.325531	0.906462
C104	C	-2.248735	-0.246862	0.925007
H105	H	-2.404856	-0.329157	0.948969
H106	H	-2.290595	-0.325526	0.796496
H107	H	-2.300218	-0.380185	0.960278
H108	H	-2.263915	-0.192166	0.871268
H109	H	-2.273584	-0.246938	1.034997
H110	H	-1.488308	0.363968	0.350636
O111	O	-1.286799	-0.329304	0.418364
C112	C	-1.184957	-0.240718	0.513957
C113	C	-1.297087	-0.291329	0.526356
H114	H	-1.193239	-0.209988	0.601239
H115	H	-1.130396	-0.282160	0.513737
H116	H	-1.148227	-0.192488	0.417645
H117	H	-1.333912	-0.339562	0.622659
H118	H	-1.351572	-0.249835	0.526498
H119	H	-2.059591	-0.516909	0.665381
H120	H	-2.214963	-0.111539	0.997383
O121	O	-1.404472	0.120979	0.389097
C122	C	-1.376304	0.010703	0.520762
C123	C	-1.453882	0.061354	0.508243
H124	H	-1.416213	-0.037505	0.617099
H125	H	-1.356296	-0.020036	0.433497
H126	H	-1.298927	0.052198	0.520992
H127	H	-1.531307	0.019914	0.508049
H128	H	-1.473801	0.092101	0.595506
O129	O	-2.055889	0.024924	0.773806
C130	C	-2.013445	0.170766	0.713070
C131	C	-1.993507	0.097388	0.787850
H132	H	-1.963038	0.229370	0.724421
H133	H	-1.989532	0.169318	0.603673
H134	H	-2.102598	0.167925	0.755835
H135	H	-1.904367	0.100180	0.745196
H136	H	-2.017492	0.098862	0.897240
O137	O	-1.742513	0.137108	0.361852
C138	C	-1.913453	0.036239	0.477327
C139	C	-1.802371	0.077880	0.480043
H140	H	-1.961871	-0.011668	0.572861
H141	H	-1.958726	0.083503	0.467803
H142	H	-1.901962	0.006015	0.389247
H143	H	-1.813764	0.108102	0.568115
H144	H	-1.757136	0.030581	0.489499
H145	H	-1.671464	0.295269	0.346061
O146	O	-1.308755	-0.096173	0.800756
C147	C	-1.159102	-0.091769	0.605564
C148	C	-1.279665	-0.096233	0.664882
H149	H	-1.135550	-0.091834	0.495708
H150	H	-1.108805	-0.033646	0.618427
H151	H	-1.143714	-0.146587	0.658680
H152	H	-1.295155	-0.041457	0.611807
H153	H	-1.329899	-0.154391	0.652037
O154	O	-1.484821	-0.233175	1.033118
C155	C	-1.525745	-0.378988	1.091902
C156	C	-1.545796	-0.305627	1.017235
H157	H	-1.575049	-0.437583	1.079110
H158	H	-1.436344	-0.375573	1.050383
H159	H	-1.551053	-0.378113	1.201582
H160	H	-1.520551	-0.306454	0.907546
H161	H	-1.635201	-0.309068	1.058861
O162	O	-2.131441	-0.893566	0.610941
C163	C	-2.275855	-1.005428	0.766249
C164	C	-2.232219	-0.946644	0.629901
H165	H	-2.357350	-1.048346	0.781633
H166	H	-2.216721	-1.042186	0.771058
H167	H	-2.285826	-0.969226	0.847046
H168	H	-2.222251	-0.982783	0.549026
H169	H	-2.291372	-0.909885	0.625206
O170	O	-1.344330	0.286421	0.371347
C171	C	-1.151339	0.315987	0.266918
C172	C	-1.262413	0.274324	0.264203
H173	H	-1.085081	0.306207	0.180318
H174	H	-1.141670	0.383851	0.258614
H175	H	-1.145045	0.288696	0.363905
H176	H	-1.268784	0.301549	0.167234
H177	H	-1.272035	0.206462	0.272579
H178	H	-1.628466	-0.231229	0.875036
H179	H	-1.714963	-0.111539	0.997383
O180	O	-1.556013	0.024774	0.773585
C181	C	-1.546353	0.096200	0.563470
C182	C	-1.526373	0.022871	0.638323
H183	H	-1.522377	0.094695	0.454093
H184	H	-1.635491	0.093424	0.606134
H185	H	-1.495907	0.154806	0.574767
H186	H	-1.576752	-0.035772	0.627056
H187	H	-1.437212	0.025719	0.595643
H188	H	-1.987594	-0.222612	1.022546
O189	O	-1.808795	-0.096315	0.800869
C190	C	-1.676887	-0.161117	0.689507
C191	C	-1.797435	-0.165530	0.748796
H192	H	-1.667665	-0.217079	0.647416
H193	H	-1.632745	-0.104130	0.607144
H194	H	-1.641009	-0.158897	0.770163
H195	H	-1.833408	-0.167782	0.668234
H196	H	-1.841500	-0.222509	0.831189
H197	H	-1.635149	-0.351355	0.445032
O198	O	-2.015564	-0.848238	0.139475
C199	C	-1.884753	-0.850388	-0.068864
C200	C	-1.905691	-0.816871	0.057860
H201	H	-1.795928	-0.825028	-0.134897
H202	H	-1.906237	-0.919506	-0.041371
H203	H	-1.936623	-0.831398	-0.124183
H204	H	-1.853833	-0.835800	0.113239
H205	H	-1.884240	-0.747758	0.030279
O206	O	-2.090767	-0.728104	0.593657
C207	C	-2.188509	-0.650576	0.729086
C208	C	-2.167547	-0.684089	0.602357
H209	H	-2.250568	-0.614968	0.736146
H210	H	-2.220445	-0.703127	0.819245
H211	H	-2.109959	-0.608773	0.725638
H212	H	-2.246053	-0.725880	0.605675
H213	H	-2.135562	-0.631498	0.512252
H214	H	-1.979163	-0.575120	0.247885
O215	O	-2.025115	-0.360077	0.667656
C216	C	-2.085491	-0.391663	0.905804
C217	C	-2.064615	-0.425147	0.779051
H218	H	-2.117451	-0.444256	0.995900
H219	H	-2.006974	-0.349858	0.902448
H220	H	-2.147579	-0.356078	0.912898
H221	H	-2.002563	-0.460769	0.771876
H222	H	-2.143180	-0.466908	0.782460
H223	H	-2.061715	-0.633126	0.559182
H224	H	-1.672639	-0.503506	0.461006
H225	H	-1.912400	0.022837	0.932280
