data_functionalizedCrystal
_audit_creation_method	'MofGen! by Chris Wilmer'
_symmetry_space_group_name_H-M	'P1'
_symmetry_Int_Tables_number	1
_symmetry_cell_setting	triclinic
loop_
_symmetry_equiv_pos_as_xyz
  x,y,z
_cell_length_a	6.817900
_cell_length_b	12.908906
_cell_length_c	12.908943
_cell_angle_alpha	95.896809
_cell_angle_beta	100.860631
_cell_angle_gamma	100.860157
loop_
_atom_site_label
_atom_site_type_symbol
_atom_site_fract_x
_atom_site_fract_y
_atom_site_fract_z
V1	V	-3.982912	-0.144539	-0.328103
O2	O	-3.985074	0.008300	-0.322458
O3	O	-3.921444	-0.287900	-0.325281
O4	O	-3.921448	-0.141722	-0.471464
O5	O	-3.985069	-0.138890	-0.175263
V6	V	-4.469926	-0.126328	-0.309892
O7	O	-4.236513	-0.184487	-0.368049
O8	O	-4.666523	-0.086381	-0.269946
O9	O	-4.308188	0.017032	-0.312715
O10	O	-4.585162	-0.279167	-0.315537
O11	O	-4.585166	-0.131978	-0.462732
O12	O	-4.308184	-0.129146	-0.166531
C13	C	-3.763688	-0.322866	-0.319956
C14	C	-3.794631	-0.440061	-0.318604
C15	C	-3.763693	-0.136401	-0.506425
C16	C	-3.794637	-0.135046	-0.623620
C17	C	-3.657129	-0.599898	-0.311461
C18	C	-3.628043	-0.489782	-0.312731
C19	C	-3.990322	-0.500465	-0.323211
C20	C	-4.019408	-0.610581	-0.321942
C21	C	-3.852803	-0.660293	-0.316065
C22	C	-3.881890	-0.770409	-0.314788
C23	C	-4.244168	-0.781091	-0.325276
C24	C	-4.215082	-0.670976	-0.326545
C25	C	-4.215080	-0.142961	-0.854534
C26	C	-4.244164	-0.141689	-0.964649
C27	C	-3.881888	-0.131220	-0.953965
C28	C	-3.852805	-0.132493	-0.843850
C29	C	-4.019409	-0.138365	-0.794139
C30	C	-3.990325	-0.139645	-0.684023
C31	C	-3.628050	-0.129170	-0.673340
C32	C	-3.657133	-0.127897	-0.783455
C33	C	-4.129285	0.051993	-0.318037
C34	C	-4.077580	0.169187	-0.319396
C35	C	-4.129281	-0.134470	-0.131564
C36	C	-4.077577	-0.135820	-0.014369
H37	H	-3.521474	-0.640374	-0.306680
H38	H	-3.521495	-0.123112	-0.823945
H39	H	-4.125957	-0.459972	-0.328007
H40	H	-3.468717	-0.125432	-0.624155
H41	H	-4.403496	-0.145431	-1.013820
H42	H	-3.746231	-0.810884	-0.310009
H43	H	-4.350720	-0.630486	-0.331334
C44	C	-3.698792	-0.125224	-1.008725
H45	H	-3.578126	-0.122804	-0.957007
H46	H	-3.722326	-0.186387	-1.060715
H47	H	-3.682987	-0.062901	-1.042243
C48	C	-3.412801	-0.423349	-0.307657
H49	H	-3.317750	-0.468729	-0.303967
H50	H	-3.413056	-0.389550	-0.369653
H51	H	-3.374787	-0.370791	-0.246202
H52	H	-4.403498	-0.830274	-0.329006
H53	H	-4.125986	-0.144431	-0.643551
H54	H	-4.350740	-0.147754	-0.814061
