data_functionalizedCrystal
_audit_creation_method	'MofGen! by Chris Wilmer'
_symmetry_space_group_name_H-M	'P1'
_symmetry_Int_Tables_number	1
_symmetry_cell_setting	triclinic
loop_
_symmetry_equiv_pos_as_xyz
  x,y,z
_cell_length_a	10.654550
_cell_length_b	10.723024
_cell_length_c	9.730223
_cell_angle_alpha	89.999810
_cell_angle_beta	89.996251
_cell_angle_gamma	84.476386
loop_
_atom_site_label
_atom_site_type_symbol
_atom_site_fract_x
_atom_site_fract_y
_atom_site_fract_z
O1	O	1.667808	0.175269	-0.114399
O2	O	1.302327	0.191968	-0.114377
O3	O	1.493497	0.002044	-0.114383
O4	O	1.476637	0.365194	-0.114393
O5	O	1.493495	0.002049	0.114197
O6	O	1.302324	0.191973	0.114203
O7	O	1.667805	0.175274	0.114181
Zn8	Zn	1.485065	0.183624	0.150484
Zn9	Zn	1.485067	0.183618	-0.150680
O10	O	1.476635	0.365199	0.114187
C11	C	1.255528	0.190745	-0.000084
C12	C	1.116085	0.187076	-0.000075
C13	C	1.036583	0.298901	-0.000098
C14	C	0.905562	0.295446	-0.000122
C15	C	0.933560	0.068333	-0.000106
C16	C	1.064578	0.071789	-0.000072
C17	C	1.020417	0.430023	-0.000114
C18	C	0.889397	0.426568	-0.000137
C19	C	1.492269	-0.044454	-0.000095
C20	C	1.488598	-0.183008	-0.000100
C21	C	1.595568	-0.257975	-0.000108
C22	C	1.591776	-0.401179	-0.000113
C23	C	1.714604	0.176498	-0.000115
C24	C	1.854047	0.180166	-0.000133
C25	C	1.477863	0.411696	-0.000104
C26	C	1.481534	0.550251	-0.000108
N27	N	1.485072	0.183628	0.356020
N28	N	1.485070	0.183605	-0.356216
C29	C	1.569744	0.099558	0.427943
C30	C	1.569741	0.099543	0.571826
C31	C	1.400389	0.267678	0.571850
C32	C	1.400387	0.267687	0.427970
C33	C	1.667522	0.002490	0.427931
C34	C	1.667519	0.002475	0.571814
H35	H	1.129305	-0.019270	-0.000034
H36	H	1.758701	0.032883	0.383298
C37	C	1.352999	-0.287107	-0.117607
C38	C	1.357897	-0.362806	-0.000104
H39	H	1.276666	-0.233432	-0.117606
H40	H	1.422644	-0.238075	-0.117595
H41	H	1.356344	-0.338480	-0.197310
H42	H	1.354561	-0.311433	0.079600
H43	H	1.288233	-0.411842	-0.000103
C44	C	0.929904	0.537149	-0.207590
C45	C	0.833038	0.493256	-0.129281
H46	H	0.895108	0.578312	-0.287316
H47	H	0.972383	0.594359	-0.154436
H48	H	0.987903	0.468536	-0.234146
H49	H	0.775044	0.561871	-0.102717
H50	H	0.790539	0.436042	-0.182445
C51	C	1.232983	0.433869	0.442452
C52	C	1.307305	0.360091	0.348911
H53	H	1.175522	0.490921	0.393641
H54	H	1.187376	0.381495	0.498568
H55	H	1.285652	0.479243	0.498572
H56	H	1.254637	0.314710	0.292798
H57	H	1.352916	0.412472	0.292771
H58	H	0.843719	0.466197	0.098546
C59	C	1.850462	-0.068982	0.704464
C60	C	1.797794	0.031336	0.624540
H61	H	1.930887	-0.051165	0.737009
H62	H	1.796846	-0.080864	0.780379
H63	H	1.859391	-0.142947	0.650198
H64	H	1.788856	0.105300	0.678810
H65	H	1.851424	0.043233	0.548615
H66	H	1.637019	-0.088167	0.616433
C67	C	1.621026	-0.205523	0.487130
C68	C	1.638584	-0.126986	0.375200
H69	H	1.603152	-0.285450	0.454573
H70	H	1.695479	-0.214337	0.541349
H71	H	1.552521	-0.170053	0.541365
H72	H	1.707095	-0.162452	0.320971
H73	H	1.564121	-0.118176	0.320958
C74	C	0.745149	-0.037808	-0.000149
C75	C	0.876937	-0.058387	-0.000116
H76	H	0.710198	-0.116043	-0.000166
H77	H	0.717915	0.008275	0.079551
H78	H	0.717958	0.008283	-0.079872
H79	H	0.904129	-0.104470	0.079612
H80	H	0.904183	-0.104490	-0.079824
H81	H	1.331440	0.336116	0.630447
H82	H	1.394211	-0.224844	-0.000103
H83	H	1.049740	0.481306	0.095551
H84	H	1.056067	0.471772	-0.098802
H85	H	1.689955	-0.216139	-0.000105
H86	H	1.683350	-0.465598	-0.000114
