data_functionalizedCrystal
_audit_creation_method	'MofGen! by Chris Wilmer'
_symmetry_space_group_name_H-M	'P1'
_symmetry_Int_Tables_number	1
_symmetry_cell_setting	triclinic
loop_
_symmetry_equiv_pos_as_xyz
  x,y,z
_cell_length_a	18.050591
_cell_length_b	19.121063
_cell_length_c	18.050583
_cell_angle_alpha	92.401387
_cell_angle_beta	89.977979
_cell_angle_gamma	92.465257
loop_
_atom_site_label
_atom_site_type_symbol
_atom_site_fract_x
_atom_site_fract_y
_atom_site_fract_z
Zn1	Zn	1.122689	-0.279636	-0.432625
Zn2	Zn	1.372689	-0.029636	-0.182625
Zn3	Zn	1.622689	0.220364	0.067375
Zn4	Zn	1.872689	0.470364	0.317375
Zn5	Zn	1.117299	-0.397107	-0.313726
Zn6	Zn	1.367299	-0.147107	-0.063726
Zn7	Zn	1.617299	0.102893	0.186274
Zn8	Zn	1.867299	0.352893	0.436274
Zn9	Zn	0.998504	-0.279667	-0.308438
Zn10	Zn	1.248504	-0.029667	-0.058438
Zn11	Zn	1.498504	0.220333	0.191562
Zn12	Zn	1.748504	0.470333	0.441562
Zn13	Zn	0.993161	-0.397042	-0.437858
Zn14	Zn	1.243161	-0.147042	-0.187858
Zn15	Zn	1.493161	0.102958	0.062142
Zn16	Zn	1.743161	0.352958	0.312142
O17	O	1.057914	-0.338363	-0.373162
O18	O	1.307914	-0.088363	-0.123162
O19	O	1.557914	0.161637	0.126838
O20	O	1.807914	0.411637	0.376838
O21	O	1.225898	-0.295233	-0.416876
O22	O	1.475898	-0.045233	-0.166876
O23	O	1.725898	0.204767	0.083124
O24	O	1.975898	0.454767	0.333124
O25	O	1.101522	-0.381568	-0.209102
O26	O	1.351522	-0.131568	0.040898
O27	O	1.601522	0.118432	0.290898
O28	O	1.851522	0.368432	0.540898
O29	O	1.019470	-0.181379	-0.320508
O30	O	1.269470	0.068621	-0.070508
O31	O	1.519470	0.318621	0.179492
O32	O	1.769470	0.568621	0.429492
O33	O	1.221938	-0.381538	-0.329521
O34	O	1.471938	-0.131538	-0.079521
O35	O	1.721938	0.118462	0.170479
O36	O	1.971938	0.368462	0.420479
O37	O	1.110707	-0.181356	-0.411749
O38	O	1.360707	0.068644	-0.161749
O39	O	1.610707	0.318644	0.088251
O40	O	1.860707	0.568644	0.338251
O41	O	1.014243	-0.295286	-0.205216
O42	O	1.264243	-0.045286	0.044784
O43	O	1.514243	0.204714	0.294784
O44	O	1.764243	0.454714	0.544784
O45	O	0.893872	-0.295223	-0.325583
O46	O	1.143872	-0.045223	-0.075583
O47	O	1.393872	0.204777	0.174417
O48	O	1.643872	0.454777	0.424417
O49	O	1.010363	-0.381427	-0.541087
O50	O	1.260363	-0.131427	-0.291087
O51	O	1.510363	0.118573	-0.041087
O52	O	1.760363	0.368573	0.208913
O53	O	0.889946	-0.381457	-0.420668
O54	O	1.139946	-0.131457	-0.170668
O55	O	1.389946	0.118543	0.079332
O56	O	1.639946	0.368543	0.329332
O57	O	1.105526	-0.295170	-0.537242
O58	O	1.355526	-0.045170	-0.287242
O59	O	1.605526	0.204830	-0.037242
O60	O	1.855526	0.454830	0.212758
O61	O	1.096340	-0.495382	-0.334595
O62	O	1.346340	-0.245382	-0.084595
O63	O	1.596340	0.004618	0.165405
O64	O	1.846340	0.254618	0.415405
O65	O	1.005137	-0.495334	-0.425795
O66	O	1.255137	-0.245334	-0.175795
O67	O	1.505137	0.004666	0.074205
O68	O	1.755137	0.254666	0.324205
C69	C	0.864963	-0.338337	-0.373120
C70	C	1.114963	-0.088337	-0.123120
C71	C	1.364963	0.161663	0.126880
C72	C	1.614963	0.411663	0.376880
C73	C	0.782417	-0.338342	-0.373120
C74	C	1.032417	-0.088342	-0.123120
C75	C	1.282417	0.161658	0.126880
C76	C	1.532417	0.411658	0.376880
C77	C	0.585082	-0.291394	-0.321525
C78	C	0.835082	-0.041394	-0.071525
C79	C	1.085082	0.208606	0.178475
C80	C	1.335082	0.458606	0.428475
C81	C	0.532772	-0.355457	-0.306134
C82	C	0.782772	-0.105457	-0.056134
C83	C	1.032772	0.144543	0.193866
C84	C	1.282772	0.394543	0.443866
C85	C	0.631285	-0.338364	-0.373154
C86	C	0.881285	-0.088364	-0.123154
C87	C	1.131285	0.161636	0.126846
C88	C	1.381285	0.411636	0.376846
C89	C	0.536512	-0.274323	-0.388544
C90	C	0.786512	-0.024323	-0.138544
C91	C	1.036512	0.225677	0.111456
C92	C	1.286512	0.475677	0.361456
C93	C	0.485299	-0.338379	-0.373186
C94	C	0.735299	-0.088379	-0.123186
C95	C	0.985299	0.161621	0.126814
C96	C	1.235299	0.411621	0.376814
C97	C	0.580062	-0.402461	-0.357730
C98	C	0.830062	-0.152461	-0.107730
C99	C	1.080062	0.097539	0.142270
C100	C	1.330062	0.347539	0.392270
C101	C	0.583807	-0.321283	-0.440170
C102	C	0.833807	-0.071283	-0.190170
C103	C	1.083807	0.178717	0.059830
C104	C	1.333807	0.428717	0.309830
C105	C	0.531518	-0.385391	-0.424807
C106	C	0.781518	-0.135391	-0.174807
C107	C	1.031518	0.114609	0.075193
C108	C	1.281518	0.364609	0.325193
C109	C	0.715384	-0.338354	-0.373134
C110	C	0.965384	-0.088354	-0.123134
C111	C	1.215384	0.161646	0.126866
C112	C	1.465384	0.411646	0.376866
C113	C	0.401202	-0.338395	-0.373207
C114	C	0.651202	-0.088395	-0.123207
C115	C	0.901202	0.161605	0.126793
C116	C	1.151202	0.411605	0.376793
C117	C	1.049594	-0.520842	-0.381353
C118	C	1.299594	-0.270842	-0.131353
C119	C	1.549594	-0.020842	0.118647
C120	C	1.799594	0.229158	0.368647
C121	C	1.046103	-0.598907	-0.384882
C122	C	1.296103	-0.348907	-0.134882
C123	C	1.546103	-0.098907	0.115118
C124	C	1.796103	0.151093	0.365118
C125	C	1.091985	-0.635584	-0.339097
C126	C	1.341985	-0.385584	-0.089097
C127	C	1.591985	-0.135584	0.160903
C128	C	1.841985	0.114416	0.410903
C129	C	1.088706	-0.708935	-0.342420
C130	C	1.338706	-0.458935	-0.092420
C131	C	1.588706	-0.208935	0.157580
C132	C	1.838706	0.041065	0.407580
C133	C	1.039541	-0.745607	-0.391526
C134	C	1.289541	-0.495607	-0.141526
C135	C	1.539541	-0.245607	0.108474
C136	C	1.789541	0.004393	0.358474
C137	C	0.993657	-0.708925	-0.437316
C138	C	1.243657	-0.458925	-0.187316
C139	C	1.493657	-0.208925	0.062684
C140	C	1.743657	0.041075	0.312684
C141	C	0.996940	-0.635576	-0.433996
C142	C	1.246940	-0.385576	-0.183996
C143	C	1.496940	-0.135576	0.066004
C144	C	1.746940	0.114424	0.316004
C145	C	1.027253	-0.967075	-0.403928
C146	C	1.277253	-0.717075	-0.153928
C147	C	1.527253	-0.467075	0.096072
C148	C	1.777253	-0.217075	0.346072
C149	C	1.023972	-1.040429	-0.407243
C150	C	1.273972	-0.790429	-0.157243
C151	C	1.523972	-0.540429	0.092757
C152	C	1.773972	-0.290429	0.342757
C153	C	1.119022	-1.040434	-0.312347
C154	C	1.369022	-0.790434	-0.062347
C155	C	1.619022	-0.540434	0.187653
C156	C	1.869022	-0.290434	0.437653
C157	C	1.122297	-0.967083	-0.309028
C158	C	1.372297	-0.717083	-0.059028
C159	C	1.622297	-0.467083	0.190972
C160	C	1.872297	-0.217083	0.440972
C161	C	1.076417	-0.930407	-0.354822
C162	C	1.326417	-0.680407	-0.104822
C163	C	1.576417	-0.430407	0.145178
C164	C	1.826417	-0.180407	0.395178
C165	C	1.036186	-0.820583	-0.394923
C166	C	1.286186	-0.570583	-0.144923
C167	C	1.536186	-0.320583	0.105077
C168	C	1.786186	-0.070583	0.355077
C169	C	1.079775	-0.855432	-0.351428
C170	C	1.329775	-0.605432	-0.101428
C171	C	1.579775	-0.355432	0.148572
C172	C	1.829775	-0.105432	0.398572
C173	C	1.251618	-0.338390	-0.373205
C174	C	1.501618	-0.088390	-0.123205
C175	C	1.751618	0.161610	0.126795
C176	C	2.001618	0.411610	0.376795
C177	C	1.334163	-0.338401	-0.373223
C178	C	1.584163	-0.088401	-0.123223
C179	C	1.834163	0.161599	0.126777
C180	C	2.084163	0.411599	0.376777
C181	C	1.057950	-0.338288	-0.566864
C182	C	1.307950	-0.088288	-0.316864
C183	C	1.557950	0.161712	-0.066864
C184	C	1.807950	0.411712	0.183136
C185	C	1.057965	-0.338256	-0.649409
C186	C	1.307965	-0.088256	-0.399409
C187	C	1.557965	0.161744	-0.149409
C188	C	1.807965	0.411744	0.100591
C189	C	1.066286	-0.155171	-0.364955
C190	C	1.316286	0.094829	-0.114955
C191	C	1.566286	0.344829	0.135045
C192	C	1.816286	0.594829	0.385045
C193	C	1.069853	-0.077106	-0.361458
C194	C	1.319853	0.172894	-0.111458
C195	C	1.569853	0.422894	0.138542
C196	C	1.819853	0.672894	0.388542
C197	C	1.109766	-0.291327	-0.846768
C198	C	1.359766	-0.041327	-0.596768
C199	C	1.609766	0.208673	-0.346768
C200	C	1.859766	0.458673	-0.096768
C201	C	1.042808	-0.274132	-0.895381
C202	C	1.292808	-0.024132	-0.645381
C203	C	1.542808	0.225868	-0.395381
C204	C	1.792808	0.475868	-0.145381
C205	C	1.057995	-0.338244	-0.800538
C206	C	1.307995	-0.088244	-0.550538
C207	C	1.557995	0.161756	-0.300538
C208	C	1.807995	0.411756	-0.050538
C209	C	1.124983	-0.355393	-0.899005
C210	C	1.374983	-0.105393	-0.649005
C211	C	1.624983	0.144607	-0.399005
C212	C	1.874983	0.394607	-0.149005
C213	C	1.058031	-0.338231	-0.946523
C214	C	1.308031	-0.088231	-0.696523
C215	C	1.558031	0.161769	-0.446523
C216	C	1.808031	0.411769	-0.196523
C217	C	0.991003	-0.321017	-0.848063
C218	C	1.241003	-0.071017	-0.598063
C219	C	1.491003	0.178983	-0.348063
C220	C	1.741003	0.428983	-0.098063
C221	C	1.073222	-0.402308	-0.851684
C222	C	1.323222	-0.152308	-0.601684
C223	C	1.573222	0.097692	-0.351684
C224	C	1.823222	0.347692	-0.101684
C225	C	1.006217	-0.385138	-0.900276
C226	C	1.256217	-0.135138	-0.650276
C227	C	1.506217	0.114862	-0.400276
C228	C	1.756217	0.364862	-0.150276
C229	C	1.057976	-0.338250	-0.716440
C230	C	1.307976	-0.088250	-0.466440
C231	C	1.557976	0.161750	-0.216440
C232	C	1.807976	0.411750	0.033560
C233	C	1.058042	-0.338225	-1.030619
C234	C	1.308042	-0.088225	-0.780619
C235	C	1.558042	0.161775	-0.530619
C236	C	1.808042	0.411775	-0.280619
C237	C	1.057922	-0.338387	-0.180211
C238	C	1.307922	-0.088387	0.069789
C239	C	1.557922	0.161613	0.319789
C240	C	1.807922	0.411613	0.569789
C241	C	1.058060	-0.338221	-0.097658
C242	C	1.308060	-0.088221	0.152342
C243	C	1.558060	0.161779	0.402342
C244	C	1.808060	0.411779	0.652342
H245	H	1.132017	-0.605730	-0.299106
H246	H	1.382017	-0.355730	-0.049106
H247	H	1.632017	-0.105730	0.200894
H248	H	1.882017	0.144270	0.450894
H249	H	0.934354	-0.306443	-0.825801
H250	H	1.184354	-0.056443	-0.575801
H251	H	1.434354	0.193557	-0.325801
H252	H	1.684354	0.443557	-0.075801
H253	H	0.606217	-0.306806	-0.496812
H254	H	0.856217	-0.056806	-0.246812
H255	H	1.106217	0.193194	0.003188
H256	H	1.356217	0.443194	0.253188
H257	H	0.953629	-0.738790	-0.477302
H258	H	1.203629	-0.488790	-0.227302
H259	H	1.453629	-0.238790	0.022698
H260	H	1.703629	0.011210	0.272698
H261	H	0.962403	-0.424809	-0.923566
H262	H	1.212403	-0.174809	-0.673566
H263	H	1.462403	0.075191	-0.423566
H264	H	1.712403	0.325191	-0.173566
H265	H	0.510381	-0.369915	-0.249474
H266	H	0.760381	-0.119915	0.000526
H267	H	1.010381	0.130085	0.250526
H268	H	1.260381	0.380085	0.500526
H269	H	0.996154	-0.850450	-0.434903
H270	H	1.246154	-0.600450	-0.184903
H271	H	1.496154	-0.350450	0.065097
H272	H	1.746154	-0.100450	0.315097
H273	H	1.153479	-0.251625	-0.823337
H274	H	1.403479	-0.001625	-0.573337
H275	H	1.653479	0.248375	-0.323337
H276	H	1.903479	0.498375	-0.073337
H277	H	1.126067	-0.738794	-0.305136
H278	H	1.376067	-0.488794	-0.055136
H279	H	1.626067	-0.238794	0.194864
H280	H	1.876067	0.011206	0.444864
H281	H	1.029939	-0.219950	-0.914670
H282	H	1.279939	0.030050	-0.664670
H283	H	1.529939	0.280050	-0.414670
H284	H	1.779939	0.530050	-0.164670
H285	H	1.086112	-0.456475	-0.832379
H286	H	1.336112	-0.206475	-0.582379
H287	H	1.586112	0.043525	-0.332379
H288	H	1.836112	0.293525	-0.082379
H289	H	1.181618	-0.369903	-0.921357
H290	H	1.431618	-0.119903	-0.671357
H291	H	1.681618	0.130097	-0.421357
H292	H	1.931618	0.380097	-0.171357
H293	H	0.508204	-0.425164	-0.468484
H294	H	0.758204	-0.175164	-0.218484
H295	H	1.008204	0.074836	0.031516
H296	H	1.258204	0.324836	0.281516
H297	H	0.608528	-0.251715	-0.277820
H298	H	0.858528	-0.001715	-0.027820
H299	H	1.108528	0.248285	0.222180
H300	H	1.358528	0.498285	0.472180
H301	H	1.162331	-0.937226	-0.269043
H302	H	1.412331	-0.687226	-0.019043
H303	H	1.662331	-0.437226	0.230957
H304	H	1.912331	-0.187226	0.480957
H305	H	0.517247	-0.220165	-0.401523
H306	H	0.767247	0.029835	-0.151523
H307	H	1.017247	0.279835	0.098477
H308	H	1.267247	0.529835	0.348477
H309	H	0.599196	-0.456642	-0.344663
H310	H	0.849196	-0.206642	-0.094663
H311	H	1.099196	0.043358	0.155337
H312	H	1.349196	0.293358	0.405337
H313	H	0.989894	-0.937219	-0.441213
H314	H	1.239894	-0.687219	-0.191213
H315	H	1.489894	-0.437219	0.058787
H316	H	1.739894	-0.187219	0.308787
H317	H	0.983945	-1.070286	-0.447244
H318	H	1.233945	-0.820286	-0.197244
H319	H	1.483945	-0.570286	0.052756
H320	H	1.733945	-0.320286	0.302756
H321	H	1.156376	-1.070303	-0.275066
H322	H	1.406376	-0.820303	-0.025066
H323	H	1.656376	-0.570303	0.224934
H324	H	1.906376	-0.320303	0.474934
H325	H	0.959580	-0.605714	-0.471280
H326	H	1.209580	-0.355714	-0.221280
H327	H	1.459580	-0.105714	0.028720
H328	H	1.709580	0.144286	0.278720
H329	H	1.119808	-0.825572	-0.311449
H330	H	1.369808	-0.575572	-0.061449
H331	H	1.619808	-0.325572	0.188551
H332	H	1.869808	-0.075572	0.438551
