data_functionalizedCrystal
_audit_creation_method	'MofGen! by Chris Wilmer'
_symmetry_space_group_name_H-M	'P1'
_symmetry_Int_Tables_number	1
_symmetry_cell_setting	triclinic
loop_
_symmetry_equiv_pos_as_xyz
  x,y,z
_cell_length_a	13.033299
_cell_length_b	19.805406
_cell_length_c	19.805399
_cell_angle_alpha	90.014352
_cell_angle_beta	97.173792
_cell_angle_gamma	97.173127
loop_
_atom_site_label
_atom_site_type_symbol
_atom_site_fract_x
_atom_site_fract_y
_atom_site_fract_z
Zn1	Zn	-1.597691	-0.400796	0.251099
Zn2	Zn	-1.597640	-0.513980	0.137941
Zn3	Zn	-1.422947	-0.386452	0.152326
Zn4	Zn	-1.422972	-0.499588	0.265484
O5	O	-1.510312	-0.450204	0.201712
O6	O	-1.743914	-0.427836	0.224048
O7	O	-1.574435	-0.497083	0.045135
O8	O	-1.446138	-0.293639	0.165428
O9	O	-1.743877	-0.510992	0.140911
O10	O	-1.574522	-0.304178	0.237996
O11	O	-1.446089	-0.403389	0.055704
O12	O	-1.276720	-0.389434	0.179377
O13	O	-1.446180	-0.486463	0.358290
O14	O	-1.276738	-0.472554	0.262514
O15	O	-1.574545	-0.413881	0.347721
O16	O	-1.574459	-0.606787	0.154860
O17	O	-1.446131	-0.596213	0.248565
C18	C	-1.238813	-0.427876	0.224068
C19	C	-1.122665	-0.418340	0.233647
C20	C	-1.510320	-0.626061	0.201725
C21	C	-1.510419	-0.701301	0.201745
C22	C	-1.070864	-0.455169	0.196720
C23	C	-0.950818	-0.445314	0.206620
C24	C	-1.510371	-0.450166	0.378250
C25	C	-1.510396	-0.450150	0.453480
C26	C	-0.782872	-0.472614	0.179265
C27	C	-0.899020	-0.482148	0.169688
C28	C	-1.510333	-0.273663	0.201712
C29	C	-1.510342	-0.198432	0.201712
C30	C	-1.443508	-0.157600	0.163931
C31	C	-1.443514	-0.086912	0.163938
C32	C	-1.510361	-0.057058	0.201722
C33	C	-1.577198	-0.097894	0.239508
C34	C	-1.577186	-0.168580	0.239505
C35	C	-1.577250	0.187175	0.239524
C36	C	-1.577259	0.257866	0.239523
C37	C	-1.443578	0.268843	0.163957
C38	C	-1.443566	0.198157	0.163953
C39	C	-1.510398	0.157327	0.201742
C40	C	-1.510389	0.080679	0.201735
C41	C	-1.510376	0.019588	0.201726
C42	C	-1.510314	-0.450198	0.025856
C43	C	-1.510492	-0.450040	-0.049390
C44	C	-1.577237	-0.412355	0.483322
C45	C	-1.577248	-0.412336	0.554010
C46	C	-1.510422	-0.450117	0.594854
C47	C	-1.443573	-0.487914	0.565007
C48	C	-1.443558	-0.487928	0.494321
C49	C	-1.443632	-0.487855	0.850076
C50	C	-1.443655	-0.487840	0.920766
C51	C	-1.577322	-0.412263	0.909764
C52	C	-1.577307	-0.412278	0.839078
C53	C	-1.510455	-0.450071	0.809238
C54	C	-1.510443	-0.450090	0.732591
C55	C	-1.510439	-0.450102	0.671499
H56	H	-1.115388	-0.493997	0.157778
C57	C	-0.999848	-0.399048	0.334761
C58	C	-1.062567	-0.365925	0.286223
H59	H	-0.962745	-0.366686	0.367217
H60	H	-1.042453	-0.432036	0.357115
H61	H	-0.951799	-0.420875	0.312869
H62	H	-1.110622	-0.344102	0.308115
H63	H	-1.019959	-0.332924	0.263867
C64	C	-0.828006	-0.426019	0.307737
C65	C	-0.890725	-0.392896	0.259199
H66	H	-0.790902	-0.393657	0.340193
H67	H	-0.870611	-0.459008	0.330091
H68	H	-0.779957	-0.447846	0.285844
H69	H	-0.938780	-0.371073	0.281091
H70	H	-0.848116	-0.359896	0.236842
H71	H	-0.943539	-0.520983	0.130746
C72	C	-1.303050	-0.485703	0.782159
C73	C	-1.370156	-0.529396	0.817274
H74	H	-1.257685	-0.511349	0.761908
H75	H	-1.342850	-0.463208	0.747725
H76	H	-1.263094	-0.452925	0.813034
H77	H	-1.410118	-0.562171	0.786397
H78	H	-1.330352	-0.551902	0.851712
H79	H	-1.631601	-0.201824	0.270276
C80	C	-1.591792	-0.322436	0.758404
C81	C	-1.650752	-0.370736	0.794188
H82	H	-1.637132	-0.296788	0.730691
H83	H	-1.546275	-0.292809	0.789731
H84	H	-1.551994	-0.344958	0.730512
H85	H	-1.690544	-0.348213	0.822084
H86	H	-1.696288	-0.400367	0.762857
C87	C	-1.709386	0.239921	0.314239
C88	C	-1.650732	0.290685	0.281067
H89	H	-1.754736	0.260184	0.339888
H90	H	-1.749351	0.209059	0.281463
H91	H	-1.663845	0.216100	0.343873
H92	H	-1.696273	0.314502	0.251429
H93	H	-1.610764	0.321559	0.313847
H94	H	-1.389136	0.173853	0.133183
C95	C	-1.311358	-0.139642	0.089242
C96	C	-1.370023	-0.190413	0.122398
H97	H	-1.265985	-0.159899	0.063606
H98	H	-1.356883	-0.115824	0.059605
H99	H	-1.271408	-0.108777	0.122032
H100	H	-1.409980	-0.221275	0.089607
H101	H	-1.324494	-0.214242	0.152038
H102	H	-1.389092	-0.053667	0.133174
H103	H	-1.389156	0.302095	0.133190
H104	H	-1.631753	-0.381487	0.934068
H105	H	-1.631681	0.153938	0.270285
C106	C	-1.311498	-0.562538	0.924547
C107	C	-1.370185	-0.529366	0.965665
H108	H	-1.266141	-0.588169	0.952268
H109	H	-1.357009	-0.592181	0.893232
H110	H	-1.271529	-0.529758	0.900266
H111	H	-1.410160	-0.562147	0.989942
H112	H	-1.324669	-0.499720	0.996993
H113	H	-1.389158	-0.518673	0.598269
C114	C	-1.636586	0.005586	0.273062
C115	C	-1.650681	-0.065080	0.281041
H116	H	-1.681959	0.025841	0.298699
H117	H	-1.566390	0.022946	0.288751
H118	H	-1.651867	0.015896	0.226325
H119	H	-1.635392	-0.075390	0.327778
H120	H	-1.720893	-0.082445	0.265355
C121	C	-1.311459	-0.562654	0.512290
C122	C	-1.370102	-0.529487	0.461515
H123	H	-1.266116	-0.588315	0.492035
H124	H	-1.271486	-0.529873	0.543145
H125	H	-1.357006	-0.592275	0.536117
H126	H	-1.324554	-0.499862	0.437691
H127	H	-1.410077	-0.562271	0.430648
H128	H	-1.631658	-0.381591	0.450071
H129	H	-1.631680	-0.381561	0.578303
