data_functionalizedCrystal
_audit_creation_method	'MofGen! by Chris Wilmer'
_symmetry_space_group_name_H-M	'P1'
_symmetry_Int_Tables_number	1
_symmetry_cell_setting	triclinic
loop_
_symmetry_equiv_pos_as_xyz
  x,y,z
_cell_length_a	25.639243
_cell_length_b	25.639239
_cell_length_c	15.296720
_cell_angle_alpha	99.638856
_cell_angle_beta	99.658289
_cell_angle_gamma	90.041410
loop_
_atom_site_label
_atom_site_type_symbol
_atom_site_fract_x
_atom_site_fract_y
_atom_site_fract_z
Zn1	Zn	0.748047	-0.259267	-0.510104
Zn2	Zn	0.763106	-0.331577	-0.359248
Zn3	Zn	0.675757	-0.244163	-0.359264
Zn4	Zn	0.660575	-0.346671	-0.510041
O5	O	0.711871	-0.295419	-0.434664
O6	O	0.823208	-0.268863	-0.490112
O7	O	0.764174	-0.307343	-0.233016
O8	O	0.685398	-0.173004	-0.379306
O9	O	0.834271	-0.321989	-0.379279
O10	O	0.738509	-0.184102	-0.490127
O11	O	0.700000	-0.243120	-0.233028
O12	O	0.600580	-0.257757	-0.379245
O13	O	0.659522	-0.347715	-0.636283
O14	O	0.589425	-0.333069	-0.490021
O15	O	0.723788	-0.283500	-0.636329
O16	O	0.749453	-0.406741	-0.379218
O17	O	0.674124	-0.417831	-0.490005
C18	C	0.576032	-0.295412	-0.434628
C19	C	0.517917	-0.295424	-0.434635
C20	C	0.151775	-0.267819	-0.492471
C21	C	0.097171	-0.267819	-0.492477
O22	O	0.064025	-0.244334	-0.541607
N23	N	0.075629	-0.295420	-0.434689
C24	C	0.108697	-0.323019	-0.376886
O25	O	0.085361	-0.346495	-0.327733
C26	C	0.163301	-0.323015	-0.376876
C27	C	0.184839	-0.295417	-0.434674
C28	C	0.173313	-0.240222	-0.550263
C29	C	0.227914	-0.240223	-0.550259
C30	C	0.260977	-0.267821	-0.492462
C31	C	0.239440	-0.295418	-0.434669
C32	C	0.196369	-0.350610	-0.319069
C33	C	0.250976	-0.350604	-0.319064
C34	C	0.272513	-0.323005	-0.376862
C35	C	0.327104	-0.323016	-0.376868
N36	N	0.348645	-0.295415	-0.434655
C37	C	0.315582	-0.267817	-0.492452
C38	C	-0.005976	-0.323023	-0.376909
C39	C	-0.060579	-0.323030	-0.376922
C40	C	-0.072102	-0.267830	-0.492512
C41	C	-0.017498	-0.267826	-0.492503
C42	C	0.015565	-0.295422	-0.434696
C43	C	0.430248	-0.267821	-0.492439
C44	C	0.484854	-0.267826	-0.492432
C45	C	0.496373	-0.323024	-0.376839
C46	C	0.441771	-0.323022	-0.376849
C47	C	0.408710	-0.295416	-0.434652
O48	O	0.360282	-0.346487	-0.327760
O49	O	0.338926	-0.244339	-0.541589
C50	C	0.711787	-0.431258	-0.434623
C51	C	0.711796	-0.489373	-0.434635
C52	C	0.751172	-0.843962	-0.377076
C53	C	0.751191	-0.898567	-0.377088
O54	O	0.784584	-0.921890	-0.328103
N55	N	0.711957	-0.931664	-0.434724
C56	C	0.672704	-0.910154	-0.492358
O57	O	0.639334	-0.943320	-0.541384
C58	C	0.672688	-0.855550	-0.492350
C59	C	0.711921	-0.822455	-0.434704
C60	C	0.790403	-0.810867	-0.319435
C61	C	0.790383	-0.756265	-0.319422
C62	C	0.751133	-0.734758	-0.377050
C63	C	0.711902	-0.767853	-0.434691
C64	C	0.633437	-0.834041	-0.549988
C65	C	0.633425	-0.779433	-0.549975
C66	C	0.672658	-0.746338	-0.492329
C67	C	0.672631	-0.691744	-0.492306
N68	N	0.711866	-0.658647	-0.434669
C69	C	0.751116	-0.680154	-0.377042
C70	C	0.672742	-1.024826	-0.492372
C71	C	0.672756	-1.079429	-0.492376
C72	C	0.751244	-1.067838	-0.377107
C73	C	0.751227	-1.013234	-0.377099
C74	C	0.711976	-0.991729	-0.434736
C75	C	0.751072	-0.565487	-0.377018
C76	C	0.751047	-0.510880	-0.377008
C77	C	0.672561	-0.522476	-0.492280
C78	C	0.672584	-0.577077	-0.492287
C79	C	0.711843	-0.598581	-0.434654
O80	O	0.639257	-0.668385	-0.541268
O81	O	0.784485	-0.646983	-0.328033
C82	C	0.848240	-0.295427	-0.434701
C83	C	0.906353	-0.295430	-0.434716
C84	C	0.688282	-0.318976	-0.669953
C85	C	0.678229	-0.329015	-0.770219
C86	C	0.711967	-0.159053	-0.434725
C87	C	0.712008	-0.100941	-0.434751
C88	C	0.783736	-0.223581	-1.052947
C89	C	0.793184	-0.214151	-0.958743
C90	C	0.764446	-0.242866	-0.911607
C91	C	0.726259	-0.281013	-0.958685
C92	C	0.716813	-0.290448	-1.052899
C93	C	0.697523	-0.309732	-0.911559
C94	C	0.659335	-0.347880	-0.958637
C95	C	0.649891	-0.357313	-1.052842
C96	C	0.678629	-0.328598	-1.099978
C97	C	0.706969	-0.300298	-0.817345
C98	C	0.640045	-0.367164	-0.817297
C99	C	0.630597	-0.376595	-0.911502
C100	C	0.735399	-0.271917	-0.200291
C101	C	0.745552	-0.261731	-0.100026
H102	H	0.523302	-0.345495	-0.329783
H103	H	0.403336	-0.245341	-0.539505
Cl104	Cl	0.414692	-0.357735	-0.304214
Cl105	Cl	-0.113677	-0.233133	-0.565168
Cl106	Cl	0.601892	-0.405279	-1.112024
H107	H	0.616645	-0.390547	-0.778919
H108	H	0.599505	-0.407655	-0.949846
Cl109	Cl	0.839754	-0.837894	-0.246978
Cl110	Cl	0.666756	-0.340455	-1.218412
H111	H	0.502386	-0.245352	-0.539501
Cl112	Cl	0.839715	-0.714669	-0.246962
H113	H	0.772141	-0.235185	-0.834901
Cl114	Cl	0.623426	-1.121027	-0.564839
Cl115	Cl	0.800587	-1.094886	-0.304658
Cl116	Cl	0.623222	-0.495428	-0.564727
Cl117	Cl	0.841189	-0.166196	-0.899565
Cl118	Cl	0.584078	-0.752402	-0.622440
H119	H	0.277894	-0.373075	-0.271988
H120	H	0.601487	-0.860978	-0.596926
H121	H	0.782996	-0.483935	-0.330062
H122	H	0.245444	-0.217749	-0.597322
Cl123	Cl	0.623389	-0.997797	-0.564830
H124	H	0.146398	-0.217746	-0.597329
Cl125	Cl	0.009572	-0.233128	-0.565163
H126	H	0.640638	-0.604025	-0.539230
Cl127	Cl	-0.087649	-0.357733	-0.304267
H128	H	0.020941	-0.345500	-0.329838
Cl129	Cl	0.800427	-0.592511	-0.304561
H130	H	0.783175	-0.986291	-0.330159
H131	H	0.738061	-0.269237	-0.779023
H132	H	0.807134	-0.200209	-1.091334
Cl133	Cl	0.169309	-0.385295	-0.246385
