data_functionalizedCrystal
_audit_creation_method	'MofGen! by Chris Wilmer'
_symmetry_space_group_name_H-M	'P1'
_symmetry_Int_Tables_number	1
_symmetry_cell_setting	triclinic
loop_
_symmetry_equiv_pos_as_xyz
  x,y,z
_cell_length_a	12.759394
_cell_length_b	12.759401
_cell_length_c	12.759393
_cell_angle_alpha	89.980903
_cell_angle_beta	89.967706
_cell_angle_gamma	90.014820
loop_
_atom_site_label
_atom_site_type_symbol
_atom_site_fract_x
_atom_site_fract_y
_atom_site_fract_z
Zn1	Zn	-0.418205	1.606254	-0.593993
Zn2	Zn	-0.593924	1.606148	-0.418311
Zn3	Zn	-0.418259	1.430556	-0.418330
Zn4	Zn	-0.593843	1.430545	-0.593950
O5	O	-0.506058	1.518376	-0.506146
O6	O	-0.441526	1.753261	-0.570698
O7	O	-0.570679	1.582816	-0.271292
O8	O	-0.271231	1.453912	-0.441658
O9	O	-0.570626	1.753183	-0.441625
O10	O	-0.271191	1.582997	-0.570717
O11	O	-0.441619	1.453810	-0.271307
O12	O	-0.441540	1.283534	-0.441617
O13	O	-0.570487	1.453892	-0.740977
O14	O	-0.570540	1.283525	-0.570644
O15	O	-0.441447	1.582986	-0.741008
O16	O	-0.740934	1.582805	-0.441584
O17	O	-0.740874	1.453789	-0.570625
C18	C	-0.506038	1.245409	-0.506129
C19	C	-0.506054	1.128632	-0.506147
C20	C	-0.438967	0.964081	-0.573468
C21	C	-0.438952	1.073805	-0.573458
C22	C	-0.573183	1.073729	-0.438847
C23	C	-0.573202	0.964007	-0.438863
C24	C	-0.371853	0.909259	-0.640776
C25	C	-0.304725	0.964154	-0.708077
C26	C	-0.304711	1.073878	-0.708068
C27	C	-0.371824	1.128707	-0.640757
C28	C	-0.779025	1.518313	-0.506121
C29	C	-0.895802	1.518382	-0.506145
C30	C	-0.895811	1.652826	-0.371874
C31	C	-0.950676	1.720076	-0.304752
C32	C	-1.060398	1.720138	-0.304780
C33	C	-1.115256	1.652945	-0.371941
C34	C	-1.060391	1.585695	-0.439064
C35	C	-0.950667	1.585638	-0.439026
C36	C	-1.060382	1.451257	-0.573338
C37	C	-0.950661	1.451189	-0.573306
C38	C	-1.115241	1.384064	-0.640499
C39	C	-1.060376	1.316808	-0.707618
C40	C	-0.950648	1.316748	-0.707586
C41	C	-0.895796	1.383939	-0.640429
C42	C	-0.232024	1.518468	-0.506195
C43	C	-0.115248	1.518507	-0.506215
C44	C	-0.505952	1.518449	-0.780180
C45	C	-0.505907	1.518481	-0.896956
C46	C	-0.506079	1.792409	-0.506164
C47	C	-0.506088	1.909186	-0.506171
C48	C	-0.438709	1.585709	-0.951836
C49	C	-0.438671	1.585734	-1.061560
C50	C	-0.573037	1.451300	-1.061515
C51	C	-0.573069	1.451270	-0.951793
C52	C	-0.371546	1.652919	-0.897000
C53	C	-0.304344	1.720154	-0.951880
C54	C	-0.304306	1.720179	-1.061604
C55	C	-0.371470	1.652969	-1.116448
C56	C	-0.506088	1.518363	-0.233179
C57	C	-0.505837	1.518535	-0.116403
H58	H	-0.371852	0.819916	-0.640787
H59	H	-0.250090	0.919505	-0.762884
H60	H	-1.105069	1.774903	-0.250128
N61	N	-0.645558	1.132856	-0.366242
H62	H	-0.694286	1.178400	-0.408845
H63	H	-0.602718	1.178296	-0.317637
N64	N	-1.233598	1.653020	-0.371986
H65	H	-1.260031	1.705821	-0.319278
H66	H	-1.260024	1.580937	-0.352657
H67	H	-0.627719	1.396581	-1.106178
H68	H	-1.204582	1.384124	-0.640522
N69	N	-0.645543	1.378761	-0.892591
H70	H	-0.688092	1.336194	-0.943977
H71	H	-0.694179	1.421499	-0.847055
N72	N	-0.371568	1.652894	-0.778656
H73	H	-0.352249	1.580824	-0.752227
H74	H	-0.443664	1.672213	-0.752287
N75	N	-0.645589	0.904781	-0.366284
H76	H	-0.720673	0.923873	-0.382467
H77	H	-0.629095	0.923857	-0.291269
H78	H	-0.249655	1.774867	-0.907219
N79	N	-0.231811	1.792672	-1.120799
H80	H	-0.189268	1.835239	-1.069408
H81	H	-0.274559	1.841290	-1.166324
N82	N	-0.777469	1.652745	-0.371830
H83	H	-0.751042	1.705511	-0.319099
H84	H	-0.751038	1.671979	-0.443943
H85	H	-0.250060	1.118571	-0.762874
N86	N	-0.891505	1.792535	-0.232309
H87	H	-0.942913	1.835146	-0.189793
H88	H	-0.845903	1.841114	-0.275095
N89	N	-1.119541	1.244348	-0.780054
H90	H	-1.197374	1.254597	-0.769891
H91	H	-1.100445	1.169309	-0.763634
N92	N	-0.777454	1.383881	-0.640394
H93	H	-0.751017	1.331085	-0.693106
H94	H	-0.751187	1.364618	-0.568263
H95	H	-0.371799	1.218052	-0.640748
N96	N	-0.891474	1.244219	-0.779989
H97	H	-0.942879	1.201668	-0.822535
H98	H	-0.846027	1.195588	-0.737174
N99	N	-0.371422	1.652983	-1.234794
H100	H	-0.318656	1.705767	-1.261241
H101	H	-0.443522	1.672243	-1.261128
