data_functionalizedCrystal
_audit_creation_method	'MofGen! by Chris Wilmer'
_symmetry_space_group_name_H-M	'P1'
_symmetry_Int_Tables_number	1
_symmetry_cell_setting	triclinic
loop_
_symmetry_equiv_pos_as_xyz
  x,y,z
_cell_length_a	11.169417
_cell_length_b	13.897448
_cell_length_c	11.169417
_cell_angle_alpha	90.008681
_cell_angle_beta	90.003712
_cell_angle_gamma	90.018571
loop_
_atom_site_label
_atom_site_type_symbol
_atom_site_fract_x
_atom_site_fract_y
_atom_site_fract_z
Zn1	Zn	1.834710	-0.384170	0.678515
Zn2	Zn	2.334710	0.115830	1.178515
Zn3	Zn	1.834630	-0.545430	0.477821
Zn4	Zn	2.334630	-0.045430	0.977821
Zn5	Zn	1.634052	-0.384153	0.477850
Zn6	Zn	2.134052	0.115847	0.977850
Zn7	Zn	1.633978	-0.545427	0.678466
Zn8	Zn	2.133978	-0.045427	1.178466
O9	O	1.734343	-0.464795	0.578163
O10	O	2.234343	0.035205	1.078163
O11	O	2.002649	-0.405570	0.651901
O12	O	2.502649	0.094430	1.151901
O13	O	1.808021	-0.524031	0.309875
O14	O	2.308021	-0.024031	0.809875
O15	O	1.660735	-0.249174	0.504501
O16	O	2.160735	0.250826	1.004501
O17	O	2.002590	-0.524047	0.504452
O18	O	2.502590	-0.024047	1.004452
O19	O	1.808157	-0.249186	0.651929
O20	O	2.308157	0.250814	1.151929
O21	O	1.660657	-0.405541	0.309896
O22	O	2.160657	0.094459	0.809896
O23	O	1.466093	-0.405538	0.504453
O24	O	1.966093	0.094462	1.004453
O25	O	1.660607	-0.524042	0.846422
O26	O	2.160607	-0.024042	1.346422
O27	O	1.466038	-0.524026	0.651845
O28	O	1.966038	-0.024026	1.151845
O29	O	1.808085	-0.405567	0.846458
O30	O	2.308085	0.094433	1.346458
O31	O	1.807948	-0.680411	0.504404
O32	O	2.307948	-0.180411	1.004404
O33	O	1.660530	-0.680409	0.651817
O34	O	2.160530	-0.180409	1.151817
C35	C	1.422518	-0.464781	0.578147
C36	C	1.922518	0.035219	1.078147
C37	C	1.289118	-0.464798	0.578169
C38	C	1.789118	0.035202	1.078169
C39	C	1.734255	-0.715410	0.578128
C40	C	2.234255	-0.215410	1.078128
C41	C	1.734327	-0.822624	0.578153
C42	C	2.234327	-0.322624	1.078153
C43	C	1.734453	-1.018919	0.578229
C44	C	2.234453	-0.518919	1.078229
C45	C	1.734380	-0.909686	0.578190
C46	C	2.234380	-0.409686	1.078190
C47	C	2.047385	-0.464811	0.578179
C48	C	2.547385	0.035189	1.078179
C49	C	2.180785	-0.464817	0.578186
C50	C	2.680785	0.035183	1.078186
C51	C	1.734347	-0.464806	0.891205
C52	C	2.234347	0.035194	1.391205
C53	C	1.734348	-0.464811	1.024605
C54	C	2.234348	0.035189	1.524605
C55	C	1.734463	-0.213202	0.578224
C56	C	2.234463	0.286798	1.078224
C57	C	1.734515	-0.105988	0.578250
C58	C	2.234515	0.394012	1.078250
C59	C	1.734334	-0.464809	1.266338
C60	C	2.234334	0.035191	1.766338
C61	C	1.734344	-0.464815	1.132938
C62	C	2.234344	0.035185	1.632938
