data_functionalizedCrystal
_audit_creation_method	'MofGen! by Chris Wilmer'
_symmetry_space_group_name_H-M	'P1'
_symmetry_Int_Tables_number	1
_symmetry_cell_setting	triclinic
loop_
_symmetry_equiv_pos_as_xyz
  x,y,z
_cell_length_a	17.038272
_cell_length_b	27.732048
_cell_length_c	15.500227
_cell_angle_alpha	92.799543
_cell_angle_beta	86.956295
_cell_angle_gamma	86.877106
loop_
_atom_site_label
_atom_site_type_symbol
_atom_site_fract_x
_atom_site_fract_y
_atom_site_fract_z
O1	O	1.039801	0.102821	-0.071852
O2	O	0.812191	0.101155	-0.071877
O3	O	0.933065	0.031915	-0.071847
O4	O	0.918928	0.172061	-0.071882
O5	O	0.925730	0.036099	0.072040
O6	O	0.804857	0.105339	0.072010
O7	O	1.032467	0.107005	0.072035
Cu8	Cu	0.917992	0.106554	0.085161
Cu9	Cu	0.926666	0.101606	-0.085002
O10	O	0.911593	0.176245	0.072005
C11	C	0.779413	0.101732	0.000064
C12	C	0.692674	0.097211	0.000055
C13	C	0.642076	0.138713	0.000045
C14	C	0.560575	0.134463	0.000058
C15	C	0.529672	0.088710	0.000074
C16	C	0.580276	0.047205	0.000087
C17	C	0.661776	0.051455	0.000080
C18	C	0.284088	0.073694	0.000101
C19	C	0.202582	0.069447	0.000106
C20	C	0.182886	0.156706	0.000079
C21	C	0.264388	0.160952	0.000067
C22	C	0.314985	0.119447	0.000083
C23	C	0.446365	0.084365	0.000085
C24	C	0.398290	0.123792	0.000079
C25	C	0.929100	0.015987	0.000099
C26	C	0.928206	-0.037709	0.000106
C27	C	0.994011	-0.373515	0.000069
C28	C	0.990696	-0.575327	0.000056
O29	O	1.050870	-0.603831	0.000025
N30	N	0.919023	-0.597729	0.000049
C31	C	0.848173	-0.569676	0.000039
O32	O	0.787135	-0.593361	0.000024
C33	C	0.851490	-0.367865	0.000046
C34	C	0.923167	-0.345465	0.000062
C35	C	1.065683	-0.351115	0.000084
C36	C	1.066511	-0.300665	0.000091
C37	C	0.995667	-0.272615	0.000084
C38	C	0.923995	-0.295015	0.000069
C39	C	0.780641	-0.339813	0.000030
C40	C	0.781477	-0.289357	0.000029
C41	C	0.853154	-0.266957	0.000045
C42	C	0.853979	-0.216515	0.000070
N43	N	0.925652	-0.194113	0.000077
C44	C	0.996496	-0.222163	0.000084
C45	C	0.846437	-0.675629	0.000038
C46	C	0.845608	-0.726081	0.000038
C47	C	0.988131	-0.731729	0.000053
C48	C	0.988959	-0.681276	0.000059
C49	C	0.918111	-0.653227	0.000045
C50	C	0.998229	-0.116214	0.000101
C51	C	0.999050	-0.065759	0.000113
C52	C	0.856528	-0.060116	0.000093
C53	C	0.855706	-0.110566	0.000086
C54	C	0.926563	-0.138614	0.000087
O55	O	0.793838	-0.187981	0.000092
O56	O	1.057526	-0.198468	0.000080
C57	C	0.993183	-0.423965	0.000061
C58	C	0.921512	-0.446365	0.000046
C59	C	0.850668	-0.418315	0.000039
C60	C	0.920682	-0.496818	0.000046
C61	C	0.991526	-0.524867	0.000053
C62	C	1.063200	-0.502465	0.000060
C63	C	1.064027	-0.452015	0.000068
C64	C	0.778994	-0.440718	0.000032
C65	C	0.778172	-0.491168	0.000025
C66	C	0.849016	-0.519218	0.000032
C67	C	1.065244	0.106429	0.000093
C68	C	1.151985	0.110949	0.000096
C69	C	0.915558	0.192173	0.000058
C70	C	0.916452	0.245869	0.000045
N71	N	0.911897	0.110034	0.204844
N72	N	0.932767	0.098122	-0.204686
C73	C	0.963132	0.080707	0.250133
C74	C	0.958530	0.083344	0.340705
C75	C	0.902695	0.115310	0.385986
C76	C	0.851454	0.144638	0.340690
C77	C	0.856053	0.141999	0.250120
C78	C	0.886126	0.124811	0.659449
C79	C	0.881532	0.127449	0.750025
C80	C	0.988608	0.066154	0.750034
C81	C	0.993205	0.063519	0.659462
C82	C	0.941961	0.092845	0.614174
C83	C	0.897990	0.118007	0.478565
C84	C	0.946662	0.090146	0.521597
H85	H	0.141682	0.190497	0.000067
C86	C	1.086441	-0.014441	-0.073835
C87	C	1.077843	-0.041136	0.000126
H88	H	1.135080	0.000761	-0.073824
H89	H	1.085713	-0.035459	-0.124005
H90	H	1.044364	0.009486	-0.073826
H91	H	1.119916	-0.065066	0.000114
H92	H	1.078577	-0.020117	0.050309
H93	H	1.122395	-0.433782	0.000081
H94	H	0.289543	0.198209	0.000043
C95	C	1.064851	0.022506	0.331616
C96	C	1.014862	0.051115	0.390487
H97	H	1.099634	0.002612	0.362351
H98	H	1.034335	0.002744	0.296309
H99	H	1.094495	0.042762	0.296272
H100	H	0.985213	0.030858	0.425827
H101	H	1.045381	0.070879	0.425808
C102	C	1.139190	-0.116714	0.000129
C103	C	1.076115	-0.147039	0.000110
H104	H	1.187272	-0.135745	0.000144
H105	H	1.139106	-0.098374	-0.050043
H106	H	1.133976	-0.095463	0.050310
H107	H	1.081327	-0.168288	-0.050074
H108	H	1.076201	-0.165387	0.050288
C109	C	1.098575	0.003191	0.668571
C110	C	1.054577	0.028378	0.609692
H111	H	1.136461	-0.018505	0.637843
H112	H	1.124646	0.025496	0.703881
H113	H	1.064457	-0.014506	0.703912
H114	H	1.088695	0.046078	0.574355
H115	H	1.028505	0.006069	0.574367
H116	H	0.836062	0.153482	0.786888
C117	C	0.795457	0.019227	0.000086
C118	C	0.717397	0.005835	0.000090
H119	H	0.829793	-0.008938	0.000101
H120	H	0.807314	0.036386	-0.050094
H121	H	0.802205	0.039311	0.050260
H122	H	0.710648	-0.014246	-0.050087
H123	H	0.705536	-0.011331	0.050275
C124	C	0.779833	0.185667	0.668550
C125	C	0.829805	0.157050	0.609676
H126	H	0.745065	0.205573	0.637818
H127	H	0.750177	0.165420	0.703888
H128	H	0.810367	0.205422	0.703864
H129	H	0.799271	0.137293	0.574367
H130	H	0.859463	0.177300	0.574324
H131	H	1.124878	-0.282432	0.000101
C132	C	1.206637	-0.351616	0.000114
C133	C	1.143564	-0.381942	0.000099
H134	H	1.254720	-0.370645	0.000134
H135	H	1.206553	-0.333279	-0.050062
H136	H	1.201420	-0.330361	0.050291
H137	H	1.148779	-0.403194	-0.050082
H138	H	1.143649	-0.400287	0.050281
C139	C	0.796865	0.175905	0.479522
C140	C	0.790080	0.179778	0.390461
H141	H	0.758978	0.197603	0.510245
H142	H	0.788013	0.143747	0.494379
H143	H	0.848203	0.183748	0.494343
H144	H	0.738743	0.171932	0.375638
H145	H	0.798925	0.211944	0.375598
H146	H	0.814330	0.165879	0.213246
H147	H	0.667230	0.175970	0.000031
C148	C	0.713599	-0.565995	-0.000000
C149	C	0.699377	-0.515787	0.000007
H150	H	0.664955	-0.581192	-0.000012
H151	H	0.745298	-0.576875	-0.050168
H152	H	0.740177	-0.573970	0.050185
H153	H	0.672803	-0.507812	-0.050182
H154	H	0.667664	-0.504904	0.050180
H155	H	0.519381	0.168259	0.000049
H156	H	0.177425	0.032187	0.000118
C157	C	0.474014	-0.001462	0.000094
C158	C	0.412395	0.034073	0.000093
H159	H	0.453039	-0.032510	0.000104
H160	H	0.507940	0.000551	-0.050082
H161	H	0.502844	0.003468	0.050271
H162	H	0.383568	0.029144	-0.050088
H163	H	0.378456	0.032058	0.050274
H164	H	0.423454	0.161045	0.000070
H165	H	0.325274	0.039897	0.000116
C166	C	0.664021	-0.271157	-0.073959
C167	C	0.703595	-0.258527	0.000016
H168	H	0.615939	-0.252126	-0.073961
H169	H	0.695995	-0.265499	-0.124119
H170	H	0.653280	-0.304412	-0.073955
H171	H	0.714341	-0.225272	0.000009
H172	H	0.671614	-0.264181	0.050189
H173	H	0.555109	0.009952	0.000112
H174	H	0.852530	0.144036	0.515440
C175	C	1.129751	-0.691938	0.000068
C176	C	1.067749	-0.656657	0.000063
H177	H	1.178394	-0.676740	0.000063
H178	H	1.123905	-0.710039	0.050244
H179	H	1.129008	-0.712956	-0.050109
H180	H	1.068488	-0.635640	0.050244
H181	H	1.073597	-0.638547	-0.050118
H182	H	1.045815	-0.754576	0.000059
C183	C	0.704816	-0.715419	0.000016
C184	C	0.766817	-0.750700	0.000027
H185	H	0.656174	-0.730617	-0.000000
H186	H	0.705547	-0.694406	0.050191
H187	H	0.710674	-0.697312	-0.050163
H188	H	0.760963	-0.768804	0.050209
H189	H	0.766085	-0.771721	-0.050153
H190	H	1.008602	0.054679	0.213272
H191	H	0.788740	-0.652796	0.000026
C192	C	0.715566	-0.059589	0.000064
C193	C	0.778658	-0.029277	0.000080
H194	H	0.667493	-0.040548	0.000055
H195	H	0.720767	-0.080839	-0.050108
H196	H	0.715643	-0.077930	0.050246
H197	H	0.778584	-0.010939	-0.050105
H198	H	0.773455	-0.008018	0.050257
C199	C	0.700795	-0.395404	-0.073970
C200	C	0.701850	-0.364426	0.000002
H201	H	0.652151	-0.410599	-0.073986
H202	H	0.706651	-0.377292	-0.124132
H203	H	0.742863	-0.419335	-0.073951
H204	H	0.659786	-0.340492	-0.000021
H205	H	0.695986	-0.382539	0.050177
C206	C	0.775867	-0.166171	-0.073898
C207	C	0.776921	-0.135194	0.000077
H208	H	0.727229	-0.181375	-0.073905
H209	H	0.781705	-0.148056	-0.124058
H210	H	0.817945	-0.190095	-0.073889
H211	H	0.734845	-0.111267	0.000065
H212	H	0.771074	-0.153310	0.050250
C213	C	1.125199	-0.582317	0.000049
C214	C	1.141074	-0.533305	0.000062
H215	H	1.173273	-0.601357	0.000040
H216	H	1.093234	-0.587967	0.050221
H217	H	1.098334	-0.590869	-0.050133
H218	H	1.167933	-0.524752	0.050247
H219	H	1.173051	-0.527652	-0.050115
H220	H	0.721303	-0.417884	0.000024
H221	H	1.030327	0.042277	0.786915
H222	H	0.992121	0.064117	0.484727
