data_functionalizedCrystal
_audit_creation_method	'MofGen! by Chris Wilmer'
_symmetry_space_group_name_H-M	'P1'
_symmetry_Int_Tables_number	1
_symmetry_cell_setting	triclinic
loop_
_symmetry_equiv_pos_as_xyz
  x,y,z
_cell_length_a	9.616153
_cell_length_b	14.519709
_cell_length_c	14.519709
_cell_angle_alpha	96.319855
_cell_angle_beta	90.000970
_cell_angle_gamma	90.002330
loop_
_atom_site_label
_atom_site_type_symbol
_atom_site_fract_x
_atom_site_fract_y
_atom_site_fract_z
O1	O	0.115468	-1.223867	0.120885
O2	O	0.115510	-0.955390	0.135122
O3	O	0.115475	-1.096746	-0.006235
O4	O	0.115503	-1.082510	0.262242
O5	O	-0.115816	-1.096736	-0.006227
O6	O	-0.115781	-0.955379	0.135130
O7	O	-0.115824	-1.223856	0.120893
Zn8	Zn	-0.152525	-1.089616	0.128013
Zn9	Zn	0.152212	-1.089630	0.128002
O10	O	-0.115789	-1.082499	0.262250
C11	C	-0.000130	-0.921025	0.134462
C12	C	-0.000114	-0.818643	0.132474
C13	C	-0.000170	-1.096078	-0.040591
C14	C	-0.000171	-1.094090	-0.142972
N15	N	-0.360499	-1.089614	0.128019
C16	C	-0.419522	-1.013964	0.203624
C17	C	-0.580690	-1.013710	0.203410
C18	C	-0.581290	-1.068857	0.031613
C19	C	-0.420072	-1.068299	0.032074
C20	C	-0.419898	-1.186279	0.147918
C21	C	-0.581127	-1.185649	0.150085
N22	N	0.360186	-1.089640	0.127988
C23	C	-0.000180	-1.258221	0.121553
C24	C	-0.000187	-1.360602	0.123541
C25	C	-0.000178	-0.443748	0.125154
C26	C	-0.000160	-0.548056	0.127187
C27	C	-0.000145	-0.631192	0.128814
C28	C	-0.000129	-0.735507	0.130847
C29	C	-0.000134	-1.086770	-0.517868
C30	C	-0.000144	-1.088803	-0.413560
C31	C	-0.000154	-1.090430	-0.330423
C32	C	-0.000162	-1.092463	-0.226109
C33	C	-0.000140	-1.083168	0.296606
C34	C	-0.000130	-1.085156	0.398987
H35	H	-0.620261	-1.026054	0.275032
Br36	Br	-0.648606	-0.952730	0.001812
H37	H	-0.379027	-0.942630	0.191034
Br38	Br	-0.357416	-0.950811	0.002988
Br39	Br	-0.645013	-0.894157	0.182113
Br40	Br	-0.645107	-1.158281	-0.064474
H41	H	-0.381025	-1.121315	-0.025905
H42	H	-0.379247	-1.206295	0.216732
Br43	Br	-0.354920	-1.034174	0.323417
Br44	Br	-0.648204	-1.283869	0.064311
Br45	Br	-0.644870	-1.211944	0.268260
H46	H	-0.381718	-1.242573	0.092792
