data_functionalizedCrystal
_audit_creation_method	'MofGen! by Chris Wilmer'
_symmetry_space_group_name_H-M	'P1'
_symmetry_Int_Tables_number	1
_symmetry_cell_setting	triclinic
loop_
_symmetry_equiv_pos_as_xyz
  x,y,z
_cell_length_a	13.635800
_cell_length_b	27.923497
_cell_length_c	11.102315
_cell_angle_alpha	84.481850
_cell_angle_beta	108.606275
_cell_angle_gamma	81.035752
loop_
_atom_site_label
_atom_site_type_symbol
_atom_site_fract_x
_atom_site_fract_y
_atom_site_fract_z
V1	V	2.031727	-0.067130	0.397095
O2	O	2.036440	0.003223	0.388675
O3	O	1.996487	-0.133105	0.395208
O4	O	2.020489	-0.066099	0.569904
O5	O	2.012272	-0.064247	0.212769
V6	V	2.273292	-0.058715	0.374948
O7	O	2.162788	-0.085589	0.445677
O8	O	2.367331	-0.040255	0.326365
O9	O	2.196929	0.007260	0.376835
O10	O	2.327278	-0.129068	0.383368
O11	O	2.351446	-0.061598	0.559274
O12	O	2.172927	-0.059746	0.202139
V13	V	2.531727	-0.067130	0.397095
O14	O	2.536440	0.003223	0.388675
O15	O	2.496487	-0.133105	0.395208
O16	O	2.520489	-0.066099	0.569904
O17	O	2.512272	-0.064247	0.212769
V18	V	2.773292	-0.058715	0.374948
O19	O	2.662788	-0.085589	0.445677
O20	O	2.867331	-0.040255	0.326365
O21	O	2.696929	0.007260	0.376835
O22	O	2.827278	-0.129068	0.383368
O23	O	2.851446	-0.061598	0.559274
O24	O	2.672927	-0.059746	0.202139
C25	C	1.915882	-0.149188	0.389157
C26	C	1.927799	-0.203124	0.388766
C27	C	1.974160	-0.530646	0.269730
C28	C	2.018976	-0.733353	0.268191
O29	O	2.001338	-0.753673	0.168941
N30	N	2.052181	-0.765628	0.384473
C31	C	2.074190	-0.747223	0.501148
O32	O	2.103472	-0.779326	0.600018
C33	C	2.029381	-0.544517	0.502686
C34	C	1.996165	-0.512244	0.386396
C35	C	1.940947	-0.498373	0.153450
C36	C	1.929739	-0.447699	0.153835
C37	C	1.951743	-0.429298	0.270501
C38	C	1.984956	-0.461570	0.386782
C39	C	2.051397	-0.526113	0.619361
C40	C	2.040195	-0.475433	0.619735
C41	C	2.006978	-0.443160	0.503445
C42	C	1.995753	-0.392495	0.503833
N43	N	1.962548	-0.360220	0.387552
C44	C	1.940543	-0.378621	0.270886
C45	C	2.097711	-0.853646	0.500332
C46	C	2.108912	-0.904323	0.499948
C47	C	2.053699	-0.890449	0.266990
C48	C	2.042491	-0.839772	0.267375
C49	C	2.064506	-0.821372	0.384050
C50	C	1.917006	-0.272203	0.271704
C51	C	1.905794	-0.221525	0.272100
C52	C	1.961013	-0.235403	0.505057
C53	C	1.972219	-0.286077	0.504662
C54	C	1.950215	-0.304475	0.387975
O55	O	2.013383	-0.372141	0.603032
O56	O	1.911285	-0.346511	0.172032
C57	C	1.985369	-0.581319	0.269345
C58	C	2.018582	-0.613592	0.385625
C59	C	2.040587	-0.595190	0.502291
C60	C	2.029782	-0.664268	0.385241
C61	C	2.007778	-0.682670	0.268575
C62	C	1.974573	-0.650395	0.152293
C63	C	1.963364	-0.599721	0.152678
C64	C	2.073792	-0.627465	0.618573
C65	C	2.084997	-0.678138	0.618178
C66	C	2.062992	-0.696540	0.501512
C67	C	1.946499	-0.063714	0.611998
C68	C	1.977879	-0.063307	0.753276
C69	C	2.109204	0.023341	0.382882
C70	C	2.086907	0.077276	0.383281
C71	C	2.078588	-0.062132	0.160038
C72	C	2.036827	-0.062536	0.018759
C73	C	2.415882	-0.149188	0.389157
C74	C	2.427799	-0.203124	0.388766
C75	C	2.446499	-0.063714	0.611998
C76	C	2.477879	-0.063307	0.753276
C77	C	2.160170	-0.068156	0.766306
C78	C	2.266054	-0.070391	0.839192
C79	C	2.295532	-0.070008	0.971934
C80	C	2.219117	-0.067389	1.031791
C81	C	2.113233	-0.065154	0.958904
C82	C	2.083764	-0.065539	0.826161
C83	C	1.930943	-0.060302	0.945873
C84	C	1.901464	-0.060688	0.813132
C85	C	1.854528	-0.057683	1.005729
C86	C	1.748643	-0.055451	0.932844
C87	C	1.719167	-0.055835	0.800095
C88	C	1.795580	-0.058454	0.740246
C89	C	2.609204	0.023341	0.382882
C90	C	2.586907	0.077276	0.383281
C91	C	2.578588	-0.062132	0.160038
C92	C	2.536827	-0.062536	0.018759
C93	C	2.524527	-0.230926	0.394963
C94	C	2.535742	-0.281606	0.394615
C95	C	2.450227	-0.304481	0.388061
C96	C	2.353492	-0.276675	0.381867
C97	C	2.342280	-0.225997	0.382224
C98	C	2.662674	0.105078	0.377088
C99	C	2.641730	0.155757	0.377442
C100	C	2.545023	0.178633	0.383999
C101	C	2.469250	0.150827	0.390190
C102	C	2.490191	0.100149	0.389826
C103	C	2.506218	-0.152172	0.790711
C104	C	2.535127	-0.196411	0.875799
C105	C	2.564612	-0.196026	1.008540
C106	C	2.565191	-0.151397	1.056194
C107	C	2.536282	-0.107158	0.971107
C108	C	2.506795	-0.107548	0.838364
C109	C	2.507951	-0.018295	0.933672
C110	C	2.478458	-0.018679	0.800930
C111	C	2.508530	0.026334	0.981327
C112	C	2.479614	0.070574	0.896238
C113	C	2.450126	0.070187	0.763490
C114	C	2.449550	0.025560	0.715842
H115	H	1.878742	-0.195250	0.177398
H116	H	2.263511	-0.203363	0.377171
N117	N	2.408463	0.070168	0.396515
H118	H	2.392512	0.073203	0.478576
H119	H	2.436448	0.034605	0.395238
H120	H	2.425535	0.025241	0.607759
H121	H	2.078445	-0.552382	0.714057
N122	N	2.474405	-0.152579	0.647537
H123	H	2.399761	-0.133574	0.603811
H124	H	2.478481	-0.187572	0.630351
N125	N	2.640076	-0.311570	0.401217
H126	H	2.629989	-0.327984	0.322123
H127	H	2.667576	-0.337398	0.480594
H128	H	2.589213	-0.151088	1.164282
N129	N	2.723472	0.185739	0.370793
H130	H	2.693262	0.211587	0.291451
H131	H	2.787887	0.163518	0.366655
H132	H	2.058135	-0.460455	0.714749
N133	N	2.767167	0.080380	0.370589
H134	H	2.769014	0.044044	0.371495
H135	H	2.826272	0.085676	0.447293
N136	N	2.534495	-0.244545	0.824408
H137	H	2.607799	-0.265554	0.860112
H138	H	2.511381	-0.238039	0.727409
H139	H	2.243125	-0.067071	1.139874
N140	N	2.462328	-0.359141	0.387675
H141	H	2.536584	-0.373279	0.392592
H142	H	2.410427	-0.365630	0.305869
N143	N	2.364949	0.175502	0.397268
H144	H	2.363194	0.211824	0.396566
H145	H	2.356348	0.160856	0.479204
H146	H	1.899087	-0.287176	0.176687
H147	H	1.999249	-0.312354	0.599353
N148	N	2.595803	-0.243739	1.100322
H149	H	2.590967	-0.272070	1.049998
H150	H	2.546672	-0.243864	1.151792
N151	N	2.261258	-0.301351	0.374763
H152	H	2.280609	-0.326984	0.453524
H153	H	2.243146	-0.317522	0.295063
N154	N	2.522445	0.233292	0.384398
H155	H	2.585126	0.247430	0.379485
H156	H	2.508910	0.239778	0.466207
H157	H	2.136178	-0.068474	0.658224
N158	N	1.893867	-0.412893	0.028404
H159	H	1.881617	-0.432247	-0.045552
H160	H	1.949955	-0.393230	0.027772
H161	H	1.878536	-0.057368	1.113814
H162	H	2.532547	0.026644	1.089414
H163	H	2.480095	0.106907	0.935051
H164	H	2.426594	0.106212	0.694217
H165	H	1.632943	-0.054004	0.740753
H166	H	1.923029	-0.513350	0.058441
H167	H	2.015443	-0.813498	0.172682
N168	N	2.348469	-0.073209	0.774632
H169	H	2.313733	-0.073113	0.679481
H170	H	2.403059	-0.104417	0.813400
H171	H	2.035779	-0.905440	0.171996
N172	N	1.763800	-0.058864	0.597075
H173	H	1.711287	-0.027787	0.549824
H174	H	1.730594	-0.088238	0.575364
N175	N	2.144717	-0.939128	0.625372
H176	H	2.156957	-0.919776	0.699332
H177	H	2.212539	-0.962134	0.634627
H178	H	1.978922	-0.220411	0.600043
N179	N	2.121447	-0.833802	0.626178
H180	H	2.197431	-0.847334	0.681371
H181	H	2.073430	-0.843981	0.672581
N182	N	1.927507	-0.564915	0.027249
H183	H	1.915263	-0.584269	-0.046707
H184	H	1.983605	-0.545256	0.026631
H185	H	2.112037	-0.704411	0.712882
N186	N	1.950888	-0.670248	0.026461
H187	H	1.963050	-0.707249	0.043878
H188	H	1.998872	-0.660034	-0.019951
N189	N	2.409732	-0.072412	1.050554
H190	H	2.453669	-0.074128	0.992499
H191	H	2.435564	-0.102575	1.118637
H192	H	2.091712	-0.612488	0.713578
N193	N	1.666230	-0.052622	0.997398
H194	H	1.700971	-0.052714	1.092547
H195	H	1.630911	-0.081847	0.984085
H196	H	2.594167	-0.212308	0.400292
