data_functionalizedCrystal
_audit_creation_method	'MofGen! by Chris Wilmer'
_symmetry_space_group_name_H-M	'P1'
_symmetry_Int_Tables_number	1
_symmetry_cell_setting	triclinic
loop_
_symmetry_equiv_pos_as_xyz
  x,y,z
_cell_length_a	19.188905
_cell_length_b	15.995350
_cell_length_c	15.072220
_cell_angle_alpha	89.998899
_cell_angle_beta	89.980393
_cell_angle_gamma	96.686535
loop_
_atom_site_label
_atom_site_type_symbol
_atom_site_fract_x
_atom_site_fract_y
_atom_site_fract_z
O1	O	0.926431	-0.104428	-0.073924
O2	O	0.723153	-0.118522	-0.073894
O3	O	0.830348	0.010434	-0.073909
O4	O	0.819235	-0.233384	-0.073909
O5	O	0.830322	0.010426	0.073656
O6	O	0.723126	-0.118529	0.073672
O7	O	0.926404	-0.104435	0.073641
Zn8	Zn	0.824761	-0.111483	0.097085
Zn9	Zn	0.824796	-0.111474	-0.097338
O10	O	0.819208	-0.233391	0.073656
C11	C	0.697127	-0.118073	-0.000107
C12	C	0.619618	-0.116713	-0.000095
C13	C	0.583239	-0.116056	-0.080536
C14	C	0.510412	-0.114769	-0.080547
C15	C	0.473969	-0.114123	-0.000113
C16	C	0.510356	-0.114785	0.080338
C17	C	0.583181	-0.116080	0.080347
N18	N	0.364811	-0.064443	0.059746
N19	N	0.295631	-0.063211	0.059732
C20	C	0.254552	-0.110222	-0.000134
N21	N	0.285268	-0.158501	-0.060000
N22	N	0.354455	-0.159730	-0.059989
C23	C	0.395003	-0.112719	-0.000113
C24	C	0.139206	-0.108171	-0.080592
C25	C	0.066377	-0.106889	-0.080600
C26	C	0.066323	-0.106896	0.080287
C27	C	0.139150	-0.108186	0.080292
C28	C	0.175587	-0.108820	-0.000150
C29	C	0.829876	0.041623	-0.000128
C30	C	0.828498	0.134568	-0.000133
C31	C	0.952430	-0.104885	-0.000148
C32	C	1.029939	-0.106244	-0.000165
C33	C	0.819681	-0.264580	-0.000127
C34	C	0.821058	-0.357526	-0.000128
N35	N	0.824742	-0.111489	0.229774
C36	C	0.823552	0.472297	-0.000129
C37	C	0.747209	0.424575	-0.000449
C38	C	0.748586	0.327890	-0.000116
C39	C	0.826005	0.304746	-0.000132
C40	C	0.863645	0.345961	0.084128
C41	C	0.861727	0.442589	0.084199
C42	C	0.863334	0.442962	-0.083610
C43	C	0.863316	0.346016	-0.084724
C44	C	0.827396	0.210053	-0.000130
C45	C	0.822163	0.566990	-0.000125
N46	N	0.824820	-0.111461	-0.230027
C47	C	0.824794	-0.111471	0.588976
C48	C	0.767243	-0.180242	0.551377
C49	C	0.767375	-0.180492	0.448551
C50	C	0.824768	-0.111480	0.410772
C51	C	0.897619	-0.130287	0.448052
C52	C	0.897297	-0.130775	0.550910
C53	C	0.810144	-0.023686	0.551079
C54	C	0.808472	-0.024279	0.448216
C55	C	0.824758	-0.111484	0.310058
C56	C	0.824810	-0.111469	0.689689
H57	H	0.612902	-0.116572	-0.146038
Cl58	Cl	0.683756	-0.163310	0.409636
Cl59	Cl	0.464669	-0.113942	-0.181679
Cl60	Cl	0.823250	0.301990	0.180956
H61	H	0.835797	0.318667	-0.147057
H62	H	0.716706	0.442995	-0.060872
H63	H	0.920522	0.332050	0.087251
Cl64	Cl	0.702561	0.284684	0.093309
H65	H	0.480679	-0.114260	0.145827
H66	H	0.910838	-0.193568	0.422280
Cl67	Cl	0.628917	-0.116905	0.181480
H68	H	0.754882	-0.010000	0.423852
H69	H	0.941468	-0.081518	0.423576
Cl70	Cl	0.020642	-0.106071	-0.181734
H71	H	0.919622	0.474935	-0.084188
H72	H	0.036651	-0.106375	0.145778
Cl73	Cl	0.700160	0.455002	0.092061
H74	H	0.834258	0.460784	0.147195
H75	H	0.168874	-0.108696	-0.146093
Cl76	Cl	0.948259	0.492708	0.090098
Cl77	Cl	0.184887	-0.109007	0.181423
H78	H	0.838386	0.463410	-0.147475
Cl79	Cl	0.950484	0.322625	-0.092603
Cl80	Cl	0.702903	0.283837	-0.093368
Cl81	Cl	0.683361	-0.163284	0.589598
H82	H	0.776470	-0.245025	0.577213
H83	H	0.776731	-0.245641	0.423935
H84	H	0.910207	-0.194788	0.574889
Cl85	Cl	0.965338	-0.056279	0.589309
H86	H	0.758174	-0.005534	0.577077
H87	H	0.847666	0.029274	0.422502
H88	H	0.852113	0.027488	0.575391
