data_functionalizedCrystal
_audit_creation_method	'MofGen! by Chris Wilmer'
_symmetry_space_group_name_H-M	'P1'
_symmetry_Int_Tables_number	1
_symmetry_cell_setting	triclinic
loop_
_symmetry_equiv_pos_as_xyz
  x,y,z
_cell_length_a	16.625547
_cell_length_b	11.169416
_cell_length_c	11.169409
_cell_angle_alpha	89.969184
_cell_angle_beta	89.971854
_cell_angle_gamma	90.010278
loop_
_atom_site_label
_atom_site_type_symbol
_atom_site_fract_x
_atom_site_fract_y
_atom_site_fract_z
Zn1	Zn	1.232775	-0.477712	-0.678798
Zn2	Zn	1.732775	0.022288	-0.178798
Zn3	Zn	1.232699	-0.678453	-0.478120
Zn4	Zn	1.732699	-0.178453	0.021880
Zn5	Zn	1.097929	-0.477782	-0.478106
Zn6	Zn	1.597929	0.022218	0.021894
Zn7	Zn	1.097936	-0.678352	-0.678738
Zn8	Zn	1.597936	-0.178352	-0.178738
O9	O	1.165335	-0.578075	-0.578440
O10	O	1.665335	-0.078075	-0.078440
O11	O	1.345597	-0.504354	-0.652208
O12	O	1.845597	-0.004354	-0.152208
O13	O	1.214787	-0.651905	-0.310168
O14	O	1.714787	-0.151905	0.189832
O15	O	1.115846	-0.309823	-0.504747
O16	O	1.615846	0.190177	-0.004747
O17	O	1.345541	-0.651837	-0.504771
O18	O	1.845541	-0.151837	-0.004771
O19	O	1.214916	-0.309772	-0.652195
O20	O	1.714916	0.190228	-0.152195
O21	O	1.115772	-0.504473	-0.310158
O22	O	1.615772	-0.004473	0.189842
O23	O	0.985097	-0.504375	-0.504689
O24	O	1.485097	-0.004375	-0.004689
O25	O	1.115857	-0.651665	-0.846696
O26	O	1.615857	-0.151665	-0.346696
O27	O	0.985102	-0.651733	-0.652093
O28	O	1.485102	-0.151733	-0.152093
O29	O	1.214923	-0.504256	-0.846740
O30	O	1.714923	-0.004256	-0.346740
O31	O	1.214793	-0.846389	-0.504713
O32	O	1.714793	-0.346389	-0.004713
O33	O	1.115783	-0.846315	-0.652107
O34	O	1.615783	-0.346315	-0.152107
C35	C	1.165303	-0.889900	-0.578431
C36	C	1.665303	-0.389900	-0.078431
C37	C	1.165363	-1.023300	-0.578467
C38	C	1.665363	-0.523300	-0.078467
C39	C	0.955844	-0.578052	-0.578384
C40	C	1.455844	-0.078052	-0.078384
C41	C	0.866223	-0.578071	-0.578388
C42	C	1.366223	-0.078071	-0.078388
C43	C	0.793440	-0.578073	-0.578403
C44	C	1.293440	-0.078073	-0.078403
C45	C	0.702132	-0.578079	-0.578433
C46	C	1.202132	-0.078079	-0.078433
C47	C	0.629355	-0.578090	-0.578463
C48	C	1.129355	-0.078090	-0.078463
C49	C	0.538041	-0.578098	-0.578492
C50	C	1.038041	-0.078098	-0.078492
C51	C	1.375643	-0.578099	-0.578498
C52	C	1.875643	-0.078099	-0.078498
C53	C	1.465265	-0.578109	-0.578522
C54	C	1.965265	-0.078109	-0.078522
C55	C	1.165399	-0.577942	-0.891483
C56	C	1.665399	-0.077942	-0.391483
C57	C	1.165427	-0.577885	-1.024883
C58	C	1.665427	-0.077885	-0.524883
C59	C	1.165389	-0.265033	-0.578476
C60	C	1.665389	0.234967	-0.078476
C61	C	1.165412	-0.131633	-0.578491
C62	C	1.665412	0.368367	-0.078491
C63	C	1.165317	-0.578121	-0.266616
C64	C	1.665317	-0.078121	0.233384
C65	C	1.165445	-0.577839	-0.133216
C66	C	1.665445	-0.077839	0.366784
