data_functionalizedCrystal
_audit_creation_method	'MofGen! by Chris Wilmer'
_symmetry_space_group_name_H-M	'P1'
_symmetry_Int_Tables_number	1
_symmetry_cell_setting	triclinic
loop_
_symmetry_equiv_pos_as_xyz
  x,y,z
_cell_length_a	16.109301
_cell_length_b	17.699083
_cell_length_c	15.186229
_cell_angle_alpha	89.995368
_cell_angle_beta	89.999362
_cell_angle_gamma	83.372248
loop_
_atom_site_label
_atom_site_type_symbol
_atom_site_fract_x
_atom_site_fract_y
_atom_site_fract_z
O1	O	1.102963	0.097285	-0.073175
O2	O	0.860880	0.109391	-0.073189
O3	O	0.988761	-0.006841	-0.073174
O4	O	0.975082	0.213517	-0.073190
O5	O	0.988753	-0.006843	0.073284
O6	O	0.860872	0.109390	0.073268
O7	O	1.102955	0.097283	0.073283
Zn8	Zn	0.981912	0.103336	0.096529
Zn9	Zn	0.981923	0.103338	-0.096435
O10	O	0.975074	0.213516	0.073267
C11	C	0.829902	0.108900	0.000038
C12	C	0.737609	0.107430	0.000033
C13	C	0.515224	0.172981	0.000038
C14	C	0.428506	0.171594	0.000044
C15	C	0.448618	0.033688	0.000050
C16	C	0.535334	0.035076	0.000051
C17	C	0.568635	0.104725	0.000040
C18	C	0.395200	0.101949	0.000046
C19	C	0.301177	0.100445	0.000052
C20	C	0.662664	0.106230	0.000036
C21	C	0.988267	-0.035040	0.000055
C22	C	0.986796	-0.119060	0.000055
C23	C	1.061860	-0.167574	0.000061
C24	C	1.060473	-0.246519	0.000053
C25	C	0.984022	-0.276949	0.000046
C26	C	0.908953	-0.228429	0.000038
C27	C	0.910341	-0.149485	0.000039
C28	C	0.903356	-0.546800	0.000030
C29	C	0.901974	-0.625750	0.000031
C30	C	1.053488	-0.643834	0.000044
C31	C	1.054876	-0.564890	0.000046
C32	C	0.979807	-0.516377	0.000033
C33	C	0.981312	-0.430776	0.000040
C34	C	0.982517	-0.362549	0.000045
C35	C	1.133933	0.097774	0.000054
C36	C	1.226226	0.099244	0.000053
C37	C	0.975568	0.241714	0.000037
C38	C	0.977039	0.325734	0.000031
N39	N	0.981910	0.103334	0.228221
N40	N	0.981931	0.103334	-0.228128
C41	C	1.038555	0.051884	0.453951
C42	C	1.038558	0.051882	0.546141
C43	C	0.925280	0.154787	0.546136
C44	C	0.925274	0.154785	0.453948
C45	C	0.981916	0.103334	0.407858
C46	C	0.981925	0.103334	0.592236
C47	C	0.981927	0.103333	0.692192
C48	C	0.981913	0.103334	0.307896
H49	H	1.121597	-0.286017	0.000060
H50	H	1.124115	-0.142805	0.000072
H51	H	0.879148	0.196682	0.416417
C52	C	0.839547	-0.341413	0.000040
C53	C	0.824916	-0.261876	0.000033
H54	H	0.787664	-0.362058	0.000045
H55	H	0.870444	-0.358060	-0.051029
H56	H	0.870447	-0.358061	0.051118
H57	H	0.794021	-0.245227	-0.051049
H58	H	0.794006	-0.245222	0.051106
H59	H	1.117130	-0.540119	0.000056
C60	C	0.486631	0.309155	0.000043
C61	C	0.551829	0.249538	0.000039
H62	H	0.509229	0.356419	0.000051
H63	H	0.453230	0.305750	-0.051027
H64	H	0.453226	0.305734	0.051119
H65	H	0.585231	0.252956	-0.051041
H66	H	0.585244	0.252945	0.051114
H67	H	0.421494	-0.023018	0.000064
C68	C	0.760431	-0.139534	0.000032
C69	C	0.827828	-0.096156	0.000035
H70	H	0.709491	-0.106609	0.000032
H71	H	0.763046	-0.170697	-0.051037
H72	H	0.763042	-0.170706	0.051110
H73	H	0.825221	-0.064988	-0.051046
H74	H	0.825212	-0.064980	0.051109
C75	C	1.118652	-0.772881	0.000033
C76	C	1.136008	-0.697163	0.000044
H77	H	1.169596	-0.805801	0.000030
H78	H	1.087300	-0.782107	0.051100
H79	H	1.087301	-0.782090	-0.051047
H80	H	1.167354	-0.687952	0.051128
H81	H	1.167374	-0.687934	-0.051027
C82	C	0.644520	-0.043372	0.075343
C83	C	0.594050	-0.039958	0.000053
H84	H	0.680765	-0.089695	0.075347
H85	H	0.676759	-0.001699	0.075336
H86	H	0.610263	-0.041051	0.126409
H87	H	0.628308	-0.042273	-0.051013
H88	H	0.561809	-0.081643	0.000052
C89	C	0.752335	-0.599948	-0.000006
C90	C	0.817933	-0.659200	0.000012
H91	H	0.700456	-0.620601	-0.000023
H92	H	0.756013	-0.569537	0.051065
H93	H	0.756041	-0.569530	-0.051082
H94	H	0.814230	-0.689615	0.051091
H95	H	0.814253	-0.689624	-0.051064
C96	C	0.817006	-0.447542	-0.075271
C97	C	0.820839	-0.493485	0.000020
H98	H	0.766057	-0.414630	-0.075278
H99	H	0.862724	-0.418117	-0.075262
H100	H	0.819624	-0.478722	-0.126336
H101	H	0.818227	-0.462305	0.051086
H102	H	0.775108	-0.522912	0.000019
C103	C	1.150517	-0.049840	0.463219
C104	C	1.100807	-0.004678	0.403288
H105	H	1.188944	-0.084763	0.431941
H106	H	1.180360	-0.018327	0.499165
H107	H	1.115957	-0.077068	0.499184
H108	H	1.135367	0.022555	0.367326
H109	H	1.070961	-0.036194	0.367326
H110	H	1.084677	0.009985	0.583667
C111	C	0.874998	0.200490	0.687453
C112	C	0.863030	0.211348	0.596802
H113	H	0.836570	0.235414	0.718728
H114	H	0.866069	0.149982	0.702566
H115	H	0.930471	0.208724	0.702543
H116	H	0.807558	0.203108	0.581710
H117	H	0.871952	0.261868	0.581683
C118	C	0.319319	0.250035	-0.075250
C119	C	0.369795	0.246623	0.000036
H120	H	0.283070	0.296355	-0.075250
H121	H	0.353565	0.247712	-0.126313
H122	H	0.287076	0.208356	-0.075234
H123	H	0.402042	0.288299	0.000017
H124	H	0.335544	0.248954	0.051113
