data_functionalizedCrystal
_audit_creation_method	'MofGen! by Chris Wilmer'
_symmetry_space_group_name_H-M	'P1'
_symmetry_Int_Tables_number	1
_symmetry_cell_setting	triclinic
loop_
_symmetry_equiv_pos_as_xyz
  x,y,z
_cell_length_a	12.594517
_cell_length_b	12.594516
_cell_length_c	12.594510
_cell_angle_alpha	90.032321
_cell_angle_beta	89.978880
_cell_angle_gamma	89.984147
loop_
_atom_site_label
_atom_site_type_symbol
_atom_site_fract_x
_atom_site_fract_y
_atom_site_fract_z
Zn1	Zn	1.627265	0.423651	-0.601875
Zn2	Zn	1.627156	0.601681	-0.423903
Zn3	Zn	1.449269	0.423716	-0.423904
Zn4	Zn	1.449251	0.601588	-0.601833
O5	O	1.538235	0.512659	-0.512879
O6	O	1.776196	0.447279	-0.578284
O7	O	1.603522	0.578139	-0.274957
O8	O	1.472934	0.274762	-0.447530
O9	O	1.776116	0.578077	-0.447528
O10	O	1.603706	0.274714	-0.578285
O11	O	1.472829	0.447389	-0.274958
O12	O	1.300321	0.447299	-0.447489
O13	O	1.472903	0.577918	-0.750784
O14	O	1.300308	0.577981	-0.578213
O15	O	1.603689	0.447189	-0.750815
O16	O	1.603504	0.750614	-0.447488
O17	O	1.472797	0.750546	-0.578212
C18	C	1.261694	0.512638	-0.512847
C19	C	1.143389	0.512654	-0.512859
C20	C	1.538166	0.789200	-0.512868
C21	C	1.538233	0.907505	-0.512899
C22	C	1.538306	0.512536	-0.790500
C23	C	1.538336	0.512484	-0.908805
C24	C	1.074112	0.441479	-0.441894
C25	C	1.003301	0.538571	-0.415718
C26	C	1.003401	0.415610	-0.539054
C27	C	1.074136	0.609797	-0.486632
C28	C	1.074242	0.486770	-0.610013
C29	C	1.003463	0.583929	-0.583874
C30	C	1.815856	0.512681	-0.512911
C31	C	1.934162	0.512691	-0.512924
C32	C	1.538334	0.235038	-0.512912
C33	C	1.538377	0.116733	-0.512927
C34	C	1.467135	0.976760	-0.583950
C35	C	1.441202	1.047636	-0.486827
C36	C	1.564263	1.047429	-0.610039
C37	C	1.512249	0.976823	-0.415725
C38	C	1.635355	0.976610	-0.539002
C39	C	1.609459	1.047453	-0.441812
C40	C	1.609491	0.441375	-0.978075
C41	C	1.512415	0.415322	-1.048865
C42	C	1.635468	0.538462	-1.048814
C43	C	1.441208	0.486381	-0.978037
C44	C	1.564326	0.609566	-0.977980
C45	C	1.467183	0.583550	-1.048738
C46	C	1.538227	0.512705	-0.236338
C47	C	1.538403	0.512457	-0.118033
H48	H	1.105133	0.381348	-0.381807
Br49	Br	1.772111	0.924573	-0.575839
H50	H	1.669559	0.381206	-0.947045
Br51	Br	1.366825	0.683749	-1.100151
Br52	Br	1.600977	0.746388	-0.926042
H53	H	1.105426	0.464825	-0.692122
Br54	Br	0.951367	0.575102	-0.278826
Br55	Br	1.125699	0.746650	-0.449593
Br56	Br	0.951600	0.278802	-0.575932
H57	H	1.717584	0.560444	-1.079908
Br58	Br	1.475497	0.925351	-0.278780
H59	H	0.972637	0.644204	-0.643914
H60	H	1.359135	1.078857	-0.464772
H61	H	1.669646	1.078298	-0.381669
Br62	Br	1.366751	0.925020	-0.683955
H63	H	1.586221	1.078444	-0.692178
H64	H	1.359068	0.464301	-0.947078
Br65	Br	1.475810	0.278466	-1.100766
