data_functionalizedCrystal
_audit_creation_method	'MofGen! by Chris Wilmer'
_symmetry_space_group_name_H-M	'P1'
_symmetry_Int_Tables_number	1
_symmetry_cell_setting	triclinic
loop_
_symmetry_equiv_pos_as_xyz
  x,y,z
_cell_length_a	16.992694
_cell_length_b	10.540539
_cell_length_c	15.455313
_cell_angle_alpha	92.694186
_cell_angle_beta	87.142206
_cell_angle_gamma	87.596857
loop_
_atom_site_label
_atom_site_type_symbol
_atom_site_fract_x
_atom_site_fract_y
_atom_site_fract_z
O1	O	1.045302	0.264111	-0.072015
O2	O	0.817001	0.261155	-0.072041
O3	O	0.936360	0.078379	-0.072026
O4	O	0.925943	0.446887	-0.072030
O5	O	0.929534	0.088785	0.072235
O6	O	0.810175	0.271561	0.072220
O7	O	1.038476	0.274517	0.072246
Cu8	Cu	0.923702	0.273989	0.085405
Cu9	Cu	0.931774	0.261683	-0.085200
O10	O	0.919117	0.457293	0.072232
C11	C	0.784354	0.262557	0.000086
C12	C	0.697247	0.251216	0.000077
C13	C	0.932166	0.036211	0.000103
C14	C	0.929829	-0.104941	0.000098
C15	C	0.647619	0.360636	0.000076
C16	C	0.565773	0.349973	0.000088
C17	C	0.533555	0.229889	0.000094
C18	C	0.583189	0.120461	0.000097
C19	C	0.665034	0.131125	0.000092
C20	C	0.289709	0.185692	0.000118
C21	C	0.207858	0.175036	0.000121
C22	C	0.190446	0.404549	0.000114
C23	C	0.272294	0.415202	0.000103
C24	C	0.321921	0.305774	0.000110
N25	N	0.449895	0.218988	0.000104
N26	N	0.405579	0.316677	0.000107
C27	C	0.840284	-0.296163	-0.000236
C28	C	0.842638	-0.149316	0.000089
C29	C	0.967891	-0.157014	0.082483
C30	C	0.964912	-0.303812	0.082552
C31	C	0.974447	-0.316010	-0.081500
C32	C	0.975302	-0.169037	-0.082589
C33	C	1.071122	0.273115	0.000117
C34	C	1.158230	0.284456	0.000121
C35	C	0.923311	0.499461	0.000101
C36	C	0.925648	0.640612	0.000100
N37	N	0.918030	0.282645	0.205400
N38	N	0.937452	0.253018	-0.205195
C39	C	0.968756	0.205027	0.250801
C40	C	0.964474	0.211585	0.341608
C41	C	0.909469	0.295768	0.387013
C42	C	0.858738	0.373389	0.341607
C43	C	0.863017	0.366823	0.250801
C44	C	0.891000	0.324073	0.658593
C45	C	0.886727	0.330635	0.749405
C46	C	0.992462	0.168829	0.749400
C47	C	0.996739	0.162277	0.658592
C48	C	0.946005	0.239893	0.613193
N49	N	0.905093	0.302477	0.479833
N50	N	0.950379	0.233177	0.520375
H51	H	0.525368	0.439075	0.000087
C52	C	0.733047	0.500430	-0.074101
C53	C	0.683026	0.492639	0.000065
H54	H	0.754898	0.581930	-0.074108
H55	H	0.774316	0.436803	-0.074096
H56	H	0.703843	0.487863	-0.124398
H57	H	0.712231	0.505196	0.050362
H58	H	0.641751	0.556285	0.000067
C59	C	0.747318	0.397399	0.443748
C60	C	0.798276	0.465922	0.391519
H61	H	0.709996	0.454531	0.474564
H62	H	0.720473	0.339093	0.408333
H63	H	0.776927	0.352116	0.483778
H64	H	0.768668	0.511198	0.351484
H65	H	0.825124	0.524250	0.426937
H66	H	0.298519	0.512986	0.000088
H67	H	0.930988	-0.330261	0.144129
H68	H	0.330106	0.096587	0.000125
H69	H	0.949182	-0.354516	-0.143942
H70	H	0.556951	0.022687	0.000115
C71	C	0.714340	-0.278325	0.078019
C72	C	0.790218	-0.335233	0.079060
H73	H	0.683432	-0.302456	0.126971
H74	H	0.717639	-0.188513	0.079963
H75	H	0.690484	-0.305430	0.026422
H76	H	0.814076	-0.308120	0.130654
H77	H	0.786921	-0.425064	0.077124
H78	H	0.705441	0.042024	0.000091
H79	H	0.812416	-0.113837	-0.058968
H80	H	0.806591	-0.106178	0.059237
C81	C	1.066267	0.202360	0.443723
C82	C	1.020234	0.126277	0.391520
H83	H	1.100687	0.149690	0.474541
H84	H	1.096447	0.255547	0.408290
H85	H	1.032882	0.253428	0.483752
H86	H	1.053619	0.075215	0.351487
H87	H	0.990051	0.073069	0.426956
H88	H	0.150032	0.493639	0.000110
H89	H	0.935843	-0.112522	0.143784
C90	C	1.102346	-0.262783	0.090588
C91	C	1.049320	-0.360867	0.087622
H92	H	1.154453	-0.298005	0.093727
H93	H	1.099094	-0.215890	0.039794
H94	H	1.089460	-0.207947	0.140264
H95	H	1.062203	-0.415698	0.037942
H96	H	1.052575	-0.407781	0.138422
H97	H	0.821710	0.430026	0.213837
C98	C	0.994070	-0.062567	-0.215540
C99	C	0.937813	-0.123295	-0.164870
H100	H	0.970924	-0.034328	-0.266337
H101	H	1.012175	0.008303	-0.183190
H102	H	1.037259	-0.120503	-0.231468
H103	H	0.894626	-0.065356	-0.148937
H104	H	0.919696	-0.194175	-0.197227
H105	H	0.808637	-0.332013	-0.059316
H106	H	0.841933	0.399192	0.786370
H107	H	1.031777	-0.128883	0.085553
C108	C	0.233285	-0.050768	0.000138
C109	C	0.172443	0.043030	0.000130
H110	H	0.211419	-0.132256	0.000145
H111	H	0.267220	-0.045472	-0.050166
H112	H	0.262469	-0.038198	0.050449
H113	H	0.143262	0.030465	-0.050185
H114	H	0.138494	0.037730	0.050439
H115	H	1.039106	-0.139658	-0.087557
C116	C	1.100816	0.002984	0.667712
C117	C	1.057198	0.069732	0.608685
H118	H	1.138139	-0.054153	0.636899
H119	H	1.127662	0.061300	0.703118
H120	H	1.066229	-0.043483	0.703140
H121	H	1.091785	0.116206	0.573261
H122	H	1.030351	0.011408	0.573264
C123	C	1.058447	-0.505338	-0.085374
C124	C	1.059499	-0.372444	-0.082252
H125	H	1.110952	-0.540179	-0.085839
H126	H	1.029256	-0.531866	-0.035928
H127	H	1.034430	-0.534097	-0.136483
H128	H	1.083511	-0.343685	-0.031139
H129	H	1.088702	-0.345905	-0.131702
H130	H	0.849692	0.387274	0.621636
H131	H	1.033766	0.105637	0.786371
C132	C	1.072834	0.045740	0.259926
C133	C	1.029218	0.112486	0.200895
H134	H	1.110156	-0.011399	0.229116
H135	H	1.099678	0.104057	0.295332
H136	H	1.038244	-0.000723	0.295354
H137	H	1.063807	0.158957	0.165471
H138	H	1.002372	0.054161	0.165474
