data_functionalizedCrystal
_audit_creation_method	'MofGen! by Chris Wilmer'
_symmetry_space_group_name_H-M	'P1'
_symmetry_Int_Tables_number	1
_symmetry_cell_setting	triclinic
loop_
_symmetry_equiv_pos_as_xyz
  x,y,z
_cell_length_a	19.805407
_cell_length_b	10.685194
_cell_length_c	10.685884
_cell_angle_alpha	99.066461
_cell_angle_beta	85.634344
_cell_angle_gamma	94.376925
loop_
_atom_site_label
_atom_site_type_symbol
_atom_site_fract_x
_atom_site_fract_y
_atom_site_fract_z
Zn1	Zn	0.988293	-0.450529	0.678982
Zn2	Zn	0.988276	-0.679037	0.450455
Zn3	Zn	0.883193	-0.466789	0.466743
Zn4	Zn	0.867056	-0.662748	0.662642
O5	O	0.931705	-0.564776	0.564705
O6	O	1.083006	-0.480853	0.648689
O7	O	0.981083	-0.664504	0.274991
O8	O	0.903896	-0.286991	0.508551
O9	O	1.082993	-0.648737	0.480791
O10	O	0.981112	-0.275045	0.664482
O11	O	0.903879	-0.508567	0.286958
O12	O	0.786338	-0.492772	0.492708
O13	O	0.876392	-0.620974	0.842434
O14	O	0.774482	-0.636742	0.636634
O15	O	0.965464	-0.465058	0.854438
O16	O	0.965435	-0.854517	0.464947
O17	O	0.876376	-0.842550	0.620841
C18	C	0.755851	-0.564755	0.564666
C19	C	0.680618	-0.564774	0.564677
C20	C	0.639118	-0.639871	0.639479
C21	C	0.568429	-0.639872	0.639497
C22	C	0.539241	-0.564782	0.564705
C23	C	0.580746	-0.489675	0.489900
C24	C	0.651433	-0.489669	0.489890
C25	C	0.295670	-0.489700	0.489940
C26	C	0.224976	-0.489716	0.489953
C27	C	0.212665	-0.639904	0.639547
C28	C	0.283353	-0.639897	0.639537
C29	C	0.324852	-0.564786	0.564737
C30	C	0.401501	-0.564784	0.564721
C31	C	0.462593	-0.564789	0.564714
C32	C	0.919170	-0.894591	0.539381
C33	C	0.913868	-1.035685	0.528590
C34	C	1.108245	-0.564798	0.564745
C35	C	1.183476	-0.564807	0.564762
C36	C	0.919130	-0.539385	0.895780
C37	C	0.913772	-0.528565	1.036864
C38	C	0.944306	-0.233670	0.590156
C39	C	0.949676	-0.092572	0.601002
C40	C	0.944224	-0.590092	1.234917
C41	C	0.949583	-0.600903	1.093833
H42	H	0.662878	-0.701023	0.700379
H43	H	0.984347	-0.671105	1.034667
H44	H	0.685222	-0.428509	0.428986
H45	H	0.307114	-0.701048	0.700435
H46	H	0.879145	-1.094928	0.458339
O47	O	0.872220	-0.444991	1.107472
C48	C	0.822887	-0.511451	1.178608
H49	H	0.816407	-0.614464	1.130890
H50	H	0.839877	-0.508216	1.278697
C51	C	0.762758	-0.322742	1.244178
C52	C	0.754795	-0.449262	1.185563
H53	H	0.720757	-0.284379	1.248474
H54	H	0.795996	-0.277964	1.196256
H55	H	0.776919	-0.320063	1.327579
H56	H	0.740643	-0.451938	1.102159
H57	H	0.721554	-0.494038	1.233471
H58	H	0.534643	-0.701025	0.700407
H59	H	0.984389	-1.033336	0.671260
H60	H	0.556975	-0.428530	0.429009
H61	H	0.178868	-0.701057	0.700457
H62	H	0.201214	-0.428560	0.429049
O63	O	0.335877	-0.416709	0.417167
C64	C	0.294953	-0.350414	0.351184
H65	H	0.242762	-0.402762	0.342712
H66	H	0.289321	-0.250505	0.405231
C67	C	0.392461	-0.277947	0.227948
C68	C	0.328361	-0.342248	0.217533
H69	H	0.413069	-0.272904	0.145508
H70	H	0.420033	-0.322607	0.272405
H71	H	0.387759	-0.194696	0.272993
H72	H	0.333065	-0.425501	0.172504
H73	H	0.300791	-0.297602	0.173065
