data_functionalizedCrystal
_audit_creation_method	'MofGen! by Chris Wilmer'
_symmetry_space_group_name_H-M	'P1'
_symmetry_Int_Tables_number	1
_symmetry_cell_setting	triclinic
loop_
_symmetry_equiv_pos_as_xyz
  x,y,z
_cell_length_a	16.625548
_cell_length_b	19.120786
_cell_length_c	16.625539
_cell_angle_alpha	92.471374
_cell_angle_beta	90.020568
_cell_angle_gamma	92.466188
loop_
_atom_site_label
_atom_site_type_symbol
_atom_site_fract_x
_atom_site_fract_y
_atom_site_fract_z
Zn1	Zn	1.218970	-0.279609	0.442197
Zn2	Zn	1.552303	0.053724	0.775530
Zn3	Zn	1.885637	0.387057	1.108863
Zn4	Zn	1.213114	-0.397074	0.301603
Zn5	Zn	1.546447	-0.063741	0.634936
Zn6	Zn	1.879780	0.269593	0.968270
Zn7	Zn	1.084131	-0.279636	0.307376
Zn8	Zn	1.417464	0.053697	0.640709
Zn9	Zn	1.750797	0.387030	0.974043
Zn10	Zn	1.078345	-0.397034	0.436395
Zn11	Zn	1.411678	-0.063700	0.769728
Zn12	Zn	1.745011	0.269633	1.103062
O13	O	1.148640	-0.338338	0.371893
O14	O	1.481973	-0.005005	0.705226
O15	O	1.815306	0.328328	1.038559
O16	O	1.331025	-0.295197	0.423559
O17	O	1.664359	0.038136	0.756892
O18	O	1.997692	0.371470	1.090225
O19	O	1.195974	-0.381524	0.189535
O20	O	1.529308	-0.048190	0.522868
O21	O	1.862641	0.285143	0.856202
O22	O	1.106890	-0.181342	0.330104
O23	O	1.440223	0.151991	0.663437
O24	O	1.773556	0.485325	0.996771
O25	O	1.326723	-0.381498	0.320265
O26	O	1.660056	-0.048164	0.653599
O27	O	1.993389	0.285169	0.986932
O28	O	1.205956	-0.181323	0.429156
O29	O	1.539289	0.152011	0.762490
O30	O	1.872622	0.485344	1.095823
O31	O	1.101211	-0.295243	0.193776
O32	O	1.434544	0.038091	0.527110
O33	O	1.767878	0.371424	0.860443
O34	O	0.970531	-0.295204	0.324478
O35	O	1.303864	0.038130	0.657812
O36	O	1.637198	0.371463	0.991145
O37	O	1.097028	-0.381429	0.549998
O38	O	1.430362	-0.048096	0.883332
O39	O	1.763695	0.285238	1.216665
O40	O	0.966280	-0.381455	0.419268
O41	O	1.299613	-0.048122	0.752601
O42	O	1.632947	0.285212	1.085935
O43	O	1.200345	-0.295158	0.554261
O44	O	1.533679	0.038175	0.887594
O45	O	1.867012	0.371509	1.220928
O46	O	1.190364	-0.495359	0.314640
O47	O	1.523697	-0.162026	0.647973
O48	O	1.857030	0.171308	0.981306
O49	O	1.091350	-0.495329	0.413671
O50	O	1.424683	-0.161996	0.747004
O51	O	1.758016	0.171337	1.080337
C52	C	0.939149	-0.338328	0.371871
C53	C	1.272483	-0.004995	0.705204
C54	C	1.605816	0.328338	1.038537
C55	C	0.849528	-0.338341	0.371879
C56	C	1.182861	-0.005008	0.705213
C57	C	1.516194	0.328326	1.038546
C58	C	0.521352	-0.338345	0.371914
C59	C	0.854685	-0.005012	0.705247
C60	C	1.188018	0.328321	1.038580
C61	C	0.612660	-0.338342	0.371902
C62	C	0.945994	-0.005009	0.705235
C63	C	1.279327	0.328324	1.038568
C64	C	0.685437	-0.338344	0.371896
C65	C	1.018770	-0.005010	0.705229
C66	C	1.352103	0.328323	1.038563
C67	C	0.776751	-0.338340	0.371885
C68	C	1.110085	-0.005006	0.705219
C69	C	1.443418	0.328327	1.038552
C70	C	1.139615	-0.520830	0.362917
C71	C	1.472948	-0.187497	0.696250
C72	C	1.806282	0.145837	1.029583
C73	C	1.135828	-0.598901	0.359104
C74	C	1.469161	-0.265567	0.692437
C75	C	1.802495	0.067766	1.025770
C76	C	1.185589	-0.635508	0.408925
C77	C	1.518922	-0.302174	0.742259
C78	C	1.852256	0.031159	1.075592
C79	C	1.182027	-0.708863	0.405344
C80	C	1.515361	-0.375530	0.738677
C81	C	1.848694	-0.042197	1.072011
C82	C	1.128709	-0.745611	0.351936
C83	C	1.462042	-0.412277	0.685270
C84	C	1.795375	-0.078944	1.018603
C85	C	1.078942	-0.708998	0.302113
C86	C	1.412276	-0.375665	0.635446
C87	C	1.745609	-0.042332	0.968779
C88	C	1.082500	-0.635644	0.305699
C89	C	1.415834	-0.302311	0.639032
C90	C	1.749167	0.031023	0.972365
C91	C	1.115383	-0.967097	0.338531
C92	C	1.448717	-0.633763	0.671864
C93	C	1.782050	-0.300430	1.005198
C94	C	1.111831	-1.040456	0.334947
C95	C	1.445164	-0.707123	0.668280
C96	C	1.778498	-0.373790	1.001614
C97	C	1.214915	-1.040316	0.438180
C98	C	1.548249	-0.706983	0.771513
C99	C	1.881582	-0.373650	1.104847
C100	C	1.218472	-0.966960	0.441758
C101	C	1.551805	-0.633627	0.775091
C102	C	1.885139	-0.300294	1.108424
C103	C	1.168703	-0.930355	0.391937
C104	C	1.502036	-0.597021	0.725270
C105	C	1.835370	-0.263688	1.058604
C106	C	1.125069	-0.820592	0.348273
C107	C	1.458402	-0.487259	0.681606
C108	C	1.791735	-0.153925	1.014939
C109	C	1.172339	-0.855375	0.395605
C110	C	1.505673	-0.522041	0.728939
C111	C	1.839006	-0.188708	1.062272
C112	C	1.358948	-0.338349	0.371915
C113	C	1.692281	-0.005016	0.705249
C114	C	2.025615	0.328318	1.038582
C115	C	1.448569	-0.338353	0.371925
C116	C	1.781902	-0.005020	0.705258
C117	C	2.115236	0.328313	1.038591
C118	C	1.148695	-0.338286	0.582204
C119	C	1.482028	-0.004953	0.915538
C120	C	1.815361	0.328381	1.248871
C121	C	1.148718	-0.338264	0.671826
C122	C	1.482051	-0.004930	1.005160
C123	C	1.815385	0.328403	1.338493
C124	C	1.157722	-0.155134	0.380921
C125	C	1.491055	0.178199	0.714255
C126	C	1.824388	0.511533	1.047588
C127	C	1.161592	-0.077063	0.384769
C128	C	1.494925	0.256270	0.718102
C129	C	1.828258	0.589603	1.051435
C130	C	1.148634	-0.338340	0.162402
C131	C	1.481967	-0.005006	0.495735
C132	C	1.815300	0.328327	0.829068
C133	C	1.148776	-0.338164	0.072790
C134	C	1.482110	-0.004831	0.406123
C135	C	1.815443	0.328503	0.739456
C136	C	1.148759	-0.338185	1.000006
C137	C	1.482092	-0.004852	1.333339
C138	C	1.815426	0.328482	1.666673
C139	C	1.148745	-0.338209	0.908696
C140	C	1.482079	-0.004876	1.242030
C141	C	1.815412	0.328458	1.575363
C142	C	1.148739	-0.338225	0.835919
C143	C	1.482072	-0.004892	1.169253
C144	C	1.815406	0.328442	1.502586
C145	C	1.148724	-0.338248	0.744604
C146	C	1.482058	-0.004915	1.077937
C147	C	1.815391	0.328419	1.411270
H148	H	1.229010	-0.605593	0.452412
H149	H	1.562344	-0.272260	0.785745
H150	H	1.895677	0.061074	1.119079
H151	H	1.255434	-1.070129	0.478742
H152	H	1.588767	-0.736795	0.812075
H153	H	1.922100	-0.403462	1.145409
O154	O	1.066959	-0.931516	0.290247
O155	O	1.400293	-0.598182	0.623580
O156	O	1.733626	-0.264849	0.956913
C157	C	0.962139	-0.848766	0.283328
C158	C	1.295472	-0.515433	0.616661
C159	C	1.628806	-0.182099	0.949995
C160	C	1.016920	-0.889032	0.338108
C161	C	1.350253	-0.555698	0.671442
C162	C	1.683587	-0.222365	1.004775
H163	H	0.921681	-0.814397	0.322002
H164	H	1.255014	-0.481064	0.655335
H165	H	1.588347	-0.147730	0.988668
H166	H	0.923369	-0.887605	0.244557
H167	H	1.256703	-0.554271	0.577890
H168	H	1.590036	-0.220938	0.911223
H169	H	1.000860	-0.814449	0.242861
H170	H	1.334193	-0.481116	0.576194
H171	H	1.667527	-0.147782	0.909528
H172	H	0.978262	-0.923350	0.378624
H173	H	1.311595	-0.590016	0.711958
H174	H	1.644928	-0.256683	1.045291
H175	H	1.055694	-0.850155	0.376825
H176	H	1.389028	-0.516822	0.710158
H177	H	1.722361	-0.183488	1.043492
H178	H	1.068408	-1.070374	0.291455
H179	H	1.401742	-0.737041	0.624789
H180	H	1.735075	-0.403707	0.958122
H181	H	1.222554	-0.738666	0.445908
H182	H	1.555887	-0.405332	0.779241
H183	H	1.889221	-0.071999	1.112575
O184	O	1.027105	-0.744770	0.250340
O185	O	1.360439	-0.411437	0.583673
O186	O	1.693772	-0.078104	0.917007
C187	C	0.914202	-0.827649	0.235339
C188	C	1.247535	-0.494316	0.568673
C189	C	1.580868	-0.160983	0.902006
C190	C	0.972864	-0.787196	0.294063
C191	C	1.306197	-0.453862	0.627396
C192	C	1.639531	-0.120529	0.960729
H193	H	0.870322	-0.861949	0.270667
H194	H	1.203656	-0.528615	0.604001
H195	H	1.536989	-0.195282	0.937334
H196	H	0.949534	-0.862032	0.191545
H197	H	1.282868	-0.528699	0.524878
H198	H	1.616201	-0.195366	0.858211
H199	H	0.879284	-0.788870	0.200329
H200	H	1.212617	-0.455537	0.533662
H201	H	1.545951	-0.122203	0.866996
H202	H	1.007797	-0.825925	0.329128
H203	H	1.341130	-0.492591	0.662461
H204	H	1.674463	-0.159258	0.995795
H205	H	0.937486	-0.752802	0.337805
H206	H	1.270819	-0.419469	0.671138
H207	H	1.604153	-0.086136	1.004472
H208	H	1.081659	-0.850520	0.304786
H209	H	1.414992	-0.517186	0.638119
H210	H	1.748325	-0.183853	0.971452
H211	H	1.261888	-0.937042	0.485246
H212	H	1.595222	-0.603709	0.818580
H213	H	1.928555	-0.270376	1.151913
O214	O	1.034080	-0.600049	0.257418
O215	O	1.367413	-0.266716	0.590751
O216	O	1.700747	0.066618	0.924085
C217	C	0.929272	-0.517286	0.250524
C218	C	1.262605	-0.183952	0.583857
C219	C	1.595938	0.149381	0.917190
C220	C	0.984051	-0.557565	0.305292
C221	C	1.317384	-0.224232	0.638625
C222	C	1.650718	0.109102	0.971958
H223	H	0.888821	-0.482917	0.289207
H224	H	1.222155	-0.149584	0.622540
H225	H	1.555488	0.183750	0.955873
H226	H	0.890494	-0.556116	0.211749
H227	H	1.223827	-0.222782	0.545082
H228	H	1.557160	0.110551	0.878416
H229	H	0.967994	-0.482967	0.210059
H230	H	1.301327	-0.149634	0.543393
H231	H	1.634661	0.183699	0.876726
H232	H	0.945391	-0.591884	0.345805
H233	H	1.278724	-0.258551	0.679138
H234	H	1.612057	0.074782	1.012471
H235	H	1.022833	-0.518697	0.344011
H236	H	1.356167	-0.185364	0.677345
H237	H	1.689500	0.147969	1.010678
H238	H	1.215749	-0.825453	0.439093
H239	H	1.549082	-0.492120	0.772426
H240	H	1.882415	-0.158786	1.105760
