data_functionalizedCrystal
_audit_creation_method	'MofGen! by Chris Wilmer'
_symmetry_space_group_name_H-M	'P1'
_symmetry_Int_Tables_number	1
_symmetry_cell_setting	triclinic
loop_
_symmetry_equiv_pos_as_xyz
  x,y,z
_cell_length_a	19.805407
_cell_length_b	16.625546
_cell_length_c	19.805399
_cell_angle_alpha	90.027867
_cell_angle_beta	90.019573
_cell_angle_gamma	90.022468
loop_
_atom_site_label
_atom_site_type_symbol
_atom_site_fract_x
_atom_site_fract_y
_atom_site_fract_z
Zn1	Zn	1.034754	-0.321020	0.382718
Zn2	Zn	1.284754	-0.071020	0.632718
Zn3	Zn	1.534754	0.178980	0.882718
Zn4	Zn	1.784754	0.428980	1.132718
Zn5	Zn	1.034677	-0.455857	0.269529
Zn6	Zn	1.284677	-0.205857	0.519529
Zn7	Zn	1.534677	0.044143	0.769529
Zn8	Zn	1.784677	0.294143	1.019529
Zn9	Zn	0.921569	-0.321043	0.269543
Zn10	Zn	1.171569	-0.071043	0.519543
Zn11	Zn	1.421569	0.178957	0.769543
Zn12	Zn	1.671569	0.428957	1.019543
Zn13	Zn	0.921540	-0.455815	0.382676
Zn14	Zn	1.171540	-0.205815	0.632676
Zn15	Zn	1.421540	0.044185	0.882676
Zn16	Zn	1.671540	0.294185	1.132676
O17	O	0.978135	-0.388434	0.326117
O18	O	1.228135	-0.138434	0.576117
O19	O	1.478135	0.111566	0.826117
O20	O	1.728135	0.361566	1.076117
O21	O	1.129461	-0.338915	0.367716
O22	O	1.379461	-0.088915	0.617716
O23	O	1.629461	0.161085	0.867716
O24	O	1.879461	0.411085	1.117716
O25	O	1.019652	-0.438001	0.174815
O26	O	1.269652	-0.188001	0.424815
O27	O	1.519652	0.061999	0.674815
O28	O	1.769652	0.311999	0.924815
O29	O	0.936628	-0.208207	0.284579
O30	O	1.186628	0.041793	0.534579
O31	O	1.436628	0.291793	0.784579
O32	O	1.686628	0.541793	1.034579
O33	O	1.129404	-0.437980	0.284556
O34	O	1.379404	-0.187980	0.534556
O35	O	1.629404	0.062020	0.784556
O36	O	1.879404	0.312020	1.034556
O37	O	1.019784	-0.208191	0.367729
O38	O	1.269784	0.041809	0.617729
O39	O	1.519784	0.291809	0.867729
O40	O	1.769784	0.541809	1.117729
O41	O	0.936553	-0.338953	0.174825
O42	O	1.186553	-0.088953	0.424825
O43	O	1.436553	0.161047	0.674825
O44	O	1.686553	0.411047	0.924825
O45	O	0.826848	-0.338912	0.284538
O46	O	1.076848	-0.088912	0.534538
O47	O	1.326848	0.161088	0.784538
O48	O	1.576848	0.411088	1.034538
O49	O	0.936579	-0.437907	0.477398
O50	O	1.186579	-0.187907	0.727398
O51	O	1.436579	0.062093	0.977398
O52	O	1.686579	0.312093	1.227398
O53	O	0.826827	-0.437928	0.367657
O54	O	1.076827	-0.187928	0.617657
O55	O	1.326827	0.062072	0.867657
O56	O	1.576827	0.312072	1.117657
O57	O	1.019756	-0.338874	0.477429
O58	O	1.269756	-0.088874	0.727429
O59	O	1.519756	0.161126	0.977429
O60	O	1.769756	0.411126	1.227429
O61	O	1.019625	-0.568684	0.284515
O62	O	1.269625	-0.318684	0.534515
O63	O	1.519625	-0.068684	0.784515
O64	O	1.769625	0.181316	1.034515
O65	O	0.936504	-0.568653	0.367644
O66	O	1.186504	-0.318653	0.617644
O67	O	1.436504	-0.068653	0.867644
O68	O	1.686504	0.181347	1.117644
C69	C	0.802279	-0.388418	0.326095
C70	C	1.052279	-0.138418	0.576095
C71	C	1.302279	0.111582	0.826095
C72	C	1.552279	0.361582	1.076095
C73	C	0.727047	-0.388431	0.326102
C74	C	0.977047	-0.138431	0.576102
C75	C	1.227047	0.111569	0.826102
C76	C	1.477047	0.361569	1.076102
C77	C	0.978071	-0.597925	0.326088
C78	C	1.228071	-0.347925	0.576088
C79	C	1.478071	-0.097925	0.826088
C80	C	1.728071	0.152075	1.076088
C81	C	0.978105	-0.687546	0.326099
C82	C	1.228105	-0.437546	0.576099
C83	C	1.478105	-0.187546	0.826099
C84	C	1.728105	0.062454	1.076099
C85	C	0.691710	-0.440067	0.369311
C86	C	0.941710	-0.190067	0.619311
C87	C	1.191710	0.059933	0.869311
C88	C	1.441710	0.309933	1.119311
C89	C	0.621021	-0.440068	0.369321
C90	C	0.871021	-0.190068	0.619321
C91	C	1.121021	0.059932	0.869321
C92	C	1.371021	0.309932	1.119321
C93	C	0.585671	-0.388437	0.326117
C94	C	0.835671	-0.138437	0.576117
C95	C	1.085671	0.111563	0.826117
C96	C	1.335671	0.361563	1.076117
C97	C	0.621014	-0.336796	0.282905
C98	C	0.871014	-0.086796	0.532905
C99	C	1.121014	0.163204	0.782905
C100	C	1.371014	0.413204	1.032905
C101	C	0.691701	-0.336791	0.282899
C102	C	0.941701	-0.086791	0.532899
C103	C	1.191701	0.163209	0.782899
C104	C	1.441701	0.413209	1.032899
C105	C	0.335941	-0.336814	0.282927
C106	C	0.585941	-0.086814	0.532927
C107	C	0.835941	0.163186	0.782927
C108	C	1.085941	0.413186	1.032927
C109	C	0.265248	-0.336825	0.282935
C110	C	0.515248	-0.086825	0.532935
C111	C	0.765248	0.163175	0.782935
C112	C	1.015248	0.413175	1.032935
C113	C	0.265261	-0.440091	0.369349
C114	C	0.515261	-0.190091	0.619349
C115	C	0.765261	0.059909	0.869349
C116	C	1.015261	0.309909	1.119349
C117	C	0.335948	-0.440086	0.369343
C118	C	0.585948	-0.190086	0.619343
C119	C	0.835948	0.059914	0.869343
C120	C	1.085948	0.309914	1.119343
C121	C	0.371284	-0.388442	0.326134
C122	C	0.621284	-0.138442	0.576134
C123	C	0.871284	0.111558	0.826134
C124	C	1.121284	0.361558	1.076134
C125	C	0.447932	-0.388440	0.326125
C126	C	0.697932	-0.138440	0.576125
C127	C	0.947932	0.111560	0.826125
C128	C	1.197932	0.361560	1.076125
C129	C	0.509024	-0.388443	0.326122
C130	C	0.759024	-0.138443	0.576122
C131	C	1.009024	0.111557	0.826122
C132	C	1.259024	0.361557	1.076122
C133	C	0.978224	-1.015721	0.326169
C134	C	1.228224	-0.765721	0.576169
C135	C	1.478224	-0.515721	0.826169
C136	C	1.728224	-0.265721	1.076169
C137	C	0.978189	-0.924413	0.326152
C138	C	1.228189	-0.674413	0.576152
C139	C	1.478189	-0.424413	0.826152
C140	C	1.728189	-0.174413	1.076152
C141	C	0.978164	-0.851636	0.326134
C142	C	1.228164	-0.601636	0.576134
C143	C	1.478164	-0.351636	0.826134
C144	C	1.728164	-0.101636	1.076134
C145	C	0.978130	-0.760322	0.326117
C146	C	1.228130	-0.510322	0.576117
C147	C	1.478130	-0.260322	0.826117
C148	C	1.728130	-0.010322	1.076117
C149	C	1.154678	-0.388450	0.326139
C150	C	1.404678	-0.138450	0.576139
C151	C	1.654678	0.111550	0.826139
C152	C	1.904678	0.361550	1.076139
C153	C	1.229910	-0.388457	0.326149
C154	C	1.479910	-0.138457	0.576149
C155	C	1.729910	0.111543	0.826149
C156	C	1.979910	0.361543	1.076149
C157	C	0.978173	-0.388383	0.502660
C158	C	1.228173	-0.138383	0.752660
C159	C	1.478173	0.111617	1.002660
C160	C	1.728173	0.361617	1.252660
C161	C	0.978189	-0.388361	0.577892
C162	C	1.228189	-0.138361	0.827892
C163	C	1.478189	0.111639	1.077892
C164	C	1.728189	0.361639	1.327892
C165	C	0.978218	-0.178125	0.326160
C166	C	1.228218	0.071875	0.576160
C167	C	1.478218	0.321875	0.826160
C168	C	1.728218	0.571875	1.076160
C169	C	0.978253	-0.088504	0.326178
C170	C	1.228253	0.161496	0.576178
C171	C	1.478253	0.411496	0.826178
C172	C	1.728253	0.661496	1.076178
C173	C	0.978136	-0.388426	0.150261
C174	C	1.228136	-0.138426	0.400261
C175	C	1.478136	0.111574	0.650261
C176	C	1.728136	0.361574	0.900261
C177	C	0.978251	-0.388221	0.075029
C178	C	1.228251	-0.138221	0.325029
C179	C	1.478251	0.111779	0.575029
C180	C	1.728251	0.361779	0.825029
C181	C	1.021501	-0.336792	0.613253
C182	C	1.271501	-0.086792	0.863253
C183	C	1.521501	0.163208	1.113253
C184	C	1.771501	0.413208	1.363253
C185	C	1.021508	-0.336769	0.683941
C186	C	1.271508	-0.086769	0.933941
C187	C	1.521508	0.163231	1.183941
C188	C	1.771508	0.413231	1.433941
C189	C	0.978206	-0.388319	0.719267
C190	C	1.228206	-0.138319	0.969267
C191	C	1.478206	0.111681	1.219267
C192	C	1.728206	0.361681	1.469267
C193	C	0.934889	-0.439890	0.683901
C194	C	1.184889	-0.189890	0.933901
C195	C	1.434889	0.060110	1.183901
C196	C	1.684889	0.310110	1.433901
C197	C	0.934880	-0.439909	0.613214
C198	C	1.184880	-0.189909	0.863214
C199	C	1.434880	0.060091	1.113214
C200	C	1.684880	0.310091	1.363214
C201	C	0.934928	-0.439815	0.968974
C202	C	1.184928	-0.189815	1.218974
C203	C	1.434928	0.060185	1.468974
C204	C	1.684928	0.310185	1.718974
C205	C	0.934942	-0.439794	1.039667
C206	C	1.184942	-0.189794	1.289667
C207	C	1.434942	0.060206	1.539667
C208	C	1.684942	0.310206	1.789667
C209	C	1.021556	-0.336675	1.039702
C210	C	1.271556	-0.086675	1.289702
C211	C	1.521556	0.163325	1.539702
C212	C	1.771556	0.413325	1.789702
C213	C	1.021546	-0.336694	0.969015
C214	C	1.271546	-0.086694	1.219015
C215	C	1.521546	0.163306	1.469015
C216	C	1.771546	0.413306	1.719015
C217	C	0.978227	-0.388262	0.933655
C218	C	1.228227	-0.138262	1.183655
C219	C	1.478227	0.111738	1.433655
C220	C	1.728227	0.361738	1.683655
C221	C	0.978219	-0.388285	0.857006
C222	C	1.228219	-0.138285	1.107006
C223	C	1.478219	0.111715	1.357006
C224	C	1.728219	0.361715	1.607006
C225	C	0.978217	-0.388300	0.795914
C226	C	1.228217	-0.138300	1.045914
C227	C	1.478217	0.111700	1.295914
C228	C	1.728217	0.361700	1.545914
H229	H	0.720486	-0.482113	0.404491
H230	H	0.970486	-0.232113	0.654491
H231	H	1.220486	0.017887	0.904491
H232	H	1.470486	0.267887	1.154491
H233	H	0.364726	-0.482132	0.404522
H234	H	0.614726	-0.232132	0.654522
H235	H	0.864726	0.017868	0.904522
H236	H	1.114726	0.267868	1.154522
Cl237	Cl	0.380354	-0.271888	0.228609
Cl238	Cl	0.630354	-0.021888	0.478609
Cl239	Cl	0.880354	0.228112	0.728609
Cl240	Cl	1.130354	0.478112	0.978609
H241	H	0.592253	-0.482116	0.404506
H242	H	0.842253	-0.232116	0.654506
H243	H	1.092253	0.017884	0.904506
H244	H	1.342253	0.267884	1.154506
H245	H	0.236481	-0.482139	0.404534
H246	H	0.486481	-0.232139	0.654534
H247	H	0.736481	0.017861	0.904534
H248	H	0.986481	0.267861	1.154534
H249	H	0.592226	-0.294754	0.247730
H250	H	0.842226	-0.044754	0.497730
H251	H	1.092226	0.205246	0.747730
H252	H	1.342226	0.455246	0.997730
Cl253	Cl	1.075987	-0.271888	0.924609
Cl254	Cl	1.325987	-0.021888	1.174609
Cl255	Cl	1.575987	0.228112	1.424609
Cl256	Cl	1.825987	0.478112	1.674609
H257	H	0.899665	-0.481817	0.940193
H258	H	1.149665	-0.231817	1.190193
H259	H	1.399665	0.018183	1.440193
H260	H	1.649665	0.268183	1.690193
Cl261	Cl	0.880450	-0.504694	0.728311
Cl262	Cl	1.130450	-0.254694	0.978311
Cl263	Cl	1.380450	-0.004694	1.228311
Cl264	Cl	1.630450	0.245306	1.478311
Cl265	Cl	0.736125	-0.271873	0.228578
Cl266	Cl	0.986125	-0.021873	0.478578
Cl267	Cl	1.236125	0.228127	0.728578
Cl268	Cl	1.486125	0.478127	0.978578
Cl269	Cl	1.075944	-0.271986	0.568850
Cl270	Cl	1.325944	-0.021986	0.818850
Cl271	Cl	1.575944	0.228014	1.068850
Cl272	Cl	1.825944	0.478014	1.318850
Cl273	Cl	1.075989	-0.271972	0.728393
Cl274	Cl	1.325989	-0.021972	0.978393
Cl275	Cl	1.575989	0.228028	1.228393
Cl276	Cl	1.825989	0.478028	1.478393
H277	H	1.056826	-0.294683	1.068501
H278	H	1.306826	-0.044683	1.318501
H279	H	1.556826	0.205317	1.568501
H280	H	1.806826	0.455317	1.818501
H281	H	0.899604	-0.481894	0.584423
H282	H	1.149604	-0.231894	0.834423
H283	H	1.399604	0.018106	1.084423
H284	H	1.649604	0.268106	1.334423
Cl285	Cl	0.220810	-0.271911	0.228618
Cl286	Cl	0.470810	-0.021911	0.478618
Cl287	Cl	0.720810	0.228089	0.728618
Cl288	Cl	0.970810	0.478089	0.978618
Cl289	Cl	0.880501	-0.504605	1.084075
Cl290	Cl	1.130501	-0.254605	1.334075
Cl291	Cl	1.380501	-0.004605	1.584075
Cl292	Cl	1.630501	0.245395	1.834075
