data_functionalizedCrystal
_audit_creation_method	'MofGen! by Chris Wilmer'
_symmetry_space_group_name_H-M	'P1'
_symmetry_Int_Tables_number	1
_symmetry_cell_setting	triclinic
loop_
_symmetry_equiv_pos_as_xyz
  x,y,z
_cell_length_a	27.731993
_cell_length_b	26.809956
_cell_length_c	11.792241
_cell_angle_alpha	89.995376
_cell_angle_beta	96.593096
_cell_angle_gamma	90.004510
loop_
_atom_site_label
_atom_site_type_symbol
_atom_site_fract_x
_atom_site_fract_y
_atom_site_fract_z
O1	O	0.641734	0.041346	-0.134742
O2	O	0.501057	0.041376	-0.155340
O3	O	0.574809	0.041357	0.020240
O4	O	0.567982	0.041365	-0.310323
O5	O	0.574787	-0.041603	0.020240
O6	O	0.501034	-0.041583	-0.155340
O7	O	0.641712	-0.041614	-0.134742
Zn8	Zn	0.571369	-0.054770	-0.145041
Zn9	Zn	0.571399	0.054532	-0.145041
O10	O	0.567959	-0.041594	-0.310323
C11	C	0.483035	-0.000100	-0.154917
C12	C	0.429372	-0.000088	-0.153644
C13	C	0.046171	0.045108	-0.144416
C14	C	0.247856	0.045122	-0.149269
O15	O	0.273943	0.083582	-0.149851
N16	N	0.273067	-0.000098	-0.149876
C17	C	0.247855	-0.045325	-0.149262
O18	O	0.273927	-0.083787	-0.149878
C19	C	0.046170	-0.045338	-0.144401
C20	C	0.020961	-0.000115	-0.143806
C21	C	0.020961	0.090328	-0.143819
C22	C	-0.029458	0.090324	-0.142612
C23	C	-0.054667	0.045101	-0.142002
C24	C	-0.029458	-0.000119	-0.142599
C25	C	0.020959	-0.090564	-0.143779
C26	C	-0.029465	-0.090563	-0.142561
C27	C	-0.054674	-0.045340	-0.141966
C28	C	-0.105086	-0.045346	-0.140782
N29	N	-0.130297	-0.000126	-0.140174
C30	C	-0.105088	0.045098	-0.140784
C31	C	0.353742	-0.045314	-0.151817
C32	C	0.404162	-0.045311	-0.153034
C33	C	0.404160	0.045136	-0.153038
C34	C	0.353738	0.045132	-0.151829
C35	C	0.328530	-0.000094	-0.151210
C36	C	-0.210971	0.045086	-0.138251
C37	C	-0.261394	0.045078	-0.137048
C38	C	-0.261387	-0.045368	-0.137038
C39	C	-0.210969	-0.045361	-0.138247
C40	C	-0.185761	-0.000130	-0.138849
O41	O	-0.131203	-0.083785	-0.140186
O42	O	-0.131167	0.083554	-0.140143
C43	C	0.096589	0.045112	-0.145623
C44	C	0.121799	-0.000107	-0.146220
C45	C	0.096589	-0.045330	-0.145609
C46	C	0.172219	-0.000104	-0.147437
C47	C	0.197429	0.045119	-0.148047
C48	C	0.172217	0.090339	-0.147440
C49	C	0.121799	0.090336	-0.146233
C50	C	0.121800	-0.090550	-0.146217
C51	C	0.172219	-0.090543	-0.147425
C52	C	0.197429	-0.045319	-0.148035
N53	N	0.571352	-0.129366	-0.145041
C54	C	0.600887	-0.473997	-0.213375
C55	C	0.600903	-0.682875	-0.213374
O56	O	0.626002	-0.709883	-0.271462
N57	N	0.571411	-0.708993	-0.145030
C58	C	0.541915	-0.682889	-0.076675
O59	O	0.516835	-0.709897	-0.018535
C60	C	0.541902	-0.474012	-0.076671
C61	C	0.571393	-0.447896	-0.145028
C62	C	0.630375	-0.447881	-0.281726
C63	C	0.630369	-0.395665	-0.281730
C64	C	0.600875	-0.369564	-0.213383
C65	C	0.571387	-0.395680	-0.145032
C66	C	0.512410	-0.447909	-0.008311
C67	C	0.512410	-0.395686	-0.008314
C68	C	0.541900	-0.369571	-0.076671
C69	C	0.541886	-0.317363	-0.076690
N70	N	0.571378	-0.291245	-0.145034
C71	C	0.600872	-0.317345	-0.213381
C72	C	0.541923	-0.792552	-0.076684
C73	C	0.541926	-0.844771	-0.076686
C74	C	0.600914	-0.844753	-0.213384
C75	C	0.600909	-0.792533	-0.213387
C76	C	0.571415	-0.766434	-0.145028
C77	C	0.600857	-0.207687	-0.213386
C78	C	0.600847	-0.155466	-0.213387
C79	C	0.541860	-0.155489	-0.076686
C80	C	0.541868	-0.207705	-0.076688
C81	C	0.571371	-0.233803	-0.145041
O82	O	0.516804	-0.290323	-0.018623
O83	O	0.625957	-0.290328	-0.271493
C84	C	0.600893	-0.526213	-0.213371
C85	C	0.571405	-0.552329	-0.145020
C86	C	0.541911	-0.526228	-0.076673
C87	C	0.571407	-0.604548	-0.145022
C88	C	0.600902	-0.630648	-0.213369
C89	C	0.630394	-0.604530	-0.281713
C90	C	0.630388	-0.552314	-0.281717
C91	C	0.512419	-0.552347	-0.008329
C92	C	0.512427	-0.604563	-0.008331
C93	C	0.541921	-0.630664	-0.076678
C94	C	0.659733	-0.000137	-0.135165
C95	C	0.713397	-0.000145	-0.136438
C96	C	0.574369	-0.000123	0.062517
C97	C	0.573085	-0.000122	0.188489
N98	N	0.571420	0.129128	-0.145033
C99	C	0.568399	-0.000114	-0.352600
C100	C	0.569683	-0.000111	-0.478572
C101	C	0.570725	-0.000113	0.419125
C102	C	0.572037	-0.000118	0.290782
H103	H	-0.190443	-0.082185	-0.138754
C104	C	0.633306	-0.236388	-0.288589
N105	N	0.657743	-0.258004	-0.345240
C106	C	0.479981	-0.633285	0.066869
N107	N	0.455547	-0.654916	0.123515
C108	C	0.509472	-0.763849	-0.001488
N109	N	0.485027	-0.742232	0.055145
C110	C	0.431886	-0.095060	-0.153702
N111	N	0.452767	-0.132533	-0.154197
C112	C	0.509427	-0.236433	-0.001495
N113	N	0.484996	-0.258068	0.055153
C114	C	0.199958	0.140085	-0.148107
N115	N	0.220854	0.177551	-0.148601
C116	C	0.662815	-0.476583	-0.356942
N117	N	0.687245	-0.498199	-0.413614
H118	H	0.624922	-0.771273	-0.269050
C119	C	0.662817	-0.366944	-0.356915
N120	N	0.687261	-0.345315	-0.413542
C121	C	-0.057191	-0.140317	-0.141886
N122	N	-0.078073	-0.177792	-0.141383
H123	H	0.517906	-0.866030	-0.021036
H124	H	0.624928	-0.866013	-0.269039
H125	H	0.488396	-0.469163	0.047355
C126	C	0.094076	0.140085	-0.145564
N127	N	0.073198	0.177559	-0.145054
H128	H	0.517845	-0.134228	-0.021043
C129	C	-0.289127	-0.095112	-0.136363
N130	N	-0.310022	-0.132578	-0.135846
C131	C	0.199944	-0.140295	-0.148079
N132	N	0.220825	-0.177768	-0.148561
H133	H	0.101280	-0.127377	-0.145714
H134	H	0.654402	-0.531055	-0.337381
C135	C	0.662839	-0.633251	-0.356892
N136	N	0.687277	-0.654886	-0.413508
C137	C	0.633291	-0.126742	-0.288584
N138	N	0.657730	-0.105109	-0.345217
H139	H	0.488393	-0.374439	0.047354
C140	C	0.479968	-0.523644	0.066856
N141	N	0.455521	-0.502026	0.123483
H142	H	-0.281917	0.081906	-0.136567
H143	H	-0.190453	0.081918	-0.138743
H144	H	0.424694	0.081958	-0.153539
H145	H	-0.049978	0.127149	-0.142122
H146	H	0.333216	0.081956	-0.151344
C147	C	0.048679	-0.140314	-0.144424
N148	N	0.069557	-0.177788	-0.144904
H149	H	0.041482	0.127156	-0.144312
C150	C	0.326018	-0.095070	-0.151160
N151	N	0.305138	-0.132547	-0.150676
