data_functionalizedCrystal
_audit_creation_method	'MofGen! by Chris Wilmer'
_symmetry_space_group_name_H-M	'P1'
_symmetry_Int_Tables_number	1
_symmetry_cell_setting	triclinic
loop_
_symmetry_equiv_pos_as_xyz
  x,y,z
_cell_length_a	18.050591
_cell_length_b	18.050589
_cell_length_c	19.077174
_cell_angle_alpha	92.276796
_cell_angle_beta	87.688915
_cell_angle_gamma	90.027061
loop_
_atom_site_label
_atom_site_type_symbol
_atom_site_fract_x
_atom_site_fract_y
_atom_site_fract_z
Zn1	Zn	1.152165	-0.312561	-0.397893
Zn2	Zn	1.652165	0.187439	0.102107
Zn3	Zn	1.147085	-0.431766	-0.280206
Zn4	Zn	1.647085	0.068234	0.219794
Zn5	Zn	1.022994	-0.307593	-0.280220
Zn6	Zn	1.522994	0.192407	0.219780
Zn7	Zn	1.027931	-0.436710	-0.397872
Zn8	Zn	1.527931	0.063290	0.102128
O9	O	1.087544	-0.372158	-0.339048
O10	O	1.587544	0.127842	0.160952
O11	O	1.255416	-0.328384	-0.382285
O12	O	1.755416	0.171616	0.117715
O13	O	1.126432	-0.411146	-0.181718
O14	O	1.626432	0.088854	0.318282
O15	O	1.040189	-0.204328	-0.295844
O16	O	1.540189	0.295672	0.204156
O17	O	1.251684	-0.415964	-0.295821
O18	O	1.751684	0.084036	0.204179
O19	O	1.135090	-0.207978	-0.382298
O20	O	1.635090	0.292022	0.117702
O21	O	1.035263	-0.319916	-0.181728
O22	O	1.535263	0.180084	0.318272
O23	O	0.919724	-0.324710	-0.295823
O24	O	1.419724	0.175290	0.204177
O25	O	1.048603	-0.424390	-0.496364
O26	O	1.548603	0.075610	0.003636
O27	O	0.923352	-0.419573	-0.382261
O28	O	1.423352	0.080427	0.117739
O29	O	1.139877	-0.333179	-0.496380
O30	O	1.639877	0.166821	0.003620
O31	O	1.131219	-0.536346	-0.295800
O32	O	1.631219	-0.036346	0.204200
O33	O	1.043677	-0.539979	-0.382248
O34	O	1.543677	-0.039979	0.117752
C35	C	0.894591	-0.372139	-0.339042
C36	C	1.394591	0.127861	0.160958
C37	C	0.812046	-0.372150	-0.339056
C38	C	1.312046	0.127850	0.160944
C39	C	1.087454	-0.565109	-0.339036
C40	C	1.587454	-0.065109	0.160964
C41	C	1.087484	-0.647656	-0.339054
C42	C	1.587484	-0.147656	0.160946
C43	C	0.565212	-0.423836	-0.385997
C44	C	1.065212	0.076164	0.114003
C45	C	0.611858	-0.439189	-0.321757
C46	C	1.111858	0.060811	0.178243
C47	C	0.514926	-0.372173	-0.339055
C48	C	1.014926	0.127827	0.160945
C49	C	0.615361	-0.356843	-0.403291
C50	C	1.115361	0.143157	0.096709
C51	C	0.660911	-0.372164	-0.339059
C52	C	1.160911	0.127836	0.160941
C53	C	0.560483	-0.387560	-0.274781
C54	C	1.060483	0.112440	0.225219
C55	C	0.563984	-0.305184	-0.356358
C56	C	1.063984	0.194816	0.143642
C57	C	0.610606	-0.320510	-0.292074
C58	C	1.110606	0.179490	0.207926
C59	C	0.430827	-0.372181	-0.339053
C60	C	0.930827	0.127819	0.160947
C61	C	0.745007	-0.372156	-0.339053
C62	C	1.245007	0.127844	0.160947
C63	C	1.039927	-0.849108	-0.386048
C64	C	1.539927	-0.349108	0.113952
C65	C	1.019106	-0.895825	-0.321826
C66	C	1.519106	-0.395825	0.178174
C67	C	1.087557	-0.798787	-0.339064
C68	C	1.587557	-0.298787	0.160936
C69	C	1.108415	-0.899152	-0.403293
C70	C	1.608415	-0.399152	0.096707
C71	C	1.087627	-0.944772	-0.339078
C72	C	1.587627	-0.444772	0.160922
C73	C	1.066699	-0.844415	-0.274807
C74	C	1.566699	-0.344415	0.225193
C75	C	1.156042	-0.847739	-0.356318
C76	C	1.656042	-0.347739	0.143682
C77	C	1.135245	-0.894432	-0.292051
C78	C	1.635245	-0.394432	0.207949
C79	C	1.087515	-0.714688	-0.339056
C80	C	1.587515	-0.214688	0.160944
C81	C	1.087669	-1.028869	-0.339078
C82	C	1.587669	-0.528869	0.160922
C83	C	1.281250	-0.372177	-0.339054
C84	C	1.781250	0.127823	0.160946
C85	C	1.363796	-0.372185	-0.339056
C86	C	1.863796	0.127815	0.160944
C87	C	1.095357	-0.379890	-0.522624
C88	C	1.595357	0.120110	-0.022624
C89	C	1.098687	-0.383185	-0.600853
C90	C	1.598687	0.116815	-0.100853
C91	C	1.087655	-0.178453	-0.339075
C92	C	1.587655	0.321547	0.160925
C93	C	1.087703	-0.095908	-0.339086
C94	C	1.587703	0.404092	0.160914
C95	C	1.052787	-0.337236	-0.637610
C96	C	1.552787	0.162764	-0.137610
C97	C	1.055912	-0.340338	-0.711114
C98	C	1.555912	0.159662	-0.211114
C99	C	1.104943	-0.389387	-0.747861
C100	C	1.604943	0.110613	-0.247861
C101	C	1.150845	-0.435341	-0.711099
C102	C	1.650845	0.064659	-0.211099
C103	C	1.147715	-0.432242	-0.637595
C104	C	1.647715	0.067758	-0.137595
C105	C	1.119390	-0.403752	-0.967692
C106	C	1.619390	0.096248	-0.467692
C107	C	1.122518	-0.406847	-1.041200
C108	C	1.622518	0.093153	-0.541200
C109	C	1.027584	-0.311844	-1.041210
C110	C	1.527584	0.188156	-0.541210
C111	C	1.024462	-0.308746	-0.967706
C112	C	1.524462	0.191254	-0.467706
C113	C	1.070361	-0.354703	-0.930950
C114	C	1.570361	0.145297	-0.430950
N115	N	1.108141	-0.392558	-0.822994
N116	N	1.608141	0.107442	-0.322994
N117	N	1.067159	-0.351536	-0.855818
N118	N	1.567159	0.148464	-0.355818
C119	C	1.079803	-0.364401	-0.156186
C120	C	1.579803	0.135599	0.343814
C121	C	1.076618	-0.360897	-0.077957
C122	C	1.576618	0.139103	0.422043
H123	H	0.632910	-0.495836	-0.307118
H124	H	1.132910	0.004164	0.192882
C125	C	0.918689	-0.895589	-0.235351
C126	C	1.418689	-0.395589	0.264649
C127	C	0.940964	-0.924375	-0.302125
C128	C	1.440964	-0.424375	0.197875
H129	H	0.870446	-0.913210	-0.223196
H130	H	1.370446	-0.413210	0.276804
H131	H	0.952498	-0.911053	-0.201945
H132	H	1.452498	-0.411053	0.298055
H133	H	0.918006	-0.842980	-0.235633
H134	H	1.418006	-0.342980	0.264367
H135	H	0.941653	-0.976984	-0.301842
H136	H	1.441653	-0.476984	0.198158
H137	H	0.907147	-0.908915	-0.335541
H138	H	1.407147	-0.408915	0.164459
C139	C	0.612149	-0.191579	-0.255981
C140	C	1.112149	0.308421	0.244019
C141	C	0.637420	-0.261523	-0.238427
C142	C	1.137420	0.238477	0.261573
H143	H	0.628701	-0.155168	-0.222857
H144	H	1.128701	0.344832	0.277143
H145	H	0.631103	-0.180582	-0.301559
H146	H	1.131103	0.319418	0.198441
H147	H	0.559501	-0.191551	-0.255420
H148	H	1.059501	0.308449	0.244580
H149	H	0.690068	-0.261553	-0.238994
H150	H	1.190068	0.238447	0.261006
H151	H	0.618469	-0.272524	-0.192837
H152	H	1.118469	0.227476	0.307163
C153	C	1.189694	-0.998814	-0.239207
C154	C	1.689694	-0.498814	0.260793
C155	C	1.189657	-0.921210	-0.238363
C156	C	1.689657	-0.421210	0.261637
H157	H	1.223286	-1.015345	-0.206064
H158	H	1.723286	-0.515345	0.293936
H159	H	1.141235	-1.016019	-0.227343
H160	H	1.641235	-0.516019	0.272657
H161	H	1.204598	-1.017705	-0.284787
H162	H	1.704598	-0.517705	0.215213
H163	H	1.174748	-0.902319	-0.192785
H164	H	1.674748	-0.402319	0.307215
H165	H	1.238127	-0.903998	-0.250223
H166	H	1.738127	-0.403998	0.249777
C167	C	0.992444	-0.187041	-1.063863
C168	C	1.492444	0.312959	-0.563863
C169	C	0.977129	-0.261336	-1.081615
C170	C	1.477129	0.238664	-0.581615
H171	H	0.961294	-0.155861	-1.088811
H172	H	1.461294	0.344139	-0.588811
H173	H	0.983561	-0.178182	-1.014835
H174	H	1.483561	0.321818	-0.514835
H175	H	1.042863	-0.176693	-1.075917
H176	H	1.542863	0.323307	-0.575917
H177	H	0.926711	-0.271685	-1.069556
H178	H	1.426711	0.228315	-0.569556
H179	H	0.986006	-0.270199	-1.130654
H180	H	1.486006	0.229801	-0.630654
H181	H	1.126029	-0.923105	-0.457606
H182	H	1.626029	-0.423105	0.042394
H183	H	1.185098	-0.469654	-0.607669
H184	H	1.685098	0.030346	-0.107669
C185	C	1.216038	-0.500455	-1.033811
C186	C	1.716038	-0.000455	-0.533811
C187	C	1.176413	-0.460768	-1.081594
C188	C	1.676413	0.039232	-0.581594
H189	H	1.249306	-0.533743	-1.058750
H190	H	1.749306	-0.033743	-0.558750
H191	H	1.243245	-0.466898	-1.005147
H192	H	1.743245	0.033102	-0.505147
H193	H	1.182434	-0.527649	-1.005137
H194	H	1.682434	-0.027649	-0.505137
H195	H	1.210017	-0.433569	-1.110264
H196	H	1.710017	0.066431	-0.610264
H197	H	1.149205	-0.494330	-1.110269
H198	H	1.649205	0.005670	-0.610269
H199	H	1.156757	-0.441182	-0.937774
H200	H	1.656757	0.058818	-0.437774
C201	C	0.450652	-0.405040	-0.202099
C202	C	0.950652	0.094960	0.297901
C203	C	0.528193	-0.405160	-0.201427
C204	C	1.028193	0.094840	0.298573
H205	H	0.430718	-0.415913	-0.156817
H206	H	0.930718	0.084087	0.343183
H207	H	0.433876	-0.357614	-0.214456
H208	H	0.933876	0.142386	0.285544
H209	H	0.434775	-0.441522	-0.235474
H210	H	0.934775	0.058478	0.264526
H211	H	0.544069	-0.368674	-0.168056
H212	H	1.044069	0.131326	0.331944
H213	H	0.544975	-0.452593	-0.189062
H214	H	1.044975	0.047407	0.310938
C215	C	0.959255	-0.243652	-0.645011
C216	C	1.459255	0.256348	-0.145011
C217	C	0.998886	-0.283323	-0.597221
C218	C	1.498886	0.216677	-0.097221
H219	H	0.925974	-0.210373	-0.620077
H220	H	1.425974	0.289627	-0.120077
H221	H	0.992848	-0.216455	-0.673682
H222	H	1.492848	0.283545	-0.173682
H223	H	0.932055	-0.277225	-0.673676
H224	H	1.432055	0.222775	-0.173676
H225	H	1.026091	-0.249750	-0.568559
H226	H	1.526091	0.250250	-0.068559
H227	H	0.965289	-0.310521	-0.568538
H228	H	1.465289	0.189479	-0.068538
H229	H	1.190763	-0.475282	-0.741024
H230	H	1.690763	0.024718	-0.241024
H231	H	0.639377	-0.343880	-0.457614
H232	H	1.139377	0.156120	0.042386
H233	H	1.213913	-0.826580	-0.370929
H234	H	1.713913	-0.326580	0.129071
C235	C	0.959523	-0.333505	-0.793751
C236	C	1.459523	0.166495	-0.293751
C237	C	1.005444	-0.289834	-0.751509
C238	C	1.505444	0.210166	-0.251509
H239	H	0.928357	-0.302325	-0.818682
H240	H	1.428357	0.197675	-0.318682
H241	H	0.989168	-0.363147	-0.826158
H242	H	1.489168	0.136853	-0.326158
H243	H	0.929890	-0.364651	-0.765056
H244	H	1.429890	0.135349	-0.265056
H245	H	1.035080	-0.258691	-0.780204
H246	H	1.535080	0.241309	-0.280204
H247	H	0.975796	-0.260179	-0.719098
H248	H	1.475796	0.239821	-0.219098
H249	H	1.049019	-0.820550	-0.220480
H250	H	1.549019	-0.320550	0.279520
C251	C	0.599400	-0.519694	-0.472081
C252	C	1.099400	-0.019694	0.027919
C253	C	0.538207	-0.482858	-0.439517
C254	C	1.038207	0.017142	0.060483
H255	H	0.582726	-0.556135	-0.505115
H256	H	1.082726	-0.056135	-0.005115
H257	H	0.630088	-0.484982	-0.495566
H258	H	1.130088	0.015018	0.004434
H259	H	0.626880	-0.542960	-0.437644
H260	H	1.126880	-0.042960	0.062356
H261	H	0.510730	-0.459587	-0.473953
H262	H	1.010730	0.040413	0.026047
H263	H	0.507506	-0.517576	-0.416031
H264	H	1.007506	-0.017576	0.083969
C265	C	0.563293	-0.212801	-0.443467
C266	C	1.063293	0.287199	0.056533
C267	C	0.535531	-0.228739	-0.376145
C268	C	1.035531	0.271261	0.123855
H269	H	0.545721	-0.165610	-0.455688
H270	H	1.045721	0.334390	0.044312
H271	H	0.615932	-0.212368	-0.444032
H272	H	1.115932	0.287632	0.055968
H273	H	0.547041	-0.249614	-0.476339
H274	H	1.047041	0.250386	0.023661
H275	H	0.551787	-0.191930	-0.343272
H276	H	1.051787	0.308070	0.156728
H277	H	0.482881	-0.229167	-0.375575
H278	H	0.982881	0.270833	0.124425
C279	C	0.897763	-0.271602	-0.945079
C280	C	1.397763	0.228398	-0.445079
C281	C	0.970563	-0.254831	-0.927318
C282	C	1.470563	0.245169	-0.427318
H283	H	0.864491	-0.238316	-0.920142
H284	H	1.364491	0.261684	-0.420142
H285	H	0.893063	-0.266870	-0.994109
H286	H	1.393063	0.233130	-0.494109
H287	H	0.886359	-0.320991	-0.933017
H288	H	1.386359	0.179009	-0.433017
H289	H	0.981969	-0.205443	-0.939385
H290	H	1.481969	0.294557	-0.439385
H291	H	0.975266	-0.259555	-0.878277
H292	H	1.475266	0.240445	-0.378277
H293	H	0.999583	-0.829139	-0.425726
H294	H	1.499583	-0.329139	0.074274
