data_functionalizedCrystal
_audit_creation_method	'MofGen! by Chris Wilmer'
_symmetry_space_group_name_H-M	'P1'
_symmetry_Int_Tables_number	1
_symmetry_cell_setting	triclinic
loop_
_symmetry_equiv_pos_as_xyz
  x,y,z
_cell_length_a	17.038272
_cell_length_b	16.098538
_cell_length_c	17.019370
_cell_angle_alpha	83.407930
_cell_angle_beta	87.243908
_cell_angle_gamma	92.930266
loop_
_atom_site_label
_atom_site_type_symbol
_atom_site_fract_x
_atom_site_fract_y
_atom_site_fract_z
O1	O	1.040107	0.057067	0.168573
O2	O	1.540107	0.557067	0.668573
O3	O	0.812490	0.057287	0.165843
O4	O	1.312490	0.557287	0.665843
O5	O	0.933065	0.065401	0.052412
O6	O	1.433065	0.565401	0.552412
O7	O	0.919532	0.048954	0.282003
O8	O	1.419532	0.548954	0.782003
O9	O	0.926022	-0.073584	0.059010
O10	O	1.426022	0.426416	0.559010
O11	O	0.805447	-0.081697	0.172441
O12	O	1.305447	0.418303	0.672441
O13	O	1.033064	-0.081918	0.175171
O14	O	1.533064	0.418082	0.675171
Zn15	Zn	0.918137	-0.103874	0.174854
Zn16	Zn	1.418137	0.396126	0.674854
Zn17	Zn	0.927417	0.079244	0.166160
Zn18	Zn	1.427417	0.579244	0.666160
O19	O	0.912489	-0.090031	0.288601
O20	O	1.412489	0.409969	0.788601
C21	C	0.779851	-0.012024	0.166659
C22	C	1.279851	0.487976	0.666659
C23	C	0.693092	-0.011484	0.159254
C24	C	1.193092	0.488516	0.659254
N25	N	0.911810	-0.228848	0.180786
N26	N	1.411810	0.271152	0.680786
C27	C	0.642673	-0.016355	0.227244
C28	C	1.142673	0.483645	0.727244
C29	C	0.561153	-0.015868	0.220282
C30	C	1.061153	0.484132	0.720282
C31	C	0.530054	-0.010503	0.145328
C32	C	1.030054	0.489497	0.645328
C33	C	0.580480	-0.005634	0.077332
C34	C	1.080480	0.494366	0.577332
C35	C	0.661998	-0.006128	0.084296
C36	C	1.161998	0.493872	0.584296
C37	C	0.284406	-0.008763	0.120728
C38	C	0.784406	0.491237	0.620728
C39	C	0.202881	-0.008268	0.113769
C40	C	0.702881	0.491732	0.613769
C41	C	0.183561	-0.018503	0.256720
C42	C	0.683561	0.481497	0.756720
C43	C	0.265081	-0.018991	0.263676
C44	C	0.765081	0.481009	0.763676
C45	C	0.315499	-0.014126	0.195681
C46	C	0.815499	0.485874	0.695681
C47	C	0.446728	-0.010002	0.138209
C48	C	0.946728	0.489998	0.638209
C49	C	0.398823	-0.014633	0.202800
C50	C	0.898823	0.485367	0.702800
C51	C	0.963005	-0.268991	0.132662
C52	C	1.463005	0.231009	0.632662
C53	C	0.958586	-0.356477	0.136820
C54	C	1.458586	0.143523	0.636820
C55	C	0.902974	-0.403819	0.189108
C56	C	1.402974	0.096181	0.689108
C57	C	0.851773	-0.363671	0.237235
C58	C	1.351773	0.136329	0.737235
C59	C	0.856189	-0.276185	0.233072
C60	C	1.356189	0.223815	0.733072
C61	C	0.886966	-0.668148	0.204185
C62	C	1.386966	-0.168148	0.704185
C63	C	0.882555	-0.755639	0.208346
C64	C	1.382555	-0.255639	0.708346
C65	C	0.989367	-0.748439	0.107930
C66	C	1.489367	-0.248439	0.607930
C67	C	0.993782	-0.660953	0.103775
C68	C	1.493782	-0.160953	0.603775
C69	C	0.942578	-0.620812	0.151899
C70	C	1.442578	-0.120812	0.651899
C71	C	0.898458	-0.493245	0.193361
C72	C	1.398458	0.006755	0.693361
C73	C	0.947091	-0.531388	0.147641
C74	C	1.447091	-0.031388	0.647641
C75	C	1.065703	-0.012604	0.174354
C76	C	1.565703	0.487396	0.674354
C77	C	1.152462	-0.013139	0.181760
C78	C	1.652462	0.486861	0.681760
C79	C	0.929169	-0.001975	0.026190
C80	C	1.429169	0.498025	0.526190
C81	C	0.928044	0.004332	-0.061776
C82	C	1.428044	0.504332	0.438224
N83	N	0.933751	0.204218	0.160221
N84	N	1.433751	0.704218	0.660221
C85	C	0.923675	-0.068461	-0.099513
C86	C	1.423675	0.431539	0.400487
C87	C	0.922623	-0.062528	-0.182167
C88	C	1.422623	0.437472	0.317833
C89	C	0.925935	0.016201	-0.227081
C90	C	1.425935	0.516201	0.272919
C91	C	0.930307	0.089000	-0.189339
C92	C	1.430307	0.589000	0.310661
C93	C	0.931365	0.083065	-0.106687
C94	C	1.431365	0.583065	0.393313
C95	C	0.922940	0.037909	-0.476817
C96	C	1.422940	0.537909	0.023183
C97	C	0.921880	0.043839	-0.559474
C98	C	1.421880	0.543839	-0.059474
C99	C	0.914197	-0.107690	-0.552296
C100	C	1.414197	0.392310	-0.052296
C101	C	0.915250	-0.113617	-0.469642
C102	C	1.415250	0.386383	0.030358
C103	C	0.919626	-0.040818	-0.431907
C104	C	1.419626	0.459182	0.068093
C105	C	0.924858	0.022268	-0.311567
C106	C	1.424858	0.522268	0.188433
C107	C	0.920709	-0.046886	-0.347424
C108	C	1.420709	0.453114	0.152576
C109	C	0.916385	-0.022653	0.314824
C110	C	1.416385	0.477347	0.814824
C111	C	0.917510	-0.028955	0.402789
C112	C	1.417510	0.471045	0.902789
H113	H	0.667987	-0.020723	0.288280
H114	H	1.167987	0.479277	0.788280
H115	H	0.919068	-0.121804	-0.212888
H116	H	1.419068	0.378196	0.287112
Cl117	Cl	1.053731	-0.798907	0.047432
Cl118	Cl	1.553731	-0.298907	0.547432
Cl119	Cl	0.304171	-0.025729	0.357907
Cl120	Cl	0.804171	0.474271	0.857907
H121	H	0.845275	-0.635472	0.243371
H122	H	1.345275	-0.135472	0.743371
Cl123	Cl	0.541383	0.001104	-0.016896
Cl124	Cl	1.041383	0.501104	0.483104
Cl125	Cl	0.120174	-0.024621	0.342194
Cl126	Cl	0.620174	0.475379	0.842194
H127	H	0.177564	-0.003898	0.052730
H128	H	0.677564	0.496102	0.552730
H129	H	1.039065	-0.622409	0.061198
H130	H	1.539065	-0.122409	0.561198
Cl131	Cl	0.916549	-0.145855	-0.290959
Cl132	Cl	1.416549	0.354145	0.209041
H133	H	1.008293	-0.230450	0.090087
H134	H	1.508293	0.269550	0.590087
Cl135	Cl	0.347777	-0.002647	0.035246
Cl136	Cl	0.847777	0.497353	0.535246
Cl137	Cl	0.911065	-0.212594	-0.413182
Cl138	Cl	1.411065	0.287406	0.086818
Cl139	Cl	0.828548	-0.552765	0.259096
Cl140	Cl	1.328548	-0.052765	0.759096
H141	H	0.920964	-0.132570	-0.062948
H142	H	1.420964	0.367430	0.437052
Cl143	Cl	0.936862	0.174582	-0.059246
Cl144	Cl	1.436862	0.674582	0.440754
Cl145	Cl	0.725382	-0.000007	-0.001182
Cl146	Cl	1.225382	0.499993	0.498818
H147	H	0.837267	-0.794182	0.250928
H148	H	1.337267	-0.294182	0.750928
H149	H	0.933009	0.153102	-0.225916
H150	H	1.433009	0.653102	0.274084
Cl151	Cl	1.016998	-0.471871	0.081907
Cl152	Cl	1.516998	0.028129	0.581907
H153	H	0.424148	-0.019005	0.263828
H154	H	0.924148	0.480995	0.763828
H155	H	0.924570	0.107952	-0.596041
H156	H	1.424570	0.607952	-0.096041
H157	H	0.806489	-0.402222	0.279806
H158	H	1.306489	0.097778	0.779806
Cl159	Cl	0.497773	-0.021987	0.305760
Cl160	Cl	0.997773	0.478013	0.805760
H161	H	0.814500	-0.243502	0.272259
H162	H	1.314500	0.256498	0.772259
H163	H	0.927553	0.086369	-0.348145
H164	H	1.427553	0.586369	0.151855
Cl165	Cl	0.908698	-0.199202	-0.599739
Cl166	Cl	1.408698	0.300798	-0.099739
H167	H	1.000273	-0.389161	0.097632
H168	H	1.500273	0.110839	0.597632
Cl169	Cl	0.407625	-0.003255	0.043984
Cl170	Cl	0.907625	0.496745	0.543984
H171	H	0.926502	0.097188	-0.446103
H172	H	1.426502	0.597188	0.053897
