data_functionalizedCrystal
_audit_creation_method	'MofGen! by Chris Wilmer'
_symmetry_space_group_name_H-M	'P1'
_symmetry_Int_Tables_number	1
_symmetry_cell_setting	triclinic
loop_
_symmetry_equiv_pos_as_xyz
  x,y,z
_cell_length_a	19.188905
_cell_length_b	14.472311
_cell_length_c	19.188924
_cell_angle_alpha	90.001488
_cell_angle_beta	96.861740
_cell_angle_gamma	90.013148
loop_
_atom_site_label
_atom_site_type_symbol
_atom_site_fract_x
_atom_site_fract_y
_atom_site_fract_z
O1	O	0.926156	0.076997	-0.087076
O2	O	1.426156	0.576997	0.412924
O3	O	0.722842	0.076966	-0.098829
O4	O	1.222842	0.576966	0.401171
O5	O	0.830369	0.076972	0.008704
O6	O	1.330369	0.576972	0.508704
O7	O	0.818630	0.076992	-0.194609
O8	O	1.318630	0.576992	0.305391
O9	O	0.830355	-0.076710	0.008690
O10	O	1.330355	0.423290	0.508690
O11	O	0.722828	-0.076716	-0.098843
O12	O	1.222828	0.423284	0.401157
O13	O	0.926142	-0.076685	-0.087090
O14	O	1.426142	0.423315	0.412910
Cu15	Cu	0.824484	-0.090733	-0.092968
Cu16	Cu	1.324484	0.409267	0.407032
Cu17	Cu	0.824501	0.091014	-0.092951
Cu18	Cu	1.324501	0.591014	0.407049
O19	O	0.818615	-0.076690	-0.194623
O20	O	1.318615	0.423310	0.305377
C21	C	0.696824	0.000121	-0.098458
C22	C	1.196824	0.500121	0.401542
C23	C	0.619318	0.000109	-0.097324
C24	C	1.119318	0.500109	0.402676
N25	N	0.824477	-0.218563	-0.092979
N26	N	1.324477	0.281437	0.407021
C27	C	0.824489	-0.407064	-0.092964
C28	C	1.324489	0.092936	0.407036
C29	C	0.766944	-0.446297	-0.150481
C30	C	1.266944	0.053703	0.349519
C31	C	0.766748	-0.553385	-0.150326
C32	C	1.266748	-0.053385	0.349674
C33	C	0.824501	-0.592655	-0.092950
C34	C	1.324501	-0.092655	0.407050
C35	C	0.809111	-0.553775	-0.020059
C36	C	1.309111	-0.053775	0.479941
C37	C	0.808691	-0.446653	-0.020404
C38	C	1.308691	0.053347	0.479596
C39	C	0.897602	-0.446509	-0.107678
C40	C	1.397602	0.053491	0.392322
C41	C	0.897113	-0.553638	-0.109327
C42	C	1.397113	-0.053638	0.390673
C43	C	0.824509	-0.697543	-0.092937
C44	C	1.324509	-0.197543	0.407063
C45	C	0.824479	-0.302175	-0.092971
C46	C	1.324479	0.197825	0.407029
C47	C	0.582934	0.083883	-0.096772
C48	C	1.082934	0.583883	0.403228
C49	C	0.510111	0.083895	-0.095699
C50	C	1.010111	0.583895	0.404301
C51	C	0.473676	0.000127	-0.095164
C52	C	0.973676	0.500127	0.404836
C53	C	0.510068	-0.083659	-0.095720
C54	C	1.010068	0.416341	0.404280
C55	C	0.582889	-0.083668	-0.096800
C56	C	1.082889	0.416332	0.403200
N57	N	0.364651	-0.062217	-0.053741
N58	N	0.864651	0.437783	0.446259
N59	N	0.295474	-0.062203	-0.052714
N60	N	0.795474	0.437797	0.447286
C61	C	0.254269	0.000149	-0.091911
C62	C	0.754269	0.500149	0.408089
N63	N	0.284856	0.062500	-0.132167
N64	N	0.784856	0.562500	0.367833
N65	N	0.354040	0.062489	-0.133191
N66	N	0.854040	0.562489	0.366809
C67	C	0.394713	0.000127	-0.093993
C68	C	0.894713	0.500127	0.406007
C69	C	0.138922	0.083942	-0.090197
C70	C	0.638922	0.583942	0.409803
C71	C	0.066096	0.083949	-0.089128
C72	C	0.566096	0.583949	0.410872
C73	C	0.066056	-0.083606	-0.089142
C74	C	0.566056	0.416394	0.410858
C75	C	0.138879	-0.083612	-0.090218
C76	C	0.638879	0.416388	0.409782
C77	C	0.175308	0.000165	-0.090742
C78	C	0.675308	0.500165	0.409258
C79	C	0.952160	0.000162	-0.087461
C80	C	1.452160	0.500162	0.412539
C81	C	1.029666	0.000181	-0.088594
C82	C	1.529666	0.500181	0.411406
C83	C	0.829982	0.000130	0.034708
C84	C	1.329982	0.500130	0.534708
C85	C	0.828844	0.000127	0.112213
C86	C	1.328844	0.500127	0.612213
N87	N	0.824513	0.218845	-0.092934
N88	N	1.324513	0.718845	0.407066
C89	C	0.819002	0.000154	-0.220627
C90	C	1.319002	0.500154	0.279373
C91	C	0.820141	0.000162	-0.298132
C92	C	1.320141	0.500162	0.201868
C93	C	0.828320	0.083899	0.148619
C94	C	1.328320	0.583899	0.648619
C95	C	0.827240	0.083906	0.221442
C96	C	1.327240	0.583906	0.721442
C97	C	0.826698	0.000136	0.257857
C98	C	1.326698	0.500136	0.757857
C99	C	0.827218	-0.083647	0.221441
C100	C	1.327218	0.416353	0.721441
C101	C	0.828291	-0.083651	0.148619
C102	C	1.328291	0.416349	0.648619
N103	N	0.864740	-0.062206	0.377518
N104	N	1.364740	0.437794	0.877518
N105	N	0.863723	-0.062196	0.446696
N106	N	1.363723	0.437804	0.946696
C107	C	0.823464	0.000145	0.477266
C108	C	1.323464	0.500145	0.977266
N109	N	0.784270	0.062489	0.436045
N110	N	1.284270	0.562489	0.936045
N111	N	0.785291	0.062482	0.366861
N112	N	1.285291	0.562482	0.866861
C113	C	0.825534	0.000132	0.336821
C114	C	1.325534	0.500132	0.836821
C115	C	0.821768	0.083930	0.592635
C116	C	1.321768	0.583930	1.092635
C117	C	0.820684	0.083933	0.665458
C118	C	1.320684	0.583933	1.165458
C119	C	0.820669	-0.083622	0.665457
C120	C	1.320669	0.416378	1.165457
C121	C	0.821746	-0.083623	0.592634
C122	C	1.321746	0.416377	1.092634
C123	C	0.822299	0.000155	0.556228
C124	C	1.322299	0.500155	1.056228
H125	H	0.775838	-0.579674	-0.204506
H126	H	1.275838	-0.079674	0.295494
F127	F	0.917092	-0.411196	-0.175676
F128	F	1.417092	0.088804	0.324324
H129	H	0.820254	0.152154	0.695099
H130	H	1.320254	0.652154	1.195099
H131	H	0.756426	-0.580636	-0.006777
H132	H	1.256426	-0.080636	0.493223
F133	F	0.695825	-0.586921	-0.138024
F134	F	1.195825	-0.086921	0.361976
H135	H	0.908796	-0.579035	-0.162954
H136	H	1.408796	-0.079035	0.337046
H137	H	0.755387	-0.421695	-0.007446
H138	H	1.255387	0.078305	0.492554
H139	H	0.822178	-0.151840	0.562993
H140	H	1.322178	0.348160	1.062993
F141	F	0.828847	-0.172817	0.109871
F142	F	1.328847	0.327183	0.609871
H143	H	0.612591	0.152101	-0.097198
H144	H	1.112591	0.652101	0.402802
H145	H	0.036390	-0.151812	-0.088711
H146	H	0.536390	0.348188	0.411289
H147	H	0.941908	-0.580368	-0.070150
H148	H	1.441908	-0.080368	0.429850
F149	F	0.820088	-0.172778	0.704208
F150	F	1.320088	0.327222	1.204208
H151	H	0.775874	-0.420540	-0.204847
H152	H	1.275874	0.079460	0.295153
F153	F	0.861424	-0.412724	0.037224
F154	F	1.361424	0.087276	0.537224
H155	H	0.712983	-0.419406	-0.141209
H156	H	1.212983	0.080594	0.358791
H157	H	0.940419	-0.421129	-0.065735
H158	H	1.440419	0.078871	0.434265
F159	F	0.822353	0.173093	0.553886
F160	F	1.322353	0.673093	1.053886
H161	H	0.612513	-0.151889	-0.097251
H162	H	1.112513	0.348111	0.402749
F163	F	0.177694	0.173102	-0.090759
F164	F	0.677694	0.673102	0.409241
H165	H	0.480398	-0.151863	-0.095287
H166	H	0.980398	0.348137	0.404713
H167	H	0.480481	0.152116	-0.095250
H168	H	0.980481	0.652116	0.404750
F169	F	0.027373	0.173119	-0.088546
F170	F	0.527373	0.673119	0.411454
H171	H	0.849936	-0.579208	0.023779
H172	H	1.349936	-0.079208	0.523779
F173	F	0.177603	-0.172777	-0.090802
F174	F	0.677603	0.327223	0.409198
F175	F	0.828905	0.173065	0.109877
F176	F	1.328905	0.673065	0.609877
H177	H	0.826809	0.152126	0.251090
H178	H	1.326809	0.652126	0.751090
H179	H	0.826774	-0.151853	0.251095
H180	H	1.326774	0.348147	0.751095
