data_functionalizedCrystal
_audit_creation_method	'MofGen! by Chris Wilmer'
_symmetry_space_group_name_H-M	'P1'
_symmetry_Int_Tables_number	1
_symmetry_cell_setting	triclinic
loop_
_symmetry_equiv_pos_as_xyz
  x,y,z
_cell_length_a	6.817900
_cell_length_b	12.840964
_cell_length_c	11.102295
_cell_angle_alpha	82.599288
_cell_angle_beta	70.616374
_cell_angle_gamma	88.344333
loop_
_atom_site_label
_atom_site_type_symbol
_atom_site_fract_x
_atom_site_fract_y
_atom_site_fract_z
V1	V	-3.926365	0.283535	0.178809
O2	O	-3.887433	0.320310	-0.005539
O3	O	-3.905841	0.241037	0.351612
O4	O	-3.821736	0.425699	0.177399
O5	O	-3.972121	0.134369	0.169880
V6	V	-4.413667	0.270621	0.156601
O7	O	-4.179334	0.311864	0.227526
O8	O	-4.610895	0.242292	0.107885
O9	O	-4.210985	0.313120	-0.016201
O10	O	-4.569996	0.233847	0.340949
O11	O	-4.485308	0.419787	0.165530
O12	O	-4.295090	0.128457	0.158011
C13	C	-3.759442	0.226098	0.393696
C14	C	-3.823573	0.192299	0.534972
C15	C	-4.034788	0.180116	0.607845
C16	C	-4.095075	0.148372	0.740594
C17	C	-3.944144	0.128805	0.800466
C18	C	-3.732912	0.140993	0.727584
C19	C	-3.672628	0.172743	0.594839
C20	C	-3.648026	0.579781	0.171483
C21	C	-3.652159	0.461649	0.171480
C22	C	-4.127998	0.092498	0.163944
C23	C	-4.111004	-0.025635	0.163953
V24	V	-3.909310	0.769695	0.178829
O25	O	-3.944454	0.922984	0.169902
O26	O	-3.814820	0.622839	0.177415
O27	O	-3.887248	0.770803	0.351630
O28	O	-3.871525	0.773996	-0.005518
V29	V	-4.394669	0.812319	0.156629
O30	O	-4.164216	0.742808	0.227549
O31	O	-4.589167	0.861892	0.107917
O32	O	-4.266344	0.947927	0.158039
O33	O	-4.476715	0.664945	0.165558
O34	O	-4.549644	0.813934	0.340978
O35	O	-4.193917	0.799963	-0.016175
C36	C	-4.020727	0.328054	-0.058278
C37	C	-3.935832	0.361860	-0.199554
C38	C	-3.740399	0.768526	0.393704
C39	C	-3.803196	0.772574	0.534979
C40	C	-4.004697	0.785274	-0.058262
C41	C	-3.921176	0.780189	-0.199540
C42	C	-4.013766	0.778400	0.607875
C43	C	-4.072757	0.782212	0.740616
C44	C	-3.710587	0.774366	0.727554
C45	C	-3.651598	0.770562	0.594814
C46	C	-4.069604	0.374045	-0.272426
C47	C	-3.989859	0.405794	-0.405174
C48	C	-3.776343	0.425363	-0.465045
C49	C	-3.642562	0.413173	-0.392164
C50	C	-3.722306	0.381418	-0.259420
H51	H	-3.610039	0.125057	0.776351
H52	H	-3.468710	0.429110	-0.440932
Br53	Br	-3.385961	0.189265	0.495954
Br54	Br	-3.504864	0.771631	0.808767
Br55	Br	-3.540722	0.364886	-0.160538
H56	H	-4.243467	0.358117	-0.223697
Br57	Br	-3.365801	0.762666	0.495872
Br58	Br	-4.381752	0.131836	0.839477
H59	H	-4.098821	0.415716	-0.464496
H60	H	-3.993259	0.102953	0.908556
H61	H	-3.711437	0.451219	-0.573135
H62	H	-4.157711	0.196037	0.559115
H63	H	-4.137210	0.780039	0.559162
H64	H	-4.244219	0.786957	0.799962
