data_functionalizedCrystal
_audit_creation_method	'MofGen! by Chris Wilmer'
_symmetry_space_group_name_H-M	'P1'
_symmetry_Int_Tables_number	1
_symmetry_cell_setting	triclinic
loop_
_symmetry_equiv_pos_as_xyz
  x,y,z
_cell_length_a	12.645331
_cell_length_b	25.639240
_cell_length_c	12.645324
_cell_angle_alpha	89.954155
_cell_angle_beta	89.984958
_cell_angle_gamma	90.031994
loop_
_atom_site_label
_atom_site_type_symbol
_atom_site_fract_x
_atom_site_fract_y
_atom_site_fract_z
Zn1	Zn	1.620613	-0.208122	-0.599146
Zn2	Zn	1.620450	-0.295572	-0.421842
Zn3	Zn	1.443330	-0.208151	-0.421911
Zn4	Zn	1.443263	-0.295527	-0.599079
O5	O	1.531914	-0.251843	-0.510494
O6	O	1.768939	-0.219729	-0.575625
O7	O	1.596915	-0.284005	-0.273504
O8	O	1.466943	-0.134982	-0.445479
O9	O	1.768819	-0.283978	-0.445360
O10	O	1.597192	-0.134961	-0.575692
O11	O	1.466785	-0.219778	-0.273555
O12	O	1.294974	-0.219735	-0.445414
O13	O	1.466829	-0.283903	-0.747435
O14	O	1.294924	-0.283930	-0.575578
O15	O	1.597127	-0.219686	-0.747484
O16	O	1.596850	-0.368731	-0.445295
O17	O	1.466671	-0.368699	-0.575511
C18	C	1.256484	-0.251831	-0.510497
C19	C	1.138654	-0.251839	-0.510523
C20	C	0.971094	-0.292445	-0.591982
C21	C	1.093655	-0.292314	-0.592323
C22	C	1.094205	-0.196769	-0.541072
C23	C	0.971607	-0.197016	-0.541646
C24	C	0.971402	-0.265859	-0.398257
C25	C	1.094008	-0.267063	-0.398862
C26	C	1.531764	-0.387686	-0.510411
C27	C	1.531797	-0.445800	-0.510411
C28	C	1.599768	-0.806113	-0.578419
C29	C	1.599800	-0.860718	-0.578440
O30	O	1.657413	-0.888912	-0.636177
N31	N	1.532061	-0.888082	-0.510597
C32	C	1.464279	-0.860839	-0.442735
O33	O	1.406664	-0.889129	-0.385031
C34	C	1.464243	-0.806236	-0.442720
C35	C	1.531994	-0.778874	-0.510560
C36	C	1.667513	-0.778752	-0.646254
C37	C	1.667482	-0.724151	-0.646231
C38	C	1.599708	-0.696912	-0.578372
C39	C	1.531964	-0.724274	-0.510537
C40	C	1.396457	-0.778994	-0.374864
C41	C	1.396426	-0.724387	-0.374855
C42	C	1.464177	-0.697026	-0.442695
C43	C	1.464159	-0.642435	-0.442655
N44	N	1.531898	-0.615070	-0.510498
C45	C	1.599672	-0.642309	-0.578357
C46	C	1.464358	-0.975510	-0.442774
C47	C	1.464398	-1.030112	-0.442783
C48	C	1.599918	-1.029987	-0.578490
C49	C	1.599882	-0.975383	-0.578475
C50	C	1.532097	-0.948146	-0.510617
C51	C	1.599604	-0.527644	-0.578302
C52	C	1.599571	-0.473039	-0.578270
C53	C	1.464048	-0.473169	-0.442567
C54	C	1.464085	-0.527769	-0.442595
C55	C	1.531867	-0.555006	-0.510471
O56	O	1.406572	-0.614205	-0.384950
O57	O	1.657267	-0.614013	-0.636060
C58	C	1.808419	-0.251855	-0.510492
C59	C	1.926249	-0.251861	-0.510491
C60	C	1.531989	-0.251786	-0.787000
C61	C	1.532020	-0.251762	-0.904830
C62	C	1.532093	-0.115470	-0.510601
C63	C	1.532169	-0.057356	-0.510646
C64	C	1.614009	-0.211355	-0.949743
C65	C	1.614361	-0.211461	-1.072303
C66	C	1.561947	-0.306888	-1.072680
C67	C	1.562511	-0.306668	-0.950082
C68	C	1.419963	-0.237497	-0.950021
C69	C	1.420595	-0.236268	-1.072629
C70	C	1.531900	-0.251862	-0.235065
C71	C	1.532074	-0.251738	-0.117235
H72	H	1.124640	-0.239648	-0.334885
H73	H	1.655050	-0.953109	-0.633716
H74	H	1.408925	-0.550048	-0.387346
Br75	Br	1.374473	-0.171620	-0.898552
H76	H	0.941581	-0.333418	-0.573044
Br77	Br	1.372360	-0.938550	-0.350667
H78	H	1.696572	-0.220697	-0.918933
Br79	Br	1.752776	-0.227226	-1.121193
H80	H	1.123355	-0.165708	-0.483574
Br81	Br	1.372075	-0.436191	-0.350476
H82	H	0.942402	-0.236297	-0.337539
Br83	Br	1.142422	-0.334611	-0.360465
H84	H	1.654746	-0.450762	-0.633513
H85	H	0.943037	-0.185144	-0.623695
H86	H	1.341287	-0.801263	-0.319621
Br87	Br	1.582854	-0.143361	-1.122527
Br88	Br	1.318152	-0.286538	-0.901584
H89	H	1.654791	-0.549813	-0.633581
Br90	Br	1.583270	-0.142999	-0.900697
H91	H	1.644412	-0.318733	-0.921481
H92	H	1.722648	-0.701876	-0.701475
Br93	Br	0.919754	-0.277218	-0.729780
H94	H	0.941943	-0.165693	-0.485015
Br95	Br	1.142588	-0.276874	-0.730931
Br96	Br	1.691900	-1.066964	-0.670584
Br97	Br	1.304424	-0.687425	-0.282759
Br98	Br	1.467274	-0.358572	-0.900545
Br99	Br	1.759499	-0.815708	-0.738367
H100	H	1.504074	-0.337810	-1.101778
H101	H	1.124935	-0.184680	-0.622232
H102	H	1.642948	-0.319162	-1.103404
Br103	Br	1.383026	-0.168623	-1.121175
H104	H	1.356289	-0.263531	-1.103212
H105	H	1.123705	-0.333152	-0.573174
H106	H	0.940460	-0.305331	-0.370495
H107	H	1.409240	-1.052386	-0.387529
