data_functionalizedCrystal
_audit_creation_method	'MofGen! by Chris Wilmer'
_symmetry_space_group_name_H-M	'P1'
_symmetry_Int_Tables_number	1
_symmetry_cell_setting	triclinic
loop_
_symmetry_equiv_pos_as_xyz
  x,y,z
_cell_length_a	12.759394
_cell_length_b	13.033293
_cell_length_c	13.032268
_cell_angle_alpha	89.079182
_cell_angle_beta	97.149444
_cell_angle_gamma	97.184672
loop_
_atom_site_label
_atom_site_type_symbol
_atom_site_fract_x
_atom_site_fract_y
_atom_site_fract_z
Zn1	Zn	-0.326863	1.498477	-0.781488
Zn2	Zn	-0.477844	1.520227	-0.609518
Zn3	Zn	-0.321315	1.348337	-0.587664
Zn4	Zn	-0.521641	1.326480	-0.759559
O5	O	-0.411916	1.423380	-0.684557
O6	O	-0.330884	1.645280	-0.777000
O7	O	-0.436429	1.515675	-0.462710
O8	O	-0.175028	1.368299	-0.613407
O9	O	-0.441809	1.661260	-0.650654
O10	O	-0.179104	1.478606	-0.755809
O11	O	-0.321428	1.389389	-0.446654
O12	O	-0.363896	1.201520	-0.592142
O13	O	-0.516454	1.331046	-0.906376
O14	O	-0.511074	1.185461	-0.718433
O15	O	-0.373352	1.457412	-0.922488
O16	O	-0.630676	1.494481	-0.629389
O17	O	-0.662854	1.352136	-0.739624
C18	C	-0.441637	1.156174	-0.650537
C19	C	-0.454380	1.041859	-0.636007
C20	C	-0.405291	0.982975	-0.692140
C21	C	-0.418461	0.864824	-0.677124
C22	C	-0.684887	1.423322	-0.684524
C23	C	-0.801659	1.423386	-0.684557
C24	C	-0.768103	1.571697	-0.569881
C25	C	-0.806184	1.645877	-0.512558
C26	C	-0.915903	1.645934	-0.512594
C27	C	-0.987545	1.571804	-0.569961
C28	C	-0.949463	1.497624	-0.627283
C29	C	-0.839740	1.497573	-0.627239
C30	C	-0.983020	1.349320	-0.741963
C31	C	-0.873301	1.349257	-0.741923
C32	C	-1.054662	1.275190	-0.799330
C33	C	-1.016581	1.201003	-0.856648
C34	C	-0.906854	1.200949	-0.856609
C35	C	-0.835220	1.275076	-0.799246
C36	C	-0.137879	1.423464	-0.684616
C37	C	-0.021101	1.423500	-0.684641
C38	C	-0.450407	1.389364	-0.952789
C39	C	-0.466810	1.374869	-1.067094
C40	C	-0.382080	1.691630	-0.718711
C41	C	-0.369365	1.805942	-0.733265
C42	C	-0.403319	1.430930	-1.126026
C43	C	-0.420271	1.415949	-1.244166
C44	C	-0.373491	1.457323	-0.417376
C45	C	-0.356771	1.472018	-0.303097
H46	H	-0.506154	1.004802	-0.576832
H47	H	-0.533711	1.315776	-1.104102
O48	O	-0.736444	1.717782	-0.456854
C49	C	-0.552544	1.783466	-0.406014
C50	C	-0.631399	1.701960	-0.469121
H51	H	-0.467598	1.770717	-0.415927
H52	H	-0.564193	1.775993	-0.320771
H53	H	-0.567474	1.864085	-0.434683
H54	H	-0.616517	1.621306	-0.440542
H55	H	-0.619732	1.709524	-0.554354
O56	O	-0.952953	1.718087	-0.457077
C57	C	-1.059353	1.858709	-0.461073
C58	C	-1.017450	1.777060	-0.524069
H59	H	-1.111525	1.906396	-0.515207
H60	H	-0.989346	1.911756	-0.420099
H61	H	-1.108269	1.818364	-0.401254
H62	H	-0.968550	1.817318	-0.583941
H63	H	-1.087504	1.724018	-0.564971
H64	H	-1.076882	1.571865	-0.569995
O65	O	-0.870044	1.128791	-0.912319
C66	C	-0.914924	0.981745	-1.026139
C67	C	-0.956749	1.063389	-0.963071
H68	H	-0.985003	0.928860	-1.067205
H69	H	-0.862869	0.933887	-0.972074
H70	H	-0.865924	1.022103	-1.085889
H71	H	-1.005794	1.023116	-0.903317
H72	H	-1.008746	1.111242	-1.017200
H73	H	-0.487176	1.356852	-1.281169
O74	O	-0.323417	1.501434	-1.082049
C75	C	-0.177236	1.630600	-1.109793
C76	C	-0.267670	1.550771	-1.159725
H77	H	-0.132153	1.670526	-1.172572
H78	H	-0.120314	1.589776	-1.053536
H79	H	-0.212345	1.690650	-1.066301
H80	H	-0.232655	1.490700	-1.203271
H81	H	-0.324578	1.591667	-1.215926
H82	H	-1.144000	1.275245	-0.799360
H83	H	-0.678762	1.571646	-0.569831
H84	H	-1.074919	1.140657	-0.903357
H85	H	-0.353510	1.020033	-0.751310
H86	H	-0.289853	1.531103	-1.266094
O87	O	-0.307668	0.850297	-0.803854
C88	C	-0.238203	1.008509	-0.883106
C89	C	-0.308123	0.958410	-0.803148
H90	H	-0.238530	1.095927	-0.882547
H91	H	-0.271007	0.977025	-0.963374
H92	H	-0.153238	0.989660	-0.862540
H93	H	-0.393103	0.977239	-0.823618
H94	H	-0.275231	0.989896	-0.722902
H95	H	-0.470239	0.827771	-0.617945
H96	H	-0.745879	1.275033	-0.799201
