data_functionalizedCrystal
_audit_creation_method	'MofGen! by Chris Wilmer'
_symmetry_space_group_name_H-M	'P1'
_symmetry_Int_Tables_number	1
_symmetry_cell_setting	triclinic
loop_
_symmetry_equiv_pos_as_xyz
  x,y,z
_cell_length_a	27.354012
_cell_length_b	27.353283
_cell_length_c	27.349551
_cell_angle_alpha	60.005606
_cell_angle_beta	60.011434
_cell_angle_gamma	59.993282
loop_
_atom_site_label
_atom_site_type_symbol
_atom_site_fract_x
_atom_site_fract_y
_atom_site_fract_z
O1	O	0.067635	-0.714267	0.597330
O2	O	0.025429	-0.556105	0.481282
O3	O	0.125575	-0.656186	0.481214
O4	O	-0.032512	-0.614186	0.597397
O5	O	0.158797	-0.622968	0.514367
O6	O	0.058650	-0.522887	0.514434
O7	O	0.100856	-0.681048	0.630482
Zn8	Zn	0.085028	-0.596693	0.577722
Zn9	Zn	0.041257	-0.640460	0.534042
O10	O	0.000709	-0.580967	0.630549
N11	N	0.114901	-0.566828	0.607534
N12	N	0.011389	-0.670331	0.504229
C13	C	0.179404	-0.338196	0.672015
C14	C	0.179501	-0.502386	0.836160
C15	C	0.179415	-0.502363	0.671996
C16	C	0.343611	-0.502373	0.671960
C17	C	0.197478	-0.392371	0.690061
C18	C	0.197534	-0.484321	0.781984
C19	C	0.289434	-0.484312	0.690032
C20	C	0.197486	-0.484308	0.690051
C21	C	0.156398	-0.269238	0.649045
C22	C	0.156418	-0.525342	0.649015
C23	C	0.220484	-0.461329	0.713032
C24	C	0.443889	-0.485097	0.619172
C25	C	0.506571	-0.505993	0.598266
C26	C	0.506589	-0.607412	0.636940
C27	C	0.443909	-0.586515	0.657848
C28	C	0.171510	-0.237888	0.587422
C29	C	0.150593	-0.175201	0.566543
C30	C	0.099458	-0.175218	0.668913
C31	C	0.120375	-0.237905	0.689792
C32	C	0.094789	-0.510201	0.664176
C33	C	0.073888	-0.531091	0.643278
C34	C	0.176239	-0.582263	0.592072
C35	C	0.197142	-0.561373	0.612963
C36	C	0.094933	-0.510244	0.936476
C37	C	0.074073	-0.531151	0.999161
C38	C	0.176453	-0.582335	0.999126
C39	C	0.197312	-0.561429	0.936439
C40	C	0.156551	-0.525382	0.905116
C41	C	0.412561	-0.525357	0.648961
C42	C	-0.098513	-0.688235	0.485867
C43	C	-0.006461	-0.688368	0.394066
C44	C	-0.006645	-0.780264	0.486040
C45	C	-0.006630	-0.688361	0.486097
C46	C	-0.029562	-0.711308	0.463018
N47	N	0.537030	-0.566846	0.607436
O48	O	0.741877	-0.576849	0.459995
O49	O	0.742050	-0.693241	0.618010
O50	O	0.741986	-0.692977	0.517791
O51	O	0.741941	-0.577114	0.560214
O52	O	0.642405	-0.659839	0.551046
O53	O	0.642469	-0.660104	0.651265
O54	O	0.642296	-0.543712	0.493251
Zn55	Zn	0.626572	-0.596646	0.577538
Zn56	Zn	0.757774	-0.640307	0.533723
O57	O	0.642360	-0.543976	0.593469
N58	N	0.847316	-0.670107	0.503818
N59	N	0.114877	-0.144758	0.607577
O60	O	-0.032498	0.060193	0.597441
O61	O	0.125523	0.060193	0.481067
O62	O	0.025289	0.060179	0.481345
O63	O	0.067736	0.060207	0.597163
O64	O	0.058511	-0.039410	0.514543
O65	O	0.158745	-0.039397	0.514265
O66	O	0.000724	-0.039396	0.630638
Zn67	Zn	0.085009	-0.055208	0.577722
Zn68	Zn	0.041238	0.076005	0.533983
O69	O	0.100958	-0.039382	0.630360
N70	N	0.011362	0.165555	0.504130
N71	N	0.115121	-0.566884	1.029592
O72	O	0.104990	-0.714248	1.234528
O73	O	-0.011371	-0.556177	1.234539
O74	O	-0.011103	-0.656395	1.234497
O75	O	0.104722	-0.614030	1.234569
O76	O	0.022090	-0.623190	1.134913
O77	O	0.021822	-0.522972	1.134954
O78	O	0.138182	-0.681044	1.134943
Zn79	Zn	0.085272	-0.596736	1.119137
Zn80	Zn	0.041539	-0.640484	1.250344
O81	O	0.137914	-0.580826	1.134984
N82	N	0.011689	-0.670343	1.339890
C83	C	0.038085	-0.519567	0.481870
C84	C	0.162104	-0.643505	0.481786
C85	C	0.088200	-0.717587	0.629893
C86	C	-0.035819	-0.593649	0.629977
C87	C	0.692280	-0.692701	0.654545
C88	C	0.692203	-0.692374	0.530435
C89	C	0.692063	-0.544251	0.456717
C90	C	0.692144	-0.544580	0.580825
C91	C	0.162000	0.010521	0.481600
C92	C	0.037914	0.010381	0.481984
C93	C	-0.035795	0.010399	0.630065
C94	C	0.088333	0.010415	0.629722
C95	C	-0.010799	-0.519660	1.184747
C96	C	-0.010461	-0.643761	1.184677
C97	C	0.137610	-0.717561	1.184734
C98	C	0.137280	-0.593452	1.184783
H99	H	0.061737	-0.480889	0.910978
C100	C	0.025644	0.010371	0.432828
C101	C	0.074786	0.010367	0.371409
C102	C	0.062516	0.010357	0.322253
C103	C	0.001105	0.010351	0.334515
C104	C	-0.048041	0.010356	0.395936
C105	C	-0.035771	0.010366	0.445092
H106	H	0.120250	0.010371	0.362330
H107	H	0.098897	0.010354	0.276785
H108	H	-0.007978	0.010344	0.298126
H109	H	-0.093505	0.010351	0.405015
H110	H	-0.072152	0.010369	0.490561
H111	H	0.173667	-0.584388	1.184797
H112	H	0.692005	-0.507708	0.411338
C113	C	-0.097102	0.010402	0.679425
C114	C	-0.146459	0.010394	0.667469
C115	C	-0.207766	0.010396	0.716829
C116	C	-0.219717	0.010407	0.778144
C117	C	-0.170358	0.010415	0.790102
C118	C	-0.109051	0.010413	0.740742
H119	H	-0.137614	0.010386	0.622078
H120	H	-0.244305	0.010390	0.707976
H121	H	-0.265100	0.010409	0.814683
H122	H	-0.179204	0.010423	0.835493
H123	H	-0.072513	0.010419	0.749595
H124	H	0.029071	-0.474132	0.445424
H125	H	0.097420	0.010424	0.666105
H126	H	0.692134	-0.508185	0.589902
C127	C	0.692224	-0.741548	0.518176
C128	C	0.640554	-0.767349	0.556951
C129	C	0.640576	-0.816523	0.544691
C130	C	0.692267	-0.839896	0.493656
C131	C	0.743941	-0.814095	0.454877
C132	C	0.743919	-0.764920	0.467137
H133	H	0.602286	-0.750047	0.594733
H134	H	0.602323	-0.835623	0.573398
H135	H	0.692283	-0.876298	0.484580
H136	H	0.782209	-0.831396	0.417095
H137	H	0.782172	-0.745821	0.438430
C138	C	-0.097159	-0.581560	0.679268
C139	C	-0.119889	-0.530610	0.702769
C140	C	-0.181229	-0.518521	0.752061
C141	C	-0.219839	-0.557382	0.777851
C142	C	-0.197109	-0.608336	0.754350
C143	C	-0.135769	-0.620425	0.705059
H144	H	-0.091308	-0.501840	0.683678
H145	H	-0.198055	-0.480802	0.769457
H146	H	-0.265246	-0.548433	0.814339
H147	H	-0.225691	-0.637106	0.773441
H148	H	-0.118944	-0.658144	0.687662
C149	C	0.223180	0.010898	0.432114
C150	C	0.272473	0.011096	0.444007
C151	C	0.333653	0.011473	0.394521
C152	C	0.345539	0.011652	0.333143
C153	C	0.296245	0.011454	0.321248
C154	C	0.235065	0.011077	0.370734
H155	H	0.263675	0.010964	0.489445
H156	H	0.370144	0.011620	0.403327
H157	H	0.390828	0.011932	0.296511
H158	H	0.305043	0.011587	0.275810
H159	H	0.198574	0.010930	0.361928
H160	H	0.692323	-0.729239	0.699929
C161	C	-0.060154	-0.458331	1.184751
C162	C	-0.048194	-0.408991	1.184777
C163	C	-0.097549	-0.347662	1.184780
C164	C	-0.158865	-0.335674	1.184757
C165	C	-0.170828	-0.385016	1.184731
C166	C	-0.121473	-0.446345	1.184727
H167	H	-0.002802	-0.417863	1.184794
H168	H	-0.088693	-0.311136	1.184800
H169	H	-0.195401	-0.290275	1.184759
H170	H	-0.216220	-0.376143	1.184713
H171	H	-0.130329	-0.482871	1.184708
C172	C	-0.059599	-0.655977	1.184589
C173	C	-0.047333	-0.717376	1.184540
C174	C	-0.096472	-0.729592	1.184452
C175	C	-0.157877	-0.680408	1.184414
C176	C	-0.170146	-0.619005	1.184463
C177	C	-0.121007	-0.606789	1.184551
H178	H	-0.001875	-0.753788	1.184568
H179	H	-0.087389	-0.775047	1.184415
H180	H	-0.194252	-0.689451	1.184349
H181	H	-0.215604	-0.582592	1.184435
H182	H	-0.130090	-0.561334	1.184588
H183	H	0.097215	-0.763020	0.666340
C184	C	0.186966	-0.778889	1.184731
C185	C	0.176088	-0.836135	1.236429
C186	C	0.225444	-0.897463	1.236426
C187	C	0.285676	-0.901547	1.184726
C188	C	0.296556	-0.844300	1.133024
C189	C	0.247201	-0.782971	1.133027
H190	H	0.131498	-0.833113	1.274705
H191	H	0.217389	-0.939841	1.274700
H192	H	0.322212	-0.946946	1.184724
H193	H	0.341146	-0.847321	1.094749
H194	H	0.255255	-0.740593	1.094754
C195	C	0.006290	-0.514487	1.033651
C196	C	-0.016662	-0.537480	1.102601
C197	C	-0.084445	-0.520818	1.137092
C198	C	-0.129276	-0.481164	1.102632
C199	C	-0.106325	-0.458168	1.033679
C200	C	-0.038541	-0.474830	0.999188
H201	H	0.016525	-0.566837	1.128114
H202	H	-0.101435	-0.537841	1.188136
H203	H	-0.179453	-0.468830	1.128164
H204	H	-0.139512	-0.428811	1.008166
H205	H	-0.021551	-0.457807	0.948144
C206	C	0.221291	-0.621974	1.033582
C207	C	0.289070	-0.638622	0.999088
C208	C	0.333907	-0.678264	1.033544
C209	C	0.310965	-0.701259	1.102494
C210	C	0.243183	-0.684612	1.136991
C211	C	0.198346	-0.644970	1.102535
H212	H	0.306057	-0.621599	0.948043
H213	H	0.384085	-0.690587	1.008006
H214	H	0.344156	-0.730605	1.128000
H215	H	0.226196	-0.701635	1.188036
H216	H	0.148168	-0.632647	1.128073
H217	H	0.247489	-0.573760	0.910909
H218	H	0.061625	-0.480862	0.693528
H219	H	0.209407	-0.611608	0.562721
C220	C	0.223442	-0.655595	0.432494
C221	C	0.235489	-0.606328	0.371128
C222	C	0.296827	-0.618418	0.321835
C223	C	0.346119	-0.679776	0.333908
C224	C	0.334074	-0.729047	0.395277
C225	C	0.272735	-0.716957	0.444569
H226	H	0.198999	-0.560903	0.362188
H227	H	0.305743	-0.581944	0.276406
H228	H	0.391525	-0.688726	0.297419
H229	H	0.370564	-0.774472	0.404216
H230	H	0.263819	-0.753431	0.489998
C231	C	0.264935	-0.578028	0.596290
C232	C	0.309731	-0.617662	0.556635
C233	C	0.377522	-0.634318	0.539963
C234	C	0.400518	-0.611341	0.562945
C235	C	0.355721	-0.571705	0.602602
C236	C	0.287929	-0.555048	0.619274
H237	H	0.292709	-0.634673	0.539621
H238	H	0.410684	-0.663660	0.510607
H239	H	0.450701	-0.623671	0.550603
H240	H	0.372743	-0.554693	0.619617
H241	H	0.254768	-0.525707	0.648631
H242	H	0.023705	-0.518748	0.655609
H243	H	0.418403	-0.619300	0.682106
H244	H	0.532080	-0.473208	0.574011
C245	C	0.541073	-0.674685	0.646712
C246	C	0.584191	-0.709616	0.682792
C247	C	0.618678	-0.776890	0.692563
C248	C	0.610047	-0.809233	0.666254
C249	C	0.566927	-0.774303	0.630171
C250	C	0.532440	-0.707029	0.620400
H251	H	0.590583	-0.685674	0.702270
H252	H	0.650599	-0.802748	0.719274
H253	H	0.635576	-0.859034	0.673487
H254	H	0.560536	-0.798245	0.610694
H255	H	0.500520	-0.681171	0.593689
C256	C	0.409405	-0.417821	0.609400
C257	C	0.443870	-0.373539	0.576634
C258	C	0.409388	-0.306264	0.566859
C259	C	0.340441	-0.283271	0.589849
C260	C	0.305972	-0.327554	0.622617
C261	C	0.340453	-0.394829	0.632393
H262	H	0.494912	-0.390559	0.559613
H263	H	0.434905	-0.273482	0.542601
H264	H	0.314915	-0.233469	0.582613
H265	H	0.254929	-0.310534	0.639638
H266	H	0.314937	-0.427611	0.656650
H267	H	0.200842	-0.263395	0.554238
H268	H	0.070133	-0.149706	0.702094
C269	C	0.167213	-0.140711	0.498754
C270	C	0.144205	-0.071758	0.475785
C271	C	0.160824	-0.037270	0.407996
C272	C	0.200451	-0.071736	0.363176
C273	C	0.223461	-0.140693	0.386144
C274	C	0.206843	-0.175180	0.453933
H275	H	0.114869	-0.046241	0.508964
H276	H	0.143790	0.013777	0.390994
H277	H	0.212753	-0.046206	0.312995
H278	H	0.252798	-0.166209	0.352965
H279	H	0.223877	-0.226227	0.470936
C280	C	0.103750	-0.272389	0.757578
C281	C	0.064123	-0.237920	0.802396
C282	C	0.047495	-0.272405	0.870185
C283	C	0.070496	-0.341358	0.893157
C284	C	0.110126	-0.375830	0.848339
C285	C	0.126753	-0.341346	0.780550
H286	H	0.047094	-0.186874	0.785392
H287	H	0.018158	-0.246886	0.903363
H288	H	0.058188	-0.366886	0.943339
H289	H	0.127155	-0.426877	0.865343
H290	H	0.156091	-0.366864	0.747372
