data_functionalizedCrystal
_audit_creation_method	'MofGen! by Chris Wilmer'
_symmetry_space_group_name_H-M	'P1'
_symmetry_Int_Tables_number	1
_symmetry_cell_setting	triclinic
loop_
_symmetry_equiv_pos_as_xyz
  x,y,z
_cell_length_a	15.944545
_cell_length_b	15.944551
_cell_length_c	9.198806
_cell_angle_alpha	89.995864
_cell_angle_beta	89.998841
_cell_angle_gamma	83.497455
loop_
_atom_site_label
_atom_site_type_symbol
_atom_site_fract_x
_atom_site_fract_y
_atom_site_fract_z
O1	O	1.114527	0.108305	-0.120801
O2	O	0.869977	0.121667	-0.120825
O3	O	0.998930	-0.007289	-0.120800
O4	O	0.985574	0.237261	-0.120827
O5	O	0.998920	-0.007289	0.120985
O6	O	0.869966	0.121667	0.120960
O7	O	1.114517	0.108305	0.120984
Cu8	Cu	0.992241	0.114986	0.143048
Cu9	Cu	0.992253	0.114986	-0.142890
O10	O	0.985563	0.237261	0.120958
C11	C	0.838677	0.121113	0.000064
C12	C	0.745431	0.119453	0.000055
C13	C	0.474798	0.034559	0.000080
C14	C	0.525375	0.075488	0.119292
C15	C	0.409787	0.113532	0.000081
C16	C	0.525366	0.075509	-0.119089
C17	C	0.574701	0.116437	0.000066
C18	C	0.459136	0.154440	0.119391
C19	C	0.459123	0.154450	-0.119097
C20	C	0.509667	0.195436	0.000144
C21	C	0.314785	0.111856	0.000091
C22	C	0.669700	0.118119	0.000067
C23	C	0.998370	-0.038583	0.000093
C24	C	0.996708	-0.131829	0.000094
C25	C	0.912803	-0.346684	0.000065
C26	C	0.951761	-0.407702	0.119284
C27	C	0.993701	-0.302555	0.000082
C28	C	0.951790	-0.407685	-0.119097
C29	C	0.990790	-0.467468	0.000065
C30	C	1.032680	-0.362345	0.119399
C31	C	1.032698	-0.362322	-0.119089
C32	C	1.071715	-0.423322	0.000158
C33	C	0.995375	-0.207553	0.000093
C34	C	0.989122	-0.562469	0.000064
C35	C	1.145816	0.108859	0.000091
C36	C	1.239062	0.110519	0.000090
C37	C	0.986123	0.268555	0.000062
C38	C	0.987785	0.361801	0.000052
N39	N	0.992238	0.114985	0.344162
N40	N	0.992262	0.114980	-0.344004
C41	C	1.046384	0.060603	0.416370
C42	C	1.046397	0.060600	0.583783
H43	H	0.430322	0.187767	0.220283
Br44	Br	0.914998	0.192594	0.552516
H45	H	1.092757	0.014045	0.645878
H46	H	1.066889	-0.342192	-0.219877
H47	H	0.459145	-0.033453	0.000204
H48	H	0.554302	0.042135	0.220083
H49	H	0.525159	0.263501	0.000206
Br50	Br	0.894744	-0.441173	-0.287071
H51	H	1.066864	-0.342355	0.220300
H52	H	0.945888	0.161538	0.406281
H53	H	1.138922	-0.456483	0.000232
Br54	Br	0.800886	-0.291168	0.000238
Br55	Br	0.410880	0.209993	-0.287097
H56	H	1.092728	0.014044	0.354253
H57	H	0.554287	0.042144	-0.219867
H58	H	0.917540	-0.427810	0.220067
