data_functionalizedCrystal
_audit_creation_method	'MofGen! by Chris Wilmer'
_symmetry_space_group_name_H-M	'P1'
_symmetry_Int_Tables_number	1
_symmetry_cell_setting	triclinic
loop_
_symmetry_equiv_pos_as_xyz
  x,y,z
_cell_length_a	19.288859
_cell_length_b	8.965430
_cell_length_c	19.288865
_cell_angle_alpha	89.994113
_cell_angle_beta	96.865014
_cell_angle_gamma	89.997947
loop_
_atom_site_label
_atom_site_type_symbol
_atom_site_fract_x
_atom_site_fract_y
_atom_site_fract_z
O1	O	0.921344	0.124086	-0.086624
O2	O	0.719083	0.124085	-0.098317
O3	O	0.826058	0.124056	0.008660
O4	O	0.814369	0.124115	-0.193601
O5	O	0.826063	-0.124023	0.008657
O6	O	0.719088	-0.123994	-0.098320
O7	O	0.921349	-0.123993	-0.086627
Cu8	Cu	0.820219	-0.146645	-0.092474
Cu9	Cu	0.820213	0.146737	-0.092470
O10	O	0.814374	-0.123964	-0.193604
C11	C	0.693209	0.000045	-0.097943
C12	C	0.616105	0.000043	-0.096816
N13	N	0.820228	-0.352994	-0.092476
C14	C	0.052064	0.000061	-0.151959
C15	C	0.124511	0.000069	-0.153025
C16	C	0.169217	0.000048	-0.090255
C17	C	0.141472	0.000057	-0.026416
C18	C	0.069027	0.000064	-0.025353
C19	C	0.290489	-0.086884	-0.043443
C20	C	0.362933	-0.086900	-0.044510
C21	C	0.392663	0.000034	-0.093533
C22	C	0.349939	0.086964	-0.141502
C23	C	0.277494	0.086971	-0.140438
C24	C	0.247773	0.000042	-0.091401
C25	C	0.498955	0.000044	-0.158523
C26	C	0.571403	0.000061	-0.159586
C27	C	0.588364	0.000034	-0.032976
C28	C	0.515917	0.000032	-0.031915
C29	C	0.471216	0.000030	-0.094691
C30	C	0.869716	-0.450274	-0.043006
C31	C	0.806992	-0.549684	-0.029713
C32	C	0.882928	-0.549712	-0.105725
C33	C	0.757472	-0.450215	-0.079152
C34	C	0.833449	-0.450235	-0.155191
C35	C	0.770680	-0.549600	-0.141925
C36	C	0.947223	0.000050	-0.087001
C37	C	1.024327	0.000062	-0.088128
C38	C	0.825684	0.000012	0.034535
C39	C	0.824555	-0.000001	0.111638
N40	N	0.820209	0.353086	-0.092462
C41	C	0.814747	0.000083	-0.219479
C42	C	0.815876	0.000106	-0.296583
C43	C	0.887323	-0.000008	0.156336
C44	C	0.886262	0.000015	0.228783
C45	C	0.822430	0.000016	0.256529
C46	C	0.759654	0.000031	0.211822
C47	C	0.760716	0.000023	0.139376
C48	C	0.772252	-0.086881	0.364814
C49	C	0.771192	-0.086882	0.437259
C50	C	0.819150	0.000049	0.479975
C51	C	0.868180	0.086961	0.450239
C52	C	0.869243	0.086953	0.377793
C53	C	0.821271	0.000026	0.335083
C54	C	0.880773	0.000070	0.603228
C55	C	0.879709	0.000103	0.675676
C56	C	0.753099	0.000104	0.658713
C57	C	0.754164	0.000086	0.586267
C58	C	0.818003	0.000062	0.558529
H59	H	0.015673	0.000067	-0.203077
O60	O	0.949624	0.000062	0.573305
H61	H	0.953129	0.101162	0.540690
O62	O	0.636571	0.000005	0.034729
H63	H	0.691608	-0.000009	0.023268
H64	H	0.266290	-0.157679	-0.003519
H65	H	0.703051	0.000083	0.549873
H66	H	0.911527	-0.406660	-0.001150
O67	O	0.848300	-0.392323	-0.225431
H68	H	0.847663	-0.268534	-0.224938
H69	H	0.937377	0.000016	0.265183
O70	O	0.693012	0.000002	0.091163
H71	H	0.662445	0.101109	0.100992
O72	O	0.792162	-0.607580	0.040541
H73	H	0.833319	-0.567819	0.081513
H74	H	0.593984	0.000073	-0.211567
O75	O	0.684251	0.000103	0.688633
H76	H	0.640781	0.000107	0.645377
H77	H	0.147099	0.000055	-0.205005
O78	O	0.687215	-0.392560	-0.064210
H79	H	0.646148	-0.433257	-0.105046
O80	O	0.485993	0.000017	0.036932
H81	H	0.453388	-0.101089	0.040440
O82	O	0.715179	-0.607048	-0.197330
H83	H	0.663209	-0.566991	-0.186156
O84	O	0.953172	-0.607595	-0.120589
H85	H	0.994163	-0.567794	-0.079461
H86	H	0.397713	-0.157692	-0.005454
O87	O	0.956174	0.000008	0.126416
H88	H	0.999643	0.000028	0.169674
H89	H	0.374143	0.157750	-0.181423
O90	O	0.039108	0.000037	0.043498
H91	H	0.057079	0.101135	0.073654
H92	H	0.462558	0.000045	-0.209639
O93	O	0.922109	0.180709	0.345716
H94	H	0.955277	0.241175	0.387583
O95	O	0.919921	0.180702	0.496305
H96	H	0.954198	0.241113	0.463459
O97	O	0.189686	0.000018	0.041288
H98	H	0.244722	-0.000007	0.029825
O99	O	0.947412	0.000083	0.723892
H100	H	0.991978	0.000046	0.692430
H101	H	0.731266	-0.157642	0.461463
H102	H	0.242711	0.157756	-0.179495
O103	O	0.720526	-0.180655	0.318743
H104	H	0.686264	-0.241108	0.351590
O105	O	0.690803	0.000015	0.241741
H106	H	0.700609	-0.000001	0.299627
