data_functionalizedCrystal
_audit_creation_method	'MofGen! by Chris Wilmer'
_symmetry_space_group_name_H-M	'P1'
_symmetry_Int_Tables_number	1
_symmetry_cell_setting	triclinic
loop_
_symmetry_equiv_pos_as_xyz
  x,y,z
_cell_length_a	18.215407
_cell_length_b	12.827892
_cell_length_c	18.215399
_cell_angle_alpha	89.976162
_cell_angle_beta	89.980167
_cell_angle_gamma	90.015840
loop_
_atom_site_label
_atom_site_type_symbol
_atom_site_fract_x
_atom_site_fract_y
_atom_site_fract_z
Zn1	Zn	1.125121	-0.416031	-0.416137
Zn2	Zn	1.125049	-0.590790	-0.293079
Zn3	Zn	1.002053	-0.416065	-0.293084
Zn4	Zn	1.002039	-0.590732	-0.416104
O5	O	1.063566	-0.503405	-0.354601
O6	O	1.228095	-0.439223	-0.399825
O7	O	1.108710	-0.567651	-0.190096
O8	O	1.018414	-0.269825	-0.309423
O9	O	1.228043	-0.567618	-0.309415
O10	O	1.108831	-0.269800	-0.399829
O11	O	1.018345	-0.439282	-0.190099
O12	O	0.899067	-0.439225	-0.309392
O13	O	1.018390	-0.567519	-0.519093
O14	O	0.899057	-0.567552	-0.399774
O15	O	1.108818	-0.439167	-0.519117
O16	O	1.108696	-0.737019	-0.309383
O17	O	1.018321	-0.736976	-0.399769
C18	C	0.872359	-0.503387	-0.354580
C19	C	0.790560	-0.503405	-0.354589
C20	C	0.602380	-0.570329	-0.401592
C21	C	0.525522	-0.570333	-0.401601
C22	C	0.525503	-0.436499	-0.307627
C23	C	0.602360	-0.436491	-0.307622
C24	C	0.640797	-0.503413	-0.354603
C25	C	0.487081	-0.503424	-0.354617
C26	C	0.403747	-0.503427	-0.354627
C27	C	0.724136	-0.503408	-0.354595
C28	C	1.063520	-0.774915	-0.354588
C29	C	1.063567	-0.891068	-0.354607
C30	C	1.108341	-0.942839	-0.309931
C31	C	1.108391	-1.062889	-0.309950
C32	C	1.255518	-0.503424	-0.354623
C33	C	1.337317	-0.503432	-0.354632
C34	C	1.063610	-0.503333	-0.546554
C35	C	1.063629	-0.503302	-0.628353
C36	C	1.063632	-0.230835	-0.354630
C37	C	1.063660	-0.114682	-0.354643
C38	C	1.110732	-0.436407	-0.816561
C39	C	1.110741	-0.436376	-0.893420
C40	C	1.016579	-0.570036	-0.893383
C41	C	1.016567	-0.570060	-0.816526
C42	C	1.063648	-0.503247	-0.778117
C43	C	1.063668	-0.503192	-0.931833
C44	C	1.063678	-0.503160	-1.015167
C45	C	1.063638	-0.503278	-0.694778
C46	C	1.063563	-0.503401	-0.163395
C47	C	1.063687	-0.503138	-0.081597
H48	H	0.494246	-0.624822	-0.439864
H49	H	1.025275	-0.935621	-0.392873
O50	O	1.017858	-1.061744	-0.400304
C51	C	0.976293	-1.133218	-0.441878
H52	H	0.973743	-1.211080	-0.411793
H53	H	0.918313	-1.101665	-0.449654
H54	H	1.003212	-1.144705	-0.497803
O55	O	1.156482	-0.371402	-0.779363
C56	C	1.198053	-0.312418	-0.829780
H57	H	1.167918	-0.308784	-0.884561
H58	H	1.205916	-0.230089	-0.807587
H59	H	1.253940	-0.350683	-0.837960
O60	O	1.154236	-1.115863	-0.264353
C61	C	1.227574	-1.089161	-0.280510
H62	H	1.229083	-1.009865	-0.308748
H63	H	1.260613	-1.085521	-0.227430
H64	H	1.252331	-1.150503	-0.318415
H65	H	0.633674	-0.624818	-0.439849
H66	H	1.149080	-0.381946	-0.924717
O67	O	0.488198	-0.371351	-0.262065
C68	C	0.507015	-0.267227	-0.278258
H69	H	0.528165	-0.262052	-0.337056
H70	H	0.456477	-0.215591	-0.271979
H71	H	0.551618	-0.239838	-0.238833
O72	O	0.970957	-0.635051	-0.930730
C73	C	1.012849	-0.702517	-0.975199
H74	H	1.070805	-0.708982	-0.952046
H75	H	0.986214	-0.782937	-0.976055
H76	H	1.015401	-0.670188	-1.033452
O77	O	0.639650	-0.371597	-0.261868
C78	C	0.620825	-0.394288	-0.188494
H79	H	0.599682	-0.477766	-0.184680
H80	H	0.671358	-0.385218	-0.152147
H81	H	0.576215	-0.338229	-0.169324
O82	O	1.153923	-0.889649	-0.264203
C83	C	1.111984	-0.826586	-0.216677
H84	H	1.054060	-0.859621	-0.212062
H85	H	1.138631	-0.825255	-0.160066
H86	H	1.109347	-0.743891	-0.239471
H87	H	0.978220	-0.624489	-0.785224
