data_functionalizedCrystal
_audit_creation_method	'MofGen! by Chris Wilmer'
_symmetry_space_group_name_H-M	'P1'
_symmetry_Int_Tables_number	1
_symmetry_cell_setting	triclinic
loop_
_symmetry_equiv_pos_as_xyz
  x,y,z
_cell_length_a	16.120530
_cell_length_b	19.121063
_cell_length_c	16.120297
_cell_angle_alpha	95.179432
_cell_angle_beta	90.128140
_cell_angle_gamma	89.687057
loop_
_atom_site_label
_atom_site_type_symbol
_atom_site_fract_x
_atom_site_fract_y
_atom_site_fract_z
Zn1	Zn	1.228532	-0.355748	-0.551587
Zn2	Zn	1.478532	-0.105748	-0.301587
Zn3	Zn	1.728532	0.144252	-0.051587
Zn4	Zn	1.978532	0.394252	0.198413
Zn5	Zn	1.229542	-0.467532	-0.417878
Zn6	Zn	1.479542	-0.217532	-0.167878
Zn7	Zn	1.729542	0.032468	0.082122
Zn8	Zn	1.979542	0.282468	0.332122
Zn9	Zn	1.097153	-0.343883	-0.404937
Zn10	Zn	1.347153	-0.093883	-0.154937
Zn11	Zn	1.597153	0.156117	0.095063
Zn12	Zn	1.847153	0.406117	0.345063
Zn13	Zn	1.083532	-0.466885	-0.549816
Zn14	Zn	1.333532	-0.216885	-0.299816
Zn15	Zn	1.583532	0.033115	-0.049816
Zn16	Zn	1.833532	0.283115	0.200184
O17	O	1.159690	-0.408512	-0.481054
O18	O	1.409690	-0.158512	-0.231054
O19	O	1.659690	0.091488	0.018946
O20	O	1.909690	0.341488	0.268946
O21	O	1.344754	-0.375813	-0.540007
O22	O	1.594754	-0.125813	-0.290007
O23	O	1.844754	0.124187	-0.040007
O24	O	2.094754	0.374187	0.209993
O25	O	1.218103	-0.446434	-0.299571
O26	O	1.468103	-0.196434	-0.049571
O27	O	1.718103	0.053566	0.200429
O28	O	1.968103	0.303566	0.450429
O29	O	1.119859	-0.247198	-0.419716
O30	O	1.369859	0.002802	-0.169716
O31	O	1.619859	0.252802	0.080284
O32	O	1.869859	0.502802	0.330284
O33	O	1.345496	-0.457940	-0.441771
O34	O	1.595496	-0.207940	-0.191771
O35	O	1.845496	0.042060	0.058229
O36	O	2.095496	0.292060	0.308229
O37	O	1.216382	-0.255916	-0.527458
O38	O	1.466382	-0.005916	-0.277458
O39	O	1.716382	0.244084	-0.027458
O40	O	1.966382	0.494084	0.222542
O41	O	1.120838	-0.355590	-0.290063
O42	O	1.370838	-0.105590	-0.040063
O43	O	1.620838	0.144410	0.209937
O44	O	1.870838	0.394410	0.459937
O45	O	0.979258	-0.354963	-0.417999
O46	O	1.229258	-0.104963	-0.167999
O47	O	1.479258	0.145037	0.082001
O48	O	1.729258	0.395037	0.332001
O49	O	1.096644	-0.456838	-0.666641
O50	O	1.346644	-0.206838	-0.416641
O51	O	1.596644	0.043162	-0.166641
O52	O	1.846644	0.293162	0.083359
O53	O	0.969251	-0.445332	-0.524441
O54	O	1.219251	-0.195332	-0.274441
O55	O	1.469251	0.054668	-0.024441
O56	O	1.719251	0.304668	0.225559
O57	O	1.203175	-0.375186	-0.667942
O58	O	1.453175	-0.125186	-0.417942
O59	O	1.703175	0.124814	-0.167942
O60	O	1.953175	0.374814	0.082058
O61	O	1.204895	-0.565705	-0.440054
O62	O	1.454895	-0.315705	-0.190054
O63	O	1.704895	-0.065705	0.059946
O64	O	1.954895	0.184295	0.309946
O65	O	1.097623	-0.565230	-0.536989
O66	O	1.347623	-0.315230	-0.286989
O67	O	1.597623	-0.065230	-0.036989
O68	O	1.847623	0.184770	0.213011
C69	C	0.944155	-0.398790	-0.469624
C70	C	1.194155	-0.148790	-0.219624
C71	C	1.444155	0.101210	0.030376
C72	C	1.694155	0.351210	0.280376
C73	C	0.851946	-0.394649	-0.464754
C74	C	1.101946	-0.144649	-0.214754
C75	C	1.351946	0.105351	0.035246
C76	C	1.601946	0.355351	0.285246
C77	C	0.683119	-0.387072	-0.455870
C78	C	0.933119	-0.137072	-0.205870
C79	C	1.183119	0.112928	0.044130
C80	C	1.433119	0.362928	0.294130
C81	C	0.637096	-0.430006	-0.506302
C82	C	0.887096	-0.180006	-0.256302
C83	C	1.137096	0.069994	-0.006302
C84	C	1.387096	0.319994	0.243698
C85	C	0.543155	-0.425790	-0.501358
C86	C	0.793155	-0.175790	-0.251358
C87	C	1.043155	0.074210	-0.001358
C88	C	1.293155	0.324210	0.248642
C89	C	0.777068	-0.391287	-0.460812
C90	C	1.027068	-0.141287	-0.210812
C91	C	1.277068	0.108713	0.039188
C92	C	1.527068	0.358713	0.289188
C93	C	1.149912	-0.590946	-0.489753
C94	C	1.399912	-0.340946	-0.239753
C95	C	1.649912	-0.090946	0.010247
C96	C	1.899912	0.159054	0.260247
C97	C	1.145804	-0.668997	-0.493506
C98	C	1.395804	-0.418997	-0.243506
C99	C	1.645804	-0.168997	0.006494
C100	C	1.895804	0.081003	0.256494
C101	C	1.199763	-0.705893	-0.444847
C102	C	1.449763	-0.455893	-0.194847
C103	C	1.699763	-0.205893	0.055153
C104	C	1.949763	0.044107	0.305153
C105	C	1.195904	-0.779230	-0.448382
C106	C	1.445904	-0.529230	-0.198382
C107	C	1.695904	-0.279230	0.051618
C108	C	1.945904	-0.029230	0.301618
C109	C	1.138080	-0.815670	-0.500573
C110	C	1.388080	-0.565670	-0.250573
C111	C	1.638080	-0.315670	-0.000573
C112	C	1.888080	-0.065670	0.249427
C113	C	1.084118	-0.778769	-0.549237
C114	C	1.334118	-0.528769	-0.299237
C115	C	1.584118	-0.278769	-0.049237
C116	C	1.834118	-0.028769	0.200763
C117	C	1.087982	-0.705433	-0.545706
C118	C	1.337982	-0.455433	-0.295706
C119	C	1.587982	-0.205433	-0.045706
C120	C	1.837982	0.044567	0.204294
C121	C	1.123621	-1.037085	-0.513761
C122	C	1.373621	-0.787085	-0.263761
C123	C	1.623621	-0.537085	-0.013761
C124	C	1.873621	-0.287085	0.236239
C125	C	1.119760	-1.110426	-0.517287
C126	C	1.369760	-0.860426	-0.267287
C127	C	1.619760	-0.610426	-0.017287
C128	C	1.869760	-0.360426	0.232713
C129	C	1.231547	-1.110882	-0.416433
C130	C	1.481547	-0.860882	-0.166433
C131	C	1.731547	-0.610882	0.083567
C132	C	1.981547	-0.360882	0.333567
C133	C	1.235403	-1.037545	-0.412903
C134	C	1.485403	-0.787545	-0.162903
C135	C	1.735403	-0.537545	0.087097
C136	C	1.985403	-0.287545	0.337097
C137	C	1.181443	-1.000650	-0.461570
C138	C	1.431443	-0.750650	-0.211570
C139	C	1.681443	-0.500650	0.038430
C140	C	1.931443	-0.250650	0.288430
C141	C	1.134132	-0.890632	-0.504185
C142	C	1.384132	-0.640632	-0.254185
C143	C	1.634132	-0.390632	-0.004185
C144	C	1.884132	-0.140632	0.245815
C145	C	1.185396	-0.925690	-0.457962
C146	C	1.435396	-0.675690	-0.207962
C147	C	1.685396	-0.425690	0.042038
C148	C	1.935396	-0.175690	0.292038
C149	C	1.376067	-0.418272	-0.492530
C150	C	1.626067	-0.168272	-0.242530
C151	C	1.876067	0.081728	0.007470
C152	C	2.126067	0.331728	0.257470
C153	C	1.468274	-0.422431	-0.497420
C154	C	1.718274	-0.172431	-0.247420
C155	C	1.968274	0.077569	0.002580
C156	C	2.218274	0.327569	0.252580
C157	C	1.148278	-0.417263	-0.698367
C158	C	1.398278	-0.167263	-0.448367
C159	C	1.648278	0.082737	-0.198367
C160	C	1.898278	0.332737	0.051633
C161	C	1.143414	-0.420993	-0.790973
C162	C	1.393414	-0.170993	-0.540973
C163	C	1.643414	0.079007	-0.290973
C164	C	1.893414	0.329007	-0.040973
C165	C	1.169527	-0.225367	-0.472341
C166	C	1.419527	0.024633	-0.222341
C167	C	1.669527	0.274633	0.027659
C168	C	1.919527	0.524633	0.277659
C169	C	1.173720	-0.147322	-0.468628
C170	C	1.423720	0.102678	-0.218628
C171	C	1.673720	0.352678	0.031372
C172	C	1.923720	0.602678	0.281372
C173	C	1.134506	-0.427785	-0.960523
C174	C	1.384506	-0.177785	-0.710523
C175	C	1.634506	0.072215	-0.460523
C176	C	1.884506	0.322215	-0.210523
C177	C	1.185049	-0.389036	-1.002436
C178	C	1.435049	-0.139036	-0.752436
C179	C	1.685049	0.110964	-0.502436
C180	C	1.935049	0.360964	-0.252436
C181	C	1.180092	-0.392815	-1.096780
C182	C	1.430092	-0.142815	-0.846780
C183	C	1.680092	0.107185	-0.596780
C184	C	1.930092	0.357185	-0.346780
C185	C	1.139461	-0.424006	-0.866171
C186	C	1.389461	-0.174006	-0.616171
C187	C	1.639461	0.075994	-0.366171
C188	C	1.889461	0.325994	-0.116171
C189	C	1.171108	-0.399746	-0.264587
C190	C	1.421108	-0.149746	-0.014587
C191	C	1.671108	0.100254	0.235413
C192	C	1.921108	0.350254	0.485413
C193	C	1.176143	-0.395826	-0.171981
C194	C	1.426143	-0.145826	0.078019
C195	C	1.676143	0.104174	0.328019
C196	C	1.926143	0.354174	0.578019
H197	H	1.246846	-0.676228	-0.402345
H198	H	1.496846	-0.426228	-0.152345
H199	H	1.746846	-0.176228	0.097655
H200	H	1.996846	0.073772	0.347655
Br201	Br	1.263395	-0.329031	-0.944156
Br202	Br	1.513395	-0.079031	-0.694156
Br203	Br	1.763395	0.170969	-0.444156
Br204	Br	2.013395	0.420969	-0.194156
Br205	Br	0.631202	-0.320533	-0.377725
Br206	Br	0.881202	-0.070533	-0.127725
Br207	Br	1.131202	0.179467	0.122275
Br208	Br	1.381202	0.429467	0.372275
Br209	Br	1.056185	-0.487805	-1.018806
Br210	Br	1.306185	-0.237805	-0.768806
Br211	Br	1.556185	0.012195	-0.518806
Br212	Br	1.806185	0.262195	-0.268806
Br213	Br	1.313891	-0.988097	-0.342082
Br214	Br	1.563891	-0.738097	-0.092082
Br215	Br	1.813891	-0.488097	0.157918
Br216	Br	2.063891	-0.238097	0.407918
Br217	Br	0.689010	-0.496543	-0.584460
Br218	Br	0.939010	-0.246543	-0.334460
Br219	Br	1.189010	0.003457	-0.084460
Br220	Br	1.439010	0.253457	0.165540
H221	H	1.239843	-0.809268	-0.408758
H222	H	1.489843	-0.559268	-0.158758
H223	H	1.739843	-0.309268	0.091242
H224	H	1.989843	-0.059268	0.341242
Br225	Br	1.304777	-1.160957	-0.350392
Br226	Br	1.554777	-0.910957	-0.100392
Br227	Br	1.804777	-0.660957	0.149608
Br228	Br	2.054777	-0.410957	0.399608
Br229	Br	1.014753	-0.655359	-0.611751
Br230	Br	1.264753	-0.405359	-0.361751
Br231	Br	1.514753	-0.155359	-0.111751
Br232	Br	1.764753	0.094641	0.138249
Br233	Br	1.050391	-0.987023	-0.579811
Br234	Br	1.300391	-0.737023	-0.329811
Br235	Br	1.550391	-0.487023	-0.079811
Br236	Br	1.800391	-0.237023	0.170189
Br237	Br	1.041266	-1.159878	-0.588106
Br238	Br	1.291266	-0.909878	-0.338106
Br239	Br	1.541266	-0.659878	-0.088106
Br240	Br	1.791266	-0.409878	0.161894
H241	H	1.232479	-0.896019	-0.415471
H242	H	1.482479	-0.646019	-0.165471
H243	H	1.732479	-0.396019	0.084529
H244	H	1.982479	-0.146019	0.334529
Br245	Br	1.005649	-0.828222	-0.620075
Br246	Br	1.255649	-0.578222	-0.370075
Br247	Br	1.505649	-0.328222	-0.120075
Br248	Br	1.755649	-0.078222	0.129925
H249	H	1.087051	-0.920309	-0.546677
H250	H	1.337051	-0.670309	-0.296677
H251	H	1.587051	-0.420309	-0.046677
H252	H	1.837051	-0.170309	0.203323
