data_functionalizedCrystal
_audit_creation_method	'MofGen! by Chris Wilmer'
_symmetry_space_group_name_H-M	'P1'
_symmetry_Int_Tables_number	1
_symmetry_cell_setting	triclinic
loop_
_symmetry_equiv_pos_as_xyz
  x,y,z
_cell_length_a	12.759401
_cell_length_b	19.120786
_cell_length_c	12.759393
_cell_angle_alpha	92.477119
_cell_angle_beta	90.018567
_cell_angle_gamma	92.464298
loop_
_atom_site_label
_atom_site_type_symbol
_atom_site_fract_x
_atom_site_fract_y
_atom_site_fract_z
Zn1	Zn	1.588334	-0.279608	0.576098
Zn2	Zn	2.088334	0.220392	1.076098
Zn3	Zn	1.580698	-0.397085	0.392904
Zn4	Zn	2.080698	0.102915	0.892904
Zn5	Zn	1.412634	-0.279643	0.400435
Zn6	Zn	1.912634	0.220357	0.900435
Zn7	Zn	1.405098	-0.397028	0.568549
Zn8	Zn	1.905098	0.102972	1.068549
O9	O	1.496691	-0.338341	0.484496
O10	O	1.996691	0.161659	0.984496
O11	O	1.734341	-0.295201	0.551805
O12	O	2.234341	0.204799	1.051805
O13	O	1.558362	-0.381544	0.246879
O14	O	2.058362	0.118456	0.746879
O15	O	1.442290	-0.181347	0.430048
O16	O	1.942290	0.318653	0.930048
O17	O	1.728732	-0.381510	0.417213
O18	O	2.228732	0.118490	0.917213
O19	O	1.571376	-0.181322	0.559107
O20	O	2.071376	0.318678	1.059107
O21	O	1.434886	-0.295259	0.252412
O22	O	1.934886	0.204741	0.752412
O23	O	1.264614	-0.295205	0.422728
O24	O	1.764614	0.204795	0.922728
O25	O	1.429447	-0.381414	0.716574
O26	O	1.929447	0.118586	1.216574
O27	O	1.259077	-0.381448	0.546240
O28	O	1.759077	0.118552	1.046240
O29	O	1.564069	-0.295146	0.722120
O30	O	2.064069	0.204854	1.222120
O31	O	1.551056	-0.495368	0.409892
O32	O	2.051056	0.004632	0.909892
O33	O	1.422043	-0.495327	0.538938
O34	O	1.922043	0.004673	1.038938
C35	C	1.223725	-0.338324	0.484483
C36	C	1.723725	0.161676	0.984483
C37	C	1.106947	-0.338334	0.484501
C38	C	1.606947	0.161666	0.984501
C39	C	1.054994	-0.293478	0.554682
C40	C	1.554994	0.206522	1.054682
C41	C	0.945269	-0.293491	0.554687
C42	C	1.445269	0.206509	1.054687
C43	C	0.939460	-0.383224	0.414328
C44	C	1.439460	0.116776	0.914328
C45	C	1.049183	-0.383206	0.414318
C46	C	1.549183	0.116794	0.914318
C47	C	1.058347	-0.241673	0.635720
C48	C	1.558347	0.258327	1.135720
C49	C	0.948622	-0.241687	0.635726
C50	C	1.448622	0.258313	1.135726
C51	C	1.484932	-0.520833	0.472801
C52	C	1.984932	-0.020833	0.972801
C53	C	1.479997	-0.598904	0.467833
C54	C	1.979997	-0.098904	0.967833
C55	C	1.544837	-0.635508	0.532748
C56	C	2.044837	-0.135508	1.032748
C57	C	1.540196	-0.708864	0.528082
C58	C	2.040196	-0.208864	1.028082
C59	C	1.470720	-0.745614	0.458495
C60	C	1.970720	-0.245614	0.958495
C61	C	1.405873	-0.709005	0.393578
C62	C	1.905873	-0.209005	0.893578
C63	C	1.410509	-0.635650	0.398250
C64	C	1.910509	-0.135650	0.898250
C65	C	1.453357	-0.967101	0.441028
C66	C	1.953357	-0.467101	0.941028
C67	C	1.448728	-1.040461	0.436359
C68	C	1.948728	-0.540461	0.936359
C69	C	1.583050	-1.040315	0.570865
C70	C	2.083050	-0.540315	1.070865
C71	C	1.587685	-0.966959	0.575526
C72	C	2.087685	-0.466959	1.075526
C73	C	1.522834	-0.930356	0.510613
C74	C	2.022834	-0.430356	1.010613
C75	C	1.465977	-0.820596	0.453721
C76	C	1.965977	-0.320596	0.953721
C77	C	1.527572	-0.855376	0.515393
C78	C	2.027572	-0.355376	1.015393
C79	C	1.770723	-0.338358	0.484511
C80	C	2.270723	0.161642	0.984511
C81	C	1.887499	-0.338365	0.484517
C82	C	2.387499	0.161635	0.984517
C83	C	1.496769	-0.338270	0.758534
C84	C	1.996769	0.161730	1.258534
C85	C	1.496802	-0.338240	0.875313
C86	C	1.996802	0.161760	1.375313
C87	C	1.508525	-0.155136	0.496260
C88	C	2.008525	0.344864	0.996260
C89	C	1.513568	-0.077065	0.501273
C90	C	2.013568	0.422935	1.001273
C91	C	1.496677	-0.338361	0.211528
C92	C	1.996677	0.161639	0.711528
C93	C	1.496860	-0.338193	0.094762
C94	C	1.996860	0.161807	0.594762
C95	C	1.566910	-0.293316	0.933065
C96	C	2.066910	0.206684	1.433065
C97	C	1.566936	-0.293290	1.042791
C98	C	2.066936	0.206710	1.542791
C99	C	1.426745	-0.383119	1.037002
C100	C	1.926745	0.116881	1.537002
C101	C	1.426714	-0.383141	0.927279
C102	C	1.926714	0.116859	1.427279
C103	C	1.647851	-0.241456	0.936408
C104	C	2.147851	0.258544	1.436408
C105	C	1.647878	-0.241430	1.046134
C106	C	2.147878	0.258570	1.546134
H107	H	1.091480	-0.419726	0.357161
H108	H	1.591480	0.080274	0.857161
H109	H	1.629569	-0.187060	0.910131
H110	H	2.129569	0.312940	1.410131
Cl111	Cl	1.109698	-0.157652	0.607667
Cl112	Cl	1.609698	0.342348	1.107667
Cl113	Cl	1.632189	-0.589315	0.620228
Cl114	Cl	2.132189	-0.089315	1.120228
Cl115	Cl	0.866836	-0.439631	0.326103
Cl116	Cl	1.366836	0.060369	0.826103
Cl117	Cl	1.318520	-0.755205	0.306107
Cl118	Cl	1.818520	-0.255205	0.806107
Cl119	Cl	1.621699	-0.754878	0.609707
Cl120	Cl	2.121699	-0.254878	1.109707
H121	H	1.644258	-0.937038	0.632189
H122	H	2.144258	-0.437038	1.132189
H123	H	1.091159	-0.261217	0.711708
H124	H	1.591159	0.238783	1.211708
Cl125	Cl	1.328991	-0.589633	0.316641
Cl126	Cl	1.828991	-0.089633	0.816641
Cl127	Cl	0.901170	-0.161874	0.596055
Cl128	Cl	1.401170	0.338126	1.096055
H129	H	1.723873	-0.260957	0.901125
H130	H	2.223873	0.239043	1.401125
Cl131	Cl	1.664567	-1.086334	0.652469
Cl132	Cl	2.164567	-0.586334	1.152469
H133	H	0.917938	-0.256325	0.716125
H134	H	1.417938	0.243675	1.216125
H135	H	1.622077	-0.189745	1.083488
H136	H	2.122077	0.310255	1.583488
H137	H	1.584136	-0.825452	0.572054
H138	H	2.084136	-0.325452	1.072054
H139	H	1.392147	-1.070381	0.379692
H140	H	1.892147	-0.570381	0.879692
H141	H	1.400555	-0.937305	0.388171
H142	H	1.900555	-0.437305	0.888171
H143	H	1.409412	-0.850526	0.397060
H144	H	1.909412	-0.350526	0.897060
Cl145	Cl	1.338559	-0.439608	0.854680
Cl146	Cl	1.838559	0.060392	1.354680
Cl147	Cl	1.338639	-0.439563	1.102339
Cl148	Cl	1.838639	0.060437	1.602339
H149	H	1.728315	-0.256001	1.074980
H150	H	2.228315	0.243999	1.574980
