data_functionalizedCrystal
_audit_creation_method	'MofGen! by Chris Wilmer'
_symmetry_space_group_name_H-M	'P1'
_symmetry_Int_Tables_number	1
_symmetry_cell_setting	triclinic
loop_
_symmetry_equiv_pos_as_xyz
  x,y,z
_cell_length_a	11.792241
_cell_length_b	10.868271
_cell_length_c	10.723022
_cell_angle_alpha	90.000239
_cell_angle_beta	84.330321
_cell_angle_gamma	90.000156
loop_
_atom_site_label
_atom_site_type_symbol
_atom_site_fract_x
_atom_site_fract_y
_atom_site_fract_z
O1	O	1.507283	0.102199	0.171033
O2	O	2.007283	0.602199	0.671033
O3	O	1.176980	0.102228	0.188660
O4	O	1.676980	0.602228	0.688660
O5	O	1.349751	0.102208	-0.001750
O6	O	1.849751	0.602208	0.498250
O7	O	1.334511	0.102219	0.361443
O8	O	1.834511	0.602219	0.861443
O9	O	1.349735	-0.102436	-0.001744
O10	O	1.849735	0.397564	0.498256
O11	O	1.176964	-0.102417	0.188666
O12	O	1.676964	0.397583	0.688666
O13	O	1.507267	-0.102445	0.171039
O14	O	2.007267	0.397555	0.671039
Zn15	Zn	1.342113	-0.134923	0.179853
Zn16	Zn	1.842113	0.365077	0.679853
Zn17	Zn	1.342134	0.134705	0.179845
Zn18	Zn	1.842134	0.634705	0.679845
O19	O	1.334496	-0.102426	0.361449
O20	O	1.834496	0.397574	0.861449
C21	C	1.134679	-0.000091	0.187556
C22	C	1.634679	0.499909	0.687556
C23	C	1.008658	-0.000080	0.184242
C24	C	1.508658	0.499920	0.684242
N25	N	1.342107	-0.318937	0.179858
N26	N	1.842107	0.181063	0.679858
C27	C	1.342116	-0.430275	0.179859
C28	C	1.842116	0.069725	0.679859
C29	C	1.342131	-0.569952	0.179847
C30	C	1.842131	-0.069952	0.679847
C31	C	0.777932	-0.000116	0.178148
C32	C	1.277932	0.499884	0.678148
C33	C	0.906325	-0.000096	0.181534
C34	C	1.406325	0.499904	0.681534
C35	C	1.549568	-0.000124	0.172143
C36	C	2.049568	0.499876	0.672143
C37	C	1.675589	-0.000127	0.175457
C38	C	2.175589	0.499873	0.675457
C39	C	1.348635	-0.000112	-0.048244
C40	C	1.848635	0.499888	0.451756
C41	C	1.345318	-0.000108	-0.186789
C42	C	1.845318	0.499892	0.313211
N43	N	1.342149	0.318719	0.179831
N44	N	1.842149	0.818719	0.679831
C45	C	1.438560	-0.000110	-0.405214
C46	C	1.938560	0.499890	0.094786
C47	C	1.441991	-0.000114	-0.262021
C48	C	1.941991	0.499886	0.237979
C49	C	1.335612	-0.000102	0.407943
C50	C	1.835612	0.499898	0.907943
C51	C	1.338929	-0.000099	0.546488
C52	C	1.838929	0.499901	1.046488
H53	H	1.521318	-0.000122	-0.469876
H54	H	2.021318	0.499878	0.030124
H55	H	1.256171	-0.000102	-0.388850
H56	H	1.756171	0.499898	0.111150
O57	O	1.243472	-0.000259	-0.236234
O58	O	1.743472	0.499741	0.263766
C59	C	1.066021	-0.106297	-0.252151
C60	C	1.566021	0.393703	0.247849
C61	C	1.181310	-0.106266	-0.196037
C62	C	1.681310	0.393734	0.303963
H63	H	1.015740	-0.192007	-0.219694
H64	H	1.515740	0.307993	0.280306
H65	H	1.015599	-0.020708	-0.219591
H66	H	1.515599	0.479292	0.280409
H67	H	1.081415	-0.106233	-0.358795
H68	H	1.581415	0.393767	0.141205
H69	H	1.166020	-0.106373	-0.089390
H70	H	1.666020	0.393627	0.410610
H71	H	1.231695	-0.191847	-0.228694
H72	H	1.731695	0.308153	0.271306
H73	H	1.527295	-0.000079	-0.220434
H74	H	2.027295	0.499921	0.279566
