data_functionalizedCrystal
_audit_creation_method	'MofGen! by Chris Wilmer'
_symmetry_space_group_name_H-M	'P1'
_symmetry_Int_Tables_number	1
_symmetry_cell_setting	triclinic
loop_
_symmetry_equiv_pos_as_xyz
  x,y,z
_cell_length_a	33.359691
_cell_length_b	33.359654
_cell_length_c	33.359725
_cell_angle_alpha	120.004060
_cell_angle_beta	90.000336
_cell_angle_gamma	60.000176
loop_
_atom_site_label
_atom_site_type_symbol
_atom_site_fract_x
_atom_site_fract_y
_atom_site_fract_z
O1	O	-0.274985	-0.353594	-0.011930
O2	O	-0.216694	-0.271506	0.011865
O3	O	-0.216692	-0.353592	-0.070224
O4	O	-0.274987	-0.271508	0.070158
O5	O	-0.283365	-0.286917	-0.070218
O6	O	-0.283367	-0.204831	0.011871
O7	O	-0.341659	-0.286918	-0.011924
Cu8	Cu	-0.318601	-0.239787	-0.000026
Cu9	Cu	-0.239752	-0.318638	-0.000033
O10	O	-0.341661	-0.204833	0.070165
C11	C	-0.146317	-0.044926	0.028808
C12	C	-0.170555	-0.068931	0.029150
C13	C	-0.073730	-0.117512	0.028813
C14	C	-0.098078	-0.141407	0.029155
C15	C	-0.146320	-0.117510	0.028815
C16	C	-0.098075	-0.068932	0.029148
C17	C	-0.146125	0.027632	0.022910
C18	C	-0.168973	0.073485	0.019188
C19	C	-0.216775	0.096483	0.017322
C20	C	-0.241550	0.146198	0.013284
C21	C	-0.241737	0.073635	0.019182
C22	C	-0.218892	0.027787	0.022906
C23	C	-0.171086	0.004785	0.024768
C24	C	-0.219073	-0.123211	0.022926
C25	C	-0.242081	-0.149778	0.019211
C26	C	-0.217278	-0.199443	0.017350
C27	C	-0.242221	-0.228251	0.013319
C28	C	-0.169468	-0.222546	0.019207
C29	C	-0.146463	-0.195980	0.022925
C30	C	-0.171265	-0.146315	0.024782
C31	C	0.004726	-0.123217	0.022920
C32	C	0.054302	-0.149789	0.019196
C33	C	0.079164	-0.199454	0.017335
C34	C	0.132916	-0.228265	0.013302
C35	C	0.054458	-0.222556	0.019192
C36	C	0.004884	-0.195988	0.022914
C37	C	-0.019980	-0.146318	0.024778
C38	C	-0.146320	-0.440926	-0.367190
C39	C	-0.098075	-0.489510	-0.391430
C40	C	-0.146320	-0.440926	-0.294601
C41	C	-0.098075	-0.489510	-0.318951
C42	C	-0.073728	-0.513519	-0.367196
C43	C	-0.170556	-0.417028	-0.318945
C44	C	-0.219074	-0.362279	-0.366995
C45	C	-0.242082	-0.335553	-0.389843
C46	C	-0.217277	-0.358493	-0.437647
C47	C	-0.242219	-0.329516	-0.462421
C48	C	-0.169465	-0.408163	-0.462612
C49	C	-0.146460	-0.434888	-0.439766
C50	C	-0.171264	-0.411944	-0.391958
C51	C	0.004728	-0.586086	-0.439954
C52	C	0.054303	-0.631945	-0.462965
C53	C	0.079167	-0.654944	-0.438162
C54	C	0.132921	-0.704665	-0.463108
C55	C	0.054460	-0.632093	-0.390350
C56	C	0.004887	-0.586239	-0.367342
C57	C	-0.019977	-0.563235	-0.392144
C58	C	-0.219074	-0.362279	-0.216140
C59	C	-0.242079	-0.335548	-0.166562
C60	C	-0.217275	-0.358488	-0.141700
C61	C	-0.242217	-0.329511	-0.087946
C62	C	-0.169465	-0.408154	-0.166409
C63	C	-0.146458	-0.434884	-0.215985
C64	C	-0.171264	-0.411944	-0.240849
C65	C	-0.412018	-0.513526	-0.028906
C66	C	-0.460262	-0.489518	-0.029243
C67	C	-0.412021	-0.440932	-0.028899
C68	C	-0.460265	-0.417034	-0.029236
C69	C	-0.484610	-0.440933	-0.028899
C70	C	-0.387783	-0.489517	-0.029243
C71	C	-0.339263	-0.586094	-0.023023
C72	C	-0.316254	-0.631954	-0.019309
C73	C	-0.341057	-0.654954	-0.017447
C74	C	-0.316113	-0.704676	-0.013418
C75	C	-0.388868	-0.632103	-0.019301
C76	C	-0.411875	-0.586248	-0.023017
C77	C	-0.387072	-0.563244	-0.024875
C78	C	-0.563064	-0.435232	-0.023009
C79	C	-0.612639	-0.408664	-0.019289
C80	C	-0.637504	-0.358993	-0.017418
C81	C	-0.691257	-0.330182	-0.013382
C82	C	-0.612799	-0.335887	-0.019273
C83	C	-0.563226	-0.362455	-0.022995
C84	C	-0.538361	-0.412126	-0.024861
C85	C	-0.339270	-0.435228	-0.023008
C86	C	-0.316267	-0.408654	-0.019281
C87	C	-0.341073	-0.358983	-0.017410
C88	C	-0.316132	-0.330170	-0.013374
C89	C	-0.388882	-0.335878	-0.019263
C90	C	-0.411887	-0.362448	-0.022988
C91	C	-0.387079	-0.412123	-0.024860
O92	O	0.291018	-0.286930	-0.011932
O93	O	0.150642	-0.204845	0.011853
O94	O	0.232728	-0.286941	-0.070232
O95	O	0.208932	-0.204834	0.070152
O96	O	0.232725	-0.353608	-0.070225
O97	O	0.150639	-0.271512	0.011859
O98	O	0.291015	-0.353597	-0.011926
Cu99	Cu	0.220826	-0.318642	-0.000033
Cu100	Cu	0.220830	-0.239800	-0.000040
O101	O	0.208929	-0.271501	0.070159
O102	O	-0.341640	0.279049	-0.011967
O103	O	-0.283351	0.162472	0.011832
O104	O	-0.283344	0.162454	-0.070258
O105	O	-0.341647	0.279067	0.070123
O106	O	-0.216672	0.162452	-0.070260
O107	O	-0.216679	0.162470	0.011830
O108	O	-0.274968	0.279048	-0.011968
Cu109	Cu	-0.239736	0.220759	-0.000069
Cu110	Cu	-0.318583	0.220761	-0.000067
O111	O	-0.274975	0.279066	0.070122
O112	O	0.291025	-0.837534	-0.495883
O113	O	0.150647	-0.720939	-0.437582
O114	O	0.232727	-0.720938	-0.437580
O115	O	0.208945	-0.837535	-0.495885
O116	O	0.232729	-0.720940	-0.504252
O117	O	0.150648	-0.720941	-0.504254
O118	O	0.291027	-0.837535	-0.562555
Cu119	Cu	0.220838	-0.779238	-0.539492
Cu120	Cu	0.220836	-0.779236	-0.460645
O121	O	0.208946	-0.837536	-0.562557
O122	O	-0.274992	-0.271503	-0.562510
O123	O	-0.216692	-0.353591	-0.504225
O124	O	-0.216696	-0.271504	-0.504216
O125	O	-0.274988	-0.353591	-0.562519
O126	O	-0.283369	-0.204830	-0.437539
O127	O	-0.283365	-0.286918	-0.437547
O128	O	-0.341664	-0.204829	-0.495832
Cu129	Cu	-0.318602	-0.239786	-0.460602
Cu130	Cu	-0.239754	-0.318635	-0.539455
O131	O	-0.341660	-0.286917	-0.495841
C132	C	-0.484626	-0.044904	0.367136
C133	C	-0.460280	-0.068912	0.391371
C134	C	-0.412034	-0.117498	0.294542
C135	C	-0.387798	-0.141395	0.318887
C136	C	-0.412035	-0.117497	0.367131
C137	C	-0.460279	-0.068913	0.318892
C138	C	-0.563082	0.027663	0.366953
C139	C	-0.612657	0.073521	0.389806
C140	C	-0.637522	0.096521	0.437610
C141	C	-0.691275	0.146242	0.462390
C142	C	-0.612815	0.073671	0.462569
C143	C	-0.563242	0.027816	0.439718
C144	C	-0.538377	0.004812	0.391910
C145	C	-0.412224	-0.123198	0.439884
C146	C	-0.389374	-0.149767	0.462889
C147	C	-0.341571	-0.199437	0.438081
C148	C	-0.316794	-0.228248	0.463021
C149	C	-0.316609	-0.222542	0.390269
C150	C	-0.339457	-0.195974	0.367266
C151	C	-0.387265	-0.146304	0.392073
C152	C	-0.412222	-0.123201	0.216087
C153	C	-0.389373	-0.149774	0.166508
C154	C	-0.341570	-0.199444	0.141641
C155	C	-0.316792	-0.228256	0.087887
C156	C	-0.316611	-0.222549	0.166344
C157	C	-0.339457	-0.195980	0.215920
C158	C	-0.387263	-0.146305	0.240790
C159	C	0.249671	-0.513560	-0.367194
C160	C	0.250010	-0.489558	-0.391434
C161	C	0.249675	-0.440965	-0.294606
C162	C	0.250015	-0.417074	-0.318956
C163	C	0.249674	-0.440976	-0.367201
C164	C	0.250012	-0.489548	-0.318950
C165	C	0.243777	-0.586119	-0.366998
C166	C	0.240056	-0.631975	-0.389844
C167	C	0.238189	-0.654978	-0.437648
C168	C	0.234152	-0.704697	-0.462421
C169	C	0.240046	-0.632134	-0.462613
C170	C	0.243769	-0.586282	-0.439768
C171	C	0.245632	-0.563274	-0.391961
C172	C	0.243781	-0.435284	-0.439958
C173	C	0.240064	-0.408721	-0.462968
C174	C	0.238201	-0.359053	-0.438167
C175	C	0.234168	-0.330248	-0.463112
C176	C	0.240060	-0.335944	-0.390355
C177	C	0.243780	-0.362507	-0.367347
C178	C	0.245638	-0.412175	-0.392148
C179	C	0.243787	-0.435252	-0.216146
C180	C	0.240065	-0.408675	-0.166568
C181	C	0.238202	-0.359007	-0.141707
C182	C	0.234171	-0.330190	-0.087953
C183	C	0.240057	-0.335908	-0.166416
C184	C	0.243777	-0.362481	-0.215992
C185	C	0.245642	-0.412153	-0.240855
C186	C	0.191982	-0.117466	0.367128
C187	C	0.191646	-0.068884	0.391361
C188	C	0.191981	-0.117477	0.294533
C189	C	0.191644	-0.068894	0.318877
C190	C	0.191986	-0.044882	0.367121
C191	C	0.191641	-0.141368	0.318884
C192	C	0.197869	-0.196104	0.366946
C193	C	0.201587	-0.222824	0.389799
C194	C	0.203454	-0.199880	0.437602
C195	C	0.207487	-0.228850	0.462383
C196	C	0.201600	-0.150212	0.462561
C197	C	0.197881	-0.123492	0.439709
C198	C	0.196018	-0.146441	0.391902
C199	C	0.197882	0.027687	0.439871
C200	C	0.201603	0.073543	0.462875
C201	C	0.203468	0.096536	0.438066
C202	C	0.207505	0.146254	0.463005
C203	C	0.201609	0.073681	0.390255
C204	C	0.197887	0.027829	0.367253
C205	C	0.196025	0.004832	0.392062
C206	C	0.197866	-0.196126	0.216080
C207	C	0.201588	-0.222861	0.166502
C208	C	0.203454	-0.199927	0.141634
C209	C	0.207485	-0.228909	0.087881
C210	C	0.201602	-0.150264	0.166336
C211	C	0.197882	-0.123529	0.215912
C212	C	0.196014	-0.146463	0.240782
C213	C	-0.073692	-0.117598	-0.367230
C214	C	-0.098037	-0.141499	-0.391466
C215	C	-0.146287	-0.044997	-0.294638
C216	C	-0.170521	-0.069008	-0.318985
C217	C	-0.146282	-0.117598	-0.367229
C218	C	-0.098042	-0.069008	-0.318986
C219	C	0.004762	-0.123300	-0.367042
C220	C	0.054338	-0.149871	-0.389893
C221	C	0.079204	-0.199547	-0.437696
C222	C	0.132958	-0.228361	-0.462474
C223	C	0.054499	-0.222655	-0.462657
C224	C	0.004926	-0.196084	-0.439809
C225	C	-0.019941	-0.146408	-0.392001
C226	C	-0.146089	-0.196253	-0.439983
C227	C	-0.168937	-0.222981	-0.462989
C228	C	-0.216741	-0.200037	-0.438184
C229	C	-0.241516	-0.229017	-0.463126
C230	C	-0.241705	-0.150362	-0.390372
C231	C	-0.218859	-0.123634	-0.367368
C232	C	-0.171051	-0.146581	-0.392173
C233	C	-0.146103	0.027580	-0.216181
C234	C	-0.168954	0.073441	-0.166603
C235	C	-0.216758	0.096444	-0.141738
C236	C	-0.241539	0.146171	-0.087984
C237	C	-0.241716	0.073590	-0.166443
C238	C	-0.218867	0.027729	-0.216019
C239	C	-0.171061	0.004727	-0.240886
O240	O	0.208906	-0.204910	-0.495882
O241	O	0.232707	-0.286987	-0.437583
O242	O	0.150619	-0.204919	-0.437590
O243	O	0.290994	-0.286978	-0.495876
O244	O	0.150636	-0.271609	-0.504268
O245	O	0.232724	-0.353677	-0.504261
O246	O	0.208923	-0.271600	-0.562560
Cu247	Cu	0.220825	-0.318728	-0.539499
Cu248	Cu	0.220805	-0.239859	-0.460645
O249	O	0.291011	-0.353668	-0.562554
C250	C	-0.412039	0.559118	0.367093
C251	C	-0.460284	0.583019	0.391330
C252	C	-0.412033	0.486516	0.294501
C253	C	-0.460278	0.510527	0.318848
C254	C	-0.484628	0.559117	0.367093
C255	C	-0.387799	0.510528	0.318848
C256	C	-0.339286	0.564820	0.366904
C257	C	-0.316281	0.591391	0.389754
C258	C	-0.341089	0.641067	0.437557
C259	C	-0.316149	0.669881	0.462334
C260	C	-0.388902	0.664175	0.462519
C261	C	-0.411904	0.637603	0.439671
C262	C	-0.387097	0.587928	0.391863
C263	C	-0.563088	0.637772	0.439847
C264	C	-0.612663	0.664500	0.462855
C265	C	-0.637525	0.641557	0.438050
C266	C	-0.691279	0.670536	0.462992
C267	C	-0.612815	0.591882	0.390238
C268	C	-0.563241	0.565154	0.367233
C269	C	-0.538380	0.588101	0.392038
C270	C	-0.339275	0.413939	0.216044
C271	C	-0.316267	0.368079	0.166466
C272	C	-0.341069	0.345076	0.141602
C273	C	-0.316123	0.295348	0.087848
C274	C	-0.388879	0.367930	0.166307
C275	C	-0.411890	0.413790	0.215883
C276	C	-0.387085	0.436793	0.240749
H277	H	-0.280664	0.092368	0.017663
Br278	Br	-0.135801	-0.439297	-0.527495
H279	H	-0.633053	-0.295436	-0.017745
H280	H	-0.451147	-0.082752	0.236334
H281	H	-0.148606	-0.263426	-0.501918
Br282	Br	0.088202	-0.289968	0.016660
Br283	Br	0.190722	-0.035402	0.286300
H284	H	0.238536	-0.650564	-0.369511
H285	H	0.074447	-0.131051	-0.369567
Br286	Br	0.195330	-0.227251	0.249831
Br287	Br	-0.305586	-0.227338	0.249446
Br288	Br	-0.029018	-0.055806	0.025453
Br289	Br	0.204102	-0.290260	0.132981
H290	H	0.203126	0.092411	0.370058
H291	H	0.245298	-0.475729	-0.460157
H292	H	0.196349	-0.214791	0.328020
H293	H	0.203121	-0.131533	0.501488
Br294	Br	-0.251397	0.560029	0.355879
H295	H	-0.451151	-0.082752	0.460088
H296	H	-0.107178	0.008855	-0.236426
H297	H	-0.280633	-0.131683	-0.370178
Br298	Br	-0.065479	-0.522972	-0.286362
Br299	Br	-0.252742	-0.331146	-0.249883
H300	H	0.238553	-0.427544	-0.501897
Br301	Br	-0.251373	-0.662961	-0.016792
H302	H	0.196367	-0.083051	0.460033
H303	H	-0.239274	-0.082768	0.024445
H304	H	-0.633064	0.573202	0.370044
H305	H	0.191105	-0.180470	0.299337
H306	H	0.196373	0.009222	0.328325
Br307	Br	-0.306964	-0.118419	0.016695
Br308	Br	-0.065502	-0.206562	0.030066
Br309	Br	-0.476787	0.668957	0.473545
H310	H	0.238543	-0.295498	-0.370163
H311	H	0.196359	0.008970	0.460077
Br312	Br	-0.081245	-0.003583	0.025437
H313	H	-0.479826	-0.048811	0.431014
Br314	Br	-0.135793	-0.439283	-0.132663
Br315	Br	-0.646183	0.104531	0.355934
H316	H	0.203114	0.092147	0.501804
Br317	Br	-0.028985	-0.055882	-0.302160
Br318	Br	-0.306960	-0.268142	-0.133030
Br319	Br	-0.065467	-0.035515	-0.286404
H320	H	-0.239188	-0.083185	-0.328441
H321	H	-0.409700	-0.130957	0.146399
Br322	Br	-0.252735	-0.003290	-0.249547
H323	H	0.074754	-0.263108	-0.501584
H324	H	0.245289	-0.343688	-0.328417
H325	H	-0.543122	0.524706	0.328305
Br326	Br	0.204138	-0.119138	0.132585
H327	H	-0.239276	-0.343594	-0.328068
H328	H	-0.633067	0.092405	0.501498
Br329	Br	-0.028645	-0.227343	0.025431
Br330	Br	-0.251731	-0.289966	0.132593
Br331	Br	-0.529348	0.668915	0.473514
H332	H	0.245282	-0.343667	-0.236107
H333	H	-0.277337	0.349472	0.146356
H334	H	-0.409098	0.704627	0.501446
H335	H	-0.479831	0.622117	0.430970
Br336	Br	-0.476778	0.444812	0.249411
Br337	Br	-0.305599	-0.502646	-0.025552
Br338	Br	0.088208	-0.663314	-0.356690
Br339	Br	-0.081583	-0.227327	0.025451
H340	H	-0.543125	0.009217	0.460044
Br341	Br	-0.065498	-0.523009	-0.457502
H342	H	-0.015229	-0.567636	-0.328413
H343	H	-0.015188	-0.214899	-0.460134
Br344	Br	-0.135099	0.104492	0.016669
Br345	Br	-0.422553	-0.268459	-0.016719
Br346	Br	-0.081206	-0.227396	-0.473650
H347	H	-0.348159	-0.180491	0.299335
Br348	Br	0.237513	-0.663359	-0.527494
Br349	Br	0.246308	-0.554897	-0.302117
Br350	Br	-0.492858	-0.035431	0.286311
H351	H	-0.015515	-0.567361	-0.460154
Br352	Br	-0.422544	0.336712	0.132561
H353	H	0.238536	-0.295459	-0.146169
Br354	Br	-0.251384	-0.440011	-0.016765
H355	H	-0.210191	-0.377923	-0.299393
Br356	Br	-0.423250	-0.118405	0.527775
Br357	Br	-0.236621	-0.035443	0.030063
Br358	Br	-0.065485	-0.035466	0.030029
Br359	Br	-0.306596	0.104805	-0.132695
Br360	Br	-0.422529	-0.663324	-0.016775
H361	H	-0.078484	-0.180603	-0.431104
Br362	Br	0.250921	-0.351912	-0.286382
Br363	Br	-0.135081	0.104452	-0.133077
H364	H	0.074413	-0.130975	0.017684
H365	H	-0.479821	0.490430	0.299300
Br366	Br	0.190730	-0.035381	0.457432
Br367	Br	-0.081571	-0.502285	-0.249517
H368	H	0.196375	-0.083091	0.236023
H369	H	-0.348172	0.490460	0.299290
H370	H	-0.210164	-0.048905	-0.299438
H371	H	-0.239218	0.009188	0.024424
Br372	Br	-0.305610	0.445153	0.249791
H373	H	-0.319082	0.524368	0.327978
H374	H	-0.632776	0.704945	0.501784
H375	H	-0.149276	-0.262989	0.017692
Br376	Br	-0.306966	-0.268152	-0.355965
H377	H	-0.107532	-0.475330	-0.460094
Br378	Br	-0.251726	-0.289955	0.356602
H379	H	-0.479812	-0.377937	-0.029775
Br380	Br	0.087829	-0.662955	-0.527851
H381	H	-0.479806	-0.509614	-0.029790
Br382	Br	-0.321719	-0.523000	-0.030150
Br383	Br	0.250963	-0.523082	-0.457516
Br384	Br	0.204100	-0.290224	0.355929
Br385	Br	-0.529692	-0.331112	-0.025530
H386	H	0.250555	-0.509636	-0.299401
Br387	Br	-0.476754	-0.555243	-0.025544
Br388	Br	-0.305600	-0.554876	-0.025547
Br389	Br	-0.529319	-0.502645	-0.025544
H390	H	-0.632748	-0.427483	-0.017780
H391	H	-0.450817	-0.343631	-0.024494
Br392	Br	-0.529338	-0.003554	0.302071
H393	H	-0.319130	-0.214784	0.328339
H394	H	0.238556	-0.427487	-0.146455
H395	H	0.245307	-0.475699	-0.236388
Br396	Br	0.246277	-0.555269	-0.473640
