data_functionalizedCrystal
_audit_creation_method	'MofGen! by Chris Wilmer'
_symmetry_space_group_name_H-M	'P1'
_symmetry_Int_Tables_number	1
_symmetry_cell_setting	triclinic
loop_
_symmetry_equiv_pos_as_xyz
  x,y,z
_cell_length_a	14.908183
_cell_length_b	21.295418
_cell_length_c	14.908308
_cell_angle_alpha	86.746315
_cell_angle_beta	89.779152
_cell_angle_gamma	86.668613
loop_
_atom_site_label
_atom_site_type_symbol
_atom_site_fract_x
_atom_site_fract_y
_atom_site_fract_z
Zn1	Zn	-0.386929	-0.927129	-0.488292
Zn2	Zn	-0.053596	-0.593795	-0.154959
Zn3	Zn	0.279737	-0.260462	0.178374
Zn4	Zn	-0.528639	-0.927763	-0.329256
Zn5	Zn	-0.195305	-0.594429	0.004078
Zn6	Zn	0.138028	-0.261096	0.337411
Zn7	Zn	-0.378330	-0.828266	-0.337890
Zn8	Zn	-0.044997	-0.494932	-0.004556
Zn9	Zn	0.288337	-0.161599	0.328777
Zn10	Zn	-0.537302	-0.816143	-0.479498
Zn11	Zn	-0.203968	-0.482809	-0.146165
Zn12	Zn	0.129365	-0.149476	0.187168
O13	O	-0.457800	-0.874825	-0.408734
O14	O	-0.124467	-0.541492	-0.075401
O15	O	0.208867	-0.208158	0.257933
O16	O	-0.405701	-1.015300	-0.467263
O17	O	-0.072367	-0.681967	-0.133929
O18	O	0.260966	-0.348634	0.199404
O19	O	-0.501476	-0.919903	-0.204580
O20	O	-0.168142	-0.586570	0.128754
O21	O	0.165191	-0.253236	0.462087
O22	O	-0.253635	-0.846188	-0.365135
O23	O	0.079699	-0.512855	-0.031801
O24	O	0.413032	-0.179521	0.301532
O25	O	-0.509814	-1.015766	-0.350419
O26	O	-0.176481	-0.682433	-0.017086
O27	O	0.156853	-0.349100	0.316248
O28	O	-0.259952	-0.918822	-0.475635
O29	O	0.073381	-0.585489	-0.142302
O30	O	0.406714	-0.252156	0.191032
O31	O	-0.391045	-0.846803	-0.210923
O32	O	-0.057711	-0.513470	0.122410
O33	O	0.275622	-0.180136	0.455743
O34	O	-0.399445	-0.738570	-0.356608
O35	O	-0.066111	-0.405236	-0.023274
O36	O	0.267222	-0.071903	0.310059
O37	O	-0.524579	-0.825526	-0.606486
O38	O	-0.191245	-0.492193	-0.273153
O39	O	0.142088	-0.158860	0.060181
O40	O	-0.516240	-0.729663	-0.460647
O41	O	-0.182907	-0.396330	-0.127314
O42	O	0.150426	-0.062996	0.206020
O43	O	-0.414101	-0.907067	-0.612947
O44	O	-0.080767	-0.573734	-0.279614
O45	O	0.252566	-0.240401	0.053720
O46	O	-0.655624	-0.908148	-0.341892
O47	O	-0.322291	-0.574815	-0.008558
O48	O	0.011043	-0.241481	0.324775
O49	O	-0.661988	-0.826141	-0.452275
O50	O	-0.328655	-0.492808	-0.118941
O51	O	0.004678	-0.159475	0.214392
C52	C	-0.457850	-0.711276	-0.408610
C53	C	-0.124517	-0.377943	-0.075277
C54	C	0.208817	-0.044609	0.258056
C55	C	-0.457894	-0.641308	-0.408578
C56	C	-0.124561	-0.307974	-0.075244
C57	C	0.208772	0.025359	0.258089
C58	C	-0.518783	-0.603821	-0.462657
C59	C	-0.185450	-0.270487	-0.129324
C60	C	0.147884	0.062846	0.204010
C61	C	-0.518767	-0.538077	-0.462692
C62	C	-0.185433	-0.204744	-0.129358
C63	C	0.147900	0.128589	0.203975
C64	C	-0.457870	-0.509824	-0.408630
C65	C	-0.124537	-0.176491	-0.075297
C66	C	0.208796	0.156843	0.258036
C67	C	-0.396970	-0.547319	-0.354548
C68	C	-0.063637	-0.213986	-0.021214
C69	C	0.269696	0.119347	0.312119
C70	C	-0.396982	-0.613061	-0.354521
C71	C	-0.063649	-0.279728	-0.021188
C72	C	0.269684	0.053605	0.312145
N73	N	-0.446316	-0.410169	-0.330385
N74	N	-0.112982	-0.076835	0.002948
N75	N	0.220351	0.256498	0.336282
N76	N	-0.446310	-0.347716	-0.330412
N77	N	-0.112976	-0.014383	0.002921
N78	N	0.220357	0.318950	0.336254
C79	C	-0.457829	-0.311748	-0.408708
C80	C	-0.124496	0.021586	-0.075375
C81	C	0.208838	0.354919	0.257959
N82	N	-0.469372	-0.340590	-0.486976
N83	N	-0.136039	-0.007257	-0.153643
N84	N	0.197294	0.326077	0.179691
N85	N	-0.469383	-0.403048	-0.486947
N86	N	-0.136050	-0.069714	-0.153614
N87	N	0.197284	0.263619	0.179719
C88	C	-0.457850	-0.438538	-0.408653
C89	C	-0.124517	-0.105205	-0.075320
C90	C	0.208817	0.228128	0.258013
C91	C	-0.518703	-0.202974	-0.462830
C92	C	-0.185370	0.130359	-0.129496
C93	C	0.147963	0.463693	0.203837
C94	C	-0.518681	-0.137230	-0.462866
C95	C	-0.185347	0.196103	-0.129533
C96	C	0.147986	0.529437	0.203800
C97	C	-0.396889	-0.146473	-0.354714
C98	C	-0.063556	0.186860	-0.021381
C99	C	0.269778	0.520193	0.311953
C100	C	-0.396907	-0.212216	-0.354686
C101	C	-0.063574	0.121117	-0.021352
C102	C	0.269760	0.454450	0.311981
C103	C	-0.457819	-0.240463	-0.408742
C104	C	-0.124486	0.092871	-0.075409
C105	C	0.208848	0.426204	0.257925
C106	C	-0.691435	-0.865914	-0.395212
C107	C	-0.358102	-0.532581	-0.061878
C108	C	-0.024769	-0.199247	0.271455
C109	C	-0.791387	-0.862158	-0.389457
C110	C	-0.458054	-0.528825	-0.056123
C111	C	-0.124720	-0.195492	0.277210
C112	C	-0.929048	-0.819083	-0.323767
C113	C	-0.595714	-0.485750	0.009566
C114	C	-0.262381	-0.152417	0.342900
C115	C	-0.835134	-0.822610	-0.329172
C116	C	-0.501801	-0.489277	0.004161
C117	C	-0.168467	-0.155943	0.337494
C118	C	-0.841561	-0.898182	-0.444342
C119	C	-0.508227	-0.564848	-0.111009
C120	C	-0.174894	-0.231515	0.222325
C121	C	-0.935475	-0.894655	-0.438937
C122	C	-0.602141	-0.561322	-0.105603
C123	C	-0.268808	-0.227988	0.227730
C124	C	-0.979215	-0.855105	-0.378646
C125	C	-0.645881	-0.521772	-0.045313
C126	C	-0.312548	-0.188439	0.288020
C127	C	-1.073130	-0.851583	-0.373237
C128	C	-0.739797	-0.518249	-0.039904
C129	C	-0.406463	-0.184916	0.293430
C130	C	-1.079555	-0.927150	-0.488411
C131	C	-0.746222	-0.593817	-0.155077
C132	C	-0.412889	-0.260484	0.178256
C133	C	-0.985641	-0.930677	-0.493816
C134	C	-0.652308	-0.597344	-0.160483
C135	C	-0.318975	-0.264010	0.172851
C136	C	-0.223253	-0.883787	-0.422329
C137	C	0.110080	-0.550453	-0.088996
C138	C	0.443413	-0.217120	0.244338
C139	C	-0.123304	-0.887606	-0.428122
C140	C	0.210030	-0.554272	-0.094789
C141	C	0.543363	-0.220939	0.238544
C142	C	-0.471265	-0.864874	-0.643253
C143	C	-0.137932	-0.531540	-0.309919
C144	C	0.195402	-0.198207	0.023414
C145	C	-0.477003	-0.860633	-0.743190
C146	C	-0.143670	-0.527300	-0.409857
C147	C	0.189663	-0.193967	-0.076524
C148	C	-0.457764	-0.039013	-0.408832
C149	C	-0.124430	0.294321	-0.075499
C150	C	0.208903	0.627654	0.257835
C151	C	-0.457783	-0.108981	-0.408805
C152	C	-0.124450	0.224352	-0.075472
C153	C	0.208884	0.557686	0.257861
C154	C	-0.372724	-0.937572	-0.937715
C155	C	-0.039391	-0.604239	-0.604382
C156	C	0.293943	-0.270906	-0.271048
C157	C	-0.378112	-0.933590	-1.031616
C158	C	-0.044779	-0.600257	-0.698282
C159	C	0.288554	-0.266923	-0.364949
C160	C	-0.493163	-0.848684	-1.024895
C161	C	-0.159830	-0.515351	-0.691561
C162	C	0.173504	-0.182017	-0.358228
C163	C	-0.487775	-0.852666	-0.930994
C164	C	-0.154441	-0.519333	-0.597661
C165	C	0.178892	-0.185999	-0.264327
C166	C	-0.427554	-0.897112	-0.887407
C167	C	-0.094221	-0.563779	-0.554074
C168	C	0.239113	-0.230446	-0.220741
C169	C	-0.422171	-0.901097	-0.793505
C170	C	-0.088838	-0.567764	-0.460171
C171	C	0.244496	-0.234431	-0.126838
C172	C	-0.537216	-0.816189	-0.786786
C173	C	-0.203883	-0.482855	-0.453452
C174	C	0.129450	-0.149522	-0.120119
C175	C	-0.542605	-0.812206	-0.880686
C176	C	-0.209271	-0.478873	-0.547353
C177	C	0.124062	-0.145540	-0.214020
C178	C	-0.444322	-0.884776	-0.175132
C179	C	-0.110989	-0.551443	0.158202
C180	C	0.222344	-0.218109	0.491535
C181	C	-0.438331	-0.889148	-0.075209
C182	C	-0.104997	-0.555815	0.258124
C183	C	0.228336	-0.222481	0.591458
H184	H	-0.347397	-0.643584	-0.310483
H185	H	-0.014064	-0.310250	0.022850
H186	H	0.319270	0.023083	0.356183
N187	N	-0.940972	-0.971084	-0.555393
N188	N	-0.607639	-0.637751	-0.222060
N189	N	-0.274305	-0.304417	0.111274
N190	N	-0.985778	-1.003247	-0.604382
N191	N	-0.652444	-0.669914	-0.271049
N192	N	-0.319111	-0.336580	0.062284
H193	H	-0.954232	-1.031788	-0.647871
H194	H	-0.620899	-0.698455	-0.314537
H195	H	-0.287566	-0.365121	0.018796
H196	H	-0.568381	-0.626814	-0.506675
H197	H	-0.235048	-0.293481	-0.173342
H198	H	0.098286	0.039852	0.159991
H199	H	-0.347329	-0.242739	-0.310643
H200	H	-0.013996	0.090594	0.022690
H201	H	0.319337	0.423928	0.356023
H202	H	-1.108741	-0.819380	-0.324144
H203	H	-0.775408	-0.486047	0.009189
H204	H	-0.442075	-0.152714	0.342523
H205	H	-0.805936	-0.930377	-0.493435
H206	H	-0.472602	-0.597044	-0.160102
H207	H	-0.139269	-0.263711	0.173232
H208	H	-1.120411	-0.956484	-0.533095
H209	H	-0.787078	-0.623151	-0.199762
H210	H	-0.453745	-0.289817	0.133571
H211	H	-0.568297	-0.225973	-0.506850
H212	H	-0.234964	0.107360	-0.173517
H213	H	0.098370	0.440693	0.159816
N214	N	-0.311216	-0.982964	-0.893173
N215	N	0.022117	-0.649631	-0.559839
N216	N	0.355451	-0.316298	-0.226506
N217	N	-0.306412	-0.986512	-0.809333
N218	N	0.026921	-0.653179	-0.476000
N219	N	0.360254	-0.319845	-0.142667
H220	H	-0.262971	-1.018571	-0.777874
H221	H	0.070362	-0.685237	-0.444541
H222	H	0.403696	-0.351904	-0.111208
N223	N	-0.360646	-0.946493	-0.748995
N224	N	-0.027313	-0.613160	-0.415661
N225	N	0.306021	-0.279827	-0.082328
N226	N	-0.278275	-0.945035	-0.764290
N227	N	0.055059	-0.611702	-0.430957
N228	N	0.388392	-0.278369	-0.097624
H229	H	-0.234817	-0.977096	-0.732858
H230	H	0.098516	-0.643763	-0.399525
H231	H	0.431849	-0.310429	-0.066192
H232	H	-0.333462	-0.966535	-1.072573
H233	H	-0.000128	-0.633202	-0.739240
H234	H	0.333205	-0.299868	-0.405906
N235	N	-0.554656	-0.803284	-1.069441
N236	N	-0.221323	-0.469950	-0.736107
N237	N	0.112011	-0.136617	-0.402774
N238	N	-0.559448	-0.799732	-1.153281
N239	N	-0.226114	-0.466399	-0.819948
N240	N	0.107219	-0.133066	-0.486614
H241	H	-0.602877	-0.767667	-1.184744
H242	H	-0.269543	-0.434334	-0.851410
H243	H	0.063790	-0.101000	-0.518077
N244	N	-0.593212	-0.774853	-0.735387
N245	N	-0.259879	-0.441519	-0.402054
N246	N	0.073455	-0.108186	-0.068721
N247	N	-0.558580	-0.738171	-0.684794
N248	N	-0.225246	-0.404837	-0.351461
N249	N	0.108087	-0.071504	-0.018128
H250	H	-0.598125	-0.708977	-0.648494
H251	H	-0.264792	-0.375644	-0.315160
H252	H	0.068541	-0.042311	0.018173
H253	H	-0.568262	-0.106708	-0.506910
H254	H	-0.234929	0.226625	-0.173576
H255	H	0.098405	0.559958	0.159757
N256	N	-0.604096	-0.766800	-0.925223
N257	N	-0.270762	-0.433467	-0.591889
N258	N	0.062571	-0.100133	-0.258556
N259	N	-0.575466	-0.725676	-0.979421
N260	N	-0.242133	-0.392342	-0.646087
N261	N	0.091200	-0.059009	-0.312754
H262	H	-0.618893	-0.693606	-1.010877
H263	H	-0.285560	-0.360273	-0.677544
H264	H	0.047773	-0.026939	-0.344210
N265	N	-0.580982	-0.499785	-0.517928
N266	N	-0.247648	-0.166451	-0.184595
N267	N	0.085685	0.166882	0.148739
N268	N	-0.663598	-0.504191	-0.507012
N269	N	-0.330265	-0.170858	-0.173679
N270	N	0.003068	0.162475	0.159655
H271	H	-0.707540	-0.477149	-0.546021
H272	H	-0.374207	-0.143816	-0.212688
H273	H	-0.040873	0.189518	0.120646
N274	N	-0.334766	-0.518452	-0.299337
N275	N	-0.001433	-0.185119	0.033996
N276	N	0.331900	0.148214	0.367330
N277	N	-0.334763	-0.459754	-0.299367
N278	N	-0.001430	-0.126421	0.033966
N279	N	0.331903	0.206912	0.367300
H280	H	-0.290827	-0.439366	-0.260376
H281	H	0.042506	-0.106033	0.072957
H282	H	0.375840	0.227300	0.406290
N283	N	-0.973717	-0.778704	-0.262155
N284	N	-0.640384	-0.445370	0.071179
N285	N	-0.307050	-0.112037	0.404512
N286	N	-0.928913	-0.746557	-0.213141
N287	N	-0.595579	-0.413223	0.120192
N288	N	-0.262246	-0.079890	0.453525
H289	H	-0.960458	-0.718043	-0.169618
H290	H	-0.627125	-0.384709	0.163715
H291	H	-0.293791	-0.051376	0.497048
N292	N	-0.334670	-0.117633	-0.299492
N293	N	-0.001337	0.215700	0.033841
N294	N	0.331997	0.549033	0.367174
N295	N	-0.252055	-0.127918	-0.310392
N296	N	0.081278	0.205415	0.022941
N297	N	0.414611	0.538748	0.356275
H298	H	-0.208107	-0.107549	-0.271392
H299	H	0.125226	0.225784	0.061941
H300	H	0.458559	0.559118	0.395275
N301	N	-0.783903	-0.785807	-0.273113
N302	N	-0.450570	-0.452473	0.060220
N303	N	-0.117236	-0.119140	0.393554
N304	N	-0.822972	-0.750497	-0.219293
N305	N	-0.489639	-0.417163	0.114041
N306	N	-0.156306	-0.083830	0.447374
H307	H	-0.786791	-0.724501	-0.179699
H308	H	-0.453458	-0.391168	0.153634
H309	H	-0.120125	-0.057835	0.486967
