data_functionalizedCrystal
_audit_creation_method	'MofGen! by Chris Wilmer'
_symmetry_space_group_name_H-M	'P1'
_symmetry_Int_Tables_number	1
_symmetry_cell_setting	triclinic
loop_
_symmetry_equiv_pos_as_xyz
  x,y,z
_cell_length_a	17.699083
_cell_length_b	13.101039
_cell_length_c	17.699083
_cell_angle_alpha	86.645432
_cell_angle_beta	96.717152
_cell_angle_gamma	86.649948
loop_
_atom_site_label
_atom_site_type_symbol
_atom_site_fract_x
_atom_site_fract_y
_atom_site_fract_z
O1	O	-1.008247	0.085199	0.091524
O2	O	-0.787869	0.085205	0.103977
O3	O	-0.904283	0.085193	-0.012438
O4	O	-0.891832	0.085211	0.207939
O5	O	-0.895931	-0.085236	-0.004072
O6	O	-0.779516	-0.085224	0.112343
O7	O	-0.999894	-0.085230	0.099890
Zn8	Zn	-0.888379	-0.112286	0.107445
Zn9	Zn	-0.899384	0.112261	0.096422
O10	O	-0.883479	-0.085218	0.216306
C11	C	-0.755495	-0.000009	0.107714
C12	C	-0.671477	-0.000007	0.106375
N13	N	-0.880874	-0.265534	0.114968
C14	C	-0.627457	-0.092908	0.110305
C15	C	-0.548515	-0.092909	0.109036
C16	C	-0.513593	-0.000007	0.103842
C17	C	-0.557620	0.092902	0.099909
C18	C	-0.636561	0.092902	0.101173
C19	C	-0.239257	0.092904	0.094810
C20	C	-0.160310	0.092897	0.093548
C21	C	-0.151211	-0.092906	0.102672
C22	C	-0.230152	-0.092907	0.103936
C23	C	-0.274172	0.000002	0.100000
C24	C	-0.359771	0.000002	0.101375
C25	C	-0.427996	-0.000006	0.102472
C26	C	-0.870663	-0.474575	0.125209
C27	C	-0.917103	-0.525456	0.078654
C28	C	-0.911422	-0.641774	0.084353
C29	C	-0.876343	-0.358247	0.119512
C30	C	-0.032268	-0.000013	0.096149
C31	C	-0.116288	-0.000005	0.097473
C32	C	-0.899661	-0.000022	-0.036452
C33	C	-0.898322	-0.000022	-0.120470
N34	N	-0.906895	0.265509	0.088894
C35	C	-0.966656	-0.000025	-0.169091
C36	C	-0.965394	-0.000016	-0.248035
C37	C	-0.895797	-0.000011	-0.278356
C38	C	-0.827459	-0.000005	-0.229729
C39	C	-0.828722	-0.000007	-0.150787
C40	C	-0.822364	0.000004	-0.548092
C41	C	-0.821106	0.000002	-0.627040
C42	C	-0.959036	-0.000006	-0.645340
C43	C	-0.960299	-0.000008	-0.566398
C44	C	-0.891961	0.000004	-0.517779
C45	C	-0.893330	-0.000004	-0.432179
C46	C	-0.894427	-0.000011	-0.363953
C47	C	-0.888102	-0.000001	0.240319
C48	C	-0.889441	0.000006	0.324337
H49	H	-0.655883	-0.168560	0.114541
N50	N	-0.267816	-0.193109	0.109531
H51	H	-0.324505	-0.179012	0.109735
H52	H	-0.245806	-0.233679	0.158201
H53	H	-0.275090	0.168556	0.091602
N54	N	-0.519961	0.193106	0.094297
H55	H	-0.463271	0.179011	0.094094
H56	H	-0.529523	0.233684	0.139425
H57	H	-0.826640	-0.518368	0.169344
H58	H	-0.961130	-0.481658	0.034518
H59	H	-1.023329	-0.000036	-0.144410
N60	N	-1.039095	-0.000029	-0.300477
H61	H	-1.072568	0.063141	-0.293837
H62	H	-1.066299	-0.063257	-0.287614
H63	H	-1.014680	-0.000010	-0.684937
H64	H	-0.512678	-0.168559	0.112223
N65	N	-1.035362	-0.000022	-0.533694
H66	H	-1.078461	-0.000021	-0.576476
H67	H	-1.041986	0.063157	-0.504437
H68	H	-0.764429	0.000005	-0.651724
N69	N	-0.752394	-0.000009	-0.262430
H70	H	-0.709297	-0.000006	-0.219648
H71	H	-0.751960	0.063169	-0.297885
N72	N	-0.748661	0.000012	-0.495658
H73	H	-0.704382	0.000010	-0.526847
H74	H	-0.743083	-0.063168	-0.459407
N75	N	-0.755021	0.000003	-0.098342
H76	H	-0.710739	0.000006	-0.129527
H77	H	-0.749442	-0.063175	-0.062089
H78	H	-0.131880	0.168554	0.089318
N79	N	-0.103731	-0.193118	0.106916
H80	H	-0.048291	-0.179032	0.106382
H81	H	-0.121078	-0.233077	0.061668
H82	H	-0.672402	0.168552	0.097975
