data_functionalizedCrystal
_audit_creation_method	'MofGen! by Chris Wilmer'
_symmetry_space_group_name_H-M	'P1'
_symmetry_Int_Tables_number	1
_symmetry_cell_setting	triclinic
loop_
_symmetry_equiv_pos_as_xyz
  x,y,z
_cell_length_a	12.645331
_cell_length_b	29.839131
_cell_length_c	12.645323
_cell_angle_alpha	89.967288
_cell_angle_beta	89.977324
_cell_angle_gamma	90.040399
loop_
_atom_site_label
_atom_site_type_symbol
_atom_site_fract_x
_atom_site_fract_y
_atom_site_fract_z
Zn1	Zn	1.620556	-0.178862	-0.599388
Zn2	Zn	2.120556	0.321138	-0.099388
Zn3	Zn	1.620365	-0.253994	-0.422104
Zn4	Zn	2.120365	0.246006	0.077896
Zn5	Zn	1.443271	-0.178877	-0.422133
Zn6	Zn	1.943271	0.321123	0.077867
Zn7	Zn	1.443179	-0.253964	-0.599320
Zn8	Zn	1.943179	0.246036	-0.099320
O9	O	1.531843	-0.216424	-0.510736
O10	O	2.031843	0.283576	-0.010736
O11	O	1.768878	-0.188834	-0.575888
O12	O	2.268878	0.311166	-0.075888
O13	O	1.596831	-0.244048	-0.273761
O14	O	2.096831	0.255952	0.226239
O15	O	1.466907	-0.116008	-0.445687
O16	O	1.966907	0.383992	0.054313
O17	O	1.768737	-0.244033	-0.445638
O18	O	2.268737	0.255967	0.054362
O19	O	1.597158	-0.115997	-0.575916
O20	O	2.097158	0.384003	-0.075916
O21	O	1.466721	-0.188860	-0.273782
O22	O	1.966721	0.311140	0.226218
O23	O	1.294912	-0.188832	-0.445620
O24	O	1.794912	0.311168	0.054380
O25	O	1.466751	-0.243983	-0.747676
O26	O	1.966751	0.256017	-0.247676
O27	O	1.294844	-0.243998	-0.575799
O28	O	1.794844	0.256002	-0.075799
O29	O	1.597069	-0.188806	-0.747727
O30	O	2.097069	0.311194	-0.247727
O31	O	1.596742	-0.316857	-0.445571
O32	O	2.096742	0.183143	0.054429
O33	O	1.466565	-0.316835	-0.575771
O34	O	1.966565	0.183165	-0.075771
C35	C	1.256413	-0.216414	-0.510706
C36	C	1.756413	0.283586	-0.010706
C37	C	1.138583	-0.216420	-0.510718
C38	C	1.638583	0.283580	-0.010718
C39	C	0.971026	-0.181555	-0.429274
C40	C	1.471026	0.318445	0.070726
C41	C	1.093586	-0.181645	-0.428915
C42	C	1.593586	0.318355	0.071085
C43	C	1.094017	-0.263746	-0.480188
C44	C	1.594017	0.236254	0.019812
C45	C	0.971418	-0.263555	-0.479632
C46	C	1.471418	0.236445	0.020368
C47	C	0.971445	-0.204409	-0.623006
C48	C	1.471445	0.295591	-0.123006
C49	C	1.094052	-0.203352	-0.622382
C50	C	1.594052	0.296648	-0.122382
C51	C	1.531651	-0.333147	-0.510684
C52	C	2.031651	0.166853	-0.010684
C53	C	1.531667	-0.383081	-0.510697
C54	C	2.031667	0.116919	-0.010697
C55	C	1.599749	-0.692723	-0.443041
C56	C	2.099749	-0.192723	0.056959
C57	C	1.599880	-0.880396	-0.443082
C58	C	2.099880	-0.380396	0.056918
O59	O	1.657615	-0.904660	-0.385518
O60	O	2.157615	-0.404660	0.114482
N61	N	1.532063	-0.903866	-0.510816
N62	N	2.032063	-0.403866	-0.010816
C63	C	1.464212	-0.880415	-0.578550
C64	C	1.964212	-0.380415	-0.078550
O65	O	1.406540	-0.904684	-0.636171
O66	O	1.906540	-0.404684	-0.136171
C67	C	1.464088	-0.692743	-0.578514
C68	C	1.964088	-0.192743	-0.078514
C69	C	1.531902	-0.669275	-0.510767
C70	C	2.031902	-0.169275	-0.010767
C71	C	1.667559	-0.669256	-0.375300
C72	C	2.167559	-0.169256	0.124700
C73	C	1.667522	-0.622340	-0.375287
C74	C	2.167522	-0.122340	0.124713
C75	C	1.599674	-0.598892	-0.443013
C76	C	2.099674	-0.098892	0.056987
C77	C	1.531865	-0.622360	-0.510753
C78	C	2.031865	-0.122360	-0.010753
C79	C	1.396244	-0.669293	-0.646252
C80	C	1.896244	-0.169293	-0.146252
C81	C	1.396220	-0.622372	-0.646239
C82	C	1.896220	-0.122372	-0.146239
C83	C	1.464035	-0.598904	-0.578492
C84	C	1.964035	-0.098904	-0.078492
C85	C	1.463980	-0.551997	-0.578466
C86	C	1.963980	-0.051997	-0.078466
N87	N	1.531798	-0.528527	-0.510732
N88	N	2.031798	-0.028527	-0.010732
C89	C	1.599645	-0.551975	-0.443005
C90	C	2.099645	-0.051975	0.056995
C91	C	1.464281	-0.978946	-0.578563
C92	C	1.964281	-0.478946	-0.078563
C93	C	1.464311	-1.025864	-0.578571
C94	C	1.964311	-0.525864	-0.078571
C95	C	1.599980	-1.025842	-0.443104
C96	C	2.099980	-0.525842	0.056896
C97	C	1.599945	-0.978923	-0.443091
C98	C	2.099945	-0.478923	0.056909
C99	C	1.532099	-0.955476	-0.510829
C100	C	2.032099	-0.455476	-0.010829
C101	C	1.599560	-0.453449	-0.442981
C102	C	2.099560	0.046551	0.057019
C103	C	1.599514	-0.406529	-0.442970
C104	C	2.099514	0.093471	0.057030
C105	C	1.463849	-0.406555	-0.578441
C106	C	1.963849	0.093445	-0.078441
C107	C	1.463891	-0.453471	-0.578448
C108	C	1.963891	0.046529	-0.078448
C109	C	1.531755	-0.476916	-0.510715
C110	C	2.031755	0.023084	-0.010715
O111	O	1.406284	-0.527704	-0.636009
O112	O	1.906284	-0.027704	-0.136009
O113	O	1.657325	-0.527697	-0.385409
O114	O	2.157325	-0.027697	0.114591
C115	C	1.599787	-0.739639	-0.443054
C116	C	2.099787	-0.239639	0.056946
C117	C	1.531977	-0.763106	-0.510794
C118	C	2.031977	-0.263106	-0.010794
C119	C	1.464130	-0.739659	-0.578521
C120	C	1.964130	-0.239659	-0.078521
C121	C	1.532007	-0.810024	-0.510802
C122	C	2.032007	-0.310024	-0.010802
C123	C	1.599854	-0.833472	-0.443076
C124	C	2.099854	-0.333472	0.056924
C125	C	1.667672	-0.810002	-0.375341
C126	C	2.167672	-0.310002	0.124659
C127	C	1.667634	-0.763087	-0.375328
C128	C	2.167634	-0.263087	0.124672
C129	C	1.396312	-0.763129	-0.646256
C130	C	1.896312	-0.263129	-0.146256
C131	C	1.396354	-0.810044	-0.646263
C132	C	1.896354	-0.310044	-0.146263
C133	C	1.464202	-0.833492	-0.578536
C134	C	1.964202	-0.333492	-0.078536
C135	C	1.808348	-0.216435	-0.510768
C136	C	2.308348	0.283565	-0.010768
C137	C	1.926178	-0.216440	-0.510781
C138	C	2.426178	0.283560	-0.010781
C139	C	1.531921	-0.216390	-0.787242
C140	C	2.031921	0.283610	-0.287242
C141	C	1.531954	-0.216375	-0.905072
C142	C	2.031954	0.283625	-0.405072
C143	C	1.532064	-0.099246	-0.510812
C144	C	2.032064	0.400754	-0.010812
C145	C	1.532158	-0.049312	-0.510845
C146	C	2.032158	0.450688	-0.010845
C147	C	1.449718	-0.250923	-1.072604
C148	C	1.949718	0.249077	-0.572604
C149	C	1.449934	-0.251094	-0.950044
C150	C	1.949934	0.248906	-0.450044
C151	C	1.643641	-0.229224	-0.949588
C152	C	2.143641	0.270776	-0.449588
C153	C	1.643190	-0.229441	-1.072186
C154	C	2.143190	0.270559	-0.572186
C155	C	1.503559	-0.168784	-1.072285
C156	C	2.003559	0.331216	-0.572285
C157	C	1.501067	-0.169069	-0.949679
C158	C	2.001067	0.330931	-0.449679
C159	C	1.531826	-0.216427	-0.235307
C160	C	2.031826	0.283573	0.264693
C161	C	1.531998	-0.216315	-0.117477
C162	C	2.031998	0.283685	0.382523
H163	H	1.123721	-0.146552	-0.448053
H164	H	1.623721	0.353448	0.051947
Cl165	Cl	1.310998	-0.698783	-0.731438
Cl166	Cl	1.810998	-0.198783	-0.231438
Cl167	Cl	0.927171	-0.279305	-0.352964
Cl168	Cl	1.427171	0.220695	0.147036
H169	H	1.468704	-0.286331	-0.920719
H170	H	1.968704	0.213669	-0.420719
Cl171	Cl	0.923368	-0.193686	-0.301635
Cl172	Cl	1.423368	0.306314	0.198365
H173	H	1.341064	-0.744041	-0.701408
H174	H	1.841064	-0.244041	-0.201408
H175	H	0.940582	-0.170502	-0.650768
H176	H	1.440582	0.329498	-0.150768
H177	H	1.124662	-0.274123	-0.399026
H178	H	1.624662	0.225877	0.100974
H179	H	1.418876	-0.159379	-0.920582
H180	H	1.918876	0.340621	-0.420582
Cl181	Cl	1.322065	-0.238678	-0.903568
Cl182	Cl	1.822065	0.261322	-0.403568
Cl183	Cl	1.139057	-0.149587	-0.657941
Cl184	Cl	1.639057	0.350413	-0.157941
Cl185	Cl	0.926665	-0.243637	-0.716769
Cl186	Cl	1.426665	0.256363	-0.216769
H187	H	1.124687	-0.226907	-0.686360
H188	H	1.624687	0.273093	-0.186360
Cl189	Cl	1.685272	-1.055327	-0.357961
Cl190	Cl	2.185272	-0.555327	0.142039
H191	H	1.655165	-0.959818	-0.387927
H192	H	2.155165	-0.459818	0.112073
Cl193	Cl	1.379042	-1.055360	-0.663729
Cl194	Cl	1.879042	-0.555360	-0.163729
H195	H	1.722745	-0.603236	-0.320125
H196	H	2.222745	-0.103236	0.179875
H197	H	1.668166	-0.263606	-0.918888
H198	H	2.168166	0.236394	-0.418888
Cl199	Cl	1.138996	-0.304949	-0.568971
Cl200	Cl	1.638996	0.195051	-0.068971
Cl201	Cl	1.740831	-0.191538	-0.904622
Cl202	Cl	2.240831	0.308462	-0.404622
Cl203	Cl	1.321462	-0.238627	-1.118102
Cl204	Cl	1.821462	0.261373	-0.618102
H205	H	1.409030	-0.959858	-0.633725
H206	H	1.909030	-0.459858	-0.133725
Cl207	Cl	1.684773	-0.377030	-0.357797
Cl208	Cl	2.184773	0.122970	0.142203
Cl209	Cl	0.925604	-0.305045	-0.567280
Cl210	Cl	1.425604	0.194955	-0.067280
H211	H	1.654824	-0.472533	-0.387828
H212	H	2.154824	0.027467	0.112172
H213	H	1.722814	-0.688342	-0.320149
H214	H	2.222814	-0.188342	0.179851
H215	H	1.340973	-0.603284	-0.701402
H216	H	1.840973	-0.103284	-0.201402
Cl217	Cl	1.378616	-0.482974	-0.663595
Cl218	Cl	1.878616	0.017026	-0.163595
H219	H	1.408605	-0.387457	-0.633580
H220	H	1.908605	0.112543	-0.133580
H221	H	1.722855	-0.743983	-0.320162
H222	H	2.222855	-0.243983	0.179838
Cl223	Cl	1.478351	-0.304980	-1.120245
Cl224	Cl	1.978351	0.195020	-0.620245
Cl225	Cl	1.752962	-0.839488	-0.290198
Cl226	Cl	2.252962	-0.339488	0.209802
Cl227	Cl	1.680412	-0.283086	-1.116346
Cl228	Cl	2.180412	0.216914	-0.616346
Cl229	Cl	1.586850	-0.127153	-0.902433
Cl230	Cl	2.086850	0.372847	-0.402433
Cl231	Cl	1.311092	-0.839540	-0.731438
Cl232	Cl	1.811092	-0.339540	-0.231438
H233	H	0.941597	-0.146356	-0.448207
H234	H	1.441597	0.353644	0.051793
Cl235	Cl	1.740989	-0.192188	-1.118024
Cl236	Cl	2.240989	0.307812	-0.618024
H237	H	1.423538	-0.157071	-1.103193
H238	H	1.923538	0.342929	-0.603193
H239	H	1.563489	-0.142999	-1.101307
H240	H	2.063489	0.357001	-0.601307
H241	H	1.122856	-0.189597	-0.345753
H242	H	1.622856	0.310403	0.154247
