data_functionalizedCrystal
_audit_creation_method	'MofGen! by Chris Wilmer'
_symmetry_space_group_name_H-M	'P1'
_symmetry_Int_Tables_number	1
_symmetry_cell_setting	triclinic
loop_
_symmetry_equiv_pos_as_xyz
  x,y,z
_cell_length_a	14.908993
_cell_length_b	16.625545
_cell_length_c	14.908308
_cell_angle_alpha	93.266177
_cell_angle_beta	96.370715
_cell_angle_gamma	93.327136
loop_
_atom_site_label
_atom_site_type_symbol
_atom_site_fract_x
_atom_site_fract_y
_atom_site_fract_z
Zn1	Zn	1.354211	-0.273367	-0.432047
Zn2	Zn	1.362836	-0.399963	-0.280694
Zn3	Zn	1.211585	-0.273406	-0.289425
Zn4	Zn	1.202805	-0.416425	-0.440725
O5	O	1.282859	-0.340790	-0.360722
O6	O	1.482018	-0.283255	-0.404684
O7	O	1.350056	-0.376302	-0.155191
O8	O	1.230569	-0.160566	-0.308366
O9	O	1.488355	-0.376264	-0.293485
O10	O	1.335356	-0.160538	-0.413150
O11	O	1.238932	-0.283321	-0.161606
O12	O	1.083757	-0.299283	-0.316781
O13	O	1.215606	-0.404321	-0.566235
O14	O	1.077307	-0.404358	-0.427940
O15	O	1.326843	-0.299218	-0.559859
O16	O	1.341543	-0.514981	-0.301900
O17	O	1.223969	-0.527076	-0.419474
C18	C	1.047689	-0.353612	-0.374250
C19	C	0.947081	-0.359117	-0.380059
C20	C	0.764684	-0.259902	-0.275386
C21	C	0.670154	-0.265072	-0.280840
C22	C	0.663490	-0.374632	-0.396418
C23	C	0.758020	-0.369461	-0.390963
C24	C	0.808614	-0.312094	-0.330446
C25	C	0.903145	-0.306920	-0.324996
C26	C	0.896480	-0.416483	-0.440569
C27	C	0.801950	-0.421653	-0.446024
C28	C	1.282762	-0.550285	-0.360700
C29	C	1.282802	-0.639905	-0.360715
C30	C	1.282836	-0.712686	-0.360731
C31	C	1.282888	-0.803993	-0.360748
C32	C	1.282934	-0.876767	-0.360757
C33	C	1.282985	-0.968080	-0.360773
C34	C	1.518947	-0.327919	-0.347142
C35	C	1.619554	-0.322434	-0.341355
C36	C	1.269283	-0.353601	-0.596807
C37	C	1.263498	-0.359061	-0.697412
C38	C	1.282980	-0.130477	-0.360764
C39	C	1.283031	-0.040854	-0.360781
C40	C	1.368455	-0.259856	-0.879822
C41	C	1.363022	-0.264983	-0.974349
C42	C	1.247195	-0.374436	-0.980995
C43	C	1.252628	-0.369310	-0.886468
C44	C	1.313261	-0.312019	-0.835885
C45	C	1.318698	-0.306896	-0.741355
C46	C	1.202867	-0.416345	-0.748003
C47	C	1.197434	-0.421472	-0.842531
C48	C	1.296435	-0.327968	-0.125554
C49	C	1.302395	-0.322272	-0.024939
H50	H	0.634390	-0.222571	-0.236005
O51	O	1.416507	-0.214236	-1.017077
C52	C	1.422603	-0.110528	-1.123155
C53	C	1.361926	-0.167948	-1.074814
H54	H	1.378499	-0.073101	-1.169860
H55	H	1.466850	-0.068646	-1.070801
H56	H	1.467392	-0.147375	-1.164640
H57	H	1.317082	-0.131166	-1.033331
H58	H	1.317740	-0.209831	-1.127213
H59	H	0.622281	-0.421344	-0.445680
O60	O	0.813805	-0.204261	-0.216477
C61	C	0.851531	-0.154954	-0.060926
C62	C	0.795868	-0.218025	-0.127540
H63	H	0.837035	-0.166050	0.010992
H64	H	0.926655	-0.160227	-0.066407
H65	H	0.832065	-0.091849	-0.078061
H66	H	0.815256	-0.281158	-0.110448
H67	H	0.720758	-0.212681	-0.122046
H68	H	0.760744	-0.468362	-0.495292
H69	H	0.944337	-0.260204	-0.275726
H70	H	0.932257	-0.458977	-0.485408
O71	O	1.377613	-0.251175	-0.692355
C72	C	1.491957	-0.143181	-0.695743
C73	C	1.425261	-0.206239	-0.751342
H74	H	1.530511	-0.106844	-0.743409
H75	H	1.453006	-0.100834	-0.653908
H76	H	1.541776	-0.175229	-0.648735
H77	H	1.375427	-0.174260	-0.798399
H78	H	1.464272	-0.248582	-0.793116
O79	O	1.427375	-0.204141	-0.830818
C80	C	1.541736	-0.096160	-0.834196
C81	C	1.475033	-0.159208	-0.889801
H82	H	1.580299	-0.059826	-0.881859
H83	H	1.502790	-0.053808	-0.792361
H84	H	1.591547	-0.128215	-0.787188
H85	H	1.425206	-0.127221	-0.936858
H86	H	1.514038	-0.201555	-0.931576
O87	O	1.188364	-0.430050	-1.030276
C88	C	1.128596	-0.486386	-1.178855
C89	C	1.195283	-0.423386	-1.123154
H90	H	1.134153	-0.481009	-1.253959
H91	H	1.145506	-0.549559	-1.159430
H92	H	1.056705	-0.475194	-1.164407
H93	H	1.267197	-0.434504	-1.137573
H94	H	1.178295	-0.360235	-1.142589
O95	O	1.138615	-0.477098	-0.891806
C96	C	1.078870	-0.533471	-1.040377
C97	C	1.145535	-0.470447	-0.984686
H98	H	1.084428	-0.528103	-1.115482
H99	H	1.095800	-0.596634	-1.020936
H100	H	1.006973	-0.522294	-1.025937
H101	H	1.217455	-0.481549	-0.999098
H102	H	1.128527	-0.407305	-1.004136
H103	H	1.157926	-0.458822	-0.712220
