data_functionalizedCrystal
_audit_creation_method	'MofGen! by Chris Wilmer'
_symmetry_space_group_name_H-M	'P1'
_symmetry_Int_Tables_number	1
_symmetry_cell_setting	triclinic
loop_
_symmetry_equiv_pos_as_xyz
  x,y,z
_cell_length_a	16.109301
_cell_length_b	19.188930
_cell_length_c	14.586319
_cell_angle_alpha	89.991095
_cell_angle_beta	89.999213
_cell_angle_gamma	83.303131
loop_
_atom_site_label
_atom_site_type_symbol
_atom_site_fract_x
_atom_site_fract_y
_atom_site_fract_z
O1	O	1.102833	0.089744	-0.076193
O2	O	0.860734	0.100912	-0.076209
O3	O	0.988770	-0.006311	-0.076182
O4	O	0.974797	0.196968	-0.076219
O5	O	0.988762	-0.006313	0.076298
O6	O	0.860726	0.100911	0.076272
O7	O	1.102825	0.089742	0.076288
Cu8	Cu	0.981774	0.095326	0.090203
Cu9	Cu	0.981785	0.095328	-0.090124
O10	O	0.974789	0.196966	0.076262
C11	C	0.829757	0.100459	0.000030
C12	C	0.737466	0.099103	0.000025
C13	C	0.988313	-0.032324	0.000061
C14	C	0.986955	-0.109832	0.000068
C15	C	0.514993	0.159573	0.000024
C16	C	0.428277	0.158294	0.000030
C17	C	0.448573	0.031076	0.000050
C18	C	0.535287	0.032357	0.000050
C19	C	0.568495	0.096608	0.000033
C20	C	0.395064	0.094047	0.000038
C21	C	0.301043	0.092659	0.000045
C22	C	0.662522	0.097996	0.000028
C23	C	1.062082	-0.154580	0.000078
C24	C	1.060806	-0.227407	0.000063
C25	C	0.984399	-0.255482	0.000057
C26	C	0.909261	-0.210724	0.000043
C27	C	0.910540	-0.137899	0.000048
N28	N	0.925991	-0.363624	0.051945
N29	N	0.924782	-0.432805	0.051942
C30	C	0.980543	-0.474900	0.000038
N31	N	1.037571	-0.445200	-0.051850
N32	N	1.038783	-0.376013	-0.051843
C33	C	0.983004	-0.334448	0.000051
C34	C	1.054292	-0.598616	0.000030
C35	C	1.053012	-0.671443	0.000010
C36	C	0.901465	-0.654759	-0.000001
C37	C	0.902747	-0.581933	0.000010
C38	C	0.979162	-0.553866	0.000030
C39	C	1.133802	0.090196	0.000047
C40	C	1.226093	0.091552	0.000046
C41	C	0.975246	0.222979	0.000017
C42	C	0.976604	0.300486	0.000003
N43	N	0.981773	0.095325	0.217034
N44	N	0.981793	0.095325	-0.216955
C45	C	1.038486	0.047862	0.452052
C46	C	1.038488	0.047860	0.548034
C47	C	0.925074	0.142790	0.548020
C48	C	0.925068	0.142787	0.452040
C49	C	0.981779	0.095324	0.404059
C50	C	0.981787	0.095325	0.596020
C51	C	0.981789	0.095323	0.700087
C52	C	0.981776	0.095325	0.299985
H53	H	0.542027	0.211890	0.000017
H54	H	0.384719	0.209567	0.000025
C55	C	0.324657	-0.027374	0.000048
C56	C	0.412067	-0.039545	0.000056
H57	H	0.302123	-0.070975	0.000044
H58	H	0.306279	-0.001458	0.053215
H59	H	0.306287	-0.001445	-0.053132
H60	H	0.430438	-0.065471	0.053241
H61	H	0.430452	-0.065473	-0.053116
C62	C	0.812964	0.236630	0.461660
C63	C	0.862733	0.194964	0.399279
H64	H	0.774486	0.268841	0.429085
H65	H	0.783168	0.207563	0.499104
H66	H	0.847488	0.261754	0.499087
H67	H	0.828209	0.169836	0.361855
H68	H	0.892531	0.224036	0.361819
H69	H	0.578851	-0.018920	0.000059
C70	C	1.211750	-0.178393	0.000092
C71	C	1.146077	-0.123730	0.000090
H72	H	1.263604	-0.159344	0.000093
H73	H	1.208094	-0.206455	0.053260
H74	H	1.208097	-0.206444	-0.053087
H75	H	1.149727	-0.095682	0.053272
H76	H	1.149735	-0.095655	-0.053084
H77	H	1.116514	-0.575763	0.000042
C78	C	1.147296	-0.318979	-0.078307
C79	C	1.143391	-0.276607	0.000078
H80	H	1.198282	-0.349348	-0.078297
H81	H	1.101609	-0.346114	-0.078311
H82	H	1.144657	-0.290209	-0.131474
H83	H	1.146024	-0.305377	0.053246
H84	H	1.189090	-0.249469	0.000091
H85	H	0.847050	-0.233587	0.000036
H86	H	0.849360	-0.101464	0.000041
C87	C	1.202936	-0.680616	0.000047
C88	C	1.135599	-0.720635	0.000023
H89	H	1.253921	-0.710987	0.000061
H90	H	1.200293	-0.651857	-0.053120
H91	H	1.200267	-0.651871	0.053227
H92	H	1.138265	-0.749375	-0.053161
H93	H	1.138244	-0.749406	0.053195
C94	C	0.832216	-0.758982	-0.000015
C95	C	0.817475	-0.685610	-0.000010
H96	H	0.780361	-0.778029	-0.000019
H97	H	0.863138	-0.774329	-0.053183
H98	H	0.863135	-0.774347	0.053164
H99	H	0.786561	-0.670245	-0.053193
H100	H	0.786540	-0.670257	0.053164
H101	H	0.841570	-0.545497	0.000008
H102	H	1.084662	0.009214	0.412988
H103	H	1.084663	0.009211	0.587107
C104	C	0.874730	0.184950	0.695145
C105	C	0.862747	0.194966	0.600764
H106	H	0.836256	0.217167	0.727703
H107	H	0.865868	0.138357	0.710884
H108	H	0.930192	0.192545	0.710855
H109	H	0.807287	0.187365	0.585053
H110	H	0.871603	0.241570	0.585019
