data_functionalizedCrystal
_audit_creation_method	'MofGen! by Chris Wilmer'
_symmetry_space_group_name_H-M	'P1'
_symmetry_Int_Tables_number	1
_symmetry_cell_setting	triclinic
loop_
_symmetry_equiv_pos_as_xyz
  x,y,z
_cell_length_a	16.109301
_cell_length_b	16.109301
_cell_length_c	15.186229
_cell_angle_alpha	89.994833
_cell_angle_beta	89.999362
_cell_angle_gamma	83.461481
loop_
_atom_site_label
_atom_site_type_symbol
_atom_site_fract_x
_atom_site_fract_y
_atom_site_fract_z
O1	O	1.103131	0.106866	-0.073176
O2	O	0.861069	0.120165	-0.073190
O3	O	0.988749	-0.007515	-0.073174
O4	O	0.975450	0.234547	-0.073192
O5	O	0.988741	-0.007517	0.073284
O6	O	0.861060	0.120164	0.073267
O7	O	1.103122	0.106864	0.073282
Zn8	Zn	0.982090	0.113514	0.096528
Zn9	Zn	0.982101	0.113516	-0.096436
O10	O	0.975441	0.234545	0.073265
C11	C	0.830090	0.119626	0.000037
C12	C	0.737794	0.118011	0.000032
C13	C	0.988206	-0.038491	0.000056
C14	C	0.986591	-0.130786	0.000057
C15	C	0.515522	0.190018	0.000036
C16	C	0.428801	0.188494	0.000042
C17	C	0.448676	0.037006	0.000050
C18	C	0.535394	0.038530	0.000051
C19	C	0.568815	0.115039	0.000039
C20	C	0.395376	0.111990	0.000045
C21	C	0.301350	0.110337	0.000051
C22	C	0.662847	0.116693	0.000035
C23	C	1.058599	-0.353059	0.000047
C24	C	1.057075	-0.439779	0.000040
C25	C	0.905586	-0.419905	0.000034
C26	C	0.907111	-0.333186	0.000035
C27	C	0.983620	-0.299766	0.000046
C28	C	0.980571	-0.473205	0.000038
C29	C	0.978918	-0.567231	0.000030
C30	C	0.985273	-0.205734	0.000052
C31	C	1.134101	0.107404	0.000053
C32	C	1.226397	0.109019	0.000052
C33	C	0.975984	0.265521	0.000034
C34	C	0.977600	0.357816	0.000027
N35	N	0.982088	0.113511	0.228220
N36	N	0.982109	0.113512	-0.228129
C37	C	1.038644	0.056994	0.453950
C38	C	1.038647	0.056992	0.546140
C39	C	0.925547	0.170032	0.546135
C40	C	0.925541	0.170030	0.453947
C41	C	0.982094	0.113511	0.407857
C42	C	0.982103	0.113512	0.592235
C43	C	0.982105	0.113510	0.692191
C44	C	0.982091	0.113512	0.307894
H45	H	0.385413	0.249550	0.000041
C46	C	0.756000	-0.391549	0.000019
C47	C	0.821490	-0.456643	0.000026
H48	H	0.704082	-0.414230	0.000009
H49	H	0.759742	-0.358146	0.051089
H50	H	0.759755	-0.358133	-0.051057
H51	H	0.817738	-0.490055	0.051105
H52	H	0.817746	-0.490060	-0.051050
H53	H	1.118130	-0.483168	0.000039
H54	H	1.084692	0.010972	0.416426
C55	C	0.820941	-0.224129	0.075317
C56	C	0.824689	-0.274596	0.000033
H57	H	0.770063	-0.187955	0.075307
H58	H	0.823484	-0.258375	0.126381
H59	H	0.866730	-0.191821	0.075309
H60	H	0.778904	-0.306908	0.000044
H61	H	0.822138	-0.240346	-0.051045
H62	H	1.084694	0.010969	0.583667
C63	C	0.362688	-0.052588	-0.075241
C64	C	0.411937	-0.047091	0.000051
H65	H	0.340014	-0.104509	-0.075244
H66	H	0.318541	-0.008157	-0.075237
H67	H	0.396117	-0.048840	-0.126306
H68	H	0.378507	-0.050833	0.051116
H69	H	0.456091	-0.091534	0.000054
C70	C	0.546337	-0.111369	0.000048
C71	C	0.593982	-0.043893	0.000050
H72	H	0.582508	-0.162250	0.000045
H73	H	0.512101	-0.108819	0.051118
H74	H	0.512098	-0.108807	-0.051029
H75	H	0.628216	-0.046453	0.051131
H76	H	0.628232	-0.046445	-0.051024
C77	C	1.148206	-0.267080	0.075339
C78	C	1.142697	-0.316324	0.000050
H79	H	1.200129	-0.244409	0.075339
H80	H	1.103777	-0.222930	0.075334
H81	H	1.144461	-0.300510	0.126405
H82	H	1.146436	-0.282892	-0.051017
H83	H	1.187138	-0.360480	0.000046
C84	C	0.812411	0.188045	0.649825
C85	C	0.863393	0.232159	0.596804
H86	H	0.774044	0.226403	0.681109
H87	H	0.782513	0.153437	0.613870
H88	H	0.846102	0.154388	0.690466
H89	H	0.829702	0.265812	0.556158
H90	H	0.893294	0.266782	0.632763
C91	C	0.487163	0.339604	0.000040
C92	C	0.552259	0.274115	0.000036
H93	H	0.509843	0.391522	0.000047
H94	H	0.453756	0.335863	-0.051031
H95	H	0.453752	0.335846	0.051116
H96	H	0.585666	0.277870	-0.051044
H97	H	0.585680	0.277858	0.051111
C98	C	0.813748	0.281777	0.463194
C99	C	0.863378	0.232161	0.403274
H100	H	0.775377	0.320133	0.431908
H101	H	0.783856	0.247163	0.499156
H102	H	0.848356	0.311694	0.499145
H103	H	0.828771	0.202239	0.367326
H104	H	0.893273	0.266779	0.367296
