data_functionalizedCrystal
_audit_creation_method	'MofGen! by Chris Wilmer'
_symmetry_space_group_name_H-M	'P1'
_symmetry_Int_Tables_number	1
_symmetry_cell_setting	triclinic
loop_
_symmetry_equiv_pos_as_xyz
  x,y,z
_cell_length_a	14.908795
_cell_length_b	14.908520
_cell_length_c	18.215399
_cell_angle_alpha	93.269364
_cell_angle_beta	86.680037
_cell_angle_gamma	96.791092
loop_
_atom_site_label
_atom_site_type_symbol
_atom_site_fract_x
_atom_site_fract_y
_atom_site_fract_z
Zn1	Zn	1.363047	-0.280636	-0.493576
Zn2	Zn	1.354205	-0.432014	-0.377216
Zn3	Zn	1.211674	-0.289386	-0.363799
Zn4	Zn	1.202907	-0.440680	-0.493517
O5	O	1.282958	-0.360679	-0.432027
O6	O	1.488543	-0.293428	-0.483780
O7	O	1.335267	-0.413129	-0.272452
O8	O	1.239122	-0.161555	-0.375424
O9	O	1.482047	-0.404645	-0.398292
O10	O	1.350336	-0.155127	-0.470770
O11	O	1.230549	-0.308341	-0.262595
O12	O	1.083842	-0.316744	-0.375367
O13	O	1.224182	-0.419415	-0.596509
O14	O	1.077401	-0.427899	-0.470670
O15	O	1.341836	-0.301831	-0.596552
O16	O	1.326767	-0.559833	-0.398234
O17	O	1.215609	-0.566200	-0.483680
C18	C	1.047778	-0.374212	-0.421557
C19	C	0.947165	-0.380023	-0.417096
C20	C	0.801981	-0.446022	-0.366222
C21	C	0.896515	-0.440565	-0.370413
C22	C	0.903274	-0.324931	-0.459588
C23	C	0.808739	-0.330388	-0.455397
C24	C	0.758096	-0.390936	-0.408713
C25	C	0.663560	-0.396396	-0.404526
C26	C	0.670320	-0.280758	-0.493697
C27	C	0.764855	-0.275302	-0.497888
C28	C	1.269301	-0.595859	-0.442424
C29	C	1.263542	-0.696466	-0.446900
C30	C	1.368587	-0.878818	-0.366418
C31	C	1.363178	-0.973346	-0.370621
C32	C	1.247321	-0.980052	-0.459514
C33	C	1.252730	-0.885524	-0.455310
C34	C	1.313364	-0.834910	-0.408760
C35	C	1.318767	-0.740380	-0.404553
C36	C	1.202915	-0.747087	-0.493449
C37	C	1.197506	-0.841616	-0.497652
C38	C	1.519057	-0.347094	-0.442539
C39	C	1.619669	-0.341305	-0.447019
C40	C	1.283017	-0.360613	-0.623980
C41	C	1.283042	-0.360585	-0.705779
C42	C	1.296693	-0.124579	-0.421607
C43	C	1.302546	-0.023967	-0.417167
C44	C	1.344328	-0.299304	-0.893995
C45	C	1.344341	-0.299277	-0.970853
C46	C	1.221828	-0.421723	-0.970797
C47	C	1.221812	-0.421745	-0.893940
C48	C	1.283067	-0.360537	-0.855541
C49	C	1.283096	-0.360488	-1.009256
C50	C	1.283108	-0.360459	-1.092589
C51	C	1.283054	-0.360564	-0.772203
C52	C	1.282956	-0.360676	-0.240821
C53	C	1.283121	-0.360439	-0.159019
H54	H	0.932242	-0.485421	-0.335812
H55	H	0.944524	-0.275631	-0.497592
Br56	Br	1.138703	-0.504790	-1.022914
Br57	Br	0.833592	-0.193132	-0.561240
Br58	Br	1.401049	-0.671690	-0.341374
H59	H	0.634580	-0.235905	-0.528298
Br60	Br	1.138658	-0.504845	-0.841747
Br61	Br	0.594830	-0.478575	-0.341177
H62	H	1.417951	-0.837608	-0.328509
Br63	Br	1.165054	-1.048757	-0.522697
H64	H	0.760746	-0.495330	-0.328216
Br65	Br	1.438131	-1.032934	-0.313158
H66	H	1.148143	-0.882838	-0.535554
Br67	Br	1.127949	-0.687495	-0.550904
Br68	Br	1.427491	-0.216178	-1.023038
Br69	Br	1.427458	-0.216235	-0.841884
