data_functionalizedCrystal
_audit_creation_method	'MofGen! by Chris Wilmer'
_symmetry_space_group_name_H-M	'P1'
_symmetry_Int_Tables_number	1
_symmetry_cell_setting	triclinic
loop_
_symmetry_equiv_pos_as_xyz
  x,y,z
_cell_length_a	27.354012
_cell_length_b	27.353283
_cell_length_c	27.349551
_cell_angle_alpha	60.005606
_cell_angle_beta	60.011434
_cell_angle_gamma	59.993282
loop_
_atom_site_label
_atom_site_type_symbol
_atom_site_fract_x
_atom_site_fract_y
_atom_site_fract_z
O1	O	0.067635	-0.714267	0.597330
O2	O	0.025429	-0.556105	0.481282
O3	O	0.125575	-0.656186	0.481214
O4	O	-0.032512	-0.614186	0.597397
O5	O	0.158797	-0.622968	0.514367
O6	O	0.058650	-0.522887	0.514434
O7	O	0.100856	-0.681048	0.630482
Zn8	Zn	0.085028	-0.596693	0.577722
Zn9	Zn	0.041257	-0.640460	0.534042
O10	O	0.000709	-0.580967	0.630549
N11	N	0.114901	-0.566828	0.607534
N12	N	0.011389	-0.670331	0.504229
C13	C	0.179404	-0.338196	0.672015
C14	C	0.179501	-0.502386	0.836160
C15	C	0.179415	-0.502363	0.671996
C16	C	0.343611	-0.502373	0.671960
C17	C	0.197478	-0.392371	0.690061
C18	C	0.197534	-0.484321	0.781984
C19	C	0.289434	-0.484312	0.690032
C20	C	0.197486	-0.484308	0.690051
C21	C	0.156398	-0.269238	0.649045
C22	C	0.156418	-0.525342	0.649015
C23	C	0.220484	-0.461329	0.713032
C24	C	0.443889	-0.485097	0.619172
C25	C	0.506571	-0.505993	0.598266
C26	C	0.506589	-0.607412	0.636940
C27	C	0.443909	-0.586515	0.657848
C28	C	0.171510	-0.237888	0.587422
C29	C	0.150593	-0.175201	0.566543
C30	C	0.099458	-0.175218	0.668913
C31	C	0.120375	-0.237905	0.689792
C32	C	0.094789	-0.510201	0.664176
C33	C	0.073888	-0.531091	0.643278
C34	C	0.176239	-0.582263	0.592072
C35	C	0.197142	-0.561373	0.612963
C36	C	0.094933	-0.510244	0.936476
C37	C	0.074073	-0.531151	0.999161
C38	C	0.176453	-0.582335	0.999126
C39	C	0.197312	-0.561429	0.936439
C40	C	0.156551	-0.525382	0.905116
C41	C	0.412561	-0.525357	0.648961
C42	C	-0.098513	-0.688235	0.485867
C43	C	-0.006461	-0.688368	0.394066
C44	C	-0.006645	-0.780264	0.486040
C45	C	-0.006630	-0.688361	0.486097
C46	C	-0.029562	-0.711308	0.463018
N47	N	0.537030	-0.566846	0.607436
O48	O	0.741877	-0.576849	0.459995
O49	O	0.742050	-0.693241	0.618010
O50	O	0.741986	-0.692977	0.517791
O51	O	0.741941	-0.577114	0.560214
O52	O	0.642405	-0.659839	0.551046
O53	O	0.642469	-0.660104	0.651265
O54	O	0.642296	-0.543712	0.493251
Zn55	Zn	0.626572	-0.596646	0.577538
Zn56	Zn	0.757774	-0.640307	0.533723
O57	O	0.642360	-0.543976	0.593469
N58	N	0.847316	-0.670107	0.503818
N59	N	0.114877	-0.144758	0.607577
O60	O	-0.032498	0.060193	0.597441
O61	O	0.125523	0.060193	0.481067
O62	O	0.025289	0.060179	0.481345
O63	O	0.067736	0.060207	0.597163
O64	O	0.058511	-0.039410	0.514543
O65	O	0.158745	-0.039397	0.514265
O66	O	0.000724	-0.039396	0.630638
Zn67	Zn	0.085009	-0.055208	0.577722
Zn68	Zn	0.041238	0.076005	0.533983
O69	O	0.100958	-0.039382	0.630360
N70	N	0.011362	0.165555	0.504130
N71	N	0.115121	-0.566884	1.029592
O72	O	0.104990	-0.714248	1.234528
O73	O	-0.011371	-0.556177	1.234539
O74	O	-0.011103	-0.656395	1.234497
O75	O	0.104722	-0.614030	1.234569
O76	O	0.022090	-0.623190	1.134913
O77	O	0.021822	-0.522972	1.134954
O78	O	0.138182	-0.681044	1.134943
Zn79	Zn	0.085272	-0.596736	1.119137
Zn80	Zn	0.041539	-0.640484	1.250344
O81	O	0.137914	-0.580826	1.134984
N82	N	0.011689	-0.670343	1.339890
C83	C	0.038085	-0.519567	0.481870
C84	C	0.162104	-0.643505	0.481786
C85	C	0.088200	-0.717587	0.629893
C86	C	-0.035819	-0.593649	0.629977
C87	C	0.692280	-0.692701	0.654545
C88	C	0.692203	-0.692374	0.530435
C89	C	0.692063	-0.544251	0.456717
C90	C	0.692144	-0.544580	0.580825
C91	C	0.162000	0.010521	0.481600
C92	C	0.037914	0.010381	0.481984
C93	C	-0.035795	0.010399	0.630065
C94	C	0.088333	0.010415	0.629722
C95	C	-0.010799	-0.519660	1.184747
C96	C	-0.010461	-0.643761	1.184677
C97	C	0.137610	-0.717561	1.184734
C98	C	0.137280	-0.593452	1.184783
H99	H	0.061737	-0.480889	0.910978
H100	H	0.174144	-0.762957	1.184724
H101	H	0.209648	-0.611676	1.024626
H102	H	-0.081227	-0.584696	0.666460
H103	H	0.692221	-0.728771	0.521355
H104	H	0.097215	-0.763020	0.666340
O105	O	0.692101	-0.501213	0.591758
C106	C	0.692170	-0.523032	0.650604
H107	H	0.673357	-0.561488	0.678934
H108	H	0.739955	-0.539712	0.649695
C109	C	0.676212	-0.425154	0.643048
C110	C	0.653102	-0.472383	0.677845
H111	H	0.652116	-0.393912	0.659851
H112	H	0.676168	-0.410454	0.603402
H113	H	0.716033	-0.439062	0.642294
H114	H	0.613285	-0.458477	0.678593
H115	H	0.653138	-0.487080	0.717492
H116	H	-0.046832	-0.652809	1.184615
H117	H	0.692323	-0.729239	0.699929
O118	O	0.692022	-0.500727	0.402539
C119	C	0.691993	-0.522280	0.365280
H120	H	0.710891	-0.573286	0.381473
H121	H	0.644208	-0.507088	0.366931
C122	C	0.707770	-0.434801	0.280588
C123	C	0.730986	-0.497447	0.300473
H124	H	0.731820	-0.419481	0.240611
H125	H	0.707787	-0.420279	0.305690
H126	H	0.667950	-0.422149	0.281969
H127	H	0.770802	-0.510098	0.299099
H128	H	0.730976	-0.511970	0.275369
H129	H	0.173667	-0.584388	1.184797
O130	O	0.216052	0.010880	0.437957
C131	C	0.253293	0.010987	0.459471
H132	H	0.224490	0.029648	0.498046
H133	H	0.283755	-0.036727	0.475890
C134	C	0.327110	0.027432	0.361308
C135	C	0.291733	0.050357	0.408682
H136	H	0.350824	0.051715	0.329979
H137	H	0.302021	0.027358	0.346813
H138	H	0.352490	-0.012329	0.374998
H139	H	0.266350	0.090115	0.394994
H140	H	0.316819	0.050439	0.423174
H141	H	0.023897	-0.518815	1.024687
H142	H	0.028825	0.010378	0.445599
O143	O	-0.089980	0.010438	0.673576
C144	C	-0.127251	0.010418	0.652033
H145	H	-0.111044	0.029256	0.601028
H146	H	-0.125636	-0.037360	0.667268
C147	C	-0.211944	0.026351	0.739463
C148	C	-0.192041	0.049493	0.676818
H149	H	-0.251910	0.050452	0.754754
H150	H	-0.186834	0.026362	0.753979
H151	H	-0.210593	-0.013464	0.752151
H152	H	-0.193385	0.089304	0.664132
H153	H	-0.217153	0.049490	0.662301
H154	H	0.097420	0.010424	0.666105
H155	H	-0.047330	-0.474261	1.184750
H156	H	0.247489	-0.573760	0.910909
H157	H	0.023705	-0.518748	0.655609
O158	O	0.055204	-0.475111	0.699101
C159	C	0.018934	-0.422540	0.667466
H160	H	0.043119	-0.413820	0.617314
H161	H	-0.025104	-0.428233	0.680818
C162	C	-0.023573	-0.379914	0.744219
C163	C	0.006134	-0.369201	0.682621
H164	H	-0.031471	-0.347012	0.753569
H165	H	0.000862	-0.415333	0.765534
H166	H	-0.060267	-0.384659	0.755338
H167	H	0.042831	-0.364464	0.671505
H168	H	-0.018294	-0.333780	0.661305
O169	O	0.215830	-0.617177	0.556967
C170	C	0.252056	-0.585522	0.504403
H171	H	0.227838	-0.535371	0.495701
H172	H	0.296101	-0.598870	0.510090
C173	C	0.294587	-0.662256	0.461746
C174	C	0.264840	-0.600659	0.451055
H175	H	0.302476	-0.671595	0.428838
H176	H	0.270183	-0.683584	0.497160
H177	H	0.331289	-0.673372	0.466486
H178	H	0.228136	-0.589546	0.446322
H179	H	0.289239	-0.579329	0.415638
O180	O	0.256989	-0.576003	0.598274
C181	C	0.266707	-0.549852	0.624459
H182	H	0.225572	-0.509613	0.633926
H183	H	0.275087	-0.584152	0.668178
C184	C	0.372093	-0.578730	0.569591
C185	C	0.321572	-0.529305	0.581214
H186	H	0.405938	-0.566058	0.542917
H187	H	0.365547	-0.596351	0.551951
H188	H	0.379069	-0.607309	0.606027
H189	H	0.314593	-0.500731	0.544780
H190	H	0.328119	-0.511679	0.598847
O191	O	0.413571	-0.625703	0.686750
C192	C	0.454687	-0.684163	0.690117
H193	H	0.499356	-0.681777	0.653088
H194	H	0.461378	-0.708093	0.735540
C195	C	0.375355	-0.721850	0.727937
C196	C	0.430218	-0.718919	0.682454
H197	H	0.360261	-0.743291	0.723213
H198	H	0.347654	-0.682465	0.725671
H199	H	0.380939	-0.741790	0.765785
H200	H	0.424632	-0.698973	0.644607
H201	H	0.457917	-0.758302	0.684713
H202	H	0.532080	-0.473208	0.574011
O203	O	0.537107	-0.666816	0.645602
C204	C	0.573377	-0.688544	0.679696
H205	H	0.582764	-0.649848	0.674786
H206	H	0.549241	-0.710139	0.728819
C207	C	0.621388	-0.782905	0.663245
C208	C	0.632922	-0.735379	0.657210
H209	H	0.658117	-0.811797	0.649377
H210	H	0.596951	-0.768268	0.640277
H211	H	0.601273	-0.800894	0.704182
H212	H	0.653029	-0.717386	0.616273
H213	H	0.657363	-0.750014	0.680171
O214	O	0.413502	-0.425663	0.610438
C215	C	0.428783	-0.393322	0.548546
H216	H	0.474289	-0.420714	0.523858
H217	H	0.393492	-0.383967	0.531468
C218	C	0.375783	-0.299986	0.567682
C219	C	0.431678	-0.333628	0.537360
H220	H	0.377567	-0.263162	0.560781
H221	H	0.365486	-0.321774	0.609380
H222	H	0.346380	-0.292196	0.553447
H223	H	0.461078	-0.341423	0.551601
H224	H	0.441980	-0.311839	0.495664
O225	O	0.206473	-0.268230	0.547758
C226	C	0.215332	-0.227116	0.488889
H227	H	0.177533	-0.182434	0.489015
H228	H	0.259982	-0.220445	0.470917
C229	C	0.262182	-0.306455	0.448535
C230	C	0.215753	-0.251576	0.448689
H231	H	0.262445	-0.321543	0.423736
H232	H	0.256216	-0.334155	0.488196
H233	H	0.299385	-0.300888	0.433560
H234	H	0.178551	-0.257145	0.463671
H235	H	0.221714	-0.223878	0.409029
H236	H	0.162897	-0.149674	0.516363
H237	H	0.070133	-0.149706	0.702094
H238	H	0.108067	-0.263426	0.739970
H239	H	0.029071	-0.474132	0.445424
H240	H	0.207509	-0.652460	0.445301
