data_functionalizedCrystal
_audit_creation_method	'MofGen! by Chris Wilmer'
_symmetry_space_group_name_H-M	'P1'
_symmetry_Int_Tables_number	1
_symmetry_cell_setting	triclinic
loop_
_symmetry_equiv_pos_as_xyz
  x,y,z
_cell_length_a	18.215407
_cell_length_b	29.839131
_cell_length_c	18.215399
_cell_angle_alpha	90.038527
_cell_angle_beta	90.017813
_cell_angle_gamma	90.029742
loop_
_atom_site_label
_atom_site_type_symbol
_atom_site_fract_x
_atom_site_fract_y
_atom_site_fract_z
Zn1	Zn	1.125019	-0.178924	0.416022
Zn2	Zn	1.124905	-0.254053	0.292933
Zn3	Zn	1.001952	-0.178931	0.292974
Zn4	Zn	1.001895	-0.254020	0.415962
O5	O	1.063443	-0.216482	0.354473
O6	O	1.227988	-0.188901	0.399702
O7	O	1.108571	-0.244104	0.189954
O8	O	1.018348	-0.116063	0.309338
O9	O	1.227904	-0.244098	0.309269
O10	O	1.108765	-0.116058	0.399741
O11	O	1.018238	-0.188912	0.189984
O12	O	0.898960	-0.188881	0.309280
O13	O	1.018252	-0.244042	0.518955
O14	O	0.898918	-0.244049	0.399640
O15	O	1.108710	-0.188869	0.518998
O16	O	1.108516	-0.316916	0.309211
O17	O	1.018142	-0.316892	0.399600
C18	C	0.872236	-0.216462	0.354458
C19	C	0.790438	-0.216464	0.354470
C20	C	0.525418	-0.187796	0.401636
C21	C	0.602277	-0.187789	0.401634
C22	C	0.602209	-0.245182	0.307325
C23	C	0.525351	-0.245191	0.307332
C24	C	0.486958	-0.216496	0.354486
C25	C	0.640674	-0.216479	0.354477
C26	C	0.724008	-0.216472	0.354475
C27	C	0.403619	-0.216504	0.354490
C28	C	1.063330	-0.333205	0.354411
C29	C	1.063350	-0.383139	0.354409
C30	C	1.110513	-0.692745	0.401613
C31	C	1.110593	-0.880418	0.401657
O32	O	1.150582	-0.904651	0.441745
N33	N	1.063568	-0.903924	0.354554
C34	C	1.016516	-0.880509	0.307441
O35	O	0.976515	-0.904809	0.267384
C36	C	1.016433	-0.692837	0.307401
C37	C	1.063466	-0.669333	0.354501
C38	C	1.157541	-0.669241	0.448710
C39	C	1.157524	-0.622326	0.448695
C40	C	1.110477	-0.598914	0.401584
C41	C	1.063449	-0.622418	0.354487
C42	C	0.969378	-0.669423	0.260292
C43	C	0.969360	-0.622502	0.260287
C44	C	1.016394	-0.598998	0.307388
C45	C	1.016385	-0.552090	0.307361
N46	N	1.063410	-0.528584	0.354464
C47	C	1.110456	-0.551996	0.401575
C48	C	1.016564	-0.979040	0.307464
C49	C	1.016586	-1.025957	0.307473
C50	C	1.110661	-1.025863	0.401690
C51	C	1.110643	-0.978944	0.401677
C52	C	1.063589	-0.955533	0.354567
C53	C	1.110416	-0.453470	0.401541
C54	C	1.110396	-0.406551	0.401520
C55	C	1.016318	-0.406649	0.307306
C56	C	1.016340	-0.453565	0.307324
C57	C	1.063391	-0.476974	0.354447
O58	O	0.976410	-0.527829	0.267300
O59	O	1.150439	-0.527688	0.441638
C60	C	1.110530	-0.739660	0.401627
C61	C	1.063502	-0.763164	0.354530
C62	C	1.016455	-0.739752	0.307419
C63	C	1.063523	-0.810082	0.354539
C64	C	1.110569	-0.833493	0.401650
C65	C	1.157594	-0.809987	0.448753
C66	C	1.157577	-0.763072	0.448738
C67	C	0.969430	-0.763258	0.260316
C68	C	0.969452	-0.810174	0.260334
C69	C	1.016499	-0.833586	0.307445
C70	C	1.255396	-0.216502	0.354488
C71	C	1.337194	-0.216511	0.354494
C72	C	1.063488	-0.216451	0.546426
C73	C	1.063507	-0.216438	0.628225
C74	C	1.063575	-0.099304	0.354551
C75	C	1.063632	-0.049369	0.354585
C76	C	1.063440	-0.216480	0.163267
C77	C	1.063564	-0.216367	0.081468
C78	C	1.110625	-0.187682	0.816443
C79	C	1.110634	-0.187669	0.893302
C80	C	1.016440	-0.245124	0.893245
C81	C	1.016428	-0.245134	0.816387
C82	C	1.063525	-0.216414	0.777988
C83	C	1.063546	-0.216391	0.931704
C84	C	1.063555	-0.216377	1.015038
C85	C	1.063515	-0.216427	0.694649
H86	H	1.148699	-0.387415	0.439875
O87	O	0.487873	-0.273058	0.261597
C88	C	0.411804	-0.266906	0.271706
H89	H	0.401342	-0.252234	0.328546
H90	H	0.389987	-0.242953	0.228130
C91	C	0.385167	-0.330381	0.195020
C92	C	0.372316	-0.312364	0.264834
H93	H	0.360807	-0.358421	0.190778
H94	H	0.436415	-0.334525	0.188207
H95	H	0.366985	-0.310416	0.158714
H96	H	0.390506	-0.332326	0.301138
H97	H	0.321069	-0.308225	0.271653
H98	H	0.633587	-0.164419	0.440029
H99	H	1.148973	-0.164295	0.785181
O100	O	0.639620	-0.273010	0.261541
C101	C	0.715703	-0.266856	0.271655
H102	H	0.726228	-0.232202	0.295866
H103	H	0.737517	-0.293530	0.310760
C104	C	0.742203	-0.313472	0.167441
C105	C	0.755130	-0.270909	0.197171
H106	H	0.766524	-0.315975	0.121496
H107	H	0.690944	-0.317621	0.160628
H108	H	0.760381	-0.335696	0.200035
H109	H	0.736943	-0.248686	0.164581
H110	H	0.806387	-0.266757	0.203977
H111	H	1.148724	-0.472525	0.439918
O112	O	0.488154	-0.159974	0.447551
C113	C	0.506974	-0.169840	0.520864
H114	H	0.528084	-0.205730	0.524463
H115	H	0.551607	-0.145764	0.540173
C116	C	0.412795	-0.120577	0.565583
C117	C	0.438717	-0.164660	0.570004
H118	H	0.370692	-0.117380	0.595897
H119	H	0.400117	-0.113929	0.516191
H120	H	0.449996	-0.100519	0.581673
H121	H	0.401520	-0.184717	0.553906
H122	H	0.451387	-0.171312	0.619395
H123	H	1.148987	-0.164272	0.924608
H124	H	1.195820	-0.603191	0.487051
H125	H	1.195852	-0.688298	0.487078
H126	H	0.978016	-0.387580	0.268946
O127	O	0.923832	-0.740470	0.214511
C128	C	0.965750	-0.713347	0.166994
H129	H	1.021501	-0.706275	0.193000
H130	H	0.973881	-0.731457	0.112473
C131	C	0.856772	-0.677494	0.121666
C132	C	0.925243	-0.668805	0.153610
H133	H	0.831785	-0.650019	0.113407
H134	H	0.828530	-0.695769	0.153677
H135	H	0.863557	-0.692587	0.076236
H136	H	0.918457	-0.653717	0.199044
H137	H	0.953483	-0.650526	0.121607
H138	H	0.931041	-0.603443	0.221925
H139	H	1.148941	-0.959810	0.440031
O140	O	0.970629	-0.273039	0.930433
C141	C	0.929067	-0.298409	0.880008
H142	H	0.926527	-0.280014	0.825236
H143	H	0.955981	-0.332531	0.871811
C144	C	0.853860	-0.327469	0.977261
C145	C	0.850736	-0.304874	0.909990
H146	H	0.805543	-0.331459	0.995756
H147	H	0.881863	-0.310378	1.011234
H148	H	0.876292	-0.355902	0.970421
H149	H	0.828313	-0.276440	0.916833
H150	H	0.822727	-0.321960	0.876019
O151	O	1.156254	-1.048630	0.447537
C152	C	1.114327	-1.075773	0.495014
H153	H	1.056359	-1.061655	0.499498
H154	H	1.111817	-1.111342	0.472260
C155	C	1.221422	-1.093786	0.566050
C156	C	1.150226	-1.076444	0.571562
H157	H	1.243567	-1.094202	0.613268
H158	H	1.249670	-1.075500	0.534062
H159	H	1.219320	-1.123425	0.547085
H160	H	1.152329	-1.046804	0.590518
H161	H	1.121978	-1.094725	0.603555
H162	H	0.978294	-1.045090	0.269111
O163	O	0.970775	-0.273069	0.778946
C164	C	1.012638	-0.302101	0.734486
H165	H	1.068426	-0.286262	0.722997
H166	H	1.020691	-0.335391	0.764080
C167	C	0.903611	-0.329692	0.675577
C168	C	0.972127	-0.310237	0.661460
H169	H	0.878621	-0.334712	0.630532
H170	H	0.875406	-0.310134	0.705532
H171	H	0.910331	-0.357432	0.700241
H172	H	0.965406	-0.282495	0.636805
H173	H	1.000330	-0.329790	0.631499
H174	H	0.931079	-0.688551	0.221937
O175	O	0.970834	-0.956371	0.261623
C176	C	0.929329	-0.987185	0.220068
H177	H	0.959495	-1.020614	0.217565
H178	H	0.873421	-0.992190	0.246965
C179	C	0.881714	-0.927866	0.144799
C180	C	0.918767	-0.968924	0.141719
H181	H	0.875195	-0.916601	0.096470
H182	H	0.909674	-0.907106	0.172796
H183	H	0.835128	-0.932042	0.167215
H184	H	0.965356	-0.964746	0.119311
H185	H	0.890814	-0.989683	0.113715
O186	O	0.970588	-0.476330	0.261545
C187	C	0.929077	-0.445602	0.219944
H188	H	0.926505	-0.412142	0.250073
H189	H	0.956056	-0.440633	0.164073
C190	C	0.853920	-0.505047	0.172273
C191	C	0.850756	-0.463951	0.209280
H192	H	0.805609	-0.516365	0.165691
H193	H	0.881888	-0.525749	0.200297
H194	H	0.876406	-0.500900	0.125717
H195	H	0.828279	-0.468100	0.255838
H196	H	0.822782	-0.443250	0.181263
H197	H	1.195875	-0.743938	0.487092
H198	H	1.195904	-0.829057	0.487110
H199	H	0.931153	-0.829307	0.221972
