data_functionalizedCrystal
_audit_creation_method	'MofGen! by Chris Wilmer'
_symmetry_space_group_name_H-M	'P1'
_symmetry_Int_Tables_number	1
_symmetry_cell_setting	triclinic
loop_
_symmetry_equiv_pos_as_xyz
  x,y,z
_cell_length_a	27.732048
_cell_length_b	14.586319
_cell_length_c	16.109301
_cell_angle_alpha	89.994786
_cell_angle_beta	83.052068
_cell_angle_gamma	90.001999
loop_
_atom_site_label
_atom_site_type_symbol
_atom_site_fract_x
_atom_site_fract_y
_atom_site_fract_z
O1	O	0.641341	-0.076125	0.098925
O2	O	0.500610	-0.076153	0.113967
O3	O	0.574841	-0.076129	-0.014633
O4	O	0.567109	-0.076149	0.227525
O5	O	0.574836	0.076352	-0.014634
O6	O	0.500605	0.076327	0.113965
O7	O	0.641335	0.076356	0.098923
Cu8	Cu	0.570970	0.090264	0.106444
Cu9	Cu	0.570976	-0.090062	0.106446
O10	O	0.567104	0.076331	0.227523
C11	C	0.482599	0.000084	0.113650
C12	C	0.428940	0.000073	0.112700
N13	N	0.570969	0.217096	0.106442
N14	N	0.570980	-0.216894	0.106442
C15	C	0.090418	0.000107	0.182708
C16	C	-0.111256	0.000115	0.179181
O17	O	-0.142244	0.000150	0.243198
N18	N	-0.130699	0.000120	0.102926
C19	C	-0.099720	0.000129	0.027548
O20	O	-0.120885	0.000143	-0.037392
C21	C	0.101954	0.000127	0.031077
C22	C	0.121393	0.000113	0.107336
C23	C	0.109859	0.000094	0.258961
C24	C	0.160274	0.000087	0.259842
C25	C	0.191250	0.000093	0.184470
C26	C	0.171809	0.000106	0.108217
C27	C	0.132932	0.000142	-0.044300
C28	C	0.183353	0.000144	-0.043411
C29	C	0.202793	0.000130	0.032848
C30	C	0.253200	0.000105	0.033726
N31	N	0.272643	0.000100	0.109981
C32	C	0.241668	0.000094	0.185353
C33	C	-0.205602	0.000128	0.025701
C34	C	-0.256020	0.000127	0.024819
C35	C	-0.267553	0.000115	0.176451
C36	C	-0.217134	0.000110	0.177333
C37	C	-0.186159	0.000123	0.101956
C38	C	0.347545	0.000078	0.187197
C39	C	0.397965	0.000067	0.188072
C40	C	0.409494	0.000084	0.036440
C41	C	0.359077	0.000090	0.035565
C42	C	0.328104	0.000090	0.110950
O43	O	0.284216	0.000081	-0.030257
O44	O	0.262842	0.000101	0.250283
C45	C	0.040003	0.000114	0.181827
C46	C	0.020562	0.000127	0.105574
C47	C	0.051537	0.000133	0.030202
C48	C	-0.029856	0.000126	0.104692
C49	C	-0.060831	0.000120	0.180064
C50	C	-0.041388	0.000115	0.256318
C51	C	0.009027	0.000108	0.257199
C52	C	0.032095	0.000138	-0.046052
C53	C	-0.018322	0.000144	-0.046927
C54	C	-0.049297	0.000138	0.028445
C55	C	0.659346	0.000117	0.099240
C56	C	0.713005	0.000121	0.100191
C57	C	0.574526	0.000112	-0.045605
C58	C	0.573586	0.000113	-0.137888
C59	C	0.603849	0.452113	0.049517
C60	C	0.603851	0.548094	0.049515
C61	C	0.538096	0.548082	0.163370
C62	C	0.538093	0.452103	0.163367
C63	C	0.570972	0.404121	0.106442
C64	C	0.570977	0.596081	0.106442
C65	C	0.570978	0.700149	0.106440
C66	C	0.570971	0.300047	0.106442
C67	C	0.615450	0.000107	-0.360679
C68	C	0.614564	0.000099	-0.447388
C69	C	0.526492	0.000085	-0.426424
C70	C	0.527378	0.000086	-0.339716
C71	C	0.571859	0.000102	-0.306846
C72	C	0.570086	0.000093	-0.480263
C73	C	0.569125	0.000084	-0.574277
C74	C	0.572820	0.000108	-0.212826
C75	C	0.567420	0.000089	0.258495
C76	C	0.568359	0.000081	0.350779
H77	H	0.413790	0.000055	0.250174
H78	H	0.650061	0.000101	-0.491216
H79	H	0.491878	0.000079	-0.295882
H80	H	0.343249	0.000088	-0.026532
H81	H	0.630622	0.587167	0.003161
O82	O	0.439638	-0.000030	-0.036718
C83	C	0.503242	-0.079035	-0.123736
C84	C	0.469138	-0.079018	-0.040847
H85	H	0.527095	-0.142899	-0.127110
H86	H	0.527169	-0.015264	-0.127112
H87	H	0.480682	-0.078979	-0.178383
H88	H	0.491660	-0.079106	0.013847
H89	H	0.445209	-0.142783	-0.037544
O90	O	0.658615	0.000152	-0.328609
C91	C	0.699016	0.000099	-0.204325
C92	C	0.650098	0.000073	-0.240528
H93	H	0.692147	0.000015	-0.133108
H94	H	0.720566	0.063927	-0.226489
H95	H	0.720555	-0.063699	-0.226588
H96	H	0.628519	0.063827	-0.218283
H97	H	0.628585	-0.063798	-0.218369
O98	O	0.506136	0.405619	0.218749
C99	C	0.440897	0.415728	0.331643
C100	C	0.477068	0.468484	0.268990
H101	H	0.417379	0.466531	0.372268
H102	H	0.461732	0.370809	0.372985
H103	H	0.416779	0.370775	0.296014
H104	H	0.501196	0.513487	0.304552
H105	H	0.456204	0.513346	0.227649
H106	H	0.176097	0.000075	0.321940
O107	O	0.483327	0.000119	-0.458494
C108	C	0.442928	0.000064	-0.582780
C109	C	0.491846	0.000042	-0.546575
H110	H	0.449798	-0.000018	-0.653998
H111	H	0.421379	0.063889	-0.560627
H112	H	0.421388	-0.063737	-0.560509
H113	H	0.513426	0.063800	-0.568830
H114	H	0.513358	-0.063825	-0.568724
H115	H	-0.034144	0.000148	-0.109031
H116	H	0.322331	0.000081	0.248584
H117	H	-0.201309	0.000104	0.239430
O118	O	0.079794	-0.000078	0.332207
C119	C	0.054548	-0.079076	0.461558
C120	C	0.088611	-0.078995	0.378623
H121	H	0.061672	-0.142864	0.499117
H122	H	0.015161	-0.079137	0.447897
H123	H	0.061618	-0.015241	0.499085
H124	H	0.081585	-0.142820	0.341056
H125	H	0.127987	-0.078887	0.392343
O126	O	-0.297695	-0.000009	0.249616
C127	C	-0.361302	-0.079026	0.336640
C128	C	-0.327199	-0.078997	0.253749
H129	H	-0.385157	-0.142890	0.340018
H130	H	-0.385226	-0.015256	0.340016
H131	H	-0.338740	-0.078981	0.391286
H132	H	-0.349723	-0.079075	0.199057
H133	H	-0.303274	-0.142762	0.250447
H134	H	-0.271843	0.000124	-0.037279
H135	H	-0.180386	0.000139	-0.035684
H136	H	0.630621	0.413048	0.003164
H137	H	0.117113	0.000154	-0.106398
H138	H	0.208571	0.000156	-0.104794
H139	H	0.024850	0.000098	0.319297
H140	H	-0.066617	0.000107	0.317688
H141	H	0.057310	0.000145	-0.107431
O142	O	0.506209	0.594836	0.218638
C143	C	0.477055	0.742692	0.269073
C144	C	0.513200	0.689861	0.206447
H145	H	0.482688	0.819529	0.259227
H146	H	0.483342	0.723877	0.335607
H147	H	0.438348	0.723772	0.258709
H148	H	0.551922	0.708753	0.216734
H149	H	0.506871	0.708681	0.139934
