data_functionalizedCrystal
_audit_creation_method	'MofGen! by Chris Wilmer'
_symmetry_space_group_name_H-M	'P1'
_symmetry_Int_Tables_number	1
_symmetry_cell_setting	triclinic
loop_
_symmetry_equiv_pos_as_xyz
  x,y,z
_cell_length_a	12.477989
_cell_length_b	23.096457
_cell_length_c	12.477989
_cell_angle_alpha	89.998224
_cell_angle_beta	60.281692
_cell_angle_gamma	64.368779
loop_
_atom_site_label
_atom_site_type_symbol
_atom_site_fract_x
_atom_site_fract_y
_atom_site_fract_z
Zr1	Zr	1.151425	0.605559	-0.203443
O2	O	1.353182	0.526355	-0.377133
O3	O	0.935118	0.624055	-0.140693
O4	O	1.130444	0.638803	-0.363434
O5	O	1.179480	0.506553	0.010498
O6	O	1.130446	0.734084	-0.363441
O7	O	1.157855	0.511607	-0.154392
O8	O	0.781043	0.707703	0.035003
O9	O	1.528884	0.532934	-0.387946
O10	O	1.029479	0.710039	-0.125419
O11	O	1.045616	0.635160	-0.002359
O12	O	1.275588	0.652524	-0.264608
O13	O	1.291724	0.577645	-0.141548
Zr14	Zr	1.185917	0.749460	0.059527
Zr15	Zr	1.151429	0.757521	-0.203453
Zr16	Zr	1.185914	0.597499	0.059537
Zr17	Zr	1.431649	0.616052	-0.220688
Zr18	Zr	0.905694	0.738967	0.076772
O19	O	1.402225	0.730964	-0.003223
O20	O	1.353187	0.742424	-0.377148
O21	O	1.402220	0.514894	-0.003209
O22	O	0.984161	0.828665	0.233217
O23	O	0.935122	0.840125	-0.140707
O24	O	0.984156	0.612595	0.233231
O25	O	1.157863	0.848466	-0.154414
O26	O	1.206899	0.716216	0.219518
O27	O	1.206896	0.620936	0.219524
O28	O	1.179488	0.843412	0.010476
O29	O	1.528887	0.653723	-0.387954
O30	O	0.808456	0.701296	0.244037
O31	O	0.808459	0.822085	0.244030
O32	O	0.781045	0.828492	0.034995
O33	O	1.556298	0.526527	-0.178911
O34	O	1.556300	0.647317	-0.178919
O35	O	1.061755	0.702496	0.120692
O36	O	1.045619	0.777374	-0.002368
O37	O	1.291727	0.719859	-0.141557
O38	O	1.307864	0.644981	-0.018497
C39	C	0.818154	0.664384	-0.050388
C40	C	0.699192	0.659929	-0.043067
C41	C	1.168667	0.487429	-0.071946
C42	C	1.168666	0.422917	-0.071942
C43	C	1.040202	0.422634	0.000702
C44	C	1.040201	0.362018	0.000707
C45	C	1.168667	0.301687	-0.071955
C46	C	1.297149	0.301973	-0.144602
C47	C	1.297148	0.362588	-0.144596
N48	N	1.256853	0.185911	-0.182770
N49	N	1.256844	0.128331	-0.182774
C50	C	1.168678	0.119055	-0.071978
N51	N	1.080497	0.169540	0.038822
N52	N	1.080501	0.227126	0.038823
C53	C	1.168683	0.235957	-0.071970
C54	C	1.040204	0.053048	0.000678
C55	C	1.040209	-0.007570	0.000687
C56	C	1.297159	-0.067615	-0.144635
C57	C	1.297152	-0.006997	-0.144632
C58	C	1.168670	0.053332	-0.071977
C59	C	1.519189	0.690635	-0.093528
C60	C	1.638151	0.695090	-0.100849
C61	C	1.125532	0.687592	-0.400907
C62	C	1.110890	0.691013	-0.512549
C63	C	1.168676	0.867591	-0.071971
C64	C	1.168677	0.932102	-0.071975
C65	C	1.211811	0.667428	0.256990
C66	C	1.226453	0.664006	0.368632
C67	C	0.818158	0.854465	-0.050400
C68	C	0.699198	0.914522	-0.043084
C69	C	0.861294	0.654302	0.278560
C70	C	0.756973	0.646425	0.397523
C71	C	0.861298	0.844383	0.278548
C72	C	0.756979	0.901018	0.397507
C73	C	1.476045	0.510636	-0.422464
C74	C	1.580364	0.454001	-0.541423
C75	C	1.519184	0.500554	-0.093516
C76	C	1.638145	0.440497	-0.100832
C77	C	1.476049	0.700717	-0.422477
C78	C	1.580370	0.708594	-0.541439
C79	C	0.634906	0.907577	-0.103890
C80	C	0.523142	0.964003	-0.097041
C81	C	0.475665	1.027371	-0.029377
C82	C	0.539968	1.034315	0.031430
C83	C	0.651736	0.977891	0.024573
C84	C	0.699566	0.966707	0.389135
C85	C	0.601561	1.019928	0.500898
C86	C	0.560963	1.007459	0.621032
C87	C	0.618386	0.941764	0.629401
C88	C	0.716397	0.888544	0.517639
C89	C	1.637790	0.388313	-0.533052
C90	C	1.735830	0.335093	-0.644817
C91	C	1.776434	0.347562	-0.764952
C92	C	1.719004	0.413257	-0.773320
C93	C	1.620973	0.466476	-0.661557
C94	C	1.702447	0.447443	-0.040038
C95	C	1.814238	0.391020	-0.046918
C96	C	1.861719	0.327651	-0.114585
C97	C	1.797412	0.320707	-0.175388
C98	C	1.685629	0.377130	-0.168515
H99	H	0.676899	0.728602	-0.155918
H100	H	1.836088	0.269105	-0.230482
Cl101	Cl	0.750592	0.982400	0.238122
H102	H	0.481155	1.050800	0.712026
H103	H	0.935587	0.361787	0.059863
H104	H	1.604736	0.378147	-0.435242
H105	H	0.935590	0.102170	0.059863
H106	H	1.782574	0.281606	-0.637978
Cl107	Cl	0.694572	0.827920	-0.188969
Cl108	Cl	1.778733	0.599616	-0.537203
H109	H	1.000744	0.716756	-0.496233
Cl110	Cl	1.604796	0.368386	-0.244942
Cl111	Cl	1.520504	0.774652	-0.604363
Cl112	Cl	0.639351	0.608194	0.041979
H113	H	0.935581	0.471753	0.059855
H114	H	0.935595	-0.007795	0.059850
H115	H	1.866580	0.396686	0.002601
H116	H	0.384653	1.073310	-0.023803
H117	H	1.401760	-0.006769	-0.203794
Cl118	Cl	1.458664	-0.143455	-0.235974
H119	H	1.401747	0.252847	-0.203764
H120	H	1.336592	0.638270	-0.647684
H121	H	0.470799	0.958336	-0.146559
Cl122	Cl	0.480259	1.113984	0.116495
H123	H	1.401762	0.362814	-0.203748
H124	H	0.704070	0.983554	0.074097
H125	H	0.554815	1.073416	0.494061
Cl126	Cl	0.788553	0.805965	0.528186
H127	H	1.952741	0.281713	-0.120172
H128	H	0.585317	0.931621	0.727229
Cl129	Cl	1.899673	0.280650	-0.905445
H130	H	1.752076	0.423402	-0.871147
H131	H	1.574216	0.519961	-0.668387
H132	H	1.663799	0.499035	0.015073
