data_functionalizedCrystal
_audit_creation_method	'MofGen! by Chris Wilmer'
_symmetry_space_group_name_H-M	'P1'
_symmetry_Int_Tables_number	1
_symmetry_cell_setting	triclinic
loop_
_symmetry_equiv_pos_as_xyz
  x,y,z
_cell_length_a	15.944551
_cell_length_b	14.853567
_cell_length_c	13.930277
_cell_angle_alpha	90.001389
_cell_angle_beta	90.011538
_cell_angle_gamma	96.433166
loop_
_atom_site_label
_atom_site_type_symbol
_atom_site_fract_x
_atom_site_fract_y
_atom_site_fract_z
O1	O	1.114658	-0.116270	0.079916
O2	O	0.870124	-0.130605	0.079896
O3	O	0.998923	0.007801	0.079910
O4	O	0.985859	-0.254676	0.079903
O5	O	0.998904	0.007798	-0.079752
O6	O	0.870105	-0.130608	-0.079765
O7	O	1.114639	-0.116273	-0.079746
Zn8	Zn	0.992369	-0.123441	-0.105105
Zn9	Zn	0.992394	-0.123437	0.105256
O10	O	0.985840	-0.254678	-0.079759
C11	C	0.838820	-0.130011	0.000063
C12	C	0.745572	-0.128227	0.000056
C13	C	1.145943	-0.116866	0.000089
C14	C	1.239191	-0.118650	0.000103
C15	C	0.998321	0.041387	0.000081
C16	C	0.996547	0.141469	0.000090
C17	C	1.454148	-0.208705	0.000079
C18	C	1.515131	-0.166886	0.078800
C19	C	1.409920	-0.121878	0.000089
C20	C	1.515090	-0.166868	-0.078614
C21	C	1.574836	-0.125002	0.000071
C22	C	1.469675	-0.080034	0.078876
C23	C	1.469628	-0.080029	-0.078609
C24	C	1.530593	-0.038146	0.000132
C25	C	1.314916	-0.120081	0.000100
C26	C	1.669840	-0.126793	0.000067
C27	C	0.986441	-0.288265	0.000071
C28	C	0.988215	-0.388346	0.000069
N29	N	0.992358	-0.123443	-0.248672
C30	C	0.912540	0.553895	0.000065
C31	C	1.065556	0.575372	0.000077
C32	C	1.067224	0.481341	0.000083
C33	C	0.991549	0.423582	0.000078
C34	C	0.914206	0.459854	0.000067
C35	C	1.144565	0.445061	0.000083
C36	C	1.146236	0.351024	0.000088
C37	C	1.070560	0.293263	0.000090
C38	C	0.993214	0.329541	0.000081
C39	C	0.917539	0.271782	0.000076
C40	C	0.840192	0.308058	0.000074
C41	C	0.838530	0.402093	0.000070
C42	C	1.072223	0.199228	0.000094
C43	C	0.919205	0.177741	0.000079
C44	C	0.941357	-0.068728	-0.298937
C45	C	1.043370	-0.178152	-0.298911
C46	C	1.043381	-0.178152	-0.399406
C47	C	0.992379	-0.123437	-0.449672
C48	C	0.941367	-0.068724	-0.399442
C49	C	1.094398	-0.232857	-0.449644
C50	C	1.094411	-0.232858	-0.550146
C51	C	1.043405	-0.178148	-0.600413
C52	C	0.992390	-0.123433	-0.550177
C53	C	0.941389	-0.068719	-0.600443
C54	C	0.890369	-0.014008	-0.550209
C55	C	0.890361	-0.014014	-0.449710
C56	C	1.043413	-0.178142	-0.700912
C57	C	0.941399	-0.068714	-0.700948
N58	N	0.992411	-0.123428	0.248822
H59	H	1.535294	-0.203610	0.145350
H60	H	1.127167	0.622405	0.000073
H61	H	1.135954	-0.277407	-0.591038
C62	C	1.542270	-0.216495	-0.168525
C63	C	1.603549	-0.166305	-0.241158
C64	C	1.630726	-0.215940	-0.331064
C65	C	1.596624	-0.315765	-0.348336
C66	C	1.535341	-0.365961	-0.275700
C67	C	1.508164	-0.316326	-0.185795
H68	H	1.628797	-0.092404	-0.228374
H69	H	1.676092	-0.178782	-0.384833
H70	H	1.616741	-0.352508	-0.414889
H71	H	1.510093	-0.439863	-0.288484
H72	H	1.462798	-0.353485	-0.132026
H73	H	1.135197	0.169696	0.000090
H74	H	0.857580	0.130719	0.000079
C75	C	1.150496	-0.293036	-0.394348
C76	C	1.218844	-0.249718	-0.325219
C77	C	1.274942	-0.309900	-0.269915
C78	C	1.262692	-0.413401	-0.283740
C79	C	1.194340	-0.456725	-0.352872
C80	C	1.138242	-0.396543	-0.408176
H81	H	1.227915	-0.173095	-0.314982
H82	H	1.325540	-0.277828	-0.218738
H83	H	1.304219	-0.457952	-0.242800
H84	H	1.185269	-0.533348	-0.363108
H85	H	1.087644	-0.428615	-0.459352
H86	H	1.449653	-0.043342	0.145506
H87	H	1.449446	-0.043337	-0.145165
H88	H	1.563666	0.033990	0.000174
H89	H	0.778578	0.261018	0.000063
C90	C	0.753457	0.442003	0.000066
C91	C	0.731263	0.503692	-0.082846
C92	C	0.646192	0.543609	-0.082850
C93	C	0.583316	0.521836	0.000059
C94	C	0.605508	0.460144	0.082978
C95	C	0.690579	0.420228	0.082981
H96	H	0.777809	0.519813	-0.144226
H97	H	0.629764	0.589278	-0.144232
H98	H	0.520342	0.551385	0.000057
H99	H	0.558962	0.444024	0.144357
H100	H	0.707007	0.374559	0.144363
H101	H	0.849566	0.583435	0.000066
H102	H	1.084955	-0.222683	-0.741808
H103	H	1.206176	0.492094	0.000078
H104	H	0.848825	0.030530	-0.408801
C105	C	1.099469	-0.238333	-0.243619
C106	C	1.167828	-0.195016	-0.174501
C107	C	1.223928	-0.255201	-0.119203
C108	C	1.211670	-0.358702	-0.133024
C109	C	1.143309	-0.402024	-0.202145
C110	C	1.087209	-0.341840	-0.257442
H111	H	1.176904	-0.118394	-0.164267
H112	H	1.274533	-0.223130	-0.068035
H113	H	1.253199	-0.403254	-0.092089
H114	H	1.134232	-0.478647	-0.212379
H115	H	1.036603	-0.373910	-0.308611
H116	H	1.209217	0.321496	0.000091
H117	H	1.420922	-0.280777	0.000155
C118	C	0.885296	-0.008526	-0.756237
C119	C	0.897550	0.094973	-0.742404
C120	C	0.841446	0.155161	-0.797692
C121	C	0.773089	0.111849	-0.866814
C122	C	0.760832	0.008344	-0.880650
C123	C	0.816935	-0.051844	-0.825362
H124	H	0.948155	0.127041	-0.691233
H125	H	0.850520	0.231783	-0.787450
H126	H	0.731558	0.156404	-0.907742
H127	H	0.710227	-0.023723	-0.931821
H128	H	0.807861	-0.128466	-0.835605
C129	C	0.834269	0.046175	-0.605510
C130	C	0.846520	0.149677	-0.591689
C131	C	0.790423	0.209858	-0.646995
C132	C	0.722074	0.166538	-0.716123
C133	C	0.709820	0.063031	-0.729947
C134	C	0.765917	0.002850	-0.674641
H135	H	0.897119	0.181750	-0.540514
H136	H	0.799495	0.286481	-0.636761
H137	H	0.680548	0.211088	-0.757064
H138	H	0.659221	0.030958	-0.781122
H139	H	0.756846	-0.073773	-0.684875
C140	C	0.885239	-0.008548	-0.243685
C141	C	0.925536	0.064861	-0.174573
C142	C	0.869418	0.125042	-0.119319
C143	C	0.773002	0.111814	-0.133178
C144	C	0.732699	0.038401	-0.202294
C145	C	0.788817	-0.021779	-0.257547
H146	H	0.996914	0.074656	-0.164311
H147	H	0.899254	0.179387	-0.068155
H148	H	0.731460	0.156363	-0.092276
H149	H	0.661322	0.028606	-0.212556
H150	H	0.758982	-0.076124	-0.308711
