data_functionalizedCrystal
_audit_creation_method	'MofGen! by Chris Wilmer'
_symmetry_space_group_name_H-M	'P1'
_symmetry_Int_Tables_number	1
_symmetry_cell_setting	triclinic
loop_
_symmetry_equiv_pos_as_xyz
  x,y,z
_cell_length_a	10.654550
_cell_length_b	15.995350
_cell_length_c	9.730223
_cell_angle_alpha	90.000899
_cell_angle_beta	89.996251
_cell_angle_gamma	83.988639
loop_
_atom_site_label
_atom_site_type_symbol
_atom_site_fract_x
_atom_site_fract_y
_atom_site_fract_z
O1	O	1.666298	0.117599	-0.114395
O2	O	1.300673	0.128803	-0.114373
O3	O	1.493480	0.001371	-0.114383
O4	O	1.473491	0.245031	-0.114385
O5	O	1.493478	0.001375	0.114197
O6	O	1.300671	0.128806	0.114207
O7	O	1.666295	0.117602	0.114185
Zn8	Zn	1.483483	0.123205	0.150488
Zn9	Zn	1.483486	0.123200	-0.150676
O10	O	1.473488	0.245034	0.114195
C11	C	1.253885	0.127982	-0.000080
C12	C	1.114473	0.125521	-0.000071
C13	C	1.034008	0.200551	-0.000092
C14	C	0.903017	0.198233	-0.000116
C15	C	0.932971	0.045849	-0.000104
C16	C	1.063959	0.048168	-0.000071
C17	C	1.016713	0.288528	-0.000104
C18	C	0.885722	0.286211	-0.000128
C19	C	1.492652	-0.029827	-0.000096
C20	C	1.490175	-0.122791	-0.000104
C21	C	1.481278	-0.460591	-0.000098
C22	C	1.343964	-0.413954	-0.000603
C23	C	1.346442	-0.317249	-0.000087
C24	C	1.485691	-0.293004	-0.000102
C25	C	1.553417	-0.333687	0.130422
C26	C	1.549968	-0.430342	0.130531
C27	C	1.552807	-0.430688	-0.129407
C28	C	1.552775	-0.333743	-0.131132
C29	C	1.488192	-0.198292	-0.000099
C30	C	1.478780	-0.555303	-0.000092
C31	C	1.713084	0.118423	-0.000111
C32	C	1.852495	0.120884	-0.000129
C33	C	1.474316	0.276232	-0.000095
C34	C	1.476793	0.369197	-0.000097
N35	N	1.483490	0.123207	0.356024
N36	N	1.483488	0.123191	-0.356212
C37	C	1.568886	0.066800	0.427946
C38	C	1.568883	0.066789	0.571829
C39	C	1.398083	0.179602	0.571856
C40	C	1.398081	0.179607	0.427976
C41	C	1.667501	0.001671	0.427931
C42	C	1.667497	0.001661	0.571814
H43	H	1.045593	0.322938	0.095561
H44	H	1.289324	-0.433864	0.092484
C45	C	1.228677	-0.037637	-0.117517
C46	C	1.152409	-0.034307	-0.000036
H47	H	1.283286	-0.088554	-0.117488
H48	H	1.176977	-0.035384	-0.197226
H49	H	1.277506	0.008763	-0.117496
H50	H	1.103572	-0.080705	-0.000062
H51	H	1.204115	-0.036568	0.079694
H52	H	1.328544	0.225520	0.630455
C53	C	1.173295	-0.222548	-0.083082
C54	C	1.274588	-0.279281	-0.126394
H55	H	1.128943	-0.199106	-0.161063
H56	H	1.117941	-0.251156	-0.027884
H57	H	1.204309	-0.178898	-0.030941
H58	H	1.243573	-0.322935	-0.178526
H59	H	1.329951	-0.250673	-0.181614
H60	H	1.655720	-0.318967	0.135266
C61	C	1.370803	0.293399	0.266194
C62	C	1.304207	0.241610	0.348920
H63	H	1.312844	0.331676	0.217386
H64	H	1.423058	0.323839	0.322327
H65	H	1.421656	0.259803	0.202750
H66	H	1.253360	0.275206	0.412372
H67	H	1.251930	0.211168	0.292783
C68	C	0.918137	-0.084744	0.117403
C69	C	0.877440	-0.039175	-0.000112
H70	H	0.883849	-0.137233	0.117397
H71	H	1.007654	-0.094100	0.117411
H72	H	0.890489	-0.053808	0.197098
H73	H	0.905096	-0.070109	-0.079808
H74	H	0.787904	-0.029822	-0.000132
C75	C	1.622796	-0.137898	0.487126
C76	C	1.639678	-0.085202	0.375198
H77	H	1.605611	-0.191525	0.454567
H78	H	1.697326	-0.143812	0.541344
H79	H	1.553986	-0.114099	0.541361
H80	H	1.708494	-0.108999	0.320967
H81	H	1.565139	-0.079291	0.320956
H82	H	1.763822	0.016006	0.610858
H83	H	1.506376	-0.305577	0.227563
H84	H	1.052003	0.316540	-0.098792
H85	H	0.839703	0.312800	0.098556
H86	H	1.758418	0.022064	0.383299
C87	C	0.925276	0.360406	-0.207579
C88	C	0.828789	0.330955	-0.129270
H89	H	0.890126	0.388025	-0.287303
H90	H	0.967262	0.398791	-0.154423
H91	H	0.983866	0.314369	-0.234136
H92	H	0.770204	0.376993	-0.102704
H93	H	0.786783	0.292567	-0.182436
C94	C	1.346674	-0.497340	-0.205963
C95	C	1.269858	-0.439409	-0.126947
H96	H	1.300917	-0.513063	-0.283958
H97	H	1.419263	-0.472487	-0.235320
H98	H	1.371919	-0.545766	-0.152200
H99	H	1.244621	-0.390980	-0.180707
H100	H	1.197246	-0.464260	-0.097591
C101	C	1.228379	-0.344883	0.202110
C102	C	1.274112	-0.280045	0.126459
H103	H	1.183736	-0.321913	0.280245
H104	H	1.173277	-0.373250	0.146216
H105	H	1.297115	-0.383450	0.231193
H106	H	1.205374	-0.241480	0.097367
H107	H	1.329217	-0.251664	0.182364
H108	H	1.500580	-0.448929	0.228110
C109	C	1.770331	-0.411603	0.143220
C110	C	1.686056	-0.473092	0.138538
H111	H	1.854342	-0.437994	0.148177
H112	H	1.760819	-0.377932	0.062740
H113	H	1.752998	-0.377190	0.221935
H114	H	1.703383	-0.507501	0.059817
H115	H	1.695574	-0.506778	0.219026
H116	H	1.637779	-0.059156	0.616432
C117	C	1.491011	-0.210172	-0.265014
C118	C	1.486027	-0.297276	-0.261491
H119	H	1.449808	-0.187658	-0.345494
H120	H	1.450005	-0.185301	-0.186108
H121	H	1.576606	-0.198488	-0.265852
H122	H	1.400431	-0.308961	-0.260643
H123	H	1.527030	-0.322156	-0.340417
C124	C	1.716740	-0.261705	-0.030273
C125	C	1.689865	-0.312218	-0.141789
H126	H	1.801380	-0.248424	-0.036843
H127	H	1.660985	-0.211324	-0.031378
H128	H	1.706099	-0.291119	0.053030
H129	H	1.700496	-0.282802	-0.225093
H130	H	1.745636	-0.362608	-0.140697
C131	C	1.710300	-0.520446	-0.250713
C132	C	1.689477	-0.472769	-0.130623
H133	H	1.794673	-0.546422	-0.251457
H134	H	1.653579	-0.562438	-0.253559
H135	H	1.696788	-0.484805	-0.328565
H136	H	1.702980	-0.508411	-0.052770
H137	H	1.746216	-0.430772	-0.127764
H138	H	1.507914	-0.451490	-0.228337
