data_functionalizedCrystal
_audit_creation_method	'MofGen! by Chris Wilmer'
_symmetry_space_group_name_H-M	'P1'
_symmetry_Int_Tables_number	1
_symmetry_cell_setting	triclinic
loop_
_symmetry_equiv_pos_as_xyz
  x,y,z
_cell_length_a	15.944551
_cell_length_b	12.837942
_cell_length_c	11.892283
_cell_angle_alpha	94.307221
_cell_angle_beta	93.886446
_cell_angle_gamma	90.836161
loop_
_atom_site_label
_atom_site_type_symbol
_atom_site_fract_x
_atom_site_fract_y
_atom_site_fract_z
O1	O	1.120373	-0.140325	-0.094111
O2	O	1.620373	0.359675	0.405889
O3	O	0.877143	-0.156807	-0.094090
O4	O	1.377143	0.343193	0.405910
O5	O	0.993365	0.002338	-0.094093
O6	O	1.493365	0.502338	0.405907
O7	O	1.004151	-0.299470	-0.094108
O8	O	1.504151	0.200530	0.405892
O9	O	1.003034	0.015585	0.093909
O10	O	1.503034	0.515585	0.593909
O11	O	0.886812	-0.143559	0.093913
O12	O	1.386812	0.356441	0.593913
O13	O	1.130042	-0.127077	0.093891
O14	O	1.630042	0.372923	0.593891
Zn15	Zn	1.009963	-0.133215	0.123751
Zn16	Zn	1.509963	0.366785	0.623751
Zn17	Zn	0.997223	-0.150669	-0.123950
Zn18	Zn	1.497223	0.349331	0.376050
O19	O	1.013820	-0.286222	0.093894
O20	O	1.513820	0.213778	0.593894
C21	C	0.994556	0.047582	-0.000092
C22	C	1.494556	0.547582	0.499908
C23	C	0.983688	0.162660	-0.000093
C24	C	1.483688	0.662660	0.499907
C25	C	1.156556	-0.134386	-0.000116
C26	C	1.656556	0.365614	0.499884
C27	C	1.249965	-0.136439	-0.000131
C28	C	1.749965	0.363561	0.499869
C29	C	0.850629	-0.149499	-0.000086
C30	C	1.350629	0.350501	0.499914
C31	C	0.757220	-0.147446	-0.000077
C32	C	1.257220	0.352554	0.499923
C33	C	1.473107	-0.239986	-0.000111
C34	C	1.973107	0.260014	0.499889
C35	C	1.525513	-0.198433	-0.092802
C36	C	2.025513	0.301567	0.407198
C37	C	1.420989	-0.140149	-0.000115
C38	C	1.920989	0.359851	0.499885
C39	C	1.535022	-0.185348	0.092553
C40	C	2.035022	0.314652	0.592553
C41	C	1.586190	-0.143740	-0.000095
C42	C	2.086190	0.356260	0.499905
C43	C	1.472161	-0.098574	-0.092883
C44	C	1.972161	0.401426	0.407117
C45	C	1.481669	-0.085497	0.092555
C46	C	1.981669	0.414503	0.592555
C47	C	1.534051	-0.043873	-0.000159
C48	C	2.034051	0.456127	0.499841
C49	C	1.325821	-0.138083	-0.000128
C50	C	1.825821	0.361917	0.499872
C51	C	1.681356	-0.145798	-0.000090
C52	C	2.181356	0.354202	0.499910
C53	C	1.012630	-0.331467	-0.000109
C54	C	1.512630	0.168533	0.499891
C55	C	1.023497	-0.446545	-0.000116
C56	C	1.523497	0.053455	0.499884
N57	N	1.018663	-0.121302	0.292800
N58	N	1.518663	0.378698	0.792800
C59	C	1.114338	0.403607	-0.000128
C60	C	1.614338	0.903607	0.499872
C61	C	1.104131	0.511733	-0.000129
C62	C	1.604131	1.011733	0.499871
C63	C	0.953066	0.487041	-0.000104
C64	C	1.453066	0.987041	0.499896
C65	C	0.963273	0.378915	-0.000103
C66	C	1.463273	0.878915	0.499897
C67	C	1.043912	0.337202	-0.000114
C68	C	1.543912	0.837202	0.499886
C69	C	1.054119	0.229074	-0.000104
C70	C	1.554119	0.729074	0.499896
C71	C	0.903054	0.204383	-0.000087
C72	C	1.403054	0.704383	0.499913
C73	C	0.892847	0.312510	-0.000088
C74	C	1.392847	0.812510	0.499912
N75	N	0.988528	-0.162574	-0.292999
N76	N	1.488528	0.337426	0.207001
C77	C	1.079291	-0.038356	0.470302
C78	C	1.579291	0.461644	0.970302
C79	C	1.073191	-0.046692	0.351964
C80	C	1.573191	0.453308	0.851964
C81	C	0.970234	-0.187584	0.351983
C82	C	1.470234	0.312416	0.851983
C83	C	0.976333	-0.179249	0.470322
C84	C	1.476333	0.320751	0.970322
C85	C	1.030863	-0.104631	0.529477
C86	C	1.530863	0.395369	1.029477
C87	C	1.036958	-0.096292	0.647818
C88	C	1.536958	0.403708	1.147818
C89	C	0.934005	-0.237189	0.647835
C90	C	1.434005	0.262811	1.147835
C91	C	0.927905	-0.245524	0.529497
C92	C	1.427905	0.254476	1.029497
H93	H	1.544975	-0.246184	-0.171167
H94	H	2.044975	0.253816	0.328833
C95	C	1.181600	0.584776	-0.000139
C96	C	1.681600	1.084776	0.499861
H97	H	1.231085	0.544444	-0.000137
H98	H	1.731085	1.044444	0.499863
H99	H	1.177385	0.622849	-0.065699
H100	H	1.677385	1.122849	0.434301
H101	H	1.184132	0.632090	0.065431
H102	H	1.684132	1.132090	0.565431
H103	H	0.887412	0.521022	-0.000108
H104	H	1.387412	1.021022	0.499892
H105	H	1.112627	0.007275	0.303787
H106	H	1.612627	0.507275	0.803787
H107	H	0.925843	-0.248343	0.303804
H108	H	1.425843	0.251657	0.803804
H109	H	0.894569	-0.291152	0.696029
H110	H	1.394569	0.208848	1.196029
C111	C	0.804152	0.358401	-0.000070
C112	C	1.304152	0.858401	0.499930
H113	H	0.808158	0.432308	-0.000065
H114	H	1.308158	0.932308	0.499935
H115	H	0.771410	0.330983	-0.065620
H116	H	1.271410	0.830983	0.434380
H117	H	0.778172	0.340233	0.065509
H118	H	1.278172	0.840233	0.565509
C119	C	1.139263	0.043721	0.535382
C120	C	1.639263	0.543721	1.035382
H121	H	1.135954	0.039198	0.614335
H122	H	1.635954	0.539198	1.114335
H123	H	1.195224	0.031062	0.515972
H124	H	1.695224	0.531062	1.015972
H125	H	1.123594	0.111550	0.515998
H126	H	1.623594	0.611550	1.015998
C127	C	0.825580	0.131340	-0.000067
C128	C	1.325580	0.631340	0.499933
H129	H	0.776096	0.171673	-0.000050
H130	H	1.276096	0.671673	0.499950
H131	H	0.823043	0.084016	-0.065621
H132	H	1.323043	0.584016	0.434379
H133	H	0.829800	0.093279	0.065508
H134	H	1.329800	0.593279	0.565508
H135	H	1.444763	-0.061913	-0.171337
H136	H	1.944763	0.438087	0.328663
H137	H	0.883510	-0.306279	0.481319
H138	H	1.383510	0.193721	0.981319
C139	C	1.437053	-0.351938	-0.000232
C140	C	1.937053	0.148062	0.499768
H141	H	1.407369	-0.358022	0.065661
H142	H	1.907369	0.141978	0.565661
H143	H	1.399833	-0.366761	-0.065466
H144	H	1.899833	0.133239	0.434534
H145	H	1.481723	-0.400098	-0.000948
H146	H	1.981723	0.099902	0.499052
H147	H	1.560567	0.039069	-0.000201
H148	H	2.060567	0.539069	0.499799
H149	H	1.462192	-0.037784	0.170928
H150	H	1.962192	0.462216	0.670928
H151	H	1.179999	0.369645	-0.000126
H152	H	1.679999	0.869645	0.499874
C153	C	1.572158	-0.234948	0.198421
C154	C	2.072158	0.265052	0.698421
H155	H	1.551207	-0.304616	0.198296
H156	H	2.051207	0.195384	0.698296
H157	H	1.631710	-0.235319	0.198040
H158	H	2.131710	0.264681	0.698040
H159	H	1.556448	-0.195517	0.264244
H160	H	2.056448	0.304483	0.764244
H161	H	1.081356	-0.035532	0.695981
H162	H	1.581356	0.464468	1.195981
C163	C	1.142817	0.183190	-0.000120
C164	C	1.642817	0.683190	0.499880
H165	H	1.183297	0.238228	-0.000140
H166	H	1.683297	0.738228	0.499860
H167	H	1.153318	0.146146	0.065439
H168	H	1.653318	0.646146	0.565439
H169	H	1.146561	0.136900	-0.065690
H170	H	1.646561	0.636900	0.434310
