data_functionalizedCrystal
_audit_creation_method	'MofGen! by Chris Wilmer'
_symmetry_space_group_name_H-M	'P1'
_symmetry_Int_Tables_number	1
_symmetry_cell_setting	triclinic
loop_
_symmetry_equiv_pos_as_xyz
  x,y,z
_cell_length_a	12.594517
_cell_length_b	12.594516
_cell_length_c	12.594509
_cell_angle_alpha	89.972125
_cell_angle_beta	89.985695
_cell_angle_gamma	90.011773
loop_
_atom_site_label
_atom_site_type_symbol
_atom_site_fract_x
_atom_site_fract_y
_atom_site_fract_z
Zn1	Zn	1.627298	-0.423711	-0.601663
Zn2	Zn	1.627202	-0.601722	-0.423686
Zn3	Zn	1.449302	-0.423757	-0.423714
Zn4	Zn	1.449297	-0.601648	-0.601638
O5	O	1.538275	-0.512710	-0.512675
O6	O	1.776231	-0.447336	-0.578053
O7	O	1.603565	-0.578164	-0.274744
O8	O	1.472956	-0.274805	-0.447342
O9	O	1.776161	-0.578120	-0.447294
O10	O	1.603729	-0.274772	-0.578080
O11	O	1.472863	-0.447415	-0.274764
O12	O	1.300356	-0.447343	-0.447317
O13	O	1.472948	-0.577994	-0.750587
O14	O	1.300352	-0.578039	-0.578037
O15	O	1.603724	-0.447265	-0.750606
O16	O	1.603561	-0.750658	-0.447269
O17	O	1.472855	-0.750604	-0.578010
C18	C	1.261734	-0.512689	-0.512678
C19	C	1.143429	-0.512706	-0.512704
C20	C	1.003441	-0.583920	-0.583671
C21	C	1.074213	-0.609828	-0.486529
C22	C	1.074228	-0.486845	-0.609835
C23	C	1.003415	-0.538698	-0.415479
C24	C	1.003424	-0.415671	-0.538850
C25	C	1.074164	-0.441542	-0.441642
C26	C	1.538226	-0.789251	-0.512657
C27	C	1.538302	-0.907556	-0.512684
C28	C	1.609475	-0.976800	-0.441650
C29	C	1.635486	-1.047496	-0.538797
C30	C	1.512424	-1.047658	-0.415600
C31	C	1.564362	-0.976694	-0.609882
C32	C	1.441256	-0.976850	-0.486619
C33	C	1.467229	-1.047515	-0.583833
C34	C	1.815896	-0.512731	-0.512673
C35	C	1.934201	-0.512740	-0.512672
C36	C	1.538346	-0.512616	-0.790296
C37	C	1.538377	-0.512577	-0.908602
C38	C	1.538354	-0.235089	-0.512717
C39	C	1.538387	-0.116783	-0.512735
C40	C	1.467270	-0.583640	-0.977845
C41	C	1.564392	-0.609646	-1.048623
C42	C	1.441330	-0.486506	-1.048622
C43	C	1.635550	-0.538634	-0.977822
C44	C	1.512422	-0.415449	-0.977815
C45	C	1.609612	-0.441418	-1.048562
C46	C	1.538265	-0.512726	-0.236134
C47	C	1.538441	-0.512465	-0.117829
H48	H	0.972441	-0.560685	-0.333301
Cl49	Cl	1.122254	-0.453051	-0.736674
Cl50	Cl	1.702412	-0.928855	-0.348988
Cl51	Cl	1.314579	-0.452531	-1.096639
H52	H	1.105021	-0.381333	-0.381545
H53	H	1.717593	-1.078531	-0.560871
H54	H	1.407077	-1.078369	-0.643995
Cl55	Cl	0.955373	-0.288990	-0.573070
Cl56	Cl	1.762338	-0.572763	-0.930015
Cl57	Cl	1.598373	-0.928780	-0.736709
Cl58	Cl	1.314520	-0.928903	-0.452497
H59	H	1.490502	-1.078828	-0.333476
Cl60	Cl	1.478431	-0.288741	-0.929753
H61	H	1.407184	-0.643829	-0.946795
H62	H	1.105307	-0.691903	-0.464393
Cl63	Cl	1.598341	-0.736387	-1.096647
H64	H	0.972388	-0.644175	-0.643623
Cl65	Cl	1.702597	-0.348562	-1.096208
