data_functionalizedCrystal
_audit_creation_method	'MofGen! by Chris Wilmer'
_symmetry_space_group_name_H-M	'P1'
_symmetry_Int_Tables_number	1
_symmetry_cell_setting	triclinic
loop_
_symmetry_equiv_pos_as_xyz
  x,y,z
_cell_length_a	22.610064
_cell_length_b	27.732025
_cell_length_c	23.532407
_cell_angle_alpha	82.741073
_cell_angle_beta	89.997161
_cell_angle_gamma	90.018575
loop_
_atom_site_label
_atom_site_type_symbol
_atom_site_fract_x
_atom_site_fract_y
_atom_site_fract_z
O1	O	-0.049093	0.058673	0.755133
O2	O	0.450907	0.558673	1.255133
O3	O	-0.049107	0.067163	0.589250
O4	O	0.450893	0.567163	1.089250
O5	O	-0.049117	-0.007472	0.677350
O6	O	0.450883	0.492528	1.177350
O7	O	-0.049082	0.133307	0.667033
O8	O	0.450918	0.633307	1.167033
O9	O	0.049252	-0.007461	0.677335
O10	O	0.549252	0.492539	1.177335
O11	O	0.049262	0.067174	0.589235
O12	O	0.549262	0.567174	1.089235
O13	O	0.049277	0.058684	0.755117
O14	O	0.549277	0.558684	1.255117
Zn15	Zn	0.064887	0.062931	0.672173
Zn16	Zn	0.564887	0.562931	1.172173
Zn17	Zn	-0.064718	0.062916	0.672194
Zn18	Zn	0.435282	0.562916	1.172194
O19	O	0.049287	0.133318	0.667017
O20	O	0.549287	0.633318	1.167017
C21	C	0.000075	0.066952	0.568027
C22	C	0.500075	0.566952	1.068027
C23	C	0.000068	0.066302	0.504811
C24	C	0.500068	0.566302	1.004811
N25	N	0.153340	0.062940	0.672164
N26	N	0.653340	0.562940	1.172164
C27	C	0.000061	-0.025474	0.677128
C28	C	0.500061	0.474526	1.177128
C29	C	0.000044	-0.079130	0.676482
C30	C	0.500044	0.420870	1.176482
N31	N	-0.153171	0.062903	0.672208
N32	N	0.346829	0.562903	1.172208
C33	C	0.561977	0.029873	0.711206
C34	C	1.061977	0.529873	1.211206
C35	C	0.623897	0.029869	0.711209
C36	C	1.123897	0.529869	1.211209
O37	O	0.655912	0.001762	0.744380
O38	O	1.155912	0.501762	1.244380
N39	N	0.654877	0.062906	0.672194
N40	N	1.154877	0.562906	1.172194
C41	C	0.623934	0.095945	0.633169
C42	C	1.123934	0.595945	1.133169
O43	O	0.655971	0.124045	0.599983
O44	O	1.155971	0.624045	1.099983
C45	C	0.562015	0.095946	0.633163
C46	C	1.062015	0.595946	1.133163
C47	C	0.531038	0.062910	0.672185
C48	C	1.031038	0.562910	1.172185
C49	C	0.531000	-0.003160	0.750225
C50	C	1.031000	0.496840	1.250225
C51	C	0.469084	-0.003156	0.750222
C52	C	0.969084	0.496844	1.250222
C53	C	0.438146	0.029881	0.711201
C54	C	0.938146	0.529881	1.211201
C55	C	0.469123	0.062915	0.672183
C56	C	0.969123	0.562915	1.172183
C57	C	0.531074	0.128983	0.594136
C58	C	1.031074	0.628983	1.094136
C59	C	0.469151	0.128980	0.594134
C60	C	0.969151	0.628980	1.094134
C61	C	0.438174	0.095945	0.633156
C62	C	0.938174	0.595945	1.133156
C63	C	0.376269	0.095957	0.633160
C64	C	0.876269	0.595957	1.133160
N65	N	0.345288	0.062920	0.672176
N66	N	0.845288	0.562920	1.172176
C67	C	0.376227	0.029882	0.711196
C68	C	0.876227	0.529882	1.211196
C69	C	0.753968	0.095940	0.633182
C70	C	1.253968	0.595940	1.133182
C71	C	0.815886	0.095942	0.633189
C72	C	1.315886	0.595942	1.133189
C73	C	0.815844	0.029866	0.711229
C74	C	1.315844	0.529866	1.211229
C75	C	0.753925	0.029866	0.711224
C76	C	1.253925	0.529866	1.211224
C77	C	0.722988	0.062904	0.672197
C78	C	1.222988	0.562904	1.172197
C79	C	0.246199	0.029894	0.711189
C80	C	0.746199	0.529894	1.211189
C81	C	0.184278	0.029902	0.711184
C82	C	0.684278	0.529902	1.211184
C83	C	0.184326	0.095977	0.633143
C84	C	0.684326	0.595977	1.133143
C85	C	0.246241	0.095971	0.633149
C86	C	0.746241	0.595971	1.133149
C87	C	0.277177	0.062925	0.672174
C88	C	0.777177	0.562925	1.172174
O89	O	0.344214	0.124048	0.600004
O90	O	0.844214	0.624048	1.100004
O91	O	0.344182	0.001783	0.744372
O92	O	0.844182	0.501783	1.244372
C93	C	-0.053543	-0.462309	0.671899
C94	C	0.446457	0.037691	1.171899
C95	C	-0.053562	-0.260646	0.674317
C96	C	0.446438	0.239354	1.174317
O97	O	-0.099166	-0.234583	0.674660
O98	O	0.400834	0.265417	1.174660
N99	N	0.000057	-0.235418	0.674611
N100	N	0.500057	0.264582	1.174611
C101	C	0.053685	-0.260610	0.674304
C102	C	0.553685	0.239390	1.174304
O103	O	0.099291	-0.234525	0.674615
O104	O	0.599291	0.265475	1.174615
C105	C	0.053703	-0.462272	0.671890
C106	C	0.553703	0.037728	1.171890
C107	C	0.000080	-0.487497	0.671590
C108	C	0.500080	0.012503	1.171590
C109	C	-0.107162	-0.487533	0.671600
C110	C	0.392838	0.012467	1.171600
C111	C	-0.107157	-0.537946	0.670992
C112	C	0.392843	-0.037946	1.170992
C113	C	-0.053533	-0.563133	0.670684
C114	C	0.446467	-0.063133	1.170684
C115	C	0.000086	-0.537909	0.670983
C116	C	0.500086	-0.037909	1.170983
C117	C	0.107331	-0.487464	0.671587
C118	C	0.607331	0.012536	1.171587
C119	C	0.107331	-0.537883	0.670985
C120	C	0.607331	-0.037883	1.170985
C121	C	0.053708	-0.563107	0.670685
C122	C	0.553708	-0.063107	1.170685
C123	C	0.053715	-0.613509	0.670066
C124	C	0.553715	-0.113509	1.170066
N125	N	0.000095	-0.638737	0.669772
N126	N	0.500095	-0.138737	1.169772
C127	C	-0.053529	-0.613549	0.670081
C128	C	0.446471	-0.113549	1.170081
C129	C	0.053672	-0.154734	0.675570
C130	C	0.553672	0.345266	1.175570
C131	C	0.053668	-0.104318	0.676173
C132	C	0.553668	0.395682	1.176173
C133	C	-0.053580	-0.104358	0.676187
C134	C	0.446420	0.395642	1.176187
C135	C	-0.053575	-0.154774	0.675580
C136	C	0.446425	0.345226	1.175580
C137	C	0.000052	-0.179961	0.675277
C138	C	0.500052	0.320039	1.175277
C139	C	-0.053513	-0.719419	0.668805
C140	C	0.446487	-0.219419	1.168805
C141	C	-0.053503	-0.769835	0.668194
C142	C	0.446497	-0.269835	1.168194
C143	C	0.053744	-0.769792	0.668183
C144	C	0.553744	-0.269792	1.168183
C145	C	0.053734	-0.719379	0.668790
C146	C	0.553734	-0.219379	1.168790
C147	C	0.000101	-0.694194	0.669103
C148	C	0.500101	-0.194194	1.169103
O149	O	0.099295	-0.639604	0.669730
O150	O	0.599295	-0.139604	1.169730
O151	O	-0.099128	-0.639643	0.669782
O152	O	0.400872	-0.139643	1.169782
C153	C	-0.053549	-0.411896	0.672507
C154	C	0.446451	0.088104	1.172507
C155	C	0.000070	-0.386672	0.672806
C156	C	0.500070	0.113328	1.172806
C157	C	0.053694	-0.411860	0.672497
C158	C	0.553694	0.088140	1.172497
C159	C	0.000066	-0.336256	0.673408
C160	C	0.500066	0.163744	1.173408
C161	C	-0.053558	-0.311068	0.673717
C162	C	0.446442	0.188932	1.173717
C163	C	-0.107178	-0.336296	0.673423
C164	C	0.392822	0.163704	1.173423
C165	C	-0.107173	-0.386708	0.672815
C166	C	0.392827	0.113292	1.172815
C167	C	0.107313	-0.386632	0.672791
C168	C	0.607313	0.113368	1.172791
C169	C	0.107304	-0.336220	0.673398
C170	C	0.607304	0.163780	1.173398
C171	C	0.053680	-0.311032	0.673706
C172	C	0.553680	0.188968	1.173706
C173	C	0.000107	0.151320	0.667240
C174	C	0.500107	0.651320	1.167240
C175	C	0.000120	0.204977	0.667886
C176	C	0.500120	0.704977	1.167886
C177	C	0.000105	0.106392	0.105619
C178	C	0.500105	0.606392	0.605619
C179	C	0.000108	0.105789	0.046220
C180	C	0.500108	0.605789	0.546220
O181	O	0.000139	0.142953	0.009393
O182	O	0.500139	0.642953	0.509393
N183	N	0.000096	0.061418	0.023693
N184	N	0.500096	0.561418	0.523693
C185	C	0.000087	0.017649	0.060568
C186	C	0.500087	0.517649	0.560568
O187	O	0.000078	-0.020147	0.035953
O188	O	0.500078	0.479853	0.535953
C189	C	0.000088	0.018253	0.119966
C190	C	0.500088	0.518253	0.619966
C191	C	0.000094	0.062626	0.142489
C192	C	0.500094	0.562626	0.642489
C193	C	0.000112	0.150762	0.128143
C194	C	0.500112	0.650762	0.628143
C195	C	0.000107	0.151366	0.187538
C196	C	0.500107	0.651366	0.687538
C197	C	0.000096	0.107600	0.224408
C198	C	0.500096	0.607600	0.724408
C199	C	0.000089	0.063230	0.201884
C200	C	0.500089	0.563230	0.701884
C201	C	0.000083	-0.025516	0.156840
C202	C	0.500083	0.474484	0.656840
C203	C	0.000084	-0.024907	0.216241
C204	C	0.500084	0.475093	0.716241
C205	C	0.000090	0.019466	0.238765
C206	C	0.500090	0.519466	0.738765
C207	C	0.000073	0.020068	0.298150
C208	C	0.500073	0.520068	0.798150
N209	N	0.000085	0.064438	0.320677
N210	N	0.500085	0.564438	0.820677
C211	C	0.000097	0.108204	0.283806
C212	C	0.500097	0.608204	0.783806
C213	C	0.000086	0.016383	-0.064172
C214	C	0.500086	0.516383	0.435828
C215	C	0.000081	0.015778	-0.123568
C216	C	0.500081	0.515778	0.376432
C217	C	0.000104	0.103918	-0.137912
C218	C	0.500104	0.603918	0.362088
C219	C	0.000105	0.104522	-0.078515
C220	C	0.500105	0.604522	0.421485
C221	C	0.000098	0.060753	-0.041645
C222	C	0.500098	0.560753	0.458355
C223	C	0.000087	0.109468	0.408540
C224	C	0.500087	0.609468	0.908540
C225	C	0.000080	0.110068	0.467941
C226	C	0.500080	0.610068	0.967941
C227	C	0.000060	0.021929	0.482280
C228	C	0.500060	0.521929	0.982280
C229	C	0.000064	0.021329	0.422884
C230	C	0.500064	0.521329	0.922884
C231	C	0.000079	0.065102	0.386015
C232	C	0.500079	0.565102	0.886015
O233	O	0.000045	-0.017077	0.335012
O234	O	0.500045	0.482923	0.835012
O235	O	0.000114	0.145994	0.308430
O236	O	0.500114	0.645994	0.808430
C237	C	0.000093	0.058894	0.776340
C238	C	0.500093	0.558894	1.276340
C239	C	0.000096	0.059544	0.839556
C240	C	0.500096	0.559544	1.339556
H241	H	0.159059	0.003001	0.742963
H242	H	0.659059	0.503001	1.242963
H243	H	-0.097243	-0.083841	0.676435
H244	H	0.402757	0.416159	1.176435
N245	N	-0.111347	-0.797037	0.667898
N246	N	0.388653	-0.297037	1.167898
H247	H	-0.134808	-0.784185	0.632698
H248	H	0.365192	-0.284185	1.132698
H249	H	-0.134720	-0.792337	0.703357
H250	H	0.365280	-0.292337	1.203357
H251	H	0.097333	-0.083783	0.676406
H252	H	0.597333	0.416217	1.176406
N253	N	0.279560	-0.005744	0.753282
N254	N	0.779560	0.494256	1.253282
H255	H	0.250533	-0.026666	0.777999
H256	H	0.750533	0.473334	1.277999
H257	H	0.305254	0.012655	0.778294
H258	H	0.805254	0.512655	1.278294
H259	H	0.097398	-0.698838	0.669012
H260	H	0.597398	-0.198838	1.169012
H261	H	0.159126	0.122877	0.601374
H262	H	0.659126	0.622877	1.101374
H263	H	0.150973	-0.315686	0.673636
H264	H	0.650973	0.184314	1.173636
H265	H	-0.097240	-0.175308	0.675335
H266	H	0.402760	0.324692	1.175335
H267	H	0.443866	-0.030058	0.781996
H268	H	0.943866	0.469942	1.281996
H269	H	0.556184	-0.030066	0.782000
H270	H	1.056184	0.469934	1.282000
N271	N	0.279657	0.131608	0.591072
N272	N	0.779657	0.631608	1.091072
H273	H	0.250659	0.152540	0.566355
H274	H	0.750659	0.652540	1.066355
H275	H	0.305339	0.113211	0.566059
H276	H	0.805339	0.613211	1.066059
N277	N	0.849219	-0.005769	0.753317
N278	N	1.349219	0.494231	1.253317
H279	H	0.893144	-0.000755	0.747395
H280	H	1.393144	0.499245	1.247395
H281	H	0.838384	-0.040034	0.747045
H282	H	1.338384	0.459966	1.247045
H283	H	0.000067	-0.020355	-0.141901
H284	H	0.500067	0.479645	0.358099
N285	N	0.720516	-0.005764	0.753311
N286	N	1.220516	0.494236	1.253311
H287	H	0.749517	-0.026691	0.778030
H288	H	1.249517	0.473309	1.278030
H289	H	0.694821	-0.027043	0.731700
H290	H	1.194821	0.472957	1.231700
H291	H	0.097344	-0.175237	0.675323
H292	H	0.597344	0.324763	1.175323
H293	H	0.841103	0.122848	0.601420
H294	H	1.341103	0.622848	1.101420
H295	H	0.728782	0.122847	0.601403
H296	H	1.228782	0.622847	1.101403
H297	H	0.556287	0.155883	0.562361
H298	H	1.056287	0.655883	1.062361
N299	N	0.165168	-0.460266	0.671915
N300	N	0.665168	0.039734	1.171915
H301	H	0.199133	-0.483880	0.671633
H302	H	0.699133	0.016120	1.171633
H303	H	0.167500	-0.443438	0.707487
H304	H	0.667500	0.056562	1.207487
N305	N	0.111579	-0.796965	0.667860
N306	N	0.611579	-0.296965	1.167860
H307	H	0.103441	-0.832730	0.667436
H308	H	0.603441	-0.332730	1.167436
H309	H	0.134985	-0.792230	0.703287
H310	H	0.634985	-0.292230	1.203287
H311	H	-0.097187	-0.698919	0.669060
H312	H	0.402813	-0.198919	1.169060
N313	N	-0.164993	-0.565156	0.670738
N314	N	0.335007	-0.065156	1.170738
H315	H	-0.198960	-0.541546	0.671049
H316	H	0.301040	-0.041546	1.171049
H317	H	-0.167280	-0.590140	0.705829
H318	H	0.332720	-0.090140	1.205829
N319	N	0.000080	0.157930	0.492234
N320	N	0.500080	0.657930	0.992234
H321	H	0.000089	0.185562	0.459860
H322	H	0.500089	0.685562	0.959860
H323	H	0.036544	0.160108	0.516567
H324	H	0.536544	0.660108	1.016567
N325	N	0.000114	0.199229	0.211820
N326	N	0.500114	0.699229	0.711820
H327	H	0.036585	0.218391	0.198340
H328	H	0.536585	0.718391	0.698340
H329	H	0.000088	0.192941	0.255040
H330	H	0.500088	0.692941	0.755040
H331	H	0.000123	0.186404	0.098128
H332	H	0.500123	0.686404	0.598128
N333	N	0.000151	0.151132	-0.177672
N334	N	0.500151	0.651132	0.322328
H335	H	-0.036300	0.170515	-0.170480
H336	H	0.463700	0.670515	0.329520
H337	H	0.000184	0.143986	-0.218705
H338	H	0.500184	0.643986	0.281295
N339	N	0.165173	-0.565049	0.670660
N340	N	0.665173	-0.065049	1.170660
H341	H	0.199138	-0.541417	0.670942
H342	H	0.699138	-0.041417	1.170942
H343	H	0.167515	-0.581879	0.635090
H344	H	0.667515	-0.081879	1.135090
N345	N	0.435783	0.164612	0.552038
N346	N	0.935783	0.664612	1.052038
H347	H	0.464806	0.185537	0.527321
H348	H	0.964806	0.685537	1.027321
H349	H	0.410100	0.185893	0.573643
H350	H	0.910100	0.685893	1.073643
H351	H	-0.150831	-0.467031	0.671853
H352	H	0.349169	0.032969	1.171853
H353	H	0.000113	0.140655	-0.060180
H354	H	0.500113	0.640655	0.439820
N355	N	-0.165009	-0.413915	0.672530
N356	N	0.334991	0.086085	1.172530
H357	H	-0.198975	-0.390304	0.672831
H358	H	0.301025	0.109696	1.172831
H359	H	-0.167318	-0.438909	0.707611
H360	H	0.332682	0.061091	1.207611
H361	H	0.000101	0.145113	0.378528
H362	H	0.500101	0.645113	0.878528
N363	N	-0.165016	-0.309119	0.673713
N364	N	0.334984	0.190881	1.173713
H365	H	-0.156876	-0.273353	0.674130
H366	H	0.343124	0.226647	1.174130
H367	H	-0.188459	-0.322009	0.708917
H368	H	0.311541	0.177991	1.208917
N369	N	0.165153	-0.413795	0.672460
N370	N	0.665153	0.086205	1.172460
H371	H	0.199116	-0.390160	0.672738
H372	H	0.699116	0.109840	1.172738
H373	H	0.167493	-0.430623	0.636888
H374	H	0.667493	0.069377	1.136888
H375	H	0.000078	-0.061649	0.138512
H376	H	0.500078	0.438351	0.638512
H377	H	0.000079	-0.060550	0.246258
H378	H	0.500079	0.439450	0.746258
H379	H	0.000076	-0.019261	-0.034155
H380	H	0.500076	0.480739	0.465845
H381	H	0.000050	-0.014804	0.404545
H382	H	0.500050	0.485196	0.904545
H383	H	0.000049	-0.013704	0.512310
H384	H	0.500049	0.486296	1.012310
