data_functionalizedCrystal
_audit_creation_method	'MofGen! by Chris Wilmer'
_symmetry_space_group_name_H-M	'P1'
_symmetry_Int_Tables_number	1
_symmetry_cell_setting	triclinic
loop_
_symmetry_equiv_pos_as_xyz
  x,y,z
_cell_length_a	23.532407
_cell_length_b	23.532407
_cell_length_c	22.610064
_cell_angle_alpha	89.990850
_cell_angle_beta	89.990066
_cell_angle_gamma	82.848678
loop_
_atom_site_label
_atom_site_type_symbol
_atom_site_fract_x
_atom_site_fract_y
_atom_site_fract_z
O1	O	0.755269	0.069133	-0.049117
O2	O	1.088602	0.402467	0.284217
O3	O	1.421935	0.735800	0.617550
O4	O	0.589405	0.079137	-0.049135
O5	O	0.922739	0.412470	0.284198
O6	O	1.256072	0.745803	0.617532
O7	O	0.677338	-0.008797	-0.049114
O8	O	1.010672	0.324537	0.284219
O9	O	1.344005	0.657870	0.617552
O10	O	0.667335	0.157067	-0.049137
O11	O	1.000669	0.490400	0.284196
O12	O	1.334002	0.823733	0.617529
O13	O	0.677313	-0.008797	0.049255
O14	O	1.010646	0.324537	0.382588
O15	O	1.343979	0.657870	0.715921
O16	O	0.589380	0.079137	0.049234
O17	O	0.922713	0.412470	0.382568
O18	O	1.256046	0.745803	0.715901
O19	O	0.755243	0.069133	0.049252
O20	O	1.088576	0.402467	0.382586
O21	O	1.421910	0.735800	0.715919
Zn22	Zn	0.672307	0.074135	0.064862
Zn23	Zn	1.005640	0.407468	0.398195
Zn24	Zn	1.338974	0.740802	0.731528
Zn25	Zn	0.672341	0.074135	-0.064744
Zn26	Zn	1.005674	0.407468	0.268589
Zn27	Zn	1.339008	0.740802	0.601923
O28	O	0.667310	0.157067	0.049232
O29	O	1.000643	0.490400	0.382565
O30	O	1.333976	0.823733	0.715899
C31	C	0.568176	0.078882	0.000048
C32	C	0.901510	0.412215	0.333381
C33	C	1.234843	0.745549	0.666714
C34	C	0.504959	0.078116	0.000041
C35	C	0.838293	0.411449	0.333374
C36	C	1.171626	0.744783	0.666708
C37	C	0.105856	0.125350	0.000061
C38	C	0.439190	0.458683	0.333395
C39	C	0.772523	0.792016	0.666728
C40	C	0.046456	0.124638	0.000065
C41	C	0.379789	0.457971	0.333398
C42	C	0.713123	0.791305	0.666732
O43	O	0.009711	0.168424	0.000081
O44	O	0.343045	0.501757	0.333414
O45	O	0.676378	0.835091	0.666747
N46	N	0.023830	0.072362	0.000071
N47	N	0.357163	0.405695	0.333405
N48	N	0.690496	0.739028	0.666738
C49	C	0.060607	0.020794	0.000080
C50	C	0.393941	0.354127	0.333413
C51	C	0.727274	0.687460	0.666746
O52	O	0.035908	-0.023737	0.000086
O53	O	0.369241	0.309596	0.333419
O54	O	0.702574	0.642930	0.666753
C55	C	0.120006	0.021506	0.000080
C56	C	0.453340	0.354839	0.333414
C57	C	0.786673	0.688172	0.666747
C58	C	0.142629	0.073785	0.000068
C59	C	0.475962	0.407119	0.333401
C60	C	0.809296	0.740452	0.666735
C61	C	0.128479	0.177625	0.000050
C62	C	0.461813	0.510958	0.333383
C63	C	0.795146	0.844292	0.666716
C64	C	0.187876	0.178336	0.000045
C65	C	0.521209	0.511670	0.333378
C66	C	0.854542	0.845003	0.666712
C67	C	0.224649	0.126772	0.000052
C68	C	0.557982	0.460105	0.333385
C69	C	0.891315	0.793439	0.666718
C70	C	0.202025	0.074497	0.000063
C71	C	0.535359	0.407830	0.333397
C72	C	0.868692	0.741163	0.666730
C73	C	0.156783	-0.030062	0.000093
C74	C	0.490116	0.303271	0.333426
C75	C	0.823450	0.636605	0.666760
C76	C	0.216185	-0.029345	0.000094
C77	C	0.549519	0.303988	0.333427
C78	C	0.882852	0.637321	0.666761
C79	C	0.238808	0.022934	0.000082
C80	C	0.572141	0.356268	0.333415
C81	C	0.905475	0.689601	0.666748
C82	C	0.298194	0.023643	0.000065
C83	C	0.631528	0.356977	0.333398
C84	C	0.964861	0.690310	0.666732
N85	N	0.320820	0.075920	0.000059
N86	N	0.654154	0.409253	0.333392
N87	N	0.987487	0.742586	0.666726
C88	C	0.284048	0.127484	0.000052
C89	C	0.617381	0.460817	0.333386
C90	C	0.950714	0.794151	0.666719
C91	C	-0.064135	0.019302	0.000080
C92	C	0.269198	0.352635	0.333413
C93	C	0.602532	0.685969	0.666746
C94	C	-0.123533	0.018589	0.000075
C95	C	0.209800	0.351923	0.333408
C96	C	0.543134	0.685256	0.666742
C97	C	-0.137680	0.122434	0.000061
C98	C	0.195653	0.455768	0.333395
C99	C	0.528986	0.789101	0.666728
C100	C	-0.078281	0.123146	0.000062
C101	C	0.255052	0.456480	0.333395
C102	C	0.588385	0.789813	0.666729
C103	C	-0.041509	0.071578	0.000074
C104	C	0.291824	0.404912	0.333407
C105	C	0.625158	0.738245	0.666740
C106	C	0.408784	0.128974	0.000042
C107	C	0.742118	0.462307	0.333375
C108	C	1.075451	0.795640	0.666708
C109	C	0.468186	0.129680	0.000034
C110	C	0.801520	0.463014	0.333368
C111	C	1.134853	0.796347	0.666701
C112	C	0.482329	0.025836	0.000051
C113	C	0.815662	0.359169	0.333384
C114	C	1.148995	0.692503	0.666718
C115	C	0.422932	0.025129	0.000055
C116	C	0.756265	0.358462	0.333389
C117	C	1.089598	0.691796	0.666722
C118	C	0.386160	0.076702	0.000052
C119	C	0.719494	0.410036	0.333386
C120	C	1.052827	0.743369	0.666719
O121	O	0.334974	-0.020119	0.000052
O122	O	0.668307	0.313214	0.333385
O123	O	1.001640	0.646547	0.666719
O124	O	0.308755	0.172007	0.000054
O125	O	0.642089	0.505340	0.333387
O126	O	0.975422	0.838674	0.666721
C127	C	0.677071	-0.030013	0.000072
C128	C	1.010404	0.303321	0.333405
C129	C	1.343738	0.636654	0.666738
C130	C	0.676305	-0.093230	0.000076
C131	C	1.009638	0.240104	0.333409
C132	C	1.342972	0.573437	0.666743
C133	C	0.723539	-0.492333	0.000049
C134	C	1.056872	-0.158999	0.333382
C135	C	1.390205	0.174334	0.666716
C136	C	0.722827	-0.551733	0.000044
C137	C	1.056160	-0.218400	0.333378
C138	C	1.389494	0.114934	0.666711
O139	O	0.766613	-0.588478	0.000027
O140	O	1.099946	-0.255144	0.333361
O141	O	1.433280	0.078189	0.666694
N142	N	0.670551	-0.574359	0.000039
N143	N	1.003884	-0.241026	0.333372
N144	N	1.337217	0.092307	0.666706
C145	C	0.618983	-0.537582	0.000032
C146	C	0.952316	-0.204248	0.333366
C147	C	1.285649	0.129085	0.666699
O148	O	0.574452	-0.562281	0.000027
O149	O	0.907785	-0.228948	0.333360
O150	O	1.241119	0.104385	0.666693
C151	C	0.619695	-0.478182	0.000033
C152	C	0.953028	-0.144849	0.333366
C153	C	1.286361	0.188484	0.666699
C154	C	0.671974	-0.455560	0.000044
C155	C	1.005308	-0.122227	0.333377
C156	C	1.338641	0.211107	0.666711
C157	C	0.775814	-0.469710	0.000060
C158	C	1.109147	-0.136376	0.333393
C159	C	1.442481	0.196957	0.666726
C160	C	0.776525	-0.410313	0.000065
C161	C	1.109859	-0.076980	0.333399
C162	C	1.443192	0.256353	0.666732
C163	C	0.724961	-0.373540	0.000060
C164	C	1.058294	-0.040207	0.333394
C165	C	1.391628	0.293126	0.666727
C166	C	0.672685	-0.396164	0.000050
C167	C	1.006019	-0.062830	0.333383
C168	C	1.339352	0.270503	0.666716
C169	C	0.568127	-0.441406	0.000022
C170	C	0.901460	-0.108073	0.333355
C171	C	1.234794	0.225261	0.666688
C172	C	0.568844	-0.382004	0.000021
C173	C	0.902177	-0.048670	0.333355
C174	C	1.235510	0.284663	0.666688
C175	C	0.621123	-0.359381	0.000033
C176	C	0.954457	-0.026048	0.333366
C177	C	1.287790	0.307286	0.666699
C178	C	0.621832	-0.299995	0.000050
C179	C	0.955166	0.033339	0.333384
C180	C	1.288499	0.366672	0.666717
N181	N	0.674109	-0.277368	0.000056
N182	N	1.007442	0.055965	0.333389
N183	N	1.340775	0.389298	0.666722
C184	C	0.725673	-0.314141	0.000061
C185	C	1.059006	0.019192	0.333394
C186	C	1.392340	0.352525	0.666727
C187	C	0.617491	-0.662324	0.000031
C188	C	0.950824	-0.328991	0.333364
C189	C	1.284158	0.004343	0.666697
C190	C	0.616778	-0.721722	0.000034
C191	C	0.950112	-0.388389	0.333368
C192	C	1.283445	-0.055055	0.666701
C193	C	0.720623	-0.735869	0.000045
C194	C	1.053957	-0.402536	0.333379
C195	C	1.387290	-0.069203	0.666712
C196	C	0.721335	-0.676470	0.000046
C197	C	1.054669	-0.343137	0.333379
C198	C	1.388002	-0.009804	0.666712
C199	C	0.669767	-0.639698	0.000036
C200	C	1.003101	-0.306365	0.333369
C201	C	1.336434	0.026969	0.666702
C202	C	0.727163	-0.189405	0.000073
C203	C	1.060496	0.143929	0.333406
C204	C	1.393829	0.477262	0.666740
C205	C	0.727869	-0.130003	0.000081
C206	C	1.061203	0.203331	0.333414
C207	C	1.394536	0.536664	0.666748
C208	C	0.624025	-0.115860	0.000067
C209	C	0.957358	0.217473	0.333400
C210	C	1.290691	0.550806	0.666734
C211	C	0.623318	-0.175257	0.000062
C212	C	0.956651	0.158076	0.333395
C213	C	1.289985	0.491409	0.666729
C214	C	0.674891	-0.212029	0.000063
C215	C	1.008225	0.121305	0.333396
C216	C	1.341558	0.454638	0.666730
O217	O	0.578070	-0.263215	0.000065
O218	O	0.911403	0.070118	0.333398
O219	O	1.244736	0.403451	0.666732
O220	O	0.770196	-0.289433	0.000058
O221	O	1.103529	0.043900	0.333392
O222	O	1.436863	0.377233	0.666725
C223	C	0.776472	0.069388	0.000069
C224	C	1.109805	0.402722	0.333402
C225	C	1.443138	0.736055	0.666735
C226	C	0.839689	0.070154	0.000071
C227	C	1.173022	0.403487	0.333405
C228	C	1.506355	0.736821	0.666738
C229	C	0.667577	0.178283	0.000045
C230	C	1.000910	0.511616	0.333378
C231	C	1.334244	0.844949	0.666711
C232	C	0.668343	0.241500	0.000036
C233	C	1.001676	0.574833	0.333370
C234	C	1.335010	0.908167	0.666703
N235	N	0.672288	0.074135	0.153314
N236	N	1.005622	0.407468	0.486647
N237	N	1.338955	0.740801	0.819981
N238	N	0.672364	0.074131	-0.153196
N239	N	1.005698	0.407464	0.180137
N240	N	1.339031	0.740798	0.513470
C241	C	0.706686	0.108496	0.561955
C242	C	1.040019	0.441829	0.895288
C243	C	1.373352	0.775162	1.228621
C244	C	0.706693	0.108494	0.623874
C245	C	1.040026	0.441827	0.957208
C246	C	1.373359	0.775161	1.290541
O247	O	0.735916	0.137705	0.655892
O248	O	1.069249	0.471038	0.989226
O249	O	1.402583	0.804372	1.322559
N250	N	0.672352	0.074128	0.654851
N251	N	1.005685	0.407462	0.988185
N252	N	1.339019	0.740795	1.321518
C253	C	0.638006	0.039758	0.623905
C254	C	0.971339	0.373091	0.957238
C255	C	1.304673	0.706424	1.290572
O256	O	0.608797	0.010527	0.655939
O257	O	0.942131	0.343860	0.989272
O258	O	1.275464	0.677193	1.322605
C259	C	0.638002	0.039757	0.561986
C260	C	0.971336	0.373090	0.895319
C261	C	1.304669	0.706423	1.228653
C262	C	0.672341	0.074129	0.531013
C263	C	1.005674	0.407462	0.864346
C264	C	1.339008	0.740795	1.197679
C265	C	0.741022	0.142864	0.530981
C266	C	1.074355	0.476198	0.864314
C267	C	1.407689	0.809531	1.197648
C268	C	0.741014	0.142867	0.469065
C269	C	1.074347	0.476200	0.802399
C270	C	1.407681	0.809533	1.135732
C271	C	0.706669	0.108500	0.438123
C272	C	1.040003	0.441833	0.771457
C273	C	1.373336	0.775166	1.104790
C274	C	0.672333	0.074131	0.469097
C275	C	1.005666	0.407464	0.802430
C276	C	1.339000	0.740797	1.135764
C277	C	0.603660	0.005383	0.531041
C278	C	0.936993	0.338716	0.864374
C279	C	1.270327	0.672050	1.197708
C280	C	0.603659	0.005384	0.469118
C281	C	0.936993	0.338718	0.802451
C282	C	1.270326	0.672051	1.135785
C283	C	0.637998	0.039757	0.438144
C284	C	0.971332	0.373090	0.771478
C285	C	1.304665	0.706423	1.104811
C286	C	0.637980	0.039766	0.376239
C287	C	0.971314	0.373099	0.709573
C288	C	1.304647	0.706433	1.042906
N289	N	0.672321	0.074132	0.345262
N290	N	1.005655	0.407465	0.678596
N291	N	1.338988	0.740798	1.011929
C292	C	0.706666	0.108498	0.376204
C293	C	1.039999	0.441832	0.709538
C294	C	1.373332	0.775165	1.042871
C295	C	0.638017	0.039762	0.753938
C296	C	0.971350	0.373096	1.087272
C297	C	1.304684	0.706429	1.420605
C298	C	0.638017	0.039766	0.815856
C299	C	0.971351	0.373099	1.149189
C300	C	1.304684	0.706433	1.482523
C301	C	0.706705	0.108502	0.815821
C302	C	1.040038	0.441835	1.149155
C303	C	1.373372	0.775168	1.482488
C304	C	0.706701	0.108501	0.753903
C305	C	1.040035	0.441834	1.087236
C306	C	1.373368	0.775167	1.420569
C307	C	0.672358	0.074128	0.722962
C308	C	1.005691	0.407461	1.056295
C309	C	1.339025	0.740794	1.389628
C310	C	0.706646	0.108501	0.246177
C311	C	1.039979	0.441834	0.579511
C312	C	1.373312	0.775167	0.912844
C313	C	0.706633	0.108502	0.184256
C314	C	1.039966	0.441835	0.517589
C315	C	1.373299	0.775168	0.850923
C316	C	0.637948	0.039764	0.184296
C317	C	0.971281	0.373097	0.517629
C318	C	1.304614	0.706430	0.850963
C319	C	0.637958	0.039765	0.246212
C320	C	0.971291	0.373098	0.579545
C321	C	1.304625	0.706432	0.912878
C322	C	0.672312	0.074135	0.277151
C323	C	1.005645	0.407468	0.610484
C324	C	1.338978	0.740802	0.943818
O325	O	0.608774	0.010568	0.344182
O326	O	0.942107	0.343902	0.677515
O327	O	1.275440	0.677235	1.010849
O328	O	0.735875	0.137719	0.344163
O329	O	1.069208	0.471052	0.677496
O330	O	1.402542	0.804386	1.010830
H331	H	-0.034198	-0.022693	0.000084
H332	H	0.299136	0.310640	0.333417
H333	H	0.632469	0.643973	0.666751
H334	H	0.575496	-0.632386	0.000028
H335	H	0.908829	-0.299053	0.333361
H336	H	1.242162	0.034280	0.666694
Cl337	Cl	0.551053	-0.750154	0.000032
Cl338	Cl	0.884386	-0.416821	0.333365
Cl339	Cl	1.217719	-0.083487	0.666698
Cl340	Cl	0.840647	-0.515929	0.000067
Cl341	Cl	1.173980	-0.182596	0.333400
Cl342	Cl	1.507314	0.150738	0.666733
Cl343	Cl	-0.049848	0.188872	0.000049
Cl344	Cl	0.283485	0.522205	0.333382
Cl345	Cl	0.616819	0.855538	0.666715
Cl346	Cl	-0.183920	0.187258	0.000056
Cl347	Cl	0.149413	0.520592	0.333390
Cl348	Cl	0.482746	0.853925	0.666723
H349	H	0.512280	-0.016146	0.000054
H350	H	0.845613	0.317187	0.333388
H351	H	1.178946	0.650520	0.666721
H352	H	0.734620	0.136488	0.271360
H353	H	1.067953	0.469821	0.604694
H354	H	1.401287	0.803154	0.938027
H355	H	0.098544	0.219617	0.000046
H356	H	0.431877	0.552951	0.333380
H357	H	0.765211	0.886284	0.666713
H358	H	0.525555	-0.459814	0.000009
H359	H	0.858889	-0.126481	0.333342
H360	H	1.192222	0.206852	0.666675
H361	H	0.609984	0.011785	0.159092
H362	H	0.943317	0.345118	0.492425
H363	H	1.276650	0.678451	0.825759
H364	H	0.610048	0.011784	0.841070
H365	H	0.943382	0.345117	1.174403
H366	H	1.276715	0.678450	1.507736
H367	H	0.734595	0.136494	0.159040
H368	H	1.067929	0.469827	0.492373
H369	H	1.401262	0.803161	0.825707
H370	H	0.246123	-0.071339	0.000104
H371	H	0.579457	0.261994	0.333437
H372	H	0.912790	0.595327	0.666771
Cl373	Cl	0.559205	-0.069621	0.000059
Cl374	Cl	0.892538	0.263712	0.333393
Cl375	Cl	1.225872	0.597046	0.666726
H376	H	0.768979	0.170854	0.443852
H377	H	1.102312	0.504187	0.777185
H378	H	1.435645	0.837520	1.110519
H379	H	0.609989	0.011784	0.271432
H380	H	0.943323	0.345117	0.604765
H381	H	1.276656	0.678450	0.938098
H382	H	0.763906	-0.658056	0.000054
H383	H	1.097239	-0.324722	0.333388
H384	H	1.430573	0.008611	0.666721
Cl385	Cl	0.784203	0.186075	0.569868
Cl386	Cl	1.117537	0.519409	0.903202
Cl387	Cl	1.450870	0.852742	1.236535
H388	H	0.206289	0.220908	0.000035
H389	H	0.539622	0.554241	0.333368
H390	H	0.872956	0.887574	0.666702
Cl391	Cl	0.749874	0.151710	0.714971
Cl392	Cl	1.083208	0.485043	1.048304
Cl393	Cl	1.416541	0.818377	1.381638
H394	H	0.580748	-0.193677	0.000069
H395	H	0.914081	0.139656	0.333403
H396	H	1.247414	0.472989	0.666736
H397	H	0.610045	0.011774	0.728750
H398	H	0.943378	0.345107	1.062083
H399	H	1.276712	0.678440	1.395417
Cl400	Cl	0.496622	0.195408	0.000017
Cl401	Cl	0.829955	0.528742	0.333351
Cl402	Cl	1.163289	0.862075	0.666684
H403	H	0.526850	-0.352066	0.000013
H404	H	0.860183	-0.018732	0.333346
H405	H	1.193516	0.314601	0.666679
Cl406	Cl	0.749885	0.151703	0.854732
Cl407	Cl	1.083218	0.485037	1.188065
Cl408	Cl	1.416551	0.818370	1.521398
Cl409	Cl	0.793597	-0.101567	0.000094
Cl410	Cl	1.126931	0.231766	0.333427
Cl411	Cl	1.460264	0.565100	0.666761
H412	H	0.762610	-0.765821	0.000047
H413	H	1.095943	-0.432488	0.333380
H414	H	1.429276	-0.099154	0.666714
H415	H	0.575698	-0.022607	0.556249
H416	H	0.909032	0.310726	0.889582
H417	H	1.242365	0.644059	1.222916
H418	H	0.378851	0.170970	0.000041
H419	H	0.712185	0.504303	0.333375
H420	H	1.045518	0.837637	0.666708
Cl421	Cl	-0.151965	-0.047136	0.000075
Cl422	Cl	0.181368	0.286197	0.333409
Cl423	Cl	0.514701	0.619530	0.666742
H424	H	0.575693	-0.022607	0.443929
H425	H	0.909026	0.310726	0.777262
H426	H	1.242359	0.644060	1.110596
Cl427	Cl	0.128358	-0.095789	0.000098
Cl428	Cl	0.461692	0.237544	0.333432
Cl429	Cl	0.795025	0.570877	0.666765
H430	H	0.404512	-0.017441	0.000056
H431	H	0.737845	0.315892	0.333390
H432	H	1.071178	0.649225	0.666723
Cl433	Cl	0.791999	-0.235622	0.000075
Cl434	Cl	1.125332	0.097711	0.333409
Cl435	Cl	1.458666	0.431044	0.666742
H436	H	0.819097	-0.391900	0.000072
H437	H	1.152430	-0.058567	0.333405
H438	H	1.485763	0.274767	0.666739
