data_functionalizedCrystal
_audit_creation_method	'MofGen! by Chris Wilmer'
_symmetry_space_group_name_H-M	'P1'
_symmetry_Int_Tables_number	1
_symmetry_cell_setting	triclinic
loop_
_symmetry_equiv_pos_as_xyz
  x,y,z
_cell_length_a	8.634740
_cell_length_b	9.565339
_cell_length_c	8.559649
_cell_angle_alpha	90.002615
_cell_angle_beta	94.825514
_cell_angle_gamma	90.003934
loop_
_atom_site_label
_atom_site_type_symbol
_atom_site_fract_x
_atom_site_fract_y
_atom_site_fract_z
O1	O	1.985472	0.116242	-0.511617
O2	O	1.541601	0.116246	-0.468715
O3	O	1.802642	0.116242	-0.263585
O4	O	1.724431	0.116246	-0.716748
O5	O	1.802620	-0.116278	-0.263600
O6	O	1.541579	-0.116274	-0.468731
O7	O	1.985450	-0.116278	-0.511633
Zn8	Zn	1.763511	-0.153193	-0.490184
Zn9	Zn	1.763540	0.153162	-0.490164
O10	O	1.724409	-0.116274	-0.716763
C11	C	1.485291	-0.000013	-0.459004
C12	C	1.317539	-0.000011	-0.430026
N13	N	1.763503	-0.362273	-0.490199
C14	C	1.643558	-0.546644	-0.586053
C15	C	1.629668	-0.453418	-0.439979
C16	C	1.777326	-0.453429	-0.636251
C17	C	1.749613	-0.546585	-0.343983
C18	C	1.897320	-0.546604	-0.540357
C19	C	1.883500	-0.453421	-0.394189
C20	C	2.041761	-0.000016	-0.521344
C21	C	2.209512	-0.000008	-0.550322
C22	C	1.808558	-0.000015	-0.204975
C23	C	1.826201	-0.000007	-0.030311
N24	N	1.763562	0.362241	-0.490138
C25	C	1.718493	-0.000013	-0.775373
C26	C	1.700851	-0.000012	-0.950037
H27	H	1.281691	0.000024	-0.304865
Cl28	Cl	2.012746	-0.000028	0.069886
H29	H	1.245366	-0.000017	-0.675491
Cl30	Cl	1.795347	-0.390248	-0.826986
Cl31	Cl	1.486848	-0.609846	-0.711064
Cl32	Cl	1.454993	-0.390213	-0.374427
Cl33	Cl	2.040171	-0.390619	-0.268849
Cl34	Cl	1.731394	-0.609489	-0.153171
Cl35	Cl	2.071936	-0.609856	-0.605971
H36	H	1.580036	-0.000015	-0.014934
