data_functionalizedCrystal
_audit_creation_method	'MofGen! by Chris Wilmer'
_symmetry_space_group_name_H-M	'P1'
_symmetry_Int_Tables_number	1
_symmetry_cell_setting	triclinic
loop_
_symmetry_equiv_pos_as_xyz
  x,y,z
_cell_length_a	18.101398
_cell_length_b	18.101395
_cell_length_c	18.101389
_cell_angle_alpha	89.983159
_cell_angle_beta	89.975673
_cell_angle_gamma	90.026371
loop_
_atom_site_label
_atom_site_type_symbol
_atom_site_fract_x
_atom_site_fract_y
_atom_site_fract_z
Zn1	Zn	1.132121	-0.295001	-0.418847
Zn2	Zn	1.132017	-0.418826	-0.295009
Zn3	Zn	1.008280	-0.294993	-0.295008
Zn4	Zn	1.008231	-0.418795	-0.418797
O5	O	1.070162	-0.356904	-0.356915
O6	O	1.235740	-0.311443	-0.402440
O7	O	1.115580	-0.402410	-0.191376
O8	O	1.024772	-0.191361	-0.311456
O9	O	1.235664	-0.402417	-0.311457
O10	O	1.115757	-0.191367	-0.402440
O11	O	1.024671	-0.311430	-0.191375
O12	O	0.904641	-0.311399	-0.311408
O13	O	1.024688	-0.402363	-0.522437
O14	O	0.904604	-0.402356	-0.402355
O15	O	1.115710	-0.311412	-0.522473
O16	O	1.115532	-0.522455	-0.311409
O17	O	1.024587	-0.522432	-0.402356
C18	C	0.877752	-0.356874	-0.356877
C19	C	0.795437	-0.356879	-0.356878
C20	C	0.496347	-0.356925	-0.356940
C21	C	0.527670	-0.299412	-0.299997
C22	C	0.613288	-0.299566	-0.299754
C23	C	0.644729	-0.356901	-0.356909
C24	C	0.613611	-0.434909	-0.335587
C25	C	0.527966	-0.434590	-0.335191
C26	C	0.527961	-0.337109	-0.435339
C27	C	0.613612	-0.335371	-0.434911
C28	C	0.728589	-0.356893	-0.356893
C29	C	0.412487	-0.356939	-0.356954
C30	C	1.070063	-0.549314	-0.356893
C31	C	1.070088	-0.631628	-0.356909
C32	C	1.070251	-0.930719	-0.356949
C33	C	1.013163	-0.899410	-0.414312
C34	C	1.012892	-0.813792	-0.414133
C35	C	1.070170	-0.782337	-0.356930
C36	C	1.049041	-0.813472	-0.278878
C37	C	1.048673	-0.899117	-0.279221
C38	C	1.148593	-0.899073	-0.376950
C39	C	1.148132	-0.813422	-0.378661
C40	C	1.070126	-0.698477	-0.356914
C41	C	1.070293	-1.014579	-0.356959
C42	C	1.263324	-0.356934	-0.356954
C43	C	1.345638	-0.356948	-0.356971
C44	C	1.070205	-0.356885	-0.550077
C45	C	1.070223	-0.356877	-0.632391
C46	C	1.070282	-0.163742	-0.356953
C47	C	1.070333	-0.081428	-0.356970
C48	C	1.070266	-0.356738	-0.931482
C49	C	1.012801	-0.413780	-0.900134
C50	C	1.012956	-0.414045	-0.814516
C51	C	1.070244	-0.356807	-0.783100
C52	C	1.148270	-0.377998	-0.814206
C53	C	1.147949	-0.378372	-0.899851
C54	C	1.050385	-0.278379	-0.899905
C55	C	1.048649	-0.278832	-0.814254
C56	C	1.070237	-0.356845	-0.699240
C57	C	1.070279	-0.356702	-1.015342
C58	C	1.070162	-0.356869	-0.164505
C59	C	1.070287	-0.356668	-0.082191
H60	H	0.506120	-0.312363	-0.242242
H61	H	1.089313	-0.793097	-0.234972
H62	H	0.954768	-0.400655	-0.920720
N63	N	0.501458	-0.456843	-0.259270
H64	H	0.470844	-0.415646	-0.237412
H65	H	0.470397	-0.503036	-0.263211
H66	H	1.192217	-0.338629	-0.920590
N67	N	1.207459	-0.785054	-0.327361
H68	H	1.184537	-0.751503	-0.289132
H69	H	1.232132	-0.828133	-0.301911
N70	N	0.935978	-0.786724	-0.396572
H71	H	0.935481	-0.730930	-0.396383
H72	H	0.900402	-0.805535	-0.435205
N73	N	0.972594	-0.257652	-0.787320
H74	H	0.935430	-0.295416	-0.804823
H75	H	0.972454	-0.255890	-0.731554
N76	N	0.640396	-0.316927	-0.222811
H77	H	0.671387	-0.274516	-0.203986
H78	H	0.596673	-0.324528	-0.188969
H79	H	1.026082	-0.472127	-0.794035
N80	N	1.170274	-0.454245	-0.926331
H81	H	1.180229	-0.487134	-0.882369
H82	H	1.129076	-0.476099	-0.956951
N83	N	1.030394	-0.785897	-0.490792
H84	H	1.080725	-0.804313	-0.506301
H85	H	0.991889	-0.804600	-0.526565
N86	N	1.105822	-0.222085	-0.926769
H87	H	1.079538	-0.182549	-0.956067
H88	H	1.131422	-0.198873	-0.882976
H89	H	0.634329	-0.241719	-0.313119
H90	H	0.635026	-0.452008	-0.278892
H91	H	1.192236	-0.337757	-0.793859
N92	N	0.936711	-0.927988	-0.396982
H93	H	0.902671	-0.885016	-0.386655
H94	H	0.917409	-0.956977	-0.440561
N95	N	0.976325	-0.252804	-0.928480
H96	H	0.982751	-0.205174	-0.956845
H97	H	0.954948	-0.291803	-0.962162
H98	H	0.507099	-0.241388	-0.313215
N99	N	0.972815	-0.925661	-0.256790
H100	H	0.971816	-0.981449	-0.256790
H101	H	0.960921	-0.906847	-0.205630
N102	N	0.500509	-0.493268	-0.387731
H103	H	0.544044	-0.519231	-0.411043
H104	H	0.469547	-0.530294	-0.359697
H105	H	1.165415	-0.434671	-0.792765
H106	H	0.992380	-0.792080	-0.261633
N107	N	1.030491	-0.926647	-0.491223
H108	H	0.987045	-0.955574	-0.510946
H109	H	1.040540	-0.883037	-0.524565
N110	N	1.100043	-0.219541	-0.785935
H111	H	1.097450	-0.217727	-0.730227
H112	H	1.152273	-0.231101	-0.801794
H113	H	0.955097	-0.400784	-0.793483
H114	H	0.633975	-0.478909	-0.375763
H115	H	1.088449	-0.919830	-0.235023
N116	N	0.499387	-0.263076	-0.461026
H117	H	0.465654	-0.241631	-0.422098
H118	H	0.542361	-0.228501	-0.469554
H119	H	0.633956	-0.277966	-0.450989
H120	H	0.635017	-0.374209	-0.479611
N121	N	1.174116	-0.927629	-0.451054
H122	H	1.135149	-0.961374	-0.472412
H123	H	1.182549	-0.884648	-0.485638
N124	N	1.169246	-0.786468	-0.454748
H125	H	1.128487	-0.754252	-0.475061
H126	H	1.216483	-0.756925	-0.451572
H127	H	1.025796	-0.471508	-0.921661
N128	N	1.204935	-0.925885	-0.321611
H129	H	1.179878	-0.958372	-0.283765
H130	H	1.244441	-0.955111	-0.348021
H131	H	0.507705	-0.378999	-0.477766
