data_functionalizedCrystal
_audit_creation_method	'MofGen! by Chris Wilmer'
_symmetry_space_group_name_H-M	'P1'
_symmetry_Int_Tables_number	1
_symmetry_cell_setting	triclinic
loop_
_symmetry_equiv_pos_as_xyz
  x,y,z
_cell_length_a	19.188905
_cell_length_b	23.532357
_cell_length_c	22.010155
_cell_angle_alpha	90.003761
_cell_angle_beta	90.021523
_cell_angle_gamma	82.981423
loop_
_atom_site_label
_atom_site_type_symbol
_atom_site_fract_x
_atom_site_fract_y
_atom_site_fract_z
O1	O	0.925925	0.071028	0.050633
O2	O	1.259258	0.404362	0.383966
O3	O	1.592591	0.737695	0.717299
O4	O	0.722578	0.080615	0.050613
O5	O	1.055911	0.413948	0.383946
O6	O	1.389245	0.747282	0.717279
O7	O	0.830401	-0.007099	0.050611
O8	O	1.163735	0.326234	0.383944
O9	O	1.497068	0.659567	0.717277
O10	O	0.818101	0.158743	0.050635
O11	O	1.151435	0.492076	0.383968
O12	O	1.484768	0.825409	0.717301
O13	O	0.830370	-0.007089	-0.050440
O14	O	1.163704	0.326244	0.282894
O15	O	1.497037	0.659577	0.616227
O16	O	0.722547	0.080625	-0.050438
O17	O	1.055880	0.413959	0.282896
O18	O	1.389214	0.747292	0.616229
O19	O	0.925893	0.071039	-0.050418
O20	O	1.259227	0.404372	0.282916
O21	O	1.592560	0.737705	0.616249
Cu22	Cu	0.824217	0.075833	-0.059654
Cu23	Cu	1.157551	0.409166	0.273679
Cu24	Cu	1.490884	0.742500	0.607012
Cu25	Cu	0.824254	0.075821	0.059849
Cu26	Cu	1.157588	0.409154	0.393183
Cu27	Cu	1.490921	0.742487	0.726516
O28	O	0.818070	0.158753	-0.050416
O29	O	1.151403	0.492086	0.282918
O30	O	1.484737	0.825420	0.616251
C31	C	0.696552	0.080312	0.000085
C32	C	1.029886	0.413645	0.333418
C33	C	1.363219	0.746979	0.666752
C34	C	0.619050	0.079387	0.000077
C35	C	0.952383	0.412721	0.333410
C36	C	1.285717	0.746054	0.666743
C37	C	0.830078	-0.028312	0.000084
C38	C	1.163412	0.305022	0.333417
C39	C	1.496745	0.638355	0.666750
C40	C	0.829153	-0.091532	0.000078
C41	C	1.162487	0.241801	0.333411
C42	C	1.495820	0.575135	0.666745
C43	C	0.582677	0.078937	0.055161
C44	C	0.916010	0.412271	0.388494
C45	C	1.249343	0.745604	0.721828
C46	C	0.509856	0.078062	0.055168
C47	C	0.843189	0.411396	0.388502
C48	C	1.176523	0.744729	0.721835
C49	C	0.473413	0.077625	0.000088
C50	C	0.806747	0.410959	0.333422
C51	C	1.140080	0.744292	0.666755
C52	C	0.509795	0.078078	-0.055003
C53	C	0.843128	0.411412	0.278330
C54	C	1.176462	0.744745	0.611664
C55	C	0.582613	0.078959	-0.055009
C56	C	0.915947	0.412293	0.278325
C57	C	1.249280	0.745626	0.611658
N58	N	0.364496	0.043836	-0.040907
N59	N	0.697829	0.377169	0.292426
N60	N	1.031162	0.710503	0.625760
N61	N	0.295322	0.042998	-0.040898
N62	N	0.628655	0.376331	0.292436
N63	N	0.961988	0.709665	0.625769
C64	C	0.254016	0.074972	0.000103
C65	C	0.587349	0.408305	0.333436
C66	C	0.920682	0.741639	0.666769
N67	N	0.284499	0.107809	0.041103
N68	N	0.617832	0.441142	0.374436
N69	N	0.951165	0.774476	0.707769
N70	N	0.353679	0.108645	0.041095
N71	N	0.687013	0.441978	0.374429
N72	N	1.020346	0.775311	0.707762
C73	C	0.394454	0.076670	0.000089
C74	C	0.727787	0.410004	0.333422
C75	C	1.061121	0.743337	0.666755
C76	C	0.138682	0.073574	0.055199
C77	C	0.472015	0.406907	0.388532
C78	C	0.805349	0.740241	0.721865
C79	C	0.065859	0.072702	0.055204
C80	C	0.399193	0.406036	0.388537
C81	C	0.732526	0.739369	0.721871
C82	C	0.065801	0.072713	-0.054969
C83	C	0.399134	0.406046	0.278364
C84	C	0.732467	0.739379	0.611698
C85	C	0.138621	0.073590	-0.054972
C86	C	0.471954	0.406924	0.278361
C87	C	0.805287	0.740257	0.611694
C88	C	0.175058	0.074018	0.000113
C89	C	0.508391	0.407351	0.333446
C90	C	0.841724	0.740685	0.666780
C91	C	0.823363	-0.483561	0.055193
C92	C	1.156696	-0.150227	0.388526
C93	C	1.490030	0.183106	0.721859
C94	C	0.822484	-0.542962	0.055196
C95	C	1.155817	-0.209629	0.388529
C96	C	1.489150	0.123705	0.721863
O97	O	0.822020	-0.573684	0.102042
O98	O	1.155353	-0.240351	0.435375
O99	O	1.488686	0.092983	0.768708
N100	N	0.822031	-0.572669	0.000114
N101	N	1.155364	-0.239335	0.333448
N102	N	1.488697	0.093998	0.666781
C103	C	0.822450	-0.542970	-0.054975
C104	C	1.155783	-0.209637	0.278359
C105	C	1.489117	0.123697	0.611692
O106	O	0.821983	-0.573692	-0.101826
O107	O	1.155316	-0.240359	0.231508
O108	O	1.488650	0.092975	0.564841
C109	C	0.823324	-0.483569	-0.054977
C110	C	1.156658	-0.150236	0.278356
C111	C	1.489991	0.183097	0.611689
C112	C	0.823784	-0.453867	0.000108
C113	C	1.157118	-0.120533	0.333441
C114	C	1.490451	0.212800	0.666775
C115	C	0.823822	-0.453858	0.110274
C116	C	1.157156	-0.120525	0.443607
C117	C	1.490489	0.212809	0.776940
C118	C	0.824703	-0.394461	0.110270
C119	C	1.158036	-0.061128	0.443603
C120	C	1.491370	0.272206	0.776937
C121	C	0.825124	-0.364767	0.055185
C122	C	1.158458	-0.031433	0.388519
C123	C	1.491791	0.301900	0.721852
C124	C	0.824665	-0.394470	0.000104
C125	C	1.157998	-0.061136	0.333438
C126	C	1.491332	0.272197	0.666771
C127	C	0.823738	-0.453871	-0.110066
C128	C	1.157072	-0.120538	0.223268
C129	C	1.490405	0.212796	0.556601
C130	C	0.824612	-0.394466	-0.110064
C131	C	1.157945	-0.061133	0.223270
C132	C	1.491279	0.272200	0.556603
C133	C	0.825072	-0.364764	-0.054978
C134	C	1.158406	-0.031430	0.278355
C135	C	1.491739	0.301903	0.611689
C136	C	0.825967	-0.305378	-0.054984
C137	C	1.159300	0.027955	0.278350
C138	C	1.492633	0.361288	0.611683
N139	N	0.826420	-0.275672	0.000098
N140	N	1.159753	0.057661	0.333431
N141	N	1.493086	0.390995	0.666765
C142	C	0.825999	-0.305366	0.055183
C143	C	1.159332	0.027967	0.388516
C144	C	1.492665	0.361301	0.721849
C145	C	0.820613	-0.667715	-0.054965
C146	C	1.153946	-0.334382	0.278369
C147	C	1.487279	-0.001049	0.611702
C148	C	0.819743	-0.727115	-0.054963
C149	C	1.153077	-0.393782	0.278371
C150	C	1.486410	-0.060449	0.611704
C151	C	0.819776	-0.727103	0.055208
C152	C	1.153109	-0.393770	0.388542
C153	C	1.486443	-0.060437	0.721875
C154	C	0.820650	-0.667703	0.055206
C155	C	1.153984	-0.334369	0.388539
C156	C	1.487317	-0.001036	0.721872
C157	C	0.821066	-0.638009	0.000117
C158	C	1.154399	-0.304675	0.333451
C159	C	1.487732	0.028658	0.666784
C160	C	0.827848	-0.180628	0.055171
C161	C	1.161182	0.152705	0.388504
C162	C	1.494515	0.486039	0.721838
C163	C	0.828732	-0.121226	0.055162
C164	C	1.162065	0.212107	0.388496
C165	C	1.495399	0.545440	0.721829
C166	C	0.828696	-0.121243	-0.055008
C167	C	1.162029	0.212090	0.278325
C168	C	1.495362	0.545424	0.611659
C169	C	0.827816	-0.180640	-0.055000
C170	C	1.161149	0.152693	0.278333
C171	C	1.494482	0.486026	0.611667
C172	C	0.827390	-0.210331	0.000094
C173	C	1.160723	0.123002	0.333428
C174	C	1.494057	0.456336	0.666761
O175	O	0.826428	-0.274618	-0.101805
O176	O	1.159762	0.058715	0.231528
O177	O	1.493095	0.392048	0.564861
O178	O	0.826456	-0.274636	0.102026
O179	O	1.159789	0.058698	0.435359
O180	O	1.493123	0.392031	0.768693
C181	C	0.951919	0.071342	0.000111
C182	C	1.285253	0.404675	0.333445
C183	C	1.618586	0.738008	0.666778
C184	C	1.029422	0.072266	0.000123
C185	C	1.362755	0.405600	0.333457
C186	C	1.696088	0.738933	0.666790
C187	C	0.818393	0.179965	0.000113
C188	C	1.151727	0.513298	0.333446
C189	C	1.485060	0.846632	0.666779
C190	C	0.819318	0.243186	0.000122
C191	C	1.152652	0.576519	0.333456
C192	C	1.485985	0.909852	0.666789
N193	N	0.824196	0.075841	-0.143707
N194	N	1.157530	0.409174	0.189626
N195	N	1.490863	0.742508	0.522960
C196	C	0.782142	0.041362	-0.436321
C197	C	1.115475	0.374696	-0.102988
C198	C	1.448808	0.708029	0.230345
C199	C	0.782135	0.041365	-0.372714
C200	C	1.115469	0.374698	-0.039380
C201	C	1.448802	0.708032	0.293953
O202	O	0.746352	0.012051	-0.339825
O203	O	1.079686	0.345384	-0.006491
O204	O	1.413019	0.678718	0.326842
N205	N	0.824224	0.075823	-0.340891
N206	N	1.157557	0.409157	-0.007558
N207	N	1.490891	0.742490	0.325776
C208	C	0.866327	0.110277	-0.372679
C209	C	1.199660	0.443610	-0.039346
C210	C	1.532994	0.776944	0.293987
O211	O	0.902126	0.139586	-0.339771
O212	O	1.235460	0.472920	-0.006437
O213	O	1.568793	0.806253	0.326896
C214	C	0.866336	0.110271	-0.436286
C215	C	1.199670	0.443604	-0.102952
C216	C	1.533003	0.776938	0.230381
C217	C	0.824240	0.075815	-0.468105
C218	C	1.157573	0.409148	-0.134772
C219	C	1.490906	0.742481	0.198562
C220	C	0.740049	0.006909	-0.468141
C221	C	1.073382	0.340242	-0.134808
C222	C	1.406716	0.673575	0.198526
C223	C	0.740054	0.006907	-0.531744
C224	C	1.073388	0.340240	-0.198411
C225	C	1.406721	0.673574	0.134923
C226	C	0.782152	0.041359	-0.563528
C227	C	1.115486	0.374692	-0.230195
C228	C	1.448819	0.708026	0.103139
C229	C	0.824245	0.075813	-0.531708
C230	C	1.157578	0.409146	-0.198375
C231	C	1.490912	0.742480	0.134958
C232	C	0.908442	0.144721	-0.468073
C233	C	1.241776	0.478054	-0.134739
C234	C	1.575109	0.811388	0.198594
C235	C	0.908449	0.144712	-0.531683
C236	C	1.241782	0.478045	-0.198350
C237	C	1.575115	0.811378	0.134983
C238	C	0.866352	0.110255	-0.563503
C239	C	1.199685	0.443589	-0.230170
C240	C	1.533019	0.776922	0.103164
C241	C	0.866348	0.110264	-0.627095
C242	C	1.199682	0.443597	-0.293762
C243	C	1.533015	0.776930	0.039571
N244	N	0.824260	0.075805	-0.658918
N245	N	1.157593	0.409139	-0.325585
N246	N	1.490926	0.742472	0.007749
C247	C	0.782162	0.041353	-0.627134
C248	C	1.115495	0.374686	-0.293801
C249	C	1.448828	0.708020	0.039532
C250	C	0.866305	0.110286	-0.239101
C251	C	1.199638	0.443620	0.094232
C252	C	1.532971	0.776953	0.427565
C253	C	0.866292	0.110296	-0.175496
C254	C	1.199625	0.443629	0.157837
C255	C	1.532959	0.776962	0.491171
C256	C	0.782101	0.041383	-0.175535
C257	C	1.115435	0.374716	0.157798
C258	C	1.448768	0.708050	0.491132
C259	C	0.782111	0.041377	-0.239142
C260	C	1.115444	0.374710	0.094192
C261	C	1.448777	0.708043	0.427525
C262	C	0.824216	0.075828	-0.270924
C263	C	1.157549	0.409161	0.062409
C264	C	1.490883	0.742495	0.395742
C265	C	0.782176	0.041353	-0.760706
C266	C	1.115509	0.374686	-0.427372
C267	C	1.448842	0.708019	-0.094039
C268	C	0.782183	0.041356	-0.824314
C269	C	1.115516	0.374689	-0.490981
C270	C	1.448849	0.708022	-0.157648
C271	C	0.866376	0.110266	-0.824270
C272	C	1.199709	0.443600	-0.490937
C273	C	1.533042	0.776933	-0.157603
C274	C	0.866366	0.110265	-0.760667
C275	C	1.199700	0.443599	-0.427333
C276	C	1.533033	0.776932	-0.094000
C277	C	0.824264	0.075804	-0.728886
C278	C	1.157598	0.409137	-0.395553
C279	C	1.490931	0.742471	-0.062219
O280	O	0.902115	0.139561	-0.660025
O281	O	1.235449	0.472894	-0.326692
O282	O	1.568782	0.806227	0.006642
O283	O	0.746375	0.012043	-0.660050
O284	O	1.079708	0.345376	-0.326717
O285	O	1.413042	0.678710	0.006616
N286	N	0.824281	0.075808	0.143902
N287	N	1.157614	0.409141	0.477235
N288	N	1.490947	0.742475	0.810568
H289	H	0.612339	0.079286	0.100016
H290	H	0.945672	0.412619	0.433349
H291	H	1.279006	0.745953	0.766682
Br292	Br	0.016349	0.072128	-0.129722
Br293	Br	0.349683	0.405462	0.203612
Br294	Br	0.683016	0.738795	0.536945
Br295	Br	0.823111	-0.494166	-0.184829
Br296	Br	1.156445	-0.160833	0.148504
Br297	Br	1.489778	0.172500	0.481837
Br298	Br	0.631980	0.079571	-0.129772
Br299	Br	0.965314	0.412904	0.203562
Br300	Br	1.298647	0.746238	0.536895
H301	H	0.747899	0.013297	-0.850219
H302	H	1.081233	0.346631	-0.516886
H303	H	1.414566	0.679964	-0.183552
Br304	Br	0.821274	-0.627398	0.129967
Br305	Br	1.154608	-0.294065	0.463300
Br306	Br	1.487941	0.039269	0.796633
H307	H	0.168349	0.073928	0.100053
H308	H	0.501683	0.407262	0.433386
H309	H	0.835016	0.740595	0.766719
Br310	Br	0.823250	-0.494146	0.185042
Br311	Br	1.156583	-0.160813	0.518375
Br312	Br	1.489917	0.172521	0.851708
H313	H	0.168237	0.073953	-0.099828
H314	H	0.501570	0.407286	0.233505
H315	H	0.834904	0.740619	0.566839
H316	H	0.824940	-0.370292	-0.154924
H317	H	1.158273	-0.036958	0.178409
H318	H	1.491607	0.296375	0.511742
Br319	Br	0.724978	-0.005387	-0.282318
Br320	Br	1.058311	0.327946	0.051015
Br321	Br	1.391645	0.661280	0.384348
H322	H	0.942738	0.172766	-0.557558
H323	H	1.276071	0.506099	-0.224224
H324	H	1.609404	0.839433	0.109109
H325	H	0.829108	-0.097045	0.100022
H326	H	1.162442	0.236288	0.433355
H327	H	1.495775	0.569622	0.766688
H328	H	0.819431	-0.751291	0.100061
H329	H	1.152764	-0.417958	0.433395
H330	H	1.486097	-0.084624	0.766728
Br331	Br	0.923507	0.157020	-0.717482
Br332	Br	1.256840	0.490354	-0.384148
Br333	Br	1.590174	0.823687	-0.050815
H334	H	0.829042	-0.097056	-0.099857
H335	H	1.162375	0.236278	0.233477
H336	H	1.495708	0.569611	0.566810
H337	H	0.827498	-0.204795	0.100034
H338	H	1.160831	0.128538	0.433367
H339	H	1.494165	0.461872	0.766701
H340	H	0.825075	-0.370282	0.155126
H341	H	1.158408	-0.036949	0.488460
H342	H	1.491742	0.296385	0.821793
Br343	Br	0.819136	-0.767421	-0.129724
Br344	Br	1.152469	-0.434087	0.203609
Br345	Br	1.485802	-0.100754	0.536942
Br346	Br	0.016493	0.072099	0.129968
Br347	Br	0.349826	0.405432	0.463301
Br348	Br	0.683159	0.738766	0.796634
H349	H	0.820953	-0.643542	-0.099827
H350	H	1.154286	-0.310209	0.233506
H351	H	1.487620	0.023124	0.566840
H352	H	0.827448	-0.204826	-0.099855
H353	H	1.160781	0.128507	0.233478
H354	H	1.494114	0.461841	0.566812
Br355	Br	0.460481	0.077453	0.129931
Br356	Br	0.793814	0.410786	0.463264
Br357	Br	1.127148	0.744120	0.796597
Br358	Br	0.725040	-0.005420	-0.717585
Br359	Br	1.058374	0.327914	-0.384251
Br360	Br	1.391707	0.661247	-0.050918
Br361	Br	0.460338	0.077492	-0.129755
Br362	Br	0.793671	0.410825	0.203579
Br363	Br	1.127005	0.744158	0.536912
Br364	Br	0.923448	0.157050	-0.282229
Br365	Br	1.256781	0.490384	0.051105
Br366	Br	1.590115	0.823717	0.384438
H367	H	0.705777	-0.021153	-0.557646
H368	H	1.039111	0.312180	-0.224313
H369	H	1.372444	0.645514	0.109021
Br370	Br	0.923501	0.157025	-0.867417
Br371	Br	1.256834	0.490358	-0.534084
Br372	Br	1.590167	0.823692	-0.200750
Br373	Br	0.682902	-0.039850	-0.425018
Br374	Br	1.016235	0.293483	-0.091685
Br375	Br	1.349569	0.626817	0.241649
H376	H	0.747823	0.013330	-0.149645
H377	H	1.081156	0.346663	0.183688
H378	H	1.414489	0.679997	0.517021
Br379	Br	0.923408	0.157074	-0.132321
Br380	Br	1.256741	0.490407	0.201013
Br381	Br	1.590074	0.823741	0.534346
H382	H	0.942724	0.172778	-0.442176
H383	H	1.276057	0.506111	-0.108843
H384	H	1.609390	0.839445	0.224491
