data_functionalizedCrystal
_audit_creation_method	'MofGen! by Chris Wilmer'
_symmetry_space_group_name_H-M	'P1'
_symmetry_Int_Tables_number	1
_symmetry_cell_setting	triclinic
loop_
_symmetry_equiv_pos_as_xyz
  x,y,z
_cell_length_a	27.354012
_cell_length_b	27.353283
_cell_length_c	27.349551
_cell_angle_alpha	60.005606
_cell_angle_beta	60.011434
_cell_angle_gamma	59.993282
loop_
_atom_site_label
_atom_site_type_symbol
_atom_site_fract_x
_atom_site_fract_y
_atom_site_fract_z
O1	O	0.067635	-0.714267	0.597330
O2	O	0.025429	-0.556105	0.481282
O3	O	0.125575	-0.656186	0.481214
O4	O	-0.032512	-0.614186	0.597397
O5	O	0.158797	-0.622968	0.514367
O6	O	0.058650	-0.522887	0.514434
O7	O	0.100856	-0.681048	0.630482
Zn8	Zn	0.085028	-0.596693	0.577722
Zn9	Zn	0.041257	-0.640460	0.534042
O10	O	0.000709	-0.580967	0.630549
N11	N	0.114901	-0.566828	0.607534
N12	N	0.011389	-0.670331	0.504229
C13	C	0.179404	-0.338196	0.672015
C14	C	0.179501	-0.502386	0.836160
C15	C	0.179415	-0.502363	0.671996
C16	C	0.343611	-0.502373	0.671960
C17	C	0.197478	-0.392371	0.690061
C18	C	0.197534	-0.484321	0.781984
C19	C	0.289434	-0.484312	0.690032
C20	C	0.197486	-0.484308	0.690051
C21	C	0.156398	-0.269238	0.649045
C22	C	0.156418	-0.525342	0.649015
C23	C	0.220484	-0.461329	0.713032
C24	C	0.443889	-0.485097	0.619172
C25	C	0.506571	-0.505993	0.598266
C26	C	0.506589	-0.607412	0.636940
C27	C	0.443909	-0.586515	0.657848
C28	C	0.171510	-0.237888	0.587422
C29	C	0.150593	-0.175201	0.566543
C30	C	0.099458	-0.175218	0.668913
C31	C	0.120375	-0.237905	0.689792
C32	C	0.094789	-0.510201	0.664176
C33	C	0.073888	-0.531091	0.643278
C34	C	0.176239	-0.582263	0.592072
C35	C	0.197142	-0.561373	0.612963
C36	C	0.094933	-0.510244	0.936476
C37	C	0.074073	-0.531151	0.999161
C38	C	0.176453	-0.582335	0.999126
C39	C	0.197312	-0.561429	0.936439
C40	C	0.156551	-0.525382	0.905116
C41	C	0.412561	-0.525357	0.648961
C42	C	-0.098513	-0.688235	0.485867
C43	C	-0.006461	-0.688368	0.394066
C44	C	-0.006645	-0.780264	0.486040
C45	C	-0.006630	-0.688361	0.486097
C46	C	-0.029562	-0.711308	0.463018
N47	N	0.537030	-0.566846	0.607436
O48	O	0.741877	-0.576849	0.459995
O49	O	0.742050	-0.693241	0.618010
O50	O	0.741986	-0.692977	0.517791
O51	O	0.741941	-0.577114	0.560214
O52	O	0.642405	-0.659839	0.551046
O53	O	0.642469	-0.660104	0.651265
O54	O	0.642296	-0.543712	0.493251
Zn55	Zn	0.626572	-0.596646	0.577538
Zn56	Zn	0.757774	-0.640307	0.533723
O57	O	0.642360	-0.543976	0.593469
N58	N	0.847316	-0.670107	0.503818
N59	N	0.114877	-0.144758	0.607577
O60	O	-0.032498	0.060193	0.597441
O61	O	0.125523	0.060193	0.481067
O62	O	0.025289	0.060179	0.481345
O63	O	0.067736	0.060207	0.597163
O64	O	0.058511	-0.039410	0.514543
O65	O	0.158745	-0.039397	0.514265
O66	O	0.000724	-0.039396	0.630638
Zn67	Zn	0.085009	-0.055208	0.577722
Zn68	Zn	0.041238	0.076005	0.533983
O69	O	0.100958	-0.039382	0.630360
N70	N	0.011362	0.165555	0.504130
N71	N	0.115121	-0.566884	1.029592
O72	O	0.104990	-0.714248	1.234528
O73	O	-0.011371	-0.556177	1.234539
O74	O	-0.011103	-0.656395	1.234497
O75	O	0.104722	-0.614030	1.234569
O76	O	0.022090	-0.623190	1.134913
O77	O	0.021822	-0.522972	1.134954
O78	O	0.138182	-0.681044	1.134943
Zn79	Zn	0.085272	-0.596736	1.119137
Zn80	Zn	0.041539	-0.640484	1.250344
O81	O	0.137914	-0.580826	1.134984
N82	N	0.011689	-0.670343	1.339890
C83	C	0.038085	-0.519567	0.481870
C84	C	0.162104	-0.643505	0.481786
C85	C	0.088200	-0.717587	0.629893
C86	C	-0.035819	-0.593649	0.629977
C87	C	0.692280	-0.692701	0.654545
C88	C	0.692203	-0.692374	0.530435
C89	C	0.692063	-0.544251	0.456717
C90	C	0.692144	-0.544580	0.580825
C91	C	0.162000	0.010521	0.481600
C92	C	0.037914	0.010381	0.481984
C93	C	-0.035795	0.010399	0.630065
C94	C	0.088333	0.010415	0.629722
C95	C	-0.010799	-0.519660	1.184747
C96	C	-0.010461	-0.643761	1.184677
C97	C	0.137610	-0.717561	1.184734
C98	C	0.137280	-0.593452	1.184783
H99	H	0.023897	-0.518815	1.024687
C100	C	0.692224	-0.741548	0.518176
C101	C	0.743915	-0.764921	0.467140
C102	C	0.743937	-0.814095	0.454881
C103	C	0.692267	-0.839896	0.493656
C104	C	0.640572	-0.816523	0.544695
C105	C	0.640550	-0.767349	0.556954
H106	H	0.782168	-0.745821	0.438433
H107	H	0.782205	-0.831397	0.417098
H108	H	0.692283	-0.876298	0.484580
H109	H	0.602319	-0.835623	0.573401
H110	H	0.602282	-0.750047	0.594737
C111	C	0.691990	-0.494882	0.395413
C112	C	0.691965	-0.506847	0.346066
C113	C	0.691892	-0.457477	0.284763
C114	C	0.691844	-0.396142	0.272806
C115	C	0.691870	-0.384174	0.322154
C116	C	0.691943	-0.433544	0.383458
H117	H	0.692000	-0.552253	0.354916
H118	H	0.691873	-0.466337	0.248232
H119	H	0.691791	-0.359595	0.227425
H120	H	0.691835	-0.338767	0.313305
H121	H	0.691961	-0.424684	0.419989
H122	H	0.207509	-0.652460	0.445301
C123	C	0.100604	0.010422	0.678879
C124	C	0.117126	0.062140	0.667801
C125	C	0.129397	0.062147	0.716959
C126	C	0.125145	0.010437	0.777194
C127	C	0.108622	-0.041285	0.788275
C128	C	0.096351	-0.041293	0.739117
H129	H	0.120275	0.100423	0.623209
H130	H	0.141629	0.100436	0.708756
H131	H	0.134228	0.010442	0.813583
H132	H	0.105474	-0.079568	0.832867
H133	H	0.084119	-0.079581	0.747320
C134	C	0.186966	-0.778889	1.184731
C135	C	0.247198	-0.782973	1.133031
C136	C	0.296553	-0.844302	1.133028
C137	C	0.285676	-0.901547	1.184726
C138	C	0.225441	-0.897465	1.236430
C139	C	0.176086	-0.836136	1.236433
H140	H	0.255253	-0.740595	1.094757
H141	H	0.341144	-0.847323	1.094752
H142	H	0.322212	-0.946946	1.184724
H143	H	0.217387	-0.939843	1.274704
H144	H	0.131496	-0.833115	1.274709
H145	H	-0.081177	0.010398	0.666600
H146	H	-0.046832	-0.652809	1.184615
H147	H	0.028825	0.010378	0.445599
C148	C	-0.097159	-0.581560	0.679268
C149	C	-0.146452	-0.520203	0.667195
C150	C	-0.207791	-0.508114	0.716486
C151	C	-0.219839	-0.557382	0.777851
C152	C	-0.170545	-0.618743	0.789927
C153	C	-0.109205	-0.630832	0.740636
H154	H	-0.137535	-0.483728	0.621766
H155	H	-0.244282	-0.462690	0.707546
H156	H	-0.265246	-0.548433	0.814339
H157	H	-0.179462	-0.655218	0.835356
H158	H	-0.072715	-0.676256	0.749576
H159	H	-0.047330	-0.474261	1.184750
H160	H	0.173667	-0.584388	1.184797
H161	H	0.692323	-0.729239	0.699929
H162	H	0.061737	-0.480889	0.910978
H163	H	0.097215	-0.763020	0.666340
C164	C	0.692124	-0.495406	0.593084
C165	C	0.692173	-0.507665	0.654487
C166	C	0.692153	-0.458491	0.666746
C167	C	0.692085	-0.397059	0.617602
C168	C	0.692037	-0.384797	0.556195
C169	C	0.692056	-0.433971	0.543936
H170	H	0.692223	-0.553143	0.690870
H171	H	0.692189	-0.467568	0.712204
H172	H	0.692071	-0.360658	0.626677
H173	H	0.691987	-0.339319	0.519813
H174	H	0.692021	-0.424894	0.498478
H175	H	0.209648	-0.611676	1.024626
H176	H	0.247489	-0.573760	0.910909
C177	C	0.223180	0.010898	0.432114
C178	C	0.272473	0.011096	0.444007
C179	C	0.333653	0.011473	0.394521
C180	C	0.345539	0.011652	0.333143
C181	C	0.296245	0.011454	0.321248
C182	C	0.235065	0.011077	0.370734
H183	H	0.263675	0.010964	0.489445
H184	H	0.370144	0.011620	0.403327
H185	H	0.390828	0.011932	0.296511
H186	H	0.305043	0.011587	0.275810
H187	H	0.198574	0.010930	0.361928
C188	C	0.025912	-0.458192	0.432628
C189	C	0.030221	-0.454031	0.372408
C190	C	0.018049	-0.392656	0.323166
C191	C	0.001567	-0.335442	0.334144
C192	C	-0.002742	-0.339601	0.394367
C193	C	0.009430	-0.400976	0.443609
H194	H	0.042423	-0.496386	0.364278
H195	H	0.021240	-0.389578	0.278584
H196	H	-0.007443	-0.290009	0.297692
H197	H	-0.014944	-0.297246	0.402496
H198	H	0.006239	-0.404054	0.488190
H199	H	0.061625	-0.480862	0.693528
H200	H	0.209407	-0.611608	0.562721
C201	C	0.006097	-0.514437	0.659943
C202	C	-0.022321	-0.563992	0.694824
C203	C	-0.090111	-0.547337	0.711485
C204	C	-0.129482	-0.481127	0.693267
C205	C	-0.101064	-0.431568	0.658385
C206	C	-0.033275	-0.448223	0.641723
H207	H	0.006824	-0.613008	0.708312
H208	H	-0.111147	-0.584024	0.737308
H209	H	-0.179664	-0.468798	0.705601
H210	H	-0.130209	-0.382552	0.644897
H211	H	-0.012238	-0.411536	0.615901
C212	C	0.264935	-0.578028	0.596290
C213	C	0.309731	-0.617662	0.556635
C214	C	0.377522	-0.634318	0.539963
C215	C	0.400518	-0.611341	0.562945
C216	C	0.355721	-0.571705	0.602602
C217	C	0.287929	-0.555048	0.619274
H218	H	0.292709	-0.634673	0.539621
H219	H	0.410684	-0.663660	0.510607
H220	H	0.450701	-0.623671	0.550603
H221	H	0.372743	-0.554693	0.619617
H222	H	0.254768	-0.525707	0.648631
H223	H	0.532110	-0.657210	0.644171
C224	C	0.409449	-0.630802	0.690607
C225	C	0.443937	-0.698071	0.700367
C226	C	0.409478	-0.742361	0.733122
C227	C	0.340531	-0.719381	0.756116
C228	C	0.306039	-0.652109	0.746357
C229	C	0.340498	-0.607819	0.713602
H230	H	0.494980	-0.715085	0.683345
H231	H	0.435012	-0.792161	0.740347
H232	H	0.315023	-0.752167	0.780363
H233	H	0.254997	-0.635095	0.763379
H234	H	0.314965	-0.558019	0.706377
H235	H	0.532080	-0.473208	0.574011
H236	H	0.418366	-0.435297	0.611936
H237	H	0.200842	-0.263395	0.554238
H238	H	0.162897	-0.149674	0.516363
H239	H	0.070133	-0.149706	0.702094
H240	H	0.108067	-0.263426	0.739970
