data_functionalizedCrystal
_audit_creation_method	'MofGen! by Chris Wilmer'
_symmetry_space_group_name_H-M	'P1'
_symmetry_Int_Tables_number	1
_symmetry_cell_setting	triclinic
loop_
_symmetry_equiv_pos_as_xyz
  x,y,z
_cell_length_a	19.805407
_cell_length_b	29.839131
_cell_length_c	19.805399
_cell_angle_alpha	89.970435
_cell_angle_beta	89.980427
_cell_angle_gamma	90.041420
loop_
_atom_site_label
_atom_site_type_symbol
_atom_site_fract_x
_atom_site_fract_y
_atom_site_fract_z
Zn1	Zn	1.034665	-0.178864	-0.382710
Zn2	Zn	1.034550	-0.253991	-0.269518
Zn3	Zn	0.921480	-0.178876	-0.269535
Zn4	Zn	0.921414	-0.253967	-0.382665
O5	O	0.978027	-0.216425	-0.326107
O6	O	1.129366	-0.188834	-0.367707
O7	O	1.019531	-0.244042	-0.174804
O8	O	0.936570	-0.116007	-0.284574
O9	O	1.129282	-0.244030	-0.284545
O10	O	1.019727	-0.115998	-0.367723
O11	O	0.936458	-0.188856	-0.174816
O12	O	0.826754	-0.188832	-0.284530
O13	O	0.936457	-0.243990	-0.477388
O14	O	0.826706	-0.244002	-0.367646
O15	O	1.019662	-0.188811	-0.477421
O16	O	1.019467	-0.316855	-0.284501
O17	O	0.936346	-0.316838	-0.367630
C18	C	0.802171	-0.216416	-0.326085
C19	C	0.726939	-0.216423	-0.326092
C20	C	0.691587	-0.245193	-0.369300
C21	C	0.620899	-0.245194	-0.369310
C22	C	0.585564	-0.216427	-0.326107
C23	C	0.620920	-0.187654	-0.282897
C24	C	0.691607	-0.187651	-0.282891
C25	C	0.335847	-0.187664	-0.282919
C26	C	0.265155	-0.187669	-0.282927
C27	C	0.265139	-0.245207	-0.369338
C28	C	0.335826	-0.245204	-0.369332
C29	C	0.371176	-0.216429	-0.326125
C30	C	0.447825	-0.216428	-0.326116
C31	C	0.508916	-0.216430	-0.326112
C32	C	0.977905	-0.333147	-0.326073
C33	C	0.977915	-0.383082	-0.326082
C34	C	1.021387	-0.692722	-0.282885
C35	C	1.021471	-0.880395	-0.282912
O36	O	1.058335	-0.904656	-0.246159
N37	N	0.978168	-0.903867	-0.326158
C38	C	0.934844	-0.880418	-0.369404
O39	O	0.898019	-0.904688	-0.406194
C40	C	0.934764	-0.692746	-0.369381
C41	C	0.978065	-0.669276	-0.326127
C42	C	1.064685	-0.669252	-0.239635
C43	C	1.064661	-0.622336	-0.239626
C44	C	1.021339	-0.598891	-0.282868
C45	C	0.978041	-0.622360	-0.326118
C46	C	0.891444	-0.669297	-0.412630
C47	C	0.891429	-0.622376	-0.412621
C48	C	0.934730	-0.598907	-0.369367
C49	C	0.934695	-0.551999	-0.369351
N50	N	0.977998	-0.528527	-0.326104
C51	C	1.021320	-0.551973	-0.282863
C52	C	0.934888	-0.978948	-0.369412
C53	C	0.934907	-1.025866	-0.369418
C54	C	1.021534	-1.025840	-0.282926
C55	C	1.021512	-0.978921	-0.282918
C56	C	0.978191	-0.955476	-0.326166
C57	C	1.021266	-0.453447	-0.282847
C58	C	1.021237	-0.406527	-0.282840
C59	C	0.934611	-0.406558	-0.369334
C60	C	0.934638	-0.453473	-0.369339
C61	C	0.977971	-0.476917	-0.326093
O62	O	0.897855	-0.527708	-0.406090
O63	O	1.058150	-0.527694	-0.246090
C64	C	1.021411	-0.739637	-0.282894
C65	C	0.978113	-0.763107	-0.326144
C66	C	0.934791	-0.739661	-0.369386
C67	C	0.978132	-0.810025	-0.326149
C68	C	1.021454	-0.833470	-0.282908
C69	C	1.064757	-0.809998	-0.239661
C70	C	1.064733	-0.763083	-0.239653
C71	C	0.891488	-0.763133	-0.412632
C72	C	0.891515	-0.810049	-0.412637
C73	C	0.934837	-0.833494	-0.369395
C74	C	1.154570	-0.216434	-0.326129
C75	C	1.229802	-0.216437	-0.326139
C76	C	0.978065	-0.216396	-0.502650
C77	C	0.978081	-0.216384	-0.577882
C78	C	0.978168	-0.099246	-0.326156
C79	C	0.978228	-0.049312	-0.326176
C80	C	1.021407	-0.187652	-0.613244
C81	C	1.021414	-0.187638	-0.683933
C82	C	0.978098	-0.216361	-0.719258
C83	C	0.934767	-0.245095	-0.683890
C84	C	0.934757	-0.245105	-0.613203
C85	C	0.934806	-0.245053	-0.968963
C86	C	0.934820	-0.245041	-1.039656
C87	C	1.021462	-0.187586	-1.039694
C88	C	1.021453	-0.187597	-0.969006
C89	C	0.978120	-0.216329	-0.933645
C90	C	0.978112	-0.216342	-0.856997
C91	C	0.978109	-0.216350	-0.795905
C92	C	0.978028	-0.216420	-0.150251
C93	C	0.978143	-0.216306	-0.075019
H94	H	1.056554	-0.472529	-0.247634
C95	C	1.030954	-0.926191	-0.191869
C96	C	1.069112	-0.953126	-0.235375
H97	H	1.060343	-0.910270	-0.162515
H98	H	1.005161	-0.905511	-0.217620
H99	H	1.001486	-0.944528	-0.165957
H100	H	1.098576	-0.934788	-0.261290
H101	H	1.094916	-0.973808	-0.209620
C102	C	0.156802	-0.162137	-0.244551
C103	C	0.226312	-0.156051	-0.235427
H104	H	0.132823	-0.142623	-0.215222
H105	H	0.145243	-0.155599	-0.290040
H106	H	0.145200	-0.192318	-0.234567
H107	H	0.237915	-0.125871	-0.245416
H108	H	0.237876	-0.162587	-0.189929
C109	C	1.054536	-0.111509	-1.061486
C110	C	1.069091	-0.155997	-1.078563
H111	H	1.083944	-0.092010	-1.085479
H112	H	1.009076	-0.104932	-1.073069
H113	H	1.060730	-0.107413	-1.014331
H114	H	1.062893	-0.160094	-1.125718
H115	H	1.114563	-0.162577	-1.066985
H116	H	1.099922	-0.603230	-0.204407
H117	H	0.899640	-1.044971	-0.404633
C118	C	1.059866	-0.162153	-0.504905
C119	C	1.069020	-0.156077	-0.574418
H120	H	1.089263	-0.142661	-0.480938
H121	H	1.014400	-0.155579	-0.493319
H122	H	1.069738	-0.192341	-0.493315
H123	H	1.059143	-0.125890	-0.586010
H124	H	1.114497	-0.162649	-0.586009
C125	C	0.684528	-0.130783	-0.197465
C126	C	0.730469	-0.156030	-0.235389
H127	H	0.708521	-0.111263	-0.168136
H128	H	0.656990	-0.113624	-0.227003
H129	H	0.656924	-0.150341	-0.171527
H130	H	0.758069	-0.136472	-0.261331
H131	H	0.758018	-0.173190	-0.205847
C132	C	0.843809	-0.926246	-0.378730
C133	C	0.887261	-0.953179	-0.416950
H134	H	0.814409	-0.910337	-0.408077
H135	H	0.817951	-0.944578	-0.349220
H136	H	0.869602	-0.905551	-0.352980
H137	H	0.861469	-0.973876	-0.442696
H138	H	0.913122	-0.934845	-0.446471
C139	C	0.849012	-0.448784	-0.454836
C140	C	0.887042	-0.479274	-0.416884
H141	H	0.819636	-0.464711	-0.484195
H142	H	0.823127	-0.430520	-0.425317
H143	H	0.878486	-0.430448	-0.480743
H144	H	0.857569	-0.497608	-0.390973
H145	H	0.912929	-0.497546	-0.446406
C146	C	0.243410	-0.267193	-0.483897
C147	C	0.226279	-0.276831	-0.416843
H148	H	0.219423	-0.286718	-0.513221
H149	H	0.231858	-0.237020	-0.493881
H150	H	0.290566	-0.271310	-0.490064
H151	H	0.179123	-0.272711	-0.410674
H152	H	0.237826	-0.307011	-0.406854
H153	H	0.720352	-0.268620	-0.404479
C154	C	0.512533	-0.270745	-0.407694
C155	C	0.582039	-0.276819	-0.416805
H156	H	0.488545	-0.290267	-0.437021
H157	H	0.500924	-0.277280	-0.362206
H158	H	0.500992	-0.240567	-0.417688
H159	H	0.593582	-0.306995	-0.406807
H160	H	0.593653	-0.270287	-0.462304
C161	C	1.107068	-0.130853	-0.676871
C162	C	1.069044	-0.156057	-0.722803
H163	H	1.136476	-0.111358	-0.700869
H164	H	1.077598	-0.113670	-0.649303
H165	H	1.132925	-0.150440	-0.649296
H166	H	1.043183	-0.136471	-0.750375
H167	H	1.098518	-0.173242	-0.750383
H168	H	0.899544	-0.268431	-1.068415
C169	C	0.925279	-0.305542	-0.533672
C170	C	0.887138	-0.276690	-0.574323
H171	H	0.895878	-0.325038	-0.509665
H172	H	0.954743	-0.322725	-0.561247
H173	H	0.951074	-0.288430	-0.502526
H174	H	0.861347	-0.293802	-0.605472
H175	H	0.857662	-0.259506	-0.546745
H176	H	0.899531	-0.268455	-0.940181
C177	C	1.150298	-0.664501	-0.154136
C178	C	1.112306	-0.695018	-0.192094
H179	H	1.179693	-0.680406	-0.124779
H180	H	1.176163	-0.646176	-0.183651
H181	H	1.120803	-0.646228	-0.128227
H182	H	1.141802	-0.713288	-0.218008
H183	H	1.086440	-0.713351	-0.162576
C184	C	0.328753	-0.130789	-0.197505
C185	C	0.374698	-0.156036	-0.235425
H186	H	0.352742	-0.111264	-0.168182
H187	H	0.301211	-0.113636	-0.227047
H188	H	0.301154	-0.150347	-0.171563
H189	H	0.402294	-0.136478	-0.261372
H190	H	0.402252	-0.173190	-0.205880
H191	H	1.056727	-0.164209	-0.940249
H192	H	1.056497	-0.387420	-0.247615
C193	C	0.415354	-0.251518	-0.460350
C194	C	0.374667	-0.276824	-0.416824
H195	H	0.439334	-0.271039	-0.489669
H196	H	0.387806	-0.231972	-0.486293
H197	H	0.446522	-0.234385	-0.434606
H198	H	0.343494	-0.293953	-0.442568
H199	H	0.402216	-0.296377	-0.390879
C200	C	0.512571	-0.162108	-0.244536
C201	C	0.582081	-0.156030	-0.235409
H202	H	0.488596	-0.142586	-0.215215
H203	H	0.501016	-0.155575	-0.290027
H204	H	0.500958	-0.192286	-0.234543
H205	H	0.593694	-0.125853	-0.245407
H206	H	0.593640	-0.162561	-0.189907
C207	C	1.060096	-1.097754	-0.244612
C208	C	1.069207	-1.051617	-0.235445
H209	H	1.089545	-1.113668	-0.215320
H210	H	1.014650	-1.105489	-0.234612
H211	H	1.069926	-1.105393	-0.290121
H212	H	1.059372	-1.043977	-0.189937
H213	H	1.114663	-1.043879	-0.245440
C214	C	0.800408	-0.710434	-0.421939
C215	C	0.843863	-0.737364	-0.460163
H216	H	0.771006	-0.694525	-0.451284
H217	H	0.774552	-0.728769	-0.392431
H218	H	0.826199	-0.689740	-0.396187
H219	H	0.818072	-0.758060	-0.485911
H220	H	0.869721	-0.719027	-0.489682
C221	C	0.896313	-0.270593	-0.792230
C222	C	0.887153	-0.276668	-0.722717
H223	H	0.866920	-0.290088	-0.816198
H224	H	0.886444	-0.240410	-0.803823
H225	H	0.941785	-0.277170	-0.803813
H226	H	0.841681	-0.270087	-0.711134
H227	H	0.897016	-0.306858	-0.711120
H228	H	0.856248	-0.829154	-0.447859
C229	C	0.805811	-0.627119	-0.498125
C230	C	0.843808	-0.596607	-0.460163
H231	H	0.776410	-0.611209	-0.527472
H232	H	0.835298	-0.645387	-0.524040
H233	H	0.779946	-0.645449	-0.468608
H234	H	0.869677	-0.578279	-0.489681
H235	H	0.814318	-0.578331	-0.434247
H236	H	0.856180	-0.688398	-0.447849
H237	H	0.899337	-0.387461	-0.404539
H238	H	1.099993	-0.743977	-0.204431
H239	H	1.100029	-0.829096	-0.204451
