data_functionalizedCrystal
_audit_creation_method	'MofGen! by Chris Wilmer'
_symmetry_space_group_name_H-M	'P1'
_symmetry_Int_Tables_number	1
_symmetry_cell_setting	triclinic
loop_
_symmetry_equiv_pos_as_xyz
  x,y,z
_cell_length_a	14.519731
_cell_length_b	14.519731
_cell_length_c	10.868271
_cell_angle_alpha	89.995592
_cell_angle_beta	89.999692
_cell_angle_gamma	96.311147
loop_
_atom_site_label
_atom_site_type_symbol
_atom_site_fract_x
_atom_site_fract_y
_atom_site_fract_z
O1	O	-0.120984	1.223864	-0.102310
O2	O	0.379016	1.723864	0.397690
O3	O	-0.135200	0.955391	-0.102310
O4	O	0.364800	1.455391	0.397690
O5	O	0.006145	1.096736	-0.102318
O6	O	0.506145	1.596736	0.397682
O7	O	-0.262329	1.082520	-0.102301
O8	O	0.237671	1.582520	0.397699
O9	O	0.006150	1.096724	0.102326
O10	O	0.506150	1.596724	0.602326
O11	O	-0.135195	0.955380	0.102335
O12	O	0.364805	1.455380	0.602335
O13	O	-0.120979	1.223853	0.102335
O14	O	0.379021	1.723853	0.602335
Zn15	Zn	-0.128086	1.089614	0.134827
Zn16	Zn	0.371914	1.589614	0.634827
Zn17	Zn	-0.128093	1.089630	-0.134801
Zn18	Zn	0.371907	1.589630	0.365199
O19	O	-0.262323	1.082508	0.102344
O20	O	0.237677	1.582508	0.602344
C21	C	-0.134531	0.921026	0.000012
C22	C	0.365469	1.421026	0.500012
C23	C	-0.132535	0.818645	0.000012
C24	C	0.367465	1.318645	0.500012
C25	C	-0.130913	0.735501	0.000007
C26	C	0.369087	1.235501	0.500007
C27	C	-0.128887	0.631192	0.000006
C28	C	0.371113	1.131192	0.500006
C29	C	-0.127278	0.548053	0.000006
C30	C	0.372722	1.048053	0.500006
C31	C	-0.125252	0.443738	0.000003
C32	C	0.374748	0.943738	0.500003
C33	C	-0.296685	1.083180	0.000024
C34	C	0.203315	1.583180	0.500024
C35	C	-0.399066	1.085176	0.000030
C36	C	0.100934	1.585176	0.500030
C37	C	-0.482210	1.086798	0.000025
C38	C	0.017790	1.586798	0.500025
C39	C	-0.586519	1.088825	0.000014
C40	C	-0.086519	1.588825	0.500014
C41	C	-0.669658	1.090433	0.000004
C42	C	-0.169658	1.590433	0.500004
C43	C	-0.773974	1.092459	-0.000006
C44	C	-0.273974	1.592459	0.499994
C45	C	0.040507	1.096064	-0.000001
C46	C	0.540507	1.596064	0.499999
C47	C	0.142887	1.094068	-0.000016
C48	C	0.642887	1.594068	0.499984
C49	C	-0.121648	1.258218	0.000010
C50	C	0.378352	1.758218	0.500010
C51	C	-0.123643	1.360598	0.000003
C52	C	0.376357	1.860598	0.500003
N53	N	-0.128080	1.089611	0.318841
N54	N	0.371920	1.589611	0.818841
N55	N	-0.128091	1.089641	-0.318815
N56	N	0.371909	1.589641	0.181185
C57	C	-0.128091	1.089625	0.569847
C58	C	0.371909	1.589625	1.069847
C59	C	-0.128088	1.089614	0.430169
C60	C	0.371912	1.589614	0.930169
