data_functionalizedCrystal
_audit_creation_method	'MofGen! by Chris Wilmer'
_symmetry_space_group_name_H-M	'P1'
_symmetry_Int_Tables_number	1
_symmetry_cell_setting	triclinic
loop_
_symmetry_equiv_pos_as_xyz
  x,y,z
_cell_length_a	9.798715
_cell_length_b	19.288864
_cell_length_c	19.288865
_cell_angle_alpha	83.136245
_cell_angle_beta	89.991627
_cell_angle_gamma	89.982474
loop_
_atom_site_label
_atom_site_type_symbol
_atom_site_fract_x
_atom_site_fract_y
_atom_site_fract_z
O1	O	0.113944	-0.921348	-0.086646
O2	O	0.113853	-0.719087	-0.098335
O3	O	0.113874	-0.826062	0.008640
O4	O	0.113923	-0.814373	-0.193621
O5	O	-0.113108	-0.826054	0.008640
O6	O	-0.113129	-0.719079	-0.098335
O7	O	-0.113038	-0.921340	-0.086646
Zn8	Zn	-0.149122	-0.820208	-0.092490
Zn9	Zn	0.149937	-0.820219	-0.092491
O10	O	-0.113059	-0.814365	-0.193621
C11	C	0.000350	-0.693207	-0.097959
C12	C	0.000314	-0.616103	-0.096830
N13	N	-0.353222	-0.820206	-0.092490
C14	C	0.000379	-0.825682	0.034516
C15	C	0.000366	-0.824553	0.111620
C16	C	-0.420990	-0.865124	-0.047378
C17	C	-0.578152	-0.865135	-0.047376
N18	N	0.354037	-0.820226	-0.092486
C19	C	0.000468	-0.947220	-0.087022
C20	C	0.000513	-1.024324	-0.088151
C21	C	0.000350	-0.571407	-0.159598
C22	C	0.000365	-0.498960	-0.158537
C23	C	0.000371	-0.471212	-0.094705
C24	C	0.000327	-0.515918	-0.031929
C25	C	0.000298	-0.588364	-0.032991
C26	C	0.079927	-0.362953	-0.044526
C27	C	0.079963	-0.290508	-0.043466
C28	C	0.000453	-0.247767	-0.091425
C29	C	-0.079077	-0.277476	-0.140456
C30	C	-0.079106	-0.349922	-0.141519
C31	C	0.000401	-0.392658	-0.093546
C32	C	0.000503	-0.124514	-0.153047
C33	C	0.000510	-0.052066	-0.151984
C34	C	0.000485	-0.069026	-0.025374
C35	C	0.000465	-0.141473	-0.026439
C36	C	0.000480	-0.169212	-0.090278
C37	C	0.000439	-0.814745	-0.219497
C38	C	0.000461	-0.815874	-0.296601
C39	C	0.000388	-0.887321	0.156316
C40	C	0.000409	-0.886260	0.228763
C41	C	0.000381	-0.822428	0.256511
C42	C	0.000367	-0.759652	0.211805
C43	C	0.000360	-0.760714	0.139359
C44	C	-0.079148	-0.772245	0.364798
C45	C	-0.079149	-0.771186	0.437243
C46	C	0.000410	-0.819148	0.479956
C47	C	0.079953	-0.868182	0.450218
C48	C	0.079946	-0.869245	0.377773
C49	C	0.000390	-0.821269	0.335065
C50	C	0.000457	-0.880770	0.603209
C51	C	0.000486	-0.879707	0.675657
C52	C	0.000431	-0.753097	0.658697
C53	C	0.000415	-0.754162	0.586250
C54	C	0.000421	-0.818000	0.558511
H55	H	-0.362659	-0.903570	-0.008756
Br56	Br	0.000320	-0.478263	0.054702
H57	H	0.000390	-0.703049	0.549857
Br58	Br	-0.675278	-0.929241	0.016995
Br59	Br	0.000407	-0.438288	-0.243728
H60	H	0.000442	-0.177866	0.024674
H61	H	0.000342	-0.709599	0.102967
H62	H	-0.587695	-0.781770	-0.131112
H63	H	0.000347	-0.707679	0.234401
Br64	Br	-0.450433	-0.756114	-0.156857
H65	H	0.000432	-0.937375	0.265162
Br66	Br	-0.187037	-0.390242	-0.208055
H67	H	0.000574	-0.046435	0.026600
H68	H	0.000366	-0.593987	-0.211580
Br69	Br	-0.186989	-0.219478	-0.205551
H70	H	0.000398	-0.939303	0.133736
Br71	Br	0.000515	-0.162165	-0.239683
H72	H	0.144739	-0.907238	0.484995
H73	H	0.000532	-0.015674	-0.203099
H74	H	0.144727	-0.266324	-0.003545
Br75	Br	0.000530	-0.964900	0.736319
H76	H	0.144682	-0.397748	-0.005470
H77	H	-0.143943	-0.733187	0.330026
H78	H	0.000269	-0.624756	0.018124
Br79	Br	0.000407	-0.666466	0.696346
H80	H	0.000468	-0.932751	0.580622
H81	H	0.144715	-0.909169	0.353563
H82	H	-0.143910	-0.731256	0.461449
