data_functionalizedCrystal
_audit_creation_method	'MofGen! by Chris Wilmer'
_symmetry_space_group_name_H-M	'P1'
_symmetry_Int_Tables_number	1
_symmetry_cell_setting	triclinic
loop_
_symmetry_equiv_pos_as_xyz
  x,y,z
_cell_length_a	10.489741
_cell_length_b	10.489741
_cell_length_c	12.996460
_cell_angle_alpha	89.999982
_cell_angle_beta	90.003554
_cell_angle_gamma	84.539174
loop_
_atom_site_label
_atom_site_type_symbol
_atom_site_fract_x
_atom_site_fract_y
_atom_site_fract_z
O1	O	1.694058	0.179959	0.085503
O2	O	1.322862	0.196852	0.085519
O3	O	1.516906	0.002808	0.085504
O4	O	1.500014	0.374004	0.085517
O5	O	1.516881	0.002819	-0.085630
O6	O	1.322837	0.196863	-0.085615
O7	O	1.694033	0.179970	-0.085631
Cu8	Cu	1.508433	0.188418	-0.101249
Cu9	Cu	1.508462	0.188405	0.101136
O10	O	1.499988	0.374015	-0.085617
C11	C	1.275318	0.195582	-0.000046
C12	C	1.133688	0.191765	-0.000040
C13	C	1.065548	0.068300	-0.000054
C14	C	0.973434	0.126618	0.084323
C15	C	0.973443	0.126658	-0.084401
C16	C	1.043439	0.250133	0.084407
C17	C	1.043458	0.250157	-0.084393
C18	C	0.951371	0.308564	0.000005
C19	C	1.515618	-0.044718	-0.000062
C20	C	1.511801	-0.186348	-0.000060
C21	C	1.388336	-0.254488	-0.000047
C22	C	1.446647	-0.346605	-0.084428
C23	C	1.446701	-0.346590	0.084297
C24	C	1.570163	-0.276599	-0.084510
C25	C	1.570200	-0.276575	0.084290
C26	C	1.628600	-0.368665	-0.000111
C27	C	1.741577	0.181241	-0.000064
C28	C	1.883206	0.185058	-0.000063
C29	C	1.501277	0.421541	-0.000048
C30	C	1.505094	0.563170	-0.000043
N31	N	1.508421	0.188426	-0.243596
C32	C	1.508427	0.188430	-0.336702
C33	C	1.508438	0.188421	-0.453507
C34	C	1.508454	0.188407	-0.546606
C35	C	1.508468	0.188400	-0.663418
N36	N	1.508484	0.188386	0.243484
H37	H	1.074494	0.302359	-0.155730
O38	O	0.936519	0.064091	0.169345
C39	C	0.995221	-0.062538	0.169059
H40	H	1.022655	-0.091884	0.086947
H41	H	1.084880	-0.068407	0.219071
C42	C	0.867478	-0.117252	0.312956
C43	C	0.901163	-0.153298	0.212104
H44	H	0.809461	-0.173237	0.339513
H45	H	0.827931	-0.031938	0.313153
H46	H	0.942202	-0.122143	0.354620
H47	H	0.826441	-0.148391	0.170440
H48	H	0.940694	-0.238613	0.211902
O49	O	1.080355	0.312519	0.169504
C50	C	1.142130	0.420190	0.139402
H51	H	1.181098	0.405208	0.057974
H52	H	1.070756	0.509185	0.141433
C53	C	1.205525	0.456225	0.313786
C54	C	1.253395	0.437819	0.213777
H55	H	1.274155	0.467104	0.359665
H56	H	1.163902	0.383688	0.334067
H57	H	1.146047	0.530386	0.315463
H58	H	1.312859	0.363651	0.212098
H59	H	1.295031	0.510344	0.193497
H60	H	0.901947	0.410168	0.000055
O61	O	1.124645	-0.052858	-0.000094
C62	C	1.087475	-0.118411	-0.088230
H63	H	0.991669	-0.071686	-0.117341
H64	H	1.163056	-0.113846	-0.150811
C65	C	1.191862	-0.316692	-0.024887
C66	C	1.074186	-0.259310	-0.060637
H67	H	1.183670	-0.403606	-0.007870
H68	H	1.216909	-0.272527	0.034490
H69	H	1.254834	-0.312875	-0.077045
H70	H	1.011220	-0.263113	-0.008476
H71	H	1.049128	-0.303478	-0.120006
H72	H	1.286824	-0.204837	-0.000128
H73	H	1.394455	-0.377559	0.155641
H74	H	1.622347	-0.245763	-0.155927
H75	H	0.942455	0.074400	-0.155736
H76	H	1.394396	-0.377612	-0.155761
H77	H	1.730204	-0.418089	-0.000162
H78	H	1.622406	-0.245535	0.155627
