data_functionalizedCrystal
_audit_creation_method	'MofGen! by Chris Wilmer'
_symmetry_space_group_name_H-M	'P1'
_symmetry_Int_Tables_number	1
_symmetry_cell_setting	triclinic
loop_
_symmetry_equiv_pos_as_xyz
  x,y,z
_cell_length_a	11.026607
_cell_length_b	26.809956
_cell_length_c	11.026607
_cell_angle_alpha	89.992486
_cell_angle_beta	108.586017
_cell_angle_gamma	90.010075
loop_
_atom_site_label
_atom_site_type_symbol
_atom_site_fract_x
_atom_site_fract_y
_atom_site_fract_z
O1	O	1.726739	0.041478	0.533608
O2	O	2.226739	0.541478	1.033608
O3	O	1.360160	0.041479	0.472844
O4	O	1.860160	0.541479	0.972844
O5	O	1.513068	0.041477	0.319936
O6	O	2.013068	0.541477	0.819936
O7	O	1.573831	0.041481	0.686516
O8	O	2.073831	0.541481	1.186516
O9	O	1.513037	-0.041482	0.319958
O10	O	2.013037	0.458518	0.819958
O11	O	1.360129	-0.041480	0.472866
O12	O	1.860129	0.458520	0.972866
O13	O	1.726709	-0.041481	0.533630
O14	O	2.226709	0.458519	1.033630
Zn15	Zn	1.543414	-0.054652	0.503251
Zn16	Zn	2.043414	0.445348	1.003251
Zn17	Zn	1.543454	0.054650	0.503223
Zn18	Zn	2.043454	0.554650	1.003223
O19	O	1.573801	-0.041479	0.686538
O20	O	2.073801	0.458521	1.186538
C21	C	1.312485	-0.000000	0.461645
C22	C	1.812485	0.500000	0.961645
C23	C	1.170471	-0.000000	0.428228
C24	C	1.670471	0.500000	0.928228
N25	N	1.543396	-0.129248	0.503272
N26	N	2.043396	0.370752	1.003272
C27	C	1.116821	0.000001	0.520498
C28	C	1.616821	0.500001	1.020498
C29	C	0.970043	0.000001	0.485962
C30	C	1.470043	0.500001	0.985962
C31	C	1.611156	-0.473875	0.435534
C32	C	2.111156	0.026125	0.935534
C33	C	1.611182	-0.682753	0.435521
C34	C	2.111182	-0.182753	0.935521
O35	O	1.668743	-0.709757	0.377924
O36	O	2.168743	-0.209757	0.877924
N37	N	1.543455	-0.708875	0.503196
N38	N	2.043455	-0.208875	1.003196
C39	C	1.475710	-0.682775	0.570872
C40	C	1.975710	-0.182775	1.070872
O41	O	1.418095	-0.709786	0.628423
O42	O	1.918095	-0.209786	1.128423
C43	C	1.475678	-0.473898	0.570877
C44	C	1.975678	0.026102	1.070877
C45	C	1.543419	-0.447778	0.503208
C46	C	2.043419	0.052222	1.003208
C47	C	1.678890	-0.447755	0.367869
C48	C	2.178890	0.052245	0.867869
C49	C	1.678889	-0.395539	0.367879
C50	C	2.178889	0.104461	0.867879
C51	C	1.611153	-0.369442	0.435553
C52	C	2.111153	0.130558	0.935553
C53	C	1.543418	-0.395562	0.503217
C54	C	2.043418	0.104438	1.003217
C55	C	1.407927	-0.447799	0.638545
C56	C	1.907927	0.052201	1.138545
C57	C	1.407922	-0.395576	0.638537
C58	C	1.907922	0.104424	1.138537
C59	C	1.475663	-0.369457	0.570868
C60	C	1.975663	0.130543	1.070868
C61	C	1.475680	-0.317249	0.570901
C62	C	1.975680	0.182751	1.070901
N63	N	1.543407	-0.291127	0.503226
N64	N	2.043407	0.208873	1.003226
C65	C	1.611143	-0.317223	0.435552
C66	C	2.111143	0.182777	0.935552
C67	C	1.475734	-0.792438	0.570867
C68	C	1.975734	-0.292438	1.070867
C69	C	1.475744	-0.844657	0.570868
C70	C	1.975744	-0.344657	1.070868
C71	C	1.611214	-0.844631	0.435515
C72	C	2.111214	-0.344631	0.935515
C73	C	1.611210	-0.792411	0.435522
C74	C	2.111210	-0.292411	0.935522
C75	C	1.543461	-0.766316	0.503192
C76	C	2.043461	-0.266316	1.003192
C77	C	1.611135	-0.207565	0.435578
C78	C	2.111135	0.292435	0.935578
C79	C	1.611132	-0.155345	0.435598
C80	C	2.111132	0.344655	0.935598
C81	C	1.475658	-0.155375	0.570945
C82	C	1.975658	0.344625	1.070945
C83	C	1.475666	-0.207591	0.570931
C84	C	1.975666	0.292409	1.070931
C85	C	1.543407	-0.233685	0.503238
C86	C	2.043407	0.266315	1.003238
O87	O	1.418137	-0.290212	0.628456
O88	O	1.918137	0.209788	1.128456
O89	O	1.668727	-0.290203	0.377987
O90	O	2.168727	0.209797	0.877987
C91	C	1.611157	-0.526091	0.435524
C92	C	2.111157	-0.026091	0.935524
C93	C	1.543422	-0.552211	0.503189
C94	C	2.043422	-0.052211	1.003189
C95	C	1.475686	-0.526114	0.570863
C96	C	1.975686	-0.026114	1.070863
C97	C	1.543432	-0.604430	0.503190
C98	C	2.043432	-0.104430	1.003190
C99	C	1.611168	-0.630527	0.435516
C100	C	2.111168	-0.130527	0.935516
C101	C	1.678895	-0.604404	0.367841
C102	C	2.178895	-0.104404	0.867841
C103	C	1.678893	-0.552188	0.367850
C104	C	2.178893	-0.052188	0.867850
C105	C	1.407960	-0.552237	0.638538
C106	C	1.907960	-0.052237	1.138538
C107	C	1.407968	-0.604453	0.638524
C108	C	1.907968	-0.104453	1.138524
C109	C	1.475704	-0.630550	0.570850
C110	C	1.975704	-0.130550	1.070850
C111	C	1.774384	-0.000000	0.544828
C112	C	2.274384	0.500000	1.044828
C113	C	1.916398	0.000003	0.578245
C114	C	2.416398	0.500003	1.078245
C115	C	1.501843	-0.000002	0.272287
C116	C	2.001843	0.499998	0.772287
C117	C	1.468426	-0.000000	0.130273
C118	C	1.968426	0.500000	0.630273
N119	N	1.543480	0.129246	0.503194
N120	N	2.043480	0.629246	1.003194
C121	C	1.560695	0.000000	0.076624
C122	C	2.060695	0.500000	0.576624
C123	C	1.526160	0.000002	-0.070155
C124	C	2.026160	0.500002	0.429845
C125	C	1.585026	0.000001	0.734187
C126	C	2.085026	0.500001	1.234187
C127	C	1.618443	0.000003	0.876200
C128	C	2.118443	0.500003	1.376200
H129	H	1.179555	-0.000001	0.625061
H130	H	1.679555	0.499999	1.125061
H131	H	1.420563	-0.771195	0.625975
H132	H	1.920563	-0.271195	1.125975
F133	F	1.088480	-0.000005	0.291554
F134	F	1.588480	0.499995	0.791554
H135	H	1.666370	-0.771148	0.380419
H136	H	2.166370	-0.271148	0.880419
F137	F	1.683238	-0.127549	0.363576
F138	F	2.183238	0.372451	0.863576
F139	F	1.389478	0.000007	-0.152141
F140	F	1.889478	0.500007	0.347859
H141	H	1.666370	-0.865888	0.380414
H142	H	2.166370	-0.365888	0.880414
H143	H	1.734054	-0.625660	0.312743
H144	H	2.234054	-0.125660	0.812743
F145	F	0.998382	-0.000002	0.714928
F146	F	1.498382	0.499998	1.214928
H147	H	1.723013	0.000040	-0.061072
H148	H	2.223013	0.500040	0.438928
H149	H	1.352765	-0.469058	0.693646
H150	H	1.852765	0.030942	1.193646
H151	H	1.363863	0.000003	0.067540
H152	H	1.863863	0.500003	0.567540
F153	F	1.750992	-0.524395	0.295826
F154	F	2.250992	-0.024395	0.795826
H155	H	0.907314	0.000013	0.381393
H156	H	1.407314	0.500013	0.881393
H157	H	1.352748	-0.374332	0.693640
H158	H	1.852748	0.125668	1.193640
H159	H	1.666295	-0.228805	0.380454
H160	H	2.166295	0.271195	0.880454
F161	F	1.750981	-0.367745	0.295850
F162	F	2.250981	0.132255	0.795850
H163	H	1.352799	-0.530993	0.693645
H164	H	1.852799	-0.030993	1.193645
H165	H	1.734048	-0.468998	0.312755
H166	H	2.234048	0.031002	0.812755
F167	F	1.403664	-0.872450	0.642909
F168	F	1.903664	-0.372450	1.142909
H169	H	1.665258	-0.000003	0.139357
H170	H	2.165258	0.499997	0.639357
F171	F	1.403583	-0.235389	0.642970
F172	F	1.903583	0.264611	1.142970
F173	F	1.403574	-0.127593	0.642969
F174	F	1.903574	0.372407	1.142969
H175	H	1.352809	-0.625716	0.693640
H176	H	1.852809	-0.125716	1.193640
