data_functionalizedCrystal
_audit_creation_method	'MofGen! by Chris Wilmer'
_symmetry_space_group_name_H-M	'P1'
_symmetry_Int_Tables_number	1
_symmetry_cell_setting	triclinic
loop_
_symmetry_equiv_pos_as_xyz
  x,y,z
_cell_length_a	11.792241
_cell_length_b	14.519709
_cell_length_c	10.268362
_cell_angle_alpha	89.993769
_cell_angle_beta	89.999626
_cell_angle_gamma	83.936780
loop_
_atom_site_label
_atom_site_type_symbol
_atom_site_fract_x
_atom_site_fract_y
_atom_site_fract_z
O1	O	1.506208	0.126405	-0.108177
O2	O	1.175795	0.139432	-0.108207
O3	O	1.349762	-0.001288	-0.108180
O4	O	1.332241	0.267125	-0.108205
O5	O	1.349747	-0.001294	0.108421
O6	O	1.175780	0.139426	0.108393
O7	O	1.506193	0.126399	0.108424
Cu8	Cu	1.340985	0.132912	0.128186
Cu9	Cu	1.341003	0.132919	-0.127969
O10	O	1.332226	0.267119	0.108396
C11	C	1.133501	0.138611	0.000089
C12	C	1.007501	0.136161	0.000078
C13	C	0.776813	0.131657	0.000116
C14	C	0.905185	0.134160	0.000095
C15	C	1.348938	-0.035654	0.000121
C16	C	1.346491	-0.138044	0.000121
C17	C	1.337483	-0.512973	0.000087
C18	C	1.339984	-0.408656	0.000097
C19	C	1.341987	-0.325512	0.000105
C20	C	1.344489	-0.221188	0.000113
C21	C	1.548487	0.127220	0.000124
C22	C	1.674487	0.129669	0.000127
C23	C	1.333050	0.301484	0.000093
C24	C	1.335497	0.403875	0.000084
N25	N	1.340981	0.132906	0.308352
N26	N	1.341016	0.132917	-0.308135
C27	C	1.340997	0.132917	0.574022
C28	C	1.340984	0.132914	0.426184
