data_functionalizedCrystal
_audit_creation_method	'MofGen! by Chris Wilmer'
_symmetry_space_group_name_H-M	'P1'
_symmetry_Int_Tables_number	1
_symmetry_cell_setting	triclinic
loop_
_symmetry_equiv_pos_as_xyz
  x,y,z
_cell_length_a	15.944551
_cell_length_b	7.540329
_cell_length_c	9.065218
_cell_angle_alpha	89.998243
_cell_angle_beta	84.257312
_cell_angle_gamma	90.001531
loop_
_atom_site_label
_atom_site_type_symbol
_atom_site_fract_x
_atom_site_fract_y
_atom_site_fract_z
O1	O	1.115964	-0.147290	0.190270
O2	O	0.871592	-0.147333	0.213728
O3	O	0.998829	-0.147307	-0.012762
O4	O	0.988727	-0.147316	0.416759
O5	O	0.998821	0.147658	-0.012764
O6	O	0.871584	0.147632	0.213725
O7	O	1.115956	0.147675	0.190267
Cu8	Cu	0.993770	0.174586	0.201996
Cu9	Cu	0.993779	-0.174244	0.201999
O10	O	0.988719	0.147649	0.416757
C11	C	0.840287	0.000144	0.212753
C12	C	0.747019	0.000127	0.209833
N13	N	0.993769	0.419935	0.201993
N14	N	0.993785	-0.419593	0.201991
C15	C	0.531045	0.000164	0.062466
C16	C	0.470548	-0.145270	0.130900
C17	C	0.576253	0.000148	0.204551
C18	C	0.470563	0.145542	0.130931
C19	C	0.411301	0.000176	0.199439
C20	C	0.516983	-0.145407	0.273024
C21	C	0.517004	0.145536	0.273035
C22	C	0.456525	0.000066	0.341573
C23	C	0.671277	0.000130	0.207493
C24	C	0.316278	0.000181	0.196509
C25	C	1.147261	0.000194	0.191242
C26	C	1.240530	0.000199	0.194162
C27	C	0.997854	0.000172	-0.067727
C28	C	0.994951	0.000163	-0.231502
C29	C	0.989694	0.000165	0.471722
C30	C	0.992597	0.000163	0.635497
H31	H	0.563485	-0.000013	-0.055454
C32	C	0.442760	-0.311368	0.049723
C33	C	0.382020	-0.445509	0.131891
C34	C	0.354237	-0.611599	0.050704
C35	C	0.387195	-0.643547	-0.112651
C36	C	0.447939	-0.509402	-0.194828
C37	C	0.475721	-0.343312	-0.113642
H38	H	0.357620	-0.421862	0.252824
H39	H	0.309270	-0.710901	0.111538
H40	H	0.366628	-0.766496	-0.172750
H41	H	0.472339	-0.533049	-0.315762
H42	H	0.520688	-0.244010	-0.174476
H43	H	0.537429	-0.268495	0.333077
C44	C	0.412924	-0.000032	0.501028
C45	C	0.316021	0.001414	0.527889
C46	C	0.272415	0.001309	0.687339
C47	C	0.325713	-0.000242	0.819928
C48	C	0.422622	-0.001689	0.793070
C49	C	0.466227	-0.001584	0.633620
H50	H	0.276561	0.002563	0.429736
H51	H	0.200677	0.002380	0.707220
H52	H	0.293434	-0.000320	0.937962
H53	H	0.462082	-0.002837	0.891223
H54	H	0.537966	-0.002655	0.613739
H55	H	0.537587	0.268494	0.333081
H56	H	0.450018	0.268491	0.070807
