data_functionalizedCrystal
_audit_creation_method	'MofGen! by Chris Wilmer'
_symmetry_space_group_name_H-M	'P1'
_symmetry_Int_Tables_number	1
_symmetry_cell_setting	triclinic
loop_
_symmetry_equiv_pos_as_xyz
  x,y,z
_cell_length_a	19.188933
_cell_length_b	12.837942
_cell_length_c	11.892095
_cell_angle_alpha	85.697431
_cell_angle_beta	86.115576
_cell_angle_gamma	91.012745
loop_
_atom_site_label
_atom_site_type_symbol
_atom_site_fract_x
_atom_site_fract_y
_atom_site_fract_z
O1	O	0.939039	-0.122746	-0.093965
O2	O	1.439039	0.377254	0.406035
O3	O	0.736923	-0.140159	-0.093975
O4	O	1.236923	0.359841	0.406025
O5	O	0.833499	0.019430	-0.093963
O6	O	1.333499	0.519430	0.406037
O7	O	0.842463	-0.282335	-0.093977
O8	O	1.342463	0.217665	0.406023
O9	O	0.825445	0.006144	0.094043
O10	O	1.325445	0.506144	0.594043
O11	O	0.728869	-0.153445	0.094031
O12	O	1.228869	0.346555	0.594031
O13	O	0.930985	-0.136031	0.094042
O14	O	1.430985	0.363969	0.594042
Zn15	Zn	0.828648	-0.146848	0.123887
Zn16	Zn	1.328648	0.353152	0.623887
Zn17	Zn	0.839259	-0.129343	-0.123820
Zn18	Zn	1.339259	0.370657	0.376180
O19	O	0.834409	-0.295620	0.094030
O20	O	1.334409	0.204380	0.594030
C21	C	0.706846	-0.146238	0.000027
C22	C	1.206846	0.353762	0.500027
C23	C	0.629226	-0.144544	0.000023
C24	C	1.129226	0.355456	0.500023
C25	C	0.079531	-0.125213	-0.102447
C26	C	0.579531	0.374787	0.397553
C27	C	0.152464	-0.126798	-0.102451
C28	C	0.652464	0.373202	0.397549
C29	C	0.184545	-0.134838	0.000031
C30	C	0.684545	0.365162	0.500031
C31	C	0.143688	-0.141266	0.102525
C32	C	0.643688	0.358734	0.602525
C33	C	0.070757	-0.139670	0.102526
C34	C	0.570757	0.360330	0.602526
N35	N	0.294514	-0.201703	0.076310
N36	N	0.794514	0.298297	0.576310
N37	N	0.363796	-0.203221	0.076302
N38	N	0.863796	0.296779	0.576302
C39	C	0.404284	-0.139644	0.000033
C40	C	0.904284	0.360356	0.500033
N41	N	0.372872	-0.074503	-0.076245
N42	N	0.872872	0.425497	0.423755
N43	N	0.303584	-0.072990	-0.076240
N44	N	0.803584	0.427010	0.423760
C45	C	0.263627	-0.136568	0.000041
C46	C	0.763627	0.363432	0.500041
C47	C	0.524215	-0.134927	-0.102460
C48	C	1.024215	0.365073	0.397540
C49	C	0.597149	-0.136506	-0.102460
C50	C	1.097149	0.363494	0.397540
C51	C	0.588372	-0.150984	0.102519
C52	C	1.088372	0.349016	0.602519
C53	C	0.515439	-0.149395	0.102516
C54	C	1.015439	0.350605	0.602516
C55	C	0.483365	-0.141371	0.000024
C56	C	0.983365	0.358629	0.500024
C57	C	0.826444	0.051394	0.000039
C58	C	1.326444	0.551394	0.500039
C59	C	0.817413	0.166430	0.000037
C60	C	1.317413	0.666430	0.500037
C61	C	0.961062	-0.129953	0.000037
C62	C	1.461062	0.370047	0.500037
C63	C	1.038683	-0.131646	0.000034
C64	C	1.538683	0.368354	0.500034
C65	C	0.841464	-0.327584	0.000025
C66	C	1.341464	0.172416	0.500025
C67	C	0.850495	-0.442620	0.000020
C68	C	1.350495	0.057380	0.500020
N69	N	0.821412	-0.158793	0.292940
N70	N	1.321412	0.341207	0.792940
C71	C	0.925982	0.407881	0.000019
C72	C	1.425982	0.907881	0.500019
C73	C	0.917500	0.515968	0.000017
C74	C	1.417500	1.015968	0.500017
C75	C	0.791968	0.490696	0.000022
C76	C	1.291968	0.990696	0.500022
C77	C	0.800450	0.382608	0.000024
C78	C	1.300450	0.882608	0.500024
C79	C	0.867459	0.341205	0.000024
C80	C	1.367459	0.841205	0.500024
C81	C	0.875940	0.233114	0.000035
C82	C	1.375940	0.733114	0.500035
C83	C	0.750409	0.207844	0.000032
C84	C	1.250409	0.707844	0.500032
C85	C	0.741928	0.315932	0.000030
C86	C	1.241928	0.815932	0.500030
N87	N	0.846501	-0.117389	-0.292873
N88	N	1.346501	0.382611	0.207127
C89	C	0.896854	-0.034205	0.529597
C90	C	1.396854	0.465795	1.029597
C91	C	0.891801	-0.042563	0.647938
C92	C	1.391801	0.457437	1.147938
C93	C	0.806250	-0.183860	0.647966
C94	C	1.306250	0.316140	1.147966
C95	C	0.811303	-0.175503	0.529625
C96	C	1.311303	0.324497	1.029625
C97	C	0.856607	-0.100674	0.470444
C98	C	1.356607	0.399326	0.970444
C99	C	0.861663	-0.092322	0.352101
C100	C	1.361663	0.407678	0.852101
C101	C	0.776109	-0.233614	0.352131
C102	C	1.276109	0.266386	0.852131
C103	C	0.771056	-0.241971	0.470472
C104	C	1.271056	0.258029	0.970472
H105	H	0.185729	-0.121565	-0.185906
H106	H	0.685729	0.378435	0.314094
F107	F	0.733277	-0.304363	0.289164
F108	F	1.233277	0.195637	0.789164
H109	H	0.980542	0.374169	0.000030
H110	H	1.480542	0.874169	0.500030
H111	H	0.933747	0.026716	0.481412
H112	H	1.433747	0.526716	0.981412
H113	H	0.965155	0.570253	0.000009
H114	H	1.465155	1.070253	0.500009
H115	H	0.614492	-0.157526	0.185962
H116	H	1.114492	0.342474	0.685962
H117	H	0.734168	-0.302893	0.518670
H118	H	1.234168	0.197107	1.018670
H119	H	0.769359	-0.244777	0.696166
H120	H	1.269359	0.255223	1.196166
H121	H	0.053421	-0.118675	-0.185904
H122	H	0.553421	0.381325	0.314096
H123	H	0.687371	0.349658	0.000025
H124	H	1.187371	0.849658	0.500025
F125	F	0.720660	0.534780	-0.000006
F126	F	1.220660	1.034780	0.499994
H127	H	0.169814	-0.147810	0.185966
H128	H	0.669814	0.352190	0.685966
F129	F	0.027281	-0.146521	0.211605
F130	F	0.527281	0.353479	0.711605
H131	H	0.924573	0.011563	0.696097
H132	H	1.424573	0.511563	1.196097
H133	H	0.702756	0.153543	0.000046
H134	H	1.202756	0.653543	0.500046
H135	H	0.630407	-0.131259	-0.185915
H136	H	1.130407	0.368741	0.314085
F137	F	0.490077	-0.126381	-0.211540
F138	F	0.990077	0.373619	0.288460
H139	H	0.482179	-0.154637	0.185967
H140	H	0.982179	0.345363	0.685967
F141	F	0.947255	0.189051	0.000042
F142	F	1.447255	0.689051	0.500042
H143	H	0.898554	-0.031396	0.303917
H144	H	1.398554	0.468604	0.803917
