data_functionalizedCrystal
_audit_creation_method	'MofGen! by Chris Wilmer'
_symmetry_space_group_name_H-M	'P1'
_symmetry_Int_Tables_number	1
_symmetry_cell_setting	triclinic
loop_
_symmetry_equiv_pos_as_xyz
  x,y,z
_cell_length_a	12.759401
_cell_length_b	18.215405
_cell_length_c	12.759393
_cell_angle_alpha	89.963505
_cell_angle_beta	89.980324
_cell_angle_gamma	90.025312
loop_
_atom_site_label
_atom_site_type_symbol
_atom_site_fract_x
_atom_site_fract_y
_atom_site_fract_z
Zn1	Zn	1.606192	-0.292940	-0.593941
Zn2	Zn	1.606052	-0.416024	-0.418243
Zn3	Zn	1.430491	-0.292977	-0.418280
Zn4	Zn	1.430451	-0.415971	-0.593884
O5	O	1.518296	-0.354478	-0.506087
O6	O	1.753194	-0.309275	-0.570642
O7	O	1.582721	-0.399740	-0.271226
O8	O	1.453873	-0.189988	-0.441621
O9	O	1.753091	-0.399704	-0.441558
O10	O	1.582960	-0.189961	-0.570679
O11	O	1.453737	-0.309337	-0.271254
O12	O	1.283464	-0.309285	-0.441566
O13	O	1.453806	-0.399612	-0.740912
O14	O	1.283436	-0.399648	-0.570581
O15	O	1.582922	-0.309223	-0.740954
O16	O	1.582683	-0.519002	-0.441502
O17	O	1.453670	-0.518962	-0.570545
C18	C	1.245329	-0.354465	-0.506072
C19	C	1.128552	-0.354478	-0.506091
C20	C	1.073745	-0.307476	-0.573409
C21	C	0.964021	-0.307484	-0.573416
C22	C	0.963922	-0.401501	-0.438783
C23	C	1.073644	-0.401489	-0.438772
C24	C	1.518186	-0.545684	-0.506036
C25	C	1.518234	-0.627483	-0.506050
C26	C	1.585569	-0.815673	-0.438981
C27	C	1.585616	-0.892532	-0.439006
C28	C	1.451158	-0.892531	-0.573268
C29	C	1.451118	-0.815674	-0.573247
C30	C	1.518321	-0.777247	-0.506098
C31	C	1.518409	-0.930963	-0.506144
C32	C	1.518460	-1.014296	-0.506172
C33	C	1.518272	-0.693908	-0.506071
C34	C	1.792330	-0.354491	-0.506102
C35	C	1.909106	-0.354497	-0.506109
C36	C	1.518375	-0.354407	-0.780120
C37	C	1.518409	-0.354377	-0.896897
C38	C	1.518436	-0.162525	-0.506161
C39	C	1.518496	-0.080726	-0.506192
C40	C	1.585644	-0.307304	-0.951783
C41	C	1.585662	-0.307272	-1.061507
C42	C	1.451206	-0.401394	-1.061450
C43	C	1.451183	-0.401421	-0.951728
C44	C	1.518279	-0.354495	-0.233119
C45	C	1.518449	-0.354318	-0.116343
H46	H	0.919202	-0.439776	-0.383976
C47	C	1.133937	-0.453195	-0.364722
H48	H	1.085522	-0.481203	-0.324642
H49	H	1.176732	-0.425001	-0.319017
H50	H	1.176742	-0.485291	-0.404833
H51	H	1.396476	-0.439697	-1.106107
H52	H	1.640292	-0.784388	-0.384305
H53	H	1.640377	-0.923816	-0.384355
H54	H	1.396425	-0.439753	-0.907039
H55	H	1.118448	-0.269195	-0.628220
H56	H	0.919401	-0.269209	-0.628231
H57	H	1.396442	-0.923827	-0.627938
H58	H	1.396356	-0.784384	-0.627907
C59	C	1.659575	-0.255549	-0.891472
H60	H	1.699612	-0.227504	-0.939879
H61	H	1.705325	-0.283708	-0.848661
H62	H	1.619389	-0.223490	-0.848681
H63	H	1.640410	-0.268939	-1.106190
