data_functionalizedCrystal
_audit_creation_method	'MofGen! by Chris Wilmer'
_symmetry_space_group_name_H-M	'P1'
_symmetry_Int_Tables_number	1
_symmetry_cell_setting	triclinic
loop_
_symmetry_equiv_pos_as_xyz
  x,y,z
_cell_length_a	19.188930
_cell_length_b	10.268362
_cell_length_c	11.792241
_cell_angle_alpha	89.994572
_cell_angle_beta	83.669098
_cell_angle_gamma	89.981535
loop_
_atom_site_label
_atom_site_type_symbol
_atom_site_fract_x
_atom_site_fract_y
_atom_site_fract_z
O1	O	0.926947	-0.108720	0.141694
O2	O	1.426947	0.391280	0.641694
O3	O	0.723744	-0.108631	0.160769
O4	O	1.223744	0.391369	0.660769
O5	O	0.830277	-0.108668	-0.014013
O6	O	1.330277	0.391332	0.485987
O7	O	0.820415	-0.108682	0.316476
O8	O	1.320415	0.391318	0.816476
O9	O	0.830268	0.107932	-0.014020
O10	O	1.330268	0.607932	0.485980
O11	O	0.723735	0.107970	0.160762
O12	O	1.223735	0.607970	0.660762
O13	O	0.926938	0.107881	0.141687
O14	O	1.426938	0.607881	0.641687
Cu15	Cu	0.825336	0.127703	0.151224
Cu16	Cu	1.325336	0.627703	0.651224
Cu17	Cu	0.825347	-0.128453	0.151232
Cu18	Cu	1.325347	0.371547	0.651232
O19	O	0.820405	0.107919	0.316469
O20	O	1.320405	0.607919	0.816469
C21	C	0.697725	-0.000319	0.160148
C22	C	1.197725	0.499681	0.660148
C23	C	0.620210	-0.000285	0.158293
C24	C	1.120210	0.499715	0.658293
N25	N	0.825333	0.307869	0.151217
N26	N	1.325333	0.807869	0.651217
C27	C	0.829653	-0.000368	-0.056298
C28	C	1.329653	0.499632	0.443702
C29	C	0.827799	-0.000368	-0.182284
C30	C	1.327799	0.499632	0.317716
C31	C	0.575867	-0.000309	0.260849
C32	C	1.075867	0.499691	0.760849
C33	C	0.503033	-0.000324	0.259107
C34	C	1.003033	0.499676	0.759107
C35	C	0.474546	-0.000339	0.154803
C36	C	0.974546	0.499661	0.654803
C37	C	0.518899	-0.000307	0.052234
C38	C	1.018899	0.499693	0.552234
C39	C	0.591731	-0.000280	0.053979
C40	C	1.091731	0.499720	0.553979
N41	N	0.366117	-0.074107	0.075079
N42	N	0.866117	0.425893	0.575079
N43	N	0.296929	-0.074136	0.073428
N44	N	0.796929	0.425864	0.573428
C45	C	0.255107	-0.000419	0.149540
C46	C	0.755107	0.499581	0.649540
N47	N	0.285086	0.073312	0.227382
N48	N	0.785086	0.573312	0.727382
N49	N	0.354280	0.073335	0.229036
N50	N	0.854280	0.573335	0.729036
C51	C	0.395573	-0.000368	0.152900
C52	C	0.895573	0.499632	0.652900
C53	C	0.131789	-0.000457	0.250214
C54	C	0.631789	0.499543	0.750214
C55	C	0.058955	-0.000463	0.248468
C56	C	0.558955	0.499537	0.748468
C57	C	0.074822	-0.000460	0.041591
C58	C	0.574822	0.499540	0.541591
C59	C	0.147655	-0.000440	0.043341
C60	C	0.647655	0.499560	0.543341
C61	C	0.176134	-0.000445	0.147655
C62	C	0.676134	0.499555	0.647655
C63	C	0.952957	-0.000434	0.142309
C64	C	1.452957	0.499566	0.642309
C65	C	1.030472	-0.000477	0.144163
C66	C	1.530472	0.499523	0.644163
N67	N	0.825355	-0.308618	0.151230
N68	N	1.325355	0.191382	0.651230
C69	C	0.825343	0.573539	0.151230
C70	C	1.325343	1.073539	0.651230
C71	C	0.825335	0.425701	0.151226
C72	C	1.325335	0.925701	0.651226
C73	C	0.824389	-0.000389	-0.412945
C74	C	1.324389	0.499611	0.087055
C75	C	0.826283	-0.000378	-0.284588
C76	C	1.326283	0.499622	0.215412
C77	C	0.821029	-0.000385	0.358754
C78	C	1.321029	0.499615	0.858754
C79	C	0.822884	-0.000393	0.484740
C80	C	1.322884	0.499607	0.984740
H81	H	0.599050	-0.000316	0.345790
H82	H	1.099050	0.499684	0.845790
H83	H	0.183760	-0.000427	-0.040172
H84	H	0.683760	0.499573	0.459828
H85	H	0.495700	-0.000338	-0.032691
H86	H	0.995700	0.499662	0.467309
H87	H	0.466922	-0.000340	0.342624
H88	H	0.966922	0.499660	0.842624
H89	H	0.154978	-0.000442	0.335153
H90	H	0.654978	0.499558	0.835153
H91	H	0.627836	-0.000260	-0.029537
H92	H	1.127836	0.499740	0.470463
H93	H	0.022850	-0.000476	0.331985
H94	H	0.522850	0.499524	0.831985
H95	H	0.051628	-0.000553	-0.043335
H96	H	0.551628	0.499447	0.456665
