data_functionalizedCrystal
_audit_creation_method	'MofGen! by Chris Wilmer'
_symmetry_space_group_name_H-M	'P1'
_symmetry_Int_Tables_number	1
_symmetry_cell_setting	triclinic
loop_
_symmetry_equiv_pos_as_xyz
  x,y,z
_cell_length_a	17.699083
_cell_length_b	23.532407
_cell_length_c	16.776229
_cell_angle_alpha	89.988688
_cell_angle_beta	89.998886
_cell_angle_gamma	83.065847
loop_
_atom_site_label
_atom_site_type_symbol
_atom_site_fract_x
_atom_site_fract_y
_atom_site_fract_z
O1	O	1.003713	0.072020	-0.066185
O2	O	1.503713	0.572020	0.433815
O3	O	0.783287	0.081390	-0.066212
O4	O	1.283287	0.581390	0.433788
O5	O	0.900147	-0.006208	-0.066183
O6	O	1.400147	0.493792	0.433817
O7	O	0.886853	0.159617	-0.066214
O8	O	1.386853	0.659617	0.433786
O9	O	0.900132	-0.006213	0.066394
O10	O	1.400132	0.493787	0.566394
O11	O	0.783272	0.081384	0.066365
O12	O	1.283272	0.581384	0.566365
O13	O	1.003698	0.072015	0.066392
O14	O	1.503698	0.572015	0.566392
Zn15	Zn	0.893482	0.076699	0.087428
Zn16	Zn	1.393482	0.576699	0.587428
Zn17	Zn	0.893503	0.076706	-0.087248
Zn18	Zn	1.393503	0.576706	0.412752
O19	O	0.886838	0.159612	0.066363
O20	O	1.386838	0.659612	0.566363
C21	C	0.755084	0.081051	0.000073
C22	C	1.255084	0.581051	0.500073
C23	C	0.671071	0.080044	0.000063
C24	C	1.171071	0.580044	0.500063
C25	C	0.622189	0.131462	0.000054
C26	C	1.122189	0.631462	0.500054
C27	C	0.543251	0.130512	0.000065
C28	C	1.043251	0.630512	0.500065
C29	C	0.513196	0.078144	0.000079
C30	C	1.013196	0.578144	0.500079
C31	C	0.562084	0.026722	0.000090
C32	C	1.062084	0.526722	0.500090
C33	C	0.641021	0.027672	0.000086
C34	C	1.141021	0.527672	0.500086
C35	C	0.243740	0.022888	0.000111
C36	C	0.743740	0.522888	0.500111
C37	C	0.164797	0.021942	0.000113
C38	C	0.664797	0.521942	0.500113
C39	C	0.145970	0.125728	0.000090
C40	C	0.645970	0.625728	0.500090
C41	C	0.224907	0.126678	0.000085
C42	C	0.724907	0.626678	0.500085
C43	C	0.273788	0.075257	0.000101
C44	C	0.773788	0.575257	0.500101
C45	C	0.359382	0.076287	0.000091
C46	C	0.859382	0.576287	0.500091
C47	C	0.427603	0.077113	0.000083
C48	C	0.927603	0.577113	0.500083
C49	C	0.899801	-0.027427	0.000107
C50	C	1.399801	0.472573	0.500107
C51	C	0.898783	-0.090647	0.000113
C52	C	1.398783	0.409353	0.500113
C53	C	0.961554	-0.489570	0.000077
C54	C	1.461554	0.010430	0.500077
C55	C	0.960609	-0.548973	0.000071
C56	C	1.460609	-0.048973	0.500071
O57	O	1.018799	-0.585550	0.000049
O58	O	1.518799	-0.085550	0.500049
N59	N	0.891136	-0.571799	0.000063
N60	N	1.391136	-0.071799	0.500063
C61	C	0.822604	-0.535218	0.000053
C62	C	1.322604	-0.035218	0.500053
O63	O	0.763424	-0.560088	0.000045
O64	O	1.263424	-0.060088	0.500045
C65	C	0.823550	-0.475816	0.000054
C66	C	1.323550	0.024184	0.500054
C67	C	0.893028	-0.452994	0.000070
C68	C	1.393028	0.047006	0.500070
C69	C	1.031026	-0.466747	0.000093
C70	C	1.531026	0.033253	0.500093
C71	C	1.031972	-0.407348	0.000100
C72	C	1.531972	0.092652	0.500100
C73	C	0.963445	-0.370772	0.000093
C74	C	1.463445	0.129228	0.500093
C75	C	0.893973	-0.393595	0.000078
C76	C	1.393973	0.106405	0.500078
C77	C	0.755019	-0.439237	0.000038
C78	C	1.255019	0.060763	0.500038
C79	C	0.755971	-0.379832	0.000038
C80	C	1.255971	0.120168	0.500038
C81	C	0.825448	-0.357009	0.000054
C82	C	1.325448	0.142991	0.500054
C83	C	0.826391	-0.297620	0.000078
C84	C	1.326391	0.202380	0.500078
N85	N	0.895864	-0.274795	0.000086
N86	N	1.395864	0.225205	0.500086
C87	C	0.964391	-0.311371	0.000093
C88	C	1.464391	0.188629	0.500093
C89	C	0.820622	-0.659966	0.000051
C90	C	1.320622	-0.159966	0.500051
C91	C	0.819674	-0.719367	0.000056
C92	C	1.319674	-0.219367	0.500056
C93	C	0.957680	-0.733118	0.000073
C94	C	1.457680	-0.233118	0.500073
C95	C	0.958626	-0.673716	0.000073
C96	C	1.458626	-0.173716	0.500073
C97	C	0.890095	-0.637141	0.000059
C98	C	1.390095	-0.137141	0.500059
C99	C	0.966371	-0.186628	0.000110
C100	C	1.466371	0.313372	0.500110
C101	C	0.967310	-0.127223	0.000121
C102	C	1.467310	0.372777	0.500121
C103	C	0.829305	-0.113478	0.000100
C104	C	1.329305	0.386522	0.500100
C105	C	0.828365	-0.172877	0.000094
C106	C	1.328365	0.327123	0.500094
C107	C	0.896904	-0.209452	0.000096
C108	C	1.396904	0.290548	0.500096
O109	O	0.768232	-0.261008	0.000097
O110	O	1.268232	0.238992	0.500097
O111	O	1.023560	-0.286493	0.000091
O112	O	1.523560	0.213507	0.500091
C113	C	1.031901	0.072353	0.000105
C114	C	1.531901	0.572353	0.500105
C115	C	1.115914	0.073360	0.000110
C116	C	1.615914	0.573360	0.500110
C117	C	0.887184	0.180832	0.000071
C118	C	1.387184	0.680832	0.500071
C119	C	0.888202	0.244052	0.000060
C120	C	1.388202	0.744052	0.500060
N121	N	0.893474	0.076693	0.206639
N122	N	1.393474	0.576693	0.706639
N123	N	0.893517	0.076706	-0.206459
N124	N	1.393517	0.576706	0.293541
C125	C	0.945235	0.037921	0.248369
C126	C	1.445235	0.537921	0.748369
C127	C	0.945239	0.037921	0.331821
C128	C	1.445239	0.537921	0.831821
C129	C	0.893485	0.076696	0.373542
C130	C	1.393485	0.576696	0.873542
C131	C	0.841719	0.115470	0.331806
C132	C	1.341719	0.615470	0.831806
C133	C	0.841712	0.115467	0.248355
C134	C	1.341712	0.615467	0.748355
C135	C	0.841746	0.115481	0.668353
C136	C	1.341746	0.615481	1.168353
C137	C	0.841759	0.115482	0.751810
C138	C	1.341759	0.615482	1.251810
C139	C	0.945274	0.037935	0.751819
C140	C	1.445274	0.537935	1.251819
C141	C	0.945267	0.037932	0.668368
C142	C	1.445267	0.537932	1.168368
C143	C	0.893498	0.076704	0.626640
C144	C	1.393498	0.576704	1.126640
C145	C	0.893493	0.076703	0.536151
C146	C	1.393493	0.576703	1.036151
C147	C	0.893493	0.076699	0.464029
C148	C	1.393493	0.576699	0.964029
H149	H	1.023889	-0.108645	0.000136
H150	H	1.523889	0.391355	0.500136
F151	F	1.000323	-0.003347	0.203974
F152	F	1.500323	0.496653	0.703974
H153	H	0.799612	0.147058	0.785777
H154	H	1.299612	0.647058	1.285777
F155	F	0.756377	-0.074541	0.000093
F156	F	1.256377	0.425459	0.500093
F157	F	1.000352	-0.003335	0.623969
F158	F	1.500352	0.496665	1.123969
F159	F	0.681070	-0.463513	0.000018
F160	F	1.181070	0.036487	0.500018
H161	H	1.015201	-0.655139	0.000086
H162	H	1.515201	-0.155139	0.500086
H163	H	0.763099	-0.737943	0.000057
H164	H	1.263099	-0.237943	0.500057
F165	F	0.693045	-0.027054	0.000098
F166	F	1.193045	0.472946	0.500098
F167	F	1.000369	-0.003332	0.796235
F168	F	1.500369	0.496668	1.296235
H169	H	0.799561	0.147039	0.214380
H170	H	1.299561	0.647039	0.714380
H171	H	1.022182	-0.216401	0.000109
H172	H	1.522182	0.283599	0.500109
H173	H	0.799595	0.147051	0.634384
H174	H	1.299595	0.647051	1.134384
H175	H	0.503454	0.172382	0.000056
H176	H	1.003454	0.672382	0.500056
H177	H	0.537607	-0.015917	0.000113
H178	H	1.037607	0.484083	0.500113
F179	F	0.654168	0.187201	0.000034
F180	F	1.154168	0.687201	0.500034
F181	F	0.256889	0.182416	0.000065
F182	F	0.756889	0.682416	0.500065
H183	H	0.106161	0.167598	0.000081
H184	H	0.606161	0.667598	0.500081
H185	H	1.086833	-0.496522	0.000096
H186	H	1.586833	0.003478	0.500096
H187	H	0.987387	0.006349	0.365797
H188	H	1.487387	0.506349	0.865797
F189	F	1.105920	-0.383067	0.000100
F190	F	1.605920	0.116933	0.500100
H191	H	0.140330	-0.020705	0.000126
H192	H	0.640330	0.479295	0.500126
H193	H	1.013478	-0.762909	0.000076
H194	H	1.513478	-0.262909	0.500076
H195	H	0.283530	-0.018983	0.000124
H196	H	0.783530	0.481017	0.500124
H197	H	0.764811	-0.630189	0.000046
H198	H	1.264811	-0.130189	0.500046
H199	H	0.799576	0.147039	0.365780
H200	H	1.299576	0.647039	0.865780
F201	F	0.683028	-0.340908	0.000021
F202	F	1.183028	0.159092	0.500021
H203	H	0.771791	-0.191460	0.000103
H204	H	1.271791	0.308540	0.500103
