data_functionalizedCrystal
_audit_creation_method	'MofGen! by Chris Wilmer'
_symmetry_space_group_name_H-M	'P1'
_symmetry_Int_Tables_number	1
_symmetry_cell_setting	triclinic
loop_
_symmetry_equiv_pos_as_xyz
  x,y,z
_cell_length_a	21.295418
_cell_length_b	21.295417
_cell_length_c	16.120297
_cell_angle_alpha	92.870657
_cell_angle_beta	87.141709
_cell_angle_gamma	89.956327
loop_
_atom_site_label
_atom_site_type_symbol
_atom_site_fract_x
_atom_site_fract_y
_atom_site_fract_z
Zn1	Zn	0.944272	0.268428	0.471796
Zn2	Zn	1.444272	0.768428	0.971796
Zn3	Zn	0.949527	0.368357	0.332385
Zn4	Zn	1.449527	0.868357	0.832385
Zn5	Zn	0.844344	0.263134	0.332356
Zn6	Zn	1.344344	0.763134	0.832356
Zn7	Zn	0.838974	0.373689	0.471702
Zn8	Zn	1.338974	0.873689	0.971702
O9	O	0.894279	0.318402	0.402060
O10	O	1.394279	0.818402	0.902060
O11	O	1.033057	0.281668	0.453355
O12	O	1.533057	0.781668	0.953355
O13	O	0.940020	0.349952	0.215721
O14	O	1.440020	0.849952	0.715721
O15	O	0.857648	0.175748	0.350881
O16	O	1.357648	0.675748	0.850881
O17	O	1.036917	0.355086	0.350930
O18	O	1.536917	0.855086	0.850930
O19	O	0.931065	0.179637	0.453327
O20	O	1.431065	0.679637	0.953327
O21	O	0.862743	0.272645	0.215699
O22	O	1.362743	0.772645	0.715699
O23	O	0.755544	0.277815	0.350788
O24	O	1.255544	0.777815	0.850788
O25	O	0.848495	0.364172	0.588375
O26	O	1.348495	0.864172	1.088375
O27	O	0.751598	0.359039	0.453165
O28	O	1.251598	0.859039	0.953165
O29	O	0.925858	0.286838	0.588445
O30	O	1.425858	0.786838	1.088445
O31	O	0.934813	0.457153	0.350838
O32	O	1.434813	0.957153	0.850838
O33	O	0.853590	0.461070	0.453193
O34	O	1.353590	0.961070	0.953193
C35	C	0.730731	0.318431	0.401964
C36	C	1.230731	0.818431	0.901964
C37	C	0.660764	0.318460	0.401943
C38	C	1.160764	0.818460	0.901943
C39	C	0.625862	0.360803	0.455170
C40	C	1.125862	0.860803	0.955170
C41	C	0.560118	0.360789	0.455208
C42	C	1.060118	0.860789	0.955208
C43	C	0.529279	0.318438	0.402002
C44	C	1.029279	0.818438	0.902002
C45	C	0.564189	0.276086	0.348771
C46	C	1.064189	0.776086	0.848771
C47	C	0.629931	0.276097	0.348741
C48	C	1.129931	0.776097	0.848741
N49	N	0.428799	0.310727	0.329087
N50	N	0.928799	0.810727	0.829087
N51	N	0.366347	0.310720	0.329118
N52	N	0.866347	0.810720	0.829118
C53	C	0.331201	0.318401	0.402091
C54	C	0.831201	0.818401	0.902091
N55	N	0.360867	0.326101	0.475034
N56	N	0.860867	0.826101	0.975034
N57	N	0.423325	0.326111	0.475002
N58	N	0.923325	0.826111	0.975002
C59	C	0.457993	0.318421	0.402029
C60	C	0.957993	0.818421	0.902029
C61	C	0.225012	0.360732	0.455364
C62	C	0.725012	0.860732	0.955364
C63	C	0.159267	0.360713	0.455403
C64	C	0.659267	0.860713	0.955403
C65	C	0.163339	0.276013	0.348958
C66	C	0.663339	0.776013	0.848958
C67	C	0.229082	0.276028	0.348927
C68	C	0.729082	0.776028	0.848927
C69	C	0.259915	0.318391	0.402129
C70	C	0.759915	0.818391	0.902129
C71	C	0.894205	0.481952	0.402027
C72	C	1.394205	0.981952	0.902027
C73	C	0.894230	0.551921	0.402041
C74	C	1.394230	1.051921	0.902041
C75	C	0.936711	1.049325	0.348929
C76	C	1.436711	1.549325	0.848929
C77	C	0.936688	0.983582	0.348907
C78	C	1.436688	1.483582	0.848907
C79	C	0.894359	0.952764	0.402145
C80	C	1.394359	1.452764	0.902145
C81	C	0.852039	0.987695	0.455395
C82	C	1.352039	1.487695	0.955395
C83	C	0.852059	1.053437	0.455410
C84	C	1.352059	1.553437	0.955410
N85	N	0.886674	0.852307	0.475087
N86	N	1.386674	1.352307	0.975087
N87	N	0.886659	0.789855	0.475071
N88	N	1.386659	1.289855	0.975071
C89	C	0.894297	0.754688	0.402102
C90	C	1.394297	1.254688	0.902102
N91	N	0.901963	0.784332	0.329148
N92	N	1.401963	1.284332	0.829148
N93	N	0.901981	0.846789	0.329166
N94	N	1.401981	1.346789	0.829166
C95	C	0.894333	0.881478	0.402134
C96	C	1.394333	1.381478	0.902134
C97	C	0.936587	0.648479	0.348827
C98	C	1.436587	1.148479	0.848827
C99	C	0.936560	0.582734	0.348803
C100	C	1.436560	1.082734	0.848803
C101	C	0.851914	0.586849	0.455299
C102	C	1.351914	1.086849	0.955299
C103	C	0.851938	0.652592	0.455315
C104	C	1.351938	1.152592	0.955315
C105	C	0.894278	0.683403	0.402080
C106	C	1.394278	1.183403	0.902080
C107	C	1.058466	0.318373	0.402157
C108	C	1.558466	0.818373	0.902157
C109	C	1.128432	0.318360	0.402198
C110	C	1.628432	0.818360	0.902198
C111	C	0.885992	0.326690	0.619504
C112	C	1.385992	0.826690	1.119504
C113	C	0.882460	0.330222	0.712166
C114	C	1.382460	0.830222	1.212166
C115	C	0.894367	1.154214	0.402122
C116	C	1.394367	1.654214	0.902122
C117	C	0.894398	1.084248	0.402175
C118	C	1.394398	1.584248	0.902175
C119	C	0.902570	0.310100	0.185461
C120	C	1.402570	0.810100	0.685461
C121	C	0.906224	0.306391	0.092800
C122	C	1.406224	0.806391	0.592800
C123	C	0.875989	0.336657	0.881821
C124	C	1.375989	0.836657	1.381821
C125	C	0.912693	0.299958	0.923151
C126	C	1.412693	0.799958	1.423151
C127	C	0.909093	0.303538	1.017552
C128	C	1.409093	0.803538	1.517552
C129	C	0.879589	0.333078	0.787411
C130	C	1.379589	0.833078	1.287411
H131	H	0.250117	0.395223	0.498688
H132	H	0.750117	0.895223	0.998688
H133	H	0.817485	0.681026	0.498676
H134	H	1.317485	1.181026	0.998676
Br135	Br	0.794457	0.545031	0.527539
Br136	Br	1.294457	1.045031	1.027539
Br137	Br	0.969590	0.243123	0.863963
Br138	Br	1.469590	0.743123	1.363963
Br139	Br	0.276452	0.218559	0.276685
Br140	Br	0.776452	0.718559	0.776685
H141	H	0.650962	0.395298	0.498492
H142	H	1.150962	0.895298	0.998492
H143	H	0.658348	0.241614	0.305396
H144	H	1.158348	0.741614	0.805396
H145	H	0.138230	0.241526	0.305642
H146	H	0.638230	0.741526	0.805642
Br147	Br	0.512742	0.418259	0.527452
Br148	Br	1.012742	0.918259	1.027452
Br149	Br	0.111899	0.418180	0.527654
Br150	Br	0.611899	0.918180	1.027654
Br151	Br	0.522337	0.218603	0.276570
Br152	Br	1.022337	0.718603	0.776570
Br153	Br	0.994170	1.091138	0.276681
Br154	Br	1.494170	1.591138	0.776681
H155	H	0.971145	0.955143	0.305545
H156	H	1.471145	1.455143	0.805545
Br157	Br	0.794589	0.945873	0.527644
Br158	Br	1.294589	1.445873	1.027644
H159	H	0.817603	1.081871	0.498773
H160	H	1.317603	1.581871	0.998773
Br161	Br	0.994044	0.690298	0.276577
Br162	Br	1.494044	1.190298	0.776577
H163	H	0.841865	0.370763	0.917332
H164	H	1.341865	0.870763	1.417332
H165	H	0.971014	0.554299	0.305438
H166	H	1.471014	1.054299	0.805438
