data_functionalizedCrystal
_audit_creation_method	'MofGen! by Chris Wilmer'
_symmetry_space_group_name_H-M	'P1'
_symmetry_Int_Tables_number	1
_symmetry_cell_setting	triclinic
loop_
_symmetry_equiv_pos_as_xyz
  x,y,z
_cell_length_a	17.639617
_cell_length_b	17.640280
_cell_length_c	17.639477
_cell_angle_alpha	70.346041
_cell_angle_beta	92.133882
_cell_angle_gamma	87.821186
loop_
_atom_site_label
_atom_site_type_symbol
_atom_site_fract_x
_atom_site_fract_y
_atom_site_fract_z
Zn1	Zn	1.065789	0.035952	-0.670043
Zn2	Zn	1.126487	-0.114354	-0.519803
Zn3	Zn	0.976273	-0.014598	-0.509539
Zn4	Zn	0.976253	-0.124480	-0.619472
O5	O	1.036201	-0.054370	-0.579714
O6	O	1.174177	0.041406	-0.675573
O7	O	1.131971	-0.118039	-0.409558
O8	O	0.962753	0.100997	-0.547699
O9	O	1.218771	-0.069023	-0.565192
O10	O	1.028520	0.138136	-0.665620
O11	O	1.021609	-0.044749	-0.402017
O12	O	0.875934	-0.054567	-0.498662
O13	O	0.962720	-0.086280	-0.735064
O14	O	0.875920	-0.135296	-0.579430
O15	O	1.028501	0.031588	-0.772218
O16	O	1.131952	-0.224587	-0.516156
O17	O	1.021577	-0.232026	-0.589382
C18	C	0.849911	-0.101516	-0.532445
C19	C	0.770215	-0.121701	-0.512239
C20	C	0.392004	0.099021	-0.733416
C21	C	0.317126	0.080032	-0.714410
C22	C	0.363579	-0.034815	-0.599353
C23	C	0.438463	-0.015838	-0.618351
C24	C	0.452668	0.051082	-0.685383
C25	C	0.499127	-0.063777	-0.570319
C26	C	0.574003	-0.044799	-0.589314
C27	C	0.588216	0.022119	-0.656341
C28	C	0.527545	0.070060	-0.704378
C29	C	0.484920	-0.130693	-0.503284
C30	C	0.545584	-0.178633	-0.455251
C31	C	0.620462	-0.159658	-0.474249
C32	C	0.634675	-0.092740	-0.541276
C33	C	0.681133	-0.207599	-0.426212
C34	C	0.756010	-0.188621	-0.445207
C35	C	0.709551	-0.073762	-0.560271
C36	C	1.083364	-0.256533	-0.548417
C37	C	1.103601	-0.342998	-0.535071
C38	C	0.882694	-0.646969	-0.681463
C39	C	0.901717	-0.728220	-0.668898
C40	C	1.016685	-0.720378	-0.592762
C41	C	0.997674	-0.639124	-0.605324
C42	C	0.930677	-0.602426	-0.649675
C43	C	1.045657	-0.594581	-0.573536
C44	C	1.026645	-0.513335	-0.586094
C45	C	0.959650	-0.476632	-0.630440
C46	C	0.911666	-0.521180	-0.662232
C47	C	1.112650	-0.631282	-0.529181
C48	C	1.160633	-0.586739	-0.497392
C49	C	1.141624	-0.505490	-0.509955
C50	C	1.074630	-0.468787	-0.554301
C51	C	1.189609	-0.460942	-0.478163
C52	C	1.170597	-0.379696	-0.490720
C53	C	1.055618	-0.387541	-0.566859
C54	C	1.223218	-0.007040	-0.627169
C55	C	1.302913	0.013129	-0.647391
C56	C	0.988838	-0.022837	-0.782663
C57	C	0.968655	-0.009399	-0.869147
C58	C	0.988868	0.148590	-0.611156
C59	C	0.968698	0.235079	-0.624554
C60	C	1.189584	-0.155996	-1.173193
C61	C	1.170607	-0.143363	-1.254457
C62	C	1.055695	-0.067050	-1.246605
C63	C	1.074660	-0.079680	-1.165337
C64	C	1.141606	-0.124153	-1.128638
C65	C	1.026682	-0.047838	-1.120782
C66	C	1.045648	-0.060463	-1.039522
C67	C	1.112591	-0.104932	-1.002818
C68	C	1.160571	-0.136779	-1.047378
C69	C	0.959739	-0.003360	-1.157484
C70	C	0.911761	0.028482	-1.112929
C71	C	0.930724	0.015852	-1.031666
C72	C	0.997667	-0.028616	-0.994962
C73	C	0.882744	0.047699	-0.987106
C74	C	0.901709	0.035073	-0.905846
C75	C	1.016633	-0.041242	-0.913702
C76	C	1.083407	-0.085714	-0.377575
C77	C	1.103678	-0.098897	-0.291160
H78	H	0.649186	0.037572	-0.671803
F79	F	0.252562	0.131065	-0.765536
H80	H	0.539110	0.124550	-0.758965
F81	F	0.348451	-0.106031	-0.528013
F82	F	0.840517	0.075814	-1.151996
H83	H	0.534007	-0.233116	-0.400672
F84	F	0.984451	-0.019719	-1.285672
F85	F	0.407126	0.170240	-0.804764
H86	H	1.001067	-0.357658	-0.602981
F87	F	0.405228	-0.150887	-0.483066
H88	H	0.669555	-0.262080	-0.371630
F89	F	1.260829	-0.203340	-1.134127
H90	H	0.862645	-0.764481	-0.694798
H91	H	1.215180	-0.616630	-0.461280
F92	F	0.939559	0.010081	-1.243970
F93	F	1.260906	-0.500010	-0.430958
F94	F	0.724673	-0.002543	-0.631620
F95	F	0.820577	-0.239648	-0.394090
H96	H	1.071232	-0.750270	-0.556649
H97	H	0.944169	-0.410478	-0.640657
H98	H	0.828143	-0.617086	-0.717585
F99	F	1.221682	-0.177252	-1.301876
F100	F	0.840364	-0.482117	-0.709444
H101	H	1.215090	-0.172984	-1.017499
H102	H	0.828241	0.083915	-1.017000
F103	F	1.132898	-0.717744	-0.515843
H104	H	0.862643	0.061006	-0.869569
H105	H	1.209670	-0.343429	-0.464834
H106	H	1.071152	-0.077447	-0.883823
H107	H	1.128033	-0.115208	-0.936652
