data_functionalizedCrystal
_audit_creation_method	'MofGen! by Chris Wilmer'
_symmetry_space_group_name_H-M	'P1'
_symmetry_Int_Tables_number	1
_symmetry_cell_setting	triclinic
loop_
_symmetry_equiv_pos_as_xyz
  x,y,z
_cell_length_a	13.339070
_cell_length_b	19.188930
_cell_length_c	12.376457
_cell_angle_alpha	101.232575
_cell_angle_beta	75.589755
_cell_angle_gamma	99.387037
loop_
_atom_site_label
_atom_site_type_symbol
_atom_site_fract_x
_atom_site_fract_y
_atom_site_fract_z
O1	O	1.360197	0.340100	-0.094096
O2	O	1.065870	0.294198	-0.094082
O3	O	1.221523	0.217159	-0.094067
O4	O	1.204545	0.417139	-0.094111
O5	O	1.182624	0.236385	0.093941
O6	O	1.026971	0.313424	0.093926
O7	O	1.321298	0.359326	0.093913
Zn8	Zn	1.167958	0.339428	0.123770
Zn9	Zn	1.219210	0.314097	-0.123939
O10	O	1.165645	0.436365	0.093898
C11	C	1.008765	0.296057	-0.000076
C12	C	0.896565	0.272945	-0.000070
C13	C	0.530988	0.452652	-0.000127
C14	C	0.636407	0.474369	-0.000136
C15	C	0.701451	0.424015	-0.000119
C16	C	0.661067	0.351940	-0.000094
C17	C	0.555640	0.330220	-0.000093
C18	C	0.726103	0.301583	-0.000086
C19	C	0.685719	0.229508	-0.000060
C20	C	0.580302	0.207792	-0.000059
C21	C	0.515258	0.258146	-0.000076
C22	C	0.831530	0.323303	-0.000086
C23	C	0.856182	0.200871	-0.000053
C24	C	0.750763	0.179154	-0.000043
C25	C	1.201522	0.200654	-0.000060
C26	C	1.199869	0.122827	-0.000050
C27	C	1.291202	0.095789	-0.000049
C28	C	1.289655	0.022659	-0.000067
C29	C	1.196764	-0.023428	-0.000063
C30	C	1.105420	0.003617	-0.000071
C31	C	1.106972	0.076744	-0.000064
N32	N	1.112522	-0.138794	0.063923
N33	N	1.111052	-0.208261	0.063919
C34	C	1.192081	-0.243757	-0.000086
N35	N	1.274646	-0.207158	-0.064073
N36	N	1.276118	-0.137684	-0.064064
C37	C	1.195070	-0.102723	-0.000071
C38	C	1.281743	-0.350089	-0.000106
C39	C	1.280193	-0.423221	-0.000131
C40	C	1.095953	-0.442261	-0.000124
C41	C	1.097508	-0.369132	-0.000110
C42	C	1.190404	-0.323049	-0.000096
C43	C	1.378403	0.357467	-0.000096
C44	C	1.490606	0.380578	-0.000110
C45	C	1.185646	0.452870	-0.000112
C46	C	1.187301	0.530696	-0.000130
N47	N	1.132988	0.356716	0.292825
N48	N	1.254188	0.296804	-0.292994
C49	C	1.335365	0.256657	0.647829
C50	C	1.359835	0.244556	0.529492
C51	C	1.303125	0.272595	0.470319
C52	C	1.221942	0.312738	0.529496
C53	C	1.197474	0.324845	0.647845
C54	C	1.165235	0.340783	0.470335
C55	C	1.084051	0.380926	0.529511
C56	C	1.059587	0.393031	0.647849
C57	C	1.116297	0.364992	0.707021
C58	C	1.189702	0.328675	0.351986
C59	C	1.051811	0.396863	0.352001
C60	C	1.027341	0.408964	0.470339
H61	H	0.669282	0.533052	-0.000166
N62	N	0.460841	0.506956	-0.000159
H63	H	0.387931	0.482258	-0.000159
H64	H	0.459454	0.544614	0.069529
H65	H	0.429416	0.240467	-0.000068
H66	H	0.547428	0.149102	-0.000051
H67	H	1.023133	-0.347117	-0.000105
N68	N	0.707200	0.101419	-0.000008
H69	H	0.630547	0.095305	-0.000007
H70	H	0.745427	0.071349	-0.069695
H71	H	0.909143	0.159867	-0.000044
N72	N	0.815148	0.447442	-0.000113
H73	H	0.830951	0.435769	0.069593
H74	H	0.859738	0.421504	-0.069843
H75	H	1.364033	0.000640	-0.000070
N76	N	1.391394	0.145491	-0.000036
H77	H	1.449019	0.117262	-0.000038
H78	H	1.410476	0.169128	-0.069730
N79	N	1.378708	-0.452387	-0.000134
H80	H	1.437788	-0.412095	-0.000121
H81	H	1.367647	-0.475197	0.069558
H82	H	0.961240	0.441650	0.518535
H83	H	1.255802	0.295991	0.303815
N84	N	0.990641	0.427112	0.288195
H85	H	1.018457	0.413349	0.204247
H86	H	0.914697	0.407253	0.308901
N87	N	1.005230	-0.046087	-0.000073
H88	H	1.018104	-0.096516	-0.000074
H89	H	0.950854	-0.030342	0.069624
H90	H	0.864399	0.381987	-0.000102
H91	H	1.381537	0.233836	0.696015
N92	N	1.008459	0.105911	-0.000066
H93	H	0.949376	0.065621	-0.000071
H94	H	0.990669	0.142955	0.069636
N95	N	1.381932	-0.300381	-0.000095
H96	H	1.439561	-0.328610	-0.000107
H97	H	1.401009	-0.276740	-0.069786
N98	N	0.995763	-0.491960	-0.000133
H99	H	1.008638	-0.542390	-0.000141
H100	H	0.941386	-0.476219	0.069566
H101	H	1.323053	0.262740	0.373963
H102	H	1.425935	0.211873	0.481314
N103	N	1.089901	0.378045	0.834660
H104	H	1.138144	0.354188	0.863161
H105	H	1.098487	0.431220	0.863061
N106	N	0.972024	0.436324	0.711678
H107	H	0.939805	0.452246	0.656240
H108	H	0.917318	0.405958	0.760791
