data_functionalizedCrystal
_audit_creation_method	'MofGen! by Chris Wilmer'
_symmetry_space_group_name_H-M	'P1'
_symmetry_Int_Tables_number	1
_symmetry_cell_setting	triclinic
loop_
_symmetry_equiv_pos_as_xyz
  x,y,z
_cell_length_a	14.908993
_cell_length_b	17.637651
_cell_length_c	14.909227
_cell_angle_alpha	76.203306
_cell_angle_beta	90.167019
_cell_angle_gamma	105.097198
loop_
_atom_site_label
_atom_site_type_symbol
_atom_site_fract_x
_atom_site_fract_y
_atom_site_fract_z
Zn1	Zn	1.348706	-0.227271	-0.379884
Zn2	Zn	1.848706	0.272729	0.120116
Zn3	Zn	1.305006	-0.370891	-0.198367
Zn4	Zn	1.805006	0.129109	0.301633
Zn5	Zn	1.185870	-0.242882	-0.234815
Zn6	Zn	1.685870	0.257118	0.265185
Zn7	Zn	1.163625	-0.369945	-0.357547
Zn8	Zn	1.663625	0.130055	0.142453
O9	O	1.250802	-0.302747	-0.292653
O10	O	1.750802	0.197253	0.207347
O11	O	1.470225	-0.240186	-0.349899
O12	O	1.970225	0.259814	0.150101
O13	O	1.280224	-0.360839	-0.075873
O14	O	1.780224	0.139161	0.424127
O15	O	1.235068	-0.127530	-0.278661
O16	O	1.735068	0.372470	0.221339
O17	O	1.438119	-0.345702	-0.216539
O18	O	1.938119	0.154298	0.283461
O19	O	1.354703	-0.116061	-0.385242
O20	O	1.854703	0.383939	0.114758
O21	O	1.192695	-0.266791	-0.102651
O22	O	1.692695	0.233209	0.397349
O23	O	1.055603	-0.265874	-0.257002
O24	O	1.555603	0.234126	0.242998
O25	O	1.197155	-0.344090	-0.487839
O26	O	1.697155	0.155910	0.012161
O27	O	1.039260	-0.359226	-0.347173
O28	O	1.539260	0.140774	0.152827
O29	O	1.333133	-0.239268	-0.504250
O30	O	1.833133	0.260732	-0.004250
O31	O	1.258654	-0.484046	-0.194880
O32	O	1.758654	0.015954	0.305120
O33	O	1.154781	-0.483351	-0.311830
O34	O	1.654781	0.016649	0.188170
C35	C	1.014419	-0.314142	-0.303619
C36	C	1.514419	0.185858	0.196381
C37	C	0.913291	-0.319035	-0.308328
C38	C	1.413291	0.180965	0.191672
C39	C	0.740275	-0.230858	-0.223478
C40	C	1.240275	0.269142	0.276522
C41	C	0.645256	-0.235453	-0.227899
C42	C	1.145256	0.264547	0.272101
C43	C	0.628231	-0.332824	-0.321587
C44	C	1.128231	0.167176	0.178413
C45	C	0.723250	-0.328229	-0.317165
C46	C	1.223250	0.171771	0.182835
C47	C	0.779269	-0.277243	-0.268110
C48	C	1.279269	0.222757	0.231890
C49	C	0.874291	-0.272644	-0.263694
C50	C	1.374291	0.227356	0.236306
C51	C	0.857263	-0.370020	-0.357376
C52	C	1.357263	0.129980	0.142624
C53	C	0.762245	-0.374615	-0.361798
C54	C	1.262245	0.125385	0.138202
C55	C	1.199588	-0.513069	-0.246995
C56	C	1.699588	-0.013069	0.253005
C57	C	1.177764	-0.603040	-0.227488
C58	C	1.677764	-0.103040	0.272512
C59	C	1.417208	-0.868788	-0.441100
C60	C	1.917208	-0.368788	0.058900
C61	C	1.396671	-0.953332	-0.422756
C62	C	1.896671	-0.453332	0.077244
C63	C	1.272165	-0.965384	-0.311657
C64	C	1.772165	-0.465384	0.188343
C65	C	1.292694	-0.880840	-0.329988
C66	C	1.792694	-0.380840	0.170012
C67	C	1.365216	-0.832548	-0.394711
C68	C	1.865216	-0.332548	0.105289
C69	C	1.240702	-0.844600	-0.283600
C70	C	1.740702	-0.344600	0.216400
C71	C	1.261227	-0.760063	-0.301933
C72	C	1.761227	-0.260063	0.198067
C73	C	1.333744	-0.711766	-0.366655
C74	C	1.833744	-0.211766	0.133345
C75	C	1.385741	-0.748011	-0.413044
C76	C	1.885741	-0.248011	0.086956
C77	C	1.168176	-0.892893	-0.218882
C78	C	1.668176	-0.392893	0.281118
C79	C	1.116185	-0.856653	-0.172494
C80	C	1.616185	-0.356653	0.327506
C81	C	1.136714	-0.772114	-0.190822
C82	C	1.636714	-0.272114	0.309178
C83	C	1.209231	-0.723817	-0.255544
C84	C	1.709231	-0.223817	0.244456
C85	C	1.084717	-0.735869	-0.144432
C86	C	1.584717	-0.235869	0.355568
C87	C	1.105242	-0.651332	-0.162766
C88	C	1.605242	-0.151332	0.337234
C89	C	1.229756	-0.639280	-0.273877
C90	C	1.729756	-0.139280	0.226123
C91	C	1.488107	-0.291308	-0.281645
C92	C	1.988107	0.208692	0.218355
C93	C	1.589232	-0.286433	-0.276954
C94	C	2.089232	0.213567	0.223046
C95	C	1.267537	-0.289832	-0.529983
C96	C	1.767537	0.210168	-0.029983
C97	C	1.274669	-0.284329	-0.631118
C98	C	1.774669	0.215671	-0.131118
C99	C	1.302241	-0.091601	-0.338509
C100	C	1.802241	0.408399	0.161491
C101	C	1.324162	-0.001624	-0.358050
C102	C	1.824162	0.498376	0.141950
C103	C	1.355509	-0.222003	-0.782209
C104	C	1.855509	0.277997	-0.282209
C105	C	1.348814	-0.227170	-0.687183
C106	C	1.848814	0.272830	-0.187183
C107	C	1.207216	-0.336324	-0.670084
C108	C	1.707216	0.163676	-0.170084
C109	C	1.213911	-0.331157	-0.765110
C110	C	1.713911	0.168843	-0.265110
C111	C	1.288060	-0.273993	-0.821169
C112	C	1.788060	0.226007	-0.321169
C113	C	1.294751	-0.268822	-0.916197
C114	C	1.794751	0.231178	-0.416197
C115	C	1.153157	-0.377979	-0.899096
C116	C	1.653157	0.122021	-0.399096
C117	C	1.146462	-0.383147	-0.804070
C118	C	1.646462	0.116853	-0.304070
C119	C	1.234198	-0.315551	-0.056257
C120	C	1.734198	0.184449	0.443743
C121	C	1.227298	-0.320818	0.044836
C122	C	1.727298	0.179182	0.544836
H123	H	0.919903	-0.231124	-0.223758
H124	H	1.419903	0.268876	0.276242
H125	H	0.716620	-0.416129	-0.401734
H126	H	1.216620	0.083871	0.098266
H127	H	1.213115	-1.004714	-0.258962
H128	H	1.713115	-0.504714	0.241038
H129	H	1.057135	-0.895983	-0.119798
H130	H	1.557135	-0.395983	0.380202
H131	H	1.403738	-0.184835	-0.655466
H132	H	1.903738	0.315165	-0.155466
H133	H	1.439002	-0.982834	-0.460549
H134	H	1.939002	-0.482834	0.039451
H135	H	0.785890	-0.189333	-0.183548
H136	H	1.285890	0.310667	0.316452
H137	H	1.415876	-0.175450	-0.827855
H138	H	1.915876	0.324550	-0.327855
H139	H	1.151460	-0.961728	-0.203966
H140	H	1.651460	-0.461728	0.296034
H141	H	0.582602	-0.374342	-0.361515
H142	H	1.082602	0.125658	0.138485
H143	H	1.146853	-0.382870	-0.624423
H144	H	1.646853	0.117130	-0.124423
H145	H	1.098227	-0.420306	-0.930829
H146	H	1.598227	0.079694	-0.430829
H147	H	0.889023	-0.407786	-0.393725
H148	H	1.389023	0.092214	0.106275
H149	H	0.613512	-0.197680	-0.191556
H150	H	1.113512	0.302320	0.308444
H151	H	1.086095	-0.429690	-0.758414
H152	H	1.586095	0.070310	-0.258414
H153	H	1.025664	-0.775200	-0.091742
H154	H	1.525664	-0.275200	0.408258
H155	H	1.288817	-0.599959	-0.326574
H156	H	1.788817	-0.099959	0.173426
H157	H	1.350455	-0.642930	-0.381580
H158	H	1.850455	-0.142930	0.118420
H159	H	1.476269	-0.829467	-0.493797
H160	H	1.976269	-0.329467	0.006203
H161	H	1.444802	-0.708690	-0.465741
H162	H	1.944802	-0.208690	0.034259
H163	H	1.062904	-0.621825	-0.124992
H164	H	1.562904	-0.121825	0.375008
H165	H	1.355123	-0.222273	-0.961841
H166	H	1.855123	0.277727	-0.461841
