data_functionalizedCrystal
_audit_creation_method	'MofGen! by Chris Wilmer'
_symmetry_space_group_name_H-M	'P1'
_symmetry_Int_Tables_number	1
_symmetry_cell_setting	triclinic
loop_
_symmetry_equiv_pos_as_xyz
  x,y,z
_cell_length_a	25.639239
_cell_length_b	19.121246
_cell_length_c	19.120904
_cell_angle_alpha	90.125749
_cell_angle_beta	92.410104
_cell_angle_gamma	87.528032
loop_
_atom_site_label
_atom_site_type_symbol
_atom_site_fract_x
_atom_site_fract_y
_atom_site_fract_z
Zn1	Zn	-0.188790	-1.054808	-0.442205
Zn2	Zn	0.311210	-0.554808	0.057795
Zn3	Zn	-0.272346	-1.059701	-0.324962
Zn4	Zn	0.227654	-0.559701	0.175038
Zn5	Zn	-0.188478	-0.942574	-0.319972
Zn6	Zn	0.311522	-0.442574	0.180028
Zn7	Zn	-0.279751	-0.937508	-0.437146
Zn8	Zn	0.220249	-0.437508	0.062854
O9	O	-0.232341	-0.998648	-0.381071
O10	O	0.267659	-0.498648	0.118929
O11	O	-0.196905	-1.153565	-0.430858
O12	O	0.303095	-0.653565	0.069142
O13	O	-0.257991	-1.048332	-0.226196
O14	O	0.242009	-0.548332	0.273804
O15	O	-0.115353	-0.957535	-0.336215
O16	O	0.384647	-0.457535	0.163785
O17	O	-0.258293	-1.157160	-0.344720
O18	O	0.241707	-0.657160	0.155280
O19	O	-0.115582	-1.039992	-0.426019
O20	O	0.384418	-0.539992	0.073981
O21	O	-0.196374	-0.962280	-0.222530
O22	O	0.303626	-0.462280	0.277470
O23	O	-0.203555	-0.843794	-0.331309
O24	O	0.296445	-0.343794	0.168691
O25	O	-0.270915	-0.948899	-0.535921
O26	O	0.229085	-0.448899	-0.035921
O27	O	-0.270613	-0.840071	-0.417397
O28	O	0.229387	-0.340071	0.082603
O29	O	-0.204086	-1.035079	-0.539638
O30	O	0.295914	-0.535079	-0.039638
O31	O	-0.346495	-1.043419	-0.339815
O32	O	0.153505	-0.543419	0.160185
O33	O	-0.351936	-0.953644	-0.422236
O34	O	0.148064	-0.453644	0.077764
C35	C	-0.237854	-0.816494	-0.373263
C36	C	0.262146	-0.316494	0.126737
C37	C	-0.240225	-0.738567	-0.369939
C38	C	0.259775	-0.238567	0.130061
C39	C	-0.209433	-0.700083	-0.413293
C40	C	0.290567	-0.200083	0.086707
C41	C	-0.211659	-0.626863	-0.410164
C42	C	0.288341	-0.126863	0.089836
C43	C	-0.244679	-0.592128	-0.363684
C44	C	0.255321	-0.092128	0.136316
C45	C	-0.275473	-0.630618	-0.320325
C46	C	0.224527	-0.130618	0.179675
C47	C	-0.273244	-0.703837	-0.323451
C48	C	0.226756	-0.203837	0.176549
C49	C	-0.253002	-0.371148	-0.351996
C50	C	0.246998	0.128852	0.148004
C51	C	-0.255229	-0.297924	-0.348874
C52	C	0.244771	0.202076	0.151126
C53	C	-0.191414	-0.294174	-0.438713
C54	C	0.308586	0.205826	0.061287
C55	C	-0.189191	-0.367394	-0.441838
C56	C	0.310809	0.132606	0.058162
C57	C	-0.219982	-0.405878	-0.398476
C58	C	0.280018	0.094122	0.101524
C59	C	-0.246956	-0.517285	-0.360486
C60	C	0.253044	-0.017285	0.139514
C61	C	-0.217702	-0.480719	-0.401671
C62	C	0.282298	0.019281	0.098329
C63	C	-0.368186	-0.998531	-0.381034
C64	C	0.131814	-0.498531	0.118966
C65	C	-0.426300	-0.998544	-0.381044
C66	C	0.073700	-0.498544	0.118956
C67	C	-0.783814	-1.045507	-0.338236
C68	C	-0.283814	-0.545507	0.161764
C69	C	-0.838418	-1.045534	-0.338247
C70	C	-0.338418	-0.545534	0.161753
O71	O	-0.864235	-1.085343	-0.301809
O72	O	-0.364235	-0.585343	0.198191
N73	N	-0.868578	-0.998769	-0.381123
N74	N	-0.368578	-0.498769	0.118877
C75	C	-0.844132	-0.951979	-0.423997
C76	C	-0.344132	-0.451979	0.076003
O77	O	-0.874799	-0.912204	-0.460468
O78	O	-0.374799	-0.412204	0.039532
C79	C	-0.789529	-0.951956	-0.423989
C80	C	-0.289529	-0.451956	0.076011
C81	C	-0.759371	-0.998719	-0.381105
C82	C	-0.259371	-0.498719	0.118895
C83	C	-0.753657	-1.092267	-0.295356
C84	C	-0.253657	-0.592267	0.204644
C85	C	-0.699057	-1.092239	-0.295344
C86	C	-0.199057	-0.592239	0.204656
C87	C	-0.674614	-1.045452	-0.338213
C88	C	-0.174614	-0.545452	0.161787
C89	C	-0.704771	-0.998692	-0.381094
C90	C	-0.204771	-0.498692	0.118906
C91	C	-0.765084	-0.905170	-0.466866
C92	C	-0.265084	-0.405170	0.033134
C93	C	-0.710477	-0.905151	-0.466856
C94	C	-0.210477	-0.405151	0.033144
C95	C	-0.680319	-0.951915	-0.423971
C96	C	-0.180319	-0.451915	0.076029
C97	C	-0.625729	-0.951876	-0.423951
C98	C	-0.125729	-0.451876	0.076049
N99	N	-0.595569	-0.998641	-0.381075
N100	N	-0.095569	-0.498641	0.118925
C101	C	-0.620011	-1.045429	-0.338206
C102	C	-0.120011	-0.545429	0.161794
C103	C	-0.958801	-0.952031	-0.424010
C104	C	-0.458801	-0.452031	0.075990
C105	C	-1.013403	-0.952050	-0.424014
C106	C	-0.513403	-0.452050	0.075986
C107	C	-1.007685	-1.045606	-0.338265
C108	C	-0.507685	-0.545606	0.161735
C109	C	-0.953083	-1.045584	-0.338257
C110	C	-0.453083	-0.545584	0.161743
C111	C	-0.928641	-0.998796	-0.381133
C112	C	-0.428641	-0.498796	0.118867
C113	C	-0.505348	-1.045366	-0.338185
C114	C	-0.005348	-0.545366	0.161815
C115	C	-0.450743	-1.045332	-0.338175
C116	C	0.049257	-0.545332	0.161825
C117	C	-0.456465	-0.951779	-0.423927
C118	C	0.043535	-0.451779	0.076073
C119	C	-0.511065	-0.951810	-0.423934
C120	C	-0.011065	-0.451810	0.076066
C121	C	-0.535505	-0.998610	-0.381061
C122	C	-0.035505	-0.498610	0.118939
O123	O	-0.599876	-0.912089	-0.460372
O124	O	-0.099876	-0.412089	0.039628
O125	O	-0.589338	-1.085203	-0.301748
O126	O	-0.089338	-0.585203	0.198252
C127	C	-0.095966	-0.998783	-0.381125
C128	C	0.404034	-0.498783	0.118875
C129	C	-0.037850	-0.998841	-0.381147
C130	C	0.462150	-0.498841	0.118853
C131	C	-0.238361	-0.990878	-0.563928
C132	C	0.261639	-0.490878	-0.063928
C133	C	-0.240927	-0.987567	-0.641850
C134	C	0.259073	-0.487567	-0.141850
C135	C	-0.226805	-0.181513	-0.388904
C136	C	0.273195	0.318487	0.111096
C137	C	-0.224437	-0.259439	-0.392229
C138	C	0.275563	0.240561	0.107771
C139	C	-0.207339	-1.030879	-0.680395
C140	C	0.292661	-0.530879	-0.180395
C141	C	-0.209748	-1.027759	-0.753611
C142	C	0.290252	-0.527759	-0.253611
C143	C	-0.245747	-0.981332	-0.788282
C144	C	0.254253	-0.481332	-0.288282
C145	C	-0.279336	-0.938015	-0.749732
C146	C	0.220664	-0.438015	-0.249732
C147	C	-0.276924	-0.941132	-0.676517
C148	C	0.223076	-0.441132	-0.176517
C149	C	-0.254766	-0.969674	-1.009246
C150	C	0.245234	-0.469674	-0.509246
C151	C	-0.257177	-0.966562	-1.082467
C152	C	0.242823	-0.466562	-0.582467
C153	C	-0.187588	-1.056306	-1.086341
C154	C	0.312412	-0.556306	-0.586341
C155	C	-0.185181	-1.059421	-1.013124
C156	C	0.314819	-0.559421	-0.513124
C157	C	-0.218768	-1.016103	-0.974581
C158	C	0.281232	-0.516103	-0.474581
C159	C	-0.248211	-0.978143	-0.863120
C160	C	0.251789	-0.478143	-0.363120
C161	C	-0.216301	-1.019288	-0.899743
C162	C	0.283699	-0.519288	-0.399743
C163	C	-0.226306	-1.006427	-0.198928
C164	C	0.273694	-0.506427	0.301072
C165	C	-0.223589	-1.009874	-0.121011
C166	C	0.276411	-0.509874	0.378989
H167	H	-0.162304	-0.395670	-0.479689
H168	H	0.337696	0.104330	0.020311
H169	H	-0.308645	-0.900210	-0.777966
H170	H	0.191355	-0.400210	-0.277966
F171	F	-0.290513	-0.923570	-0.968235
F172	F	0.209487	-0.423570	-0.468235
F173	F	-0.295491	-0.917142	-1.119364
F174	F	0.204509	-0.417142	-0.619364
F175	F	-0.543162	-0.902027	-0.469563
F176	F	-0.043162	-0.402027	0.030437
F177	F	-0.151843	-1.102404	-1.127366
F178	F	0.348157	-0.602404	-0.627366
F179	F	-0.178886	-0.585908	-0.456310
F180	F	0.321114	-0.085908	0.043690
F181	F	-0.174290	-0.737044	-0.462768
F182	F	0.325710	-0.237044	0.037232
F183	F	-0.430442	-0.901988	-0.469551
F184	F	0.069558	-0.401988	0.030449
F185	F	-0.158646	-0.253212	-0.484857
F186	F	0.341354	0.246788	0.015143
F187	F	-0.779662	-1.142071	-0.249726
F188	F	-0.279662	-0.642071	0.250274
H189	H	-0.178026	-1.068688	-0.652171
H190	H	0.321974	-0.568688	-0.152171
H191	H	-0.282121	-0.269645	-0.311024
H192	H	0.217879	0.230355	0.188976
F193	F	-0.285764	-0.412096	-0.305834
F194	F	0.214236	0.087904	0.194166
H195	H	-0.938904	-0.913926	-0.458922
H196	H	-0.438904	-0.413926	0.041078
H197	H	-0.302356	-0.602331	-0.282477
H198	H	0.197644	-0.102331	0.217523
H199	H	-0.298318	-0.735170	-0.288147
H200	H	0.201682	-0.235170	0.211853
H201	H	-0.426190	-1.083413	-0.303251
H202	H	0.073810	-0.583413	0.196749
H203	H	-0.304270	-0.905856	-0.645134
H204	H	0.195730	-0.405856	-0.145134
H205	H	-0.190815	-0.509004	-0.439512
H206	H	0.309185	-0.009004	0.060488
F207	F	-0.282099	-0.480312	-0.311021
F208	F	0.217901	0.019688	0.188979
H209	H	-0.789629	-0.867087	-0.501784
H210	H	-0.289629	-0.367087	-0.001784
H211	H	-0.525240	-1.083476	-0.303275
H212	H	-0.025240	-0.583476	0.196725
F213	F	-1.033709	-1.095402	-0.292638
F214	F	-0.533709	-0.595402	0.207362
H215	H	-0.674506	-1.130320	-0.260427
H216	H	-0.174506	-0.630320	0.239573
F217	F	-0.920992	-1.095355	-0.292615
F218	F	-0.420992	-0.595355	0.207385
F219	F	-0.174016	-1.073882	-0.794631
F220	F	0.325984	-0.573882	-0.294631
H221	H	-0.186989	-1.057086	-0.871511
H222	H	0.313011	-0.557086	-0.371511
H223	H	-0.690579	-0.867052	-0.501773
H224	H	-0.190579	-0.367052	-0.001773
F225	F	-0.286524	-0.928735	-0.900026
F226	F	0.213476	-0.428735	-0.400026
H227	H	-1.037953	-0.913964	-0.458928
H228	H	-0.537953	-0.413964	0.041072
H229	H	-0.155868	-1.097230	-0.984901
H230	H	0.344132	-0.597230	-0.484901
