data_functionalizedCrystal
_audit_creation_method	'MofGen! by Chris Wilmer'
_symmetry_space_group_name_H-M	'P1'
_symmetry_Int_Tables_number	1
_symmetry_cell_setting	triclinic
loop_
_symmetry_equiv_pos_as_xyz
  x,y,z
_cell_length_a	12.759401
_cell_length_b	12.759400
_cell_length_c	19.805399
_cell_angle_alpha	89.977881
_cell_angle_beta	89.983375
_cell_angle_gamma	90.012280
loop_
_atom_site_label
_atom_site_type_symbol
_atom_site_fract_x
_atom_site_fract_y
_atom_site_fract_z
Zn1	Zn	1.606235	-0.418315	-0.382692
Zn2	Zn	1.606143	-0.594009	-0.269515
Zn3	Zn	1.430546	-0.418342	-0.269523
Zn4	Zn	1.430530	-0.593950	-0.382667
O5	O	1.518364	-0.506154	-0.326099
O6	O	1.753244	-0.441635	-0.367686
O7	O	1.582818	-0.570742	-0.174799
O8	O	1.453897	-0.271317	-0.284548
O9	O	1.753176	-0.570716	-0.284535
O10	O	1.582974	-0.271298	-0.367694
O11	O	1.453808	-0.441680	-0.174805
O12	O	1.283523	-0.441623	-0.284524
O13	O	1.453869	-0.570616	-0.477387
O14	O	1.283511	-0.570642	-0.367651
O15	O	1.582959	-0.441578	-0.477405
O16	O	1.582803	-0.741022	-0.284511
O17	O	1.453781	-0.740979	-0.367644
C18	C	1.245396	-0.506130	-0.326086
C19	C	1.128620	-0.506145	-0.326097
C20	C	1.518309	-0.779121	-0.326088
C21	C	1.518381	-0.895898	-0.326106
C22	C	1.073733	-0.438876	-0.282892
C23	C	0.964009	-0.438901	-0.282901
C24	C	0.964068	-0.573466	-0.369325
C25	C	1.073790	-0.573445	-0.369312
C26	C	1.128563	-0.371575	-0.239677
C27	C	1.073676	-0.304300	-0.196470
C28	C	0.963952	-0.304325	-0.196478
C29	C	0.909114	-0.371625	-0.239694
C30	C	1.585558	-0.950670	-0.369436
C31	C	1.585607	-1.060394	-0.369452
C32	C	1.451299	-1.060564	-0.282804
C33	C	1.451245	-0.950842	-0.282792
C34	C	1.652694	-0.895726	-0.412750
C35	C	1.719877	-0.950499	-0.456082
C36	C	1.719926	-1.060223	-0.456099
C37	C	1.652792	-1.115174	-0.412783
C38	C	1.792397	-0.506179	-0.326112
C39	C	1.909174	-0.506190	-0.326118
C40	C	1.518423	-0.506088	-0.502642
C41	C	1.518448	-0.506060	-0.577874
C42	C	1.518448	-0.232121	-0.326125
C43	C	1.518483	-0.115344	-0.326136
C44	C	1.585666	-0.438866	-0.613229
C45	C	1.585677	-0.438836	-0.683917
C46	C	1.518474	-0.506005	-0.719250
C47	C	1.451248	-0.573201	-0.683890
C48	C	1.451233	-0.573226	-0.613203
C49	C	1.451307	-0.573103	-0.968963
C50	C	1.451330	-0.573076	-1.039655
C51	C	1.585751	-0.438713	-1.039678
C52	C	1.585736	-0.438738	-0.968991
C53	C	1.518507	-0.505930	-0.933637
C54	C	1.518495	-0.505961	-0.856989
C55	C	1.518491	-0.505980	-0.795897
C56	C	1.518365	-0.506144	-0.150243
C57	C	1.518544	-0.505876	-0.075012
H58	H	1.118331	-0.249514	-0.161281
H59	H	0.819770	-0.371645	-0.239695
H60	H	1.652825	-1.204519	-0.412808
O61	O	1.651201	-0.373544	-1.073992
C62	C	1.755901	-0.396507	-1.056715
H63	H	1.761173	-0.480449	-1.037278
H64	H	1.807819	-0.387443	-1.103207
H65	H	1.783373	-0.340202	-1.015690
H66	H	1.396580	-0.627831	-0.940187
O67	O	1.650862	-0.373423	-0.934600
C68	C	1.591041	-0.305560	-0.893734
H69	H	1.511416	-0.342627	-0.883130
H70	H	1.633824	-0.291479	-0.844033
H71	H	1.579510	-0.227701	-0.920992
H72	H	1.118480	-0.628220	-0.404494
H73	H	1.774530	-0.905751	-0.491353
H74	H	1.774622	-1.104815	-0.491387
O75	O	1.652452	-0.789142	-0.412741
C76	C	1.551736	-0.752537	-0.430084
H77	H	1.491258	-0.815818	-0.418497
H78	H	1.533051	-0.679171	-0.399536
H79	H	1.549457	-0.733020	-0.486242
H80	H	1.396526	-0.627888	-0.712663
H81	H	1.396642	-1.105315	-0.247539
O82	O	1.385954	-0.897792	-0.240641
C83	C	1.326694	-0.969812	-0.202423
H84	H	1.369768	-1.047997	-0.200104
H85	H	1.315508	-0.938156	-0.149088
H86	H	1.246890	-0.981521	-0.227172
H87	H	1.640394	-0.384172	-0.584466
O88	O	1.651076	-0.373535	-0.718156
C89	C	1.710375	-0.314243	-0.671813
H90	H	1.713984	-0.357297	-0.621421
H91	H	1.793161	-0.303043	-0.692246
H92	H	1.671931	-0.234446	-0.664298
O93	O	1.385940	-0.638356	-1.073874
C94	C	1.326615	-0.697685	-1.027513
H95	H	1.322977	-0.654671	-0.977128
H96	H	1.243840	-0.708868	-1.047933
H97	H	1.365053	-0.777488	-1.019990
H98	H	1.396486	-0.627931	-0.584418
H99	H	0.919266	-0.249554	-0.161292
O100	O	1.235147	-0.371644	-0.239556
C101	C	1.271760	-0.398447	-0.174646
H102	H	1.208511	-0.444203	-0.146618
H103	H	1.345170	-0.448817	-0.179426
H104	H	1.291206	-0.323996	-0.145408
O105	O	0.910640	-0.638731	-0.411284
C106	C	0.802027	-0.624341	-0.402020
H107	H	0.787030	-0.543218	-0.379942
H108	H	0.760362	-0.631575	-0.452715
H109	H	0.770859	-0.686590	-0.365911
