data_functionalizedCrystal
_audit_creation_method	'MofGen! by Chris Wilmer'
_symmetry_space_group_name_H-M	'P1'
_symmetry_Int_Tables_number	1
_symmetry_cell_setting	triclinic
loop_
_symmetry_equiv_pos_as_xyz
  x,y,z
_cell_length_a	12.827893
_cell_length_b	13.032721
_cell_length_c	12.827885
_cell_angle_alpha	97.149035
_cell_angle_beta	89.980728
_cell_angle_gamma	97.204267
loop_
_atom_site_label
_atom_site_type_symbol
_atom_site_fract_x
_atom_site_fract_y
_atom_site_fract_z
Zn1	Zn	1.544798	-0.415987	-0.643644
Zn2	Zn	2.044798	0.084013	-0.143644
Zn3	Zn	1.522478	-0.590766	-0.491086
Zn4	Zn	2.022478	-0.090766	0.008914
Zn5	Zn	1.370033	-0.416038	-0.468924
Zn6	Zn	1.870033	0.083962	0.031076
Zn7	Zn	1.347821	-0.590688	-0.665776
Zn8	Zn	1.847821	-0.090688	-0.165776
O9	O	1.446282	-0.503370	-0.567357
O10	O	1.946282	-0.003370	-0.067357
O11	O	1.688072	-0.439183	-0.623419
O12	O	2.188072	0.060817	-0.123419
O13	O	1.502211	-0.567642	-0.341917
O14	O	2.002211	-0.067642	0.158083
O15	O	1.411853	-0.269794	-0.473563
O16	O	1.911853	0.230206	0.026437
O17	O	1.671673	-0.567593	-0.511336
O18	O	2.171673	-0.067593	-0.011336
O19	O	1.540252	-0.269756	-0.601929
O20	O	2.040252	0.230244	-0.101929
O21	O	1.390210	-0.439270	-0.325634
O22	O	1.890210	0.060730	0.174366
O23	O	1.220852	-0.439194	-0.495024
O24	O	1.720852	0.060806	0.004976
O25	O	1.373995	-0.567460	-0.809070
O26	O	1.873995	-0.067460	-0.309070
O27	O	1.204532	-0.567509	-0.639651
O28	O	1.704532	-0.067509	-0.139651
O29	O	1.518714	-0.439108	-0.792809
O30	O	2.018714	0.060892	-0.292809
O31	O	1.480672	-0.736993	-0.532797
O32	O	1.980672	-0.236993	-0.032797
O33	O	1.352352	-0.736936	-0.661141
O34	O	1.852352	-0.236936	-0.161141
C35	C	1.174775	-0.503350	-0.567335
C36	C	1.674775	-0.003350	-0.067335
C37	C	1.058620	-0.503366	-0.567353
C38	C	1.558620	-0.003366	-0.067353
C39	C	0.998775	-0.566960	-0.638834
C40	C	1.498775	-0.066960	-0.138834
C41	C	0.878722	-0.566978	-0.638854
C42	C	1.378722	-0.066978	-0.138854
C43	C	1.411708	-0.774882	-0.601798
C44	C	1.911708	-0.274882	-0.101798
C45	C	1.397013	-0.891037	-0.616567
C46	C	1.897013	-0.391037	-0.116567
C47	C	1.454008	-0.942815	-0.559696
C48	C	1.954008	-0.442815	-0.059696
C49	C	1.438821	-1.062867	-0.574959
C50	C	1.938821	-0.562867	-0.074959
C51	C	1.718850	-0.503391	-0.567381
C52	C	2.218850	-0.003391	-0.067381
C53	C	1.835002	-0.503400	-0.567391
C54	C	2.335002	-0.003400	-0.067391
C55	C	1.446366	-0.503270	-0.839915
C56	C	1.946366	-0.003270	-0.339915
C57	C	1.446402	-0.503227	-0.956063
C58	C	1.946402	-0.003227	-0.456063
C59	C	1.481020	-0.230797	-0.532805
C60	C	1.981020	0.269203	-0.032805
C61	C	1.495823	-0.114643	-0.518081
C62	C	1.995823	0.385357	-0.018081
C63	C	1.518022	-0.439702	-0.999800
C64	C	2.018022	0.060298	-0.499800
C65	C	1.518061	-0.439656	-1.119844
C66	C	2.018061	0.060344	-0.619844
C67	C	1.446269	-0.503394	-0.295851
C68	C	1.946269	-0.003394	0.204149
C69	C	1.446473	-0.503143	-0.179666
C70	C	1.946473	-0.003143	0.320334
H71	H	1.020978	-0.448931	-0.506175
H72	H	1.520978	0.051069	-0.006175
H73	H	1.036418	-0.621387	-0.700019
H74	H	1.536418	-0.121387	-0.200019
H75	H	1.336978	-0.935584	-0.676559
H76	H	1.836978	-0.435584	-0.176559
H77	H	1.579306	-0.385345	-0.948371
H78	H	2.079306	0.114655	-0.448371
H79	H	1.385157	-0.557536	-1.142030
H80	H	1.885157	-0.057536	-0.642030
F81	F	0.811496	-0.638150	-0.718842
F82	F	1.311496	-0.138150	-0.218842
H83	H	1.385108	-0.557572	-1.007490
H84	H	1.885108	-0.057572	-0.507490
F85	F	1.360345	-1.121084	-0.653380
F86	F	1.860345	-0.621084	-0.153380
F87	F	0.902220	-0.432236	-0.487391
F88	F	1.402220	0.067764	0.012609
H89	H	1.514051	-0.898270	-0.499712
H90	H	2.014051	-0.398270	0.000288
F91	F	1.574310	-1.056428	-0.439670
F92	F	2.074310	-0.556428	0.060330
F93	F	1.598213	-0.368572	-1.169044
F94	F	2.098213	0.131428	-0.669044
