data_functionalizedCrystal
_audit_creation_method	'MofGen! by Chris Wilmer'
_symmetry_space_group_name_H-M	'P1'
_symmetry_Int_Tables_number	1
_symmetry_cell_setting	triclinic
loop_
_symmetry_equiv_pos_as_xyz
  x,y,z
_cell_length_a	10.489741
_cell_length_b	12.811457
_cell_length_c	11.892095
_cell_angle_alpha	91.498327
_cell_angle_beta	93.929268
_cell_angle_gamma	84.290239
loop_
_atom_site_label
_atom_site_type_symbol
_atom_site_fract_x
_atom_site_fract_y
_atom_site_fract_z
O1	O	0.175985	1.390523	0.048548
O2	O	0.191984	1.087282	0.017459
O3	O	-0.001593	1.245802	0.033718
O4	O	0.369561	1.232003	0.032290
O5	O	0.014522	1.232585	0.220370
O6	O	0.208099	1.074065	0.204111
O7	O	0.192099	1.377305	0.235200
Zn8	Zn	0.202658	1.223587	0.249291
Zn9	Zn	0.181426	1.241001	0.003369
O10	O	0.385676	1.218786	0.218942
C11	C	0.198651	1.041844	0.106804
C12	C	0.194493	0.926143	0.094942
C13	C	-0.041070	1.238151	0.126936
C14	C	-0.182709	1.235033	0.126615
C15	C	0.204226	0.694318	0.276163
C16	C	0.200319	0.585606	0.265023
C17	C	0.182763	0.600006	0.061524
C18	C	0.186670	0.708718	0.072664
C19	C	0.197403	0.755869	0.179987
C20	C	0.201319	0.864582	0.191125
C21	C	0.183755	0.878981	-0.012373
C22	C	0.179848	0.770270	-0.023512
C23	C	-0.251147	1.134172	0.116266
C24	C	-0.335184	1.175301	0.213180
C25	C	-0.351046	1.188356	0.029158
C26	C	-0.264873	1.276198	0.223609
C27	C	-0.280734	1.289245	0.039503
C28	C	-0.364741	1.330446	0.136447
C29	C	0.425153	1.226437	0.125721
C30	C	0.566791	1.229555	0.126035
C31	C	0.185432	1.422744	0.145853
C32	C	0.189590	1.538446	0.157707
N33	N	0.217147	1.211709	0.417127
N34	N	0.166926	1.252886	-0.164466
C35	C	0.066027	1.335533	0.666475
C36	C	0.076165	1.327238	0.783966
C37	C	0.247553	1.186822	0.769602
C38	C	0.237415	1.195116	0.652111
C39	C	0.146651	1.269475	0.600551
C40	C	0.136520	1.277774	0.483059
C41	C	0.307902	1.137353	0.468696
C42	C	0.318039	1.129059	0.586188
H43	H	0.210067	0.902970	0.278513
H44	H	0.373555	1.083567	0.415008
H45	H	0.212982	0.732707	0.363549
H46	H	-0.227191	1.313323	0.305871
H47	H	-0.388854	1.151177	-0.053029
Br48	Br	-0.239974	1.369503	-0.082896
Br49	Br	-0.446708	1.468782	0.150707
H50	H	0.205881	0.535493	0.343340
H51	H	0.174003	0.561598	-0.025853
H52	H	0.321443	1.126274	0.811596
Br53	Br	0.165231	0.706274	-0.169157
Br54	Br	0.174525	0.962519	-0.142906
Br55	Br	-0.168788	0.995944	0.102239
Br56	Br	-0.375884	1.094993	0.335569
Br57	Br	0.013348	1.378693	0.413087
H58	H	-0.007868	1.396086	0.624495
H59	H	0.010511	1.381028	0.837638
Br60	Br	0.441209	1.028142	0.656167
