data_functionalizedCrystal
_audit_creation_method	'MofGen! by Chris Wilmer'
_symmetry_space_group_name_H-M	'P1'
_symmetry_Int_Tables_number	1
_symmetry_cell_setting	triclinic
loop_
_symmetry_equiv_pos_as_xyz
  x,y,z
_cell_length_a	21.295418
_cell_length_b	12.827893
_cell_length_c	12.827879
_cell_angle_alpha	89.942478
_cell_angle_beta	89.937048
_cell_angle_gamma	90.019326
loop_
_atom_site_label
_atom_site_type_symbol
_atom_site_fract_x
_atom_site_fract_y
_atom_site_fract_z
Zn1	Zn	0.962593	-0.415206	-0.591475
Zn2	Zn	1.295927	-0.081872	-0.258141
Zn3	Zn	1.629260	0.251461	0.075192
Zn4	Zn	0.962510	-0.590082	-0.416749
Zn5	Zn	1.295843	-0.256749	-0.083416
Zn6	Zn	1.629177	0.076584	0.249918
Zn7	Zn	0.857281	-0.415404	-0.416683
Zn8	Zn	1.190615	-0.082071	-0.083350
Zn9	Zn	1.523948	0.251263	0.249983
Zn10	Zn	0.857336	-0.589954	-0.591385
Zn11	Zn	1.190669	-0.256620	-0.258051
Zn12	Zn	1.524002	0.076713	0.075282
O13	O	0.909930	-0.502661	-0.504073
O14	O	1.243263	-0.169328	-0.170740
O15	O	1.576597	0.164005	0.162594
O16	O	1.050672	-0.438374	-0.568362
O17	O	1.384005	-0.105041	-0.235029
O18	O	1.717338	0.228292	0.098305
O19	O	0.948494	-0.567047	-0.270504
O20	O	1.281827	-0.233714	0.062829
O21	O	1.615160	0.099619	0.396163
O22	O	0.871263	-0.269142	-0.439880
O23	O	1.204597	0.064192	-0.106547
O24	O	1.537930	0.397525	0.226787
O25	O	1.050611	-0.566855	-0.439992
O26	O	1.383944	-0.233522	-0.106659
O27	O	1.717277	0.099811	0.226675
O28	O	0.948636	-0.268996	-0.568298
O29	O	1.281969	0.064337	-0.234965
O30	O	1.615302	0.397671	0.098368
O31	O	0.871182	-0.438712	-0.270456
O32	O	1.204516	-0.105379	0.062878
O33	O	1.537849	0.227954	0.396211
O34	O	0.769199	-0.438588	-0.439793
O35	O	1.102532	-0.105254	-0.106459
O36	O	1.435866	0.228079	0.226874
O37	O	0.871356	-0.566636	-0.737633
O38	O	1.204689	-0.233303	-0.404300
O39	O	1.538022	0.100030	-0.070966
O40	O	0.769239	-0.566829	-0.568145
O41	O	1.102572	-0.233495	-0.234812
O42	O	1.435906	0.099838	0.098522
O43	O	0.948688	-0.438250	-0.737699
O44	O	1.282022	-0.104916	-0.404366
O45	O	1.615355	0.228417	-0.071032
O46	O	0.948546	-0.736301	-0.439905
O47	O	1.281880	-0.402968	-0.106571
O48	O	1.615213	-0.069635	0.226762
O49	O	0.871275	-0.736207	-0.568209
O50	O	1.204608	-0.402873	-0.234875
O51	O	1.537942	-0.069540	0.098458
C52	C	0.746378	-0.502717	-0.503953
C53	C	1.079712	-0.169383	-0.170619
C54	C	1.413045	0.163950	0.162714
C55	C	0.676410	-0.502765	-0.503926
C56	C	1.009744	-0.169432	-0.170593
C57	C	1.343077	0.163901	0.162741
C58	C	0.909925	-0.774171	-0.504077
C59	C	1.243258	-0.440838	-0.170744
C60	C	1.576591	-0.107505	0.162590
C61	C	0.909980	-0.890324	-0.504114
C62	C	1.243313	-0.556991	-0.170780
C63	C	1.576647	-0.223658	0.162553
C64	C	0.910037	-0.502407	-0.776644
C65	C	1.243371	-0.169073	-0.443310
C66	C	1.576704	0.164260	-0.109977
C67	C	0.910083	-0.502298	-0.892797
C68	C	1.243416	-0.168965	-0.559464
C69	C	1.576750	0.164369	-0.226130
C70	C	0.643581	-0.569629	-0.570659
C71	C	0.976914	-0.236295	-0.237326
C72	C	1.310248	0.097038	0.096008
C73	C	0.577838	-0.569603	-0.570706
C74	C	0.911172	-0.236270	-0.237373
C75	C	1.244505	0.097064	0.095961
C76	C	0.544928	-0.502725	-0.504001
C77	C	0.878261	-0.169391	-0.170668
C78	C	1.211594	0.163942	0.162666
C79	C	0.577765	-0.435848	-0.437263
C80	C	0.911098	-0.102515	-0.103930
C81	C	1.244432	0.230819	0.229403
C82	C	0.643506	-0.435868	-0.437226
C83	C	0.976840	-0.102535	-0.103892
C84	C	1.310173	0.230798	0.229441
N85	N	0.441631	-0.494623	-0.412599
N86	N	0.774964	-0.161290	-0.079265
N87	N	1.108298	0.172043	0.254068
N88	N	0.379180	-0.494610	-0.412637
N89	N	0.712513	-0.161277	-0.079304
N90	N	1.045846	0.172057	0.254029
C91	C	0.346853	-0.502658	-0.504112
C92	C	0.680186	-0.169325	-0.170779
C93	C	1.013520	0.164009	0.162555
N94	N	0.379337	-0.510740	-0.595548
N95	N	0.712671	-0.177406	-0.262215
N96	N	1.046004	0.155927	0.071118
N97	N	0.441795	-0.510758	-0.595509
N98	N	0.775128	-0.177425	-0.262175
N99	N	1.108461	0.155908	0.071158
C100	C	0.473642	-0.502695	-0.504035
C101	C	0.806976	-0.169361	-0.170702
C102	C	1.140309	0.163972	0.162632
C103	C	0.242738	-0.569497	-0.570902
C104	C	0.576072	-0.236164	-0.237568
C105	C	0.909405	0.097170	0.095765
C106	C	0.176995	-0.569464	-0.570950
C107	C	0.510328	-0.236131	-0.237617
C108	C	0.843661	0.097203	0.095716
C109	C	0.176923	-0.435714	-0.437498
C110	C	0.510256	-0.102381	-0.104165
C111	C	0.843589	0.230952	0.229168
C112	C	0.242665	-0.435742	-0.437459
C113	C	0.575998	-0.102409	-0.104126
C114	C	0.909332	0.230925	0.229208
C115	C	0.275569	-0.502639	-0.504159
C116	C	0.608902	-0.169306	-0.170826
C117	C	0.942236	0.164028	0.162508
C118	C	1.074120	-0.502607	-0.504194
C119	C	1.407454	-0.169274	-0.170861
C120	C	1.740787	0.164060	0.162472
C121	C	1.144089	-0.502584	-0.504246
C122	C	1.477422	-0.169250	-0.170913
C123	C	1.810755	0.164083	0.162421
C124	C	0.909953	-0.230091	-0.504092
C125	C	1.243286	0.103242	-0.170758
C126	C	1.576619	0.436575	0.162575
C127	C	0.909962	-0.113938	-0.504100
C128	C	1.243296	0.219395	-0.170766
C129	C	1.576629	0.552729	0.162567
C130	C	0.871684	-0.062226	-0.440565
C131	C	1.205018	0.271108	-0.107231
C132	C	1.538351	0.604441	0.226102
C133	C	0.871693	0.057825	-0.440571
C134	C	1.205027	0.391158	-0.107238
C135	C	1.538360	0.724491	0.226095
C136	C	0.909859	-0.502840	-0.232563
C137	C	1.243193	-0.169507	0.100771
C138	C	1.576526	0.163827	0.434104
C139	C	0.909936	-0.502654	-0.116410
C140	C	1.243269	-0.169321	0.216923
C141	C	1.576602	0.164013	0.550257
C142	C	0.871520	-0.439346	0.055394
C143	C	1.204854	-0.106013	0.388728
C144	C	1.538187	0.227321	0.722061
C145	C	0.871441	-0.439537	-0.064656
C146	C	1.204774	-0.106203	0.268678
C147	C	1.538107	0.227130	0.602011
H148	H	0.670367	-0.624100	-0.624973
H149	H	1.003700	-0.290767	-0.291640
H150	H	1.337034	0.042567	0.041693
H151	H	0.670236	-0.381417	-0.382883
H152	H	1.003569	-0.048083	-0.049550
H153	H	1.336902	0.285250	0.283783
F154	F	0.542892	-0.640771	-0.641736
F155	F	0.876225	-0.307438	-0.308402
F156	F	1.209558	0.025896	0.024931
H157	H	0.550965	-0.381393	-0.382954
H158	H	0.884298	-0.048060	-0.049620
H159	H	1.217632	0.285273	0.283713
F160	F	0.952804	-0.055643	-0.575212
F161	F	1.286137	0.277690	-0.241879
F162	F	1.619471	0.611023	0.091454
H163	H	0.838562	-0.385314	0.099915
H164	H	1.171895	-0.051980	0.433249
H165	H	1.505228	0.281353	0.766582
F166	F	0.828289	-0.369084	-0.122887
F167	F	1.161622	-0.035750	0.210446
F168	F	1.494956	0.297583	0.543779
F169	F	0.953158	-0.572936	0.049016
F170	F	1.286491	-0.239602	0.382350
F171	F	1.619824	0.093731	0.715683
F172	F	0.277759	-0.640689	-0.641894
F173	F	0.611093	-0.307355	-0.308560
F174	F	0.944426	0.025978	0.024773
F175	F	0.142055	-0.640628	-0.641987
F176	F	0.475389	-0.307295	-0.308653
F177	F	0.808722	0.026039	0.024680
H178	H	0.150127	-0.381256	-0.383191
H179	H	0.483461	-0.047923	-0.049857
H180	H	0.816794	0.285411	0.283476
F181	F	0.277606	-0.364578	-0.366429
F182	F	0.610939	-0.031245	-0.033095
F183	F	0.944273	0.302088	0.300238
H184	H	0.838904	-0.106829	-0.386168
H185	H	1.172238	0.226504	-0.052835
H186	H	1.505571	0.559837	0.280498
F187	F	0.828861	0.115949	-0.369465
F188	F	1.162194	0.449282	-0.036132
F189	F	1.495527	0.782616	0.297201
F190	F	0.952821	0.051558	-0.575212
F191	F	1.286154	0.384892	-0.241879
F192	F	1.619487	0.718225	0.091455
H193	H	0.942955	-0.556548	-0.071862
H194	H	1.276288	-0.223215	0.261471
H195	H	1.609621	0.110119	0.594804
