data_functionalizedCrystal
_audit_creation_method	'MofGen! by Chris Wilmer'
_symmetry_space_group_name_H-M	'P1'
_symmetry_Int_Tables_number	1
_symmetry_cell_setting	triclinic
loop_
_symmetry_equiv_pos_as_xyz
  x,y,z
_cell_length_a	12.827893
_cell_length_b	13.897447
_cell_length_c	12.827885
_cell_angle_alpha	89.968996
_cell_angle_beta	89.980728
_cell_angle_gamma	90.019691
loop_
_atom_site_label
_atom_site_type_symbol
_atom_site_fract_x
_atom_site_fract_y
_atom_site_fract_z
Zn1	Zn	1.597640	-0.383964	-0.590840
Zn2	Zn	1.597521	-0.545290	-0.416096
Zn3	Zn	1.422881	-0.384012	-0.416113
Zn4	Zn	1.422854	-0.545219	-0.590796
O5	O	1.510224	-0.464621	-0.503462
O6	O	1.743860	-0.405374	-0.567671
O7	O	1.574316	-0.523946	-0.269863
O8	O	1.446124	-0.249024	-0.439317
O9	O	1.743773	-0.523900	-0.439288
O10	O	1.574518	-0.248989	-0.567687
O11	O	1.446009	-0.405455	-0.269875
O12	O	1.276641	-0.405386	-0.439274
O13	O	1.446077	-0.523779	-0.737038
O14	O	1.276621	-0.523825	-0.567613
O15	O	1.574492	-0.405305	-0.737070
O16	O	1.574290	-0.680263	-0.439245
O17	O	1.445963	-0.680210	-0.567597
C18	C	1.238714	-0.464604	-0.503442
C19	C	1.122561	-0.464619	-0.503458
C20	C	1.510139	-0.715236	-0.503437
C21	C	1.510198	-0.822450	-0.503462
C22	C	0.950689	-0.523194	-0.439864
C23	C	1.070739	-0.523179	-0.439846
C24	C	1.510249	-0.909519	-0.503486
C25	C	1.510322	-1.018752	-0.503513
C26	C	1.782794	-0.464640	-0.503482
C27	C	1.898947	-0.464648	-0.503491
C28	C	1.510295	-0.464529	-0.776032
C29	C	1.510325	-0.464489	-0.892185
C30	C	1.510338	-0.213028	-0.503509
C31	C	1.510386	-0.105814	-0.503529
C32	C	1.573876	-0.405853	-0.943986
C33	C	1.573908	-0.405811	-1.064036
C34	C	1.510213	-0.464644	-0.231952
C35	C	1.510385	-0.464412	-0.115799
H36	H	1.115236	-0.573308	-0.385378
H37	H	1.078071	-0.414496	-0.557938
H38	H	0.906110	-0.573324	-0.385399
H39	H	1.628255	-0.355681	-0.899457
H40	H	1.455935	-0.514652	-0.936713
O41	O	1.638719	-0.345947	-1.117333
C42	C	1.624335	-0.359242	-1.225331
H43	H	1.543666	-0.390840	-1.240122
H44	H	1.631424	-0.287011	-1.266899
H45	H	1.686280	-0.410625	-1.256303
O46	O	1.445618	-0.524354	-1.062552
C47	C	1.505133	-0.586643	-0.999432
H48	H	1.584353	-0.552619	-0.983204
H49	H	1.462615	-0.599529	-0.922628
H50	H	1.516554	-0.658147	-1.041420
H51	H	0.943526	-0.414509	-0.557946
