data_functionalizedCrystal
_audit_creation_method	'MofGen! by Chris Wilmer'
_symmetry_space_group_name_H-M	'P1'
_symmetry_Int_Tables_number	1
_symmetry_cell_setting	triclinic
loop_
_symmetry_equiv_pos_as_xyz
  x,y,z
_cell_length_a	12.759401
_cell_length_b	17.077402
_cell_length_c	17.077396
_cell_angle_alpha	90.029784
_cell_angle_beta	89.983593
_cell_angle_gamma	89.976956
loop_
_atom_site_label
_atom_site_type_symbol
_atom_site_fract_x
_atom_site_fract_y
_atom_site_fract_z
Zn1	Zn	1.606174	0.312505	-0.443771
Zn2	Zn	1.606050	0.443780	-0.312502
Zn3	Zn	1.430482	0.312532	-0.312526
Zn4	Zn	1.430439	0.443733	-0.443732
O5	O	1.518286	0.378137	-0.378133
O6	O	1.753178	0.329927	-0.426364
O7	O	1.582726	0.426400	-0.202658
O8	O	1.453858	0.202682	-0.329962
O9	O	1.753087	0.426374	-0.329921
O10	O	1.582938	0.202661	-0.426387
O11	O	1.453738	0.329973	-0.202676
O12	O	1.283456	0.329928	-0.329925
O13	O	1.453785	0.426294	-0.553585
O14	O	1.283424	0.426321	-0.426322
O15	O	1.582897	0.329881	-0.553613
O16	O	1.582685	0.553620	-0.329884
O17	O	1.453665	0.553586	-0.426298
C18	C	1.518185	0.582085	-0.378101
C19	C	1.518238	0.669335	-0.378114
C20	C	1.245319	0.378123	-0.378122
C21	C	1.128542	0.378136	-0.378136
C22	C	1.518350	0.378080	-0.582877
C23	C	1.518377	0.378055	-0.670127
C24	C	1.073691	0.428408	-0.428247
C25	C	0.963967	0.428418	-0.428256
C26	C	0.963955	0.327881	-0.328036
C27	C	1.073677	0.327868	-0.328032
C28	C	1.128557	0.478675	-0.478352
C29	C	1.073706	0.528952	-0.528466
C30	C	0.963982	0.528962	-0.528474
C31	C	0.909109	0.478695	-0.478369
C32	C	1.792320	0.378152	-0.378144
C33	C	1.909096	0.378159	-0.378149
C34	C	1.518417	0.173393	-0.378181
C35	C	1.518472	0.086143	-0.378202
C36	C	1.585487	0.710317	-0.327965
C37	C	1.585538	0.792297	-0.327985
C38	C	1.518334	0.833294	-0.378151
C39	C	1.451082	0.792307	-0.428306
C40	C	1.451037	0.710328	-0.428289
C41	C	1.451179	0.963177	-0.428335
C42	C	1.451223	1.045161	-0.428351
C43	C	1.585681	1.045146	-0.328032
C44	C	1.585636	0.963167	-0.328015
C45	C	1.518382	0.922185	-0.378169
C46	C	1.585608	0.327849	-0.711133
C47	C	1.585620	0.327822	-0.793114
C48	C	1.518407	0.378007	-0.834086
C49	C	1.451169	0.428216	-0.793075
C50	C	1.451152	0.428237	-0.711096
C51	C	1.451211	0.428168	-0.963945
C52	C	1.451229	0.428148	-1.045929
C53	C	1.585680	0.327754	-1.045963
C54	C	1.585663	0.327775	-0.963984
C55	C	1.518426	0.377985	-0.922978
C56	C	1.518283	0.378138	-0.174185
C57	C	1.518460	0.377942	-0.086936
H58	H	1.217900	0.478674	-0.478349
C59	C	1.659415	0.665225	-0.272781
C60	C	1.741841	0.608791	-0.306838
C61	C	1.815775	0.563702	-0.251655
C62	C	1.807283	0.575046	-0.162415
C63	C	1.724854	0.631482	-0.128353
C64	C	1.650920	0.676572	-0.183537
H65	H	1.748130	0.600391	-0.372903
H66	H	1.876795	0.521924	-0.276870
H67	H	1.862014	0.541668	-0.121565
H68	H	1.718565	0.639882	-0.062289
H69	H	1.589901	0.718349	-0.158322
H70	H	1.640299	0.825661	-0.287148
H71	H	1.396443	0.469042	-0.930560
C72	C	1.659673	1.090219	-0.272866
C73	C	1.651162	1.079020	-0.183621
C74	C	1.725150	1.124095	-0.128456
C75	C	1.807649	1.180369	-0.162536
C76	C	1.816164	1.191571	-0.251786
C77	C	1.742176	1.146496	-0.306951
H78	H	1.590087	1.037360	-0.158389
H79	H	1.718846	1.115802	-0.062388
H80	H	1.862420	1.213737	-0.121700
H81	H	1.877238	1.233231	-0.277018
H82	H	1.748480	1.154789	-0.373019
C83	C	1.659595	0.272573	-0.918909
C84	C	1.742040	0.306608	-0.862547
C85	C	1.815969	0.251403	-0.817472
C86	C	1.807452	0.162162	-0.828758
C87	C	1.725003	0.128122	-0.885123
C88	C	1.651074	0.183327	-0.930198
H89	H	1.748348	0.372674	-0.854190
H90	H	1.877004	0.276602	-0.775747
H91	H	1.862179	0.121295	-0.795391
H92	H	1.718695	0.062056	-0.893480
H93	H	1.590040	0.158128	-0.971923
C94	C	1.134061	0.584240	-0.583583
C95	C	1.254750	0.584234	-0.583577
C96	C	1.315102	0.639522	-0.638696
C97	C	1.254764	0.694817	-0.693822
C98	C	1.134068	0.694825	-0.693830
C99	C	1.073716	0.639537	-0.638711
H100	H	1.299422	0.543299	-0.542768
H101	H	1.404450	0.639516	-0.638690
H102	H	1.299440	0.735745	-0.734625
H103	H	1.089396	0.735760	-0.734639
H104	H	0.984368	0.639543	-0.638717
C105	C	0.903643	0.584261	-0.583599
C106	C	0.828255	0.550339	-0.645297
C107	C	0.767918	0.605644	-0.700419
C108	C	0.782968	0.694871	-0.693844
C109	C	0.858359	0.728797	-0.632143
C110	C	0.918696	0.673492	-0.577021
H111	H	0.817111	0.484285	-0.650166
H112	H	0.712108	0.580529	-0.746094
H113	H	0.738303	0.735810	-0.734649
H114	H	0.869503	0.794852	-0.627274
H115	H	0.974505	0.698608	-0.531346
C116	C	1.659559	0.918071	-0.272831
C117	C	1.651062	0.929411	-0.183590
C118	C	1.724989	0.884316	-0.128407
C119	C	1.807413	0.827880	-0.162463
C120	C	1.815913	0.816538	-0.251708
C121	C	1.741986	0.861633	-0.306892
H122	H	1.590044	0.971191	-0.158376
H123	H	1.718696	0.892713	-0.062342
H124	H	1.862138	0.794498	-0.121613
H125	H	1.876931	0.774758	-0.276923
H126	H	1.748279	0.853236	-0.372957
H127	H	1.396519	1.078539	-0.469215
C128	C	1.377155	0.837399	-0.483491
C129	C	1.385655	0.826059	-0.572731
C130	C	1.311723	0.871148	-0.627916
C131	C	1.229291	0.927577	-0.593860
C132	C	1.220787	0.938919	-0.504616
C133	C	1.294719	0.893830	-0.449431
H134	H	1.446680	0.784284	-0.597945
H135	H	1.318019	0.862751	-0.693981
H136	H	1.174562	0.960954	-0.634712
H137	H	1.159762	0.980694	-0.479402
H138	H	1.288423	0.902227	-0.383366
H139	H	0.819764	0.478701	-0.478386
C140	C	1.659545	0.272644	-0.666066
C141	C	1.651027	0.183403	-0.677359
C142	C	1.724963	0.128195	-0.632295
C143	C	1.807417	0.162226	-0.575937
C144	C	1.815939	0.251471	-0.564642
C145	C	1.742003	0.306680	-0.609706
H146	H	1.589986	0.158207	-0.719081
H147	H	1.718654	0.062130	-0.640657
H148	H	1.862149	0.121357	-0.542578
H149	H	1.876980	0.276667	-0.522920
H150	H	1.748311	0.372745	-0.601344
H151	H	0.919268	0.286957	-0.287241
C152	C	1.134027	0.272571	-0.272912
C153	C	1.209493	0.210983	-0.307045
C154	C	1.269847	0.155682	-0.251928
C155	C	1.254736	0.161970	-0.162679
C156	C	1.179267	0.223561	-0.128541
C157	C	1.118913	0.278862	-0.183657
H158	H	1.220682	0.206326	-0.373117
H159	H	1.325714	0.110089	-0.277200
H160	H	1.299413	0.121033	-0.121878
H161	H	1.168078	0.228218	-0.062469
H162	H	1.063046	0.324455	-0.158386
C163	C	1.377332	0.483378	-1.091002
C164	C	1.303395	0.538623	-1.045901
C165	C	1.229517	0.593869	-1.090974
C166	C	1.229575	0.593869	-1.181147
C167	C	1.303514	0.538622	-1.226253
C168	C	1.377393	0.483376	-1.181181
H169	H	1.303349	0.538625	-0.979144
H170	H	1.174782	0.634766	-1.057583
H171	H	1.174886	0.634765	-1.214513
H172	H	1.303560	0.538620	-1.293010
H173	H	1.432127	0.442479	-1.214572
H174	H	1.396277	0.676961	-0.469127
C175	C	1.377239	0.483421	-0.838149
C176	C	1.422751	0.545034	-0.894492
C177	C	1.348827	0.600243	-0.939567
C178	C	1.229390	0.593838	-0.928299
C179	C	1.183871	0.532222	-0.871953
C180	C	1.257796	0.477013	-0.826878
H181	H	1.511171	0.549777	-0.902836
H182	H	1.382523	0.645855	-0.981278
H183	H	1.174666	0.634707	-0.961666
H184	H	1.095451	0.527479	-0.863609
H185	H	1.224100	0.431401	-0.785167
H186	H	1.396418	0.929812	-0.469179
H187	H	1.640369	0.286941	-0.826497
H188	H	1.396395	0.469113	-0.677710
H189	H	1.640425	0.286870	-1.079354
