data_functionalizedCrystal
_audit_creation_method	'MofGen! by Chris Wilmer'
_symmetry_space_group_name_H-M	'P1'
_symmetry_Int_Tables_number	1
_symmetry_cell_setting	triclinic
loop_
_symmetry_equiv_pos_as_xyz
  x,y,z
_cell_length_a	17.077404
_cell_length_b	16.625545
_cell_length_c	17.077396
_cell_angle_alpha	89.971239
_cell_angle_beta	89.982756
_cell_angle_gamma	90.025783
loop_
_atom_site_label
_atom_site_type_symbol
_atom_site_fract_x
_atom_site_fract_y
_atom_site_fract_z
Zn1	Zn	1.200023	-0.320990	-0.443846
Zn2	Zn	1.533356	0.012343	-0.110512
Zn3	Zn	1.866689	0.345677	0.222821
Zn4	Zn	1.199929	-0.455835	-0.312581
Zn5	Zn	1.533262	-0.122501	0.020752
Zn6	Zn	1.866595	0.210832	0.354086
Zn7	Zn	1.068760	-0.321020	-0.312594
Zn8	Zn	1.402093	0.012313	0.020740
Zn9	Zn	1.735426	0.345646	0.354073
Zn10	Zn	1.068716	-0.455785	-0.443805
Zn11	Zn	1.402050	-0.122452	-0.110471
Zn12	Zn	1.735383	0.210882	0.222862
O13	O	1.134357	-0.388408	-0.378206
O14	O	1.467690	-0.055074	-0.044873
O15	O	1.801023	0.278259	0.288460
O16	O	1.309857	-0.338886	-0.426445
O17	O	1.643190	-0.005552	-0.093112
O18	O	1.976524	0.327781	0.240222
O19	O	1.182508	-0.437985	-0.202736
O20	O	1.515841	-0.104652	0.130598
O21	O	1.849174	0.228682	0.463931
O22	O	1.086229	-0.208184	-0.330027
O23	O	1.419563	0.125149	0.003306
O24	O	1.752896	0.458483	0.336640
O25	O	1.309788	-0.437956	-0.330005
O26	O	1.643121	-0.104622	0.003328
O27	O	1.976455	0.228711	0.336661
O28	O	1.182668	-0.208162	-0.426457
O29	O	1.516001	0.125172	-0.093124
O30	O	1.849334	0.458505	0.240209
O31	O	1.086138	-0.338937	-0.202745
O32	O	1.419472	-0.005604	0.130588
O33	O	1.752805	0.327729	0.463922
O34	O	0.958907	-0.338889	-0.329987
O35	O	1.292240	-0.005556	0.003346
O36	O	1.625574	0.327778	0.336679
O37	O	1.086155	-0.437871	-0.553657
O38	O	1.419489	-0.104537	-0.220324
O39	O	1.752822	0.228796	0.113010
O40	O	0.958875	-0.437900	-0.426387
O41	O	1.292208	-0.104567	-0.093054
O42	O	1.625542	0.228767	0.240279
O43	O	1.182626	-0.338837	-0.553687
O44	O	1.515959	-0.005504	-0.220354
O45	O	1.849292	0.327829	0.112979
O46	O	1.182466	-0.568661	-0.329966
O47	O	1.515799	-0.235327	0.003368
O48	O	1.849132	0.098006	0.336701
O49	O	1.086064	-0.568624	-0.426375
O50	O	1.419398	-0.235291	-0.093042
O51	O	1.752731	0.098043	0.240292
C52	C	0.930409	-0.388393	-0.378185
C53	C	1.263742	-0.055060	-0.044851
C54	C	1.597076	0.278274	0.288482
C55	C	0.843159	-0.388406	-0.378194
C56	C	1.176492	-0.055073	-0.044861
C57	C	1.509826	0.278261	0.288473
C58	C	1.134271	-0.597898	-0.378182
C59	C	1.467605	-0.264565	-0.044848
C60	C	1.800938	0.068768	0.288485
C61	C	1.134307	-0.687520	-0.378197
C62	C	1.467640	-0.354186	-0.044864
C63	C	1.800973	-0.020853	0.288469
C64	C	0.802173	-0.440039	-0.428309
C65	C	1.135506	-0.106706	-0.094976
C66	C	1.468840	0.226628	0.238358
C67	C	0.720192	-0.440041	-0.428322
C68	C	1.053526	-0.106707	-0.094988
C69	C	1.386859	0.226626	0.238345
C70	C	0.679200	-0.388413	-0.378214
C71	C	1.012533	-0.055080	-0.044881
C72	C	1.345866	0.278254	0.288452
C73	C	0.720192	-0.336775	-0.328097
C74	C	1.053525	-0.003441	0.005236
C75	C	1.386858	0.329892	0.338569
C76	C	0.802171	-0.336769	-0.328089
C77	C	1.135504	-0.003436	0.005244
C78	C	1.468837	0.329897	0.338577
C79	C	0.549322	-0.336791	-0.328116
C80	C	0.882655	-0.003457	0.005217
C81	C	1.215988	0.329876	0.338551
C82	C	0.467337	-0.336797	-0.328123
C83	C	0.800670	-0.003463	0.005210
C84	C	1.134004	0.329870	0.338544
C85	C	0.467343	-0.440062	-0.428348
C86	C	0.800677	-0.106728	-0.095015
C87	C	1.134010	0.226605	0.238318
C88	C	0.549322	-0.440057	-0.428340
C89	C	0.882656	-0.106723	-0.095007
C90	C	1.215989	0.226610	0.238326
C91	C	0.590309	-0.388419	-0.378222
C92	C	0.923642	-0.055086	-0.044889
C93	C	1.256975	0.278248	0.288445
C94	C	1.134337	-0.760302	-0.378213
C95	C	1.467671	-0.426969	-0.044879
C96	C	1.801004	-0.093635	0.288454
C97	C	1.134383	-0.851610	-0.378230
C98	C	1.467716	-0.518277	-0.044897
C99	C	1.801050	-0.184944	0.288436
C100	C	1.134424	-0.924387	-0.378240
C101	C	1.467757	-0.591054	-0.044907
C102	C	1.801090	-0.257720	0.288427
C103	C	1.134469	-1.015701	-0.378256
C104	C	1.467802	-0.682368	-0.044923
C105	C	1.801135	-0.349034	0.288410
C106	C	1.339101	-0.388423	-0.378228
C107	C	1.672434	-0.055090	-0.044895
C108	C	2.005768	0.278244	0.288438
C109	C	1.426351	-0.388429	-0.378238
C110	C	1.759684	-0.055096	-0.044905
C111	C	2.093017	0.278237	0.288429
C112	C	1.134396	-0.388345	-0.582951
C113	C	1.467730	-0.055012	-0.249617
C114	C	1.801063	0.278322	0.083716
C115	C	1.134413	-0.388319	-0.670200
C116	C	1.467746	-0.054985	-0.336867
C117	C	1.801080	0.278348	-0.003534
C118	C	1.134464	-0.178099	-0.378248
C119	C	1.467797	0.155235	-0.044915
C120	C	1.801130	0.488568	0.288418
C121	C	1.134509	-0.088478	-0.378266
C122	C	1.467843	0.244856	-0.044933
C123	C	1.801176	0.578189	0.288401
C124	C	1.084249	-0.336738	-0.711195
C125	C	1.417582	-0.003405	-0.377862
C126	C	1.750915	0.329928	-0.044528
C127	C	1.084262	-0.336720	-0.793175
C128	C	1.417595	-0.003387	-0.459842
C129	C	1.750928	0.329947	-0.126509
C130	C	1.134443	-0.388278	-0.834160
C131	C	1.467777	-0.054945	-0.500827
C132	C	1.801110	0.278388	-0.167493
C133	C	1.184610	-0.439864	-0.793160
C134	C	1.517943	-0.106531	-0.459826
C135	C	1.851276	0.226802	-0.126493
C136	C	1.184592	-0.439886	-0.711181
C137	C	1.517926	-0.106553	-0.377847
C138	C	1.851259	0.226781	-0.044514
C139	C	1.184644	-0.439814	-0.964030
C140	C	1.517977	-0.106481	-0.630697
C141	C	1.851310	0.226853	-0.297363
C142	C	1.184662	-0.439791	-1.046015
C143	C	1.517996	-0.106458	-0.712681
C144	C	1.851329	0.226875	-0.379348
C145	C	1.084313	-0.336648	-1.046025
C146	C	1.417646	-0.003314	-0.712691
C147	C	1.750980	0.330019	-0.379358
C148	C	1.084296	-0.336670	-0.964046
C149	C	1.417629	-0.003336	-0.630712
C150	C	1.750962	0.329997	-0.297379
C151	C	1.134463	-0.388255	-0.923051
C152	C	1.467797	-0.054921	-0.589718
C153	C	1.801130	0.278412	-0.256384
C154	C	1.134363	-0.388412	-0.174258
C155	C	1.467696	-0.055078	0.159075
C156	C	1.801029	0.278255	0.492408
C157	C	1.134498	-0.388211	-0.087009
C158	C	1.467831	-0.054878	0.246324
C159	C	1.801165	0.278456	0.579658
H160	H	0.686825	-0.482086	-0.469129
H161	H	1.020158	-0.148753	-0.135796
H162	H	1.353492	0.184581	0.197537
H163	H	0.582690	-0.294734	-0.287311
H164	H	0.916023	0.038599	0.046022
H165	H	1.249357	0.371932	0.379355
H166	H	0.835543	-0.482083	-0.469109
H167	H	1.168877	-0.148750	-0.135776
H168	H	1.502210	0.184584	0.197557
N169	N	0.846375	-0.281074	-0.274038
N170	N	1.179708	0.052260	0.059295
N171	N	1.513041	0.385593	0.392629
H172	H	0.832083	-0.293522	-0.217931
H173	H	1.165416	0.039811	0.115403
H174	H	1.498750	0.373145	0.448736
H175	H	0.904514	-0.288924	-0.281703
H176	H	1.237847	0.044409	0.051631
H177	H	1.571181	0.377743	0.384964
H178	H	0.686809	-0.294735	-0.287303
H179	H	1.020142	0.038598	0.046031
H180	H	1.353475	0.371932	0.379364
H181	H	1.043389	-0.294749	-0.677831
H182	H	1.376723	0.038585	-0.344498
H183	H	1.710056	0.371918	-0.011164
H184	H	0.582697	-0.482101	-0.469138
H185	H	0.916030	-0.148767	-0.135804
H186	H	1.249363	0.184566	0.197529
H187	H	1.043437	-0.294682	-0.930678
H188	H	1.376770	0.038651	-0.597345
H189	H	1.710103	0.371984	-0.264011
H190	H	0.433969	-0.482105	-0.469159
H191	H	0.767302	-0.148771	-0.135826
H192	H	1.100635	0.184562	0.197508
N193	N	0.423120	-0.281114	-0.274081
N194	N	0.756454	0.052219	0.059252
N195	N	1.089787	0.385553	0.392585
H196	H	0.461523	-0.248396	-0.242334
H197	H	0.794856	0.084937	0.090999
H198	H	1.128189	0.418270	0.424332
H199	H	0.389131	-0.243850	-0.306107
H200	H	0.722465	0.089483	0.027227
H201	H	1.055798	0.422817	0.360560
N202	N	1.030153	-0.281090	-0.837392
N203	N	1.363487	0.052243	-0.504058
N204	N	1.696820	0.385577	-0.170725
H205	H	0.998364	-0.248429	-0.798989
H206	H	1.331698	0.084905	-0.465655
H207	H	1.665031	0.418238	-0.132322
H208	H	1.062132	-0.243772	-0.871420
H209	H	1.395465	0.089562	-0.538087
H210	H	1.728799	0.422895	-0.204753
N211	N	1.030210	-0.281000	-1.090234
N212	N	1.363543	0.052333	-0.756901
N213	N	1.696877	0.385667	-0.423567
H214	H	1.037833	-0.288808	-1.148386
H215	H	1.371166	0.044525	-0.815053
H216	H	1.704500	0.377858	-0.481720
H217	H	0.974136	-0.293538	-1.075897
H218	H	1.307469	0.039796	-0.742564
H219	H	1.640802	0.373129	-0.409231
N220	N	1.238786	-0.495398	-1.090223
N221	N	1.572119	-0.162064	-0.756889
N222	N	1.905453	0.171269	-0.423556
H223	H	1.270561	-0.528084	-1.051815
H224	H	1.603894	-0.194751	-0.718481
H225	H	1.937228	0.138583	-0.385148
H226	H	1.206818	-0.532694	-1.124228
H227	H	1.540151	-0.199361	-0.790894
H228	H	1.873484	0.133973	-0.457561
H229	H	1.225464	-0.481848	-0.826536
H230	H	1.558798	-0.148515	-0.493203
H231	H	1.892131	0.184818	-0.159869
N232	N	1.238759	-0.495450	-0.919820
N233	N	1.572093	-0.162117	-0.586487
N234	N	1.905426	0.171217	-0.253153
H235	H	1.275144	-0.462691	-0.885819
H236	H	1.608477	-0.129358	-0.552486
H237	H	1.941811	0.203976	-0.219153
H238	H	1.206782	-0.532816	-0.885839
H239	H	1.540116	-0.199482	-0.552506
H240	H	1.873449	0.133851	-0.219173
N241	N	1.238695	-0.495523	-0.666964
N242	N	1.572028	-0.162190	-0.333630
N243	N	1.905362	0.171143	-0.000297
H244	H	1.270487	-0.528181	-0.705367
H245	H	1.603821	-0.194847	-0.372034
H246	H	1.937154	0.138486	-0.038701
H247	H	1.275033	-0.462718	-0.632959
H248	H	1.608366	-0.129385	-0.299625
H249	H	1.941700	0.203949	0.033708
