data_functionalizedCrystal
_audit_creation_method	'MofGen! by Chris Wilmer'
_symmetry_space_group_name_H-M	'P1'
_symmetry_Int_Tables_number	1
_symmetry_cell_setting	triclinic
loop_
_symmetry_equiv_pos_as_xyz
  x,y,z
_cell_length_a	11.169417
_cell_length_b	15.298852
_cell_length_c	11.169409
_cell_angle_alpha	80.292570
_cell_angle_beta	89.980487
_cell_angle_gamma	80.334719
loop_
_atom_site_label
_atom_site_type_symbol
_atom_site_fract_x
_atom_site_fract_y
_atom_site_fract_z
Zn1	Zn	1.917598	-0.359047	-0.595906
Zn2	Zn	2.417598	0.140953	-0.095906
Zn3	Zn	1.952216	-0.509937	-0.360499
Zn4	Zn	2.452216	-0.009937	0.139501
Zn5	Zn	1.716897	-0.359103	-0.395229
Zn6	Zn	2.216897	0.140897	0.104771
Zn7	Zn	1.751603	-0.509864	-0.561162
Zn8	Zn	2.251603	-0.009864	-0.061162
O9	O	1.834579	-0.434488	-0.478199
O10	O	2.334579	0.065512	0.021801
O11	O	2.090142	-0.379070	-0.564685
O12	O	2.590142	0.120930	-0.064685
O13	O	1.920963	-0.489982	-0.197144
O14	O	2.420963	0.010018	0.302856
O15	O	1.714509	-0.232854	-0.450924
O16	O	2.214509	0.267146	0.049076
O17	O	2.115575	-0.489928	-0.391733
O18	O	2.615575	0.010072	0.108267
O19	O	1.861963	-0.232813	-0.598361
O20	O	2.361963	0.267187	-0.098361
O21	O	1.748076	-0.379165	-0.222660
O22	O	2.248076	0.120835	0.277340
O23	O	1.553550	-0.379095	-0.417234
O24	O	2.053550	0.120905	0.082766
O25	O	1.773660	-0.489804	-0.733733
O26	O	2.273660	0.010196	-0.233733
O27	O	1.579048	-0.489858	-0.539144
O28	O	2.079048	0.010142	-0.039144
O29	O	1.895616	-0.379000	-0.759259
O30	O	2.395616	0.121000	-0.259259
O31	O	1.954616	-0.636169	-0.358043
O32	O	2.454616	-0.136169	0.141957
O33	O	1.807227	-0.636115	-0.505469
O34	O	2.307227	-0.136115	-0.005469
C35	C	1.522751	-0.434476	-0.478188
C36	C	2.022751	0.065524	0.021812
C37	C	1.389355	-0.434492	-0.478207
C38	C	1.889355	0.065508	0.021793
C39	C	1.888476	-0.668875	-0.424243
C40	C	2.388476	-0.168875	0.075757
C41	C	1.911644	-0.769147	-0.401200
C42	C	2.411644	-0.269147	0.098800
C43	C	1.669783	-1.051812	-0.643003
C44	C	2.169783	-0.551812	-0.143003
C45	C	1.648019	-0.957601	-0.664661
C46	C	2.148019	-0.457601	-0.164661
C47	C	1.713923	-0.910483	-0.598797
C48	C	2.213923	-0.410483	-0.098797
C49	C	1.801595	-0.957585	-0.511273
C50	C	2.301595	-0.457585	-0.011273
C51	C	1.823368	-1.051804	-0.489619
C52	C	2.323368	-0.551804	0.010381
C53	C	1.867508	-0.910476	-0.445414
C54	C	2.367508	-0.410476	0.054586
C55	C	1.955181	-0.957577	-0.357889
C56	C	2.455181	-0.457577	0.142111
C57	C	1.976949	-1.051788	-0.336239
C58	C	2.476949	-0.551788	0.163761
C59	C	1.911045	-1.098906	-0.402102
C60	C	2.411045	-0.598906	0.097898
C61	C	1.845735	-0.816256	-0.467067
C62	C	2.345735	-0.316256	0.032933
C63	C	1.999320	-0.816249	-0.313684
C64	C	2.499320	-0.316249	0.186316
C65	C	2.021084	-0.910459	-0.292026
C66	C	2.521084	-0.410459	0.207974
C67	C	2.147624	-0.434501	-0.478211
C68	C	2.647624	0.065499	0.021789
C69	C	2.281025	-0.434506	-0.478215
C70	C	2.781025	0.065494	0.021785
C71	C	1.834648	-0.434388	-0.791265
C72	C	2.334648	0.065612	-0.291265
C73	C	1.834677	-0.434345	-0.924675
C74	C	2.334677	0.065655	-0.424675
C75	C	1.780503	-0.199185	-0.532392
C76	C	2.280503	0.300815	-0.032392
C77	C	1.757459	-0.098913	-0.555486
C78	C	2.257459	0.401087	-0.055486
C79	C	1.834564	-0.434522	-0.166366
C80	C	2.334564	0.065478	0.333634
C81	C	1.834708	-0.434311	-0.033016
C82	C	2.334708	0.065689	0.466984
H83	H	1.774352	-0.777914	-0.538331
H84	H	2.274352	-0.277914	-0.038331
H85	H	2.048346	-1.090135	-0.264979
H86	H	2.548346	-0.590135	0.235021
H87	H	2.092469	-0.948822	-0.220763
H88	H	2.592469	-0.448822	0.279237
Cl89	Cl	1.586955	-1.111050	-0.725803
Cl90	Cl	2.086955	-0.611050	-0.225803
Cl91	Cl	1.686669	-0.792045	-0.626136
Cl92	Cl	2.186669	-0.292045	-0.126136
Cl93	Cl	1.537810	-0.898395	-0.774689
Cl94	Cl	2.037810	-0.398395	-0.274689
Cl95	Cl	2.082180	-0.757021	-0.230883
Cl96	Cl	2.582180	-0.257021	0.269117
H97	H	1.928753	-1.175620	-0.384466
H98	H	2.428753	-0.675620	0.115534
