data_functionalizedCrystal
_audit_creation_method	'MofGen! by Chris Wilmer'
_symmetry_space_group_name_H-M	'P1'
_symmetry_Int_Tables_number	1
_symmetry_cell_setting	triclinic
loop_
_symmetry_equiv_pos_as_xyz
  x,y,z
_cell_length_a	18.215407
_cell_length_b	13.897448
_cell_length_c	18.215399
_cell_angle_alpha	89.973672
_cell_angle_beta	89.980167
_cell_angle_gamma	90.018140
loop_
_atom_site_label
_atom_site_type_symbol
_atom_site_fract_x
_atom_site_fract_y
_atom_site_fract_z
Zn1	Zn	1.125109	-0.384013	-0.416124
Zn2	Zn	1.125033	-0.545323	-0.293061
Zn3	Zn	1.002041	-0.384045	-0.293072
Zn4	Zn	1.002023	-0.545269	-0.416086
O5	O	1.063551	-0.464663	-0.354586
O6	O	1.228083	-0.405421	-0.399811
O7	O	1.108693	-0.523965	-0.190078
O8	O	1.018406	-0.249059	-0.309415
O9	O	1.228027	-0.523934	-0.309398
O10	O	1.108823	-0.249036	-0.399821
O11	O	1.018332	-0.405474	-0.190086
O12	O	0.899055	-0.405422	-0.309378
O13	O	1.018374	-0.523843	-0.519076
O14	O	0.899041	-0.523873	-0.399757
O15	O	1.108805	-0.405369	-0.519103
O16	O	1.108675	-0.680297	-0.309361
O17	O	1.018300	-0.680258	-0.399747
C18	C	0.872345	-0.464646	-0.354565
C19	C	0.790546	-0.464662	-0.354573
C20	C	0.602364	-0.526437	-0.401574
C21	C	0.525506	-0.526440	-0.401583
C22	C	0.525490	-0.402906	-0.307614
C23	C	0.602348	-0.402899	-0.307609
C24	C	0.640783	-0.464670	-0.354588
C25	C	0.487067	-0.464680	-0.354602
C26	C	0.403733	-0.464683	-0.354612
C27	C	0.724122	-0.464666	-0.354579
C28	C	1.063498	-0.715277	-0.354565
C29	C	1.063542	-0.822491	-0.354580
C30	C	1.063619	-1.018786	-0.354626
C31	C	1.063574	-0.909553	-0.354603
C32	C	1.255504	-0.464680	-0.354607
C33	C	1.337303	-0.464687	-0.354617
C34	C	1.063596	-0.464596	-0.546539
C35	C	1.063615	-0.464568	-0.628338
C36	C	1.063625	-0.213070	-0.354623
C37	C	1.063657	-0.105856	-0.354639
C38	C	1.110720	-0.402821	-0.816547
C39	C	1.110728	-0.402792	-0.893406
C40	C	1.016563	-0.526166	-0.893366
C41	C	1.016551	-0.526188	-0.816509
C42	C	1.063634	-0.464517	-0.778101
C43	C	1.063654	-0.464466	-0.931818
C44	C	1.063663	-0.464436	-1.015151
C45	C	1.063624	-0.464546	-0.694762
C46	C	1.063549	-0.464659	-0.163380
C47	C	1.063672	-0.464416	-0.081581
H48	H	0.494187	-0.352616	-0.269364
H49	H	0.633656	-0.576732	-0.439829
H50	H	1.149055	-0.352601	-0.785279
H51	H	1.149069	-0.352551	-0.924706
C52	C	0.644026	-0.335954	-0.256468
C53	C	0.625315	-0.356855	-0.183625
C54	C	0.663702	-0.295214	-0.136499
H55	H	0.631479	-0.271127	-0.267225
H56	H	0.695311	-0.344803	-0.263146
H57	H	0.574042	-0.347997	-0.176950
H58	H	0.637863	-0.421670	-0.172845
H59	H	0.714987	-0.304064	-0.143177
H60	H	0.651152	-0.230392	-0.147263
H61	H	0.651017	-0.309393	-0.087070
C62	C	0.965546	-0.593234	-0.774667
C63	C	1.007193	-0.655054	-0.730524
C64	C	0.960233	-0.716815	-0.691961
H65	H	0.937494	-0.630057	-0.808462
H66	H	0.933499	-0.556366	-0.744643
H67	H	1.039227	-0.691919	-0.760545
H68	H	1.035243	-0.618258	-0.696715
H69	H	0.928185	-0.679947	-0.661938
H70	H	0.932182	-0.753631	-0.725762
H71	H	0.988482	-0.758761	-0.662001
H72	H	0.978232	-0.576378	-0.924647
H73	H	0.494229	-0.576735	-0.439845
