data_functionalizedCrystal
_audit_creation_method	'MofGen! by Chris Wilmer'
_symmetry_space_group_name_H-M	'P1'
_symmetry_Int_Tables_number	1
_symmetry_cell_setting	triclinic
loop_
_symmetry_equiv_pos_as_xyz
  x,y,z
_cell_length_a	24.447405
_cell_length_b	24.446649
_cell_length_c	24.443239
_cell_angle_alpha	60.006064
_cell_angle_beta	60.011844
_cell_angle_gamma	59.992812
loop_
_atom_site_label
_atom_site_type_symbol
_atom_site_fract_x
_atom_site_fract_y
_atom_site_fract_z
O1	O	0.075907	-0.799232	0.668277
O2	O	0.028634	-0.622262	0.538455
O3	O	0.140702	-0.734230	0.538349
O4	O	-0.036160	-0.687265	0.668384
O5	O	0.177886	-0.697056	0.575424
O6	O	0.065818	-0.585088	0.575530
O7	O	0.113091	-0.762059	0.705353
Cu8	Cu	0.092850	-0.670179	0.643827
Cu9	Cu	0.048876	-0.714142	0.599981
O10	O	0.001024	-0.650091	0.705459
N11	N	0.123780	-0.639263	0.674669
N12	N	0.017951	-0.745064	0.569139
C13	C	0.170236	-0.489965	0.721065
C14	C	0.170249	-0.592837	0.721058
C15	C	0.195989	-0.567121	0.746758
C16	C	0.308182	-0.547773	0.687664
C17	C	0.378316	-0.571143	0.664253
C18	C	0.378353	-0.684626	0.707525
C19	C	0.308220	-0.661254	0.730938
C20	C	0.187125	-0.454882	0.652117
C21	C	0.163710	-0.384741	0.628763
C22	C	0.106523	-0.384772	0.743308
C23	C	0.129938	-0.454913	0.766662
C24	C	0.101291	-0.575906	0.738041
C25	C	0.077897	-0.599283	0.714670
C26	C	0.192412	-0.656523	0.657348
C27	C	0.215809	-0.633146	0.680711
C28	C	0.101393	-0.575928	0.859014
C29	C	0.078071	-0.599328	0.929152
C30	C	0.192636	-0.656582	0.929078
C31	C	0.215955	-0.633184	0.858938
C32	C	0.170332	-0.592855	0.823908
C33	C	0.273137	-0.592827	0.721004
C34	C	-0.131205	-0.791294	0.522327
C35	C	-0.028388	-0.791420	0.522551
C36	C	-0.054056	-0.817099	0.496741
C37	C	-0.073479	-0.929255	0.555734
C38	C	-0.050156	-0.999396	0.579142
C39	C	0.063326	-0.999525	0.536064
C40	C	0.040001	-0.929386	0.512654
C41	C	-0.166365	-0.808188	0.591256
C42	C	-0.236499	-0.784726	0.614512
C43	C	-0.236309	-0.727482	0.499907
C44	C	-0.166175	-0.750944	0.476651
C45	C	-0.045285	-0.722468	0.505590
C46	C	-0.021951	-0.699130	0.529061
C47	C	0.035176	-0.813691	0.586439
C48	C	0.011842	-0.837031	0.562976
C49	C	-0.045097	-0.722476	0.384488
C50	C	-0.021613	-0.699140	0.314350
C51	C	0.035607	-0.813706	0.314419
C52	C	0.012124	-0.837041	0.384558
C53	C	-0.028229	-0.791425	0.419591
C54	C	-0.028402	-0.894253	0.522492
N55	N	0.412405	-0.639229	0.674505
O56	O	0.626552	-0.645384	0.514503
O57	O	0.626802	-0.775625	0.691288
O58	O	0.626698	-0.775326	0.579168
O59	O	0.626656	-0.645683	0.626623
O60	O	0.515277	-0.738265	0.616407
O61	O	0.515382	-0.738564	0.728527
O62	O	0.515131	-0.608323	0.551742
Cu63	Cu	0.505083	-0.670059	0.643535
Cu64	Cu	0.636850	-0.713889	0.599495
O65	O	0.515236	-0.608622	0.663862
N66	N	0.729529	-0.744719	0.568518
N67	N	0.123755	-0.350686	0.674680
O68	O	-0.036153	-0.136410	0.668391
O69	O	0.140633	-0.136380	0.538141
O70	O	0.028472	-0.136412	0.538488
O71	O	0.076007	-0.136377	0.668044
O72	O	0.065663	-0.247842	0.575621
O73	O	0.177823	-0.247810	0.575274
O74	O	0.001037	-0.247840	0.705524
Cu75	Cu	0.092826	-0.258000	0.643789
Cu76	Cu	0.048844	-0.126220	0.599875
O77	O	0.113198	-0.247808	0.705177
N78	N	0.017907	-0.033534	0.568986
N79	N	0.124013	-0.639306	0.963182
O80	O	0.117754	-0.799195	1.177439
O81	O	-0.012458	-0.622342	1.177485
O82	O	-0.012155	-0.734480	1.177444
O83	O	0.117450	-0.687057	1.177480
O84	O	0.024954	-0.697317	1.066020
O85	O	0.024650	-0.585179	1.066061
O86	O	0.154862	-0.762032	1.066014
Cu87	Cu	0.093145	-0.670212	1.055863
Cu88	Cu	0.049259	-0.714162	1.187636
O89	O	0.154559	-0.649894	1.066055
N90	N	0.018389	-0.745075	1.280318
C91	C	0.042795	-0.581375	0.539107
C92	C	0.181576	-0.720034	0.538975
C93	C	0.098930	-0.802946	0.704700
C94	C	-0.039851	-0.664287	0.704832
C95	C	0.571122	-0.775030	0.732180
C96	C	0.570995	-0.774660	0.593332
C97	C	0.570808	-0.608917	0.510851
C98	C	0.570939	-0.609288	0.649698
C99	C	0.181453	-0.191954	0.538725
C100	C	0.042602	-0.192131	0.539201
C101	C	-0.039829	-0.192128	0.704893
C102	C	0.099069	-0.192090	0.704464
C103	C	-0.011836	-0.581480	1.121779
C104	C	-0.011453	-0.720342	1.121706
C105	C	0.154240	-0.802894	1.121720
C106	C	0.153865	-0.664024	1.121769
H107	H	0.021932	-0.585534	0.957726
H108	H	-0.052152	-0.730472	1.121651
H109	H	-0.090650	-0.654278	0.745664
H110	H	0.109248	-0.192079	0.745165
H111	H	0.032420	-0.192135	0.498498
O112	O	-0.100448	-0.192009	0.753617
C113	C	-0.150978	-0.134312	0.730716
H114	H	-0.128165	-0.093978	0.688983
H115	H	-0.190949	-0.114932	0.773906
H116	H	-0.174680	-0.147371	0.710742
H117	H	-0.052716	-0.530687	1.121793
O118	O	0.571043	-0.823333	0.581324
C119	C	0.571115	-0.881160	0.638841
H120	H	0.592241	-0.880578	0.670812
H121	H	0.603480	-0.927662	0.623106
H122	H	0.517684	-0.882001	0.669116
H123	H	0.570727	-0.568026	0.460082
O124	O	0.202931	-0.863533	1.121731
C125	C	0.178824	-0.905216	1.121692
H126	H	0.121758	-0.887069	1.142792
H127	H	0.199379	-0.958892	1.154026
H128	H	0.195840	-0.903392	1.068228
H129	H	0.194582	-0.653876	1.121771
H130	H	0.064236	-0.543084	0.830495
O131	O	0.570893	-0.560764	0.661928
C132	C	0.570990	-0.585180	0.727763
H133	H	0.549950	-0.628214	0.759465
H134	H	0.538635	-0.543233	0.750330
H135	H	0.624461	-0.603836	0.726729
O136	O	0.110981	-0.863542	0.753407
C137	C	0.103515	-0.854803	0.809872
H138	H	0.110822	-0.805703	0.793778
H139	H	0.142504	-0.898238	0.833701
H140	H	0.051182	-0.853402	0.847798
H141	H	0.229515	-0.689349	0.624505
H142	H	0.232119	-0.191636	0.497733
H143	H	0.571186	-0.815915	0.782955
O144	O	0.237046	-0.695762	0.962997
C145	C	0.302894	-0.705663	0.916968
H146	H	0.302726	-0.697821	0.866984
H147	H	0.336228	-0.758854	0.937203
H148	H	0.322976	-0.668321	0.909498
O149	O	0.056943	-0.536731	0.777198
C150	C	-0.008936	-0.526811	0.787183
H151	H	-0.008843	-0.534637	0.744903
H152	H	-0.042245	-0.473620	0.787574
H153	H	-0.028992	-0.564154	0.837146
O154	O	0.282912	-0.649512	0.824764
C155	C	0.299830	-0.590574	0.784207
H156	H	0.253589	-0.546504	0.773731
H157	H	0.340474	-0.596836	0.734872
H158	H	0.319106	-0.580723	0.811221
O159	O	0.030822	-0.520702	0.490477
C160	C	0.076797	-0.490946	0.472410
H161	H	0.096412	-0.513133	0.515350
H162	H	0.050735	-0.434589	0.461471
H163	H	0.120420	-0.501054	0.425800
O164	O	0.242177	-0.731862	0.490234
C165	C	0.271890	-0.685864	0.472205
H166	H	0.231293	-0.639510	0.485703
H167	H	0.299972	-0.670753	0.415976
H168	H	0.308430	-0.710132	0.500356
H169	H	0.271959	-0.646925	0.666876
O170	O	0.010929	-0.582960	0.731189
C171	C	-0.005983	-0.641903	0.766504
H172	H	0.040245	-0.685963	0.753822
H173	H	-0.046674	-0.635634	0.751604
H174	H	-0.025195	-0.651773	0.822640
H175	H	0.279688	-0.697946	0.758086
H176	H	0.406920	-0.740344	0.715602
H177	H	0.406848	-0.534453	0.637104
H178	H	0.279622	-0.492055	0.679573
H179	H	0.177459	-0.356175	0.572617
O180	O	0.226167	-0.488905	0.607802
C181	C	0.190714	-0.471753	0.567274
H182	H	0.134610	-0.452485	0.594386
H183	H	0.203258	-0.517877	0.556667
H184	H	0.205605	-0.431029	0.517997
O185	O	0.067368	-0.350821	0.787690
C186	C	0.057508	-0.396828	0.853556
H187	H	0.065351	-0.446827	0.853431
H188	H	0.004332	-0.376578	0.886885
H189	H	0.094868	-0.404280	0.873615
H190	H	0.116177	-0.483478	0.822809
H191	H	-0.264783	-0.694634	0.462714
H192	H	-0.035357	-0.642993	0.285778
H193	H	0.068452	-0.850855	0.285902
O194	O	-0.084254	-0.678070	0.418414
C195	C	-0.094118	-0.612210	0.372391
H196	H	-0.051785	-0.612392	0.322439
H197	H	-0.094495	-0.578926	0.392683
H198	H	-0.144048	-0.592054	0.364837
O199	O	0.028548	-0.904044	0.418552
C200	C	0.069209	-0.939298	0.372589
H201	H	0.060345	-0.905847	0.322546
H202	H	0.056030	-0.986069	0.392818
H203	H	0.124127	-0.954485	0.365237
H204	H	-0.035712	-0.642984	0.515253
O205	O	-0.084463	-0.678132	0.466428
C206	C	-0.143297	-0.637517	0.501767
H207	H	-0.153134	-0.664581	0.557894
H208	H	-0.187435	-0.626860	0.489118
H209	H	-0.136899	-0.588267	0.486867
H210	H	0.067938	-0.850836	0.619346
O211	O	0.028342	-0.904033	0.579483
C212	C	0.068841	-0.939289	0.620208
H213	H	0.094342	-0.905882	0.611328
H214	H	0.108518	-0.986126	0.607110
H215	H	0.036412	-0.954368	0.675115
H216	H	0.076712	-0.900889	0.485585
H217	H	-0.086862	-1.027893	0.606199
O218	O	0.129799	-1.033555	0.526429
C219	C	0.164584	-0.987620	0.492082
H220	H	0.134049	-0.937604	0.463286
H221	H	0.215184	-1.007937	0.455526
H222	H	0.172649	-0.980174	0.529658
H223	H	-0.137894	-0.841050	0.628449
O224	O	-0.139911	-0.895151	0.565181
C225	C	-0.161262	-0.912278	0.533604
H226	H	-0.116429	-0.931620	0.492224
H227	H	-0.199820	-0.866124	0.511039
H228	H	-0.184802	-0.952939	0.572015
O229	O	-0.270553	-0.801227	0.681496
C230	C	-0.224649	-0.841861	0.716823
H231	H	-0.174627	-0.867404	0.683433
H232	H	-0.244982	-0.881509	0.763600
H233	H	-0.217218	-0.809529	0.732004
H234	H	-0.137547	-0.737181	0.420520
