data_functionalizedCrystal
_audit_creation_method	'MofGen! by Chris Wilmer'
_symmetry_space_group_name_H-M	'P1'
_symmetry_Int_Tables_number	1
_symmetry_cell_setting	triclinic
loop_
_symmetry_equiv_pos_as_xyz
  x,y,z
_cell_length_a	12.759401
_cell_length_b	25.639239
_cell_length_c	12.759393
_cell_angle_alpha	90.037052
_cell_angle_beta	90.018496
_cell_angle_gamma	90.038847
loop_
_atom_site_label
_atom_site_type_symbol
_atom_site_fract_x
_atom_site_fract_y
_atom_site_fract_z
Zn1	Zn	1.606080	-0.208118	0.593941
Zn2	Zn	1.605901	-0.295564	0.418245
Zn3	Zn	1.430382	-0.208145	0.418281
Zn4	Zn	1.430297	-0.295524	0.593886
O5	O	1.518165	-0.251838	0.506088
O6	O	1.753078	-0.219723	0.570643
O7	O	1.582579	-0.283996	0.271228
O8	O	1.453799	-0.134976	0.441621
O9	O	1.752946	-0.283970	0.441559
O10	O	1.582884	-0.134956	0.570678
O11	O	1.453626	-0.219770	0.271255
O12	O	1.283350	-0.219731	0.441567
O13	O	1.453655	-0.283901	0.740914
O14	O	1.283288	-0.283928	0.570584
O15	O	1.582802	-0.219684	0.740955
O16	O	1.582496	-0.368724	0.441505
O17	O	1.453481	-0.368695	0.570549
C18	C	1.245198	-0.251828	0.506074
C19	C	1.128421	-0.251837	0.506093
C20	C	1.073554	-0.285318	0.573160
C21	C	0.963830	-0.285324	0.573172
C22	C	0.963850	-0.218368	0.439039
C23	C	1.073572	-0.218359	0.439033
C24	C	1.073542	-0.323976	0.650598
C25	C	0.963818	-0.323983	0.650609
C26	C	1.517989	-0.387680	0.506040
C27	C	1.518009	-0.445795	0.506055
C28	C	1.585519	-0.806160	0.439010
C29	C	1.585560	-0.860765	0.439024
O30	O	1.642775	-0.889004	0.381967
N31	N	1.518350	-0.888077	0.506158
C32	C	1.451103	-0.860782	0.573289
O33	O	1.393940	-0.889027	0.630394
C34	C	1.451068	-0.806179	0.573280
C35	C	1.518275	-0.778869	0.506134
C36	C	1.652721	-0.778851	0.371870
C37	C	1.652678	-0.724250	0.371855
C38	C	1.585434	-0.696959	0.438980
C39	C	1.518232	-0.724269	0.506119
C40	C	1.383827	-0.778885	0.640416
C41	C	1.383799	-0.724278	0.640401
C42	C	1.451005	-0.696968	0.573256
C43	C	1.450946	-0.642377	0.573228
N44	N	1.518155	-0.615065	0.506094
C45	C	1.585399	-0.642356	0.438970
C46	C	1.451182	-0.975453	0.573306
C47	C	1.451210	-1.030055	0.573311
C48	C	1.585669	-1.030034	0.439046
C49	C	1.585634	-0.975430	0.439037
C50	C	1.518391	-0.948140	0.506172
C51	C	1.585305	-0.527691	0.438943
C52	C	1.585253	-0.473086	0.438930
C53	C	1.450799	-0.473111	0.573198
C54	C	1.450846	-0.527712	0.573207
C55	C	1.518108	-0.555000	0.506076
O56	O	1.393762	-0.614103	0.630258
O57	O	1.642562	-0.614104	0.381885
C58	C	1.792198	-0.251848	0.506103
C59	C	1.908975	-0.251852	0.506109
C60	C	1.518239	-0.251785	0.780122
C61	C	1.518270	-0.251763	0.896898
C62	C	1.518371	-0.115465	0.506159
C63	C	1.518459	-0.057351	0.506190
C64	C	1.518152	-0.251853	0.233121
C65	C	1.518325	-0.251728	0.116345
C66	C	1.585526	-0.218322	0.951783
C67	C	1.585551	-0.218303	1.061507
C68	C	1.451061	-0.285170	1.061452
C69	C	1.451032	-0.285186	0.951730
C70	C	1.663176	-0.179718	0.951816
C71	C	1.663201	-0.179699	1.061540
H72	H	0.919178	-0.191111	0.384442
H73	H	1.396262	-0.312415	0.907047
H74	H	1.396316	-0.312382	1.106109
O75	O	1.109253	-0.311033	0.747634
C76	C	1.210961	-0.250788	0.851103
C77	C	1.170608	-0.265391	0.741154
H78	H	1.260557	-0.213879	0.845905
H79	H	1.260639	-0.284036	0.883437
H80	H	1.141489	-0.243620	0.905382
H81	H	1.240018	-0.272551	0.686796
H82	H	1.120898	-0.232135	0.708906
H83	H	1.634120	-0.141226	1.095595
O84	O	1.318585	-0.805485	0.705554
C85	C	1.259100	-0.889603	0.765176
C86	C	1.333021	-0.859545	0.691326
H87	H	1.270761	-0.933316	0.753714
H88	H	1.174360	-0.878956	0.746664
H89	H	1.277507	-0.878786	0.849885
H90	H	1.314709	-0.870346	0.606593
H91	H	1.417739	-0.870196	0.709928
O92	O	1.760306	-0.192671	1.096896
C93	C	1.937243	-0.216257	1.051078
C94	C	1.827323	-0.201584	1.010896
H95	H	1.991462	-0.223457	0.981568
H96	H	1.931950	-0.253141	1.100652
H97	H	1.969711	-0.182995	1.100775
H98	H	1.794791	-0.234813	0.961156
H99	H	1.832682	-0.164684	0.961378
H100	H	1.107524	-0.362421	0.621306
H101	H	1.118241	-0.191092	0.384427
H102	H	1.396416	-0.953236	0.627972
O103	O	0.928398	-0.372300	0.624371
C104	C	0.974100	-0.460348	0.576690
C105	C	1.014354	-0.405653	0.606366
H106	H	1.043575	-0.487331	0.562147
H107	H	0.924472	-0.457699	0.502572
H108	H	0.924438	-0.476514	0.643463
H109	H	1.064059	-0.389454	0.539661
H110	H	1.063925	-0.408335	0.680516
H111	H	0.929832	-0.309529	0.727964
O112	O	1.650765	-0.554212	0.373888
C113	C	1.792663	-0.615793	0.359890
C114	C	1.718609	-0.585785	0.433684
H115	H	1.847519	-0.641335	0.408204
H116	H	1.840755	-0.586906	0.311936
H117	H	1.744478	-0.641383	0.304883
H118	H	1.766713	-0.560194	0.488754
H119	H	1.670514	-0.614700	0.481564
H120	H	1.329043	-0.702061	0.695074
O121	O	1.650642	-0.446639	0.373670
C122	C	1.783963	-0.452391	0.240454
C123	C	1.709985	-0.482404	0.314320
H124	H	1.831946	-0.481293	0.192435
H125	H	1.838926	-0.426793	0.288677
H126	H	1.735724	-0.426860	0.185512
H127	H	1.758140	-0.507963	0.369277
H128	H	1.655020	-0.507968	0.266032
H129	H	1.707407	-0.702018	0.317183
H130	H	1.641442	-0.139227	0.922068
H131	H	1.707485	-0.801065	0.317210
O132	O	1.650975	-0.948847	0.373963
C133	C	1.792847	-0.887166	0.359934
C134	C	1.718893	-0.917226	0.433749
H135	H	1.847792	-0.861602	0.408243
H136	H	1.744688	-0.861610	0.304966
H137	H	1.840858	-0.916068	0.311939
H138	H	1.670866	-0.888362	0.481812
H139	H	1.767112	-0.942790	0.488648
H140	H	1.396125	-0.549949	0.627886
O141	O	1.385582	-0.446515	0.638368
C142	C	1.325914	-0.362398	0.697803
C143	C	1.399836	-0.392455	0.623955
H144	H	1.337397	-0.318685	0.686160
H145	H	1.344334	-0.373051	0.782560
H146	H	1.241222	-0.373211	0.679305
H147	H	1.484552	-0.381657	0.642359
H148	H	1.381326	-0.381799	0.539220
O149	O	1.755261	-0.197039	0.911025
C150	C	1.854250	-0.215624	0.754611
C151	C	1.749905	-0.196007	0.800668
H152	H	1.849963	-0.214786	0.665382
H153	H	1.869257	-0.257257	0.782088
H154	H	1.920815	-0.189317	0.782278
H155	H	1.683276	-0.222276	0.773022
H156	H	1.734990	-0.154366	0.773196
H157	H	1.640427	-1.052264	0.384394
H158	H	1.396474	-1.052286	0.627977
