data_functionalizedCrystal
_audit_creation_method	'MofGen! by Chris Wilmer'
_symmetry_space_group_name_H-M	'P1'
_symmetry_Int_Tables_number	1
_symmetry_cell_setting	triclinic
loop_
_symmetry_equiv_pos_as_xyz
  x,y,z
_cell_length_a	17.077404
_cell_length_b	17.077402
_cell_length_c	18.215398
_cell_angle_alpha	89.973781
_cell_angle_beta	89.980579
_cell_angle_gamma	90.019951
loop_
_atom_site_label
_atom_site_type_symbol
_atom_site_fract_x
_atom_site_fract_y
_atom_site_fract_z
Zn1	Zn	-1.200052	0.312597	0.416111
Zn2	Zn	-1.199960	0.443864	0.293043
Zn3	Zn	-1.068785	0.312609	0.293058
Zn4	Zn	-1.068752	0.443818	0.416068
O5	O	-1.134387	0.378222	0.354570
O6	O	-1.309887	0.330024	0.399797
O7	O	-1.182535	0.426477	0.190061
O8	O	-1.086250	0.202761	0.309406
O9	O	-1.309819	0.426465	0.309380
O10	O	-1.182692	0.202752	0.399812
O11	O	-1.086161	0.330045	0.190072
O12	O	-0.958934	0.330000	0.309364
O13	O	-1.086194	0.426387	0.519058
O14	O	-0.958910	0.426399	0.399739
O15	O	-1.182660	0.329980	0.519090
O16	O	-1.182503	0.553705	0.309338
O17	O	-1.086105	0.553671	0.399724
C18	C	-0.930440	0.378197	0.354549
C19	C	-0.843190	0.378205	0.354558
C20	C	-0.802236	0.328076	0.401709
C21	C	-0.720255	0.328080	0.401711
C22	C	-0.679230	0.378217	0.354564
C23	C	-0.720190	0.428347	0.307407
C24	C	-0.802169	0.428339	0.307403
C25	C	-0.549320	0.428362	0.307422
C26	C	-0.467336	0.428372	0.307427
C27	C	-0.467406	0.328104	0.401730
C28	C	-0.549385	0.328095	0.401725
C29	C	-0.590339	0.378227	0.354569
C30	C	-1.134312	0.582170	0.354541
C31	C	-1.134351	0.669420	0.354553
C32	C	-1.134434	0.378177	0.546523
C33	C	-1.134454	0.378158	0.628322
C34	C	-0.339132	0.378244	0.354586
C35	C	-0.426381	0.378244	0.354579
C36	C	-1.134485	0.173478	0.354616
C37	C	-1.134526	0.086228	0.354635
C38	C	-1.184597	0.710401	0.307539
C39	C	-1.184635	0.792382	0.307558
C40	C	-1.134423	0.833379	0.354587
C41	C	-1.084175	0.792392	0.401606
C42	C	-1.084142	0.710413	0.401590
C43	C	-1.084248	0.963262	0.401634
C44	C	-1.084281	1.045246	0.401648
C45	C	-1.184742	1.045231	0.307602
C46	C	-1.184708	0.963252	0.307586
C47	C	-1.134459	0.922270	0.354604
C48	C	-1.134386	0.378210	0.163364
C49	C	-1.134519	0.378008	0.081565
C50	C	-1.184672	0.428273	0.893378
C51	C	-1.184660	0.428300	0.816519
C52	C	-1.084295	0.327891	0.816514
C53	C	-1.084304	0.327868	0.893372
C54	C	-1.134496	0.378058	0.931802
C55	C	-1.134476	0.378108	0.778086
C56	C	-1.134463	0.378137	0.694752
C57	C	-1.134509	0.378030	1.015141
H58	H	-0.582785	0.287274	0.440120
C59	C	-0.847360	0.272923	0.453570
C60	C	-0.903735	0.307010	0.511290
C61	C	-0.948857	0.251852	0.563150
C62	C	-0.937605	0.162609	0.557290
C63	C	-0.881228	0.128518	0.499568
C64	C	-0.836106	0.183675	0.447708
H65	H	-0.912066	0.373077	0.515630
H66	H	-0.990591	0.277089	0.605881
H67	H	-0.971008	0.121778	0.595680
H68	H	-0.872897	0.062450	0.495228
H69	H	-0.794372	0.158438	0.404978
H70	H	-1.043441	0.286976	0.924657
H71	H	-0.686914	0.287262	0.440107
H72	H	-0.434057	0.287283	0.440124
C73	C	-0.422202	0.483512	0.255561
C74	C	-0.433429	0.476970	0.171909
C75	C	-0.388293	0.532107	0.120041
C76	C	-0.331931	0.593788	0.151824
C77	C	-0.320701	0.600332	0.235480
C78	C	-0.365837	0.545195	0.287348
H79	H	-0.475154	0.431308	0.148377
H80	H	-0.396607	0.527262	0.058113
H81	H	-0.298519	0.634604	0.113428
H82	H	-0.278976	0.645994	0.259012
H83	H	-0.357524	0.550040	0.349276
C84	C	-1.239862	0.483532	0.774257
C85	C	-1.301497	0.449531	0.721440
C86	C	-1.356705	0.504764	0.679180
C87	C	-1.350278	0.593998	0.689736
C88	C	-1.288641	0.628003	0.742555
C89	C	-1.233433	0.572770	0.784816
H90	H	-1.306257	0.383471	0.713624
H91	H	-1.402333	0.479591	0.640080
H92	H	-1.391146	0.634884	0.658453
H93	H	-1.283881	0.694063	0.750372
H94	H	-1.187805	0.597943	0.823916
C95	C	-1.029091	0.272677	0.774241
C96	C	-0.939853	0.279073	0.784786
C97	C	-0.884649	0.223856	0.742515
C98	C	-0.918685	0.162242	0.689700
C99	C	-1.007928	0.155843	0.679153
C100	C	-1.063131	0.211061	0.721423
H101	H	-0.914654	0.324686	0.823885
H102	H	-0.818586	0.228593	0.750323
H103	H	-0.877820	0.121366	0.658409
H104	H	-1.033127	0.110231	0.640053
H105	H	-1.129195	0.206324	0.713615
H106	H	-0.582663	0.469183	0.269021
C107	C	-1.028971	0.918182	0.453352
C108	C	-1.062920	0.861758	0.511152
C109	C	-1.007642	0.816678	0.562866
C110	C	-0.918414	0.828024	0.556780
C111	C	-0.884460	0.884451	0.498977
C112	C	-0.939739	0.929530	0.447263
H113	H	-1.128976	0.853357	0.515660
H114	H	-1.032777	0.774907	0.605655
H115	H	-0.877493	0.794654	0.595061
H116	H	-0.818405	0.892852	0.494469
H117	H	-0.914604	0.971302	0.404474
C118	C	-0.675064	0.483499	0.255546
C119	C	-0.618685	0.449410	0.197831
C120	C	-0.573560	0.504565	0.145971
C121	C	-0.584814	0.593809	0.151825
C122	C	-0.641196	0.627902	0.209541
C123	C	-0.686321	0.572747	0.261402
H124	H	-0.610351	0.383342	0.193496
H125	H	-0.531822	0.479326	0.103245
H126	H	-0.551410	0.634638	0.113434
H127	H	-0.649530	0.693970	0.213877
H128	H	-0.728059	0.597986	0.304128
H129	H	-0.835513	0.469158	0.269007
H130	H	-1.225541	0.469142	0.924666
H131	H	-1.225482	0.677027	0.269240
C132	C	-1.028868	0.665329	0.453303
C133	C	-0.939639	0.676669	0.447222
C134	C	-0.884367	0.631585	0.498938
C135	C	-0.918323	0.575162	0.556736
C136	C	-1.007557	0.563820	0.562819
C137	C	-1.062829	0.608903	0.511103
H138	H	-0.914499	0.718439	0.404435
H139	H	-0.818310	0.639982	0.494435
H140	H	-0.877408	0.541788	0.595019
H141	H	-1.032698	0.522049	0.605606
H142	H	-1.128886	0.600506	0.515606
H143	H	-1.225550	0.825745	0.269274
H144	H	-1.225590	0.929872	0.269288
H145	H	-1.225659	1.078602	0.269320
H146	H	-1.043296	0.825778	0.439901
H147	H	-1.043409	1.078624	0.439957
