data_functionalizedCrystal
_audit_creation_method	'MofGen! by Chris Wilmer'
_symmetry_space_group_name_H-M	'P1'
_symmetry_Int_Tables_number	1
_symmetry_cell_setting	triclinic
loop_
_symmetry_equiv_pos_as_xyz
  x,y,z
_cell_length_a	19.288864
_cell_length_b	16.098538
_cell_length_c	19.288857
_cell_angle_alpha	87.288895
_cell_angle_beta	83.134677
_cell_angle_gamma	92.743008
loop_
_atom_site_label
_atom_site_type_symbol
_atom_site_fract_x
_atom_site_fract_y
_atom_site_fract_z
O1	O	0.924478	0.069528	0.083522
O2	O	0.722215	0.069472	0.095213
O3	O	0.829193	0.069491	-0.011763
O4	O	0.817500	0.069508	0.190498
O5	O	0.822944	-0.069023	-0.005538
O6	O	0.715965	-0.069043	0.101438
O7	O	0.918229	-0.068986	0.089746
Zn8	Zn	0.816105	-0.091006	0.096580
Zn9	Zn	0.824338	0.091492	0.088379
O10	O	0.811250	-0.069006	0.196722
C11	C	0.693213	0.000207	0.097950
C12	C	0.616109	0.000185	0.096822
N13	N	0.810491	-0.215557	0.102177
C14	C	0.571412	0.000204	0.159589
C15	C	0.498965	0.000213	0.158528
C16	C	0.471219	0.000220	0.094695
C17	C	0.515926	0.000197	0.031920
C18	C	0.588371	0.000180	0.032983
C19	C	0.365149	0.048772	0.042334
C20	C	0.292706	0.048794	0.041273
C21	C	0.247776	0.000270	0.091413
C22	C	0.275298	-0.048265	0.142626
C23	C	0.347742	-0.048283	0.143689
C24	C	0.392666	0.000239	0.093535
C25	C	0.124523	0.000297	0.153034
C26	C	0.052076	0.000301	0.151971
C27	C	0.069039	0.000294	0.025361
C28	C	0.141485	0.000282	0.026426
C29	C	0.169223	0.000287	0.090265
C30	C	0.855913	-0.259133	0.056788
C31	C	0.851993	-0.346323	0.060710
C32	C	0.802652	-0.389934	0.110024
C33	C	0.757225	-0.346352	0.155415
C34	C	0.761143	-0.259164	0.151490
C35	C	0.788449	-0.653187	0.124243
C36	C	0.784536	-0.740381	0.128166
C37	C	0.879303	-0.740347	0.033459
C38	C	0.883219	-0.653157	0.029541
C39	C	0.837790	-0.609582	0.074929
C40	C	0.798645	-0.479056	0.114035
C41	C	0.841794	-0.520461	0.070914
C42	C	0.947230	0.000280	0.087010
C43	C	1.024335	0.000307	0.088138
C44	C	0.825693	0.000233	-0.034527
C45	C	0.824566	0.000231	-0.111631
N46	N	0.829958	0.216042	0.082777
C47	C	0.827447	0.075735	-0.151234
C48	C	0.826378	0.075741	-0.223681
C49	C	0.822443	0.000238	-0.256522
C50	C	0.819558	-0.075276	-0.216909
C51	C	0.820620	-0.075279	-0.144463
C52	C	0.858836	-0.057590	-0.374155
C53	C	0.857779	-0.057583	-0.446600
C54	C	0.819166	0.000247	-0.479968
C55	C	0.781620	0.058084	-0.440885
C56	C	0.782681	0.058080	-0.368439
C57	C	0.821291	0.000234	-0.335077
C58	C	0.820887	0.075762	-0.598127
C59	C	0.819814	0.075765	-0.670574
C60	C	0.813001	-0.075253	-0.663801
C61	C	0.814067	-0.075254	-0.591355
C62	C	0.818013	0.000256	-0.558522
C63	C	0.814750	0.000254	0.219487
C64	C	0.815878	0.000262	0.296590
H65	H	0.593991	0.000210	0.211571
H66	H	0.916289	-0.775833	-0.003495
H67	H	0.752108	0.105171	-0.336619
H68	H	0.717047	-0.381865	0.195566
H69	H	0.744355	-0.775886	0.168327
H70	H	0.816352	-0.136750	-0.243653
H71	H	0.724154	-0.223684	0.188449
H72	H	0.370148	-0.087805	0.185386
H73	H	0.046452	0.000352	-0.026616
H74	H	0.888979	-0.381803	0.023750
H75	H	0.758472	-0.514572	0.154189
H76	H	0.751459	-0.617715	0.161201
H77	H	0.881965	-0.484950	0.030760
H78	H	0.238717	-0.087779	0.183454
H79	H	0.896095	-0.223631	0.016634
H80	H	0.401726	0.088291	0.001502
H81	H	0.830658	0.137221	-0.124507
H82	H	0.828720	0.137227	-0.255932
H83	H	0.750177	0.105175	-0.468051
H84	H	0.493332	0.000215	-0.020054
H85	H	0.822156	0.137252	-0.702818
H86	H	0.809792	-0.136729	-0.690539
H87	H	0.824096	0.137247	-0.571393
H88	H	0.923396	-0.617650	-0.010615
H89	H	0.811727	-0.136738	-0.559110
H90	H	0.818271	-0.136766	-0.112217
H91	H	0.624764	0.000165	-0.018131
H92	H	0.462565	0.000225	0.209642
H93	H	0.890278	-0.104689	-0.346992
H94	H	0.147108	0.000290	0.205016
H95	H	0.177879	0.000272	-0.024686
H96	H	0.015683	0.000311	0.203086
H97	H	0.270304	0.088318	-0.000424
H98	H	0.888354	-0.104675	-0.478417
