data_functionalizedCrystal
_audit_creation_method	'MofGen! by Chris Wilmer'
_symmetry_space_group_name_H-M	'P1'
_symmetry_Int_Tables_number	1
_symmetry_cell_setting	triclinic
loop_
_symmetry_equiv_pos_as_xyz
  x,y,z
_cell_length_a	16.109301
_cell_length_b	16.053934
_cell_length_c	16.109301
_cell_angle_alpha	87.424837
_cell_angle_beta	96.538519
_cell_angle_gamma	87.432301
loop_
_atom_site_label
_atom_site_type_symbol
_atom_site_fract_x
_atom_site_fract_y
_atom_site_fract_z
O1	O	1.099634	0.069378	-0.110364
O2	O	0.857571	0.069392	-0.123664
O3	O	0.985253	0.069376	0.004017
O4	O	0.971953	0.069394	-0.238046
O5	O	0.992243	-0.069481	0.011021
O6	O	0.864561	-0.069465	-0.116661
O7	O	1.106624	-0.069479	-0.103361
Zn8	Zn	0.986702	-0.091518	-0.108899
Zn9	Zn	0.977493	0.091432	-0.118126
O10	O	0.978942	-0.069463	-0.231042
C11	C	0.830091	-0.000035	-0.119624
C12	C	0.737796	-0.000030	-0.118009
C13	C	0.515524	-0.000034	-0.190017
C14	C	0.428803	-0.000040	-0.188492
C15	C	0.448678	-0.000048	-0.037003
C16	C	0.535397	-0.000048	-0.038528
C17	C	0.568817	-0.000037	-0.115037
C18	C	0.395378	-0.000042	-0.111988
C19	C	0.301352	-0.000048	-0.110335
C20	C	0.662849	-0.000033	-0.116691
N21	N	0.992993	-0.216377	-0.102601
C22	C	0.938654	-0.260085	-0.156909
C23	C	0.943079	-0.347491	-0.152500
C24	C	1.001840	-0.391187	-0.093778
C25	C	1.056185	-0.347473	-0.039467
C26	C	1.051763	-0.260069	-0.043881
C27	C	1.021132	-0.652592	-0.074521
C28	C	1.025548	-0.740002	-0.070109
C29	C	0.912442	-0.740013	-0.183144
C30	C	0.908023	-0.652608	-0.187549
C31	C	0.962370	-0.608901	-0.133241
N32	N	1.006363	-0.480529	-0.089268
N33	N	0.957851	-0.519560	-0.137756
C34	C	1.134104	-0.000050	-0.107401
C35	C	1.226399	-0.000049	-0.109016
C36	C	0.988209	-0.000053	0.038494
C37	C	0.986594	-0.000054	0.130789
N38	N	0.971208	0.216290	-0.124418
C39	C	0.975986	-0.000032	-0.265519
C40	C	0.977601	-0.000026	-0.357815
C41	C	1.058601	-0.000045	0.353061
C42	C	1.057077	-0.000038	0.439781
C43	C	0.905588	-0.000032	0.419906
C44	C	0.907113	-0.000033	0.333188
C45	C	0.983622	-0.000044	0.299768
C46	C	0.980573	-0.000036	0.473207
C47	C	0.978919	-0.000028	0.567232
C48	C	0.985276	-0.000050	0.205736
H49	H	0.898833	-0.383077	-0.196723
H50	H	0.890802	-0.224513	-0.204724
H51	H	0.843296	-0.000026	0.447128
O52	O	0.371326	-0.000040	-0.269366
H53	H	0.305410	-0.000053	-0.255455
O54	O	1.119570	-0.394598	0.023866
H55	H	1.108158	-0.377821	0.087836
H56	H	0.542731	-0.000032	-0.252315
O57	O	1.088933	-0.787137	-0.006775
H58	H	1.125988	-0.742062	0.030242
H59	H	0.421457	-0.000061	0.025289
O60	O	1.079751	-0.605468	-0.015941
H61	H	1.118141	-0.565649	-0.052963
O62	O	0.853846	-0.787158	-0.241731
H63	H	0.812245	-0.742089	-0.283306
O64	O	1.141118	-0.000048	0.317012
H65	H	1.142579	0.056544	0.275114
H66	H	1.096013	-0.224483	0.000342
O67	O	0.844646	-0.605484	-0.250892
H68	H	0.877617	-0.565651	-0.293317
H69	H	0.846052	-0.000030	0.289794
O70	O	1.137947	-0.000049	0.497265
H71	H	1.191401	-0.000065	0.459454
H72	H	0.578791	-0.000053	0.022533
