data_functionalizedCrystal
_audit_creation_method	'MofGen! by Chris Wilmer'
_symmetry_space_group_name_H-M	'P1'
_symmetry_Int_Tables_number	1
_symmetry_cell_setting	triclinic
loop_
_symmetry_equiv_pos_as_xyz
  x,y,z
_cell_length_a	11.026607
_cell_length_b	23.532407
_cell_length_c	10.065875
_cell_angle_alpha	98.729142
_cell_angle_beta	79.302338
_cell_angle_gamma	95.717347
loop_
_atom_site_label
_atom_site_type_symbol
_atom_site_fract_x
_atom_site_fract_y
_atom_site_fract_z
O1	O	1.625135	0.231639	-0.113547
O2	O	1.272155	0.204517	-0.113543
O3	O	1.459285	0.136267	-0.113520
O4	O	1.438005	0.299889	-0.113570
O5	O	1.423601	0.149349	0.113464
O6	O	1.236471	0.217598	0.113442
O7	O	1.589451	0.244720	0.113437
Zn8	Zn	1.407295	0.233236	0.149478
Zn9	Zn	1.454310	0.216001	-0.149584
O10	O	1.402321	0.312970	0.113415
C11	C	1.209162	0.206054	-0.000050
C12	C	1.074627	0.191139	-0.000047
C13	C	1.000327	0.232323	-0.000060
C14	C	0.861279	0.216908	-0.000057
C15	C	1.440900	0.121535	-0.000024
C16	C	1.439269	0.058147	-0.000014
C17	C	1.539800	-0.330388	-0.000090
C18	C	1.538287	-0.389948	-0.000100
O19	O	1.631478	-0.416895	-0.000152
N20	N	1.427036	-0.424275	-0.000098
C21	C	1.317292	-0.399040	-0.000099
O22	O	1.222526	-0.433707	-0.000099
C23	C	1.318808	-0.339482	-0.000099
C24	C	1.430064	-0.305157	-0.000087
C25	C	1.651047	-0.296063	-0.000080
C26	C	1.652559	-0.236507	-0.000067
C27	C	1.542823	-0.211276	-0.000064
C28	C	1.431575	-0.245600	-0.000074
C29	C	1.209067	-0.314248	-0.000109
C30	C	1.210592	-0.254685	-0.000110
C31	C	1.321848	-0.220360	-0.000098
C32	C	1.323351	-0.160813	-0.000058
N33	N	1.434602	-0.126486	-0.000061
C34	C	1.544338	-0.151717	-0.000064
C35	C	1.314119	-0.524117	-0.000103
C36	C	1.312601	-0.583674	-0.000093
C37	C	1.533597	-0.574578	-0.000097
C38	C	1.535112	-0.515019	-0.000097
C39	C	1.425370	-0.489790	-0.000105
C40	C	1.547504	-0.026645	-0.000035
C41	C	1.549005	0.032916	-0.000017
C42	C	1.328011	0.023814	-0.000020
C43	C	1.326508	-0.035742	-0.000032
C44	C	1.436265	-0.060970	-0.000044
O45	O	1.230210	-0.133827	-0.000012
O46	O	1.639092	-0.117045	-0.000081
C47	C	1.652444	0.243183	-0.000059
C48	C	1.786980	0.258098	-0.000071
C49	C	1.420706	0.327702	-0.000084
C50	C	1.422339	0.391089	-0.000104
N51	N	1.375217	0.244999	0.353580
N52	N	1.486398	0.204235	-0.353685
C53	C	1.443142	0.220090	0.421367
C54	C	1.418463	0.229148	0.578531
H55	H	1.035302	0.144465	-0.000068
C56	C	1.654310	-0.602341	-0.000126
H57	H	1.637467	-0.642729	-0.000147
H58	H	1.687533	-0.586162	0.079021
H59	H	1.712393	-0.595270	-0.079297
C60	C	0.840085	0.321152	-0.000085
H61	H	0.775435	0.344991	-0.000083
H62	H	0.901232	0.324124	-0.079238
H63	H	0.876333	0.333244	0.079081
C64	C	1.053442	0.295373	-0.000083
H65	H	0.988795	0.319213	-0.000083
H66	H	1.114588	0.298342	-0.079238
H67	H	1.089694	0.307467	0.079081
H68	H	1.639606	0.060862	-0.000004
H69	H	1.562822	0.176198	0.588003
H70	H	1.625707	-0.487075	-0.000089
H71	H	1.298790	0.273029	0.411897
C72	C	1.546382	0.182219	0.342597
H73	H	1.549430	0.181101	0.247298
H74	H	1.529804	0.144250	0.365964
H75	H	1.623618	0.197950	0.365922
C76	C	0.808165	0.153855	-0.000046
H77	H	0.721679	0.151765	-0.000057
H78	H	0.822575	0.140009	0.079110
H79	H	0.847464	0.130892	-0.079209
H80	H	1.743156	-0.208565	-0.000063
H81	H	1.636880	-0.047179	-0.000051
H82	H	1.342031	0.257180	0.636843
H83	H	1.222001	-0.611615	-0.000079
C84	C	1.771766	-0.323808	-0.000072
H85	H	1.838226	-0.294827	-0.000056
H86	H	1.788234	-0.351411	-0.079221
H87	H	1.763323	-0.342290	0.079098
C88	C	1.193391	-0.496368	-0.000086
H89	H	1.126923	-0.525345	-0.000072
H90	H	1.201817	-0.477879	-0.079236
H91	H	1.176942	-0.468768	0.079083
C92	C	1.086685	-0.351994	-0.000134
H93	H	1.021561	-0.328429	-0.000150
H94	H	1.069034	-0.370864	0.079013
H95	H	1.093949	-0.379970	-0.079305
H96	H	1.121224	-0.234147	-0.000119
H97	H	1.235908	-0.063688	-0.000003
H98	H	1.238666	0.044369	-0.000013
