data_functionalizedCrystal
_audit_creation_method	'MofGen! by Chris Wilmer'
_symmetry_space_group_name_H-M	'P1'
_symmetry_Int_Tables_number	1
_symmetry_cell_setting	triclinic
loop_
_symmetry_equiv_pos_as_xyz
  x,y,z
_cell_length_a	21.395362
_cell_length_b	18.101395
_cell_length_c	21.395355
_cell_angle_alpha	89.984273
_cell_angle_beta	89.956060
_cell_angle_gamma	90.046983
loop_
_atom_site_label
_atom_site_type_symbol
_atom_site_fract_x
_atom_site_fract_y
_atom_site_fract_z
Zn1	Zn	0.957858	-0.294602	-0.354598
Zn2	Zn	1.291191	0.038732	-0.021264
Zn3	Zn	1.624524	0.372065	0.312069
Zn4	Zn	0.957760	-0.418425	-0.249825
Zn5	Zn	1.291093	-0.085092	0.083508
Zn6	Zn	1.624426	0.248242	0.416841
Zn7	Zn	0.853073	-0.294636	-0.249799
Zn8	Zn	1.186406	0.038697	0.083534
Zn9	Zn	1.519739	0.372031	0.416868
Zn10	Zn	0.853041	-0.418440	-0.354530
Zn11	Zn	1.186375	-0.085107	-0.021197
Zn12	Zn	1.519708	0.248227	0.312137
O13	O	0.905433	-0.356526	-0.302188
O14	O	1.238766	-0.023192	0.031145
O15	O	1.572099	0.310141	0.364479
O16	O	1.045523	-0.311006	-0.340739
O17	O	1.378856	0.022327	-0.007405
O18	O	1.712189	0.355661	0.325928
O19	O	0.943845	-0.402012	-0.162144
O20	O	1.277178	-0.068679	0.171189
O21	O	1.610511	0.264655	0.504523
O22	O	0.867027	-0.190998	-0.263718
O23	O	1.200360	0.142335	0.069615
O24	O	1.533694	0.475668	0.402949
O25	O	1.045450	-0.401979	-0.263763
O26	O	1.378784	-0.068645	0.069570
O27	O	1.712117	0.264688	0.402904
O28	O	0.944012	-0.190973	-0.340713
O29	O	1.277345	0.142360	-0.007380
O30	O	1.610679	0.475693	0.325953
O31	O	0.866932	-0.311065	-0.162125
O32	O	1.200265	0.022268	0.171209
O33	O	1.533598	0.355602	0.504542
O34	O	0.765391	-0.311080	-0.263652
O35	O	1.098724	0.022254	0.069681
O36	O	1.432057	0.355587	0.403014
O37	O	0.866973	-0.402005	-0.442217
O38	O	1.200307	-0.068671	-0.108884
O39	O	1.533640	0.264662	0.224450
O40	O	0.765367	-0.402038	-0.340598
O41	O	1.098701	-0.068705	-0.007265
O42	O	1.432034	0.264629	0.326069
O43	O	0.943982	-0.311021	-0.442267
O44	O	1.277315	0.022312	-0.108933
O45	O	1.610648	0.355646	0.224400
O46	O	0.943814	-0.522060	-0.263697
O47	O	1.277147	-0.188726	0.069636
O48	O	1.610481	0.144607	0.402969
O49	O	0.866878	-0.522071	-0.340623
O50	O	1.200211	-0.188738	-0.007290
O51	O	1.533545	0.144596	0.326043
C52	C	0.742645	-0.356565	-0.302115
C53	C	1.075978	-0.023231	0.031218
C54	C	1.409312	0.310102	0.364551
C55	C	0.673004	-0.356599	-0.302099
C56	C	1.006337	-0.023266	0.031234
C57	C	1.339671	0.310067	0.364568
C58	C	0.640295	-0.404024	-0.342105
C59	C	0.973628	-0.070691	-0.008771
C60	C	1.306962	0.262643	0.324562
C61	C	0.574860	-0.404006	-0.342133
C62	C	0.908193	-0.070673	-0.008799
C63	C	1.241526	0.262661	0.324534
C64	C	0.542136	-0.356571	-0.302144
C65	C	0.875469	-0.023238	0.031190
C66	C	1.208802	0.310096	0.364523
C67	C	0.574852	-0.309137	-0.262135
C68	C	0.908186	0.024196	0.071198
C69	C	1.241519	0.357530	0.404531
C70	C	0.640286	-0.309151	-0.262113
C71	C	0.973620	0.024182	0.071220
C72	C	1.306953	0.357516	0.404554
C73	C	0.438411	-0.350605	-0.245738
C74	C	0.771744	-0.017272	0.087595
C75	C	1.105078	0.316062	0.420928
C76	C	0.372978	-0.350596	-0.245760
C77	C	0.706311	-0.017262	0.087574
C78	C	1.039645	0.316071	0.420907
C79	C	0.340315	-0.356523	-0.302213
C80	C	0.673648	-0.023189	0.031120
C81	C	1.006982	0.310144	0.364454
C82	C	0.373093	-0.362474	-0.358647
C83	C	0.706426	-0.029141	-0.025313
C84	C	1.039759	0.304193	0.308020
C85	C	0.438527	-0.362488	-0.358624
C86	C	0.771860	-0.029155	-0.025291
C87	C	1.105194	0.304179	0.308042
C88	C	0.471183	-0.356550	-0.302164
C89	C	0.804517	-0.023216	0.031170
C90	C	1.137850	0.310117	0.364503
C91	C	0.236654	-0.403930	-0.342252
C92	C	0.569987	-0.070597	-0.008919
C93	C	0.903320	0.262737	0.324415
C94	C	0.171217	-0.403907	-0.342281
C95	C	0.504550	-0.070573	-0.008948
C96	C	0.837884	0.262760	0.324386
C97	C	0.171211	-0.309042	-0.262278
C98	C	0.504544	0.024292	0.071055
C99	C	0.837878	0.357625	0.404388
C100	C	0.236646	-0.309061	-0.262255
C101	C	0.569980	0.024272	0.071078
C102	C	0.903313	0.357606	0.404412
C103	C	0.269364	-0.356509	-0.302241
C104	C	0.602697	-0.023176	0.031092
C105	C	0.936030	0.310157	0.364426
C106	C	0.905349	-0.548936	-0.302170
C107	C	1.238682	-0.215603	0.031164
C108	C	1.572016	0.117730	0.364497
C109	C	0.905370	-0.631250	-0.302183
C110	C	1.238704	-0.297917	0.031151
C111	C	1.572037	0.035416	0.364484
C112	C	0.905508	-0.930341	-0.302216
C113	C	1.238841	-0.597008	0.031117
C114	C	1.572175	-0.263674	0.364450
C115	C	0.857214	-0.899054	-0.350736
C116	C	1.190547	-0.565721	-0.017403
C117	C	1.523881	-0.232387	0.315930
C118	C	0.856985	-0.813436	-0.350585
C119	C	1.190318	-0.480103	-0.017251
C120	C	1.523651	-0.146769	0.316082
C121	C	0.905440	-0.781959	-0.302200
C122	C	1.238773	-0.448625	0.031133
C123	C	1.572106	-0.115292	0.364466
C124	C	0.887557	-0.813100	-0.236161
C125	C	1.220890	-0.479767	0.097172
C126	C	1.554224	-0.146433	0.430506
C127	C	0.887246	-0.898745	-0.236451
C128	C	1.220579	-0.565412	0.096882
C129	C	1.553912	-0.232079	0.430215
C130	C	0.971790	-0.898667	-0.319154
C131	C	1.305123	-0.565334	0.014179
C132	C	1.638457	-0.232001	0.347512
C133	C	0.971400	-0.813017	-0.320602
C134	C	1.304734	-0.479683	0.012731
C135	C	1.638067	-0.146350	0.346064
C136	C	0.905402	-0.698099	-0.302187
C137	C	1.238736	-0.364766	0.031146
C138	C	1.572069	-0.031433	0.364480
C139	C	0.905544	-1.014201	-0.302225
C140	C	1.238877	-0.680867	0.031108
C141	C	1.572211	-0.347534	0.364441
C142	C	1.068856	-0.356487	-0.302261
C143	C	1.402189	-0.023154	0.031072
C144	C	1.735523	0.310180	0.364405
C145	C	1.138497	-0.356470	-0.302293
C146	C	1.471831	-0.023137	0.031041
C147	C	1.805164	0.310196	0.364374
C148	C	0.905485	-0.356511	-0.465611
C149	C	1.238818	-0.023177	-0.132278
C150	C	1.572151	0.310156	0.201055
C151	C	0.905507	-0.356504	-0.535253
C152	C	1.238840	-0.023171	-0.201919
C153	C	1.572174	0.310162	0.131414
C154	C	0.905534	-0.163364	-0.302220
C155	C	1.238867	0.169970	0.031113
C156	C	1.572201	0.503303	0.364446
C157	C	0.905577	-0.081050	-0.302234
C158	C	1.238911	0.252284	0.031099
C159	C	1.572244	0.585617	0.364433
C160	C	0.945603	-0.309127	-0.567993
C161	C	1.278937	0.024206	-0.234659
C162	C	1.612270	0.357540	0.098674
C163	C	0.945603	-0.309095	-0.633428
C164	C	1.278936	0.024238	-0.300095
C165	C	1.612269	0.357571	0.033239
C166	C	0.905512	-0.356454	-0.666121
C167	C	1.238845	-0.023120	-0.332788
C168	C	1.572179	0.310213	0.000546
C169	C	0.865408	-0.403834	-0.633373
C170	C	1.198741	-0.070501	-0.300040
C171	C	1.532074	0.262832	0.033294
C172	C	0.865405	-0.403859	-0.567939
C173	C	1.198738	-0.070526	-0.234606
C174	C	1.532072	0.262807	0.098728
C175	C	0.900536	-0.423137	-0.769788
C176	C	1.233869	-0.089803	-0.436454
C177	C	1.567202	0.243530	-0.103121
C178	C	0.900542	-0.423113	-0.835221
C179	C	1.233876	-0.089779	-0.501887
C180	C	1.567209	0.243554	-0.168554
C181	C	0.905516	-0.356375	-0.867942
C182	C	1.238849	-0.023042	-0.534609
C183	C	1.572182	0.310291	-0.201275
C184	C	0.910495	-0.289660	-0.835222
C185	C	1.243829	0.043673	-0.501889
C186	C	1.577162	0.377007	-0.168555
C187	C	0.910493	-0.289685	-0.769788
C188	C	1.243826	0.043648	-0.436455
C189	C	1.577160	0.376981	-0.103121
C190	C	0.905510	-0.356431	-0.737073
C191	C	1.238843	-0.023098	-0.403740
C192	C	1.572176	0.310235	-0.070407
C193	C	0.945613	-0.308960	-0.971635
C194	C	1.278947	0.024374	-0.638301
C195	C	1.612280	0.357707	-0.304968
C196	C	0.945608	-0.308927	-1.037071
C197	C	1.278942	0.024407	-0.703738
C198	C	1.612275	0.357740	-0.370405
C199	C	0.865416	-0.403672	-1.037015
C200	C	1.198750	-0.070339	-0.703682
C201	C	1.532083	0.262994	-0.370348
C202	C	0.865418	-0.403699	-0.971580
C203	C	1.198752	-0.070366	-0.638246
C204	C	1.532085	0.262968	-0.304913
C205	C	0.905520	-0.356344	-0.938893
C206	C	1.238854	-0.023010	-0.605560
C207	C	1.572187	0.310323	-0.272227
C208	C	0.905417	-0.356487	-0.139400
C209	C	1.238750	-0.023154	0.193933
C210	C	1.572084	0.310180	0.527266
C211	C	0.905516	-0.356285	-0.069760
C212	C	1.238850	-0.022952	0.263574
C213	C	1.572183	0.310382	0.596907
H214	H	0.868173	-0.792380	-0.399551
H215	H	1.201507	-0.459047	-0.066218
H216	H	1.534840	-0.125713	0.267115
N217	N	0.871148	-0.924792	-0.412371
N218	N	1.204481	-0.591459	-0.079037
N219	N	1.537814	-0.258126	0.254296
N220	N	0.916829	-0.966501	-0.421258
N221	N	1.250163	-0.633168	-0.087925
N222	N	1.583496	-0.299834	0.245408
H223	H	0.926684	-0.984665	-0.464792
H224	H	1.260017	-0.651332	-0.131459
H225	H	1.593350	-0.317998	0.201875
N226	N	1.016922	-0.924043	-0.274817
N227	N	1.350255	-0.590710	0.058516
N228	N	1.683588	-0.257377	0.391850
N229	N	1.000428	-0.965275	-0.230917
N230	N	1.333761	-0.631942	0.102416
N231	N	1.667095	-0.298609	0.435750
H232	H	1.032297	-0.983200	-0.199601
H233	H	1.365630	-0.649867	0.133733
H234	H	1.698964	-0.316533	0.467066
N235	N	1.018937	-0.786136	-0.279511
N236	N	1.352270	-0.452802	0.053822
N237	N	1.685604	-0.119469	0.387155
N238	N	1.063503	-0.749185	-0.300815
N239	N	1.396837	-0.415851	0.032518
N240	N	1.730170	-0.082518	0.365852
H241	H	1.097075	-0.730201	-0.271789
H242	H	1.430408	-0.396867	0.061544
H243	H	1.763742	-0.063534	0.394877
N244	N	0.339502	-0.344499	-0.188117
N245	N	0.672835	-0.011166	0.145217
N246	N	1.006169	0.322168	0.478550
N247	N	0.303027	-0.291573	-0.179438
N248	N	0.636360	0.041761	0.153896
N249	N	0.969694	0.375094	0.487229
H250	H	0.279386	-0.287264	-0.138726
H251	H	0.612720	0.046070	0.194608
H252	H	0.946053	0.379403	0.527941
N253	N	0.930299	-0.787521	-0.189576
N254	N	1.263633	-0.454188	0.143757
N255	N	1.596966	-0.120855	0.477091
N256	N	0.974523	-0.745954	-0.204564
N257	N	1.307856	-0.412621	0.128769
N258	N	1.641189	-0.079287	0.462103
H259	H	1.004711	-0.727888	-0.171665
H260	H	1.338045	-0.394554	0.161669
H261	H	1.671378	-0.061221	0.495002
H262	H	0.346500	-0.367299	-0.404617
H263	H	0.679833	-0.033965	-0.071283
H264	H	1.013167	0.299368	0.262050
N265	N	0.471762	-0.344537	-0.188064
N266	N	0.805095	-0.011203	0.145270
N267	N	1.138429	0.322130	0.478603
N268	N	0.442492	-0.339226	-0.137683
N269	N	0.775825	-0.005893	0.195650
N270	N	1.109158	0.327441	0.528984
H271	H	0.466045	-0.334936	-0.096951
H272	H	0.799378	-0.001603	0.236382
H273	H	1.132711	0.331730	0.569715
N274	N	0.137802	-0.260588	-0.221421
N275	N	0.471135	0.072746	0.111912
N276	N	0.804469	0.406079	0.445245
N277	N	0.167018	-0.218251	-0.185699
N278	N	0.500352	0.115082	0.147634
N279	N	0.833685	0.448415	0.480968
H280	H	0.143421	-0.184028	-0.156843
H281	H	0.476755	0.149306	0.176490
H282	H	0.810088	0.482639	0.509824
H283	H	0.808383	-0.920654	-0.339656
H284	H	1.141716	-0.587320	-0.006323
H285	H	1.475050	-0.253987	0.327010
N286	N	0.986570	-0.260753	-0.534615
N287	N	1.319904	0.072580	-0.201282
N288	N	1.653237	0.405913	0.132051
N289	N	1.022369	-0.218455	-0.563861
N290	N	1.355703	0.114878	-0.230527
N291	N	1.689036	0.448211	0.102806
H292	H	1.051303	-0.184291	-0.540288
H293	H	1.384637	0.149043	-0.206954
H294	H	1.717970	0.482376	0.126379
H295	H	0.896491	-0.477437	-0.861856
H296	H	1.229825	-0.144103	-0.528523
H297	H	1.563158	0.189230	-0.195189
N298	N	0.673717	-0.452476	-0.382957
N299	N	1.007050	-0.119143	-0.049624
N300	N	1.340383	0.214191	0.283710
N301	N	0.710296	-0.426500	-0.422910
N302	N	1.043629	-0.093167	-0.089577
N303	N	1.376962	0.240166	0.243756
H304	H	0.733902	-0.460719	-0.451763
H305	H	1.067236	-0.127386	-0.118429
H306	H	1.400569	0.205948	0.214904
H307	H	0.548223	-0.442625	-0.374712
H308	H	0.881556	-0.109291	-0.041379
H309	H	1.214890	0.224042	0.291955
N310	N	0.471989	-0.368545	-0.416278
N311	N	0.805322	-0.035211	-0.082945
N312	N	1.138656	0.298122	0.250388
N313	N	0.464754	-0.320920	-0.457960
N314	N	0.798087	0.012413	-0.124627
N315	N	1.131421	0.345746	0.208706
H316	H	0.488382	-0.325192	-0.498682
H317	H	0.821716	0.008141	-0.165349
H318	H	1.155049	0.341475	0.167984
H319	H	0.978253	-0.270511	-0.660090
H320	H	1.311586	0.062822	-0.326757
H321	H	1.644919	0.396156	0.006576
N322	N	0.541419	-0.260683	-0.221296
N323	N	0.874752	0.072651	0.112037
N324	N	1.208086	0.405984	0.445371
N325	N	0.482996	-0.260676	-0.221321
N326	N	0.816330	0.072657	0.112013
N327	N	1.149663	0.405991	0.445346
H328	H	0.459383	-0.226451	-0.192479
H329	H	0.792717	0.106883	0.140854
H330	H	1.126050	0.440216	0.474188
H331	H	0.807855	-0.793026	-0.339363
H332	H	1.141188	-0.459693	-0.006030
H333	H	1.474521	-0.126360	0.327304
N334	N	0.915564	-0.221487	-0.868644
N335	N	1.248897	0.111846	-0.535311
N336	N	1.582230	0.445179	-0.201978
N337	N	0.873019	-0.202082	-0.905120
N338	N	1.206352	0.131251	-0.571786
N339	N	1.539686	0.464584	-0.238453
H340	H	0.876598	-0.153937	-0.928727
H341	H	1.209931	0.179396	-0.595393
H342	H	1.543264	0.512730	-0.262060
N343	N	0.824457	-0.452100	-0.938142
N344	N	1.157791	-0.118767	-0.604809
N345	N	1.491124	0.214567	-0.271476
N346	N	0.788662	-0.494379	-0.967337
N347	N	1.121995	-0.161046	-0.634004
N348	N	1.455328	0.172287	-0.300670
H349	H	0.759729	-0.528564	-0.943723
H350	H	1.093062	-0.195231	-0.610389
H351	H	1.426396	0.138103	-0.277056
N352	N	0.270069	-0.452399	-0.383098
N353	N	0.603402	-0.119066	-0.049765
N354	N	0.936735	0.214267	0.283569
N355	N	0.240853	-0.494737	-0.418819
N356	N	0.574186	-0.161404	-0.085486
N357	N	0.907520	0.171929	0.247847
H358	H	0.264450	-0.528970	-0.447667
H359	H	0.597783	-0.195637	-0.114334
H360	H	0.931117	0.137696	0.218999
H361	H	0.839618	-0.791728	-0.221559
H362	H	1.172952	-0.458394	0.111775
H363	H	1.506285	-0.125061	0.445108
H364	H	0.914546	-0.235363	-0.743150
H365	H	1.247879	0.097970	-0.409817
H366	H	1.581213	0.431303	-0.076484
H367	H	0.978263	-0.270396	-0.945020
H368	H	1.311597	0.062937	-0.611687
H369	H	1.644930	0.396270	-0.278353
H370	H	0.838794	-0.918801	-0.222106
H371	H	1.172127	-0.585468	0.111228
H372	H	1.505460	-0.252134	0.444561
N373	N	0.895448	-0.491318	-0.736377
N374	N	1.228782	-0.157985	-0.403044
N375	N	1.562115	0.175348	-0.069710
N376	N	0.891008	-0.550878	-0.765595
N377	N	1.224341	-0.217544	-0.432262
N378	N	1.557675	0.115789	-0.098929
H379	H	0.887414	-0.599030	-0.742000
H380	H	1.220747	-0.265697	-0.408667
H381	H	1.554080	0.067637	-0.075334
H382	H	0.920895	-0.919443	-0.199066
H383	H	1.254228	-0.586109	0.134267
H384	H	1.587561	-0.252776	0.467601
N385	N	0.986568	-0.260519	-1.070507
N386	N	1.319901	0.072814	-0.737174
N387	N	1.653234	0.406148	-0.403840
N388	N	1.022366	-0.218244	-1.041312
N389	N	1.355699	0.115090	-0.707978
N390	N	1.689033	0.448423	-0.374645
H391	H	1.051295	-0.184054	-1.064926
H392	H	1.384628	0.149279	-0.731592
H393	H	1.717961	0.482613	-0.398259
H394	H	0.988093	-0.920221	-0.366491
H395	H	1.321426	-0.586888	-0.033157
H396	H	1.654759	-0.253554	0.300176
H397	H	0.832767	-0.442225	-1.063633
H398	H	1.166101	-0.108892	-0.730300
H399	H	1.499434	0.224442	-0.396966
N400	N	0.673700	-0.260720	-0.221234
N401	N	1.007034	0.072614	0.112099
N402	N	1.340367	0.405947	0.445433
N403	N	0.710142	-0.286718	-0.181255
N404	N	1.043476	0.046615	0.152078
N405	N	1.376809	0.379949	0.485411
H406	H	0.733742	-0.252514	-0.152382
H407	H	1.067076	0.080819	0.180951
H408	H	1.400409	0.414152	0.514285
H409	H	0.984886	-0.792661	-0.369204
H410	H	1.318219	-0.459327	-0.035871
H411	H	1.651552	-0.125994	0.297463
H412	H	0.832763	-0.442392	-0.659996
H413	H	1.166097	-0.109058	-0.326663
H414	H	1.499430	0.224275	0.006671
H415	H	0.144587	-0.442524	-0.374862
H416	H	0.477920	-0.109191	-0.041529
H417	H	0.811253	0.224142	0.291804
N418	N	0.824438	-0.452249	-0.534493
N419	N	1.157772	-0.118915	-0.201160
N420	N	1.491105	0.214418	0.132173
N421	N	0.766626	-0.447342	-0.541756
N422	N	1.099960	-0.114009	-0.208423
N423	N	1.433293	0.219324	0.124911
H424	H	0.737692	-0.481518	-0.518134
H425	H	1.071026	-0.148185	-0.184801
H426	H	1.404359	0.185149	0.148533
N427	N	0.270052	-0.260614	-0.221384
N428	N	0.603385	0.072719	0.111949
N429	N	0.936718	0.406052	0.445283
N430	N	0.240829	-0.218262	-0.185684
N431	N	0.574162	0.115071	0.147650
N432	N	0.907496	0.448405	0.480983
H433	H	0.264421	-0.184042	-0.156817
H434	H	0.597754	0.149291	0.176516
H435	H	0.931087	0.482624	0.509849
