data_functionalizedCrystal
_audit_creation_method	'MofGen! by Chris Wilmer'
_symmetry_space_group_name_H-M	'P1'
_symmetry_Int_Tables_number	1
_symmetry_cell_setting	triclinic
loop_
_symmetry_equiv_pos_as_xyz
  x,y,z
_cell_length_a	19.805407
_cell_length_b	21.295417
_cell_length_c	19.805399
_cell_angle_alpha	90.029796
_cell_angle_beta	90.019573
_cell_angle_gamma	90.029702
loop_
_atom_site_label
_atom_site_type_symbol
_atom_site_fract_x
_atom_site_fract_y
_atom_site_fract_z
Zn1	Zn	1.034720	-0.250624	0.382709
Zn2	Zn	1.534720	0.249376	0.882709
Zn3	Zn	1.034629	-0.355893	0.269517
Zn4	Zn	1.534629	0.144107	0.769517
Zn5	Zn	0.921535	-0.250641	0.269534
Zn6	Zn	1.421535	0.249359	0.769534
Zn7	Zn	0.921492	-0.355859	0.382663
Zn8	Zn	1.421492	0.144141	0.882663
O9	O	0.978094	-0.303254	0.326106
O10	O	1.478094	0.196746	0.826106
O11	O	1.129425	-0.264595	0.367706
O12	O	1.629425	0.235405	0.867706
O13	O	1.019606	-0.341952	0.174802
O14	O	1.519606	0.158048	0.674802
O15	O	0.936605	-0.162549	0.284573
O16	O	1.436605	0.337451	0.784573
O17	O	1.129357	-0.341935	0.284544
O18	O	1.629357	0.158065	0.784544
O19	O	1.019762	-0.162537	0.367723
O20	O	1.519762	0.337463	0.867723
O21	O	0.936517	-0.264624	0.174815
O22	O	1.436517	0.235376	0.674815
O23	O	0.826813	-0.264592	0.284529
O24	O	1.326813	0.235408	0.784529
O25	O	0.936532	-0.341878	0.477386
O26	O	1.436532	0.158122	0.977386
O27	O	0.826781	-0.341895	0.367644
O28	O	1.326781	0.158105	0.867644
O29	O	1.019721	-0.264562	0.477420
O30	O	1.519721	0.235438	0.977420
O31	O	1.019564	-0.443977	0.284499
O32	O	1.519564	0.056023	0.784499
O33	O	0.936443	-0.443953	0.367628
O34	O	1.436443	0.056047	0.867628
C35	C	0.802238	-0.303242	0.326084
C36	C	1.302238	0.196758	0.826084
C37	C	0.727006	-0.303252	0.326091
C38	C	1.227006	0.196748	0.826091
C39	C	0.978008	-0.466806	0.326071
C40	C	1.478008	0.033194	0.826071
C41	C	0.978033	-0.536774	0.326079
C42	C	1.478033	-0.036774	0.826079
C43	C	0.691663	-0.343564	0.369299
C44	C	1.191663	0.156436	0.869299
C45	C	0.620975	-0.343566	0.369308
C46	C	1.120975	0.156434	0.869308
C47	C	0.585630	-0.303257	0.326106
C48	C	1.085630	0.196743	0.826106
C49	C	0.620978	-0.262940	0.282895
C50	C	1.120978	0.237060	0.782895
C51	C	0.691665	-0.262936	0.282890
C52	C	1.191665	0.237064	0.782890
C53	C	0.335905	-0.262954	0.282918
C54	C	0.835905	0.237046	0.782918
C55	C	0.265213	-0.262962	0.282925
C56	C	0.765213	0.237038	0.782925
C57	C	0.265214	-0.343583	0.369336
C58	C	0.765214	0.156417	0.869336
C59	C	0.335901	-0.343579	0.369331
C60	C	0.835901	0.156421	0.869331
C61	C	0.371243	-0.303261	0.326123
C62	C	0.871243	0.196739	0.826123
C63	C	0.447891	-0.303259	0.326114
C64	C	0.947891	0.196741	0.826114
C65	C	0.508983	-0.303261	0.326111
C66	C	1.008983	0.196739	0.826111
C67	C	1.021308	-0.569577	0.369406
C68	C	1.521308	-0.069577	0.869406
C69	C	1.021331	-0.635319	0.369423
C70	C	1.521331	-0.135319	0.869423
C71	C	0.978087	-0.668256	0.326101
C72	C	1.478087	-0.168256	0.826101
C73	C	0.934804	-0.635446	0.282771
C74	C	1.434804	-0.135446	0.782771
C75	C	0.934777	-0.569704	0.282760
C76	C	1.434777	-0.069704	0.782760
N77	N	0.972976	-0.771518	0.266865
N78	N	1.472976	-0.271518	0.766865
N79	N	0.973006	-0.833969	0.266877
N80	N	1.473006	-0.333969	0.766877
C81	C	0.978167	-0.866331	0.326131
C82	C	1.478167	-0.366331	0.826131
N83	N	0.983309	-0.833882	0.385374
N84	N	1.483309	-0.333882	0.885374
N85	N	0.983283	-0.771425	0.385362
N86	N	1.483283	-0.271425	0.885362
C87	C	0.978112	-0.739542	0.326108
C88	C	1.478112	-0.239542	0.826108
C89	C	1.021470	-0.970419	0.369480
C90	C	1.521470	-0.470419	0.869480
C91	C	1.021489	-1.036163	0.369498
C92	C	1.521489	-0.536163	0.869498
C93	C	0.934965	-1.036288	0.282840
C94	C	1.434965	-0.536288	0.782840
C95	C	0.934942	-0.970546	0.282828
C96	C	1.434942	-0.470546	0.782828
C97	C	0.978198	-0.937615	0.326147
C98	C	1.478198	-0.437615	0.826147
C99	C	1.154637	-0.303267	0.326128
C100	C	1.654637	0.196733	0.826128
C101	C	1.229869	-0.303272	0.326138
C102	C	1.729869	0.196728	0.826138
C103	C	0.978132	-0.303214	0.502649
C104	C	1.478132	0.196786	1.002649
C105	C	0.978148	-0.303198	0.577881
C106	C	1.478148	0.196802	1.077881
C107	C	0.978199	-0.139064	0.326155
C108	C	1.478199	0.360936	0.826155
C109	C	0.978244	-0.069096	0.326176
C110	C	1.478244	0.430904	0.826176
C111	C	0.978095	-0.303248	0.150250
C112	C	1.478095	0.196752	0.650250
C113	C	0.978210	-0.303088	0.075018
C114	C	1.478210	0.196912	0.575018
C115	C	1.021465	-0.262937	0.613243
C116	C	1.521465	0.237063	1.113243
C117	C	1.021472	-0.262919	0.683932
C118	C	1.521472	0.237081	1.183932
C119	C	0.978165	-0.303165	0.719256
C120	C	1.478165	0.196835	1.219256
C121	C	0.934843	-0.343427	0.683888
C122	C	1.434843	0.156573	1.183888
C123	C	0.934833	-0.343441	0.613201
C124	C	1.434833	0.156559	1.113201
C125	C	0.934881	-0.343368	0.968962
C126	C	1.434881	0.156632	1.468962
C127	C	0.934896	-0.343352	1.039654
C128	C	1.434896	0.156648	1.539654
C129	C	1.021520	-0.262846	1.039692
C130	C	1.521520	0.237154	1.539692
C131	C	1.021510	-0.262860	0.969005
C132	C	1.521510	0.237140	1.469005
C133	C	0.978186	-0.303120	0.933644
C134	C	1.478186	0.196880	1.433644
C135	C	0.978178	-0.303138	0.856995
C136	C	1.478178	0.196862	1.356995
C137	C	0.978176	-0.303150	0.795903
C138	C	1.478176	0.196850	1.295903
H139	H	0.720435	-0.376390	0.404477
H140	H	1.220435	0.123610	0.904477
H141	H	0.364672	-0.230129	0.247731
H142	H	0.864672	0.269871	0.747731
C143	C	0.887908	-0.387150	1.077920
C144	C	1.387908	0.112850	1.577920
C145	C	0.902585	-0.449438	1.060694
C146	C	1.402585	0.050562	1.560694
C147	C	0.859312	-0.489799	1.095923
C148	C	1.359312	0.010201	1.595923
H149	H	0.894078	-0.381462	1.125093
H150	H	1.394078	0.118538	1.625093
H151	H	0.842424	-0.377970	1.066317
H152	H	1.342424	0.122030	1.566317
H153	H	0.948058	-0.458615	1.072301
H154	H	1.448058	0.041385	1.572301
H155	H	0.896411	-0.455145	1.013527
H156	H	1.396411	0.044855	1.513527
H157	H	0.813828	-0.480619	1.084321
H158	H	1.313828	0.019381	1.584321
H159	H	0.865485	-0.484106	1.143095
H160	H	1.365485	0.015894	1.643095
H161	H	0.869260	-0.532066	1.084236
H162	H	1.369260	-0.032066	1.584236
C163	C	0.582571	-0.387234	0.416303
C164	C	1.082571	0.112766	0.916303
C165	C	0.542040	-0.351653	0.459779
C166	C	1.042040	0.148347	0.959779
C167	C	0.506663	-0.391861	0.503088
C168	C	1.006663	0.108139	1.003088
H169	H	0.554915	-0.414644	0.390438
H170	H	1.054915	0.085356	0.890438
H171	H	0.613727	-0.411230	0.442066
H172	H	1.113727	0.088770	0.942066
H173	H	0.510888	-0.327668	0.434019
H174	H	1.010888	0.172332	0.934019
H175	H	0.569679	-0.324245	0.485659
H176	H	1.069679	0.175755	0.985659
H177	H	0.537818	-0.415856	0.528852
H178	H	1.037818	0.084144	1.028852
H179	H	0.479011	-0.419268	0.477218
H180	H	0.979011	0.080732	0.977218
H181	H	0.479163	-0.367725	0.532596
H182	H	0.979163	0.132275	1.032596
H183	H	0.364675	-0.376405	0.404509
H184	H	0.864675	0.123595	0.904509
C185	C	0.887953	-0.387119	0.930497
C186	C	1.387953	0.112881	1.430497
C187	C	0.926233	-0.427473	0.889894
C188	C	1.426233	0.072527	1.389894
C189	C	0.883022	-0.467782	0.854445
C190	C	1.383022	0.032218	1.354445
H191	H	0.862153	-0.411142	0.961590
H192	H	1.362153	0.088858	1.461590
H193	H	0.858479	-0.363061	0.902888
H194	H	1.358479	0.136939	1.402888
H195	H	0.955696	-0.451528	0.917501
H196	H	1.455696	0.048472	1.417501
H197	H	0.952032	-0.403468	0.858789
H198	H	1.452032	0.096532	1.358789
H199	H	0.853548	-0.443725	0.826836
H200	H	1.353548	0.056275	1.326836
H201	H	0.857225	-0.491800	0.885542
H202	H	1.357225	0.008200	1.385542
H203	H	0.908989	-0.495163	0.826887
H204	H	1.408989	0.004837	1.326887
C205	C	0.226720	-0.387286	0.416230
C206	C	0.726720	0.112714	0.916230
C207	C	0.157250	-0.378652	0.407006
C208	C	0.657250	0.121348	0.907006
C209	C	0.121770	-0.418894	0.450196
C210	C	0.621770	0.081106	0.950196
H211	H	0.238197	-0.429594	0.406280
H212	H	0.738197	0.070406	0.906280
H213	H	0.238292	-0.378123	0.461738
H214	H	0.738292	0.121877	0.961738
H215	H	0.145682	-0.387819	0.361508
H216	H	0.645682	0.112181	0.861508
H217	H	0.145752	-0.336352	0.416960
H218	H	0.645752	0.163648	0.916960
H219	H	0.133342	-0.409731	0.495704
H220	H	0.633342	0.090269	0.995704
H221	H	0.133253	-0.461199	0.440243
H222	H	0.633253	0.038801	0.940243
H223	H	0.074631	-0.413037	0.443948
H224	H	0.574631	0.086963	0.943948
C225	C	1.068440	-1.071698	0.416650
C226	C	1.568440	-0.571698	0.916650
C227	C	1.053677	-1.055662	0.483603
C228	C	1.553677	-0.555662	0.983603
C229	C	1.096922	-1.088378	0.527057
C230	C	1.596922	-0.588378	1.027057
H231	H	1.062305	-1.115578	0.410549
H232	H	1.562305	-0.615578	0.910549
H233	H	1.113928	-1.060878	0.406818
H234	H	1.613928	-0.560878	0.906818
H235	H	1.008200	-1.066486	0.493432
H236	H	1.508200	-0.566486	0.993432
H237	H	1.059815	-1.011788	0.489726
H238	H	1.559815	-0.511788	0.989726
H239	H	1.142410	-1.077558	0.517225
H240	H	1.642410	-0.577558	1.017225
H241	H	1.090784	-1.132256	0.520950
H242	H	1.590784	-0.632256	1.020950
H243	H	1.086916	-1.077498	0.572489
H244	H	1.586916	-0.577498	1.072489
C245	C	1.068580	-0.219186	0.722204
C246	C	1.568580	0.280814	1.222204
C247	C	1.106521	-0.183959	0.676139
C248	C	1.606521	0.316041	1.176139
C249	C	1.149932	-0.143670	0.711369
C250	C	1.649932	0.356330	1.211369
H251	H	1.042789	-0.191692	0.749784
H252	H	1.542789	0.308308	1.249784
H253	H	1.098094	-0.243251	0.749763
H254	H	1.598094	0.256749	1.249763
H255	H	1.077011	-0.159896	0.648591
H256	H	1.577011	0.340104	1.148591
H257	H	1.132326	-0.211437	0.648557
H258	H	1.632326	0.288563	1.148557
H259	H	1.179445	-0.167735	0.738929
H260	H	1.679445	0.332265	1.238929
H261	H	1.124135	-0.116180	0.738949
H262	H	1.624135	0.383820	1.238949
H263	H	1.175684	-0.119768	0.680120
H264	H	1.675684	0.380232	1.180120
C265	C	1.068414	-0.219117	0.930573
C266	C	1.568414	0.280883	1.430573
C267	C	1.030100	-0.178789	0.889992
C268	C	1.530100	0.321211	1.389992
C269	C	1.073280	-0.138483	0.854576
C270	C	1.573280	0.361517	1.354576
H271	H	1.094223	-0.195075	0.961686
H272	H	1.594223	0.304925	1.461686
H273	H	1.097880	-0.243178	0.902952
H274	H	1.597880	0.256822	1.402952
H275	H	1.000645	-0.154730	0.917610
H276	H	1.500645	0.345270	1.417610
H277	H	1.004292	-0.202813	0.858867
H278	H	1.504292	0.297187	1.358867
H279	H	1.102747	-0.162543	0.826955
H280	H	1.602747	0.337457	1.326955
H281	H	1.099087	-0.114445	0.885693
H282	H	1.599087	0.385555	1.385693
H283	H	1.047291	-0.111119	0.827032
H284	H	1.547291	0.388881	1.327032
H285	H	0.592195	-0.230118	0.247722
H286	H	1.092195	0.269882	0.747722
C287	C	0.887862	-0.387225	0.722153
C288	C	1.387862	0.112775	1.222153
C289	C	0.902545	-0.449512	0.704927
C290	C	1.402545	0.050488	1.204927
C291	C	0.859275	-0.489877	0.740154
C292	C	1.359275	0.010123	1.240154
H293	H	0.894030	-0.381537	0.769327
H294	H	1.394030	0.118463	1.269327
H295	H	0.842377	-0.378049	0.710549
H296	H	1.342377	0.121951	1.210549
H297	H	0.948019	-0.458685	0.716535
H298	H	1.448019	0.041315	1.216535
H299	H	0.896373	-0.455219	0.657759
H300	H	1.396373	0.044781	1.157759
H301	H	0.813790	-0.480701	0.728551
H302	H	1.313790	0.019299	1.228551
H303	H	0.865446	-0.484184	0.787326
H304	H	1.365446	0.015816	1.287326
H305	H	0.869228	-0.532143	0.728467
H306	H	1.369228	-0.032143	1.228467
H307	H	1.056565	-0.662032	0.404713
H308	H	1.556565	-0.162032	0.904713
H309	H	0.899553	-0.376219	0.584410
H310	H	1.399553	0.123781	1.084410
H311	H	0.236437	-0.230134	0.247744
H312	H	0.736437	0.269866	0.747744
H313	H	0.899593	-0.662267	0.247499
H314	H	1.399593	-0.162267	0.747499
H315	H	1.056794	-0.230062	1.068492
H316	H	1.556794	0.269938	1.568492
H317	H	0.720441	-0.230107	0.247709
H318	H	1.220441	0.269893	0.747709
H319	H	1.056527	-0.542767	0.404681
H320	H	1.556527	-0.042767	0.904681
H321	H	1.056689	-0.943606	0.404755
H322	H	1.556689	-0.443606	0.904755
C323	C	0.887683	-0.534166	0.235753
C324	C	1.387683	-0.034166	0.735753
C325	C	0.820712	-0.550213	0.250420
C326	C	1.320712	-0.050213	0.750420
C327	C	0.777313	-0.517493	0.207124
C328	C	1.277313	-0.017493	0.707124
H329	H	0.893770	-0.490287	0.241906
H330	H	1.393770	0.009713	0.741906
H331	H	0.897579	-0.544975	0.190275
H332	H	1.397579	-0.044975	0.690275
H333	H	0.810820	-0.539400	0.295887
H334	H	1.310820	-0.039400	0.795887
H335	H	0.814604	-0.594087	0.244263
H336	H	1.314604	-0.094087	0.744263
H337	H	0.787209	-0.528302	0.161646
H338	H	1.287209	-0.028302	0.661646
H339	H	0.783406	-0.473616	0.213281
H340	H	1.283406	0.026384	0.713281
H341	H	0.731869	-0.528381	0.217066
H342	H	1.231869	-0.028381	0.717066
H343	H	0.899707	-0.943836	0.247544
H344	H	1.399707	-0.443836	0.747544
C345	C	0.888081	-1.072154	0.235834
C346	C	1.388081	-0.572154	0.735834
C347	C	0.897374	-1.136749	0.245108
C348	C	1.397374	-0.636749	0.745108
C349	C	0.854198	-1.169811	0.201815
C350	C	1.354198	-0.669811	0.701815
H351	H	0.842568	-1.061484	0.245657
H352	H	1.342568	-0.561484	0.745657
H353	H	0.898012	-1.061439	0.190348
H354	H	1.398012	-0.561439	0.690348
H355	H	0.887439	-1.147459	0.290584
H356	H	1.387439	-0.647459	0.790584
H357	H	0.942879	-1.147437	0.235280
H358	H	1.442879	-0.647437	0.735280
H359	H	0.864129	-1.159096	0.156328
H360	H	1.364129	-0.659096	0.656328
H361	H	0.808688	-1.159136	0.211641
H362	H	1.308688	-0.659136	0.711641
H363	H	0.860502	-1.213642	0.208096
H364	H	1.360502	-0.713642	0.708096
H365	H	1.056733	-0.230166	0.584487
H366	H	1.556733	0.269834	1.084487
