data_functionalizedCrystal
_audit_creation_method	'MofGen! by Chris Wilmer'
_symmetry_space_group_name_H-M	'P1'
_symmetry_Int_Tables_number	1
_symmetry_cell_setting	triclinic
loop_
_symmetry_equiv_pos_as_xyz
  x,y,z
_cell_length_a	13.339070
_cell_length_b	11.792254
_cell_length_c	12.376457
_cell_angle_alpha	101.355083
_cell_angle_beta	75.589755
_cell_angle_gamma	99.913946
loop_
_atom_site_label
_atom_site_type_symbol
_atom_site_fract_x
_atom_site_fract_y
_atom_site_fract_z
O1	O	1.364755	0.554302	-0.094049
O2	O	1.069813	0.479489	-0.094042
O3	O	1.224433	0.353930	-0.094037
O4	O	1.210135	0.679861	-0.094053
O5	O	1.185791	0.385265	0.093974
O6	O	1.031171	0.510824	0.093969
O7	O	1.326113	0.585636	0.093962
Zn8	Zn	1.172507	0.553205	0.123817
Zn9	Zn	1.223419	0.511920	-0.123896
O10	O	1.171493	0.711196	0.093958
C11	C	1.012733	0.482519	-0.000035
C12	C	0.900222	0.444851	-0.000032
C13	C	1.204211	0.327029	-0.000032
C14	C	1.201515	0.200185	-0.000033
C15	C	0.537054	0.737741	-0.000064
C16	C	0.642764	0.773136	-0.000071
C17	C	0.707134	0.691068	-0.000061
C18	C	0.665784	0.573599	-0.000045
C19	C	0.560066	0.538199	-0.000048
C20	C	0.730145	0.491525	-0.000044
C21	C	0.688795	0.374056	-0.000029
C22	C	0.583087	0.338663	-0.000030
C23	C	0.518717	0.420731	-0.000040
C24	C	0.835863	0.526925	-0.000041
C25	C	0.858874	0.327383	-0.000025
C26	C	0.753164	0.291988	-0.000019
C27	C	1.199325	0.097173	-0.000037
C28	C	1.196588	-0.032059	-0.000047
C29	C	1.383194	0.582606	-0.000047
C30	C	1.495706	0.620273	-0.000057
C31	C	1.191715	0.738096	-0.000050
C32	C	1.194413	0.864939	-0.000056
N33	N	1.137769	0.581383	0.292874
N34	N	1.258166	0.483736	-0.292953
C35	C	1.338805	0.418305	0.647865
C36	C	1.363113	0.398582	0.529526
C37	C	1.306779	0.444280	0.470357
C38	C	1.226133	0.509706	0.529539
C39	C	1.201828	0.529439	0.647890
C40	C	1.169801	0.555414	0.470382
C41	C	1.089156	0.620840	0.529564
C42	C	1.064854	0.640569	0.647903
C43	C	1.121189	0.594870	0.707072
C44	C	1.194106	0.535681	0.352031
C45	C	1.057129	0.646814	0.352056
C46	C	1.032821	0.666538	0.470395
H47	H	0.869518	0.622570	-0.000049
C48	C	0.846029	0.850410	-0.000063
C49	C	0.823329	0.729974	-0.000054
H50	H	0.917764	0.874431	-0.000048
H51	H	0.831352	0.868309	-0.065631
H52	H	0.804376	0.890168	0.065497
H53	H	0.864977	0.690215	-0.065619
H54	H	0.838017	0.712064	0.065521
C55	C	0.871005	0.126578	-0.000018
C56	C	0.929618	0.237161	-0.000015
H57	H	0.914688	0.070885	-0.000022
H58	H	0.815821	0.127846	0.065541
H59	H	0.842770	0.106002	-0.065587
H60	H	0.957847	0.257741	0.065559
H61	H	0.984822	0.235896	-0.065580
H62	H	1.259769	0.482411	0.303856
H63	H	0.676425	0.868777	-0.000092
H64	H	1.384670	0.381111	0.696048
H65	H	0.999196	0.693853	0.696089
C66	C	1.245985	0.362960	0.300860
C67	C	1.333489	0.422601	0.340276
H68	H	1.262476	0.349580	0.220550
H69	H	1.226238	0.290388	0.327635
H70	H	1.189901	0.408475	0.327650
H71	H	1.389571	0.377082	0.313493
H72	H	1.353250	0.495184	0.313490
C73	C	1.460676	0.318271	0.348108
C74	C	1.451395	0.326161	0.464476
H75	H	1.515080	0.273413	0.307951
H76	H	1.396778	0.281746	0.328954
H77	H	1.476484	0.394305	0.328499
H78	H	1.435580	0.250127	0.484086
H79	H	1.515308	0.362683	0.483637
C80	C	0.364783	0.772060	-0.000074
C81	C	0.466300	0.827941	-0.000074
H82	H	0.321102	0.827753	-0.000074
H83	H	0.365674	0.714348	-0.065631
H84	H	0.338720	0.736196	0.065496
H85	H	0.492365	0.863797	-0.065649
H86	H	0.465412	0.885673	0.065490
H87	H	0.549426	0.243010	-0.000030
H88	H	0.432638	0.391918	-0.000035
C89	C	1.107387	0.736699	0.876592
C90	C	1.094462	0.616555	0.837157
H91	H	1.090881	0.750082	0.956902
H92	H	1.177735	0.768219	0.849815
H93	H	1.062296	0.773272	0.849817
H94	H	1.139559	0.579982	0.863925
H95	H	1.024103	0.585020	0.863945
H96	H	0.967158	0.719810	0.518596
C97	C	1.063313	0.772412	0.218964
C98	C	0.995200	0.697054	0.287030
H99	H	1.025084	0.803421	0.178811
H100	H	1.096228	0.834310	0.265119
H101	H	1.114809	0.730604	0.166786
H102	H	0.943708	0.738864	0.339214
H103	H	0.962267	0.635147	0.240871
H104	H	0.719484	0.196341	-0.000015
