data_functionalizedCrystal
_audit_creation_method	'MofGen! by Chris Wilmer'
_symmetry_space_group_name_H-M	'P1'
_symmetry_Int_Tables_number	1
_symmetry_cell_setting	triclinic
loop_
_symmetry_equiv_pos_as_xyz
  x,y,z
_cell_length_a	21.395362
_cell_length_b	17.637651
_cell_length_c	21.395355
_cell_angle_alpha	101.232233
_cell_angle_beta	90.043940
_cell_angle_gamma	101.230465
loop_
_atom_site_label
_atom_site_type_symbol
_atom_site_fract_x
_atom_site_fract_y
_atom_site_fract_z
Zn1	Zn	0.907526	-0.314524	0.304123
Zn2	Zn	1.407526	0.185476	0.804123
Zn3	Zn	0.886274	-0.446721	0.178135
Zn4	Zn	1.386274	0.053279	0.678135
Zn5	Zn	0.802736	-0.314561	0.199318
Zn6	Zn	1.302736	0.185439	0.699318
Zn7	Zn	0.781553	-0.446737	0.282837
Zn8	Zn	1.281553	0.053263	0.782837
O9	O	0.844522	-0.380636	0.241103
O10	O	1.344522	0.119364	0.741103
O11	O	0.992389	-0.332038	0.287453
O12	O	1.492389	0.167962	0.787453
O13	O	0.875163	-0.429198	0.093266
O14	O	1.375163	0.070802	0.593266
O15	O	0.834396	-0.203915	0.230994
O16	O	1.334396	0.296085	0.730994
O17	O	0.976774	-0.429162	0.194891
O18	O	1.476774	0.070838	0.694891
O19	O	0.911385	-0.203888	0.307993
O20	O	1.411385	0.296112	0.807993
O21	O	0.813788	-0.332101	0.108829
O22	O	1.313788	0.167899	0.608829
O23	O	0.712244	-0.332116	0.210354
O24	O	1.212244	0.167884	0.710354
O25	O	0.798293	-0.429190	0.373340
O26	O	1.298293	0.070810	0.873340
O27	O	0.696681	-0.429226	0.271715
O28	O	1.196681	0.070774	0.771715
O29	O	0.890845	-0.332054	0.388978
O30	O	1.390845	0.167946	0.888978
O31	O	0.854623	-0.557364	0.174251
O32	O	1.354623	-0.057364	0.674251
O33	O	0.777685	-0.557376	0.251175
O34	O	1.277685	-0.057376	0.751175
C35	C	0.681728	-0.380677	0.241024
C36	C	1.181728	0.119323	0.741024
C37	C	0.612080	-0.380714	0.241002
C38	C	1.112080	0.119286	0.741002
C39	C	0.571269	-0.431346	0.272882
C40	C	1.071269	0.068654	0.772882
C41	C	0.505837	-0.431327	0.272913
C42	C	1.005837	0.068673	0.772913
C43	C	0.481217	-0.380684	0.241051
C44	C	0.981217	0.119316	0.741051
C45	C	0.522038	-0.330042	0.209170
C46	C	1.022038	0.169958	0.709170
C47	C	0.587469	-0.330057	0.209145
C48	C	1.087469	0.169943	0.709145
C49	C	0.378512	-0.374314	0.185668
C50	C	0.878512	0.125686	0.685668
C51	C	0.313080	-0.374305	0.185691
C52	C	0.813080	0.125695	0.685691
C53	C	0.279405	-0.380632	0.241129
C54	C	0.779405	0.119368	0.741129
C55	C	0.311166	-0.386986	0.296543
C56	C	0.811166	0.113014	0.796543
C57	C	0.376598	-0.387001	0.296518
C58	C	0.876598	0.112999	0.796518
C59	C	0.410268	-0.380661	0.241075
C60	C	0.910268	0.119339	0.741075
C61	C	0.167644	-0.431246	0.273045
C62	C	0.667644	0.068754	0.773045
C63	C	0.102211	-0.431221	0.273078
C64	C	0.602211	0.068779	0.773078
C65	C	0.118413	-0.329940	0.209329
C66	C	0.618413	0.170060	0.709329
C67	C	0.183845	-0.329961	0.209303
C68	C	0.683845	0.170039	0.709303
C69	C	0.208456	-0.380618	0.241159
C70	C	0.708456	0.119382	0.741159
C71	C	0.811566	-0.586058	0.208119
C72	C	1.311566	-0.086058	0.708119
C73	C	0.797524	-0.673938	0.194028
C74	C	1.297524	-0.173938	0.694028
C75	C	0.951601	-0.962602	0.348342
C76	C	1.451601	-0.462602	0.848342
C77	C	0.938387	-1.045179	0.335091
C78	C	1.438387	-0.545179	0.835091
C79	C	0.858271	-1.045314	0.254834
C80	C	1.358271	-0.545314	0.754834
C81	C	0.871481	-0.962736	0.268076
C82	C	1.371481	-0.462736	0.768076
C83	C	0.918146	-0.921386	0.314831
C84	C	1.418146	-0.421386	0.814831
C85	C	0.838026	-0.921520	0.234565
C86	C	1.338026	-0.421520	0.734565
C87	C	0.851232	-0.838948	0.247808
C88	C	1.351232	-0.338948	0.747808
C89	C	0.897893	-0.797592	0.294562
C90	C	1.397893	-0.297592	0.794562
C91	C	0.931352	-0.838814	0.328074
C92	C	1.431352	-0.338814	0.828074
C93	C	0.791358	-0.962871	0.187813
C94	C	1.291358	-0.462871	0.687813
C95	C	0.757902	-0.921655	0.154302
C96	C	1.257902	-0.421655	0.654302
C97	C	0.771112	-0.839082	0.167542
C98	C	1.271112	-0.339082	0.667542
C99	C	0.817773	-0.797726	0.214296
C100	C	1.317773	-0.297726	0.714296
C101	C	0.737653	-0.797860	0.134030
C102	C	1.237653	-0.297860	0.634030
C103	C	0.750859	-0.715288	0.147274
C104	C	1.250859	-0.215288	0.647274
C105	C	0.830979	-0.715154	0.227539
C106	C	1.330979	-0.215154	0.727539
C107	C	1.007952	-0.380594	0.241183
C108	C	1.507952	0.119406	0.741183
C109	C	1.077596	-0.380577	0.241217
C110	C	1.577596	0.119423	0.741217
C111	C	0.844577	-0.380620	0.404529
C112	C	1.344577	0.119380	0.904529
C113	C	0.844600	-0.380613	0.474172
C114	C	1.344600	0.119387	0.974172
C115	C	0.877624	-0.174411	0.274231
C116	C	1.377624	0.325589	0.774231
C117	C	0.891730	-0.086530	0.288348
C118	C	1.391730	0.413470	0.788348
C119	C	0.844513	-0.380594	0.078322
C120	C	1.344513	0.119406	0.578322
C121	C	0.844647	-0.380379	0.008716
C122	C	1.344647	0.119621	0.508716
C123	C	0.892791	-0.330032	0.515029
C124	C	1.392791	0.169968	1.015029
C125	C	0.892795	-0.329998	0.580470
C126	C	1.392795	0.170002	1.080470
C127	C	0.844613	-0.380559	0.605049
C128	C	1.344613	0.119441	1.105049
C129	C	0.796414	-0.431143	0.564183
C130	C	1.296414	0.068857	1.064183
C131	C	0.796408	-0.431170	0.498744
C132	C	1.296408	0.068830	0.998744
C133	C	0.828245	-0.451751	0.697290
C134	C	1.328245	0.048249	1.197290
C135	C	0.828256	-0.451726	0.762727
C136	C	1.328256	0.048274	1.262727
C137	C	0.844631	-0.380475	0.806883
C138	C	1.344631	0.119525	1.306883
C139	C	0.861008	-0.309248	0.785594
C140	C	1.361008	0.190752	1.285594
C141	C	0.861002	-0.309275	0.720155
C142	C	1.361002	0.190725	1.220155
C143	C	0.844615	-0.380535	0.676005
C144	C	1.344615	0.119465	1.176005
C145	C	0.892829	-0.329853	0.918699
C146	C	1.392829	0.170147	1.418699
C147	C	0.892830	-0.329818	0.984142
C148	C	1.392830	0.170182	1.484142
C149	C	0.796451	-0.430971	0.967852
C150	C	1.296451	0.069029	1.467852
C151	C	0.796448	-0.430999	0.902413
C152	C	1.296448	0.069001	1.402413
C153	C	0.844641	-0.380441	0.877840
C154	C	1.344641	0.119559	1.377840
H155	H	0.068983	-0.472450	0.299043
H156	H	0.568983	0.027550	0.799043
Cl157	Cl	0.799604	-1.097304	0.196063
Cl158	Cl	1.299604	-0.597304	0.696063
Cl159	Cl	0.774850	-1.066676	0.171071
Cl160	Cl	1.274850	-0.566676	0.671071
H161	H	0.874344	-0.251229	0.821545
H162	H	1.374344	0.248771	1.321545
H163	H	0.814745	-0.509757	0.661345
H164	H	1.314745	-0.009757	1.161345
Cl165	Cl	0.881585	-0.219737	0.693393
Cl166	Cl	1.381585	0.280263	1.193393
Cl167	Cl	0.699235	-0.973645	0.095531
Cl168	Cl	1.199235	-0.473645	0.595531
H169	H	0.932067	-0.288682	0.898692
H170	H	1.432067	0.211318	1.398692
Cl171	Cl	0.454522	-0.494983	0.312993
Cl172	Cl	0.954522	0.005017	0.812993
H173	H	0.757162	-0.472359	0.465478
H174	H	1.257162	0.027641	0.965478
H175	H	0.932072	-0.288624	1.017408
H176	H	1.432072	0.211376	1.517408
Cl177	Cl	0.980455	-1.096991	0.377221
Cl178	Cl	1.480455	-0.596991	0.877221
H179	H	0.699654	-0.831539	0.095967
H180	H	1.199654	-0.331539	0.595967
Cl181	Cl	0.420839	-0.366362	0.115967
Cl182	Cl	0.920839	0.133638	0.615967
H183	H	0.620699	-0.288824	0.183185
H184	H	1.120699	0.211176	0.683185
Cl185	Cl	0.735841	-0.494703	0.595081
Cl186	Cl	1.235841	0.005297	1.095081
Cl187	Cl	1.010275	-0.910613	0.407113
Cl188	Cl	1.510275	-0.410613	0.907113
H189	H	0.757209	-0.472192	0.869145
H190	H	1.257209	0.027808	1.369145
Cl191	Cl	0.491088	-0.266373	0.169119
Cl192	Cl	0.991088	0.233627	0.669119
Cl193	Cl	0.708803	-0.663470	0.105143
Cl194	Cl	1.208803	-0.163470	0.605143
Cl195	Cl	0.735874	-0.494527	0.998746
Cl196	Cl	1.235874	0.005473	1.498746
H197	H	0.814924	-0.509723	0.780055
H198	H	1.314924	-0.009723	1.280055
Cl199	Cl	0.602206	-0.495025	0.312933
Cl200	Cl	1.102206	0.004975	0.812933
H201	H	0.283749	-0.392137	0.341686
H202	H	0.783749	0.107863	0.841686
H203	H	0.402455	-0.392173	0.341639
H204	H	0.902455	0.107827	0.841639
Cl205	Cl	0.953372	-0.266469	0.484142
Cl206	Cl	1.453372	0.233531	0.984142
H207	H	0.187684	-0.472490	0.298989
H208	H	0.687684	0.027510	0.798989
Cl209	Cl	0.914299	-0.693787	0.311409
Cl210	Cl	1.414299	-0.193787	0.811409
H211	H	0.098368	-0.288702	0.183390
H212	H	0.598368	0.211298	0.683390
Cl213	Cl	0.235153	-0.266308	0.169220
Cl214	Cl	0.735153	0.233692	0.669220
Cl215	Cl	0.990026	-0.786825	0.386845
Cl216	Cl	1.490026	-0.286825	0.886845
Cl217	Cl	0.953372	-0.266389	0.631845
Cl218	Cl	1.453372	0.233611	1.131845
H219	H	0.868984	-0.681486	0.265607
H220	H	1.368984	-0.181486	0.765607
Cl221	Cl	0.273159	-0.366316	0.116029
Cl222	Cl	0.773159	0.133684	0.616029
