data_functionalizedCrystal
_audit_creation_method	'MofGen! by Chris Wilmer'
_symmetry_space_group_name_H-M	'P1'
_symmetry_Int_Tables_number	1
_symmetry_cell_setting	triclinic
loop_
_symmetry_equiv_pos_as_xyz
  x,y,z
_cell_length_a	17.699083
_cell_length_b	15.944551
_cell_length_c	16.776229
_cell_angle_alpha	89.992397
_cell_angle_beta	89.998886
_cell_angle_gamma	83.390877
loop_
_atom_site_label
_atom_site_type_symbol
_atom_site_fract_x
_atom_site_fract_y
_atom_site_fract_z
O1	O	1.004260	0.106222	-0.066178
O2	O	0.783905	0.120042	-0.066204
O3	O	0.900100	-0.009156	-0.066183
O4	O	0.888065	0.235419	-0.066199
O5	O	0.900084	-0.009164	0.066393
O6	O	0.783890	0.120034	0.066372
O7	O	1.004244	0.106214	0.066398
Zn8	Zn	0.894065	0.113123	0.087435
Zn9	Zn	0.894085	0.113133	-0.087241
O10	O	0.888050	0.235411	0.066377
C11	C	0.755700	0.119542	0.000080
C12	C	0.671679	0.118057	0.000071
C13	C	0.623187	0.193893	0.000066
C14	C	0.544242	0.192492	0.000076
C15	C	0.513789	0.115254	0.000086
C16	C	0.562287	0.039412	0.000093
C17	C	0.641231	0.040814	0.000088
C18	C	0.243914	0.033758	0.000113
C19	C	0.164964	0.032362	0.000115
C20	C	0.146925	0.185436	0.000101
C21	C	0.225869	0.186837	0.000096
C22	C	0.274360	0.110996	0.000108
C23	C	0.359962	0.112516	0.000098
C24	C	0.428189	0.113733	0.000090
C25	C	0.899593	-0.040453	0.000105
C26	C	0.898095	-0.133696	0.000105
C27	C	0.822492	-0.348393	0.000085
C28	C	0.857592	-0.409488	0.065458
C29	C	0.895385	-0.304416	0.000099
C30	C	0.857624	-0.409464	-0.065252
C31	C	0.892762	-0.469323	0.000089
C32	C	0.930505	-0.364283	0.065525
C33	C	0.930527	-0.364252	-0.065244
C34	C	0.965680	-0.425329	0.000145
C35	C	0.896894	-0.209417	0.000105
C36	C	0.891259	-0.564321	0.000089
C37	C	1.032450	0.106713	0.000112
C38	C	1.116471	0.108199	0.000116
C39	C	0.888557	0.266708	0.000087
C40	C	0.890055	0.359951	0.000082
N41	N	0.894056	0.113115	0.206646
N42	N	0.894099	0.113134	-0.206452
C43	C	0.945523	0.055930	0.248372
C44	C	0.945527	0.055929	0.331824
C45	C	0.894068	0.113118	0.373549
C46	C	0.842595	0.170306	0.331816
C47	C	0.842588	0.170302	0.248366
C48	C	0.842623	0.170323	0.668364
C49	C	0.842636	0.170324	0.751820
C50	C	0.945562	0.055949	0.751822
C51	C	0.945555	0.055945	0.668372
C52	C	0.894080	0.113130	0.626647
C53	C	0.894075	0.113129	0.536158
C54	C	0.894076	0.113124	0.464036
H55	H	0.680713	-0.020940	0.000091
C56	C	1.046418	-0.469738	0.000018
C57	C	1.057839	-0.519686	-0.068520
C58	C	1.132211	-0.560587	-0.068672
H59	H	1.054086	-0.504480	0.045976
H60	H	1.081455	-0.428854	0.000435
H61	H	1.022813	-0.560565	-0.068929
H62	H	1.050187	-0.484964	-0.114488
H63	H	1.167248	-0.519703	-0.068255
H64	H	1.139872	-0.595325	-0.022712
H65	H	1.139972	-0.594475	-0.115178
C66	C	0.786809	0.232361	0.377259
C67	C	0.797844	0.220144	0.459273
C68	C	0.746475	0.277304	0.501156
H69	H	0.736263	0.223364	0.363688
H70	H	0.795034	0.288427	0.363615
H71	H	0.789613	0.164091	0.472910
H72	H	0.848379	0.229147	0.472867
H73	H	0.754700	0.333370	0.487513
H74	H	0.695933	0.268302	0.487580
H75	H	0.753960	0.269028	0.556807
C76	C	0.258822	0.270760	-0.000039
C77	C	0.234154	0.316607	-0.068239
C78	C	0.264483	0.393927	-0.068384
H79	H	0.312781	0.260859	-0.000084
H80	H	0.242156	0.302021	0.046168
H81	H	0.250825	0.285353	-0.114434
H82	H	0.180199	0.326531	-0.068209
H83	H	0.247817	0.425188	-0.022176
H84	H	0.318441	0.384018	-0.068426
H85	H	0.247745	0.425047	-0.114652
H86	H	0.800678	0.216867	0.214393
H87	H	0.826754	-0.429535	0.120718
H88	H	0.504763	0.254246	0.000072
C89	C	0.786671	0.232450	0.796979
C90	C	0.741574	0.282513	0.742578
C91	C	0.690009	0.339741	0.784149
H92	H	0.813807	0.267463	0.829526
H93	H	0.755135	0.202292	0.829526
H94	H	0.773107	0.312669	0.710044
H95	H	0.714422	0.247523	0.710029
H96	H	0.658472	0.309583	0.816696
H97	H	0.717151	0.374748	0.816694
H98	H	0.659400	0.373710	0.747244
H99	H	0.647975	0.256789	0.000058
H100	H	0.107434	0.247189	0.000096
C101	C	0.741776	-0.303921	0.000035
C102	C	0.703410	-0.327836	-0.067775
C103	C	0.629052	-0.286895	-0.067839
H104	H	0.743179	-0.244548	-0.000481
H105	H	0.715952	-0.319313	0.046503
H106	H	0.729227	-0.312438	-0.114231
H107	H	0.701986	-0.387202	-0.067274
H108	H	0.603228	-0.302288	-0.021371
H109	H	0.630463	-0.227524	-0.068352
H110	H	0.603009	-0.303122	-0.113842
C111	C	0.816632	-0.436291	-0.138973
C112	C	0.866489	-0.491908	-0.184184
C113	C	0.828746	-0.516643	-0.252091
H114	H	0.799741	-0.387942	-0.170048
H115	H	0.774105	-0.463709	-0.123290
H116	H	0.909003	-0.464489	-0.199869
H117	H	0.883382	-0.540269	-0.153134
H118	H	0.786218	-0.544061	-0.236408
H119	H	0.811856	-0.468289	-0.283159
H120	H	0.862565	-0.554387	-0.282771
H121	H	0.140173	-0.030538	0.000124
C122	C	0.296428	-0.048673	0.000081
C123	C	0.252859	-0.116611	0.000067
C124	C	0.301212	-0.192562	0.000027
H125	H	0.327616	-0.051432	0.046301
H126	H	0.327589	-0.051356	-0.046170
H127	H	0.221711	-0.113929	0.046313
H128	H	0.221673	-0.113880	-0.046150
H129	H	0.332373	-0.195245	-0.046224
H130	H	0.332398	-0.195312	0.046248
H131	H	0.271658	-0.238667	0.000010
H132	H	0.537486	-0.023476	0.000112
C133	C	0.971512	-0.337554	0.139273
C134	C	0.972389	-0.249863	0.138444
C135	C	1.010145	-0.225207	0.206373
H136	H	1.022250	-0.364505	0.139539
H137	H	0.945780	-0.353349	0.185653
H138	H	0.998123	-0.234075	0.092077
H139	H	0.921661	-0.222890	0.138191
H140	H	0.984413	-0.241003	0.252753
H141	H	1.060881	-0.252164	0.206632
H142	H	1.010739	-0.165706	0.205823
C143	C	0.971491	-0.337347	-0.138954
C144	C	0.922017	-0.280513	-0.183370
C145	C	0.959723	-0.255699	-0.251278
H146	H	0.987562	-0.385542	-0.170557
H147	H	1.014554	-0.310855	-0.123283
H148	H	0.878968	-0.307006	-0.199043
H149	H	0.905944	-0.232306	-0.151791
H150	H	1.002786	-0.229207	-0.235607
H151	H	0.975792	-0.303899	-0.282874
H152	H	0.926163	-0.217129	-0.281420
C153	C	1.001429	-0.006258	0.203219
C154	C	1.046487	-0.056353	0.257628
C155	C	1.097989	-0.113660	0.216065
H156	H	1.033004	0.023813	0.170653
H157	H	0.974220	-0.041234	0.170692
H158	H	1.073694	-0.021381	0.290141
H159	H	1.014933	-0.086443	0.290196
H160	H	1.070780	-0.148637	0.183538
H161	H	1.129558	-0.083582	0.183500
H162	H	1.128562	-0.147662	0.252975
H163	H	0.987435	0.009364	0.365798
C164	C	1.001458	-0.006242	0.623216
C165	C	1.046519	-0.056340	0.677621
C166	C	1.098017	-0.113646	0.636054
H167	H	1.033032	0.023830	0.590648
H168	H	0.974247	-0.041216	0.590690
H169	H	1.073728	-0.021369	0.710133
H170	H	1.014966	-0.086429	0.710190
H171	H	1.070806	-0.148621	0.603528
H172	H	1.129586	-0.083568	0.603488
H173	H	1.128592	-0.147649	0.672961
C174	C	1.001321	-0.006243	0.797170
C175	C	0.961011	-0.057622	0.845074
C176	C	1.012349	-0.114926	0.886849
H177	H	1.032847	0.023832	0.829782
H178	H	1.031959	-0.040350	0.760394
H179	H	0.930386	-0.023519	0.881845
H180	H	0.929488	-0.087715	0.812481
H181	H	1.042987	-0.149033	0.850074
H182	H	1.043873	-0.084845	0.919457
H183	H	0.985006	-0.149799	0.919351
H184	H	0.800712	0.216886	0.634398
