data_functionalizedCrystal
_audit_creation_method	'MofGen! by Chris Wilmer'
_symmetry_space_group_name_H-M	'P1'
_symmetry_Int_Tables_number	1
_symmetry_cell_setting	triclinic
loop_
_symmetry_equiv_pos_as_xyz
  x,y,z
_cell_length_a	10.685980
_cell_length_b	10.686139
_cell_length_c	10.686551
_cell_angle_alpha	98.409931
_cell_angle_beta	81.591741
_cell_angle_gamma	81.618430
loop_
_atom_site_label
_atom_site_type_symbol
_atom_site_fract_x
_atom_site_fract_y
_atom_site_fract_z
Zn1	Zn	-1.972035	-0.286478	0.842933
Zn2	Zn	-1.936414	-0.518023	0.611457
Zn3	Zn	-1.740512	-0.322051	0.611446
Zn4	Zn	-1.740548	-0.517898	0.807377
O5	O	-1.847377	-0.411113	0.718303
O6	O	-2.146173	-0.302357	0.827112
O7	O	-1.895505	-0.506966	0.432583
O8	O	-1.786117	-0.138467	0.657028
O9	O	-2.120003	-0.472472	0.657047
O10	O	-1.956216	-0.112332	0.827101
O11	O	-1.751577	-0.362987	0.432575
O12	O	-1.561654	-0.362866	0.622552
O13	O	-1.786178	-0.472260	0.990965
O14	O	-1.561680	-0.506754	0.766502
O15	O	-1.956250	-0.302237	1.017088
O16	O	-1.895539	-0.696871	0.622570
O17	O	-1.751637	-0.696780	0.766512
C18	C	-1.515289	-0.438658	0.690668
C19	C	-1.373221	-0.450470	0.678873
C20	C	-1.819764	-0.743198	0.690715
C21	C	-1.808071	-0.885252	0.678965
C22	C	-1.875191	-0.383267	1.051703
C23	C	-1.887044	-0.371400	1.193778
C24	C	-2.180762	-0.383460	0.746047
C25	C	-2.322831	-0.371677	0.757870
C26	C	-1.875136	-0.077725	0.746030
C27	C	-1.886965	0.064345	0.757845
C28	C	-1.819753	-0.438752	0.386214
C29	C	-1.808178	-0.450237	0.244190
H30	H	-1.388377	-0.295174	0.834524
O31	O	-1.978375	0.142341	0.849320
C32	C	-2.049373	0.066955	0.920262
H33	H	-1.989560	-0.032205	0.912495
H34	H	-2.074587	0.115153	1.025289
H35	H	-2.141381	0.056960	0.880370
O36	O	-1.716936	-0.541763	1.166069
C37	C	-1.736934	-0.664148	1.190350
H38	H	-1.841538	-0.659088	1.235097
H39	H	-1.713433	-0.735461	1.096339
H40	H	-1.672001	-0.696860	1.259246
H41	H	-1.963642	-0.294826	1.259317
O42	O	-1.295158	-0.541902	0.587470
C43	C	-1.319400	-0.664344	0.607306
H44	H	-1.420228	-0.654993	0.664175
H45	H	-1.311370	-0.728865	0.510576
H46	H	-1.246208	-0.708186	0.663202
O47	O	-1.716637	0.036444	0.587767
C48	C	-1.633782	-0.041519	0.647323
H49	H	-1.685309	-0.049561	0.746308
H50	H	-1.604580	-0.141203	0.586108
H51	H	-1.544459	0.003161	0.657711
