data_functionalizedCrystal
_audit_creation_method	'MofGen! by Chris Wilmer'
_symmetry_space_group_name_H-M	'P1'
_symmetry_Int_Tables_number	1
_symmetry_cell_setting	triclinic
loop_
_symmetry_equiv_pos_as_xyz
  x,y,z
_cell_length_a	11.792241
_cell_length_b	8.559649
_cell_length_c	7.088929
_cell_angle_alpha	84.655564
_cell_angle_beta	96.250633
_cell_angle_gamma	76.986040
loop_
_atom_site_label
_atom_site_type_symbol
_atom_site_fract_x
_atom_site_fract_y
_atom_site_fract_z
O1	O	1.473819	0.235133	-0.158798
O2	O	1.141410	0.257691	-0.158841
O3	O	1.336900	0.014063	-0.158812
O4	O	1.278329	0.478761	-0.158827
O5	O	1.363032	-0.018570	0.159167
O6	O	1.167542	0.225058	0.159138
O7	O	1.499951	0.202500	0.159181
Cu8	Cu	1.336132	0.210800	0.188194
Cu9	Cu	1.305229	0.249391	-0.187853
O10	O	1.304461	0.446128	0.159152
C11	C	1.112314	0.239959	0.000142
C12	C	0.986687	0.235720	0.000126
C13	C	1.286956	0.521936	0.000161
C14	C	1.273743	0.699202	0.000157
C15	C	1.354405	-0.061745	0.000174
C16	C	1.367616	-0.239009	0.000167
C17	C	0.756693	0.227917	0.000181
C18	C	0.884679	0.232252	0.000150
C19	C	1.529047	0.220233	0.000193
C20	C	1.654672	0.224473	0.000198
N21	N	1.357877	0.183655	0.452685
N22	N	1.283494	0.276523	-0.452345
H23	H	1.458094	0.678275	0.000190
C24	C	1.151503	0.810952	0.000135
N25	N	1.059433	0.895124	0.000115
H26	H	1.434978	0.087423	0.534352
H27	H	1.206406	0.372761	0.465998
