data_functionalizedCrystal
_audit_creation_method	'MofGen! by Chris Wilmer'
_symmetry_space_group_name_H-M	'P1'
_symmetry_Int_Tables_number	1
_symmetry_cell_setting	triclinic
loop_
_symmetry_equiv_pos_as_xyz
  x,y,z
_cell_length_a	17.077404
_cell_length_b	18.215399
_cell_length_c	17.077402
_cell_angle_alpha	89.968846
_cell_angle_beta	90.020853
_cell_angle_gamma	89.984555
loop_
_atom_site_label
_atom_site_type_symbol
_atom_site_fract_x
_atom_site_fract_y
_atom_site_fract_z
Zn1	Zn	1.200032	-0.416085	-0.312540
Zn2	Zn	1.199946	-0.293017	-0.443818
Zn3	Zn	1.068771	-0.293035	-0.312566
Zn4	Zn	1.068732	-0.416045	-0.443763
O5	O	1.134370	-0.354545	-0.378172
O6	O	1.309867	-0.399769	-0.329967
O7	O	1.182525	-0.190035	-0.426441
O8	O	1.086235	-0.309382	-0.202715
O9	O	1.309804	-0.309351	-0.426416
O10	O	1.182672	-0.399786	-0.202697
O11	O	1.086151	-0.190048	-0.330010
O12	O	0.958918	-0.309343	-0.329957
O13	O	1.086169	-0.519034	-0.426322
O14	O	0.958890	-0.399718	-0.426347
O15	O	1.182635	-0.519064	-0.329913
O16	O	1.182488	-0.309312	-0.553658
O17	O	1.086085	-0.399700	-0.553617
C18	C	0.930422	-0.354529	-0.378149
C19	C	0.843172	-0.354539	-0.378159
C20	C	0.802216	-0.401691	-0.328027
C21	C	0.720236	-0.401695	-0.328032
C22	C	0.679213	-0.354549	-0.378174
C23	C	0.720175	-0.307392	-0.428308
C24	C	0.802154	-0.307385	-0.428298
C25	C	0.549305	-0.307410	-0.428325
C26	C	0.467320	-0.307417	-0.428336
C27	C	0.467387	-0.401720	-0.328059
C28	C	0.549365	-0.401713	-0.328050
C29	C	0.590322	-0.354556	-0.378185
C30	C	1.134407	-0.546498	-0.378109
C31	C	1.134423	-0.628297	-0.378082
C32	C	1.084283	-0.816499	-0.327837
C33	C	1.084297	-0.893358	-0.327821
C34	C	1.184656	-0.893333	-0.428234
C35	C	1.184638	-0.816476	-0.428253
C36	C	1.134453	-0.778061	-0.378050
C37	C	1.134485	-0.931777	-0.378015
C38	C	1.134500	-1.015111	-0.377998
C39	C	1.134436	-0.694722	-0.378068
C40	C	1.339114	-0.354562	-0.378195
C41	C	1.426364	-0.354569	-0.378204
C42	C	1.134294	-0.354516	-0.582120
C43	C	1.134334	-0.354528	-0.669369
C44	C	1.134378	-0.163339	-0.378178
C45	C	1.134515	-0.081541	-0.377983
C46	C	1.184582	-0.307513	-0.710354
C47	C	1.184620	-0.307532	-0.792335
C48	C	1.134406	-0.354562	-0.833329
C49	C	1.084156	-0.401582	-0.792338
C50	C	1.084122	-0.401566	-0.710359
C51	C	1.084228	-0.401610	-0.963208
C52	C	1.084261	-0.401625	-1.045193
C53	C	1.184727	-0.307576	-1.045184
C54	C	1.184693	-0.307560	-0.963205
C55	C	1.134441	-0.354579	-0.922220
C56	C	1.134467	-0.354591	-0.173427
C57	C	1.134509	-0.354610	-0.086178
H58	H	0.434036	-0.440115	-0.287236
H59	H	1.043311	-0.439900	-0.929841
H60	H	0.433922	-0.269028	-0.469166
H61	H	1.225646	-0.269294	-1.078558
H62	H	1.225516	-0.924620	-0.469107
H63	H	0.582649	-0.269008	-0.469149
C64	C	1.029764	-0.452687	-0.836944
C65	C	1.074196	-0.499888	-0.883954
C66	C	1.024114	-0.546968	-0.925063
H67	H	0.999815	-0.480756	-0.800883
H68	H	0.995606	-0.424531	-0.869017
H69	H	1.108340	-0.528042	-0.851884
H70	H	1.104143	-0.471839	-0.920030
H71	H	0.989956	-0.518812	-0.957136
H72	H	0.994168	-0.575033	-0.888996
H73	H	1.054254	-0.578995	-0.956969
C74	C	1.029850	-0.452814	-1.089665
C75	C	1.046910	-0.525639	-1.069674
C76	C	0.996812	-0.572816	-1.110636
H77	H	0.977078	-0.442105	-1.076318
H78	H	1.037077	-0.446133	-1.144364
H79	H	1.039677	-0.532316	-1.014986
H80	H	1.099673	-0.536371	-1.083023
H81	H	1.004039	-0.566135	-1.165335
H82	H	0.944043	-0.562100	-1.097285
H83	H	1.008385	-0.622233	-1.097083
H84	H	1.225494	-0.785178	-0.469146
H85	H	1.043206	-0.439851	-0.676990
C86	C	1.029799	-0.934958	-0.273215
C87	C	0.985862	-0.884863	-0.229244
C88	C	0.935655	-0.923157	-0.178924
H89	H	0.995518	-0.964931	-0.303144
H90	H	1.059832	-0.964937	-0.238967
H91	H	0.955831	-0.854896	-0.263487
H92	H	1.020122	-0.854888	-0.199299
H93	H	0.965687	-0.953136	-0.144676
H94	H	0.901379	-0.953129	-0.208859
H95	H	0.905843	-0.889173	-0.149078
H96	H	1.225577	-0.269261	-0.929828
C97	C	1.239016	-0.256478	-0.665709
C98	C	1.228219	-0.266510	-0.585142
C99	C	1.278345	-0.219503	-0.543993
H100	H	1.291788	-0.267250	-0.679000
H101	H	1.227559	-0.207008	-0.679148
H102	H	1.239681	-0.315969	-0.571708
H103	H	1.175457	-0.255734	-0.571828
H104	H	1.266889	-0.170033	-0.557433
H105	H	1.331114	-0.230278	-0.557291
H106	H	1.271022	-0.226299	-0.489325
H107	H	0.835611	-0.440085	-0.287198
C108	C	1.029747	-0.774696	-0.273467
C109	C	0.979420	-0.730543	-0.317922
C110	C	0.929173	-0.692018	-0.267865
H111	H	0.999793	-0.808514	-0.243543
H112	H	1.059759	-0.744682	-0.239285
H113	H	0.949410	-0.760553	-0.352091
H114	H	1.009351	-0.696711	-0.347845
H115	H	0.959186	-0.662004	-0.233682
H116	H	0.899225	-0.725841	-0.237943
H117	H	0.895025	-0.662050	-0.298019
H118	H	1.225536	-0.269248	-0.825701
H119	H	0.686892	-0.440092	-0.287211
H120	H	0.686768	-0.269001	-0.469130
C121	C	0.593765	-0.452927	-0.273525
C122	C	0.540353	-0.494211	-0.229604
C123	C	0.581225	-0.541389	-0.179358
H124	H	0.625754	-0.485003	-0.303505
H125	H	0.625725	-0.424843	-0.239241
H126	H	0.508406	-0.522293	-0.263884
H127	H	0.508362	-0.462155	-0.199609
H128	H	0.613185	-0.513305	-0.145075
H129	H	0.613213	-0.573460	-0.209344
H130	H	0.544991	-0.569401	-0.149547
C131	C	0.846483	-0.256166	-0.482817
C132	C	0.793013	-0.214893	-0.526748
C133	C	0.833818	-0.167707	-0.576986
H134	H	0.878461	-0.224083	-0.452831
H135	H	0.878448	-0.284242	-0.517095
H136	H	0.761061	-0.186819	-0.492475
H137	H	0.761033	-0.246957	-0.556750
H138	H	0.865784	-0.195783	-0.611263
H139	H	0.865795	-0.135628	-0.546993
H140	H	0.797546	-0.139703	-0.606804
