data_functionalizedCrystal
_audit_creation_method	'MofGen! by Chris Wilmer'
_symmetry_space_group_name_H-M	'P1'
_symmetry_Int_Tables_number	1
_symmetry_cell_setting	triclinic
loop_
_symmetry_equiv_pos_as_xyz
  x,y,z
_cell_length_a	14.560438
_cell_length_b	14.628931
_cell_length_c	14.628931
_cell_angle_alpha	59.999972
_cell_angle_beta	90.001529
_cell_angle_gamma	60.001476
loop_
_atom_site_label
_atom_site_type_symbol
_atom_site_fract_x
_atom_site_fract_y
_atom_site_fract_z
Zr1	Zr	0.884754	1.000594	-0.119948
O2	O	0.738108	1.191297	-0.265911
O3	O	0.929709	0.809889	-0.075202
O4	O	0.929708	1.000594	-0.265908
O5	O	0.738108	1.000591	0.075226
O6	O	1.080847	1.000597	-0.265906
O7	O	0.738108	1.000591	-0.075206
O8	O	1.080847	0.659459	0.075232
O9	O	0.738108	1.341729	-0.265912
O10	O	1.061674	0.888331	-0.056117
O11	O	0.948882	0.888329	0.056147
O12	O	0.948882	1.112860	-0.168385
O13	O	0.836089	1.112858	-0.056121
Zr14	Zr	1.125802	1.000598	0.119977
Zr15	Zr	1.125802	1.000598	-0.119944
Zr16	Zr	0.884754	1.000594	0.119973
Zr17	Zr	0.884754	1.240515	-0.119948
Zr18	Zr	1.125802	0.760676	0.119978
O19	O	1.080848	1.191302	0.075232
O20	O	1.080847	1.191302	-0.265906
O21	O	0.738108	1.191297	0.075226
O22	O	1.272449	0.809895	0.265941
O23	O	1.272448	0.809895	-0.075197
O24	O	0.929709	0.809889	0.265935
O25	O	1.272448	1.000600	-0.075197
O26	O	1.080848	1.000597	0.265937
O27	O	0.929710	1.000594	0.265935
O28	O	1.272448	1.000600	0.075235
O29	O	0.929709	1.341732	-0.265909
O30	O	1.080847	0.659459	0.265938
O31	O	1.272448	0.659463	0.265941
O32	O	1.272448	0.659463	0.075235
O33	O	0.738108	1.341729	-0.075206
O34	O	0.929709	1.341732	-0.075203
O35	O	1.061675	0.888331	0.168414
O36	O	1.174467	0.888333	0.056150
O37	O	1.061675	1.112862	-0.056117
O38	O	0.948882	1.112860	0.056146
C39	C	1.005278	0.700490	0.000015
C40	C	1.005277	0.598637	0.000015
C41	C	0.703764	1.000590	0.000010
C42	C	0.601433	1.000589	0.000008
C43	C	1.061230	0.553229	-0.055675
C44	C	1.061231	0.447959	-0.055676
C45	C	0.612231	0.883389	0.058610
C46	C	0.516076	0.883395	0.058621
C47	C	0.398328	1.117811	-0.058583
C48	C	0.494482	1.117804	-0.058586
C49	C	0.719182	0.766174	0.117205
C50	C	0.729984	0.648964	0.175811
C51	C	0.633829	0.648971	0.175821
C52	C	0.526872	0.766186	0.117225
C53	C	1.306792	1.000601	0.000019
C54	C	1.409124	1.000602	0.000021
C55	C	1.005277	1.000596	-0.300091
C56	C	1.005277	1.000596	-0.401944
C57	C	1.005279	1.300701	0.000014
C58	C	1.005279	1.402554	0.000014
C59	C	1.084406	1.000597	-0.447352
C60	C	1.084408	1.000597	-0.552622
C61	C	1.005279	1.000596	0.300120
C62	C	1.005279	1.000596	0.401973
C63	C	1.306792	0.700495	0.000020
C64	C	1.409123	0.598644	0.000022
C65	C	1.005278	0.700490	0.300120
C66	C	1.005278	0.598637	0.401973
C67	C	1.306793	0.700495	0.300125
C68	C	1.409124	0.598644	0.401980
C69	C	0.703764	1.300696	-0.300096
C70	C	0.601432	1.402547	-0.401951
C71	C	0.703764	1.300696	0.000009
C72	C	0.601433	1.402547	0.000008
C73	C	1.005278	1.300701	-0.300091
C74	C	1.005278	1.402554	-0.401944
C75	C	1.398792	0.553235	-0.055670
C76	C	1.504556	0.447966	-0.055669
C77	C	1.061231	0.553229	0.503075
C78	C	1.061233	0.447959	0.608347
C79	C	1.510699	0.553237	0.391699
C80	C	1.616465	0.447968	0.496970
H81	H	1.109138	0.592281	-0.103349
F82	F	1.284892	0.604286	-0.117999
H83	H	0.448580	0.766182	0.117244
H84	H	0.642630	0.553533	0.223549
F85	F	0.843814	0.524223	0.238184
H86	H	1.614803	0.441601	0.047714
H87	H	0.311238	1.213242	-0.106292
F88	F	0.916732	1.000585	-0.452987
F89	F	0.916719	1.000603	-0.547000
H90	H	1.496267	0.559592	0.047697
F91	F	0.482990	1.242541	-0.120954
F92	F	1.172962	1.000589	-0.396300
H93	H	1.109137	0.408907	0.695078
H94	H	0.957371	0.559583	0.393352
F95	F	1.123838	0.604285	0.514350
F96	F	0.821522	0.766158	0.117193
F97	F	1.493219	0.396921	-0.117986
F98	F	1.123840	0.396927	-0.118005
H99	H	1.518996	0.441600	0.606701
H100	H	1.400463	0.559590	0.488716
H101	H	0.957380	0.441592	0.511331
H102	H	1.152150	1.000605	-0.591674
F103	F	1.522026	0.604290	0.278331
F104	F	1.730359	0.396925	0.485688
H105	H	0.957368	0.441603	0.047690
H106	H	0.957378	0.559576	0.047696
