data_functionalizedCrystal
_audit_creation_method	'MofGen! by Chris Wilmer'
_symmetry_space_group_name_H-M	'P1'
_symmetry_Int_Tables_number	1
_symmetry_cell_setting	triclinic
loop_
_symmetry_equiv_pos_as_xyz
  x,y,z
_cell_length_a	23.096457
_cell_length_b	14.446369
_cell_length_c	14.446369
_cell_angle_alpha	120.007204
_cell_angle_beta	90.003754
_cell_angle_gamma	60.000829
loop_
_atom_site_label
_atom_site_type_symbol
_atom_site_fract_x
_atom_site_fract_y
_atom_site_fract_z
Zr1	Zr	0.557769	1.013270	0.121562
O2	O	0.465320	1.206402	0.269379
O3	O	0.586109	0.820147	0.076243
O4	O	0.586108	1.013286	0.269377
O5	O	0.465323	1.013246	-0.076097
O6	O	0.681388	1.013289	0.269383
O7	O	0.465321	1.013262	0.076244
O8	O	0.681390	0.667797	-0.076100
O9	O	0.465321	1.358738	0.269386
O10	O	0.669303	0.899579	0.056926
O11	O	0.598198	0.899565	-0.056769
O12	O	0.598196	1.126963	0.170622
O13	O	0.527091	1.126948	0.056928
Zr14	Zr	0.709733	1.013248	-0.121395
Zr15	Zr	0.709730	1.013274	0.121571
Zr16	Zr	0.557772	1.013244	-0.121404
Zr17	Zr	0.557770	1.256228	0.121574
Zr18	Zr	0.709731	0.770290	-0.121406
O19	O	0.681393	1.206371	-0.076075
O20	O	0.681389	1.206408	0.269392
O21	O	0.465324	1.206365	-0.076088
O22	O	0.802182	0.820115	-0.269212
O23	O	0.802178	0.820152	0.076255
O24	O	0.586112	0.820109	-0.269225
O25	O	0.802179	1.013271	0.076264
O26	O	0.681394	1.013231	-0.269210
O27	O	0.586113	1.013229	-0.269216
O28	O	0.802181	1.013255	-0.076077
O29	O	0.586110	1.358741	0.269393
O30	O	0.681392	0.667776	-0.269226
O31	O	0.802181	0.667780	-0.269219
O32	O	0.802179	0.667800	-0.076093
O33	O	0.465323	1.358717	0.076260
O34	O	0.586112	1.358721	0.076267
O35	O	0.669305	0.899555	-0.170455
O36	O	0.740411	0.899569	-0.056761
O37	O	0.669304	1.126952	0.056936
O38	O	0.598199	1.126938	-0.056758
C39	C	0.633749	0.709355	0.000070
C40	C	0.633749	0.606213	0.000065
C41	C	0.589117	0.459195	-0.071971
C42	C	0.588875	0.566815	-0.071679
C43	C	0.601032	0.655222	0.123608
C44	C	0.600697	0.547989	0.123234
C45	C	0.711128	0.372752	-0.050379
C46	C	0.711015	0.478903	-0.052900
C47	C	0.443671	1.013254	0.000072
C48	C	0.379159	1.013252	0.000069
C49	C	0.385970	0.894564	-0.059269
C50	C	0.325355	0.894562	-0.059274
C51	C	0.257929	1.013255	0.000081
C52	C	0.251120	1.131959	0.059421
C53	C	0.311735	1.131957	0.059415
N54	N	0.135132	1.101610	0.096673
N55	N	0.077553	1.101604	0.096677
C56	C	0.075296	1.013267	0.000101
N57	N	0.132800	0.924917	-0.096477
N58	N	0.190386	0.924920	-0.096479
C59	C	0.192197	1.013270	0.000094
C60	C	0.016383	0.894568	-0.059247
C61	C	-0.044235	0.894571	-0.059255
C62	C	-0.118470	1.131972	0.059451
C63	C	-0.057852	1.131965	0.059448
C64	C	0.009572	1.013260	0.000101
C65	C	0.823831	1.013264	0.000095
C66	C	0.888343	1.013266	0.000099
C67	C	0.633748	1.013291	0.303998
C68	C	0.633747	1.013302	0.407143
C69	C	0.633753	1.317162	0.000098
C70	C	0.633753	1.420304	0.000102
C71	C	0.588892	1.156730	0.518147
C72	C	0.588650	1.156789	0.625456
C73	C	0.601267	0.941637	0.518267
C74	C	0.600931	0.942583	0.411427
C75	C	0.711100	0.940482	0.410281
C76	C	0.710980	0.943154	0.518938
C77	C	0.633751	1.013244	0.696178
C78	C	0.633742	1.013284	0.593058
C79	C	0.823830	0.709361	0.000081
C80	C	0.888340	0.606220	0.000080
C81	C	0.633752	0.709323	-0.303844
C82	C	0.633753	0.606170	-0.406995
C83	C	0.823833	0.709328	-0.303833
C84	C	0.888345	0.606177	-0.406980
C85	C	0.443669	1.317190	0.304000
C86	C	0.379157	1.420341	0.407147
C87	C	0.443672	1.317157	0.000086
C88	C	0.379161	1.420297	0.000087
C89	C	0.633750	1.317195	0.304012
C90	C	0.633749	1.420348	0.407162
C91	C	0.881518	0.557790	0.059433
C92	C	0.942127	0.460892	0.059454
C93	C	1.009558	0.412420	0.000116
C94	C	1.016379	0.460860	-0.059238
C95	C	0.955771	0.557762	-0.059253
C96	C	0.955763	0.557743	-0.396071
C97	C	1.016385	0.460835	-0.492979
C98	C	1.009586	0.412356	-0.600795
C99	C	0.942161	0.460799	-0.611701
C100	C	0.881541	0.557712	-0.514794
C101	C	0.311739	1.468786	0.396238
C102	C	0.251117	1.565725	0.493146
C103	C	0.257915	1.614209	0.600962
C104	C	0.325341	1.565760	0.611868
C105	C	0.385961	1.468830	0.514961
C106	C	0.385984	1.468738	-0.059255
C107	C	0.325375	1.565662	-0.059250
C108	C	0.257944	1.614138	0.000091
C109	C	0.251123	1.565694	0.059441
C110	C	0.311731	1.468777	0.059442
C111	C	0.588689	0.459842	-0.481993
C112	C	0.588879	0.566780	-0.374650
C113	C	0.711017	0.479307	-0.481556
C114	C	0.710776	0.371915	-0.588428
C115	C	0.602193	0.546884	-0.590013
C116	C	0.600624	0.655372	-0.481327
H117	H	0.544639	0.747532	0.164297
C118	C	0.191279	1.720743	0.000073
N119	N	0.141070	1.801035	0.000051
H120	H	0.440884	1.429276	-0.107586
H121	H	0.532170	1.212455	0.519046
C122	C	0.934695	0.407447	-0.730309
N123	N	0.929074	0.367251	-0.819648
C124	C	1.076223	0.305815	0.000135
N125	N	1.126432	0.225515	0.000148
C126	C	0.090552	0.763992	-0.124543
N127	N	0.146415	0.665640	-0.173727
C128	C	-0.036737	0.763998	-0.124527
N129	N	-0.031090	0.665647	-0.173686
C130	C	1.090560	0.407516	-0.124516
N131	N	1.146435	0.367328	-0.173689
H132	H	0.747074	0.500411	-0.005866
C133	C	1.090546	0.407553	-0.480956
N134	N	1.146402	0.367421	-0.471898
H135	H	0.330868	1.605248	0.699663
C136	C	0.617991	0.338708	-0.480599
N137	N	0.640063	0.247466	-0.479554
H138	H	0.306190	1.429315	0.308458
H139	H	0.531801	0.655618	-0.036682
H140	H	0.196212	1.605177	0.107756
H141	H	0.610416	1.212968	0.679895
C142	C	0.460120	1.415535	0.526980
N143	N	0.515976	1.375396	0.536041
H144	H	0.544899	0.990785	0.569721
H145	H	0.196223	1.605156	0.484244
H146	H	0.196217	1.228599	0.107748
C147	C	1.076278	0.305738	-0.707385
N148	N	1.126512	0.225429	-0.787664
H149	H	0.330943	1.605090	-0.107584
H150	H	0.610777	0.529320	-0.320861
C151	C	0.807382	0.610975	-0.526813
N152	N	0.751526	0.651091	-0.535874
H153	H	0.306166	1.429340	0.107763
C154	C	0.191224	1.720825	0.707552
N155	N	0.140989	1.801122	0.787832
H156	H	0.531984	0.656135	-0.320377
H157	H	0.531649	0.497080	-0.479659
H158	H	-0.173368	1.228614	0.107780
C159	C	0.511561	1.232325	0.697916
N160	N	0.453494	1.289213	0.752489
C161	C	0.744912	0.249314	-0.588057
N162	N	0.770621	0.156976	-0.587769
H163	H	0.610820	0.530096	-0.162652
H164	H	0.746184	0.341950	-0.667013
H165	H	0.826618	0.597255	0.107767
C166	C	0.758358	0.509358	-0.518332
N167	N	0.794015	0.531997	-0.546026
C168	C	0.745399	0.427216	-0.411837
N169	N	0.771291	0.387980	-0.359323
H170	H	0.546158	0.586454	-0.594131
H171	H	0.961336	0.597182	-0.107592
C172	C	0.523772	0.602946	0.177771
N173	N	0.465828	0.644337	0.218827
H174	H	0.543703	0.745871	-0.429903
H175	H	0.747194	0.838492	0.493409
C176	C	0.524042	1.010563	0.411604
N177	N	0.466126	1.061772	0.411745
C178	C	0.640369	0.698758	-0.515817
N179	N	0.670313	0.731426	-0.541800
H180	H	0.936559	0.421464	0.107788
C181	C	0.748041	0.246138	-0.171415
N182	N	0.775835	0.150778	-0.262582
H183	H	0.634866	0.522086	-0.668233
C184	C	0.304239	1.262529	0.124705
N185	N	0.298593	1.360878	0.173887
H186	H	0.632382	0.836108	0.490991
C187	C	0.618601	0.339122	-0.195176
N188	N	0.640809	0.248673	-0.287978
C189	C	0.512471	0.507482	-0.025106
N190	N	0.454741	0.543853	0.010197
H191	H	-0.063401	1.228614	0.107775
C192	C	0.642230	0.800399	0.305216
N193	N	0.673331	0.693307	0.225223
C194	C	0.743764	1.013723	0.588643
N195	N	0.768455	1.066876	0.641152
C196	C	0.641782	0.518314	0.199716
N197	N	0.672725	0.495969	0.257324
C198	C	0.756269	0.337663	0.020197
N199	N	0.790264	0.311233	0.073359
C200	C	0.460134	0.763984	-0.124561
N201	N	0.515996	0.665630	-0.173742
C202	C	0.744049	0.425425	-0.175840
N203	N	0.768934	0.385166	-0.268431
C204	C	0.747782	1.002947	0.404973
N205	N	0.775403	1.050010	0.400981
H206	H	0.631981	0.684014	0.179629
C207	C	0.756457	0.797747	0.304577
N208	N	0.790615	0.690245	0.224957
H209	H	0.610541	1.213341	0.520664
H210	H	0.330901	0.797909	-0.107595
H211	H	0.961311	0.597201	-0.308291
