data_functionalizedCrystal
_audit_creation_method	'MofGen! by Chris Wilmer'
_symmetry_space_group_name_H-M	'P1'
_symmetry_Int_Tables_number	1
_symmetry_cell_setting	triclinic
loop_
_symmetry_equiv_pos_as_xyz
  x,y,z
_cell_length_a	12.784905
_cell_length_b	12.837942
_cell_length_c	11.892095
_cell_angle_alpha	85.697431
_cell_angle_beta	86.511728
_cell_angle_gamma	96.031870
loop_
_atom_site_label
_atom_site_type_symbol
_atom_site_fract_x
_atom_site_fract_y
_atom_site_fract_z
O1	O	1.417037	0.000739	-0.094010
O2	O	1.112037	-0.043253	-0.094011
O3	O	1.257773	0.129035	-0.094003
O4	O	1.271300	-0.171550	-0.094017
O5	O	1.245620	0.114690	0.094004
O6	O	1.099884	-0.057598	0.093996
O7	O	1.404883	-0.013606	0.093997
Zn8	Zn	1.250454	-0.037880	0.123847
Zn9	Zn	1.266467	-0.018980	-0.123860
O10	O	1.259147	-0.185895	0.093990
C11	C	1.066651	-0.053287	-0.000007
C12	C	0.949520	-0.061800	-0.000007
C13	C	0.735569	0.111644	-0.000020
C14	C	0.625514	0.103650	-0.000020
C15	C	0.619352	-0.085780	-0.000016
C16	C	0.729408	-0.077786	-0.000016
C17	C	0.787512	0.020929	-0.000016
C18	C	0.897569	0.028921	-0.000008
C19	C	0.891406	-0.160507	-0.000012
C20	C	0.781350	-0.168501	-0.000012
C21	C	1.247128	0.160072	-0.000001
C22	C	1.233500	0.273921	-0.000002
C23	C	1.450270	-0.003572	-0.000009
C24	C	1.567402	0.004941	-0.000016
N25	N	1.239534	-0.050777	0.292900
C26	C	1.269793	-0.216931	-0.000016
C27	C	1.283421	-0.330779	-0.000021
C28	C	1.397333	0.529648	-0.000026
C29	C	1.384533	0.636620	-0.000028
C30	C	1.195103	0.594840	-0.000016
C31	C	1.207902	0.487868	-0.000014
C32	C	1.309020	0.455276	-0.000017
C33	C	1.321819	0.348301	-0.000007
C34	C	1.132389	0.306524	-0.000004
C35	C	1.119590	0.413496	-0.000006
N36	N	1.277394	-0.006073	-0.292914
C37	C	1.353378	0.083731	0.529554
C38	C	1.345753	0.074710	0.647895
C39	C	1.216654	-0.077838	0.647927
C40	C	1.224279	-0.068816	0.529585
C41	C	1.292644	0.011970	0.470403
C42	C	1.300274	0.020987	0.352059
C43	C	1.171170	-0.131555	0.352093
C44	C	1.163545	-0.140577	0.470435
H45	H	1.404154	0.321768	-0.000006
O46	O	1.373989	0.108125	0.288211
H47	H	1.455968	0.100688	0.310898
H48	H	1.160985	-0.143606	0.696129
H49	H	1.409051	0.149505	0.481367
O50	O	1.010532	0.448656	0.000014
H51	H	1.005113	0.502242	-0.076608
O52	O	1.037127	0.226309	0.000001
H53	H	1.063012	0.146448	-0.000004
H54	H	1.107881	-0.206350	0.518635
H55	H	0.734027	-0.248871	-0.000017
H56	H	1.121720	-0.189990	0.303919
O57	O	0.798247	0.218106	-0.000000
H58	H	0.853499	0.232126	-0.076621
O59	O	0.569484	0.201489	-0.000009
H60	H	0.628380	0.271469	0.000002
O61	O	0.556675	-0.192246	-0.000006
H62	H	0.471421	-0.182559	0.000001
H63	H	1.479666	0.503111	-0.000017
O64	O	0.960247	0.135385	-0.000004
H65	H	0.945564	0.185106	-0.076640
O66	O	0.947426	-0.258360	-0.000013
H67	H	1.033718	-0.236221	-0.000018
O68	O	1.479781	0.716840	-0.000023
H69	H	1.552240	0.676199	-0.000014
O70	O	1.086045	0.630000	-0.000005
H71	H	1.091986	0.716879	-0.000000
H72	H	1.395207	0.133146	0.696053
