data_functionalizedCrystal
_audit_creation_method	'MofGen! by Chris Wilmer'
_symmetry_space_group_name_H-M	'P1'
_symmetry_Int_Tables_number	1
_symmetry_cell_setting	triclinic
loop_
_symmetry_equiv_pos_as_xyz
  x,y,z
_cell_length_a	14.395555
_cell_length_b	14.395555
_cell_length_c	14.560438
_cell_angle_alpha	89.999042
_cell_angle_beta	60.001144
_cell_angle_gamma	59.997896
loop_
_atom_site_label
_atom_site_type_symbol
_atom_site_fract_x
_atom_site_fract_y
_atom_site_fract_z
Zr1	Zr	1.016889	0.894799	-0.120582
O2	O	1.210685	0.746461	-0.267221
O3	O	0.823089	0.940281	-0.075630
O4	O	1.016895	0.940264	-0.267234
O5	O	1.016877	0.746482	0.075524
O6	O	1.016905	1.093130	-0.267244
O7	O	1.016879	0.746478	-0.075617
O8	O	0.670221	1.093160	0.075501
O9	O	1.363561	0.746452	-0.267220
O10	O	0.902811	1.073750	-0.056465
O11	O	0.902802	0.959671	0.056337
O12	O	1.130984	0.959651	-0.169252
O13	O	1.130974	0.845572	-0.056450
Zr14	Zr	1.016901	1.138608	0.120454
Zr15	Zr	1.016905	1.138602	-0.120598
Zr16	Zr	1.016885	0.894805	0.120470
Zr17	Zr	1.260708	0.894784	-0.120582
Zr18	Zr	0.773083	1.138624	0.120454
O19	O	1.210702	1.093127	0.075502
O20	O	1.210708	1.093118	-0.267243
O21	O	1.210680	0.746470	0.075525
O22	O	0.823105	1.286947	0.267093
O23	O	0.823111	1.286938	-0.075652
O24	O	0.823083	0.940290	0.267115
O25	O	1.016914	1.286926	-0.075652
O26	O	1.016896	1.093144	0.267106
O27	O	1.016886	0.940278	0.267116
O28	O	1.016911	1.286930	0.075489
O29	O	1.363573	0.940243	-0.267233
O30	O	0.670217	1.093165	0.267105
O31	O	0.670230	1.286956	0.267092
O32	O	0.670233	1.286951	0.075488
O33	O	1.363557	0.746456	-0.075616
O34	O	1.363570	0.940247	-0.075629
O35	O	0.902807	1.073756	0.169124
O36	O	0.902816	1.187835	0.056322
O37	O	1.130989	1.073736	-0.056465
O38	O	1.130980	0.959657	0.056337
C39	C	0.711916	1.016723	-0.000065
C40	C	0.608408	1.016729	-0.000065
C41	C	0.485928	1.078905	-0.061572
C42	C	0.624049	0.971647	-0.106148
C43	C	0.471698	1.123967	0.044460
C44	C	0.562203	0.909358	-0.044701
C45	C	0.409778	1.061754	0.105966
C46	C	0.547890	0.954433	0.061416
C47	C	1.016876	0.711743	-0.000044
C48	C	1.016869	0.608242	-0.000037
C49	C	0.892482	0.547944	0.061432
C50	C	0.954645	0.578810	-0.044606
C51	C	0.954674	0.578767	0.105981
C52	C	1.079086	0.454668	-0.106191
C53	C	1.079097	0.454629	0.044472
C54	C	1.141350	0.485421	-0.061629
C55	C	1.321875	1.016685	-0.000063
C56	C	1.425382	1.016678	-0.000063
C57	C	1.016900	1.016696	-0.301583
C58	C	1.016902	1.016693	-0.403916
C59	C	1.016915	1.321664	-0.000084
C60	C	1.016922	1.425165	-0.000091
C61	C	1.136004	0.957136	-0.510866
C62	C	1.135998	0.957149	-0.607015
C63	C	0.897778	1.076279	-0.489250
C64	C	0.897785	1.076271	-0.393104
C65	C	1.016890	1.016712	0.301456
C66	C	1.016888	1.016714	0.403788
C67	C	0.711935	1.321683	-0.000084
C68	C	0.608435	1.425191	-0.000091
C69	C	0.711911	1.016730	0.301455
C70	C	0.608402	1.016739	0.403788
C71	C	0.711930	1.321691	0.301435
C72	C	0.608428	1.425201	0.403761
C73	C	1.321860	0.711716	-0.301563
C74	C	1.425363	0.608207	-0.403889
C75	C	1.321855	0.711724	-0.000043
C76	C	1.425356	0.608217	-0.000036
C77	C	1.321880	1.016677	-0.301583
C78	C	1.425389	1.016668	-0.403915
C79	C	0.559804	1.414270	-0.058966
C80	C	0.462563	1.511530	-0.058976
C81	C	0.462586	1.630627	0.058771
C82	C	0.559833	1.533369	0.058774
C83	C	0.559774	1.076294	0.510737
C84	C	0.462525	1.076289	0.606886
C85	C	0.462537	0.957175	0.489121
C86	C	0.559790	0.957173	0.392975
C87	C	0.559805	1.533378	0.392955
C88	C	0.462562	1.630633	0.489105
C89	C	0.462570	1.511519	0.606863
C90	C	0.559818	1.414267	0.510714
H91	H	0.458819	1.131418	-0.113649
O92	O	0.745402	0.921178	-0.224921
H93	H	0.782711	0.832654	-0.262312
H94	H	0.902057	0.632262	0.195664
O95	O	1.264472	0.892890	-0.522519
H96	H	1.347289	0.851488	-0.613045
H97	H	0.422978	1.502631	0.693954
H98	H	0.599387	0.908671	0.305885
H99	H	0.423000	1.718716	0.106699
H100	H	0.434486	1.214678	0.082116
O101	O	0.410134	1.747320	0.477472
H102	H	0.302846	1.794510	0.518480
O103	O	0.612240	1.545174	0.277602
H104	H	0.688024	1.459376	0.212555
H105	H	0.599410	1.326178	0.519521
H106	H	0.574946	0.901758	0.113418
O107	O	0.611768	0.789140	-0.094734
H108	H	0.534027	0.790068	-0.094385
H109	H	0.318142	1.099889	0.195615
H110	H	0.599355	1.124792	0.519548
O111	O	0.612287	1.545146	0.122282
H112	H	0.593626	1.503680	0.187352
O113	O	0.753161	0.581578	0.130203
H114	H	0.701810	0.632066	0.092972
O115	O	0.612243	1.297595	-0.122475
H116	H	0.593568	1.250437	-0.063037
O117	O	0.769310	1.140539	-0.477599
H118	H	0.686492	1.181966	-0.387074
H119	H	0.902051	0.632322	-0.082279
H120	H	1.232982	0.908653	-0.694095
O121	O	0.410105	1.499757	-0.122473
H122	H	0.460236	1.408194	-0.163397
O123	O	0.769314	1.140550	-0.277742
H124	H	0.789334	1.130558	-0.212704
O125	O	1.148705	0.384009	-0.225045
H126	H	1.148137	0.307193	-0.224130
O127	O	1.280792	0.451487	-0.130597
H128	H	1.332124	0.400895	-0.218548
O129	O	0.410064	1.140541	0.722238
H130	H	0.491699	1.106142	0.732022
O131	O	1.148700	0.383732	0.094405
H132	H	1.096829	0.434407	0.182478
O133	O	0.410071	0.892966	0.477458
H134	H	0.334255	0.902990	0.562282
