data_functionalizedCrystal
_audit_creation_method	'MofGen! by Chris Wilmer'
_symmetry_space_group_name_H-M	'P1'
_symmetry_Int_Tables_number	1
_symmetry_cell_setting	triclinic
loop_
_symmetry_equiv_pos_as_xyz
  x,y,z
_cell_length_a	16.974800
_cell_length_b	10.967829
_cell_length_c	16.053802
_cell_angle_alpha	80.477515
_cell_angle_beta	91.074188
_cell_angle_gamma	84.835183
loop_
_atom_site_label
_atom_site_type_symbol
_atom_site_fract_x
_atom_site_fract_y
_atom_site_fract_z
O1	O	1.051014	0.157359	-0.021026
O2	O	1.384347	0.490692	0.312307
O3	O	1.717680	0.824025	0.645641
O4	O	0.821785	0.176256	-0.039240
O5	O	1.155118	0.509589	0.294093
O6	O	1.488451	0.842922	0.627426
O7	O	0.940460	-0.012873	-0.004004
O8	O	1.273794	0.320460	0.329330
O9	O	1.607127	0.653793	0.662663
O10	O	0.932338	0.346488	-0.056263
O11	O	1.265671	0.679821	0.277071
O12	O	1.599005	1.013155	0.610404
O13	O	0.933928	-0.002506	0.132922
O14	O	1.267261	0.330827	0.466255
O15	O	1.600594	0.664160	0.799588
O16	O	0.815252	0.186623	0.097685
O17	O	1.148585	0.519956	0.431018
O18	O	1.481918	0.853290	0.764352
O19	O	1.044481	0.167726	0.115900
O20	O	1.377814	0.501059	0.449233
O21	O	1.711148	0.834393	0.782566
Zn22	Zn	0.928829	0.178820	0.128532
Zn23	Zn	1.262162	0.512154	0.461866
Zn24	Zn	1.595496	0.845487	0.795199
Zn25	Zn	0.937436	0.165161	-0.051873
Zn26	Zn	1.270770	0.498495	0.281460
Zn27	Zn	1.604103	0.831828	0.614794
O28	O	0.925805	0.356855	0.080663
O29	O	1.259138	0.690188	0.413996
O30	O	1.592472	1.023522	0.747330
C31	C	0.789144	0.180531	0.027367
C32	C	1.122477	0.513864	0.360701
C33	C	1.455811	0.847197	0.694034
C34	C	0.701618	0.177809	0.021842
C35	C	1.034951	0.511142	0.355176
C36	C	1.368284	0.844475	0.688509
C37	C	0.656942	0.182178	0.093887
C38	C	0.990275	0.515512	0.427220
C39	C	1.323608	0.848845	0.760554
C40	C	0.574703	0.179601	0.088701
C41	C	0.908036	0.512934	0.422034
C42	C	1.241369	0.846268	0.755367
C43	C	0.537141	0.172663	0.011468
C44	C	0.870474	0.505996	0.344801
C45	C	1.203808	0.839330	0.678134
C46	C	0.581824	0.168290	-0.060582
C47	C	0.915157	0.501623	0.272752
C48	C	1.248490	0.834956	0.606085
C49	C	0.664062	0.170858	-0.055394
C50	C	0.997395	0.504191	0.277940
C51	C	1.330728	0.837525	0.611273
C52	C	0.291568	0.164367	-0.012052
C53	C	0.624902	0.497701	0.321282
C54	C	0.958235	0.831034	0.654615
C55	C	0.209324	0.161803	-0.017235
C56	C	0.542658	0.495136	0.316098
C57	C	0.875991	0.828470	0.649432
C58	C	0.202209	0.173112	0.132049
C59	C	0.535542	0.506445	0.465382
C60	C	0.868876	0.839779	0.798715
C61	C	0.284448	0.175687	0.137229
C62	C	0.617782	0.509021	0.470562
C63	C	0.951115	0.842354	0.803896
C64	C	0.329124	0.171307	0.065180
C65	C	0.662458	0.504641	0.398514
C66	C	0.995791	0.837974	0.731847
N67	N	0.453080	0.170033	0.006164
N68	N	0.786413	0.503366	0.339498
N69	N	1.119746	0.836699	0.672831
N70	N	0.413185	0.173929	0.070486
N71	N	0.746518	0.507262	0.403819
N72	N	1.079852	0.840596	0.737153
C73	C	0.936109	-0.053683	0.071002
C74	C	1.269443	0.279651	0.404335
C75	C	1.602776	0.612984	0.737669
C76	C	0.932868	-0.190727	0.090497
C77	C	1.266202	0.142607	0.423831
C78	C	1.599535	0.475940	0.757164
C79	C	0.934808	-0.257190	0.028257
C80	C	1.268141	0.076144	0.361590
C81	C	1.601474	0.409477	0.694923
C82	C	0.931458	-0.398832	0.048404
C83	C	1.264791	-0.065498	0.381738
C84	C	1.598124	0.267835	0.715071
C85	C	1.077122	0.163451	0.049290
C86	C	1.410455	0.496784	0.382623
C87	C	1.743788	0.830117	0.715957
C88	C	1.164648	0.166172	0.054810
C89	C	1.497981	0.499506	0.388143
C90	C	1.831315	0.832839	0.721476
C91	C	0.930156	0.397664	0.005655
C92	C	1.263489	0.730997	0.338989
C93	C	1.596823	1.064331	0.672322
C94	C	0.933398	0.534708	-0.013845
C95	C	1.266731	0.868041	0.319488
C96	C	1.600064	1.201374	0.652821
N97	N	0.922961	0.188142	0.251655
N98	N	1.256294	0.521475	0.584988
N99	N	1.589627	0.854808	0.918321
N100	N	0.943311	0.155830	-0.174994
N101	N	1.276644	0.489163	0.158340
N102	N	1.609978	0.822497	0.491673
C103	C	0.973477	0.107696	0.310339
C104	C	1.306810	0.441029	0.643672
C105	C	1.640143	0.774362	0.977006
C106	C	0.969379	0.114228	0.396529
C107	C	1.302712	0.447561	0.729862
C108	C	1.636046	0.780895	1.063195
C109	C	0.914769	0.201213	0.424032
C110	C	1.248102	0.534546	0.757365
C111	C	1.581436	0.867880	1.090699
C112	C	0.864248	0.281662	0.365341
C113	C	1.197581	0.614996	0.698674
C114	C	1.530914	0.948329	1.032007
C115	C	0.868342	0.275123	0.279153
C116	C	1.201675	0.608457	0.612486
C117	C	1.535009	0.941790	0.945820
C118	C	0.896884	0.229741	0.680128
C119	C	1.230217	0.563074	1.013461
C120	C	1.563551	0.896407	1.346794
C121	C	0.892795	0.236276	0.766322
C122	C	1.226128	0.569609	1.099655
C123	C	1.559462	0.902943	1.432989
C124	C	0.997926	0.068839	0.797505
C125	C	1.331259	0.402173	1.130838
C126	C	1.664593	0.735506	1.464171
C127	C	1.002019	0.062313	0.711313
C128	C	1.335352	0.395646	1.044647
C129	C	1.668685	0.728980	1.377980
C130	C	0.951495	0.142758	0.652630
C131	C	1.284828	0.476091	0.985964
C132	C	1.618161	0.809425	1.319297
N133	N	0.910581	0.207894	0.512131
N134	N	1.243914	0.541228	0.845464
N135	N	1.577248	0.874561	1.178798
N136	N	0.955679	0.136070	0.564533
N137	N	1.289013	0.469403	0.897867
N138	N	1.622346	0.802736	1.231200
H139	H	0.687517	0.187838	0.156777
H140	H	1.020850	0.521171	0.490110
H141	H	1.354184	0.854504	0.823444
Cl142	Cl	0.518540	0.185117	0.179273
Cl143	Cl	0.851873	0.518450	0.512606
Cl144	Cl	1.185206	0.851783	0.845939
H145	H	0.928723	-0.238686	0.158699
H146	H	1.262056	0.094647	0.492033
H147	H	1.595390	0.427981	0.825366
H148	H	0.700436	0.167302	-0.114061
H149	H	1.033770	0.500636	0.219273
H150	H	1.367103	0.833969	0.552606
H151	H	1.046486	-0.008517	0.688923
H152	H	1.379820	0.324816	1.022257
H153	H	1.713153	0.658150	1.355590
H154	H	0.315026	0.181331	0.200121
H155	H	0.648359	0.514664	0.533455
H156	H	0.981692	0.847998	0.866788
Cl157	Cl	0.833373	0.330874	0.606360
Cl158	Cl	1.166706	0.664207	0.939694
Cl159	Cl	1.500040	0.997540	1.273027
H160	H	0.165825	0.176676	0.190707
H161	H	0.499159	0.510009	0.524040
H162	H	0.832492	0.843343	0.857373
H163	H	0.178744	0.156157	-0.080131
H164	H	0.512078	0.489490	0.253202
H165	H	0.845411	0.822823	0.586535
H166	H	0.848323	0.307115	0.788708
H167	H	1.181656	0.640448	1.122042
H168	H	1.514989	0.973782	1.455375
Cl169	Cl	0.347722	0.158863	-0.102628
Cl170	Cl	0.681055	0.492197	0.230705
Cl171	Cl	1.014388	0.825530	0.564038
H172	H	0.819779	0.352483	0.387739
H173	H	1.153112	0.685817	0.721072
H174	H	1.486445	1.019150	1.054405
H175	H	1.039059	0.003343	0.845292
H176	H	1.372393	0.336677	1.178625
H177	H	1.705726	0.670010	1.511959
Cl178	Cl	0.939759	-0.391258	-0.119157
Cl179	Cl	1.273093	-0.057925	0.214177
Cl180	Cl	1.606426	0.275408	0.547510
Cl181	Cl	1.032885	0.013093	0.470305
Cl182	Cl	1.366218	0.346426	0.803639
Cl183	Cl	1.699551	0.679760	1.136972
H184	H	1.017949	0.036869	0.287953
H185	H	1.351282	0.370202	0.621286
H186	H	1.684616	0.703535	0.954619
Cl187	Cl	0.534606	0.159522	-0.157669
Cl188	Cl	0.867940	0.492856	0.175665
Cl189	Cl	1.201273	0.826189	0.508998
H190	H	0.827206	0.340630	0.231372
H191	H	1.160539	0.673963	0.564705
H192	H	1.493872	1.007296	0.898038
H193	H	0.938944	-0.209228	-0.039946
H194	H	1.272278	0.124105	0.293387
H195	H	1.605611	0.457438	0.626720
H196	H	0.927312	-0.446786	0.116611
H197	H	1.260646	-0.113453	0.449944
H198	H	1.593979	0.219881	0.783278
