data_functionalizedCrystal
_audit_creation_method	'MofGen! by Chris Wilmer'
_symmetry_space_group_name_H-M	'P1'
_symmetry_Int_Tables_number	1
_symmetry_cell_setting	triclinic
loop_
_symmetry_equiv_pos_as_xyz
  x,y,z
_cell_length_a	14.853567
_cell_length_b	15.995350
_cell_length_c	13.330367
_cell_angle_alpha	89.997588
_cell_angle_beta	89.995418
_cell_angle_gamma	83.563653
loop_
_atom_site_label
_atom_site_type_symbol
_atom_site_fract_x
_atom_site_fract_y
_atom_site_fract_z
O1	O	1.196221	0.109317	-0.083349
O2	O	0.933744	0.122339	-0.083366
O3	O	1.072158	-0.006051	-0.083356
O4	O	1.057808	0.237707	-0.083359
O5	O	1.072138	-0.006054	0.083491
O6	O	0.933724	0.122336	0.083481
O7	O	1.196201	0.109314	0.083498
Cu8	Cu	1.064961	0.115825	0.098724
Cu9	Cu	1.064985	0.115828	-0.098592
O10	O	1.057788	0.237704	0.083488
C11	C	0.900146	0.121748	0.000056
C12	C	0.800065	0.119980	0.000049
C13	C	0.387644	0.036238	0.000072
C14	C	0.366158	0.188769	0.000070
C15	C	0.460189	0.190432	0.000067
C16	C	0.517953	0.114996	0.000065
C17	C	0.481685	0.037899	0.000066
C18	C	0.496464	0.267528	0.000055
C19	C	0.590501	0.269194	0.000051
C20	C	0.648266	0.193758	0.000056
C21	C	0.611993	0.116657	0.000059
C22	C	0.669757	0.041221	0.000057
C23	C	0.633485	-0.035880	0.000067
C24	C	0.539450	-0.037538	0.000072
C25	C	0.742302	0.195415	0.000051
C26	C	0.763797	0.042882	0.000051
C27	C	1.071555	-0.037248	0.000065
C28	C	1.069776	-0.130201	0.000060
C29	C	1.063389	-0.467956	0.000063
C30	C	0.964813	-0.420636	-0.000318
C31	C	0.966592	-0.323944	0.000058
C32	C	1.066557	-0.300391	0.000061
C33	C	1.115167	-0.341414	0.095340
C34	C	1.112690	-0.438053	0.095419
C35	C	1.114749	-0.438405	-0.094317
C36	C	1.114726	-0.341460	-0.095576
C37	C	1.068353	-0.205692	0.000063
C38	C	1.061596	-0.562655	0.000067
C39	C	1.229799	0.109906	0.000074
C40	C	1.329881	0.111674	0.000074
C41	C	1.058391	0.268901	0.000064
C42	C	1.060170	0.361854	0.000064
N43	N	1.064951	0.115822	0.237506
N44	N	1.065002	0.115825	-0.237374
C45	C	1.003693	0.172657	0.710124
C46	C	1.126301	0.058993	0.710101
C47	C	1.126291	0.058990	0.605082
C48	C	1.064982	0.115823	0.552580
C49	C	1.003682	0.172658	0.605096
C50	C	1.187595	0.002162	0.552559
C51	C	1.187588	0.002158	0.447534
C52	C	1.126274	0.058987	0.395030
C53	C	1.064971	0.115824	0.447552
C54	C	1.003662	0.172656	0.395050
C55	C	0.942354	0.229490	0.447570
C56	C	0.942368	0.229487	0.552592
C57	C	1.126260	0.058989	0.290008
C58	C	1.003652	0.172657	0.290022
H59	H	0.509909	-0.100310	0.000103
N60	N	0.915631	-0.287085	0.090683
H61	H	0.863168	-0.245706	0.068131
H62	H	0.891984	-0.333709	0.130507
N63	N	0.937565	0.233949	0.766762
H64	H	0.946868	0.225327	0.841260
H65	H	0.947972	0.293368	0.748401
H66	H	0.953723	0.218935	0.247280
H67	H	1.082529	-0.458981	-0.166533
N68	N	0.303858	0.270126	0.000061
H69	H	0.315519	0.303760	0.061908
H70	H	0.315563	0.303687	-0.061833
H71	H	1.077227	-0.456396	0.166640
N72	N	1.253697	-0.059149	0.609186
H73	H	1.292528	-0.095155	0.559981
H74	H	1.293556	-0.027041	0.652766
H75	H	0.358108	-0.026536	0.000084
H76	H	0.680529	-0.097299	0.000058
N77	N	0.915983	-0.286353	-0.090416
H78	H	0.958213	-0.256226	-0.133295
H79	H	0.892324	-0.332636	-0.130817
N80	N	0.912624	-0.445240	-0.090818
H81	H	0.952369	-0.487301	-0.132451
H82	H	0.857198	-0.471242	-0.068000
N83	N	0.629610	0.352353	0.000038
H84	H	0.608541	0.385405	0.061887
H85	H	0.697939	0.341897	-0.000003
H86	H	0.925580	-0.440277	0.067623
H87	H	0.449427	0.328943	0.000046
H88	H	0.892440	0.275767	0.404811
H89	H	0.892454	0.275760	0.595361
H90	H	1.176222	0.012725	0.752851
N91	N	1.212453	-0.322604	0.100009
H92	H	1.214331	-0.259731	0.103037
H93	H	1.242336	-0.349632	0.161828
H94	H	0.771830	0.258190	0.000045
N95	N	1.192370	-0.002320	0.233379
H96	H	1.157913	-0.039454	0.189825
H97	H	1.232271	0.029790	0.189844
H98	H	1.185062	-0.470217	0.099744
N99	N	1.070442	-0.303868	0.189263
H100	H	1.018701	-0.260298	0.170312
H101	H	1.046506	-0.349758	0.230103
H102	H	1.237507	-0.044120	0.404778
H103	H	1.079186	-0.314251	-0.166061
H104	H	1.187625	-0.326013	-0.101327
N105	N	1.211024	-0.480353	-0.095172
H106	H	1.210706	-0.543425	-0.097776
H107	H	1.243626	-0.461058	-0.155969
N108	N	0.826097	-0.038482	0.000060
H109	H	0.788848	-0.087572	0.000069
H110	H	0.865582	-0.041120	-0.061795
