data_functionalizedCrystal
_audit_creation_method	'MofGen! by Chris Wilmer'
_symmetry_space_group_name_H-M	'P1'
_symmetry_Int_Tables_number	1
_symmetry_cell_setting	triclinic
loop_
_symmetry_equiv_pos_as_xyz
  x,y,z
_cell_length_a	12.759401
_cell_length_b	12.759400
_cell_length_c	12.759393
_cell_angle_alpha	90.030447
_cell_angle_beta	90.018567
_cell_angle_gamma	90.012209
loop_
_atom_site_label
_atom_site_type_symbol
_atom_site_fract_x
_atom_site_fract_y
_atom_site_fract_z
Zn1	Zn	1.606267	-0.418231	0.593991
Zn2	Zn	1.606166	-0.593950	0.418315
Zn3	Zn	1.430569	-0.418283	0.418331
Zn4	Zn	1.430562	-0.593866	0.593956
O5	O	1.518391	-0.506082	0.506148
O6	O	1.753274	-0.441554	0.570696
O7	O	1.582833	-0.570704	0.271296
O8	O	1.453920	-0.271255	0.441654
O9	O	1.753200	-0.570654	0.441627
O10	O	1.583005	-0.271217	0.570711
O11	O	1.453822	-0.441642	0.271307
O12	O	1.283547	-0.441560	0.441620
O13	O	1.453909	-0.570511	0.740982
O14	O	1.283542	-0.570561	0.570651
O15	O	1.582998	-0.441473	0.741008
O16	O	1.582826	-0.740960	0.441593
O17	O	1.453811	-0.740898	0.570636
C18	C	1.245423	-0.506058	0.506134
C19	C	1.128647	-0.506072	0.506152
C20	C	1.518336	-0.779050	0.506132
C21	C	1.518408	-0.895826	0.506160
C22	C	1.073816	-0.438977	0.573463
C23	C	0.964092	-0.438997	0.573469
C24	C	0.964039	-0.573217	0.438853
C25	C	1.073761	-0.573191	0.438841
C26	C	1.128702	-0.371858	0.640774
C27	C	1.073872	-0.304758	0.708090
C28	C	0.964148	-0.304778	0.708097
C29	C	0.909254	-0.371899	0.640787
C30	C	1.585589	-0.950589	0.573415
C31	C	1.585638	-1.060313	0.573441
C32	C	1.451322	-1.060502	0.438947
C33	C	1.451269	-0.950780	0.438927
C34	C	1.652728	-0.895635	0.640647
C35	C	1.719915	-0.950398	0.707907
C36	C	1.719964	-1.060122	0.707933
C37	C	1.652826	-1.115083	0.640699
C38	C	1.792424	-0.506108	0.506164
C39	C	1.909201	-0.506119	0.506170
C40	C	1.518464	-0.505976	0.780182
C41	C	1.518496	-0.505931	0.896959
C42	C	1.518475	-0.232049	0.506188
C43	C	1.518510	-0.115272	0.506205
C44	C	1.518378	-0.506112	0.233181
C45	C	1.518550	-0.505861	0.116405
C46	C	1.585722	-0.438735	0.951836
C47	C	1.585747	-0.438697	1.061560
C48	C	1.451316	-0.573061	1.061520
C49	C	1.451287	-0.573093	0.951798
C50	C	1.652930	-0.371573	0.896997
C51	C	1.720163	-0.304372	0.951874
C52	C	1.720188	-0.304334	1.061598
C53	C	1.652980	-0.371497	1.116445
H54	H	1.218045	-0.371834	0.640776
C55	C	1.793863	-1.120358	0.781914
H56	H	1.833844	-1.071912	0.821944
H57	H	1.753676	-1.163156	0.827669
H58	H	1.839683	-1.163157	0.741762
C59	C	1.134083	-0.646993	0.364805
H60	H	1.207290	-0.637354	0.374432
H61	H	1.116114	-0.717608	0.380055
H62	H	1.116071	-0.631528	0.294239
H63	H	1.652920	-0.371599	0.807654
H64	H	1.652698	-0.806292	0.640632
H65	H	1.396599	-0.627741	1.106185
C66	C	1.794137	-0.230417	1.121961
H67	H	1.834162	-0.190431	1.073582
H68	H	1.753979	-0.184619	1.164772
H69	H	1.839913	-0.270609	1.164755
H70	H	0.819909	-0.371887	0.640775
C71	C	1.653010	-0.371456	1.237139
H72	H	1.702677	-0.321820	1.261970
H73	H	1.585225	-0.353276	1.261964
H74	H	1.671172	-0.439254	1.261942
C75	C	1.377381	-0.647048	0.891429
H76	H	1.337380	-0.687064	0.939802
H77	H	1.331595	-0.606900	0.848613
H78	H	1.417588	-0.692831	0.848639
H79	H	1.774874	-0.249684	0.907210
H80	H	1.652859	-1.204428	0.640737
H81	H	1.396563	-0.906192	0.384163
C82	C	1.134250	-0.230932	0.782124
H83	H	1.207450	-0.240535	0.772488
H84	H	1.116265	-0.160326	0.766875
H85	H	1.116293	-0.246405	0.852692
H86	H	0.919508	-0.250135	0.762901
C87	C	1.377486	-1.120957	0.364989
H88	H	1.387147	-1.194147	0.374626
H89	H	1.306877	-1.103017	0.380297
H90	H	1.392900	-1.103014	0.294405
H91	H	1.774571	-0.905643	0.762653
C92	C	0.903658	-0.647052	0.364830
H93	H	0.830459	-0.637466	0.374485
H94	H	0.921605	-0.631596	0.294262
H95	H	0.921651	-0.717659	0.380095
