data_functionalizedCrystal
_audit_creation_method	'MofGen! by Chris Wilmer'
_symmetry_space_group_name_H-M	'P1'
_symmetry_Int_Tables_number	1
_symmetry_cell_setting	triclinic
loop_
_symmetry_equiv_pos_as_xyz
  x,y,z
_cell_length_a	10.654550
_cell_length_b	18.266242
_cell_length_c	10.654550
_cell_angle_alpha	90.006150
_cell_angle_beta	84.484931
_cell_angle_gamma	90.005777
loop_
_atom_site_label
_atom_site_type_symbol
_atom_site_fract_x
_atom_site_fract_y
_atom_site_fract_z
O1	O	1.667849	0.060826	0.176401
O2	O	2.167849	0.560826	0.676401
O3	O	1.302371	0.060840	0.193207
O4	O	1.802371	0.560840	0.693207
O5	O	1.493513	0.060828	0.002065
O6	O	1.993513	0.560828	0.502065
O7	O	1.476707	0.060838	0.367543
O8	O	1.976707	0.560838	0.867543
O9	O	1.493480	-0.060934	0.002055
O10	O	1.993480	0.439066	0.502055
O11	O	1.302338	-0.060922	0.193197
O12	O	1.802338	0.439078	0.693197
O13	O	1.667816	-0.060936	0.176391
O14	O	2.167816	0.439064	0.676391
Zn15	Zn	1.485072	-0.080262	0.184792
Zn16	Zn	1.985072	0.419738	0.684792
Zn17	Zn	1.485115	0.080165	0.184806
Zn18	Zn	1.985115	0.580165	0.684806
O19	O	1.476674	-0.060924	0.367533
O20	O	1.976674	0.439076	0.867533
C21	C	1.255556	-0.000040	0.191968
C22	C	1.755556	0.499960	0.691968
C23	C	1.116113	-0.000035	0.188276
C24	C	1.616113	0.499965	0.688276
N25	N	1.485052	-0.189748	0.184782
N26	N	1.985052	0.310252	0.684782
C27	C	1.036628	-0.000034	0.300818
C28	C	1.536628	0.499966	0.800818
C29	C	0.905607	-0.000047	0.297341
C30	C	1.405607	0.499953	0.797341
C31	C	0.933570	-0.000058	0.068772
C32	C	1.433570	0.499942	0.568772
C33	C	1.064588	-0.000051	0.072250
C34	C	1.564588	0.499949	0.572250
C35	C	1.569718	-0.228062	0.100187
C36	C	2.069718	0.271938	0.600187
C37	C	1.569726	-0.304707	0.100181
C38	C	2.069726	0.195293	0.600181
C39	C	1.485080	-0.343035	0.184793
C40	C	1.985080	0.156965	0.684793
C41	C	1.400398	-0.304712	0.269395
C42	C	1.900398	0.195288	0.769395
C43	C	1.400384	-0.228069	0.269389
C44	C	1.900384	0.271931	0.769389
N45	N	1.470062	-0.463364	0.295783
N46	N	1.970062	0.036636	0.795783
N47	N	1.470083	-0.536172	0.295784
N48	N	1.970083	-0.036172	0.795784
C49	C	1.485115	-0.573958	0.184811
C50	C	1.985115	-0.073958	0.684811
N51	N	1.500151	-0.536184	0.073834
N52	N	2.000151	-0.036184	0.573834
N53	N	1.500136	-0.463370	0.073834
N54	N	2.000136	0.036630	0.573834
C55	C	1.485085	-0.426142	0.184807
C56	C	1.985085	0.073858	0.684807
C57	C	1.569795	-0.695379	0.100202
C58	C	2.069795	-0.195379	0.600202
C59	C	1.569794	-0.772025	0.100195
C60	C	2.069794	-0.272025	0.600195
C61	C	1.400472	-0.772028	0.269419
C62	C	1.900472	-0.272028	0.769419
C63	C	1.400466	-0.695384	0.269416
C64	C	1.900466	-0.195384	0.769416
C65	C	1.485134	-0.657063	0.184809
C66	C	1.985134	-0.157063	0.684809
C67	C	1.714631	-0.000055	0.177630
C68	C	2.214631	0.499945	0.677630
C69	C	1.854074	-0.000055	0.181322
C70	C	2.354074	0.499945	0.681322
C71	C	1.492263	-0.000053	-0.044738
C72	C	1.992263	0.499947	0.455262
C73	C	1.488571	-0.000051	-0.184181
C74	C	1.988571	0.499949	0.315819
N75	N	1.485145	0.189652	0.184806
N76	N	1.985145	0.689652	0.684806
C77	C	1.601112	-0.000055	-0.263667
C78	C	2.101112	0.499945	0.236333
C79	C	1.597636	-0.000046	-0.394688
C80	C	2.097636	0.499954	0.105312
C81	C	1.369066	-0.000032	-0.366725
C82	C	1.869066	0.499968	0.133275
C83	C	1.372544	-0.000036	-0.235706
C84	C	1.872544	0.499964	0.264294
C85	C	1.477925	-0.000042	0.414336
C86	C	1.977925	0.499958	0.914336
C87	C	1.481616	-0.000039	0.553779
C88	C	1.981616	0.499961	1.053779
H89	H	1.078574	-0.000026	0.395294
H90	H	1.578574	0.499974	0.895294
Br91	Br	1.172472	-0.000061	-0.080497
Br92	Br	1.672472	0.499939	0.419503
H93	H	1.695588	-0.000066	-0.221720
H94	H	2.195588	0.499934	0.278280
Br95	Br	1.285580	-0.824039	0.384237
Br96	Br	1.785580	-0.324039	0.884237
H97	H	1.638733	-0.664177	0.031306
H98	H	2.138733	-0.164177	0.531306
Br99	Br	1.285469	-0.176066	0.384205
Br100	Br	1.785469	0.323934	0.884205
H101	H	1.638673	-0.335908	0.031290
H102	H	2.138673	0.164092	0.531290
H103	H	0.891602	-0.000076	-0.025693
H104	H	1.391602	0.499924	0.474307
Br105	Br	1.684617	-0.176056	-0.014638
Br106	Br	2.184617	0.323944	0.485362
H107	H	1.331475	-0.335923	0.338285
H108	H	1.831475	0.164077	0.838285
Br109	Br	1.750378	-0.000047	-0.502558
Br110	Br	2.250378	0.499953	-0.002558
H111	H	0.840894	-0.000047	0.388984
H112	H	1.340894	0.499953	0.888984
Br113	Br	1.684696	-0.824027	-0.014634
Br114	Br	2.184696	-0.324027	0.485366
Br115	Br	1.211609	-0.000010	-0.436660
Br116	Br	1.711609	0.499990	0.063340
H117	H	1.331528	-0.664186	0.338307
H118	H	1.831528	-0.164186	0.838307
H119	H	1.280893	-0.000031	-0.170985
H120	H	1.780893	0.499969	0.329015
