data_functionalizedCrystal
_audit_creation_method	'MofGen! by Chris Wilmer'
_symmetry_space_group_name_H-M	'P1'
_symmetry_Int_Tables_number	1
_symmetry_cell_setting	triclinic
loop_
_symmetry_equiv_pos_as_xyz
  x,y,z
_cell_length_a	19.188930
_cell_length_b	19.188930
_cell_length_c	18.266242
_cell_angle_alpha	90.022918
_cell_angle_beta	89.988525
_cell_angle_gamma	96.855221
loop_
_atom_site_label
_atom_site_type_symbol
_atom_site_fract_x
_atom_site_fract_y
_atom_site_fract_z
O1	O	0.087169	-0.926149	-0.061124
O2	O	0.420502	-0.592816	0.272209
O3	O	0.753835	-0.259483	0.605542
O4	O	0.098903	-0.722838	-0.061075
O5	O	0.432236	-0.389505	0.272258
O6	O	0.765570	-0.056171	0.605591
O7	O	-0.008620	-0.830361	-0.061087
O8	O	0.324714	-0.497027	0.272246
O9	O	0.658047	-0.163694	0.605580
O10	O	0.194691	-0.818627	-0.061113
O11	O	0.528025	-0.485293	0.272221
O12	O	0.861358	-0.151960	0.605554
O13	O	-0.008625	-0.830343	0.060675
O14	O	0.324708	-0.497009	0.394008
O15	O	0.658041	-0.163676	0.727342
O16	O	0.098897	-0.722820	0.060687
O17	O	0.432231	-0.389486	0.394020
O18	O	0.765564	-0.056153	0.727353
O19	O	0.087163	-0.926131	0.060638
O20	O	0.420497	-0.592798	0.393971
O21	O	0.753830	-0.259464	0.727304
Zn22	Zn	0.093029	-0.824473	0.079994
Zn23	Zn	0.426363	-0.491139	0.413328
Zn24	Zn	0.759696	-0.157806	0.746661
Zn25	Zn	0.093037	-0.824497	-0.080432
Zn26	Zn	0.426370	-0.491163	0.252901
Zn27	Zn	0.759703	-0.157830	0.586234
O28	O	0.194686	-0.818608	0.060649
O29	O	0.528019	-0.485275	0.393983
O30	O	0.861353	-0.151942	0.727316
C31	C	0.098520	-0.696818	-0.000188
C32	C	0.431854	-0.363485	0.333145
C33	C	0.765187	-0.030151	0.666479
C34	C	0.097380	-0.619313	-0.000169
C35	C	0.430713	-0.285980	0.333165
C36	C	0.764046	0.047353	0.666498
N37	N	0.093024	-0.824461	0.189481
N38	N	0.426357	-0.491128	0.522815
N39	N	0.759691	-0.157795	0.856148
C40	C	-0.034634	-0.829972	-0.000204
C41	C	0.298700	-0.496638	0.333130
C42	C	0.632033	-0.163305	0.666463
C43	C	-0.112138	-0.828831	-0.000197
C44	C	0.221195	-0.495498	0.333136
C45	C	0.554529	-0.162164	0.666469
C46	C	-0.157062	-0.891922	-0.000209
C47	C	0.176271	-0.558589	0.333124
C48	C	0.509605	-0.225255	0.666458
C49	C	-0.229886	-0.890850	-0.000220
C50	C	0.103448	-0.557517	0.333113
C51	C	0.436781	-0.224184	0.666446
C52	C	-0.257782	-0.826684	-0.000206
C53	C	0.075551	-0.493351	0.333128
C54	C	0.408884	-0.160017	0.666461
C55	C	-0.212849	-0.763585	-0.000198
C56	C	0.120485	-0.430252	0.333135
C57	C	0.453818	-0.096918	0.666469
C58	C	-0.140026	-0.764658	-0.000194
C59	C	0.193307	-0.431325	0.333140
C60	C	0.526640	-0.097992	0.666473
N61	N	-0.365789	-0.777631	0.041244
N62	N	-0.032456	-0.444297	0.374578
N63	N	0.300877	-0.110964	0.707911
N64	N	-0.434968	-0.776615	0.041242
N65	N	-0.101635	-0.443282	0.374575
N66	N	0.231699	-0.109948	0.707909
C67	C	-0.477191	-0.823446	-0.000220
C68	C	-0.143858	-0.490113	0.333114
C69	C	0.189476	-0.156779	0.666447
N70	N	-0.447624	-0.871341	-0.041669
N71	N	-0.114290	-0.538008	0.291664
N72	N	0.219043	-0.204675	0.624997
N73	N	-0.378439	-0.872359	-0.041664
N74	N	-0.045106	-0.539025	0.291670
N75	N	0.288228	-0.205692	0.625003
C76	C	-0.336745	-0.825513	-0.000210
C77	C	-0.003412	-0.492180	0.333123
C78	C	0.329922	-0.158846	0.666456
C79	C	-0.601079	-0.885379	-0.000245
C80	C	-0.267746	-0.552046	0.333089
C81	C	0.065587	-0.218712	0.666422
C82	C	-0.673904	-0.884305	-0.000261
C83	C	-0.340571	-0.550971	0.333073
C84	C	-0.007238	-0.217638	0.666406
C85	C	-0.656865	-0.757038	-0.000231
C86	C	-0.323532	-0.423704	0.333103
C87	C	0.009801	-0.090371	0.666436
C88	C	-0.584042	-0.758114	-0.000222
C89	C	-0.250709	-0.424781	0.333111
C90	C	0.082624	-0.091447	0.666444
C91	C	-0.556154	-0.822287	-0.000226
C92	C	-0.222821	-0.488953	0.333108
C93	C	0.110513	-0.155620	0.666441
C94	C	0.220700	-0.818997	-0.000236
C95	C	0.554033	-0.485664	0.333098
C96	C	0.887366	-0.152331	0.666431
C97	C	0.298204	-0.820138	-0.000247
C98	C	0.631538	-0.486805	0.333086
C99	C	0.964871	-0.153471	0.666420
C100	C	0.087546	-0.952151	-0.000252
C101	C	0.420879	-0.618818	0.333082
C102	C	0.754213	-0.285485	0.666415
C103	C	0.088687	-1.029656	-0.000276
C104	C	0.422020	-0.696322	0.333058
C105	C	0.755353	-0.362989	0.666391
C106	C	0.160470	-0.574389	-0.000188
C107	C	0.493804	-0.241056	0.333145
C108	C	0.827137	0.092277	0.666479
C109	C	0.159399	-0.501566	-0.000196
C110	C	0.492732	-0.168232	0.333137
C111	C	0.826065	0.165101	0.666471
C112	C	0.095233	-0.473669	-0.000199
C113	C	0.428566	-0.140336	0.333134
C114	C	0.761899	0.192998	0.666468
C115	C	0.032133	-0.518603	-0.000175
C116	C	0.365467	-0.185270	0.333158
C117	C	0.698800	0.148064	0.666491
C118	C	0.033207	-0.591425	-0.000160
C119	C	0.366540	-0.258092	0.333173
C120	C	0.699874	0.075242	0.666506
N121	N	0.046188	-0.365695	-0.041663
N122	N	0.379521	-0.032362	0.291670
N123	N	0.712854	0.300972	0.625003
N124	N	0.045172	-0.296516	-0.041679
N125	N	0.378505	0.036817	0.291654
N126	N	0.711839	0.370150	0.624987
C127	C	0.091994	-0.254260	-0.000243
C128	C	0.425328	0.079073	0.333090
C129	C	0.758661	0.412406	0.666423
N130	N	0.139881	-0.283795	0.041200
N131	N	0.473215	0.049538	0.374533
N132	N	0.806548	0.382872	0.707867
N133	N	0.140899	-0.352980	0.041213
N134	N	0.474232	-0.019646	0.374546
N135	N	0.807566	0.313687	0.707879
C136	C	0.094062	-0.394707	-0.000215
C137	C	0.427395	-0.061373	0.333118
C138	C	0.760728	0.271960	0.666452
C139	C	0.153928	-0.130372	-0.000270
C140	C	0.487261	0.202961	0.333063
C141	C	0.820594	0.536295	0.666396
C142	C	0.152853	-0.057547	-0.000274
C143	C	0.486187	0.275786	0.333060
C144	C	0.819520	0.609119	0.666393
C145	C	0.025586	-0.074586	-0.000261
C146	C	0.358920	0.258747	0.333073
C147	C	0.692253	0.592081	0.666406
C148	C	0.026662	-0.147409	-0.000250
C149	C	0.359996	0.185924	0.333083
C150	C	0.693329	0.519257	0.666417
C151	C	0.090835	-0.175298	-0.000258
C152	C	0.424168	0.158036	0.333075
C153	C	0.757502	0.491369	0.666408
N154	N	0.093037	-0.824513	-0.189919
N155	N	0.426370	-0.491180	0.143414
N156	N	0.759703	-0.157847	0.476747
C157	C	0.045436	-0.872088	0.227785
C158	C	0.378770	-0.538755	0.561118
C159	C	0.712103	-0.205421	0.894452
C160	C	0.045433	-0.872092	0.304430
C161	C	0.378766	-0.538759	0.637763
C162	C	0.712100	-0.205426	0.971097
C163	C	0.093030	-0.824477	0.342768
C164	C	0.426363	-0.491144	0.676102
C165	C	0.759696	-0.157810	1.009435
C166	C	0.140621	-0.776841	0.304455
C167	C	0.473954	-0.443508	0.637789
C168	C	0.807288	-0.110175	0.971122
C169	C	0.140618	-0.776834	0.227812
C170	C	0.473952	-0.443500	0.561145
C171	C	0.807285	-0.110167	0.894479
N172	N	0.154837	-0.815401	0.463094
N173	N	0.488170	-0.482068	0.796427
N174	N	0.821504	-0.148735	1.129761
N175	N	0.154838	-0.815413	0.535902
N176	N	0.488171	-0.482080	0.869236
N177	N	0.821504	-0.148746	1.202569
C178	C	0.093040	-0.824496	0.573691
C179	C	0.426373	-0.491163	0.907024
C180	C	0.759706	-0.157830	1.240357
N181	N	0.031239	-0.833582	0.535920
N182	N	0.364573	-0.500248	0.869254
N183	N	0.697906	-0.166915	1.202587
N184	N	0.031240	-0.833574	0.463106
N185	N	0.364573	-0.500240	0.796439
N186	N	0.697906	-0.166907	1.129772
C187	C	0.093038	-0.824480	0.425875
C188	C	0.426371	-0.491146	0.759209
C189	C	0.759704	-0.157813	1.092542
C190	C	0.045444	-0.872131	0.695101
C191	C	0.378778	-0.538797	1.028435
C192	C	0.712111	-0.205464	1.361768
C193	C	0.045440	-0.872130	0.771748
C194	C	0.378774	-0.538797	1.105081
C195	C	0.712107	-0.205463	1.438414
C196	C	0.140634	-0.776882	0.771772
C197	C	0.473968	-0.443549	1.105105
C198	C	0.807301	-0.110216	1.438438
C199	C	0.140632	-0.776879	0.695127
C200	C	0.473966	-0.443546	1.028460
C201	C	0.807299	-0.110213	1.361794
C202	C	0.093038	-0.824507	0.656796
C203	C	0.426372	-0.491174	0.990130
C204	C	0.759705	-0.157841	1.323463
H205	H	-0.134360	-0.944176	-0.000214
H206	H	0.198973	-0.610843	0.333119
H207	H	0.532306	-0.277509	0.666452
F208	F	-0.005212	-0.922817	0.654307
F209	F	0.328121	-0.589484	0.987640
F210	F	0.661454	-0.256151	1.320973
H211	H	-0.710481	-0.935683	-0.000274
H212	H	-0.377148	-0.602350	0.333059
H213	H	-0.043815	-0.269017	0.666392
H214	H	0.006685	-0.910911	0.802935
H215	H	0.340018	-0.577578	1.136269
H216	H	0.673351	-0.244245	1.469602
F217	F	0.191275	-0.726163	0.345258
F218	F	0.524608	-0.392830	0.678591
F219	F	0.857941	-0.059496	1.011925
F220	F	-0.040488	-0.195223	-0.000233
F221	F	0.292845	0.138110	0.333100
F222	F	0.626178	0.471444	0.666434
H223	H	-0.679578	-0.704792	-0.000222
H224	H	-0.346245	-0.371459	0.333111
H225	H	-0.012911	-0.038126	0.666444
F226	F	-0.005219	-0.922774	0.186993
F227	F	0.328114	-0.589441	0.520326
F228	F	0.661447	-0.256108	0.853659
F229	F	0.228769	-0.604066	-0.000195
F230	F	0.562102	-0.270733	0.333139
F231	F	0.895436	0.062601	0.666472
F232	F	-0.036157	-0.488912	-0.000175
F233	F	0.297177	-0.155579	0.333158
F234	F	0.630510	0.177754	0.666491
H235	H	0.206181	-0.153080	-0.000267
H236	H	0.539514	0.180254	0.333067
H237	H	0.872847	0.513587	0.666400
F238	F	0.191286	-0.726202	0.812570
F239	F	0.524619	-0.392869	1.145904
F240	F	0.857953	-0.059535	1.479237
F241	F	-0.005219	-0.922786	0.345202
F242	F	0.328114	-0.589453	0.678536
F243	F	0.661448	-0.256119	1.011869
H244	H	0.179371	-0.738049	0.196624
H245	H	0.512704	-0.404716	0.529958
H246	H	0.846037	-0.071383	0.863291
H247	H	-0.266470	-0.942228	-0.000233
H248	H	0.066863	-0.608895	0.333100
H249	H	0.400197	-0.275561	0.666434
H250	H	0.204232	-0.020970	-0.000285
H251	H	0.537565	0.312363	0.333048
H252	H	0.870898	0.645697	0.666381
F253	F	-0.242539	-0.695295	-0.000187
F254	F	0.090794	-0.361962	0.333147
F255	F	0.424128	-0.028628	0.666480
F256	F	-0.092213	-0.697505	-0.000182
F257	F	0.241120	-0.364172	0.333152
F258	F	0.574454	-0.030839	0.666485
F259	F	-0.042705	-0.044901	-0.000257
F260	F	0.290629	0.288432	0.333076
F261	F	0.623962	0.621765	0.666410
H262	H	0.210776	-0.464982	-0.000210
H263	H	0.544110	-0.131648	0.333124
H264	H	0.877443	0.201685	0.666457
H265	H	0.179386	-0.738100	0.663938
H266	H	0.512719	-0.404767	0.997271
H267	H	0.846052	-0.071433	1.330605
F268	F	-0.571396	-0.953676	-0.000245
F269	F	-0.238063	-0.620343	0.333088
F270	F	0.095271	-0.287009	0.666422
F271	F	-0.536229	-0.690963	-0.000207
F272	F	-0.202895	-0.357630	0.333127
F273	F	0.130438	-0.024296	0.666460
H274	H	-0.018171	-0.628003	-0.000145
H275	H	0.315162	-0.294670	0.333189
H276	H	0.648496	0.038664	0.666522
