data_functionalizedCrystal
_audit_creation_method	'MofGen! by Chris Wilmer'
_symmetry_space_group_name_H-M	'P1'
_symmetry_Int_Tables_number	1
_symmetry_cell_setting	triclinic
loop_
_symmetry_equiv_pos_as_xyz
  x,y,z
_cell_length_a	14.560438
_cell_length_b	14.560438
_cell_length_c	14.560438
_cell_angle_alpha	60.001579
_cell_angle_beta	90.001043
_cell_angle_gamma	60.000378
loop_
_atom_site_label
_atom_site_type_symbol
_atom_site_fract_x
_atom_site_fract_y
_atom_site_fract_z
Zr1	Zr	0.884753	1.005289	-0.120512
O2	O	0.738105	1.196887	-0.267155
O3	O	0.929708	0.813689	-0.075561
O4	O	0.929705	1.005290	-0.267160
O5	O	0.738110	1.005287	0.075583
O6	O	1.080844	1.005292	-0.267161
O7	O	0.738107	1.005287	-0.075556
O8	O	1.080848	0.662555	0.075574
O9	O	0.738105	1.348025	-0.267152
O10	O	1.061674	0.892500	-0.056388
O11	O	0.948883	0.892498	0.056407
O12	O	0.948880	1.118083	-0.169176
O13	O	0.836089	1.118081	-0.056382
Zr14	Zr	1.125805	1.005294	0.120535
Zr15	Zr	1.125801	1.005293	-0.120514
Zr16	Zr	0.884757	1.005290	0.120537
Zr17	Zr	0.884753	1.246337	-0.120508
Zr18	Zr	1.125804	0.764247	0.120531
O19	O	1.080849	1.196894	0.075584
O20	O	1.080844	1.196893	-0.267157
O21	O	0.738110	1.196888	0.075587
O22	O	1.272453	0.813696	0.267178
O23	O	1.272447	0.813695	-0.075564
O24	O	0.929713	0.813691	0.267180
O25	O	1.272448	1.005296	-0.075560
O26	O	1.080852	1.005294	0.267183
O27	O	0.929714	1.005291	0.267184
O28	O	1.272450	1.005296	0.075579
O29	O	0.929706	1.348028	-0.267154
O30	O	1.080851	0.662555	0.267176
O31	O	1.272452	0.662558	0.267175
O32	O	1.272449	0.662558	0.075573
O33	O	0.738108	1.348026	-0.075550
O34	O	0.929709	1.348029	-0.075551
O35	O	1.061677	0.892501	0.169199
O36	O	1.174469	0.892502	0.056405
O37	O	1.061674	1.118085	-0.056384
O38	O	0.948883	1.118084	0.056411
C39	C	1.005278	0.703778	0.000006
C40	C	1.005278	0.601447	0.000004
C41	C	1.064151	0.553372	-0.058874
C42	C	1.064156	0.457212	-0.058863
C43	C	0.946404	0.457216	0.058904
C44	C	0.946407	0.553367	0.058899
C45	C	0.703764	1.005287	0.000014
C46	C	0.601433	1.005285	0.000014
C47	C	0.612232	0.887535	0.058885
C48	C	0.516077	0.887541	0.058885
C49	C	0.398328	1.123057	-0.058864
C50	C	0.494481	1.123050	-0.058857
C51	C	1.306793	1.005297	0.000009
C52	C	1.409124	1.005299	0.000009
C53	C	1.005274	1.005291	-0.301505
C54	C	1.005272	1.005290	-0.403837
C55	C	1.005279	1.306806	0.000017
C56	C	1.005279	1.409137	0.000019
C57	C	0.922016	1.005292	-0.548075
C58	C	0.922012	1.005286	-0.451920
C59	C	1.088549	1.005288	-0.451907
C60	C	1.088557	1.005284	-0.548055
C61	C	1.005283	1.005293	0.301528
C62	C	1.005285	1.005293	0.403860
C63	C	1.306793	0.703783	0.000004
C64	C	1.409124	0.601454	0.000001
C65	C	1.005283	0.703779	0.301522
C66	C	1.005284	0.601448	0.403852
C67	C	1.306797	0.703784	0.301520
C68	C	1.409130	0.601455	0.403849
C69	C	0.703760	1.306799	-0.301497
C70	C	0.601428	1.409128	-0.403826
C71	C	0.703765	1.306800	0.000019
C72	C	0.601434	1.409130	0.000022
C73	C	1.005275	1.306804	-0.301499
C74	C	1.005273	1.409135	-0.403829
C75	C	1.398324	0.553375	-0.058874
C76	C	1.494479	0.457234	-0.058881
C77	C	1.612229	0.457254	0.058872
C78	C	1.516075	0.553400	0.058872
C79	C	1.064161	0.553372	0.510804
C80	C	1.064150	0.457231	0.606950
C81	C	0.946382	0.457246	0.489179
C82	C	0.946388	0.553392	0.393035
C83	C	1.516082	0.553379	0.393049
C84	C	1.612230	0.457239	0.489202
C85	C	1.494461	0.457255	0.606952
C86	C	1.398315	0.553400	0.510800
H87	H	0.898464	0.592509	0.106850
H88	H	1.112089	0.592514	-0.106828
H89	H	1.524893	0.592505	0.305968
H90	H	1.156370	1.005281	-0.587191
C91	C	0.198646	1.227644	-0.111168
C92	C	0.280765	1.252500	-0.123585
H93	H	0.126069	1.307560	-0.151134
H94	H	0.207075	1.179272	-0.033718
H95	H	0.207092	1.179259	-0.140248
H96	H	0.272324	1.300877	-0.094497
H97	H	0.272332	1.300892	-0.201050
H98	H	1.524877	0.592549	0.106815
H99	H	0.699313	0.791643	0.106834
H100	H	0.854208	1.005282	-0.412787
H101	H	0.854212	1.005296	-0.587222
H102	H	0.485680	1.218942	-0.106794
C103	C	1.811911	0.309866	0.111170
C104	C	1.729792	0.404417	0.123594
H105	H	1.884487	0.277242	0.151135
H106	H	1.803480	0.347374	0.033719
H107	H	1.803467	0.240846	0.140247
H108	H	1.738231	0.473441	0.094508
H109	H	1.738227	0.366910	0.201059
H110	H	0.524880	0.791658	0.106825
C111	C	1.291596	0.543703	-0.175276
C112	C	1.280763	0.606207	-0.123594
H113	H	1.219018	0.576327	-0.215238
H114	H	1.331548	0.452941	-0.119563
H115	H	1.331554	0.559474	-0.226091
H116	H	1.240812	0.590428	-0.072772
H117	H	1.240794	0.696991	-0.179314
H118	H	1.156347	1.005283	-0.412748
C119	C	1.811906	0.309900	0.584309
C120	C	1.729794	0.404420	0.477331
H121	H	1.884485	0.277309	0.576974
H122	H	1.803494	0.240866	0.624249
H123	H	1.803434	0.347434	0.624246
H124	H	1.738261	0.366883	0.437396
H125	H	1.738210	0.473466	0.437373
C126	C	0.829971	0.466923	0.363111
C127	C	0.881653	0.404413	0.477293
H128	H	0.790006	0.434309	0.355773
H129	H	0.885685	0.451158	0.328061
H130	H	0.779156	0.557697	0.328066
H131	H	0.932474	0.313640	0.512337
H132	H	0.825933	0.420167	0.512358
H133	H	1.112114	0.592501	0.519617
H134	H	1.112097	0.418070	-0.106805
C135	C	1.589588	0.309843	-0.111167
C136	C	1.482608	0.404378	-0.123591
H137	H	1.582254	0.277220	-0.151124
H138	H	1.629533	0.240833	-0.033716
H139	H	1.629521	0.347375	-0.140254
H140	H	1.442678	0.366844	-0.094497
H141	H	1.442646	0.473401	-0.201058
H142	H	1.112092	0.418093	0.694031
C143	C	0.894104	0.700790	0.193360
C144	C	0.881666	0.606245	0.275461
H145	H	0.854141	0.733426	0.120777
H146	H	0.971557	0.663273	0.201799
H147	H	0.865030	0.769803	0.201813
H148	H	0.910748	0.537228	0.267012
H149	H	0.804197	0.643762	0.267018
C150	C	0.956715	0.270494	0.205720
C151	C	0.881732	0.404300	0.123639
H152	H	0.916796	0.237810	0.245681
H153	H	1.012405	0.254767	0.256529
H154	H	0.991782	0.228157	0.170612
H155	H	0.846670	0.446638	0.158749
H156	H	0.826021	0.420038	0.072823
C157	C	1.368394	0.466948	0.713684
C158	C	1.482578	0.404433	0.724513
H159	H	1.361058	0.434344	0.786262
H160	H	1.333344	0.451175	0.673743
H161	H	1.333348	0.557722	0.673717
H162	H	1.517622	0.313659	0.764473
H163	H	1.517643	0.420195	0.764471
H164	H	1.311224	0.592547	0.519602
