data_functionalizedCrystal
_audit_creation_method	'MofGen! by Chris Wilmer'
_symmetry_space_group_name_H-M	'P1'
_symmetry_Int_Tables_number	1
_symmetry_cell_setting	triclinic
loop_
_symmetry_equiv_pos_as_xyz
  x,y,z
_cell_length_a	12.477989
_cell_length_b	23.196402
_cell_length_c	23.196402
_cell_angle_alpha	60.000268
_cell_angle_beta	89.998409
_cell_angle_gamma	55.727130
loop_
_atom_site_label
_atom_site_type_symbol
_atom_site_fract_x
_atom_site_fract_y
_atom_site_fract_z
Zr1	Zr	-0.151138	0.641623	0.550071
O2	O	-0.335035	0.774804	0.451566
O3	O	-0.094771	0.517399	0.580266
O4	O	-0.335054	0.654542	0.571830
O5	O	0.094796	0.624346	0.466658
O6	O	-0.335060	0.654544	0.666700
O7	O	-0.094752	0.637661	0.460001
O8	O	0.094762	0.409219	0.681790
O9	O	-0.335027	0.869671	0.451569
O10	O	-0.070727	0.565178	0.663947
O11	O	0.070735	0.555240	0.598115
O12	O	-0.212167	0.716709	0.588183
O13	O	-0.070705	0.706771	0.522351
Zr14	Zr	0.151158	0.620391	0.711994
Zr15	Zr	-0.151148	0.641626	0.701377
Zr16	Zr	0.151169	0.620388	0.560688
Zr17	Zr	-0.151125	0.792924	0.550076
Zr18	Zr	0.151145	0.469089	0.711990
O19	O	0.094791	0.744615	0.681800
O20	O	-0.335050	0.774808	0.666704
O21	O	0.094806	0.744611	0.466662
O22	O	0.335055	0.487210	0.810500
O23	O	-0.094786	0.517403	0.795404
O24	O	0.335070	0.487205	0.595362
O25	O	-0.094775	0.637667	0.795407
O26	O	0.335074	0.607472	0.690235
O27	O	0.335081	0.607470	0.595365
O28	O	0.094772	0.624353	0.802064
O29	O	-0.335035	0.869673	0.571837
O30	O	0.335056	0.392340	0.690229
O31	O	0.335047	0.392343	0.810497
O32	O	0.094754	0.409222	0.802058
O33	O	-0.094733	0.852792	0.460008
O34	O	-0.094742	0.852794	0.580276
O35	O	0.212188	0.545305	0.673883
O36	O	0.070725	0.555243	0.739715
O37	O	-0.070715	0.706774	0.663951
O38	O	0.070747	0.696836	0.598119
C39	C	-0.000006	0.441752	0.631027
C40	C	-0.000012	0.377520	0.631025
C41	C	-0.378129	0.657568	0.617753
C42	C	-0.506466	0.666583	0.613245
C43	C	-0.073858	0.352538	0.665384
C44	C	-0.073847	0.292176	0.665391
C45	C	-0.000008	0.256812	0.631025
C46	C	0.073856	0.281797	0.596665
C47	C	0.073854	0.342151	0.596665
C48	C	-0.010542	0.195521	0.568751
C49	C	-0.010550	0.135173	0.568749
C50	C	0.000006	0.070656	0.631026
C51	C	0.010542	0.066505	0.693305
C52	C	0.010540	0.126859	0.693305
C53	C	0.000003	0.191367	0.631022
C54	C	-0.073832	-0.019778	0.665396
C55	C	-0.073810	-0.080146	0.665406
C56	C	0.073883	-0.090517	0.596673
C57	C	0.073871	-0.030157	0.596670
C58	C	0.000006	0.005212	0.631030
C59	C	0.378150	0.604445	0.644313
C60	C	0.506487	0.595430	0.648820
C61	C	0.000023	0.631003	0.441772
C62	C	0.000028	0.631002	0.377538
C63	C	0.000026	0.820262	0.631039
C64	C	0.000032	0.884493	0.631041
C65	C	0.073845	0.551907	0.386911
C66	C	0.073850	0.551906	0.326557
C67	C	0.000012	0.631005	0.256829
C68	C	-0.073808	0.710109	0.247460
C69	C	-0.073800	0.710108	0.307814
C70	C	-0.123678	0.696320	0.128558
C71	C	-0.123690	0.696319	0.068206
C72	C	-0.000010	0.631013	0.070675
C73	C	0.123680	0.565694	0.133510
C74	C	0.123688	0.565692	0.193864
C75	C	-0.000004	0.631015	0.191381
C76	C	0.073820	0.551911	0.014607
C77	C	0.073830	0.551912	-0.045750
C78	C	-0.073842	0.710119	-0.124847
C79	C	-0.073838	0.710114	-0.064490
C80	C	-0.000011	0.631008	0.005234
C81	C	-0.000003	0.631011	0.820294
C82	C	-0.000007	0.631012	0.884527
C83	C	-0.000019	0.441756	0.820288
C84	C	-0.000029	0.377525	0.884520
C85	C	0.378133	0.415190	0.644307
C86	C	0.506465	0.341944	0.648812
C87	C	0.378120	0.415194	0.833568
C88	C	0.506447	0.341949	0.902307
C89	C	-0.378100	0.846820	0.428497
C90	C	-0.506427	0.920065	0.359759
C91	C	0.000040	0.820258	0.441778
C92	C	0.000050	0.884488	0.377546
C93	C	-0.378113	0.846824	0.617758
C94	C	-0.506445	0.920070	0.613253
C95	C	-0.073883	0.352549	0.875133
C96	C	-0.073921	0.292208	0.935478
C97	C	-0.000095	0.256840	1.005210
C98	C	0.073761	0.281823	1.014596
C99	C	0.073789	0.342167	0.954251
C100	C	0.640580	0.302360	0.690479
C101	C	0.761173	0.233545	0.694710
C102	C	0.747647	0.204311	0.657278
C103	C	0.613518	0.243902	0.615606
C104	C	0.492928	0.312720	0.611372
C105	C	0.492869	0.312740	0.968957
C106	C	0.613435	0.243928	1.033550
C107	C	0.747577	0.204322	1.031491
C108	C	0.761152	0.233537	0.964833
C109	C	0.640588	0.302352	0.900242
C110	C	-0.492849	0.949281	0.293108
C111	C	-0.613414	1.018112	0.228516
C112	C	-0.747556	1.057721	0.230575
C113	C	-0.761132	1.028502	0.297233
C114	C	-0.640568	0.959676	0.361824
C115	C	0.073891	0.909472	0.386932
C116	C	0.073895	0.969832	0.326586
C117	C	0.000066	1.005202	0.256854
C118	C	-0.073785	0.980217	0.247468
C119	C	-0.073797	0.919863	0.307814
C120	C	-0.492874	0.949281	0.650694
C121	C	-0.613443	1.018095	0.646475
C122	C	-0.747582	1.057700	0.604811
C123	C	-0.761150	1.028483	0.567369
C124	C	-0.640582	0.959666	0.571593
H125	H	-0.134000	0.381331	0.693364
F126	F	0.599145	0.212779	0.575772
F127	F	0.875881	0.131082	1.100241
H128	H	-0.133907	0.774517	0.300177
H129	H	-0.615747	0.734401	0.579332
H130	H	-0.019167	0.248063	0.518029
H131	H	0.000087	1.054345	0.207722
H132	H	0.019123	0.123475	0.744015
H133	H	0.133952	0.487494	0.443679
H134	H	-0.133895	1.009024	0.190684
F135	F	-0.350124	0.907142	0.695041
F136	F	0.350196	0.354838	0.567027
H137	H	0.602356	0.220149	1.087819
H138	H	-0.384242	0.527617	0.682723
F139	F	-0.152385	0.893275	0.297813
H140	H	-0.651640	0.935890	0.416091
H141	H	0.870375	0.201318	0.728645
F142	F	-0.655047	0.928591	0.531734
F143	F	-0.903923	1.070648	0.523024
F144	F	-0.598974	1.049181	0.686325
F145	F	0.152414	0.467720	0.336529
H146	H	-0.133984	0.271831	0.693371
H147	H	-0.845745	1.113735	0.601378
F148	F	0.255326	0.496180	0.260733
F149	F	-0.598937	1.049194	0.157582
F150	F	-0.350096	0.907136	0.290900
F151	F	0.021772	-0.002154	0.759590
H152	H	0.383655	0.344978	0.970648
F153	F	-0.903907	1.070664	0.299413
H154	H	0.134039	0.990163	0.334242
F155	F	-0.021770	0.139599	0.502466
H156	H	-0.134018	0.381347	0.818358
F157	F	0.152330	0.244171	1.088816
F158	F	0.152409	0.368737	0.964252
F159	F	-0.255322	0.765835	0.125919
F160	F	-0.152435	0.017860	0.701969
H161	H	0.224384	0.512503	0.135530
F162	F	0.655061	0.333427	0.829310
F163	F	0.152415	0.467723	-0.035769
F164	F	-0.152416	-0.106731	0.701975
H165	H	-0.133964	0.774523	-0.181619
F166	F	0.152469	-0.128149	0.560098
H167	H	0.134021	0.880676	0.443707
H168	H	-0.134063	0.271876	0.927822
F169	F	0.903928	0.191376	0.962652
H170	H	0.134000	-0.009813	0.568689
F171	F	0.152456	0.368740	0.560095
F172	F	0.152450	0.244154	0.560096
H173	H	0.133965	0.487496	0.071381
H174	H	0.845851	0.148275	0.660732
F175	F	-0.875861	1.130971	0.161825
F176	F	-0.255327	0.765840	0.001336
F177	F	-0.152413	0.794299	-0.074467
H178	H	0.651620	0.326153	0.720961
F179	F	-0.152386	0.794291	0.173251
F180	F	-0.000137	0.192616	1.069429
