data_functionalizedCrystal
_audit_creation_method	'MofGen! by Chris Wilmer'
_symmetry_space_group_name_H-M	'P1'
_symmetry_Int_Tables_number	1
_symmetry_cell_setting	triclinic
loop_
_symmetry_equiv_pos_as_xyz
  x,y,z
_cell_length_a	10.654534
_cell_length_b	10.868271
_cell_length_c	11.792254
_cell_angle_alpha	89.994692
_cell_angle_beta	84.338501
_cell_angle_gamma	89.994901
loop_
_atom_site_label
_atom_site_type_symbol
_atom_site_fract_x
_atom_site_fract_y
_atom_site_fract_z
O1	O	-1.667410	0.102346	-0.159334
O2	O	-1.301886	0.102344	-0.174541
O3	O	-1.493510	0.102336	-0.001788
O4	O	-1.475786	0.102354	-0.332087
O5	O	-1.493494	-0.102308	-0.001781
O6	O	-1.301871	-0.102301	-0.174534
O7	O	-1.667394	-0.102299	-0.159327
Zn8	Zn	-1.484630	-0.134792	-0.166929
Zn9	Zn	-1.484651	0.134837	-0.166938
O10	O	-1.475770	-0.102291	-0.332080
C11	C	-1.255083	0.000021	-0.173425
C12	C	-1.115648	0.000020	-0.170095
N13	N	-1.484625	-0.318806	-0.166923
C14	C	-1.050139	-0.111534	-0.168524
C15	C	-0.919128	-0.111537	-0.165377
C16	C	-0.919146	0.111578	-0.165377
C17	C	-1.050156	0.111579	-0.168516
C18	C	-1.484644	-0.569812	-0.166936
C19	C	-1.484629	-0.430134	-0.166932
C20	C	-0.714196	0.000022	-0.160452
C21	C	-0.853627	0.000015	-0.163809
C22	C	-1.492386	0.000014	0.040509
C23	C	-1.489044	0.000015	0.166529
N24	N	-1.484666	0.318851	-0.166936
C25	C	-1.476895	0.000034	-0.374377
C26	C	-1.480237	0.000040	-0.500397
C27	C	-1.486329	0.000020	0.268872
C28	C	-1.482933	0.000031	0.397266
H29	H	-1.103459	-0.202373	-0.169810
H30	H	-1.103495	0.202425	-0.169792
C31	C	-0.932322	0.332116	-0.165699
C32	C	-0.847151	0.234201	-0.163659
H33	H	-0.887875	0.407819	-0.164637
H34	H	-0.974294	0.327476	-0.232988
H35	H	-0.992549	0.327468	-0.100843
H36	H	-0.786930	0.238844	-0.228520
H37	H	-0.805158	0.238843	-0.096364
H38	H	-0.865796	-0.202376	-0.164098
