data_functionalizedCrystal
_audit_creation_method	'MofGen! by Chris Wilmer'
_symmetry_space_group_name_H-M	'P1'
_symmetry_Int_Tables_number	1
_symmetry_cell_setting	triclinic
loop_
_symmetry_equiv_pos_as_xyz
  x,y,z
_cell_length_a	13.032831
_cell_length_b	21.295416
_cell_length_c	13.032328
_cell_angle_alpha	82.857959
_cell_angle_beta	90.887223
_cell_angle_gamma	97.165484
loop_
_atom_site_label
_atom_site_type_symbol
_atom_site_fract_x
_atom_site_fract_y
_atom_site_fract_z
Zn1	Zn	1.498329	0.425095	-0.780753
Zn2	Zn	1.520041	0.518882	-0.608757
Zn3	Zn	1.348198	0.398801	-0.587000
Zn4	Zn	1.326289	0.515477	-0.758882
O5	O	1.423214	0.464564	-0.683848
O6	O	1.645126	0.449965	-0.776196
O7	O	1.515501	0.493374	-0.461957
O8	O	1.368196	0.314210	-0.612749
O9	O	1.661077	0.518870	-0.649831
O10	O	1.478497	0.333527	-0.755099
O11	O	1.389249	0.405151	-0.445972
O12	O	1.201376	0.401850	-0.591542
O13	O	1.330855	0.513066	-0.905697
O14	O	1.185279	0.487571	-0.717823
O15	O	1.457253	0.446663	-0.921766
O16	O	1.494257	0.606510	-0.628624
O17	O	1.351908	0.604008	-0.738920
C18	C	1.156011	0.441488	-0.649949
C19	C	1.041698	0.431633	-0.635471
C20	C	0.982808	0.469707	-0.691404
C21	C	0.864659	0.459522	-0.676442
C22	C	1.423086	0.628101	-0.683786
C23	C	1.423121	0.698073	-0.683805
C24	C	1.497292	0.732231	-0.626451
C25	C	1.497337	0.797980	-0.626485
C26	C	1.423194	0.829565	-0.683860
C27	C	1.349017	0.795400	-0.741226
C28	C	1.348981	0.729653	-0.741199
N29	N	1.332231	0.925589	-0.680293
N30	N	1.332269	0.988045	-0.680314
C31	C	1.423301	1.027655	-0.683947
N32	N	1.514298	1.002448	-0.687540
N33	N	1.514259	0.939986	-0.687515
C34	C	1.423226	0.900856	-0.683896
C35	C	1.497526	1.133105	-0.626627
C36	C	1.497572	1.198856	-0.626669
C37	C	1.349244	1.196273	-0.741403
C38	C	1.349207	1.130525	-0.741368
C39	C	1.423347	1.098945	-0.683975
C40	C	1.691461	0.487730	-0.717880
C41	C	1.805771	0.497602	-0.732383
C42	C	1.389188	0.482418	-0.952090
C43	C	1.374688	0.490026	-1.066399
C44	C	1.423367	1.300393	-0.683955
C45	C	1.423430	1.230437	-0.684046
C46	C	1.415791	0.468431	-1.243458
C47	C	1.430772	0.460562	-1.125313
C48	C	1.457167	0.446739	-0.416657
C49	C	1.471867	0.438971	-0.302374
H50	H	0.842817	0.537739	-0.791356
H51	H	1.557977	1.226667	-0.579967
H52	H	1.004645	0.391493	-0.576512
H53	H	1.557739	0.825797	-0.579781
H54	H	1.557663	0.706521	-0.579721
Br55	Br	1.276166	0.541772	-1.128090
H56	H	1.019860	0.509842	-0.750371
H57	H	1.288651	0.821121	-0.787943
H58	H	1.288806	1.102711	-0.788067
H59	H	1.356689	0.499476	-1.280483
Br60	Br	1.248629	1.239134	-0.819283
H61	H	1.288581	0.701841	-0.787904
H62	H	1.489871	0.429509	-1.088291
H63	H	0.827611	0.419380	-0.617479
Br64	Br	1.598140	1.090242	-0.548735
Br65	Br	1.570365	0.387214	-1.240672
