data_functionalizedCrystal
_audit_creation_method	'MofGen! by Chris Wilmer'
_symmetry_space_group_name_H-M	'P1'
_symmetry_Int_Tables_number	1
_symmetry_cell_setting	triclinic
loop_
_symmetry_equiv_pos_as_xyz
  x,y,z
_cell_length_a	14.044220
_cell_length_b	14.044190
_cell_length_c	12.996460
_cell_angle_alpha	89.989157
_cell_angle_beta	89.999501
_cell_angle_gamma	93.190328
loop_
_atom_site_label
_atom_site_type_symbol
_atom_site_fract_x
_atom_site_fract_y
_atom_site_fract_z
O1	O	1.277175	0.230170	-0.085478
O2	O	1.610509	0.563504	0.247855
O3	O	1.943842	0.896837	0.581188
O4	O	1.000504	0.221865	-0.085504
O5	O	1.333837	0.555198	0.247830
O6	O	1.667170	0.888531	0.581163
O7	O	1.134683	0.087681	-0.085471
O8	O	1.468016	0.421014	0.247862
O9	O	1.801350	0.754348	0.581196
O10	O	1.142996	0.364354	-0.085511
O11	O	1.476329	0.697687	0.247823
O12	O	1.809662	1.031020	0.581156
O13	O	1.134667	0.087672	0.085663
O14	O	1.468000	0.421005	0.418996
O15	O	1.801334	0.754338	0.752329
O16	O	1.000488	0.221855	0.085630
O17	O	1.333821	0.555188	0.418964
O18	O	1.667154	0.888522	0.752297
O19	O	1.277159	0.230161	0.085656
O20	O	1.610493	0.563494	0.418989
O21	O	1.943826	0.896827	0.752322
Cu22	Cu	1.138822	0.226007	0.101269
Cu23	Cu	1.472155	0.559340	0.434602
Cu24	Cu	1.805489	0.892674	0.767935
Cu25	Cu	1.138841	0.226018	-0.101117
Cu26	Cu	1.472174	0.559352	0.232217
Cu27	Cu	1.805508	0.892685	0.565550
O28	O	1.142980	0.364344	0.085623
O29	O	1.476313	0.697678	0.418956
O30	O	1.809646	1.031011	0.752290
C31	C	0.964874	0.218224	0.000060
C32	C	1.298207	0.551557	0.333394
C33	C	1.631540	0.884891	0.666727
C34	C	0.858731	0.207380	0.000052
C35	C	1.192064	0.540713	0.333385
C36	C	1.525397	0.874046	0.666718
C37	C	1.131039	0.052054	0.000099
C38	C	1.464372	0.385388	0.333432
C39	C	1.797705	0.718721	0.666765
C40	C	1.120191	-0.054089	0.000107
C41	C	1.453525	0.279245	0.333440
C42	C	1.786858	0.612578	0.666773
C43	C	0.664392	0.187553	0.000075
C44	C	0.997726	0.520887	0.333408
C45	C	1.331059	0.854220	0.666741
C46	C	0.613264	0.264468	0.000068
C47	C	0.946598	0.597801	0.333401
C48	C	1.279931	0.931135	0.666735
C49	C	0.505128	0.253436	0.000081
C50	C	0.838461	0.586770	0.333414
C51	C	1.171795	0.920103	0.666748
C52	C	0.772539	0.198583	0.000062
C53	C	1.105872	0.531917	0.333395
C54	C	1.439205	0.865250	0.666729
C55	C	1.177292	-0.299547	0.000071
C56	C	1.510625	0.033786	0.333405
C57	C	1.843958	0.367120	0.666738
C58	C	1.100375	-0.248422	0.000072
C59	C	1.433709	0.084912	0.333405
C60	C	1.767042	0.418245	0.666738
C61	C	1.111404	-0.140285	0.000091
C62	C	1.444737	0.193049	0.333424
C63	C	1.778070	0.526382	0.666758
C64	C	1.166265	-0.407694	0.000052
C65	C	1.499598	-0.074361	0.333385
C66	C	1.832932	0.258973	0.666719
C67	C	1.312789	0.233801	0.000089
C68	C	1.646123	0.567135	0.333423
C69	C	1.979456	0.900468	0.666756
C70	C	1.418932	0.244646	0.000091
C71	C	1.752266	0.577979	0.333425
C72	C	2.085599	0.911312	0.666758
C73	C	1.146624	0.399971	0.000051
C74	C	1.479958	0.733304	0.333385
C75	C	1.813291	1.066638	0.666718
C76	C	1.157472	0.506114	0.000036
C77	C	1.490805	0.839447	0.333370
C78	C	1.824138	1.172781	0.666703
N79	N	1.138816	0.225999	0.243616
N80	N	1.472149	0.559333	0.576949
N81	N	1.805482	0.892666	0.910283
N82	N	1.138854	0.226019	-0.243464
N83	N	1.472187	0.559352	0.089869
N84	N	1.805521	0.892686	0.423203
C85	C	1.138840	0.226019	0.663430
C86	C	1.472173	0.559352	0.996763
C87	C	1.805506	0.892686	1.330097
C88	C	1.138830	0.226017	0.546625
C89	C	1.472164	0.559350	0.879958
C90	C	1.805497	0.892683	1.213292
C91	C	1.138828	0.226010	0.453527
C92	C	1.472161	0.559343	0.786860
C93	C	1.805495	0.892677	1.120193
C94	C	1.138818	0.226006	0.336714
C95	C	1.472151	0.559339	0.670047
C96	C	1.805485	0.892673	1.003381
H97	H	0.650706	0.338602	0.000052
H98	H	0.984039	0.671935	0.333386
H99	H	1.317372	1.005268	0.666719
H100	H	0.626954	0.113425	0.000091
H101	H	0.960287	0.446759	0.333424
H102	H	1.293620	0.780092	0.666758
O103	O	1.265657	-0.254735	0.000143
O104	O	1.598991	0.078598	0.333476
O105	O	1.932324	0.411932	0.666809
C106	C	1.257133	-0.155178	0.000135
C107	C	1.590466	0.178155	0.333468
C108	C	1.923800	0.511489	0.666802
H109	H	1.184562	-0.138234	0.032520
H110	H	1.517895	0.195099	0.365853
H111	H	1.851229	0.528432	0.699187
H112	H	1.264074	-0.127028	-0.081959
H113	H	1.597407	0.206305	0.251374
H114	H	1.930741	0.539638	0.584707
C115	C	1.425609	-0.128151	0.027501
C116	C	1.758942	0.205182	0.360834
C117	C	2.092276	0.538516	0.694168
C118	C	1.336479	-0.107340	0.067285
C119	C	1.669812	0.225993	0.400618
C120	C	2.003146	0.559326	0.733952
H121	H	1.474555	-0.098641	0.068918
H122	H	1.807889	0.234693	0.402251
H123	H	2.141222	0.568026	0.735584
H124	H	1.431353	-0.195224	0.027502
H125	H	1.764687	0.138109	0.360836
H126	H	2.098020	0.471443	0.694169
H127	H	1.431380	-0.104692	-0.040910
H128	H	1.764713	0.228641	0.292423
H129	H	2.098046	0.561975	0.625757
H130	H	1.330705	-0.130809	0.135689
H131	H	1.664038	0.202524	0.469023
H132	H	1.997372	0.535857	0.802356
H133	H	1.330736	-0.040269	0.067297
H134	H	1.664069	0.293064	0.400630
H135	H	1.997402	0.626397	0.733963
O136	O	1.012003	-0.293235	0.000105
O137	O	1.345337	0.040099	0.333438
O138	O	1.678670	0.373432	0.666772
C139	C	1.020519	-0.392793	0.000064
C140	C	1.353852	-0.059460	0.333397
C141	C	1.687185	0.273874	0.666730
H142	H	1.093078	-0.409765	0.032462
H143	H	1.426412	-0.076432	0.365795
H144	H	1.759745	0.256902	0.699129
H145	H	1.013598	-0.420887	-0.082042
H146	H	1.346932	-0.087554	0.251291
H147	H	1.680265	0.245780	0.584624
C148	C	0.852033	-0.419823	0.027375
C149	C	1.185367	-0.086490	0.360708
C150	C	1.518700	0.246843	0.694042
C151	C	0.941149	-0.440669	0.067175
C152	C	1.274483	-0.107336	0.400508
C153	C	1.607816	0.225998	0.733842
H154	H	0.803073	-0.449357	0.068768
H155	H	1.136406	-0.116024	0.402101
H156	H	1.469739	0.217309	0.735435
H157	H	0.846295	-0.352749	0.027399
H158	H	1.179628	-0.019416	0.360732
H159	H	1.512962	0.313917	0.694065
H160	H	0.846280	-0.443236	-0.041046
H161	H	1.179613	-0.109902	0.292287
H162	H	1.512946	0.223431	0.625620
H163	H	0.946906	-0.417246	0.135590
H164	H	1.280240	-0.083913	0.468923
H165	H	1.613573	0.249420	0.802256
H166	H	0.946887	-0.507741	0.067164
H167	H	1.280220	-0.174407	0.400498
H168	H	1.613553	0.158926	0.733831
