data_functionalizedCrystal
_audit_creation_method	'MofGen! by Chris Wilmer'
_symmetry_space_group_name_H-M	'P1'
_symmetry_Int_Tables_number	1
_symmetry_cell_setting	triclinic
loop_
_symmetry_equiv_pos_as_xyz
  x,y,z
_cell_length_a	16.120484
_cell_length_b	10.685980
_cell_length_c	16.120256
_cell_angle_alpha	91.719938
_cell_angle_beta	84.383827
_cell_angle_gamma	97.500660
loop_
_atom_site_label
_atom_site_type_symbol
_atom_site_fract_x
_atom_site_fract_y
_atom_site_fract_z
Zn1	Zn	-0.266959	1.864194	0.579448
Zn2	Zn	0.233041	2.364194	1.079448
Zn3	Zn	-0.399652	1.864036	0.446750
Zn4	Zn	0.100348	2.364036	0.946750
Zn5	Zn	-0.269513	1.664441	0.430051
Zn6	Zn	0.230487	2.164441	0.930051
Zn7	Zn	-0.417401	1.641847	0.575748
Zn8	Zn	0.082599	2.141847	1.075748
O9	O	-0.338381	1.758630	0.507999
O10	O	0.161619	2.258630	1.007999
O11	O	-0.276064	2.040758	0.570383
O12	O	0.223936	2.540758	1.070383
O13	O	-0.376030	1.846948	0.328026
O14	O	0.123970	2.346948	0.828026
O15	O	-0.151750	1.700461	0.444428
O16	O	0.348250	2.200461	0.944428
O17	O	-0.373553	2.040641	0.472890
O18	O	0.126447	2.540641	0.972890
O19	O	-0.149873	1.847219	0.554190
O20	O	0.350127	2.347219	1.054190
O21	O	-0.280417	1.700307	0.315757
O22	O	0.219583	2.200307	0.815757
O23	O	-0.297628	1.484860	0.440840
O24	O	0.202372	1.984860	0.940840
O25	O	-0.403803	1.661953	0.692748
O26	O	0.096197	2.161953	1.192748
O27	O	-0.406280	1.468260	0.547883
O28	O	0.093720	1.968260	1.047883
O29	O	-0.293274	1.825310	0.695467
O30	O	0.206726	2.325310	1.195467
O31	O	-0.519430	1.825040	0.469302
O32	O	-0.019430	2.325040	0.969302
O33	O	-0.532471	1.661799	0.564076
O34	O	-0.032471	2.161799	1.064076
C35	C	-0.354158	1.430773	0.492148
C36	C	0.145842	1.930773	0.992148
C37	C	-0.360929	1.290512	0.485388
C38	C	0.139071	1.790512	0.985388
C39	C	-0.556397	1.740983	0.518120
C40	C	-0.056397	2.240983	1.018120
C41	C	-0.649660	1.733547	0.522482
C42	C	-0.149660	2.233547	1.022482
C43	C	-0.820415	1.719977	0.530466
C44	C	-0.320415	2.219977	1.030466
C45	C	-0.855497	1.797507	0.485557
C46	C	-0.355497	2.297507	0.985557
C47	C	-0.950510	1.789957	0.489999
C48	C	-0.450510	2.289957	0.989999
C49	C	-0.725393	1.727526	0.526025
C50	C	-0.225393	2.227526	1.026025
C51	C	-0.119514	1.776378	0.497859
C52	C	0.380486	2.276378	0.997859
C53	C	-0.026245	1.783941	0.493538
C54	C	0.473755	2.283941	0.993538
C55	C	-0.350234	1.741129	0.725161
C56	C	0.149766	2.241129	1.225161
C57	C	-0.355284	1.733671	0.817703
C58	C	0.144716	2.233671	1.317703
C59	C	-0.322543	2.087766	0.523912
C60	C	0.177457	2.587766	1.023912
C61	C	-0.315794	2.228024	0.530694
C62	C	0.184206	2.728024	1.030694
C63	C	-0.326511	1.776140	0.291682
C64	C	0.173489	2.276140	0.791682
C65	C	-0.321212	1.783861	0.199142
C66	C	0.178788	2.283861	0.699142
C67	C	-0.312020	1.797521	1.029711
C68	C	0.187980	2.297521	1.529711
C69	C	-0.364473	1.720015	0.987129
C70	C	0.135527	2.220015	1.487129
C71	C	-0.359359	1.727616	0.892852
C72	C	0.140641	2.227616	1.392852
C73	C	-0.317133	1.789922	1.123997
C74	C	0.182867	2.289922	1.623997
H75	H	-0.271968	1.281830	0.574652
H76	H	0.228032	1.781830	1.074652
H77	H	-0.404752	1.236700	0.441421
H78	H	0.095248	1.736700	0.941421
N79	N	-0.250863	1.887907	0.986627
N80	N	0.249137	2.387907	1.486627
N81	N	-0.196947	1.851685	0.933440
N82	N	0.303053	2.351685	1.433440
H83	H	-0.153755	1.915520	0.903003
H84	H	0.346245	2.415520	1.403003
N85	N	-0.803661	1.887856	0.433116
N86	N	-0.303661	2.387856	0.933116
N87	N	-0.754048	1.851571	0.375654
N88	N	-0.254048	2.351571	0.875654
H89	H	-0.717437	1.915368	0.338611
H90	H	-0.217437	2.415368	0.838611
H91	H	-0.861734	1.647935	0.572244
H92	H	-0.361734	2.147935	1.072244
N93	N	-0.425622	1.629616	1.030224
N94	N	0.074378	2.129616	1.530224
N95	N	-0.429743	1.623493	1.107859
N96	N	0.070257	2.123493	1.607859
H97	H	-0.472928	1.559653	1.138300
H98	H	0.027072	2.059653	1.638300
