data_functionalizedCrystal
_audit_creation_method	'MofGen! by Chris Wilmer'
_symmetry_space_group_name_H-M	'P1'
_symmetry_Int_Tables_number	1
_symmetry_cell_setting	triclinic
loop_
_symmetry_equiv_pos_as_xyz
  x,y,z
_cell_length_a	14.044220
_cell_length_b	11.792241
_cell_length_c	10.268362
_cell_angle_alpha	90.000374
_cell_angle_beta	89.993803
_cell_angle_gamma	91.308853
loop_
_atom_site_label
_atom_site_type_symbol
_atom_site_fract_x
_atom_site_fract_y
_atom_site_fract_z
O1	O	0.129987	-1.519112	-0.108177
O2	O	0.629987	-1.019112	0.391823
O3	O	0.143384	-1.190028	-0.108207
O4	O	0.643384	-0.690028	0.391793
O5	O	-0.001325	-1.349630	-0.108180
O6	O	0.498675	-0.849630	0.391820
O7	O	0.274695	-1.359509	-0.108204
O8	O	0.774695	-0.859509	0.391796
O9	O	-0.001331	-1.349615	0.108421
O10	O	0.498669	-0.849615	0.608421
O11	O	0.143378	-1.190012	0.108393
O12	O	0.643378	-0.690012	0.608393
O13	O	0.129981	-1.519096	0.108424
O14	O	0.629981	-1.019096	0.608424
Cu15	Cu	0.136679	-1.354553	0.128186
Cu16	Cu	0.636679	-0.854553	0.628186
Cu17	Cu	0.136686	-1.354571	-0.127969
Cu18	Cu	0.636686	-0.854571	0.372031
O19	O	0.274689	-1.359494	0.108396
O20	O	0.774689	-0.859494	0.608396
C21	C	0.142539	-1.147650	0.000089
C22	C	0.642539	-0.647650	0.500089
C23	C	0.140020	-1.021400	0.000078
C24	C	0.640020	-0.521400	0.500078
C25	C	-0.036664	-1.345298	0.000121
C26	C	0.463336	-0.845298	0.500121
C27	C	-0.141956	-1.332399	0.000121
C28	C	0.358044	-0.832399	0.500121
C29	C	0.130826	-1.561474	0.000125
C30	C	0.630826	-1.061474	0.500125
C31	C	0.133344	-1.687724	0.000127
C32	C	0.633344	-1.187724	0.500127
C33	C	-0.334739	-1.308817	0.000100
C34	C	0.165261	-0.808817	0.500100
C35	C	-0.391902	-1.400302	0.000105
C36	C	0.108098	-0.900302	0.500105
C37	C	-0.499173	-1.387181	0.000093
C38	C	0.000827	-0.887181	0.500093
C39	C	-0.227458	-1.321937	0.000112
C40	C	0.272542	-0.821937	0.500112
C41	C	0.310029	-1.363826	0.000093
C42	C	0.810029	-0.863826	0.500093
C43	C	0.415321	-1.376725	0.000084
C44	C	0.915321	-0.876725	0.500084
N45	N	0.136673	-1.354548	0.308352
N46	N	0.636673	-0.854548	0.808352
C47	C	0.135389	-0.790253	0.000116
C48	C	0.635389	-0.290253	0.500116
C49	C	0.137962	-0.918880	0.000095
C50	C	0.637962	-0.418880	0.500095
N51	N	0.136684	-1.354584	-0.308135
N52	N	0.636684	-0.854584	0.191865
C53	C	0.136684	-1.354565	0.574022
C54	C	0.636684	-0.854565	1.074022
C55	C	0.136681	-1.354552	0.426185
C56	C	0.636681	-0.854552	0.926185
H57	H	-0.366361	-1.220647	0.000089
H58	H	0.133639	-0.720647	0.500089
H59	H	-0.360278	-1.488479	0.000026
H60	H	0.139722	-0.988479	0.500026
