data_functionalizedCrystal
_audit_creation_method	'MofGen! by Chris Wilmer'
_symmetry_space_group_name_H-M	'P1'
_symmetry_Int_Tables_number	1
_symmetry_cell_setting	triclinic
loop_
_symmetry_equiv_pos_as_xyz
  x,y,z
_cell_length_a	16.109301
_cell_length_b	17.038272
_cell_length_c	14.586319
_cell_angle_alpha	89.995924
_cell_angle_beta	89.999213
_cell_angle_gamma	87.286518
loop_
_atom_site_label
_atom_site_type_symbol
_atom_site_fract_x
_atom_site_fract_y
_atom_site_fract_z
O1	O	1.110268	0.100495	-0.076183
O2	O	0.869094	0.113001	-0.076198
O3	O	0.988248	-0.007067	-0.076183
O4	O	0.991114	0.220564	-0.076198
O5	O	0.988239	-0.007069	0.076298
O6	O	0.869085	0.113000	0.076283
O7	O	1.110259	0.100493	0.076298
Cu8	Cu	0.989671	0.106746	0.090213
Cu9	Cu	0.989682	0.106748	-0.090113
O10	O	0.991105	0.220562	0.076283
C11	C	0.838079	0.112494	0.000041
C12	C	0.745676	0.110975	0.000035
C13	C	0.528212	0.178690	0.000042
C14	C	0.441390	0.177257	0.000048
C15	C	0.451147	0.034799	0.000053
C16	C	0.537968	0.036233	0.000054
C17	C	0.576498	0.108181	0.000043
C18	C	0.402855	0.105314	0.000049
C19	C	0.308719	0.103759	0.000055
C20	C	0.670640	0.109736	0.000039
C21	C	0.985636	-0.036196	0.000057
C22	C	0.977857	-0.122989	0.000056
C23	C	1.049277	-0.173104	0.000062
C24	C	1.041963	-0.254654	0.000052
C25	C	0.963228	-0.286089	0.000044
C26	C	0.891802	-0.235967	0.000036
C27	C	0.899116	-0.154418	0.000039
C28	C	0.937385	-0.531846	0.000030
C29	C	0.930076	-0.613402	0.000031
C30	C	1.080238	-0.632083	0.000045
C31	C	1.087546	-0.550532	0.000053
C32	C	1.016120	-0.500418	0.000040
C33	C	0.955749	-0.369446	0.000038
C34	C	1.023599	-0.417062	0.000040
C35	C	1.141274	0.101001	0.000057
C36	C	1.233677	0.102519	0.000057
C37	C	0.993717	0.249691	0.000041
C38	C	1.001496	0.336484	0.000036
N39	N	0.989670	0.106744	0.217045
N40	N	0.989689	0.106744	-0.216945
C41	C	1.042451	0.053596	0.452058
C42	C	1.042453	0.053594	0.548039
C43	C	0.936902	0.159895	0.548036
C44	C	0.936896	0.159893	0.452056
C45	C	0.989675	0.106744	0.404070
C46	C	0.989684	0.106744	0.596030
C47	C	0.989686	0.106743	0.700098
C48	C	0.989672	0.106744	0.299996
H49	H	0.419765	-0.023778	0.000067
H50	H	0.559580	0.237274	0.000040
C51	C	0.844640	-0.647642	-0.000125
C52	C	0.836078	-0.693930	-0.078559
C53	C	0.757396	-0.725496	-0.078725
H54	H	0.803067	-0.606201	-0.000181
H55	H	0.838653	-0.679112	0.053022
H56	H	0.842057	-0.662462	-0.131693
H57	H	0.877632	-0.735384	-0.078520
H58	H	0.751409	-0.756966	-0.025578
H59	H	0.715831	-0.684050	-0.078778
H60	H	0.751580	-0.756912	-0.131937
H61	H	1.100122	-0.295455	0.000059
C62	C	1.173008	-0.516357	0.000244
C63	C	1.181593	-0.470107	0.078705
C64	C	1.260313	-0.438619	0.078920
H65	H	1.179068	-0.484874	-0.052866
H66	H	1.214528	-0.557859	0.000293
H67	H	1.140086	-0.428610	0.078646
H68	H	1.175550	-0.501572	0.131827
H69	H	1.301832	-0.480121	0.078970
H70	H	1.266366	-0.407140	0.025807
H71	H	1.266151	-0.407240	0.132159
C72	C	1.099672	-0.004062	0.399791
C73	C	1.088371	0.007305	0.305464
C74	C	1.141057	-0.045808	0.257291
H75	H	1.086964	-0.056263	0.415443
H76	H	1.155792	0.004410	0.415438
H77	H	1.032264	-0.001173	0.289824
H78	H	1.101085	0.059495	0.289786
H79	H	1.197177	-0.037335	0.272938
H80	H	1.128345	-0.098005	0.272950
H81	H	1.133402	-0.038097	0.193286
C82	C	0.821643	-0.099913	0.000178
C83	C	0.821457	-0.052539	0.078612
C84	C	0.750105	-0.002314	0.078760
H85	H	0.773641	-0.130214	0.000221
H86	H	0.821377	-0.067664	-0.052969
H87	H	0.821715	-0.084784	0.131746
H88	H	0.869443	-0.022221	0.078586
H89	H	0.749840	0.029935	0.025613
H90	H	0.702109	-0.032621	0.078801
H91	H	0.749974	0.029841	0.131972
H92	H	1.085426	0.010315	0.587108
C93	C	1.157753	-0.686531	-0.000141
C94	C	1.157955	-0.733873	-0.078603
C95	C	1.229357	-0.784032	-0.078815
H96	H	1.158095	-0.718811	0.052969
H97	H	1.205714	-0.656158	-0.000187
H98	H	1.110007	-0.764243	-0.078548
H99	H	1.157625	-0.701614	-0.131725
H100	H	1.277318	-0.753659	-0.078862
H101	H	1.229693	-0.816307	-0.025703
H102	H	1.229508	-0.816154	-0.132055
C103	C	0.879699	0.217568	0.600303
C104	C	0.891016	0.206212	0.694630
C105	C	0.838344	0.259336	0.742805
H106	H	0.823578	0.209116	0.584693
H107	H	0.892427	0.269767	0.584617
H108	H	0.878282	0.154026	0.710310
H109	H	0.947127	0.214671	0.710268
H110	H	0.851072	0.311535	0.727118
H111	H	0.782226	0.250879	0.727187
H112	H	0.846021	0.251643	0.806810
H113	H	0.577284	-0.021187	0.000057
H114	H	0.893916	0.203173	0.412982
C115	C	0.806242	-0.269941	-0.000022
C116	C	0.745260	-0.208595	-0.000053
C117	C	0.666431	-0.239860	-0.000118
H118	H	0.800142	-0.301357	0.053135
H119	H	0.800229	-0.301339	-0.053218
H120	H	0.751269	-0.177211	0.053138
H121	H	0.751332	-0.177174	-0.053207
H122	H	0.660419	-0.271257	-0.053314
H123	H	0.660341	-0.271275	0.053040
H124	H	0.625046	-0.198242	-0.000148
C125	C	1.109029	-0.382828	-0.000094
C126	C	1.117611	-0.336534	-0.078528
C127	C	1.196293	-0.304969	-0.078673
H128	H	1.150601	-0.424270	-0.000135
H129	H	1.115002	-0.351362	0.053053
H130	H	1.111646	-0.367999	-0.131662
H131	H	1.076058	-0.295080	-0.078504
H132	H	1.202266	-0.273503	-0.025526
H133	H	1.237858	-0.346416	-0.078712
H134	H	1.202123	-0.273550	-0.131885
C135	C	0.870319	-0.403687	-0.000104
C136	C	0.861749	-0.449968	-0.078543
C137	C	0.783068	-0.481535	-0.078701
H138	H	0.828746	-0.362246	-0.000149
H139	H	0.864339	-0.435162	0.053040
H140	H	0.867721	-0.418495	-0.131673
H141	H	0.903303	-0.491421	-0.078514
H142	H	0.777088	-0.513010	-0.025556
H143	H	0.741502	-0.440090	-0.078743
H144	H	0.777246	-0.512946	-0.131915
C145	C	1.134785	-0.139023	-0.000122
C146	C	1.178295	-0.164474	-0.078581
C147	C	1.257064	-0.133089	-0.078792
H148	H	1.164537	-0.156209	0.052989
H149	H	1.128950	-0.083274	-0.000170
H150	H	1.184134	-0.220211	-0.078525
H151	H	1.148569	-0.147289	-0.131705
H152	H	1.251229	-0.077340	-0.078840
H153	H	1.286808	-0.150277	-0.025678
H154	H	1.286593	-0.150347	-0.132030
H155	H	0.402079	0.234672	0.000048
H156	H	0.879224	-0.491053	0.000020
