data_functionalizedCrystal
_audit_creation_method	'MofGen! by Chris Wilmer'
_symmetry_space_group_name_H-M	'P1'
_symmetry_Int_Tables_number	1
_symmetry_cell_setting	triclinic
loop_
_symmetry_equiv_pos_as_xyz
  x,y,z
_cell_length_a	12.837943
_cell_length_b	10.540539
_cell_length_c	11.295483
_cell_angle_alpha	94.138588
_cell_angle_beta	85.461227
_cell_angle_gamma	89.677216
loop_
_atom_site_label
_atom_site_type_symbol
_atom_site_fract_x
_atom_site_fract_y
_atom_site_fract_z
O1	O	1.384822	0.322576	-0.098993
O2	O	1.082896	0.306260	-0.099000
O3	O	1.240747	0.130469	-0.098995
O4	O	1.226971	0.498368	-0.098998
O5	O	1.226883	0.145882	0.099055
O6	O	1.069032	0.321674	0.099050
O7	O	1.370958	0.337990	0.099057
Cu8	Cu	1.218729	0.331239	0.117137
Cu9	Cu	1.235125	0.313011	-0.117080
O10	O	1.213106	0.513782	0.099052
C11	C	1.037303	0.308455	0.000024
C12	C	0.922104	0.292017	0.000021
C13	C	0.682608	0.489637	0.000036
C14	C	0.574368	0.474197	0.000034
C15	C	0.597381	0.245700	0.000023
C16	C	0.705621	0.261140	0.000025
C17	C	0.748230	0.383112	0.000030
C18	C	0.856473	0.398549	0.000023
C19	C	0.879484	0.170054	0.000021
C20	C	0.771244	0.154615	0.000019
C21	C	1.232782	0.090759	0.000028
C22	C	1.229692	-0.050529	0.000022
C23	C	1.111280	-0.247004	-0.000426
C24	C	1.114382	-0.100007	0.000020
C25	C	1.277266	-0.097288	0.113119
C26	C	1.273324	-0.244258	0.113215
C27	C	1.291436	-0.262047	-0.112006
C28	C	1.292603	-0.115064	-0.113501
C29	C	1.416551	0.335795	0.000031
C30	C	1.531750	0.352233	0.000026
C31	C	1.221072	0.553491	0.000026
C32	C	1.224163	0.694779	0.000025
N33	N	1.207204	0.344061	0.281873
N34	N	1.246658	0.300181	-0.281816
C35	C	1.329620	0.207816	0.531167
C36	C	1.320918	0.217515	0.655830
C37	C	1.181093	0.373150	0.655866
C38	C	1.189795	0.363451	0.531202
C39	C	1.264062	0.280783	0.468857
C40	C	1.272769	0.271091	0.344192
C41	C	1.132940	0.426719	0.344229
C42	C	1.124238	0.436418	0.468892
H43	H	1.071408	-0.286920	-0.081530
O44	O	1.344749	0.190658	0.283522
C45	C	1.293593	0.099897	0.211485
H46	H	1.214110	0.139227	0.192800
H47	H	1.282437	0.008916	0.259577
C48	C	1.457774	0.022223	0.116018
C49	C	1.360155	0.070532	0.093060
H50	H	1.498834	0.004103	0.042970
H51	H	1.492240	0.083366	0.164553
H52	H	1.448464	-0.053589	0.156098
H53	H	1.369466	0.146350	0.052995
H54	H	1.325692	0.009400	0.044515
H55	H	1.257857	-0.085178	-0.197168
O56	O	0.897754	0.517079	-0.000129
C57	C	0.871502	0.574824	-0.102710
H58	H	0.798580	0.528466	-0.136910
H59	H	0.939043	0.562097	-0.174536
C60	C	0.939660	0.774650	-0.029534
C61	C	0.850090	0.717720	-0.071534
H62	H	0.926456	0.862796	-0.010307
H63	H	0.957350	0.735746	0.039575
H64	H	0.995935	0.764032	-0.089396
H65	H	0.793820	0.728325	-0.011667
H66	H	0.832389	0.756629	-0.140632
O67	O	0.723830	0.608206	0.000085
C68	C	0.642700	0.698917	0.000050
H69	H	0.566290	0.657342	0.037546
H70	H	0.634303	0.725004	-0.094967
C71	C	0.762488	0.869991	0.031659
C72	C	0.668641	0.818931	0.077722
H73	H	0.778490	0.944024	0.079565
H74	H	0.817148	0.808878	0.031678
H75	H	0.755478	0.891719	-0.047521
H76	H	0.675657	0.797189	0.156894
H77	H	0.613983	0.880043	0.077717
H78	H	1.361652	-0.065303	0.117326
H79	H	1.390098	0.140514	0.480405
H80	H	1.374300	0.158097	0.706559
O81	O	1.069199	0.497735	0.283885
C82	C	1.001770	0.572751	0.365651
H83	H	1.038113	0.586267	0.454507
H84	H	0.923464	0.523159	0.378921
C85	C	0.940163	0.686830	0.207875
C86	C	0.984804	0.703438	0.317007
H87	H	0.929692	0.767442	0.177868
H88	H	0.985588	0.636287	0.152787
H89	H	0.874913	0.645499	0.218948
H90	H	1.050058	0.744754	0.305929
H91	H	0.939389	0.753991	0.372092
H92	H	1.063768	0.503721	0.519668
H93	H	0.520940	0.560942	0.000042
H94	H	1.232827	-0.052374	0.197281
O95	O	1.069158	-0.062599	-0.096824
C96	C	1.124236	-0.117027	-0.201321
H97	H	1.167966	-0.205932	-0.179979
H98	H	1.182455	-0.045433	-0.237727
C99	C	0.992973	-0.043900	-0.321333
C100	C	1.046676	-0.153102	-0.295122
H101	H	0.945133	-0.066149	-0.379197
H102	H	0.955868	-0.007227	-0.250933
H103	H	1.041499	0.015750	-0.351665
H104	H	0.998152	-0.212743	-0.264777
H105	H	1.083773	-0.189786	-0.365520
O106	O	0.555941	0.127239	-0.000182
C107	C	0.501165	0.103509	-0.102732
H108	H	0.532276	0.167406	-0.174430
H109	H	0.414421	0.124324	-0.079534
C110	C	0.478272	-0.115322	-0.061178
C111	C	0.516488	-0.036850	-0.149242
H112	H	0.487719	-0.201903	-0.089865
H113	H	0.515172	-0.099335	0.007915
H114	H	0.405988	-0.097961	-0.041854
H115	H	0.588773	-0.054201	-0.168553
H116	H	0.479601	-0.052844	-0.218339
O117	O	1.055018	-0.048350	0.096773
C118	C	0.974093	0.026282	0.059134
H119	H	0.958504	-0.006996	-0.036056
H120	H	0.998229	0.130323	0.062740
C121	C	0.893293	0.053089	0.258643
C122	C	0.874141	0.012209	0.141733
H123	H	0.831639	0.044414	0.309597
H124	H	0.947816	0.002812	0.284004
H125	H	0.913409	0.139787	0.261632
H126	H	0.854038	-0.074491	0.138744
H127	H	0.819612	0.062471	0.116374
O128	O	1.254239	-0.312472	-0.214388
C129	C	1.316194	-0.271909	-0.312976
H130	H	1.396678	-0.244074	-0.284497
H131	H	1.277211	-0.186310	-0.348078
C132	C	1.228959	-0.415020	-0.446702
C133	C	1.327814	-0.380842	-0.411726
H134	H	1.236123	-0.482212	-0.507618
H135	H	1.187215	-0.442345	-0.380282
H136	H	1.196483	-0.343678	-0.475945
H137	H	1.360282	-0.452179	-0.382469
H138	H	1.369564	-0.353532	-0.478143
H139	H	1.120620	0.440447	0.706643
H140	H	0.932927	0.083313	0.000008
H141	H	0.736536	0.055309	0.000029
H142	H	1.060270	-0.275919	0.080222
H143	H	1.226395	-0.270383	0.197755
O144	O	1.390857	-0.307612	-0.113136
C145	C	1.414806	-0.386692	-0.217944
H146	H	1.361709	-0.360756	-0.288991
H147	H	1.402247	-0.490290	-0.198186
C148	C	1.594875	-0.400020	-0.175887
C149	C	1.529665	-0.368158	-0.263151
H150	H	1.665726	-0.388593	-0.203771
H151	H	1.578739	-0.346746	-0.105273
H152	H	1.584396	-0.486350	-0.159430
H153	H	1.540135	-0.281825	-0.279596
H154	H	1.545805	-0.421417	-0.333769
H155	H	1.355894	-0.282716	0.118347
H156	H	1.377150	-0.082138	-0.120328
