data_functionalizedCrystal
_audit_creation_method	'MofGen! by Chris Wilmer'
_symmetry_space_group_name_H-M	'P1'
_symmetry_Int_Tables_number	1
_symmetry_cell_setting	triclinic
loop_
_symmetry_equiv_pos_as_xyz
  x,y,z
_cell_length_a	15.995350
_cell_length_b	15.944551
_cell_length_c	14.472310
_cell_angle_alpha	89.997979
_cell_angle_beta	89.990621
_cell_angle_gamma	83.495557
loop_
_atom_site_label
_atom_site_type_symbol
_atom_site_fract_x
_atom_site_fract_y
_atom_site_fract_z
O1	O	1.111003	0.108264	-0.076765
O2	O	0.867228	0.121634	-0.076784
O3	O	0.995772	-0.007326	-0.076765
O4	O	0.982458	0.237224	-0.076783
O5	O	0.995739	-0.007319	0.076917
O6	O	0.867195	0.121641	0.076898
O7	O	1.110969	0.108272	0.076917
Cu8	Cu	0.989079	0.114957	0.090940
Cu9	Cu	0.989118	0.114948	-0.090807
O10	O	0.982425	0.237232	0.076899
C11	C	0.836017	0.121085	0.000055
C12	C	0.743066	0.119428	0.000048
C13	C	0.405318	0.113477	0.000067
C14	C	0.452747	0.021634	0.000417
C15	C	0.549438	0.023291	0.000064
C16	C	0.572879	0.116429	0.000058
C17	C	0.531813	0.161724	-0.087701
C18	C	0.435178	0.159417	-0.087768
C19	C	0.434801	0.161323	0.086997
C20	C	0.531746	0.161302	0.088150
C21	C	0.667577	0.118102	0.000050
C22	C	0.310620	0.111806	0.000069
C23	C	0.995203	-0.038616	0.000076
C24	C	0.993546	-0.131862	0.000076
C25	C	0.909908	-0.346714	0.000057
C26	C	0.948730	-0.407730	0.075834
C27	C	0.990548	-0.302588	0.000069
C28	C	0.948782	-0.407721	-0.075684
C29	C	0.987647	-0.467501	0.000058
C30	C	1.029393	-0.362376	0.075909
C31	C	1.029433	-0.362360	-0.075678
C32	C	1.068315	-0.423358	0.000119
C33	C	0.992217	-0.207586	0.000076
C34	C	0.985984	-0.562502	0.000057
C35	C	1.142181	0.108821	0.000077
C36	C	1.235131	0.110478	0.000078
C37	C	0.982995	0.268522	0.000056
C38	C	0.984652	0.361768	0.000049
N39	N	0.989058	0.114963	0.218771
N40	N	0.989146	0.114936	-0.218638
C41	C	0.989117	0.114945	0.592862
C42	C	0.920105	0.183717	0.553686
C43	C	0.920264	0.183968	0.446598
C44	C	0.989087	0.114954	0.407271
C45	C	1.076453	0.134096	0.446114
C46	C	1.076065	0.134585	0.553235
C47	C	0.971543	0.026826	0.553396
C48	C	0.969539	0.027414	0.446269
C49	C	0.989075	0.114957	0.302383
C50	C	0.989135	0.114943	0.697750
H51	H	0.577307	-0.012561	-0.062951
H52	H	0.547114	0.229221	0.093447
Br53	Br	1.047884	-0.061886	0.401670
Br54	Br	0.596800	-0.036054	0.104918
H55	H	1.129023	0.086470	0.579148
Br56	Br	1.101876	0.241696	0.594863
Br57	Br	0.577132	0.106096	0.196362
H58	H	1.063458	-0.342384	0.140043
Br59	Br	1.164096	0.052829	0.403661
H60	H	1.135309	-0.456521	0.000167
Br61	Br	0.798345	-0.291194	0.000165
H62	H	1.092308	0.197628	0.419273
H63	H	1.063526	-0.342235	-0.139740
Br64	Br	0.867648	-0.003838	0.598471
Br65	Br	0.420104	-0.039288	-0.103885
Br66	Br	0.891932	-0.441212	-0.182452
Br67	Br	0.862422	0.003197	0.403961
Br68	Br	0.812010	0.165018	0.402824
H69	H	1.021870	-0.024352	0.578730
H70	H	0.931173	0.248741	0.580592
Br71	Br	0.421847	-0.039552	0.105316
H72	H	0.416881	0.126379	-0.153367
H73	H	0.931487	0.249360	0.420961
Br74	Br	0.381873	0.274187	0.087979
Br75	Br	0.381431	0.271800	-0.094413
Br76	Br	0.811507	0.165009	0.596633
H77	H	0.914608	-0.427833	0.139893
H78	H	0.560200	0.130258	-0.153010
Br79	Br	0.555387	0.275764	-0.093173
H80	H	0.414250	0.131301	0.153516
