data_functionalizedCrystal
_audit_creation_method	'MofGen! by Chris Wilmer'
_symmetry_space_group_name_H-M	'P1'
_symmetry_Int_Tables_number	1
_symmetry_cell_setting	triclinic
loop_
_symmetry_equiv_pos_as_xyz
  x,y,z
_cell_length_a	11.792254
_cell_length_b	15.625429
_cell_length_c	14.185569
_cell_angle_alpha	59.452262
_cell_angle_beta	103.246910
_cell_angle_gamma	84.216344
loop_
_atom_site_label
_atom_site_type_symbol
_atom_site_fract_x
_atom_site_fract_y
_atom_site_fract_z
O1	O	1.462718	0.157920	-0.140853
O2	O	1.130734	0.171880	-0.145932
O3	O	1.321693	0.020957	-0.091034
O4	O	1.271759	0.308844	-0.195751
O5	O	1.378104	-0.023623	0.092016
O6	O	1.187145	0.127301	0.037118
O7	O	1.519128	0.113341	0.042197
Cu8	Cu	1.358287	0.116250	0.056372
Cu9	Cu	1.291575	0.168971	-0.160106
O10	O	1.328169	0.264264	-0.012701
C11	C	1.353231	-0.038188	0.013895
C12	C	1.363146	-0.148006	0.053834
C13	C	1.116752	0.148711	-0.054088
C14	C	0.991049	0.146079	-0.053131
C15	C	1.241992	-0.387693	-0.313674
C16	C	1.251315	-0.490891	-0.276111
C17	C	1.312809	-0.539475	-0.076562
C18	C	1.303498	-0.436279	-0.114108
C19	C	1.268087	-0.360395	-0.232665
C20	C	1.329593	-0.408982	-0.033100
C21	C	1.320275	-0.305794	-0.070644
C22	C	1.284863	-0.229905	-0.189196
C23	C	1.258770	-0.257208	-0.270209
C24	C	1.364995	-0.484866	0.085456
C25	C	1.391090	-0.457568	0.166465
C26	C	1.381781	-0.354381	0.128922
C27	C	1.346369	-0.278491	0.010370
C28	C	1.407874	-0.327077	0.209935
C29	C	1.398557	-0.223890	0.172391
C30	C	1.337051	-0.175304	-0.027174
C31	C	0.888963	0.143942	-0.052358
C32	C	0.760891	0.141268	-0.051386
C33	C	1.533110	0.136510	-0.049650
C34	C	1.658811	0.139144	-0.050613
C35	C	1.296631	0.323410	-0.117632
C36	C	1.286713	0.433230	-0.157579
N37	N	1.405217	0.079169	0.208631
N38	N	1.244655	0.206044	-0.312363
C39	C	1.106780	0.314945	0.490518
C40	C	1.142336	0.286863	0.605754
C41	C	1.311456	0.153271	0.654309
C42	C	1.275911	0.181338	0.539076
C43	C	1.173573	0.262177	0.457188
C44	C	1.342703	0.128570	0.505746
C45	C	1.307164	0.156639	0.390522
C46	C	1.204833	0.237476	0.308627
C47	C	1.138034	0.290246	0.341963
C48	C	1.445046	0.047736	0.587634
C49	C	1.511839	-0.005032	0.554305
C50	C	1.476295	0.023032	0.439080
C51	C	1.373963	0.103869	0.357185
C52	C	1.543094	-0.029738	0.405743
C53	C	1.507555	-0.001669	0.290519
C54	C	1.338424	0.131938	0.241961
H55	H	1.308227	-0.113515	-0.123715
C56	C	1.426723	-0.194358	0.260449
C57	C	1.348794	-0.223530	0.325931
C58	C	1.374698	-0.196347	0.407067
H59	H	1.416076	-0.122049	0.221244
H60	H	1.507808	-0.228457	0.310291
H61	H	1.267728	-0.189429	0.276096
H62	H	1.359428	-0.295835	0.365161
H63	H	1.455783	-0.230447	0.456909
H64	H	1.364051	-0.124039	0.367852
H65	H	1.321835	-0.216145	0.451513
C66	C	1.351027	-0.621799	0.052158
C67	C	1.268549	-0.600770	0.099372
C68	C	1.303711	-0.676591	0.217943
H69	H	1.429042	-0.622124	0.089757
H70	H	1.352790	-0.687177	0.062962
H71	H	1.266798	-0.535409	0.088577
H72	H	1.190528	-0.600454	0.061807
H73	H	1.305475	-0.741969	0.228747
H74	H	1.381727	-0.676910	0.255531
H75	H	1.247750	-0.662338	0.249991
H76	H	1.054693	0.356065	0.275288
H77	H	1.595166	-0.070850	0.620989
C78	C	0.995664	0.402774	0.401759
C79	C	0.944782	0.442997	0.455600
C80	C	0.842437	0.523911	0.373870
H81	H	0.938415	0.377973	0.369816
H82	H	1.018012	0.455191	0.341743
H83	H	0.922430	0.390589	0.515595
H84	H	1.001998	0.467819	0.487538
H85	H	0.864785	0.576328	0.313854
H86	H	0.785197	0.499101	0.341932
H87	H	0.807907	0.551218	0.410387
H88	H	1.087937	0.329842	0.632880
C89	C	1.274611	-0.117889	-0.229812
C90	C	1.189548	-0.086386	-0.191699
C91	C	1.180083	0.016791	-0.229081
H92	H	1.249733	-0.076490	-0.312006
H93	H	1.350776	-0.110673	-0.198807
H94	H	1.113400	-0.093594	-0.222709
H95	H	1.214405	-0.127758	-0.109510
H96	H	1.256247	0.024007	-0.198076
H97	H	1.155207	0.058181	-0.311274
H98	H	1.122376	0.038176	-0.203218
H99	H	1.175901	0.260332	0.214803
H100	H	1.394783	0.087453	0.720994
C101	C	1.483866	0.017140	0.712781
C102	C	1.587806	-0.064924	0.777352
C103	C	1.623611	-0.093126	0.892636
H104	H	1.421043	-0.003259	0.744101
H105	H	1.500492	0.074077	0.715862
H106	H	1.571175	-0.121849	0.774277
H107	H	1.650653	-0.044549	0.746069
H108	H	1.640237	-0.036189	0.895718
H109	H	1.560780	-0.113520	0.923945
H110	H	1.694143	-0.148802	0.936460
H111	H	1.229945	-0.195419	-0.366750
H112	H	1.626425	-0.095551	0.472428
C113	C	1.580191	-0.059119	0.254563
C114	C	1.677399	-0.135940	0.350945
C115	C	1.744333	-0.188891	0.317870
H116	H	1.609715	-0.012419	0.196598
H117	H	1.530129	-0.089646	0.224729
H118	H	1.727454	-0.105415	0.380763
H119	H	1.647910	-0.182663	0.408921
H120	H	1.694270	-0.219417	0.288035
H121	H	1.773848	-0.142182	0.259904
H122	H	1.810290	-0.241026	0.383261
H123	H	1.213167	-0.325904	-0.410214
C124	C	1.429349	-0.540050	0.295137
C125	C	1.337757	-0.590127	0.318671
C126	C	1.372972	-0.666123	0.437189
H127	H	1.443541	-0.509143	0.338139
H128	H	1.501173	-0.588553	0.316564
H129	H	1.265954	-0.541631	0.297257
H130	H	1.323553	-0.621055	0.275698
H131	H	1.444795	-0.714626	0.458616
H132	H	1.387163	-0.635207	0.480181
H133	H	1.310837	-0.700115	0.453170
C134	C	1.446121	-0.409558	0.338606
C135	C	1.354516	-0.459624	0.362124
C136	C	1.389713	-0.535620	0.480642
H137	H	1.460310	-0.378653	0.381610
H138	H	1.517942	-0.458068	0.360042
H139	H	1.282716	-0.411122	0.340702
H140	H	1.340315	-0.490551	0.319150
H141	H	1.461535	-0.584129	0.502077
H142	H	1.403902	-0.504706	0.523635
H143	H	1.327571	-0.569605	0.496612
H144	H	1.230051	-0.513108	-0.342087
H145	H	1.372567	-0.568885	0.116020
H146	H	1.255083	0.197758	0.175285
