data_functionalizedCrystal
_audit_creation_method	'MofGen! by Chris Wilmer'
_symmetry_space_group_name_H-M	'P1'
_symmetry_Int_Tables_number	1
_symmetry_cell_setting	triclinic
loop_
_symmetry_equiv_pos_as_xyz
  x,y,z
_cell_length_a	14.519731
_cell_length_b	15.995292
_cell_length_c	13.596369
_cell_angle_alpha	89.997204
_cell_angle_beta	89.994584
_cell_angle_gamma	83.578735
loop_
_atom_site_label
_atom_site_type_symbol
_atom_site_fract_x
_atom_site_fract_y
_atom_site_fract_z
O1	O	1.223632	0.109848	-0.081786
O2	O	0.955131	0.122755	-0.081787
O3	O	1.096749	-0.005578	-0.081788
O4	O	1.082014	0.238181	-0.081785
O5	O	1.096735	-0.005585	0.081795
O6	O	0.955117	0.122748	0.081796
O7	O	1.223618	0.109841	0.081797
Zn8	Zn	1.089365	0.116294	0.107769
Zn9	Zn	1.089383	0.116303	-0.107759
O10	O	1.082000	0.238174	0.081798
C11	C	0.920766	0.122147	0.000004
C12	C	0.818389	0.120335	0.000004
C13	C	0.735248	0.118862	-0.000000
C14	C	0.630943	0.117022	-0.000001
C15	C	0.547807	0.115562	-0.000001
C16	C	0.443495	0.113722	-0.000003
C17	C	1.096142	-0.036778	0.000001
C18	C	1.094344	-0.129734	-0.000007
C19	C	1.087734	-0.467482	0.000002
C20	C	1.189950	-0.444010	0.000368
C21	C	1.191893	-0.347331	-0.000004
C22	C	1.091014	-0.299921	-0.000001
C23	C	1.039919	-0.329099	-0.093412
C24	C	1.038688	-0.425891	-0.093487
C25	C	1.036585	-0.425759	0.092537
C26	C	1.040373	-0.329261	0.093768
C27	C	1.092862	-0.205222	-0.000007
C28	C	1.085883	-0.562181	0.000001
C29	C	1.257983	0.110449	0.000003
C30	C	1.360359	0.112261	-0.000003
C31	C	1.082606	0.269374	0.000007
C32	C	1.084404	0.362330	0.000008
N33	N	1.089359	0.116287	0.254860
N34	N	1.089397	0.116303	-0.254851
C35	C	1.089382	0.116303	0.656151
C36	C	1.089373	0.116302	0.544500
C37	C	1.089371	0.116296	0.455509
C38	C	1.089361	0.116293	0.343851
H39	H	1.229343	-0.471948	0.067357
N40	N	0.936928	-0.444458	0.093378
H41	H	0.924561	-0.476184	0.155352
H42	H	0.894588	-0.389915	0.091159
H43	H	0.963743	-0.440559	-0.097717
N44	N	0.941592	-0.287034	-0.098015
H45	H	0.932575	-0.253067	-0.160584
H46	H	0.897187	-0.331328	-0.097051
N47	N	1.241867	-0.482343	-0.087871
H48	H	1.297044	-0.521618	-0.065068
H49	H	1.199398	-0.514808	-0.128048
H50	H	1.232158	-0.328861	-0.067082
H51	H	1.231910	-0.328246	0.066955
H52	H	1.074086	-0.452649	-0.163315
N53	N	1.086940	-0.302467	-0.185500
H54	H	1.053560	-0.321533	-0.245207
H55	H	1.085291	-0.239181	-0.186477
H56	H	1.068769	-0.453800	0.163343
H57	H	1.077578	-0.310640	0.162873
N58	N	0.942827	-0.285765	0.101224
H59	H	0.944701	-0.222934	0.105381
H60	H	0.906430	-0.299436	0.041158
