data_functionalizedCrystal
_audit_creation_method	'MofGen! by Chris Wilmer'
_symmetry_space_group_name_H-M	'P1'
_symmetry_Int_Tables_number	1
_symmetry_cell_setting	triclinic
loop_
_symmetry_equiv_pos_as_xyz
  x,y,z
_cell_length_a	17.699097
_cell_length_b	19.188925
_cell_length_c	16.776229
_cell_angle_alpha	89.993696
_cell_angle_beta	89.989262
_cell_angle_gamma	83.215490
loop_
_atom_site_label
_atom_site_type_symbol
_atom_site_fract_x
_atom_site_fract_y
_atom_site_fract_z
O1	O	1.003954	0.088339	-0.066354
O2	O	0.783562	0.099816	-0.066341
O3	O	0.900120	-0.007571	-0.066343
O4	O	0.887396	0.195726	-0.066351
O5	O	0.900105	-0.007578	0.066233
O6	O	0.783546	0.099810	0.066236
O7	O	1.003939	0.088332	0.066223
Zn8	Zn	0.893740	0.094070	0.087279
Zn9	Zn	0.893760	0.094079	-0.087397
O10	O	0.887380	0.195719	0.066225
C11	C	0.755358	0.099400	-0.000051
C12	C	0.671342	0.098162	-0.000046
C13	C	0.155642	0.090574	-0.072345
C14	C	0.234585	0.091733	-0.072341
C15	C	0.274041	0.092310	-0.000071
C16	C	0.234553	0.091721	0.072201
C17	C	0.155612	0.090557	0.072196
C18	C	0.552910	0.096414	0.072222
C19	C	0.631856	0.097580	0.072221
C20	C	0.631883	0.097590	-0.072316
C21	C	0.552942	0.096426	-0.072320
C22	C	0.513461	0.095833	-0.000049
C23	C	0.427863	0.094575	-0.000055
C24	C	0.359637	0.093573	-0.000065
C25	C	0.899701	-0.033586	-0.000055
C26	C	0.898466	-0.111092	-0.000057
C27	C	0.958590	-0.672792	-0.000081
C28	C	0.959757	-0.599968	-0.000073
C29	C	0.891364	-0.555113	-0.000070
C30	C	0.821799	-0.583088	-0.000053
C31	C	0.820634	-0.655911	-0.000052
N32	N	0.841856	-0.434488	-0.045192
N33	N	0.842967	-0.365309	-0.045195
C34	C	0.894870	-0.335700	-0.000070
N35	N	0.945631	-0.377883	0.045047
N36	N	0.944521	-0.447069	0.045045
C37	C	0.892619	-0.476147	-0.000070
C38	C	0.965695	-0.228768	-0.000074
C39	C	0.966859	-0.155942	-0.000062
C40	C	0.828900	-0.139063	-0.000049
C41	C	0.827738	-0.211888	-0.000053
C42	C	0.896138	-0.256737	-0.000070
C43	C	1.032143	0.088748	-0.000069
C44	C	1.116158	0.089987	-0.000079
C45	C	0.887799	0.221734	-0.000064
C46	C	0.889034	0.299240	-0.000068
N47	N	0.893732	0.094063	0.206490
N48	N	0.893775	0.094079	-0.206608
C49	C	0.945359	0.046532	0.248206
C50	C	0.945363	0.046531	0.331658
C51	C	0.893743	0.094066	0.373393
C52	C	0.842110	0.141600	0.331671
C53	C	0.842103	0.141597	0.248220
C54	C	0.842137	0.141614	0.668218
C55	C	0.842150	0.141615	0.751675
C56	C	0.945398	0.046548	0.751656
C57	C	0.945391	0.046545	0.668205
C58	C	0.893755	0.094076	0.626491
C59	C	0.893750	0.094075	0.536002
C60	C	0.893751	0.094071	0.463880
H61	H	0.663980	0.098049	0.131076
O62	O	1.027392	-0.572907	-0.000131
C63	C	1.087513	-0.628107	-0.000125
H64	H	1.066461	-0.677545	-0.025212
H65	H	1.136085	-0.612965	-0.038634
H66	H	1.108607	-0.638447	0.063473
H67	H	0.987427	0.007840	0.634227
H68	H	0.800095	0.180316	0.634261
H69	H	0.800061	0.180301	0.214256
H70	H	0.266729	0.092206	-0.131187
H71	H	0.763992	-0.678681	-0.000040
H72	H	0.266685	0.092186	0.131045
H73	H	0.664038	0.098069	-0.131162
O74	O	0.995443	0.000387	0.372304
C75	C	0.984393	0.010589	0.454909
H76	H	0.924134	0.036748	0.466320
H77	H	0.992999	-0.042296	0.486629
H78	H	1.027110	0.045564	0.478574
O79	O	0.514676	0.095878	0.142494
C80	C	0.566434	0.096624	0.206279
H81	H	0.619502	0.119550	0.185089
H82	H	0.538700	0.130171	0.256822
H83	H	0.582953	0.040756	0.228505
H84	H	0.123465	0.090086	0.131043
O85	O	1.032114	-0.272368	-0.000221
C86	C	1.035567	-0.315001	-0.068875
H87	H	0.996783	-0.288259	-0.116864
H88	H	1.096564	-0.323291	-0.091925
H89	H	1.016149	-0.367926	-0.053353
O90	O	0.755383	-0.539490	-0.000193
C91	C	0.751942	-0.496846	-0.068847
H92	H	0.790737	-0.523580	-0.116842
H93	H	0.690950	-0.488553	-0.091888
H94	H	0.771357	-0.443923	-0.053329
O95	O	0.995447	0.000301	0.792217
C96	C	0.955067	-0.042719	0.840520
H97	H	0.895385	-0.043834	0.815388
H98	H	0.986135	-0.098250	0.841466
H99	H	0.951030	-0.020863	0.903764
H100	H	0.800111	0.180325	0.785654
O101	O	1.034410	-0.128738	0.000066
C102	C	1.039205	-0.087114	0.068720
H103	H	0.999714	-0.104278	0.116719
H104	H	1.100226	-0.093754	0.091753
H105	H	1.021554	-0.029653	0.053202
H106	H	0.520820	0.095959	-0.131171
H107	H	0.773213	-0.102543	-0.000039
O108	O	1.025012	-0.716383	-0.000232
C109	C	1.028464	-0.759019	-0.068884
H110	H	0.989671	-0.732282	-0.116870
H111	H	1.089458	-0.767303	-0.091942
H112	H	1.009055	-0.811946	-0.053357
O113	O	0.760104	-0.238944	-0.000085
C114	C	0.699987	-0.183741	-0.000060
H115	H	0.721041	-0.134301	-0.025161
H116	H	0.651412	-0.198876	-0.038546
H117	H	0.678897	-0.173406	0.063546
O118	O	0.995533	0.000288	0.207792
C119	C	1.041113	-0.041653	0.262511
H120	H	1.010091	-0.042404	0.322007
H121	H	1.052846	-0.097427	0.238408
H122	H	1.097259	-0.019044	0.271366
O123	O	0.791934	0.187679	0.372299
C124	C	0.745365	0.150339	0.420579
H125	H	0.775696	0.095670	0.433080
H126	H	0.733301	0.179497	0.479260
H127	H	0.689443	0.145656	0.388438
O128	O	0.117438	0.089987	-0.142622
C129	C	0.169217	0.090771	-0.206404
H130	H	0.228690	0.069502	-0.185212
H131	H	0.151337	0.056556	-0.256951
H132	H	0.169493	0.146888	-0.228624
