data_functionalizedCrystal
_audit_creation_method	'MofGen! by Chris Wilmer'
_symmetry_space_group_name_H-M	'P1'
_symmetry_Int_Tables_number	1
_symmetry_cell_setting	triclinic
loop_
_symmetry_equiv_pos_as_xyz
  x,y,z
_cell_length_a	14.044220
_cell_length_b	13.101039
_cell_length_c	14.971486
_cell_angle_alpha	86.633875
_cell_angle_beta	88.401503
_cell_angle_gamma	93.659868
loop_
_atom_site_label
_atom_site_type_symbol
_atom_site_fract_x
_atom_site_fract_y
_atom_site_fract_z
O1	O	1.263154	0.085106	0.211146
O2	O	0.987177	0.085132	0.203363
O3	O	1.132562	0.085111	0.077637
O4	O	1.117769	0.085127	0.336871
O5	O	1.122131	-0.085317	0.086674
O6	O	0.976746	-0.085296	0.212400
O7	O	1.252723	-0.085322	0.220183
Zn8	Zn	1.113078	-0.112368	0.217726
Zn9	Zn	1.126822	0.112178	0.205820
O10	O	1.107338	-0.085301	0.345908
C11	C	0.946644	-0.000079	0.204474
C12	C	0.841407	-0.000069	0.194313
C13	C	0.648723	-0.000090	0.175737
C14	C	0.591172	-0.000090	0.247804
C15	C	0.483956	-0.000102	0.237468
C16	C	0.755949	-0.000079	0.186072
N17	N	1.103706	-0.265615	0.225852
C18	C	1.090954	-0.474656	0.236916
C19	C	1.148951	-0.525540	0.186626
C20	C	1.141855	-0.641858	0.192782
C21	C	1.098048	-0.358328	0.230761
C22	C	1.293256	-0.000109	0.219071
C23	C	1.398494	-0.000112	0.229233
C24	C	1.126685	-0.000103	0.048779
C25	C	1.124702	-0.000101	-0.050674
N26	N	1.136202	0.265426	0.197687
C27	C	1.210112	-0.000110	-0.101171
C28	C	1.208244	-0.000100	-0.194618
C29	C	1.120965	-0.000088	-0.237567
C30	C	1.035549	-0.000076	-0.187063
C31	C	1.037418	-0.000079	-0.093618
C32	C	1.031658	-0.000072	-0.381833
C33	C	1.029788	-0.000071	-0.475284
C34	C	1.202484	-0.000092	-0.482832
C35	C	1.204354	-0.000096	-0.389387
C36	C	1.118937	-0.000086	-0.338890
C37	C	1.113215	-0.000085	0.374767
C38	C	1.115198	-0.000079	0.474220
H39	H	0.617475	-0.000100	0.106282
H40	H	0.622422	-0.000081	0.317265
H41	H	1.203933	-0.481746	0.138949
C42	C	1.023999	-0.639223	0.295004
C43	C	1.016742	-0.533768	0.301285
H44	H	0.978190	-0.675723	0.334749
H45	H	1.012467	-0.656741	0.235415
H46	H	1.086260	-0.656725	0.310603
H47	H	0.954483	-0.516266	0.285679
H48	H	1.028267	-0.516243	0.360887
C49	C	1.380626	-0.000114	-0.118028
C50	C	1.306054	-0.000116	-0.053966
H51	H	1.439858	-0.000107	-0.088887
H52	H	1.372672	-0.059542	-0.151167
H53	H	1.379930	0.059323	-0.157469
H54	H	1.306746	-0.059556	-0.014530
H55	H	1.314011	0.059319	-0.020813
H56	H	0.967869	-0.000072	-0.052505
C57	C	1.311703	0.087513	-0.308709
C58	C	1.302133	-0.000106	-0.250118
H59	H	1.369673	0.087513	-0.342966
H60	H	1.259466	0.087515	-0.347661
H61	H	1.312475	0.146933	-0.275231
H62	H	1.301354	-0.059526	-0.283597
H63	H	1.354383	-0.000118	-0.211162
C64	C	1.276312	-0.000068	-0.629426
C65	C	1.296378	-0.000087	-0.538336
H66	H	1.334277	-0.000059	-0.663692
H67	H	1.236900	-0.059492	-0.640042
H68	H	1.244163	0.059373	-0.646321
H69	H	1.328521	-0.059532	-0.521438
H70	H	1.335806	0.059343	-0.527714
H71	H	1.275424	-0.000113	-0.354421
H72	H	0.958717	-0.000077	-0.510249
C73	C	0.860763	-0.000058	-0.383753
C74	C	0.937767	-0.000063	-0.326325
H75	H	0.802801	-0.000061	-0.349482
H76	H	0.867262	0.059372	-0.423501
H77	H	0.859996	-0.059493	-0.417212
H78	H	0.938539	0.059377	-0.292870
H79	H	0.931267	-0.059498	-0.286560
H80	H	0.964485	-0.000060	-0.222040
