data_functionalizedCrystal
_audit_creation_method	'MofGen! by Chris Wilmer'
_symmetry_space_group_name_H-M	'P1'
_symmetry_Int_Tables_number	1
_symmetry_cell_setting	triclinic
loop_
_symmetry_equiv_pos_as_xyz
  x,y,z
_cell_length_a	10.489716
_cell_length_b	17.019294
_cell_length_c	9.565339
_cell_angle_alpha	86.121262
_cell_angle_beta	89.996780
_cell_angle_gamma	83.960396
loop_
_atom_site_label
_atom_site_type_symbol
_atom_site_fract_x
_atom_site_fract_y
_atom_site_fract_z
O1	O	1.692217	0.111194	-0.129633
O2	O	1.320843	0.121661	-0.130898
O3	O	1.516890	0.001654	-0.116441
O4	O	1.496170	0.231201	-0.144089
O5	O	1.516875	0.001661	0.116078
O6	O	1.320827	0.121668	0.101621
O7	O	1.692202	0.111201	0.102886
Zn8	Zn	1.506512	0.116436	0.139171
Zn9	Zn	1.506533	0.116426	-0.167183
O10	O	1.496154	0.231209	0.088430
C11	C	1.273316	0.120878	-0.014544
C12	C	1.131724	0.118525	-0.014263
C13	C	1.032824	0.192117	-0.023130
C14	C	0.956118	0.153234	0.096204
C15	C	0.956140	0.153209	-0.133039
C16	C	1.056884	0.079672	0.105162
C17	C	1.056911	0.079658	-0.124185
C18	C	0.980256	0.040720	-0.004817
C19	C	1.516097	-0.027736	0.003356
C20	C	1.513740	-0.115319	0.013896
C21	C	1.512644	-0.156466	-0.107898
C22	C	1.510421	-0.238759	-0.097990
C23	C	1.509303	-0.279905	0.033713
C24	C	1.510395	-0.238752	0.155516
C25	C	1.512609	-0.156460	0.145606
C26	C	1.502611	-0.528374	0.069974
C27	C	1.500401	-0.610672	0.079874
C28	C	1.500424	-0.610673	-0.173633
C29	C	1.502645	-0.528379	-0.183530
C30	C	1.503731	-0.487234	-0.061728
C31	C	1.507035	-0.364022	0.043844
C32	C	1.505990	-0.403117	-0.071860
C33	C	1.739728	0.111984	-0.013470
C34	C	1.881320	0.114337	-0.013761
C35	C	1.496948	0.260598	-0.031370
C36	C	1.499305	0.348182	-0.041920
N37	N	1.506507	0.116442	0.348250
N38	N	1.506547	0.116414	-0.376261
C39	C	1.415815	0.171923	0.432770
C40	C	1.531047	0.187878	0.524028
C41	C	1.391325	0.100494	0.534546
C42	C	1.621798	0.132433	0.437453
C43	C	1.482000	0.045018	0.447966
C44	C	1.597316	0.060943	0.539186
H45	H	0.912145	0.184287	-0.233697
H46	H	0.956894	-0.023341	0.002966
C47	C	1.259717	0.082277	0.592057
H48	H	1.195370	0.121755	0.555423
H49	H	1.260897	0.081915	0.691401
H50	H	1.241678	0.031926	0.564795
C51	C	1.064723	0.278589	-0.033412
H52	H	1.112537	0.288113	-0.116062
H53	H	1.113850	0.287776	0.046156
H54	H	0.987450	0.313228	-0.036696
H55	H	0.912111	0.184303	0.189389
C56	C	1.559094	0.269453	0.569559
H57	H	1.635150	0.263627	0.624871
H58	H	1.489412	0.291310	0.622993
H59	H	1.570042	0.303748	0.488884
H60	H	1.100712	0.048627	0.205926
H61	H	1.461208	-0.015353	0.414237
H62	H	1.499484	-0.644170	0.187128
C63	C	1.513873	-0.111212	-0.252772
H64	H	1.512889	-0.147506	-0.323887
H65	H	1.589079	-0.084706	-0.261237
H66	H	1.440382	-0.073515	-0.262580
C67	C	1.753434	0.150746	0.380159
H68	H	1.752601	0.150674	0.280852
H69	H	1.817901	0.111563	0.417479
H70	H	1.770995	0.201314	0.406781
C71	C	1.116407	0.037728	-0.250077
H72	H	1.081741	0.063964	-0.334618
H73	H	1.097500	-0.015762	-0.244459
H74	H	1.206694	0.039134	-0.248838
H75	H	1.506891	-0.369612	-0.179092
C76	C	1.509170	-0.284011	0.300386
H77	H	1.507710	-0.338916	0.288847
H78	H	1.435187	-0.264930	0.350172
H79	H	1.583885	-0.276118	0.351510
C80	C	1.509193	-0.284015	-0.231963
H81	H	1.510184	-0.247724	-0.311819
H82	H	1.433977	-0.310513	-0.234032
H83	H	1.582674	-0.321720	-0.232705
C84	C	1.513818	-0.111199	0.279579
H85	H	1.512846	-0.147490	0.359437
H86	H	1.440336	-0.073501	0.280306
H87	H	1.589034	-0.084694	0.281659
C88	C	1.503885	-0.483122	-0.328400
H89	H	1.505376	-0.428219	-0.316857
H90	H	1.429188	-0.491008	-0.379546
H91	H	1.577885	-0.502210	-0.378165
C92	C	1.503827	-0.483125	0.203952
H93	H	1.502862	-0.519420	0.283804
H94	H	1.430349	-0.445425	0.204695
H95	H	1.579046	-0.456623	0.206025
H96	H	1.499538	-0.644182	-0.272797
C97	C	1.312308	0.235360	0.369915
H98	H	1.329953	0.286068	0.395744
H99	H	1.230633	0.224540	0.404512
H100	H	1.312506	0.234616	0.270696
C101	C	1.701053	-0.002456	0.601685
H102	H	1.782801	0.008995	0.568204
H103	H	1.684325	-0.053050	0.574432
H104	H	1.700047	-0.002411	0.700991
H105	H	1.506129	-0.397532	0.151077
