data_functionalizedCrystal
_audit_creation_method	'MofGen! by Chris Wilmer'
_symmetry_space_group_name_H-M	'P1'
_symmetry_Int_Tables_number	1
_symmetry_cell_setting	triclinic
loop_
_symmetry_equiv_pos_as_xyz
  x,y,z
_cell_length_a	13.032831
_cell_length_b	16.625545
_cell_length_c	13.033109
_cell_angle_alpha	97.153577
_cell_angle_beta	76.665514
_cell_angle_gamma	82.830132
loop_
_atom_site_label
_atom_site_type_symbol
_atom_site_fract_x
_atom_site_fract_y
_atom_site_fract_z
Zn1	Zn	1.700010	-0.566823	-0.806381
Zn2	Zn	2.033343	-0.233489	-0.473047
Zn3	Zn	2.366676	0.099844	-0.139714
Zn4	Zn	1.677320	-0.682040	-0.628758
Zn5	Zn	2.010654	-0.348707	-0.295425
Zn6	Zn	2.343987	-0.015373	0.037909
Zn7	Zn	1.499841	-0.527606	-0.606276
Zn8	Zn	1.833174	-0.194272	-0.272942
Zn9	Zn	2.166508	0.139061	0.060391
Zn10	Zn	1.522335	-0.681969	-0.783802
Zn11	Zn	1.855669	-0.348636	-0.450469
Zn12	Zn	2.189002	-0.015302	-0.117135
O13	O	1.599877	-0.614609	-0.706304
O14	O	1.933210	-0.281276	-0.372971
O15	O	2.266543	0.052057	-0.039637
O16	O	1.845633	-0.598549	-0.801677
O17	O	2.178966	-0.265215	-0.468343
O18	O	2.512300	0.068118	-0.135010
O19	O	1.634868	-0.645171	-0.477145
O20	O	1.968201	-0.311838	-0.143811
O21	O	2.301535	0.021495	0.189522
O22	O	1.526475	-0.419987	-0.632860
O23	O	1.859809	-0.086654	-0.299527
O24	O	2.193142	0.246679	0.033806
O25	O	1.828963	-0.683198	-0.671178
O26	O	2.162297	-0.349865	-0.337845
O27	O	2.495630	-0.016532	-0.004511
O28	O	1.673538	-0.448800	-0.779877
O29	O	2.006872	-0.115467	-0.446543
O30	O	2.340205	0.217867	-0.113210
O31	O	1.504475	-0.531709	-0.460627
O32	O	1.837808	-0.198376	-0.127294
O33	O	2.171141	0.134958	0.206040
O34	O	1.354192	-0.531640	-0.610967
O35	O	1.687525	-0.198307	-0.277634
O36	O	2.020858	0.135027	0.055700
O37	O	1.564814	-0.683077	-0.935428
O38	O	1.898147	-0.349744	-0.602095
O39	O	2.231480	-0.016411	-0.268761
O40	O	1.370718	-0.645050	-0.741395
O41	O	1.704052	-0.311717	-0.408061
O42	O	2.037385	0.021616	-0.074728
O43	O	1.695350	-0.598480	-0.952016
O44	O	2.028684	-0.265147	-0.618683
O45	O	2.362017	0.068187	-0.285350
O46	O	1.656680	-0.794851	-0.649285
O47	O	1.990013	-0.461518	-0.315951
O48	O	2.323346	-0.128184	0.017382
O49	O	1.542813	-0.794799	-0.763195
O50	O	1.876146	-0.461466	-0.429861
O51	O	2.209480	-0.128132	-0.096528
C52	C	1.323916	-0.584083	-0.671292
C53	C	1.657250	-0.250749	-0.337958
C54	C	1.990583	0.082584	-0.004625
C55	C	1.205862	-0.571045	-0.656338
C56	C	1.539196	-0.237712	-0.323005
C57	C	1.872529	0.095621	0.010328
C58	C	1.161423	-0.621414	-0.714108
C59	C	1.494756	-0.288080	-0.380775
C60	C	1.828089	0.045253	-0.047442
C61	C	1.039408	-0.607940	-0.698655
C62	C	1.372741	-0.274607	-0.365321
C63	C	1.706075	0.058726	-0.031988
C64	C	1.599757	-0.824084	-0.706256
C65	C	1.933090	-0.490751	-0.372923
C66	C	2.266424	-0.157417	-0.039589
C67	C	1.599807	-0.913713	-0.706283
C68	C	1.933141	-0.580379	-0.372950
C69	C	2.266474	-0.247046	-0.039617
C70	C	1.599851	-0.986502	-0.706310
C71	C	1.933185	-0.653169	-0.372976
C72	C	2.266518	-0.319835	-0.039643
C73	C	1.599916	-1.077820	-0.706341
C74	C	1.933250	-0.744486	-0.373008
C75	C	2.266583	-0.411153	-0.039674
C76	C	1.599973	-1.150604	-0.706361
C77	C	1.933306	-0.817270	-0.373028
C78	C	2.266640	-0.483937	-0.039695
C79	C	1.600037	-1.241927	-0.706391
C80	C	1.933370	-0.908594	-0.373058
C81	C	2.266703	-0.575260	-0.039724
C82	C	1.876915	-0.645256	-0.741454
C83	C	2.210248	-0.311923	-0.408120
C84	C	2.543581	0.021411	-0.074787
C85	C	1.994972	-0.658316	-0.756433
C86	C	2.328305	-0.324983	-0.423099
C87	C	2.661638	0.008351	-0.089766
C88	C	1.635122	-0.645145	-0.983338
C89	C	1.968455	-0.311812	-0.650005
C90	C	2.301789	0.021521	-0.316672
C91	C	1.650142	-0.658158	-1.101394
C92	C	1.983475	-0.324825	-0.768060
C93	C	2.316808	0.008509	-0.434727
C94	C	1.600029	-0.404323	-0.706379
C95	C	1.933362	-0.070989	-0.373046
C96	C	2.266695	0.262344	-0.039713
C97	C	1.600093	-0.314711	-0.706411
C98	C	1.933427	0.018622	-0.373078
C99	C	2.266760	0.351956	-0.039745
C100	C	1.592322	-0.607820	-1.145854
C101	C	1.925655	-0.274487	-0.812521
C102	C	2.258988	0.058846	-0.479187
C103	C	1.607844	-0.621268	-1.267870
C104	C	1.941177	-0.287935	-0.934537
C105	C	2.274510	0.045398	-0.601204
C106	C	1.564829	-0.584141	-0.430355
C107	C	1.898163	-0.250808	-0.097022
C108	C	2.231496	0.082526	0.236311
C109	C	1.550016	-0.570924	-0.312327
C110	C	1.883349	-0.237591	0.021007
C111	C	2.216682	0.095743	0.354340
H112	H	1.047252	-0.711413	-0.817343
H113	H	1.380585	-0.378080	-0.484010
H114	H	1.713919	-0.044746	-0.150676
C115	C	1.690157	-0.693004	-1.338462
C116	C	2.023490	-0.359671	-1.005129
C117	C	2.356824	-0.026337	-0.671795
N118	N	1.752122	-0.747055	-1.391629
N119	N	2.085456	-0.413722	-1.058296
N120	N	2.418789	-0.080388	-0.724963
H121	H	1.153579	-0.517945	-0.595443
H122	H	1.486912	-0.184612	-0.262110
H123	H	1.820245	0.148721	0.071223
C124	C	1.509929	-0.536142	-1.075248
C125	C	1.843263	-0.202809	-0.741915
C126	C	2.176596	0.130524	-0.408581
N127	N	1.447874	-0.482149	-1.022069
N128	N	1.781208	-0.148816	-0.688736
N129	N	2.114541	0.184517	-0.355402
C130	C	1.732451	-0.729890	-1.171989
C131	C	2.065784	-0.396557	-0.838656
C132	C	2.399117	-0.063223	-0.505322
N133	N	1.794416	-0.783941	-1.225156
N134	N	2.127749	-0.450607	-0.891823
N135	N	2.461083	-0.117274	-0.558490
C136	C	1.232051	-0.693149	-0.796381
C137	C	1.565385	-0.359816	-0.463047
C138	C	1.898718	-0.026483	-0.129714
N139	N	1.285248	-0.747184	-0.858348
N140	N	1.618581	-0.413850	-0.525015
N141	N	1.951914	-0.080517	-0.191681
C142	C	0.968782	-0.536202	-0.616376
C143	C	1.302116	-0.202869	-0.283043
C144	C	1.635449	0.130465	0.050290
N145	N	0.915585	-0.482170	-0.554405
N146	N	1.248919	-0.148837	-0.221071
N147	N	1.582252	0.184496	0.112262
C148	C	1.467608	-0.499248	-1.241725
C149	C	1.800941	-0.165915	-0.908392
C150	C	2.134274	0.167418	-0.575058
N151	N	1.405540	-0.445263	-1.188547
N152	N	1.738873	-0.111930	-0.855214
N153	N	2.072206	0.221404	-0.521880
