data_functionalizedCrystal
_audit_creation_method	'MofGen! by Chris Wilmer'
_symmetry_space_group_name_H-M	'P1'
_symmetry_Int_Tables_number	1
_symmetry_cell_setting	triclinic
loop_
_symmetry_equiv_pos_as_xyz
  x,y,z
_cell_length_a	15.995300
_cell_length_b	15.995350
_cell_length_c	16.776229
_cell_angle_alpha	90.004420
_cell_angle_beta	90.008728
_cell_angle_gamma	83.482091
loop_
_atom_site_label
_atom_site_type_symbol
_atom_site_fract_x
_atom_site_fract_y
_atom_site_fract_z
O1	O	1.111015	0.107728	0.066313
O2	O	0.867234	0.121099	0.066308
O3	O	0.995788	-0.007475	0.066310
O4	O	0.982460	0.236302	0.066311
O5	O	0.995771	-0.007483	-0.066266
O6	O	0.867217	0.121091	-0.066268
O7	O	1.110998	0.107720	-0.066263
Zn8	Zn	0.989105	0.114404	-0.087315
Zn9	Zn	0.989127	0.114415	0.087360
O10	O	0.982443	0.236295	-0.066265
C11	C	0.836030	0.120550	0.000019
C12	C	0.743077	0.118915	0.000017
C13	C	0.572894	0.115896	0.000023
C14	C	0.525428	0.207443	0.000022
C15	C	0.428740	0.205773	0.000325
C16	C	0.405337	0.112924	0.000029
C17	C	0.446480	0.067508	0.075587
C18	C	0.543113	0.069825	0.075648
C19	C	0.543373	0.068460	-0.075121
C20	C	0.446429	0.068469	-0.076112
C21	C	0.310642	0.111239	0.000034
C22	C	0.667590	0.117577	0.000023
C23	C	0.995229	-0.038674	0.000023
C24	C	0.993577	-0.131624	0.000028
C25	C	0.987644	-0.469370	0.000025
C26	C	0.896090	-0.421920	0.000320
C27	C	0.897743	-0.325230	0.000022
C28	C	0.990587	-0.301810	0.000027
C29	C	1.035735	-0.342900	-0.075678
C30	C	1.033435	-0.439536	-0.075742
C31	C	1.035346	-0.439885	0.075023
C32	C	1.035324	-0.342940	0.076023
C33	C	0.992255	-0.207113	0.000025
C34	C	0.985979	-0.564068	0.000021
C35	C	1.142202	0.108269	0.000028
C36	C	1.235154	0.109904	0.000035
C37	C	0.983003	0.267493	0.000023
C38	C	0.984655	0.360443	0.000024
N39	N	0.989095	0.114397	-0.206526
C40	C	1.046037	0.057487	-0.248243
C41	C	1.046041	0.057487	-0.331695
C42	C	0.989108	0.114400	-0.373429
C43	C	0.932161	0.171312	-0.331707
C44	C	0.932153	0.171308	-0.248257
C45	C	0.932191	0.171329	-0.668254
C46	C	0.932205	0.171330	-0.751711
C47	C	1.046079	0.057507	-0.751693
C48	C	1.046071	0.057503	-0.668242
C49	C	0.989122	0.114412	-0.626527
C50	C	0.989116	0.114411	-0.536039
C51	C	0.989117	0.114406	-0.463916
N52	N	0.989143	0.114416	0.206571
H53	H	0.561440	0.102562	0.132343
H54	H	1.103031	-0.327590	0.080598
Br55	Br	0.838591	-0.277837	0.090473
H56	H	0.885822	0.217667	-0.634297
Br57	Br	1.123344	-0.019734	-0.611605
H58	H	0.431090	0.000774	-0.080899
Br59	Br	0.400850	0.123743	-0.169285
Br60	Br	0.983450	-0.295596	-0.169587
H61	H	0.543912	0.244231	-0.054152
Br62	Br	0.422984	-0.046204	0.079921
H63	H	0.563866	0.098597	-0.132409
Br64	Br	1.123317	-0.019752	-0.388312
H65	H	1.102848	-0.471658	0.075535
Br66	Br	0.382329	0.265006	0.091129
Br67	Br	0.399271	0.119487	0.169665
Br68	Br	0.596358	-0.044032	-0.076346
H69	H	1.092449	0.011166	-0.785666
Br70	Br	0.985459	-0.474092	0.170661
Br71	Br	0.854934	0.248576	-0.808351
H72	H	0.859504	-0.440442	0.054610
Br73	Br	0.835182	-0.454970	-0.089389
H74	H	0.862000	-0.297362	-0.054341
H75	H	0.885800	0.217650	-0.365692
H76	H	0.545044	0.243689	0.054124
H77	H	1.000499	-0.457835	-0.132336
Br78	Br	0.381282	0.265260	-0.089926
Br79	Br	0.596910	-0.042216	0.081022
Br80	Br	1.145464	-0.493310	-0.081471
H81	H	1.103945	-0.328787	-0.078490
H82	H	0.885784	0.217649	-0.214292
H83	H	1.002315	-0.315682	0.132028
H84	H	1.092402	0.011145	-0.214268
