data_functionalizedCrystal
_audit_creation_method	'MofGen! by Chris Wilmer'
_symmetry_space_group_name_H-M	'P1'
_symmetry_Int_Tables_number	1
_symmetry_cell_setting	triclinic
loop_
_symmetry_equiv_pos_as_xyz
  x,y,z
_cell_length_a	23.532407
_cell_length_b	23.532407
_cell_length_c	14.048226
_cell_angle_alpha	89.988910
_cell_angle_beta	89.996211
_cell_angle_gamma	82.848712
loop_
_atom_site_label
_atom_site_type_symbol
_atom_site_fract_x
_atom_site_fract_y
_atom_site_fract_z
O1	O	0.755261	0.069136	-0.079110
O2	O	0.589398	0.079140	-0.079127
O3	O	0.677331	-0.008794	-0.079100
O4	O	0.667328	0.157070	-0.079136
O5	O	0.677320	-0.008799	0.079221
O6	O	0.589387	0.079134	0.079195
O7	O	0.755250	0.069131	0.079211
Zn8	Zn	0.672317	0.074132	0.104340
Zn9	Zn	0.672331	0.074139	-0.104255
O10	O	0.667317	0.157065	0.079185
C11	C	0.568176	0.078882	0.000032
C12	C	0.504959	0.078116	0.000027
C13	C	0.238792	0.022921	0.000065
C14	C	0.298192	0.023632	0.000064
O15	O	0.334937	-0.020153	0.000107
N16	N	0.320818	0.075909	0.000046
C17	C	0.284041	0.127477	0.000039
O18	O	0.308740	0.172007	0.000024
C19	C	0.224642	0.126765	0.000046
C20	C	0.202019	0.074485	0.000054
C21	C	0.216168	-0.029354	0.000074
C22	C	0.156772	-0.030066	0.000072
C23	C	0.119999	0.021499	0.000062
C24	C	0.142623	0.073774	0.000053
C25	C	0.187865	0.178333	0.000045
C26	C	0.128463	0.177616	0.000053
C27	C	0.105840	0.125336	0.000061
C28	C	0.046454	0.124627	0.000041
N29	N	0.023828	0.072351	0.000059
C30	C	0.060600	0.020787	0.000069
C31	C	0.408783	0.128968	0.000025
C32	C	0.468181	0.129681	0.000011
C33	C	0.482328	0.025836	0.000038
C34	C	0.422929	0.025124	0.000046
C35	C	0.386157	0.076692	0.000043
C36	C	-0.064136	0.019297	0.000065
C37	C	-0.123538	0.018590	0.000060
C38	C	-0.137680	0.122435	0.000038
C39	C	-0.078284	0.123142	0.000038
C40	C	-0.041512	0.071568	0.000055
O41	O	0.009675	0.168390	0.000002
O42	O	0.035892	-0.023737	0.000096
C43	C	0.677071	-0.030012	0.000063
C44	C	0.676305	-0.093229	0.000070
C45	C	0.723538	-0.492332	0.000022
C46	C	0.722827	-0.551733	0.000015
O47	O	0.766613	-0.588477	-0.000016
N48	N	0.670551	-0.574359	0.000011
C49	C	0.618982	-0.537581	0.000004
O50	O	0.574452	-0.562281	-0.000002
C51	C	0.619695	-0.478182	0.000004
C52	C	0.671974	-0.455559	0.000018
C53	C	0.775814	-0.469709	0.000035
C54	C	0.776525	-0.410313	0.000045
C55	C	0.724961	-0.373540	0.000041
C56	C	0.672685	-0.396163	0.000027
C57	C	0.568127	-0.441406	-0.000009
C58	C	0.568843	-0.382003	-0.000010
C59	C	0.621123	-0.359381	0.000004
C60	C	0.621832	-0.299994	0.000033
N61	N	0.674109	-0.277368	0.000037
C62	C	0.725673	-0.314141	0.000041
C63	C	0.617491	-0.662324	0.000001
C64	C	0.616778	-0.721722	0.000007
C65	C	0.720623	-0.735869	0.000017
C66	C	0.721335	-0.676470	0.000017
C67	C	0.669767	-0.639698	0.000006
C68	C	0.727163	-0.189404	0.000061
C69	C	0.727869	-0.130002	0.000074
C70	C	0.624025	-0.115860	0.000059
C71	C	0.623318	-0.175257	0.000051
C72	C	0.674891	-0.212028	0.000049
O73	O	0.578069	-0.263215	0.000059
O74	O	0.770196	-0.289433	0.000034
C75	C	0.776472	0.069389	0.000050
C76	C	0.839689	0.070155	0.000050
C77	C	0.667577	0.178283	0.000020
C78	C	0.668343	0.241500	0.000006
N79	N	0.672312	0.074127	0.246701
N80	N	0.672341	0.074139	-0.246616
C81	C	0.711261	0.035206	0.296530
C82	C	0.711265	0.035206	0.396188
C83	C	0.672322	0.074130	0.446014
C84	C	0.633369	0.113052	0.396177
C85	C	0.633363	0.113050	0.296522
C86	C	0.633385	0.113056	0.603892
C87	C	0.633392	0.113060	0.703554
C88	C	0.711287	0.035213	0.703558
C89	C	0.711281	0.035210	0.603902
C90	C	0.672328	0.074134	0.554072
H91	H	0.098525	0.219610	0.000055
Cl92	Cl	0.584431	0.161994	0.766186
Cl93	Cl	0.584413	0.161989	0.541253
Cl94	Cl	0.528568	-0.038988	0.000051
Cl95	Cl	0.785447	-0.782109	0.000015
H96	H	-0.167631	0.164417	0.000025
Cl97	Cl	0.394496	-0.040601	0.000061
Cl98	Cl	0.551053	-0.750154	0.000008
H99	H	-0.059864	0.165712	0.000030
H100	H	0.575496	-0.632386	-0.000000
H101	H	0.206274	0.220904	0.000034
H102	H	0.742994	0.003518	0.563334
H103	H	0.763906	-0.658055	0.000028
Cl104	Cl	0.793597	-0.101567	0.000090
Cl105	Cl	0.760256	-0.013718	0.766204
H106	H	0.601646	0.144742	0.255951
Cl107	Cl	0.502400	-0.469830	-0.000033
H108	H	0.769159	-0.219337	0.000055
H109	H	0.526850	-0.352065	-0.000021
H110	H	0.582043	-0.085909	0.000059
H111	H	0.378846	0.170964	0.000016
Cl112	Cl	0.760223	-0.013727	0.233902
H113	H	0.601658	0.144743	0.436752
H114	H	0.819097	-0.391900	0.000052
Cl115	Cl	0.840647	-0.515928	0.000042
H116	H	0.580747	-0.193677	0.000066
Cl117	Cl	0.262388	-0.094187	0.000088
H118	H	0.742979	0.003513	0.436759
H119	H	-0.034204	-0.022699	0.000079
Cl120	Cl	0.128342	-0.095792	0.000074
Cl121	Cl	-0.151974	-0.047138	0.000064
H122	H	0.486595	0.172252	-0.000009
