data_functionalizedCrystal
_audit_creation_method	'MofGen! by Chris Wilmer'
_symmetry_space_group_name_H-M	'P1'
_symmetry_Int_Tables_number	1
_symmetry_cell_setting	triclinic
loop_
_symmetry_equiv_pos_as_xyz
  x,y,z
_cell_length_a	12.759401
_cell_length_b	18.101395
_cell_length_c	18.101379
_cell_angle_alpha	89.913922
_cell_angle_beta	89.939983
_cell_angle_gamma	90.032629
loop_
_atom_site_label
_atom_site_type_symbol
_atom_site_fract_x
_atom_site_fract_y
_atom_site_fract_z
Zn1	Zn	1.606552	-0.294371	-0.418707
Zn2	Zn	1.606273	-0.418346	-0.294869
Zn3	Zn	1.430731	-0.294527	-0.294883
Zn4	Zn	1.430792	-0.418179	-0.418673
O5	O	1.518587	-0.356356	-0.356783
O6	O	1.753536	-0.310822	-0.402288
O7	O	1.582844	-0.402057	-0.191237
O8	O	1.454145	-0.190873	-0.311329
O9	O	1.753331	-0.401906	-0.311304
O10	O	1.583320	-0.190759	-0.402302
O11	O	1.453874	-0.311087	-0.191248
O12	O	1.283718	-0.310924	-0.311296
O13	O	1.454250	-0.401620	-0.522310
O14	O	1.283763	-0.401771	-0.402244
O15	O	1.583380	-0.310659	-0.522336
O16	O	1.582904	-0.521957	-0.311271
O17	O	1.453979	-0.521834	-0.402229
C18	C	1.245620	-0.356347	-0.356768
C19	C	1.128843	-0.356361	-0.356779
C20	C	1.074032	-0.403736	-0.404061
C21	C	0.964308	-0.403739	-0.404076
C22	C	0.964216	-0.308988	-0.309521
C23	C	1.073938	-0.308982	-0.309510
C24	C	0.814486	-0.430231	-0.491383
C25	C	0.759671	-0.477618	-0.538658
C26	C	0.795250	-0.549880	-0.549897
C27	C	0.885643	-0.574769	-0.513850
C28	C	0.940452	-0.527386	-0.466569
C29	C	0.904874	-0.455113	-0.455344
C30	C	1.223762	-0.282499	-0.222202
C31	C	1.278573	-0.235118	-0.174917
C32	C	1.242996	-0.162855	-0.163671
C33	C	1.152600	-0.137969	-0.199705
C34	C	1.097789	-0.185349	-0.246990
C35	C	1.133374	-0.257611	-0.258238
C36	C	1.518446	-0.548766	-0.356761
C37	C	1.518482	-0.631080	-0.356777
C38	C	1.518713	-0.930171	-0.356816
C39	C	1.437785	-0.898799	-0.414187
C40	C	1.437400	-0.813181	-0.414008
C41	C	1.518599	-0.781789	-0.356797
C42	C	1.488540	-0.813021	-0.278748
C43	C	1.488019	-0.898666	-0.279092
C44	C	1.629875	-0.898492	-0.376808
C45	C	1.629224	-0.812839	-0.378519
C46	C	1.518536	-0.697929	-0.356782
C47	C	1.518773	-1.014031	-0.356827
C48	C	1.792620	-0.356365	-0.356798
C49	C	1.909397	-0.356369	-0.356805
C50	C	1.518853	-0.356103	-0.549945
C51	C	1.518966	-0.355996	-0.632260
C52	C	1.518757	-0.163194	-0.356821
C53	C	1.518829	-0.080880	-0.356837
C54	C	1.518383	-0.356553	-0.164372
C55	C	1.518473	-0.356452	-0.082058
C56	C	1.518638	-0.356300	0.068650
C57	C	1.436945	-0.299449	0.099953
C58	C	1.436723	-0.299532	0.185572
C59	C	1.518801	-0.356148	0.217032
C60	C	1.489811	-0.434434	0.186186
C61	C	1.489125	-0.434193	0.100541
C62	C	1.629567	-0.335514	0.100015
C63	C	1.629050	-0.333708	0.185661
C64	C	1.518895	-0.356068	0.300892
C65	C	1.518542	-0.356386	-0.015209
H66	H	1.014047	-0.547650	-0.437220
H67	H	1.657264	-0.919982	-0.432751
H68	H	1.547566	-0.477929	0.206574
N69	N	1.328267	-0.786139	-0.396456
H70	H	1.301444	-0.755102	-0.438813
H71	H	1.280302	-0.829893	-0.388789
H72	H	0.785516	-0.371387	-0.482244
H73	H	1.408074	-0.451705	0.080718
N74	N	1.380384	-0.925248	-0.256657
H75	H	1.333722	-0.881330	-0.246639
H76	H	1.349382	-0.955833	-0.297829
N77	N	1.462308	-0.785196	-0.490667
H78	H	1.462100	-0.729399	-0.490697
H79	H	1.533718	-0.803639	-0.506124
H80	H	1.545626	-0.792694	-0.234837
N81	N	1.562695	-0.926175	-0.220540
H82	H	1.595803	-0.882664	-0.194619
H83	H	1.523018	-0.957198	-0.183459
H84	H	1.123620	-0.079130	-0.190536
H85	H	1.408139	-0.791655	-0.261510
N86	N	1.302104	-0.111752	-0.112662
H87	H	1.364764	-0.138482	-0.091534
H88	H	1.326548	-0.066965	-0.141227
N89	N	1.709752	-0.925371	-0.321467
H90	H	1.742752	-0.881622	-0.295879
H91	H	1.674095	-0.957919	-0.283671
H92	H	0.686074	-0.457346	-0.568008
H93	H	1.651889	-0.792417	-0.435959
N94	N	1.713324	-0.784525	-0.327204
H95	H	1.696976	-0.800414	-0.274935
H96	H	1.783419	-0.805388	-0.342566
H97	H	1.409700	-0.452194	0.207788
H98	H	1.693138	-0.371987	0.207065
H99	H	1.352178	-0.255387	-0.145576
H100	H	1.252744	-0.341339	-0.231362
H101	H	1.118733	-0.442313	-0.442553
N102	N	1.329302	-0.927400	-0.396870
H103	H	1.301873	-0.956328	-0.440433
H104	H	1.332432	-0.960561	-0.352007
H105	H	1.454743	-0.241510	0.206418
H106	H	1.656107	-0.279412	0.078237
H107	H	0.919498	-0.270416	-0.271034
H108	H	1.650921	-0.276092	0.205795
N109	N	1.460648	-0.222369	0.072638
H110	H	1.524544	-0.223555	0.039680
H111	H	1.398764	-0.202945	0.043810
H112	H	1.355204	-0.313108	0.078577
N113	N	0.924003	-0.652715	-0.525972
H114	H	0.997120	-0.651399	-0.547367
H115	H	0.924963	-0.679974	-0.477255
N116	N	0.736128	-0.600994	-0.600881
H117	H	0.673468	-0.574264	-0.622008
H118	H	0.783767	-0.617160	-0.642407
N119	N	1.564592	-0.492263	0.073118
H120	H	1.598153	-0.517906	0.116668
H121	H	1.525393	-0.529648	0.042332
H122	H	1.354562	-0.313315	0.206207
N123	N	1.462444	-0.925940	-0.491097
H124	H	1.535075	-0.909159	-0.505722
H125	H	1.459132	-0.981679	-0.491995
N126	N	1.000288	-0.158511	-0.285857
H127	H	0.986062	-0.105543	-0.271558
H128	H	1.010844	-0.161738	-0.341061
N129	N	1.710184	-0.390343	0.073204
H130	H	1.675083	-0.428464	0.040900
H131	H	1.765821	-0.363590	0.043788
