data_functionalizedCrystal
_audit_creation_method	'MofGen! by Chris Wilmer'
_symmetry_space_group_name_H-M	'P1'
_symmetry_Int_Tables_number	1
_symmetry_cell_setting	triclinic
loop_
_symmetry_equiv_pos_as_xyz
  x,y,z
_cell_length_a	13.032831
_cell_length_b	16.120484
_cell_length_c	13.032268
_cell_angle_alpha	80.357249
_cell_angle_beta	89.113023
_cell_angle_gamma	86.078521
loop_
_atom_site_label
_atom_site_type_symbol
_atom_site_fract_x
_atom_site_fract_y
_atom_site_fract_z
Zn1	Zn	1.458766	-0.562103	0.811459
Zn2	Zn	1.792099	-0.228769	1.144793
Zn3	Zn	2.125432	0.104564	1.478126
Zn4	Zn	1.471747	-0.686112	0.646236
Zn5	Zn	1.805080	-0.352779	0.979569
Zn6	Zn	2.138413	-0.019446	1.312902
Zn7	Zn	1.311081	-0.527333	0.615806
Zn8	Zn	1.644414	-0.193999	0.949139
Zn9	Zn	1.977747	0.139334	1.282473
Zn10	Zn	1.278313	-0.681612	0.796116
Zn11	Zn	1.611646	-0.348279	1.129449
Zn12	Zn	1.944979	-0.014945	1.462782
O13	O	1.379976	-0.614290	0.717404
O14	O	1.713310	-0.280957	1.050738
O15	O	2.046643	0.052377	1.384071
O16	O	1.603247	-0.594988	0.808698
O17	O	1.936581	-0.261654	1.142032
O18	O	2.269914	0.071679	1.475365
O19	O	1.469580	-0.652382	0.497592
O20	O	1.802913	-0.319048	0.830926
O21	O	2.136247	0.014285	1.164259
O22	O	1.338953	-0.415480	0.635446
O23	O	1.672286	-0.082147	0.968780
O24	O	2.005619	0.251186	1.302113
O25	O	1.612784	-0.686097	0.687309
O26	O	1.946117	-0.352764	1.020643
O27	O	2.279451	-0.019430	1.353976
O28	O	1.447456	-0.441026	0.779192
O29	O	1.780789	-0.107692	1.112525
O30	O	2.114123	0.225641	1.445859
O31	O	1.351539	-0.535727	0.475236
O32	O	1.684873	-0.202394	0.808569
O33	O	2.018206	0.130939	1.141902
O34	O	1.163974	-0.531364	0.620568
O35	O	1.497308	-0.198030	0.953902
O36	O	1.830641	0.135303	1.287235
O37	O	1.283104	-0.678427	0.942758
O38	O	1.616437	-0.345094	1.276091
O39	O	1.949771	-0.011760	1.609425
O40	O	1.139900	-0.644712	0.753041
O41	O	1.473233	-0.311379	1.086374
O42	O	1.806567	0.021955	1.419708
O43	O	1.415682	-0.590624	0.954031
O44	O	1.749016	-0.257291	1.287364
O45	O	2.082349	0.076043	1.620698
O46	O	1.437806	-0.801980	0.672431
O47	O	1.771139	-0.468647	1.005764
O48	O	2.104473	-0.135314	1.339098
O49	O	1.295691	-0.798674	0.782547
O50	O	1.629024	-0.465341	1.115881
O51	O	1.962358	-0.132007	1.449214
C52	C	1.114921	-0.583777	0.681838
C53	C	1.448254	-0.250444	1.015172
C54	C	1.781588	0.082890	1.348505
C55	C	1.001525	-0.570746	0.666648
C56	C	1.334858	-0.237412	0.999982
C57	C	1.668191	0.095921	1.333315
C58	C	1.364626	-0.830530	0.729153
C59	C	1.697959	-0.497197	1.062486
C60	C	2.031293	-0.163864	1.395819
C61	C	1.358148	-0.923053	0.734226
C62	C	1.691481	-0.589719	1.067559
C63	C	2.024815	-0.256386	1.400892
C64	C	0.939092	-0.621091	0.725332
C65	C	1.272425	-0.287758	1.058665
C66	C	1.605758	0.045575	1.391998
C67	C	0.821890	-0.607624	0.709634
C68	C	1.155223	-0.274291	1.042967
C69	C	1.488557	0.059043	1.376301
C70	C	1.346324	-1.092455	0.743510
C71	C	1.679657	-0.759121	1.076843
C72	C	2.012990	-0.425788	1.410176
C73	C	1.413810	-1.135307	0.691340
C74	C	1.747143	-0.801974	1.024674
C75	C	2.080477	-0.468641	1.358007
C76	C	1.407231	-1.229569	0.696506
C77	C	1.740564	-0.896235	1.029839
C78	C	2.073897	-0.562902	1.363173
C79	C	1.352901	-0.998185	0.738345
C80	C	1.686234	-0.664852	1.071678
C81	C	2.019568	-0.331518	1.405012
C82	C	1.646067	-0.644923	0.753110
C83	C	1.979400	-0.311589	1.086443
C84	C	2.312733	0.021744	1.419776
C85	C	1.759458	-0.657977	0.768325
C86	C	2.092792	-0.324643	1.101659
C87	C	2.426125	0.008690	1.434992
C88	C	1.344290	-0.637902	0.986938
C89	C	1.677623	-0.304569	1.320271
C90	C	2.010957	0.028765	1.653605
C91	C	1.329082	-0.647964	1.101797
C92	C	1.662416	-0.314631	1.435130
C93	C	1.995749	0.018703	1.768464
C94	C	1.395412	-0.397210	0.705636
C95	C	1.728745	-0.063877	1.038970
C96	C	2.062078	0.269456	1.372303
C97	C	1.401989	-0.304704	0.700622
C98	C	1.735322	0.028629	1.033955
C99	C	2.068656	0.361963	1.367288
C100	C	1.415587	-0.590717	0.448924
C101	C	1.748920	-0.257383	0.782257
C102	C	2.082254	0.075950	1.115590
C103	C	1.431009	-0.580443	0.334079
C104	C	1.764342	-0.247109	0.667412
C105	C	2.097675	0.086224	1.000746
C106	C	1.387900	-0.609007	1.158582
C107	C	1.721233	-0.275673	1.491916
C108	C	2.054566	0.057660	1.825249
C109	C	1.372183	-0.619405	1.277296
C110	C	1.705517	-0.286072	1.610629
C111	C	2.038850	0.047261	1.943962
H112	H	0.788578	-0.554544	0.647771
H113	H	1.121912	-0.221211	0.981105
H114	H	1.455245	0.112122	1.314438
H115	H	0.792768	-0.711049	0.830198
H116	H	1.126101	-0.377716	1.163532
H117	H	1.459435	-0.044383	1.496865
H118	H	1.492999	-0.539383	1.294813
H119	H	1.826332	-0.206050	1.628146
H120	H	2.159665	0.127283	1.961480
O121	O	1.290058	-0.673782	1.329301
O122	O	1.623392	-0.340449	1.662635
O123	O	1.956725	-0.007115	1.995968
H124	H	1.249358	-0.700732	1.269646
H125	H	1.582691	-0.367398	1.602979
H126	H	1.916024	-0.034065	1.936312
H127	H	0.968208	-0.517670	0.604790
H128	H	1.301541	-0.184336	0.938123
H129	H	1.634875	0.148997	1.271457
O130	O	1.470014	-0.554627	1.106571
O131	O	1.803347	-0.221294	1.439904
O132	O	2.136681	0.112040	1.773238
H133	H	1.510704	-0.527667	1.166225
H134	H	1.844037	-0.194333	1.499558
H135	H	2.177370	0.139000	1.832891
O136	O	1.496886	-1.090135	0.627036
O137	O	1.830219	-0.756801	0.960369
O138	O	2.163552	-0.423468	1.293702
H139	H	1.545312	-1.136070	0.589619
H140	H	1.878646	-0.802737	0.922952
H141	H	2.211979	-0.469404	1.256285
O142	O	1.246958	-0.702336	1.153803
O143	O	1.580292	-0.369003	1.487137
O144	O	1.913625	-0.035669	1.820470
H145	H	1.262516	-0.767873	1.139032
H146	H	1.595850	-0.434540	1.472365
H147	H	1.929183	-0.101207	1.805699
O148	O	0.983205	-0.691379	0.807305
O149	O	1.316538	-0.358045	1.140638
O150	O	1.649871	-0.024712	1.473971
H151	H	1.068336	-0.690920	0.806779
H152	H	1.401670	-0.357587	1.140112
H153	H	1.735003	-0.024253	1.473446
O154	O	1.263232	-1.137616	0.807788
O155	O	1.596565	-0.804282	1.141122
O156	O	1.929899	-0.470949	1.474455
H157	H	1.271032	-1.205635	0.801789
H158	H	1.604366	-0.872301	1.135123
H159	H	1.937699	-0.538968	1.468456
