data_functionalizedCrystal
_audit_creation_method	'MofGen! by Chris Wilmer'
_symmetry_space_group_name_H-M	'P1'
_symmetry_Int_Tables_number	1
_symmetry_cell_setting	triclinic
loop_
_symmetry_equiv_pos_as_xyz
  x,y,z
_cell_length_a	29.839134
_cell_length_b	19.805407
_cell_length_c	19.805399
_cell_angle_alpha	90.019573
_cell_angle_beta	89.983892
_cell_angle_gamma	89.993986
loop_
_atom_site_label
_atom_site_type_symbol
_atom_site_fract_x
_atom_site_fract_y
_atom_site_fract_z
Zn1	Zn	0.178864	1.034832	0.382774
Zn2	Zn	0.512197	1.368165	0.716107
Zn3	Zn	0.845530	1.701498	1.049440
Zn4	Zn	0.253991	1.034787	0.269608
Zn5	Zn	0.587325	1.368120	0.602941
Zn6	Zn	0.920658	1.701453	0.936275
Zn7	Zn	0.178876	0.921646	0.269598
Zn8	Zn	0.512209	1.254980	0.602932
Zn9	Zn	0.845543	1.588313	0.936265
Zn10	Zn	0.253967	0.921650	0.382755
Zn11	Zn	0.587301	1.254983	0.716088
Zn12	Zn	0.920634	1.588317	1.049421
O13	O	0.216425	0.978229	0.326184
O14	O	0.549758	1.311562	0.659517
O15	O	0.883091	1.644895	0.992850
O16	O	0.188834	1.129542	0.367774
O17	O	0.522168	1.462876	0.701107
O18	O	0.855501	1.796209	1.034441
O19	O	0.244042	1.019758	0.174890
O20	O	0.577376	1.353091	0.508223
O21	O	0.910709	1.686425	0.841557
O22	O	0.116007	0.936678	0.284615
O23	O	0.449341	1.270011	0.617948
O24	O	0.782674	1.603344	0.951282
O25	O	0.244030	1.129509	0.284632
O26	O	0.577364	1.462843	0.617965
O27	O	0.910697	1.796176	0.951298
O28	O	0.115998	1.019835	0.367764
O29	O	0.449332	1.353168	0.701098
O30	O	0.782665	1.686501	1.034431
O31	O	0.188855	0.936634	0.174883
O32	O	0.522189	1.269968	0.508216
O33	O	0.855522	1.603301	0.841550
O34	O	0.188832	0.826930	0.284597
O35	O	0.522166	1.160264	0.617930
O36	O	0.855499	1.493597	0.951263
O37	O	0.243989	0.936684	0.477474
O38	O	0.577323	1.270018	0.810807
O39	O	0.910656	1.603351	1.144141
O40	O	0.244002	0.826933	0.367732
O41	O	0.577335	1.160266	0.701066
O42	O	0.910668	1.493600	1.034399
O43	O	0.188811	1.019838	0.477488
O44	O	0.522144	1.353172	0.810821
O45	O	0.855478	1.686505	1.144154
O46	O	0.316855	1.019762	0.284613
O47	O	0.650188	1.353095	0.617947
O48	O	0.983522	1.686428	0.951280
O49	O	0.316838	0.936641	0.367742
O50	O	0.650171	1.269974	0.701075
O51	O	0.983504	1.603307	1.034409
C52	C	0.216416	0.802373	0.326162
C53	C	0.549749	1.135706	0.659495
C54	C	0.883083	1.469039	0.992828
C55	C	0.216423	0.727141	0.326168
C56	C	0.549756	1.060474	0.659502
C57	C	0.883090	1.393807	0.992835
C58	C	0.099246	0.978261	0.326191
C59	C	0.432580	1.311594	0.659524
C60	C	0.765913	1.644927	0.992857
C61	C	0.049312	0.978274	0.326194
C62	C	0.382645	1.311608	0.659527
C63	C	0.715978	1.644941	0.992860
C64	C	0.245193	0.691816	0.369387
C65	C	0.578526	1.025149	0.702721
C66	C	0.911860	1.358482	1.036054
C67	C	0.245194	0.621127	0.369397
C68	C	0.578527	0.954461	0.702730
C69	C	0.911860	1.287794	1.036063
C70	C	0.216427	0.585765	0.326184
C71	C	0.549760	0.919098	0.659517
C72	C	0.883093	1.252432	0.992850
C73	C	0.187654	0.621095	0.282963
C74	C	0.520987	0.954428	0.616296
C75	C	0.854320	1.287762	0.949630
C76	C	0.187651	0.691782	0.282957
C77	C	0.520984	1.025115	0.616291
C78	C	0.854318	1.358449	0.949624
C79	C	0.187664	0.336022	0.282985
C80	C	0.520997	0.669355	0.616319
C81	C	0.854330	1.002688	0.949652
C82	C	0.187669	0.265330	0.282993
C83	C	0.521003	0.598663	0.616326
C84	C	0.854336	0.931996	0.949660
C85	C	0.245206	0.265367	0.369425
C86	C	0.578540	0.598700	0.702758
C87	C	0.911873	0.932033	1.036091
C88	C	0.245204	0.336054	0.369419
C89	C	0.578537	0.669387	0.702752
C90	C	0.911870	1.002721	1.036086
C91	C	0.216429	0.371378	0.326201
C92	C	0.549763	0.704711	0.659535
C93	C	0.883096	1.038044	0.992868
C94	C	0.216428	0.448026	0.326192
C95	C	0.549761	0.781359	0.659526
C96	C	0.883095	1.114693	0.992859
C97	C	0.216430	0.509118	0.326189
C98	C	0.549763	0.842451	0.659522
C99	C	0.883096	1.175785	0.992855
C100	C	-0.260330	0.934963	0.282918
C101	C	0.073003	1.268296	0.616251
C102	C	0.406337	1.601630	0.949585
C103	C	-0.448003	0.934967	0.282924
C104	C	-0.114670	1.268300	0.616258
C105	C	0.218664	1.601634	0.949591
O106	O	-0.472266	0.898128	0.246129
O107	O	-0.138933	1.231461	0.579463
O108	O	0.194400	1.564794	0.912796
N109	N	-0.471473	0.978264	0.326215
N110	N	-0.138140	1.311598	0.659548
N111	N	0.195193	1.644931	0.992881
C112	C	-0.448023	1.021561	0.369510
C113	C	-0.114689	1.354894	0.702843
C114	C	0.218644	1.688227	1.036176
O115	O	-0.472292	1.058383	0.406336
O116	O	-0.138958	1.391716	0.739669
O117	O	0.194375	1.725049	1.073002
C118	C	-0.260350	1.021553	0.369506
C119	C	0.072983	1.354886	0.702840
C120	C	0.406316	1.688219	1.036173
C121	C	-0.236882	0.978257	0.326208
C122	C	0.096451	1.311591	0.659542
C123	C	0.429784	1.644924	0.992875
C124	C	-0.236862	0.891671	0.239624
C125	C	0.096471	1.225004	0.572957
C126	C	0.429805	1.558338	0.906291
C127	C	-0.189946	0.891673	0.239620
C128	C	0.143387	1.225006	0.572954
C129	C	0.476720	1.558340	0.906287
C130	C	-0.166499	0.934967	0.282911
C131	C	0.166834	1.268301	0.616244
C132	C	0.500168	1.601634	0.949577
C133	C	-0.189967	0.978259	0.326204
C134	C	0.143366	1.311593	0.659538
C135	C	0.476700	1.644926	0.992871
C136	C	-0.236900	1.064845	0.412804
C137	C	0.096433	1.398178	0.746137
C138	C	0.429766	1.731512	1.079471
C139	C	-0.189979	1.064838	0.412801
C140	C	0.143354	1.398171	0.746134
C141	C	0.476687	1.731505	1.079467
C142	C	-0.166511	1.021543	0.369503
C143	C	0.166822	1.354876	0.702836
C144	C	0.500155	1.688209	1.036169
C145	C	-0.119604	1.021556	0.369491
C146	C	0.213729	1.354889	0.702824
C147	C	0.547063	1.688222	1.036158
N148	N	-0.096134	0.978259	0.326201
N149	N	0.237200	1.311592	0.659534
N150	N	0.570533	1.644925	0.992867
C151	C	-0.119581	0.934964	0.282910
C152	C	0.213752	1.268298	0.616244
C153	C	0.547086	1.601631	0.949577
C154	C	-0.546553	1.021563	0.369507
C155	C	-0.213220	1.354896	0.702841
C156	C	0.120113	1.688229	1.036174
C157	C	-0.593471	1.021566	0.369508
C158	C	-0.260138	1.354899	0.702841
C159	C	0.073196	1.688232	1.036174
C160	C	-0.593448	0.934971	0.282923
C161	C	-0.260115	1.268304	0.616256
C162	C	0.073219	1.601638	0.949590
C163	C	-0.546529	0.934972	0.282920
C164	C	-0.213196	1.268305	0.616253
C165	C	0.120137	1.601639	0.949587
C166	C	-0.523083	0.978265	0.326217
C167	C	-0.189749	1.311599	0.659550
C168	C	0.143584	1.644932	0.992884
C169	C	-0.021055	0.934972	0.282905
C170	C	0.312278	1.268306	0.616239
C171	C	0.645611	1.601639	0.949572
C172	C	0.025864	0.934980	0.282904
C173	C	0.359198	1.268313	0.616237
C174	C	0.692531	1.601647	0.949570
C175	C	0.025837	1.021572	0.369490
C176	C	0.359171	1.354905	0.702824
C177	C	0.692504	1.688238	1.036157
C178	C	-0.021078	1.021567	0.369490
C179	C	0.312255	1.354900	0.702823
C180	C	0.645589	1.688233	1.036157
C181	C	-0.044523	0.978261	0.326195
C182	C	0.288810	1.311595	0.659529
C183	C	0.622143	1.644928	0.992862
O184	O	-0.095312	1.058370	0.406272
O185	O	0.238022	1.391704	0.739605
O186	O	0.571355	1.725037	1.072939
O187	O	-0.095304	0.898137	0.246100
O188	O	0.238030	1.231470	0.579434
O189	O	0.571363	1.564804	0.912767
C190	C	-0.307245	0.934961	0.282922
C191	C	0.026088	1.268294	0.616255
C192	C	0.359421	1.601628	0.949588
C193	C	-0.330713	0.978253	0.326216
C194	C	0.002620	1.311587	0.659549
C195	C	0.335953	1.644920	0.992882
C196	C	-0.307266	1.021548	0.369506
C197	C	0.026067	1.354881	0.702839
C198	C	0.359401	1.688214	1.036173
C199	C	-0.377631	0.978256	0.326216
C200	C	-0.044298	1.311590	0.659549
C201	C	0.289036	1.644923	0.992883
C202	C	-0.401079	0.934962	0.282926
C203	C	-0.067745	1.268295	0.616259
C204	C	0.265588	1.601629	0.949592
C205	C	-0.377608	0.891665	0.239635
C206	C	-0.044275	1.224998	0.572969
C207	C	0.289058	1.558331	0.906302
C208	C	-0.330693	0.891667	0.239632
C209	C	0.002641	1.225000	0.572965
C210	C	0.335974	1.558333	0.906298
C211	C	-0.330736	1.064845	0.412796
C212	C	0.002597	1.398178	0.746130
C213	C	0.335930	1.731512	1.079463
C214	C	-0.377652	1.064840	0.412796
C215	C	-0.044318	1.398173	0.746129
C216	C	0.289015	1.731506	1.079463
C217	C	-0.401099	1.021546	0.369506
C218	C	-0.067766	1.354879	0.702839
C219	C	0.265567	1.688212	1.036172
C220	C	0.333147	0.978215	0.326191
C221	C	0.666480	1.311548	0.659525
C222	C	0.999814	1.644882	0.992858
C223	C	0.383082	0.978271	0.326217
C224	C	0.716415	1.311605	0.659551
C225	C	1.049748	1.644938	0.992884
C226	C	0.216396	0.978267	0.502726
C227	C	0.549730	1.311600	0.836060
C228	C	0.883063	1.644933	1.169393
C229	C	0.216384	0.978283	0.577958
C230	C	0.549718	1.311616	0.911292
C231	C	0.883051	1.644949	1.244625
C232	C	0.216434	1.154771	0.326206
C233	C	0.549767	1.488105	0.659539
C234	C	0.883100	1.821438	0.992873
C235	C	0.216437	1.230003	0.326216
C236	C	0.549771	1.563337	0.659549
C237	C	0.883104	1.896670	0.992882
C238	C	0.216420	0.978230	0.150328
C239	C	0.549754	1.311563	0.483661
C240	C	0.883087	1.644896	0.816994
C241	C	0.216306	0.978345	0.075096
C242	C	0.549639	1.311678	0.408429
C243	C	0.882973	1.645011	0.741763
C244	C	0.187651	1.021582	0.613311
C245	C	0.520985	1.354915	0.946644
C246	C	0.854318	1.688249	1.279978
C247	C	0.187638	1.021589	0.683999
C248	C	0.520972	1.354922	1.017333
C249	C	0.854305	1.688256	1.350666
C250	C	0.216361	0.978300	0.719334
C251	C	0.549694	1.311633	1.052667
C252	C	0.883027	1.644966	1.386001
C253	C	0.245095	0.934996	0.683977
C254	C	0.578428	1.268329	1.017310
C255	C	0.911761	1.601662	1.350643
C256	C	0.245105	0.934986	0.613290
C257	C	0.578439	1.268319	0.946623
C258	C	0.911772	1.601652	1.279956
C259	C	0.245053	0.935034	0.969050
C260	C	0.578386	1.268367	1.302384
C261	C	0.911720	1.601700	1.635717
C262	C	0.245041	0.935048	1.039742
C263	C	0.578375	1.268382	1.373076
C264	C	0.911708	1.601715	1.706409
C265	C	0.187586	1.021637	1.039760
C266	C	0.520919	1.354970	1.373093
C267	C	0.854253	1.688304	1.706427
C268	C	0.187597	1.021627	0.969073
C269	C	0.520930	1.354961	1.302406
C270	C	0.854263	1.688294	1.635740
C271	C	0.216329	0.978321	0.933722
C272	C	0.549662	1.311654	1.267055
C273	C	0.882995	1.644988	1.600388
C274	C	0.216342	0.978313	0.857073
C275	C	0.549675	1.311646	1.190407
C276	C	0.883009	1.644980	1.523740
C277	C	0.216350	0.978310	0.795981
C278	C	0.549683	1.311644	1.129315
C279	C	0.883017	1.644977	1.462648
H280	H	0.268620	0.720603	0.404574
H281	H	0.601953	1.053936	0.737907
H282	H	0.935287	1.387269	1.071241
Cl283	Cl	-0.266330	0.837234	0.185197
Cl284	Cl	0.067003	1.170567	0.518530
Cl285	Cl	0.400336	1.503901	0.851863
Cl286	Cl	0.281152	0.880622	1.084162
Cl287	Cl	0.614485	1.213956	1.417496
Cl288	Cl	0.947818	1.547289	1.750829
Cl289	Cl	-0.160507	1.119268	0.467235
Cl290	Cl	0.172827	1.452601	0.800568
Cl291	Cl	0.506160	1.785934	1.133901
Cl292	Cl	-0.160451	0.837236	0.185191
Cl293	Cl	0.172882	1.170569	0.518525
Cl294	Cl	0.506216	1.503902	0.851858
Cl295	Cl	-0.407094	0.837240	0.185212
Cl296	Cl	-0.073761	1.170573	0.518546
Cl297	Cl	0.259573	1.503907	0.851879
Cl298	Cl	0.281202	0.880572	0.728398
Cl299	Cl	0.614535	1.213905	1.061731
Cl300	Cl	0.947868	1.547238	1.395064
Cl301	Cl	-0.407148	1.119276	0.467231
Cl302	Cl	-0.073815	1.452610	0.800564
Cl303	Cl	0.259518	1.785943	1.133898
Cl304	Cl	0.151501	0.220875	0.228665
Cl305	Cl	0.484835	0.554208	0.561998
Cl306	Cl	0.818168	0.887542	0.895332
Cl307	Cl	-0.517084	1.075993	0.423946
Cl308	Cl	-0.183751	1.409326	0.757279
Cl309	Cl	0.149583	1.742659	1.090612
Cl310	Cl	0.281371	0.380505	0.423744
Cl311	Cl	0.614704	0.713839	0.757077
Cl312	Cl	0.948038	1.047172	1.090410
Cl313	Cl	0.281174	0.880592	0.924618
Cl314	Cl	0.614507	1.213925	1.257951
Cl315	Cl	0.947840	1.547259	1.591284
H316	H	0.044970	0.899723	0.247643
H317	H	0.378303	1.233057	0.580976
H318	H	0.711637	1.566390	0.914309
H319	H	0.268498	0.899720	0.584506
H320	H	0.601831	1.233053	0.917840
H321	H	0.935165	1.566387	1.251173
H322	H	-0.311650	1.100101	0.448049
H323	H	0.021683	1.433435	0.781382
H324	H	0.355017	1.766768	1.114715
H325	H	0.164189	1.056897	1.068552
H326	H	0.497523	1.390230	1.401885
H327	H	0.830856	1.723563	1.735218
Cl328	Cl	0.151535	1.076055	0.728440
Cl329	Cl	0.484869	1.409388	1.061773
Cl330	Cl	0.818202	1.742722	1.395106
H331	H	0.268622	0.592369	0.404589
H332	H	0.601955	0.925702	0.737922
H333	H	0.935288	1.259035	1.071256
H334	H	0.268634	0.236598	0.404617
H335	H	0.601968	0.569931	0.737951
H336	H	0.935301	0.903264	1.071284
Cl337	Cl	0.151489	0.380420	0.228656
Cl338	Cl	0.484822	0.713753	0.561990
Cl339	Cl	0.818155	1.047086	0.895323
H340	H	0.164209	1.056880	0.940307
H341	H	0.497543	1.390214	1.273640
H342	H	0.830876	1.723547	1.606973
Cl343	Cl	0.151486	0.576640	0.228642
Cl344	Cl	0.484819	0.909973	0.561975
Cl345	Cl	0.818153	1.243306	0.895309
Cl346	Cl	0.151480	0.736191	0.228625
Cl347	Cl	0.484814	1.069524	0.561958
Cl348	Cl	0.818147	1.402858	0.895291
H349	H	-0.040139	0.899708	0.247652
H350	H	0.293194	1.233042	0.580985
H351	H	0.626528	1.566375	0.914318
Cl352	Cl	-0.517032	0.880540	0.228488
Cl353	Cl	-0.183698	1.213874	0.561821
Cl354	Cl	0.149635	1.547207	0.895155
H355	H	-0.612547	0.899720	0.247673
H356	H	-0.279214	1.233053	0.581007
H357	H	0.054120	1.566387	0.914340
Cl358	Cl	-0.622968	1.076005	0.423932
Cl359	Cl	-0.289634	1.409339	0.757266
Cl360	Cl	0.043699	1.742672	1.090599
H361	H	-0.256002	1.100099	0.448061
H362	H	0.077332	1.433433	0.781395
H363	H	0.410665	1.766766	1.114728
Cl364	Cl	-0.301197	0.837234	0.185198
Cl365	Cl	0.032136	1.170567	0.518532
Cl366	Cl	0.365469	1.503901	0.851865
H367	H	-0.040186	1.056829	0.404740
H368	H	0.293147	1.390162	0.738073
H369	H	0.626481	1.723495	1.071407
H370	H	0.044937	1.056823	0.404734
H371	H	0.378270	1.390156	0.738067
H372	H	0.711603	1.723490	1.071401
H373	H	0.164264	1.056835	0.584546
H374	H	0.497597	1.390169	0.917880
H375	H	0.830930	1.723502	1.251213
