data_functionalizedCrystal
_audit_creation_method	'MofGen! by Chris Wilmer'
_symmetry_space_group_name_H-M	'P1'
_symmetry_Int_Tables_number	1
_symmetry_cell_setting	triclinic
loop_
_symmetry_equiv_pos_as_xyz
  x,y,z
_cell_length_a	16.625547
_cell_length_b	16.625545
_cell_length_c	16.625539
_cell_angle_alpha	89.973630
_cell_angle_beta	90.021309
_cell_angle_gamma	89.976026
loop_
_atom_site_label
_atom_site_type_symbol
_atom_site_fract_x
_atom_site_fract_y
_atom_site_fract_z
Zn1	Zn	1.232644	0.321016	0.456001
Zn2	Zn	1.232552	0.455855	0.321169
Zn3	Zn	1.097814	0.321040	0.321172
Zn4	Zn	1.097772	0.455811	0.455948
O5	O	1.165195	0.388430	0.388573
O6	O	1.345464	0.338912	0.438136
O7	O	1.214657	0.438000	0.208337
O8	O	1.115755	0.208204	0.339081
O9	O	1.345396	0.437977	0.339075
O10	O	1.214814	0.208187	0.438139
O11	O	1.115666	0.338952	0.208339
O12	O	0.984976	0.338909	0.339029
O13	O	1.115684	0.437901	0.568788
O14	O	0.984945	0.437924	0.438049
O15	O	1.214774	0.338869	0.568827
O16	O	1.214617	0.568682	0.339024
O17	O	1.115595	0.568649	0.438046
C18	C	0.955705	0.388415	0.388534
C19	C	0.866083	0.388428	0.388537
C20	C	0.793301	0.388429	0.388547
C21	C	0.701993	0.388433	0.388567
C22	C	0.629216	0.388441	0.388588
C23	C	0.537902	0.388446	0.388607
C24	C	1.165113	0.597921	0.388547
C25	C	1.165152	0.687542	0.388563
C26	C	1.165284	1.015718	0.388659
C27	C	1.165244	0.924410	0.388634
C28	C	1.165217	0.851633	0.388610
C29	C	1.165179	0.760319	0.388587
C30	C	1.375504	0.388447	0.388611
C31	C	1.465125	0.388454	0.388628
C32	C	1.165235	0.388377	0.598882
C33	C	1.165252	0.388355	0.688503
C34	C	1.165293	1.178122	0.388626
C35	C	1.165317	1.088500	0.388672
C36	C	1.165202	0.388425	0.179082
C37	C	1.165342	0.388221	0.089461
C38	C	1.165265	0.388337	0.761285
C39	C	1.165284	0.388307	0.852594
C40	C	1.165303	0.388278	0.925370
C41	C	1.165323	0.388249	1.016685
