data_functionalizedCrystal
_audit_creation_method	'MofGen! by Chris Wilmer'
_symmetry_space_group_name_H-M	'P1'
_symmetry_Int_Tables_number	1
_symmetry_cell_setting	triclinic
loop_
_symmetry_equiv_pos_as_xyz
  x,y,z
_cell_length_a	12.759401
_cell_length_b	17.637651
_cell_length_c	12.759393
_cell_angle_alpha	101.250165
_cell_angle_beta	90.018496
_cell_angle_gamma	101.219542
loop_
_atom_site_label
_atom_site_type_symbol
_atom_site_fract_x
_atom_site_fract_y
_atom_site_fract_z
Zn1	Zn	1.521690	-0.314720	0.509310
Zn2	Zn	1.486052	-0.446958	0.298053
Zn3	Zn	1.345981	-0.314761	0.333638
Zn4	Zn	1.310465	-0.446897	0.473711
O5	O	1.416047	-0.380834	0.403678
O6	O	1.663982	-0.332270	0.481292
O7	O	1.467420	-0.429465	0.155741
O8	O	1.399068	-0.204114	0.386732
O9	O	1.637798	-0.429425	0.326083
O10	O	1.528160	-0.204083	0.515798
O11	O	1.364511	-0.332340	0.181885
O12	O	1.194251	-0.332281	0.352213
O13	O	1.338535	-0.429321	0.625466
O14	O	1.168157	-0.429361	0.455124
O15	O	1.493722	-0.332211	0.651620
O16	O	1.432982	-0.557592	0.291564
O17	O	1.303978	-0.557547	0.420619
C18	C	1.143084	-0.380820	0.403668
C19	C	1.026304	-0.380832	0.403683
C20	C	0.957860	-0.431463	0.457136
C21	C	0.848133	-0.431473	0.457145
C22	C	0.875304	-0.330220	0.350239
C23	C	0.985029	-0.330206	0.350238
C24	C	0.942172	-0.489923	0.518853
C25	C	0.832445	-0.489933	0.518862
C26	C	1.360787	-0.586258	0.348390
C27	C	1.337243	-0.674139	0.324772
C28	C	1.595593	-0.962796	0.583429
C29	C	1.573436	-1.045373	0.561218
C30	C	1.439101	-1.045512	0.426693
C31	C	1.461250	-0.962933	0.448889
C32	C	1.539496	-0.921581	0.527259
C33	C	1.405154	-0.921718	0.392718
C34	C	1.427298	-0.839146	0.414916
C35	C	1.505538	-0.797788	0.493285
C36	C	1.561640	-0.839009	0.549457
C37	C	1.326903	-0.963072	0.314354
C38	C	1.270807	-0.921857	0.258183
C39	C	1.292955	-0.839283	0.280376
C40	C	1.371196	-0.797926	0.358744
C41	C	1.236853	-0.798063	0.224204
C42	C	1.258997	-0.715491	0.246402
C43	C	1.393339	-0.715354	0.380942
C44	C	1.690076	-0.380849	0.403689
C45	C	1.806851	-0.380856	0.403694
C46	C	1.416142	-0.380754	0.677733
C47	C	1.416183	-0.380720	0.794519
C48	C	1.471551	-0.174608	0.459206
C49	C	1.495204	-0.086727	0.482868
C50	C	1.416028	-0.380857	0.130705
C51	C	1.416251	-0.380668	0.013979
C52	C	1.496999	-0.330150	0.863003
C53	C	1.497031	-0.330122	0.972734
C54	C	1.335427	-0.431240	0.945487
C55	C	1.335391	-0.431264	0.835759
C56	C	1.590302	-0.271772	0.878734
C57	C	1.590335	-0.271744	0.988466
H58	H	0.841684	-0.289001	0.306727
O59	O	1.303028	-1.052133	0.290413
H60	H	1.217932	-1.073937	0.305730
O61	O	1.679999	-0.918190	0.667949
H62	H	1.685974	-0.853848	0.673938
O63	O	1.572502	-0.194675	1.054308
H64	H	1.494027	-0.183691	1.030350
O65	O	1.058862	-0.275594	0.292598
H66	H	1.099340	-0.310928	0.229562
H67	H	0.804321	-0.468076	0.602094
H68	H	1.625364	-0.805338	0.613266
O69	O	1.633950	-1.089830	0.621799
H70	H	1.692083	-1.047200	0.680015
H71	H	1.661676	-0.293723	0.838792
O72	O	0.987488	-0.468283	0.632497
H73	H	0.922655	-0.457690	0.688137
O74	O	1.248219	-0.485788	0.761878
H75	H	1.204300	-0.450381	0.721439
H76	H	1.173138	-0.831744	0.160403
O77	O	0.966553	-0.566929	0.459352
H78	H	0.890741	-0.607767	0.427813
H79	H	1.667299	-0.288144	1.013832
O80	O	0.771179	-0.571018	0.467976
H81	H	0.788501	-0.614678	0.514144
H82	H	1.457063	-0.681683	0.444752
O83	O	1.354727	-1.090122	0.342155
H84	H	1.291157	-1.127752	0.379003
O85	O	1.529436	-0.708727	0.517224
H86	H	1.456015	-0.686976	0.544226
O87	O	1.198506	-0.671029	0.185816
H88	H	1.140386	-0.713655	0.127582
H89	H	1.207096	-0.955537	0.194377
H90	H	1.584987	-0.210541	0.865451
O91	O	1.248289	-0.485755	0.989966
H92	H	1.261891	-0.477244	1.077772
