data_functionalizedCrystal
_audit_creation_method	'MofGen! by Chris Wilmer'
_symmetry_space_group_name_H-M	'P1'
_symmetry_Int_Tables_number	1
_symmetry_cell_setting	triclinic
loop_
_symmetry_equiv_pos_as_xyz
  x,y,z
_cell_length_a	10.654534
_cell_length_b	9.798715
_cell_length_c	10.654550
_cell_angle_alpha	90.001110
_cell_angle_beta	84.481668
_cell_angle_gamma	89.995516
loop_
_atom_site_label
_atom_site_type_symbol
_atom_site_fract_x
_atom_site_fract_y
_atom_site_fract_z
O1	O	-1.667852	0.113503	-0.176301
O2	O	-1.302371	0.113498	-0.193128
O3	O	-1.493514	0.113506	-0.001975
O4	O	-1.476708	0.113495	-0.367454
O5	O	-1.493500	-0.113476	-0.001974
O6	O	-1.302356	-0.113484	-0.193127
O7	O	-1.667837	-0.113479	-0.176300
Zn8	Zn	-1.485095	-0.149520	-0.184714
Zn9	Zn	-1.485113	0.149539	-0.184714
O10	O	-1.476694	-0.113487	-0.367454
C11	C	-1.255565	0.000007	-0.191896
C12	C	-1.116121	0.000006	-0.188212
C13	C	-1.050608	-0.123724	-0.186478
C14	C	-0.919588	-0.123727	-0.182996
C15	C	-0.919604	0.123741	-0.182988
C16	C	-1.050623	0.123743	-0.186461
N17	N	-1.485091	-0.353620	-0.184713
C18	C	-1.565347	-0.421393	-0.104099
C19	C	-1.565367	-0.578556	-0.104095
C20	C	-0.714642	0.000009	-0.177542
C21	C	-0.854082	0.000001	-0.181257
C22	C	-1.477935	0.000002	-0.414252
C23	C	-1.481627	-0.000002	-0.553695
N24	N	-1.485127	0.353639	-0.184706
C25	C	-1.369085	0.000000	-0.633187
C26	C	-1.372561	0.000022	-0.764207
C27	C	-1.601132	0.000035	-0.736231
C28	C	-1.597654	0.000022	-0.605213
C29	C	-1.492273	0.000020	0.044824
C30	C	-1.488581	0.000032	0.184267
H31	H	-0.866260	0.224483	-0.181563
C32	C	-1.728756	0.000038	-0.792914
N33	N	-1.824885	0.000032	-0.835607
H34	H	-1.689306	0.000026	-0.540487
C35	C	-1.122692	0.259863	-0.188362
N36	N	-1.176975	0.362384	-0.189788
C37	C	-1.658133	-0.342600	-0.010840
N38	N	-1.728016	-0.283255	0.059411
H39	H	-1.634082	-0.636838	-0.035082
C40	C	-1.392279	-0.432412	-0.277945
N41	N	-1.322370	-0.491758	-0.348171
C42	C	-1.248755	0.000027	-0.851644
N43	N	-1.155499	0.000033	-0.917501
C44	C	-1.122653	-0.259838	-0.188389
N45	N	-1.176914	-0.362363	-0.189823
H46	H	-1.416418	-0.588088	-0.253731
C47	C	-0.847528	-0.259841	-0.181102
N48	N	-0.793253	-0.362367	-0.179680
H49	H	-1.274608	-0.000024	-0.591245
