data_functionalizedCrystal
_audit_creation_method	'MofGen! by Chris Wilmer'
_symmetry_space_group_name_H-M	'P1'
_symmetry_Int_Tables_number	1
_symmetry_cell_setting	triclinic
loop_
_symmetry_equiv_pos_as_xyz
  x,y,z
_cell_length_a	6.817900
_cell_length_b	11.102289
_cell_length_c	14.858572
_cell_angle_alpha	93.467184
_cell_angle_beta	104.524003
_cell_angle_gamma	108.605707
loop_
_atom_site_label
_atom_site_type_symbol
_atom_site_fract_x
_atom_site_fract_y
_atom_site_fract_z
V1	V	-4.064547	-0.176639	-0.289960
O2	O	-4.024474	0.007665	-0.284441
O3	O	-4.041646	-0.349454	-0.287977
O4	O	-4.020838	-0.174283	-0.416422
O5	O	-4.045427	-0.168718	-0.155106
V6	V	-4.544264	-0.154551	-0.273830
O7	O	-4.334156	-0.225090	-0.325342
O8	O	-4.724852	-0.106100	-0.238449
O9	O	-4.343959	0.018263	-0.275814
O10	O	-4.701733	-0.338855	-0.279350
O11	O	-4.680781	-0.162472	-0.408684
O12	O	-4.364767	-0.156907	-0.147369
C13	C	-3.892698	-0.391571	-0.283402
C14	C	-3.955291	-0.532852	-0.282624
C15	C	-4.167953	-0.605712	-0.286897
C16	C	-4.226758	-0.738461	-0.286174
C17	C	-3.860216	-0.725477	-0.276899
C18	C	-3.801418	-0.592732	-0.277630
C19	C	-4.379572	-0.613208	-0.292248
C20	C	-4.438377	-0.745957	-0.291524
C21	C	-3.866154	-0.168122	-0.447246
C22	C	-3.911868	-0.167339	-0.550629
C23	C	-4.079186	-0.164478	-0.929197
C24	C	-4.032624	-0.165274	-0.823867
C25	C	-3.995529	-0.165910	-0.739916
C26	C	-3.948964	-0.166703	-0.634580
C27	C	-4.156249	0.060374	-0.280385
C28	C	-4.072895	0.201653	-0.281170
C29	C	-4.182793	-0.163073	-0.116540
C30	C	-4.116316	-0.163849	-0.013156
H31	H	-3.734947	-0.774249	-0.272834
C32	C	-4.456944	-0.454723	-0.384264
C33	C	-4.515766	-0.587497	-0.383551
H34	H	-4.541033	-0.438853	-0.440627
H35	H	-4.308284	-0.419918	-0.381007
H36	H	-4.481658	-0.415358	-0.331646
H37	H	-4.491037	-0.626861	-0.436166
H38	H	-4.664461	-0.622317	-0.386818
C39	C	-4.791264	-0.900386	-0.366788
C40	C	-4.601258	-0.824343	-0.384525
H41	H	-4.891808	-0.948782	-0.424202
H42	H	-4.851502	-0.846665	-0.339301
H43	H	-4.759343	-0.957297	-0.324841
H44	H	-4.633178	-0.767425	-0.426467
H45	H	-4.541011	-0.878069	-0.412026
C46	C	-4.513122	-0.666972	-0.154472
C47	C	-4.521523	-0.779441	-0.205766
H48	H	-4.564437	-0.687645	-0.101528
H49	H	-4.600979	-0.627975	-0.193351
H50	H	-4.368239	-0.609029	-0.133738
H51	H	-4.666409	-0.837380	-0.226506
H52	H	-4.433666	-0.818457	-0.166879
H53	H	-3.628259	-0.533416	-0.274160
H54	H	-4.390265	-0.559800	-0.226677
