data_functionalizedCrystal
_audit_creation_method	'MofGen! by Chris Wilmer'
_symmetry_space_group_name_H-M	'P1'
_symmetry_Int_Tables_number	1
_symmetry_cell_setting	triclinic
loop_
_symmetry_equiv_pos_as_xyz
  x,y,z
_cell_length_a	12.827893
_cell_length_b	17.637651
_cell_length_c	12.827885
_cell_angle_alpha	78.750798
_cell_angle_beta	89.980728
_cell_angle_gamma	101.219302
loop_
_atom_site_label
_atom_site_type_symbol
_atom_site_fract_x
_atom_site_fract_y
_atom_site_fract_z
Zn1	Zn	1.513560	-0.314727	-0.506621
Zn2	Zn	2.013560	0.185273	-0.006621
Zn3	Zn	1.478114	-0.446962	-0.296492
Zn4	Zn	1.978114	0.053038	0.203508
Zn5	Zn	1.338791	-0.314766	-0.331884
Zn6	Zn	1.838791	0.185234	0.168116
Zn7	Zn	1.303462	-0.446904	-0.471207
Zn8	Zn	1.803462	0.053096	0.028793
O9	O	1.408482	-0.380840	-0.401551
O10	O	1.908482	0.119160	0.098449
O11	O	1.655092	-0.332276	-0.478755
O12	O	2.155092	0.167724	0.021245
O13	O	1.459584	-0.429467	-0.154939
O14	O	1.959584	0.070533	0.345061
O15	O	1.391593	-0.204119	-0.384695
O16	O	1.891593	0.295881	0.115305
O17	O	1.629050	-0.429429	-0.324375
O18	O	2.129050	0.070571	0.175625
O19	O	1.519995	-0.204091	-0.513074
O20	O	2.019995	0.295909	-0.013074
O21	O	1.357223	-0.332343	-0.180942
O22	O	1.857223	0.167657	0.319058
O23	O	1.187871	-0.332286	-0.350357
O24	O	1.687871	0.167714	0.149643
O25	O	1.331381	-0.429330	-0.622152
O26	O	1.831381	0.070670	-0.122152
O27	O	1.161915	-0.429367	-0.452717
O28	O	1.661915	0.070633	0.047283
O29	O	1.485739	-0.332220	-0.648170
O30	O	1.985739	0.167780	-0.148170
O31	O	1.425327	-0.557596	-0.290036
O32	O	1.925327	-0.057596	0.209964
O33	O	1.297011	-0.557553	-0.418399
O34	O	1.797011	-0.057553	0.081601
C35	C	1.136976	-0.380825	-0.401535
C36	C	1.636976	0.119175	0.098465
C37	C	1.020819	-0.380838	-0.401548
C38	C	1.520819	0.119162	0.098452
C39	C	0.981898	-0.332849	-0.478016
C40	C	1.481898	0.167151	0.021984
C41	C	0.861844	-0.332861	-0.478031
C42	C	1.361844	0.167139	0.021969
C43	C	1.353518	-0.586263	-0.346557
C44	C	1.853518	-0.086263	0.153443
C45	C	1.330099	-0.674144	-0.323065
C46	C	1.830099	-0.174144	0.176935
C47	C	1.587067	-0.962804	-0.580345
C48	C	2.087067	-0.462804	-0.080345
C49	C	1.565029	-1.045381	-0.558253
C50	C	2.065029	-0.545381	-0.058253
C51	C	1.431413	-1.045518	-0.424443
C52	C	1.931413	-0.545518	0.075557
C53	C	1.453443	-0.962939	-0.446521
C54	C	1.953443	-0.462939	0.053479
C55	C	1.531271	-0.921588	-0.524474
C56	C	2.031271	-0.421588	-0.024474
C57	C	1.397647	-0.921724	-0.390649
C58	C	1.897647	-0.421724	0.109351
C59	C	1.419672	-0.839152	-0.412729
C60	C	1.919672	-0.339152	0.087271
C61	C	1.497494	-0.797795	-0.490681
C62	C	1.997494	-0.297795	0.009319
C63	C	1.553296	-0.839017	-0.546554
C64	C	2.053296	-0.339017	-0.046554
C65	C	1.319815	-0.963076	-0.312702
C66	C	1.819815	-0.463076	0.187298
C67	C	1.264018	-0.921861	-0.256831
C68	C	1.764018	-0.421861	0.243169
C69	C	1.286049	-0.839287	-0.278905
C70	C	1.786049	-0.339287	0.221095
C71	C	1.363870	-0.797931	-0.356856
C72	C	1.863870	-0.297931	0.143144
C73	C	1.230247	-0.798066	-0.223032
C74	C	1.730247	-0.298066	0.276968
C75	C	1.252272	-0.715494	-0.245112
C76	C	1.752272	-0.215494	0.254888
C77	C	1.385896	-0.715359	-0.378936
C78	C	1.885896	-0.215359	0.121064
C79	C	1.681048	-0.380855	-0.401567
C80	C	2.181048	0.119145	0.098433
C81	C	1.797199	-0.380861	-0.401574
C82	C	2.297199	0.119139	0.098426
C83	C	1.408573	-0.380764	-0.674141
C84	C	1.908573	0.119236	-0.174141
C85	C	1.408612	-0.380731	-0.790303
C86	C	1.908612	0.119269	-0.290303
C87	C	1.463689	-0.174615	-0.456783
C88	C	1.963689	0.325385	0.043217
C89	C	1.487215	-0.086734	-0.480319
C90	C	1.987215	0.413266	0.019681
C91	C	1.485003	-0.332669	-0.854965
C92	C	1.985003	0.167331	-0.354965
C93	C	1.485045	-0.332634	-0.975025
C94	C	1.985045	0.167366	-0.475025
C95	C	1.408466	-0.380858	-0.130036
C96	C	1.908466	0.119142	0.369964
C97	C	1.408689	-0.380668	-0.013934
C98	C	1.908689	0.119332	0.486066
H99	H	1.449278	-0.681690	-0.442406
H100	H	1.949278	-0.181690	0.057594
F101	F	0.818033	-0.279162	-0.563610
F102	F	1.318033	0.220838	-0.063610
H103	H	1.037456	-0.291752	-0.543470
H104	H	1.537456	0.208248	-0.043470
H105	H	1.550369	-0.291544	-0.821442
H106	H	2.050369	0.208456	-0.321442
F107	F	1.181185	-0.965878	-0.173877
F108	F	1.681185	-0.465878	0.326123
F109	F	1.323162	-0.434480	-0.834117
F110	F	1.823162	0.065520	-0.334117
H111	H	1.550448	-0.291489	-1.030582
H112	H	2.050448	0.208511	-0.530582
H113	H	0.965263	-0.421931	-0.336090
H114	H	1.465263	0.078069	0.163910
F115	F	1.520676	-0.709915	-0.514439
F116	F	2.020676	-0.209915	-0.014439
F117	F	1.296497	-1.050957	-0.289082
F118	F	1.796497	-0.550957	0.210918
H119	H	0.830712	-0.421953	-0.336108
H120	H	1.330712	0.078047	0.163892
H121	H	1.206836	-0.681937	-0.199616
H122	H	1.706836	-0.181937	0.300384
H123	H	1.343288	-0.421821	-0.958381
H124	H	1.843288	0.078179	-0.458381
H125	H	1.616679	-0.805347	-0.610023
H126	H	2.116679	-0.305347	-0.110023
F127	F	1.669911	-0.918791	-0.663301
F128	F	2.169911	-0.418791	-0.163301
H129	H	1.610456	-1.078936	-0.603771
H130	H	2.110456	-0.578936	-0.103771
H131	H	1.368043	-1.079197	-0.360977
H132	H	1.868043	-0.579197	0.139023
H133	H	1.166873	-0.831747	-0.159570
H134	H	1.666873	-0.331747	0.340430
