data_functionalizedCrystal
_audit_creation_method	'MofGen! by Chris Wilmer'
_symmetry_space_group_name_H-M	'P1'
_symmetry_Int_Tables_number	1
_symmetry_cell_setting	triclinic
loop_
_symmetry_equiv_pos_as_xyz
  x,y,z
_cell_length_a	6.817900
_cell_length_b	17.078472
_cell_length_c	16.015572
_cell_angle_alpha	78.650868
_cell_angle_beta	104.485554
_cell_angle_gamma	99.306020
loop_
_atom_site_label
_atom_site_type_symbol
_atom_site_fract_x
_atom_site_fract_y
_atom_site_fract_z
V1	V	-3.985538	-0.032007	-0.269368
O2	O	-3.995265	0.081581	-0.264329
O3	O	-3.916727	-0.140446	-0.267439
O4	O	-3.928561	0.003607	-0.386887
O5	O	-3.983349	-0.063470	-0.144055
V6	V	-4.472922	-0.022570	-0.254390
O7	O	-4.238327	-0.052707	-0.302223
O8	O	-4.670331	-0.001871	-0.221534
O9	O	-4.318526	0.085869	-0.256318
O10	O	-4.580592	-0.136158	-0.259428
O11	O	-4.592508	0.008892	-0.379703
O12	O	-4.306692	-0.058184	-0.136870
C13	C	-3.757040	-0.167979	-0.263168
C14	C	-3.782009	-0.256404	-0.262375
C15	C	-3.974754	-0.300743	-0.266310
C16	C	-3.998205	-0.383826	-0.265570
C17	C	-3.828906	-0.422569	-0.260888
C18	C	-3.636146	-0.378224	-0.256956
C19	C	-3.612700	-0.295141	-0.257702
C20	C	-3.879619	-0.670750	-0.258200
C21	C	-3.903079	-0.753839	-0.257451
C22	C	-4.265137	-0.759435	-0.266066
C23	C	-4.241672	-0.676351	-0.266807
C24	C	-4.048918	-0.632012	-0.262879
N25	N	-3.852871	-0.507494	-0.260129
N26	N	-4.024957	-0.547088	-0.263645
C27	C	-3.772135	0.015776	-0.415534
C28	C	-3.806698	0.044176	-0.511607
C29	C	-4.047885	-0.207907	-0.889041
C30	C	-4.080372	-0.181194	-0.979311
C31	C	-4.029396	-0.042993	-0.954713
C32	C	-3.996894	-0.069694	-0.864439
C33	C	-4.006144	-0.152152	-0.831610
C34	C	-3.955154	-0.013939	-0.807008
C35	C	-3.922666	-0.040638	-0.716742
C36	C	-3.931917	-0.123092	-0.683906
C37	C	-3.973656	-0.178851	-0.741344
C38	C	-3.945919	0.068518	-0.839839
C39	C	-3.904179	0.124273	-0.782408
C40	C	-3.871675	0.097575	-0.692140
C41	C	-3.880927	0.015120	-0.659304
C42	C	-3.829937	0.153333	-0.634702
C43	C	-3.797448	0.126634	-0.544436
C44	C	-3.848439	-0.011579	-0.569038
C45	C	-4.141555	0.113397	-0.260587
C46	C	-4.095824	0.201822	-0.261386
C47	C	-4.126461	-0.070357	-0.108218
C48	C	-4.071137	-0.098754	-0.012145
H49	H	-3.722668	-0.634659	-0.254996
O50	O	-3.425362	-0.252125	-0.253720
C51	C	-3.290441	-0.281673	-0.175741
H52	H	-3.381482	-0.313797	-0.125505
H53	H	-3.198070	-0.325680	-0.189619
C54	C	-3.033037	-0.171656	-0.201375
C55	C	-3.144855	-0.211106	-0.139671
H56	H	-2.943226	-0.128128	-0.179127
H57	H	-3.123932	-0.151750	-0.253913
H58	H	-2.956079	-0.208336	-0.212934
H59	H	-3.221829	-0.174429	-0.128121
H60	H	-3.053969	-0.231004	-0.087130
O61	O	-3.895177	0.204342	-0.814446
C62	C	-3.932858	0.215953	-0.906434
H63	H	-3.896345	0.161142	-0.927811
H64	H	-4.100191	0.224441	-0.935329
C65	C	-3.842148	0.358529	-0.912754
C66	C	-3.797285	0.291213	-0.939009
H67	H	-3.758529	0.404955	-0.932849
H68	H	-3.816768	0.350708	-0.850780
H69	H	-3.981595	0.365592	-0.936835
H70	H	-3.657848	0.284145	-0.914919
H71	H	-3.822638	0.299035	-1.000980
H72	H	-3.765213	-0.785378	-0.253659
O73	O	-4.056158	-0.287997	-0.857128
C74	C	-3.907285	-0.320784	-0.882472
H75	H	-3.866740	-0.280930	-0.943229
H76	H	-3.764863	-0.324178	-0.827108
C77	C	-4.041621	-0.454800	-0.828251
C78	C	-3.991835	-0.405854	-0.902877
H79	H	-4.093769	-0.507277	-0.840834
H80	H	-4.141915	-0.432711	-0.811172
H81	H	-3.922925	-0.457619	-0.782121
H82	H	-4.110535	-0.403028	-0.949002
H83	H	-3.891563	-0.427945	-0.919964
H84	H	-3.822431	0.220470	-0.661446
H85	H	-3.763461	0.172036	-0.497674
H86	H	-3.981161	-0.245996	-0.714612
O87	O	-3.471885	-0.415987	-0.252374
C88	C	-3.533913	-0.498824	-0.252578
H89	H	-3.681540	-0.516577	-0.228695
H90	H	-3.560244	-0.512136	-0.321808
C91	C	-3.185359	-0.525540	-0.220880
C92	C	-3.366669	-0.547347	-0.191538
H93	H	-3.082194	-0.555472	-0.183231
H94	H	-3.143569	-0.469732	-0.220745
H95	H	-3.207331	-0.536635	-0.278571
H96	H	-3.344702	-0.536243	-0.133852
H97	H	-3.408452	-0.603155	-0.191662
O98	O	-3.856712	-0.091669	-0.537125
C99	C	-3.707839	-0.124456	-0.562469
H100	H	-3.667294	-0.084602	-0.623226
H101	H	-3.565417	-0.127850	-0.507105
C102	C	-3.842175	-0.258472	-0.508248
C103	C	-3.792389	-0.209526	-0.582874
H104	H	-3.894323	-0.310949	-0.520831
H105	H	-3.942469	-0.236383	-0.491169
H106	H	-3.723479	-0.261291	-0.462118
H107	H	-3.911089	-0.206700	-0.628999
H108	H	-3.692117	-0.231617	-0.599961
H109	H	-3.972343	0.090254	-0.913340
H110	H	-4.114352	-0.226603	-1.026070
H111	H	-3.905468	-0.144830	-0.610405
H112	H	-4.155155	-0.419924	-0.268775
O113	O	-4.020394	0.037075	-0.986751
C114	C	-4.058075	0.048687	-1.078739
H115	H	-4.021562	-0.006124	-1.100116
H116	H	-4.225408	0.057175	-1.107634
C117	C	-3.967365	0.191263	-1.085059
C118	C	-3.922502	0.123946	-1.111314
H119	H	-3.883746	0.237688	-1.105154
H120	H	-3.941986	0.183441	-1.023085
H121	H	-4.106812	0.198326	-1.109140
H122	H	-3.783066	0.116879	-1.087224
H123	H	-3.947856	0.131769	-1.173285
H124	H	-4.379540	-0.644812	-0.270625
O125	O	-4.452221	-0.802608	-0.269769
C126	C	-4.446137	-0.861761	-0.194400
H127	H	-4.282308	-0.875426	-0.165478
H128	H	-4.505075	-0.838782	-0.144167
C129	C	-4.782396	-0.922173	-0.254518
C130	C	-4.581181	-0.938962	-0.219000
H131	H	-4.865704	-0.969793	-0.269691
H132	H	-4.786500	-0.882319	-0.305295
H133	H	-4.831483	-0.903022	-0.212652
H134	H	-4.532089	-0.958102	-0.260870
H135	H	-4.577072	-0.978821	-0.168230
H136	H	-4.112616	-0.269206	-0.270113
