data_functionalizedCrystal
_audit_creation_method	'MofGen! by Chris Wilmer'
_symmetry_space_group_name_H-M	'P1'
_symmetry_Int_Tables_number	1
_symmetry_cell_setting	triclinic
loop_
_symmetry_equiv_pos_as_xyz
  x,y,z
_cell_length_a	15.298114
_cell_length_b	12.645330
_cell_length_c	15.296720
_cell_angle_alpha	99.648098
_cell_angle_beta	110.778933
_cell_angle_gamma	80.350376
loop_
_atom_site_label
_atom_site_type_symbol
_atom_site_fract_x
_atom_site_fract_y
_atom_site_fract_z
Zn1	Zn	1.330752	-0.749164	-0.279346
Zn2	Zn	1.357593	-0.900286	-0.123847
Zn3	Zn	1.202158	-0.696944	-0.150807
Zn4	Zn	1.175234	-0.900268	-0.306269
O5	O	1.266434	-0.811666	-0.215067
O6	O	1.464448	-0.791073	-0.236169
O7	O	1.359476	-0.851466	0.002715
O8	O	1.219251	-0.555534	-0.167874
O9	O	1.484168	-0.902102	-0.121924
O10	O	1.313729	-0.593900	-0.262312
O11	O	1.245278	-0.702071	-0.017092
O12	O	1.068451	-0.702053	-0.193980
O13	O	1.173362	-0.902071	-0.432836
O14	O	1.048670	-0.851435	-0.308196
O15	O	1.287621	-0.791056	-0.413056
O16	O	1.333368	-1.048621	-0.148029
O17	O	1.199389	-1.048608	-0.282054
C18	C	1.024818	-0.771076	-0.256935
C19	C	0.921449	-0.753741	-0.274869
C20	C	0.671201	-0.935609	-0.087123
C21	C	0.768322	-0.951894	-0.070266
C22	C	0.806609	-0.902358	-0.121416
C23	C	0.747765	-0.836533	-0.189424
C24	C	0.650635	-0.820239	-0.206277
C25	C	0.786043	-0.786988	-0.240570
C26	C	0.727199	-0.721163	-0.308578
C27	C	0.630079	-0.704873	-0.325428
C28	C	0.591793	-0.754410	-0.274279
C29	C	0.883173	-0.803281	-0.223717
C30	C	0.862607	-0.687911	-0.342871
C31	C	0.765486	-0.671627	-0.359727
C32	C	1.266391	-1.087084	-0.215053
C33	C	1.266453	-1.204929	-0.215064
C34	C	1.350649	-1.372413	-0.130623
C35	C	1.350852	-1.249921	-0.130759
C36	C	1.276057	-1.270258	-0.308488
C37	C	1.276692	-1.392888	-0.308008
C38	C	1.172458	-1.351532	-0.207051
C39	C	1.173310	-1.228637	-0.204771
C40	C	1.508994	-0.852415	-0.173036
C41	C	1.612359	-0.869779	-0.155125
C42	C	1.224494	-0.852386	-0.457633
C43	C	1.206622	-0.869739	-0.561000
C44	C	1.266499	-0.535180	-0.215097
C45	C	1.266527	-0.417358	-0.215110
C46	C	1.394205	-0.687464	-0.811180
C47	C	1.411002	-0.671163	-0.714061
C48	C	1.359909	-0.720805	-0.675791
C49	C	1.292015	-0.786752	-0.734650
C50	C	1.275220	-0.803061	-0.831778
C51	C	1.240924	-0.836402	-0.696388
C52	C	1.173030	-0.902349	-0.755247
C53	C	1.156239	-0.918655	-0.852366
C54	C	1.207332	-0.869013	-0.890636
C55	C	1.257719	-0.820093	-0.599260
C56	C	1.138734	-0.935690	-0.619858
C57	C	1.121937	-0.951991	-0.716977
C58	C	1.308264	-0.771036	0.026564
C59	C	1.326317	-0.753415	0.129962
H60	H	0.885690	-0.915621	-0.107687
H61	H	1.215917	-1.241889	-0.372393
H62	H	1.466284	-0.617472	-0.666144
N63	N	1.048705	-1.023104	-0.780478
H64	H	1.079512	-1.085340	-0.814227
H65	H	1.018895	-1.052004	-0.741453
N66	N	0.629911	-0.989015	-0.031948
H67	H	0.559455	-0.968699	-0.052941
H68	H	0.644393	-1.070012	-0.043353
N69	N	1.083014	-0.989786	-0.915848
H70	H	1.080130	-0.992586	-0.983181
H71	H	1.100406	-1.065072	-0.896352
H72	H	0.512709	-0.741158	-0.288003
N73	N	1.087634	-1.186386	-0.282113
H74	H	1.090707	-1.222375	-0.345261
H75	H	1.028963	-1.202771	-0.273586
N76	N	0.702021	-0.600616	-0.433067
H77	H	0.707450	-0.631185	-0.496555
H78	H	0.634716	-0.597834	-0.435898
H79	H	0.893779	-0.647571	-0.384519
N80	N	0.831788	-1.022877	0.003084
H81	H	0.792799	-1.051787	0.032930
H82	H	0.865562	-1.085108	-0.027697
N83	N	1.089706	-1.389770	-0.288831
H84	H	1.112983	-1.449432	-0.330910
H85	H	1.045869	-1.417851	-0.264283
H86	H	1.420870	-1.235546	-0.134737
N87	N	1.442919	-1.432894	-0.135745
H88	H	1.483372	-1.380627	-0.141284
H89	H	1.476667	-1.469299	-0.076825
H90	H	1.344947	-1.437057	-0.316815
N91	N	0.946629	-0.874285	-0.150378
H92	H	1.013967	-0.877092	-0.147460
H93	H	0.941115	-0.843668	-0.086935
H94	H	1.097131	-0.976115	-0.588699
H95	H	0.582171	-0.651266	-0.380799
H96	H	1.346809	-1.204903	-0.060952
N97	N	1.345620	-1.391648	-0.037820
H98	H	1.288767	-1.429691	-0.049639
H99	H	1.404532	-1.437951	-0.003616
H100	H	1.217178	-1.423518	-0.372203
N101	N	1.365315	-1.250136	-0.320813
H102	H	1.399638	-1.198759	-0.266007
H103	H	1.406938	-1.320765	-0.323382
N104	N	1.156546	-1.371577	-0.119562
H105	H	1.210162	-1.423540	-0.084262
H106	H	1.153425	-1.301037	-0.077954
H107	H	1.165761	-1.184144	-0.136101
N108	N	1.449314	-0.633936	-0.852454
H109	H	1.428374	-0.654279	-0.922911
H110	H	1.437797	-0.552947	-0.838001
H111	H	1.312998	-0.766398	-0.551346
H112	H	1.373590	-0.707529	-0.596711
H113	H	1.193659	-0.882281	-0.969718
