data_functionalizedCrystal
_audit_creation_method	'MofGen! by Chris Wilmer'
_symmetry_space_group_name_H-M	'P1'
_symmetry_Int_Tables_number	1
_symmetry_cell_setting	triclinic
loop_
_symmetry_equiv_pos_as_xyz
  x,y,z
_cell_length_a	17.699083
_cell_length_b	16.176319
_cell_length_c	17.699103
_cell_angle_alpha	89.988235
_cell_angle_beta	96.712962
_cell_angle_gamma	90.001389
loop_
_atom_site_label
_atom_site_type_symbol
_atom_site_fract_x
_atom_site_fract_y
_atom_site_fract_z
O1	O	-1.004086	-0.068640	0.095712
O2	O	-0.670752	0.264694	0.429046
O3	O	-0.337419	0.598027	0.762379
O4	O	-0.783708	-0.068668	0.108165
O5	O	-0.450375	0.264665	0.441498
O6	O	-0.117041	0.597999	0.774831
O7	O	-0.900115	-0.068637	-0.008250
O8	O	-0.566782	0.264696	0.325084
O9	O	-0.233449	0.598029	0.658417
O10	O	-0.887678	-0.068670	0.212127
O11	O	-0.554345	0.264663	0.545460
O12	O	-0.221012	0.597996	0.878793
O13	O	-0.900099	0.068856	-0.008257
O14	O	-0.566766	0.402189	0.325076
O15	O	-0.233433	0.735523	0.658409
O16	O	-0.783692	0.068825	0.108157
O17	O	-0.450359	0.402159	0.441490
O18	O	-0.117025	0.735492	0.774824
O19	O	-1.004070	0.068853	0.095705
O20	O	-0.670736	0.402187	0.429038
O21	O	-0.337403	0.735520	0.762371
Cu22	Cu	-0.893879	0.081394	0.101930
Cu23	Cu	-0.560546	0.414727	0.435264
Cu24	Cu	-0.227213	0.748060	0.768597
Cu25	Cu	-0.893898	-0.081208	0.101939
Cu26	Cu	-0.560565	0.252125	0.435272
Cu27	Cu	-0.227232	0.585459	0.768606
O28	O	-0.887662	0.068823	0.212119
O29	O	-0.554329	0.402156	0.545452
O30	O	-0.220996	0.735489	0.878786
C31	C	-0.755503	0.000075	0.107715
C32	C	-0.422170	0.333409	0.441048
C33	C	-0.088836	0.666742	0.774381
C34	C	-0.671485	0.000065	0.106376
C35	C	-0.338152	0.333398	0.439709
C36	C	-0.004818	0.666732	0.773043
C37	C	-0.899659	0.000112	-0.036450
C38	C	-0.566326	0.333445	0.296883
C39	C	-0.232992	0.666778	0.630216
C40	C	-0.898315	0.000118	-0.120468
C41	C	-0.564981	0.333452	0.212866
C42	C	-0.231648	0.666785	0.546199
C43	C	-1.032275	0.000108	0.096155
C44	C	-0.698941	0.333442	0.429488
C45	C	-0.365608	0.666775	0.762821
C46	C	-1.116293	0.000113	0.097493
C47	C	-0.782959	0.333446	0.430827
C48	C	-0.449626	0.666780	0.764160
N49	N	-0.893872	0.195759	0.101924
N50	N	-0.560538	0.529092	0.435257
N51	N	-0.227205	0.862425	0.768590
C52	C	-0.622869	0.000055	0.174709
C53	C	-0.289535	0.333388	0.508042
C54	C	0.043798	0.666722	0.841376
C55	C	-0.543925	0.000066	0.173447
C56	C	-0.210592	0.333399	0.506780
C57	C	0.122741	0.666733	0.840113
C58	C	-0.513600	0.000081	0.103851
C59	C	-0.180266	0.333414	0.437184
C60	C	0.153067	0.666748	0.770517
C61	C	-0.562222	0.000094	0.035513
C62	C	-0.228889	0.333427	0.368846
C63	C	0.104445	0.666760	0.702179
C64	C	-0.641164	0.000089	0.036776
C65	C	-0.307830	0.333422	0.370109
C66	C	0.025503	0.666755	0.703442
C67	C	-0.243859	0.000115	0.030418
C68	C	0.089475	0.333448	0.363751
C69	C	0.422808	0.666781	0.697084
C70	C	-0.164910	0.000117	0.029160
C71	C	0.168423	0.333451	0.362493
C72	C	0.501756	0.666784	0.695826
C73	C	-0.146620	0.000092	0.167088
C74	C	0.186713	0.333425	0.500422
C75	C	0.520047	0.666759	0.833755
C76	C	-0.225562	0.000087	0.168351
C77	C	0.107771	0.333420	0.501685
C78	C	0.441105	0.666754	0.835018
C79	C	-0.274177	0.000104	0.100014
C80	C	0.059156	0.333437	0.433347
C81	C	0.392489	0.666771	0.766680
C82	C	-0.359777	0.000094	0.101383
C83	C	-0.026443	0.333427	0.434717
C84	C	0.306890	0.666760	0.768050
C85	C	-0.428002	0.000085	0.102480
C86	C	-0.094669	0.333419	0.435814
C87	C	0.238665	0.666752	0.769147
N88	N	-0.893912	-0.195573	0.101940
N89	N	-0.560579	0.137760	0.435273
N90	N	-0.227245	0.471093	0.768606
C91	C	-0.945432	0.239037	0.050396
C92	C	-0.612099	0.572370	0.383730
C93	C	-0.278765	0.905703	0.717063
C94	C	-0.945436	0.325584	0.050396
C95	C	-0.612103	0.658917	0.383729
C96	C	-0.278769	0.992250	0.717062
C97	C	-0.893882	0.368851	0.101926
C98	C	-0.560549	0.702185	0.435260
C99	C	-0.227216	1.035518	0.768593
C100	C	-0.842316	0.325567	0.153456
C101	C	-0.508983	0.658901	0.486789
C102	C	-0.175650	0.992234	0.820123
C103	C	-0.842309	0.239022	0.153453
C104	C	-0.508976	0.572355	0.486786
C105	C	-0.175643	0.905689	0.820119
C106	C	-0.842342	0.674596	0.153470
C107	C	-0.509009	1.007929	0.486804
C108	C	-0.175675	1.341262	0.820137
C109	C	-0.842354	0.761147	0.153471
C110	C	-0.509021	1.094481	0.486804
C111	C	-0.175688	1.427814	0.820138
C112	C	-0.945469	0.761157	0.050413
C113	C	-0.612135	1.094491	0.383747
C114	C	-0.278802	1.427824	0.717080
C115	C	-0.945462	0.674612	0.050410
C116	C	-0.612129	1.007945	0.383743
C117	C	-0.278795	1.341279	0.717076
C118	C	-0.893894	0.631336	0.101936
C119	C	-0.560560	0.964669	0.435270
C120	C	-0.227227	1.298002	0.768603
C121	C	-0.893889	0.537491	0.101936
C122	C	-0.560556	0.870825	0.435269
C123	C	-0.227222	1.204158	0.768602
C124	C	-0.893890	0.462694	0.101931
C125	C	-0.560556	0.796027	0.435265
C126	C	-0.227223	1.129361	0.768598
C127	C	-0.890099	-0.074884	-0.636175
C128	C	-0.556766	0.258449	-0.302842
C129	C	-0.223432	0.591782	0.030492
C130	C	-0.891361	-0.074877	-0.557232
C131	C	-0.558028	0.258456	-0.223898
C132	C	-0.224695	0.591790	0.109435
C133	C	-0.891982	0.000076	-0.517777
C134	C	-0.558649	0.333409	-0.184444
C135	C	-0.225316	0.666742	0.148889
C136	C	-0.891349	0.075026	-0.557271
C137	C	-0.558015	0.408359	-0.223938
C138	C	-0.224682	0.741692	0.109395
C139	C	-0.890092	0.075017	-0.636214
C140	C	-0.556758	0.408351	-0.302881
C141	C	-0.223425	0.741684	0.030453
C142	C	-0.896418	0.075061	-0.238905
C143	C	-0.563085	0.408394	0.094428
C144	C	-0.229752	0.741728	0.427762
C145	C	-0.897673	0.075063	-0.159956
C146	C	-0.564340	0.408397	0.173377
C147	C	-0.231006	0.741730	0.506710
C148	C	-0.897688	-0.074833	-0.159923
C149	C	-0.564355	0.258500	0.173411
C150	C	-0.231021	0.591833	0.506744
C151	C	-0.896431	-0.074842	-0.238865
C152	C	-0.563098	0.258492	0.094468
C153	C	-0.229765	0.591825	0.427801
C154	C	-0.895802	0.000108	-0.278353
C155	C	-0.562468	0.333441	0.054980
C156	C	-0.229135	0.666774	0.388314
C157	C	-0.894434	0.000099	-0.363952
C158	C	-0.561101	0.333432	-0.030619
C159	C	-0.227768	0.666765	0.302714
C160	C	-0.893344	0.000086	-0.432178
C161	C	-0.560011	0.333419	-0.098845
C162	C	-0.226678	0.666752	0.234488
C163	C	-0.888119	0.000072	0.240320
C164	C	-0.554785	0.333405	0.573653
C165	C	-0.221452	0.666739	0.906986
C166	C	-0.889463	0.000060	0.324337
C167	C	-0.556130	0.333393	0.657670
C168	C	-0.222796	0.666727	0.991004
H169	H	-0.647553	0.000042	0.231382
H170	H	-0.314220	0.333376	0.564715
H171	H	0.019113	0.666709	0.898048
Cl172	Cl	-1.010255	0.379992	-0.014383
Cl173	Cl	-0.676922	0.713325	0.318950
Cl174	Cl	-0.343589	1.046658	0.652283
Cl175	Cl	-0.898491	-0.169057	-0.110278
Cl176	Cl	-0.565158	0.164276	0.223056
Cl177	Cl	-0.231825	0.497609	0.556389
H178	H	-0.898175	0.136103	-0.127834
H179	H	-0.564842	0.469436	0.205499
H180	H	-0.231508	0.802769	0.538832
H181	H	-0.895907	0.136089	-0.271046
H182	H	-0.562573	0.469423	0.062287
H183	H	-0.229240	0.802756	0.395620
Cl184	Cl	-0.085498	0.000075	0.253000
Cl185	Cl	0.247835	0.333408	0.586333
Cl186	Cl	0.581168	0.666741	0.919667
H187	H	-0.895922	-0.135876	-0.270985
H188	H	-0.562589	0.197457	0.062349
H189	H	-0.229255	0.530791	0.395682
Cl190	Cl	-0.892134	0.169253	-0.507672
Cl191	Cl	-0.558800	0.502586	-0.174339
Cl192	Cl	-0.225467	0.835919	0.158995
H193	H	-0.889573	0.136045	-0.668364
H194	H	-0.556240	0.469378	-0.335031
H195	H	-0.222907	0.802711	-0.001697
Cl196	Cl	-0.482811	0.000048	0.259355
Cl197	Cl	-0.149477	0.333382	0.592688
Cl198	Cl	0.183856	0.666715	0.926022
Cl199	Cl	-1.010276	0.620221	-0.014371
Cl200	Cl	-0.676943	0.953555	0.318962
Cl201	Cl	-0.343610	1.286888	0.652295
H202	H	-0.889586	-0.135920	-0.668292
H203	H	-0.556253	0.197414	-0.334959
H204	H	-0.222920	0.530747	-0.001625
Cl205	Cl	-0.892163	-0.169097	-0.507593
Cl206	Cl	-0.558829	0.164236	-0.174259
Cl207	Cl	-0.225496	0.497570	0.159074
H208	H	-0.250248	0.000071	0.225023
H209	H	0.083085	0.333405	0.558357
H210	H	0.416418	0.666738	0.891690
Cl211	Cl	-1.010296	0.815567	-0.014367
Cl212	Cl	-0.676963	1.148900	0.318966
Cl213	Cl	-0.343630	1.482233	0.652299
H214	H	-0.680747	0.000096	-0.018868
H215	H	-0.347414	0.333430	0.314465
H216	H	-0.014080	0.666763	0.647799
H217	H	-0.140223	0.000131	-0.027517
H218	H	0.193110	0.333464	0.305816
H219	H	0.526444	0.666797	0.639150
H220	H	-0.800336	0.360801	0.195411
H221	H	-0.467003	0.694134	0.528744
H222	H	-0.133670	1.027468	0.862077
Cl223	Cl	-0.304965	0.000135	-0.055493
Cl224	Cl	0.028369	0.333469	0.277840
Cl225	Cl	0.361702	0.666802	0.611174
H226	H	-0.537525	0.000118	-0.021153
H227	H	-0.204191	0.333451	0.312180
H228	H	0.129142	0.666784	0.645513
Cl229	Cl	-0.777538	0.815540	0.218257
Cl230	Cl	-0.444205	1.148874	0.551590
Cl231	Cl	-0.110871	1.482207	0.884923
H232	H	-0.800355	0.639367	0.195426
H233	H	-0.467021	0.972700	0.528760
H234	H	-0.133688	1.306034	0.862093
Cl235	Cl	-1.010250	0.184652	-0.014386
Cl236	Cl	-0.676917	0.517985	0.318948
Cl237	Cl	-0.343584	0.851319	0.652281
Cl238	Cl	-0.777484	0.184616	0.218230
Cl239	Cl	-0.444151	0.517950	0.551564
Cl240	Cl	-0.110818	0.851283	0.884897
