data_functionalizedCrystal
_audit_creation_method	'MofGen! by Chris Wilmer'
_symmetry_space_group_name_H-M	'P1'
_symmetry_Int_Tables_number	1
_symmetry_cell_setting	triclinic
loop_
_symmetry_equiv_pos_as_xyz
  x,y,z
_cell_length_a	14.809374
_cell_length_b	23.196402
_cell_length_c	23.196401
_cell_angle_alpha	90.011712
_cell_angle_beta	52.853047
_cell_angle_gamma	67.425492
loop_
_atom_site_label
_atom_site_type_symbol
_atom_site_fract_x
_atom_site_fract_y
_atom_site_fract_z
Zr1	Zr	1.000595	0.625617	-0.145968
O2	O	1.191300	0.546939	-0.251414
O3	O	0.809889	0.640449	-0.104352
O4	O	1.000597	0.653814	-0.238020
O5	O	1.000589	0.533596	-0.022874
O6	O	1.000600	0.748684	-0.238024
O7	O	1.000592	0.533574	-0.117745
O8	O	0.659457	0.724776	0.001084
O9	O	1.341732	0.557504	-0.261982
O10	O	0.888331	0.728796	-0.097831
O11	O	0.888327	0.658012	-0.027027
O12	O	1.112862	0.673748	-0.184404
O13	O	1.112858	0.602964	-0.113600
Zr14	Zr	1.000595	0.776960	0.005336
Zr15	Zr	1.000598	0.776924	-0.145973
Zr16	Zr	1.000591	0.625653	0.005342
Zr17	Zr	1.240516	0.642467	-0.162823
Zr18	Zr	0.760673	0.760110	0.022191
O19	O	1.191300	0.762128	-0.036279
O20	O	1.191306	0.762077	-0.251421
O21	O	1.191295	0.546990	-0.036271
O22	O	0.809889	0.855639	0.110782
O23	O	0.809894	0.855588	-0.104360
O24	O	0.809884	0.640500	0.110790
O25	O	1.000600	0.868981	-0.117758
O26	O	1.000592	0.748763	0.097389
O27	O	1.000589	0.653893	0.097392
O28	O	1.000597	0.869004	-0.022886
O29	O	1.341735	0.677772	-0.261986
O30	O	0.659454	0.724805	0.121354
O31	O	0.659457	0.845074	0.121350
O32	O	0.659460	0.845045	0.001079
O33	O	1.341729	0.557532	-0.141711
O34	O	1.341732	0.677801	-0.141715
O35	O	0.888327	0.728829	0.043772
O36	O	0.888331	0.799613	-0.027032
O37	O	1.112862	0.744565	-0.113605
O38	O	1.112858	0.673781	-0.042801
C39	C	1.000590	0.512027	-0.070309
C40	C	1.000588	0.447793	-0.070307
C41	C	0.700489	0.680212	-0.049233
C42	C	0.598636	0.673058	-0.042077
C43	C	0.883389	0.446353	-0.025123
C44	C	0.883387	0.385998	-0.025120
C45	C	1.000592	0.327085	-0.070315
C46	C	1.117807	0.328529	-0.115500
C47	C	1.117805	0.388883	-0.115496
C48	C	1.090387	0.209448	-0.138534
C49	C	1.090384	0.149096	-0.138540
C50	C	1.000601	0.140932	-0.070326
C51	C	0.910800	0.193132	-0.002106
C52	C	0.910799	0.253486	-0.002102
C53	C	1.000606	0.261638	-0.070324
C54	C	0.883392	0.074050	-0.025136
C55	C	0.883395	0.013693	-0.025131
C56	C	1.117818	-0.043776	-0.115518
C57	C	1.117811	0.016581	-0.115516
C58	C	1.000595	0.075491	-0.070326
C59	C	0.553229	0.704983	-0.074011
C60	C	0.447958	0.697590	-0.066616
C61	C	1.300700	0.722366	-0.091399
C62	C	1.402553	0.729519	-0.098554
C63	C	1.000599	0.701244	-0.259581
C64	C	1.000601	0.701228	-0.323815
C65	C	1.000599	0.890550	-0.070323
C66	C	1.000601	0.954784	-0.070325
C67	C	1.117800	0.672497	-0.399178
C68	C	1.117802	0.672515	-0.459534
C69	C	1.000597	0.701254	-0.444521
C70	C	0.883383	0.729993	-0.369145
C71	C	0.883384	0.729980	-0.308792
C72	C	0.910802	0.689698	-0.505530
C73	C	0.910805	0.689706	-0.565884
C74	C	1.000588	0.701298	-0.630668
C75	C	1.090389	0.712869	-0.635100
C76	C	1.090390	0.712856	-0.574747
C77	C	1.000583	0.701272	-0.509959
C78	C	1.117797	0.672585	-0.771479
C79	C	1.117794	0.672608	-0.831833
C80	C	0.883371	0.730081	-0.741442
C81	C	0.883378	0.730063	-0.681090
C82	C	1.000594	0.701312	-0.696113
C83	C	1.000590	0.701334	0.118949
C84	C	1.000588	0.701349	0.183184
C85	C	0.700494	0.869473	-0.049240
C86	C	0.598642	0.926554	-0.042087
C87	C	0.700484	0.680257	0.140032
C88	C	0.598630	0.673119	0.211422
C89	C	0.700489	0.869518	0.140025
C90	C	0.598636	0.926614	0.211413
C91	C	1.300700	0.533059	-0.280657
C92	C	1.402553	0.475963	-0.352044
C93	C	1.300695	0.533104	-0.091392
C94	C	1.402547	0.476023	-0.098545
C95	C	1.300705	0.722321	-0.280664
C96	C	1.402559	0.729459	-0.352054
C97	C	0.550812	0.916394	-0.075690
C98	C	0.455125	0.970022	-0.068984
C99	C	0.407264	1.033809	-0.028670
C100	C	0.455104	1.043969	0.004934
C101	C	0.550795	0.990342	-0.001777
C102	C	0.550798	0.706732	0.281910
C103	C	0.455108	0.700024	0.348994
C104	C	0.407245	0.659705	0.345588
C105	C	0.455087	0.626087	0.275092
C106	C	0.550781	0.632792	0.208009
C107	C	0.550807	0.990381	0.207978
C108	C	0.455118	1.044036	0.275048
C109	C	0.407254	1.033920	0.345552
C110	C	0.455093	0.970147	0.348984
C111	C	0.550787	0.916494	0.281915
C112	C	1.450394	0.412197	-0.348611
C113	C	1.546112	0.358544	-0.415682
C114	C	1.593981	0.368660	-0.486187
C115	C	1.546136	0.432433	-0.489619
C116	C	1.450426	0.486084	-0.422548
C117	C	1.450387	0.486184	-0.064948
C118	C	1.546101	0.432558	-0.071673
C119	C	1.593965	0.368771	-0.111990
C120	C	1.546121	0.358611	-0.145591
C121	C	1.450416	0.412237	-0.138870
C122	C	1.450391	0.769783	-0.348623
C123	C	1.546082	0.776503	-0.415695
C124	C	1.593945	0.742894	-0.486197
C125	C	1.546103	0.702568	-0.489626
C126	C	1.450408	0.695853	-0.422554
H127	H	0.787946	0.384825	0.011674
H128	H	0.589727	0.998623	0.025593
H129	H	0.787941	0.753456	-0.619725
N130	N	0.604962	0.748434	-0.117484
H131	H	0.588319	0.784441	-0.082400
H132	H	0.701017	0.721199	-0.161397
H133	H	0.837689	0.680281	-0.562271
N134	N	1.597763	0.443341	-0.565663
H135	H	1.693830	0.426686	-0.599097
H136	H	1.581022	0.418765	-0.591111
N137	N	0.304018	1.091792	0.417888
H138	H	0.280941	1.075712	0.463078
H139	H	0.337395	1.123161	0.415504
H140	H	0.329344	1.077470	-0.023210
H141	H	1.411475	0.538005	-0.425353
H142	H	0.408899	0.664785	-0.033798
H143	H	0.441603	0.762329	-0.131367
N144	N	0.403462	0.959242	0.425030
H145	H	0.335580	1.002910	0.466991
H146	H	0.363812	0.929777	0.433412
H147	H	0.416121	1.095912	0.037758
H148	H	1.585107	0.306668	-0.178416
H149	H	0.787943	0.753377	-0.247426
N150	N	1.597710	0.443522	-0.035441
H151	H	1.581082	0.418965	0.002917
H152	H	1.693757	0.426883	-0.076141
H153	H	0.559574	0.640255	-0.009262
H154	H	1.585051	0.306622	-0.412873
H155	H	1.671895	0.325110	-0.117456
N156	N	0.304020	0.652486	0.417949
H157	H	0.224601	0.667946	0.423561
H158	H	0.337420	0.604767	0.415606
H159	H	0.589757	0.739564	0.284698
H160	H	1.411424	0.403947	-0.291208
H161	H	1.213248	0.017751	-0.152314
N162	N	0.403516	0.736287	0.425022
H163	H	0.448352	0.762851	0.416995
H164	H	0.307446	0.766700	0.458424
N165	N	1.398820	0.401273	-0.175109
H166	H	1.443670	0.352725	-0.201666
H167	H	1.302754	0.417957	-0.134427
N168	N	0.403524	0.959052	-0.105220
H169	H	0.335644	1.002700	-0.094858
H170	H	0.476621	0.937473	-0.162036
H171	H	0.837691	0.680253	-0.452783
N172	N	0.602364	0.847717	0.285625
H173	H	0.557512	0.849456	0.340468
H174	H	0.585695	0.819892	0.263373
H175	H	0.416103	0.593259	0.272330
H176	H	0.837670	0.186493	0.053437
N177	N	1.244221	0.641497	-0.415379
H178	H	1.318467	0.623302	-0.472284
H179	H	1.249321	0.675789	-0.392294
H180	H	0.589779	0.864460	-0.108527
H181	H	1.585025	0.809339	-0.412888
H182	H	1.411436	0.797152	-0.291223
N183	N	0.756967	0.760995	-0.352948
H184	H	0.774749	0.756643	-0.402617
H185	H	0.705779	0.737999	-0.322676
N186	N	1.187233	0.725339	-0.579520
H187	H	1.244114	0.732685	-0.629716
H188	H	1.139903	0.765628	-0.536219
N189	N	0.602434	0.596497	0.131979
H190	H	0.557607	0.569928	0.140007
H191	H	0.585820	0.629222	0.106455
H192	H	1.411423	0.538118	-0.032114
N193	N	0.602408	1.001300	0.131941
H194	H	0.557578	1.049841	0.139954
H195	H	0.698479	0.984607	0.098537
H196	H	1.671914	0.324968	-0.540794
H197	H	1.671867	0.748368	-0.540805
N198	N	1.187240	0.725370	-0.704970
H199	H	1.173613	0.723626	-0.742531
H200	H	1.175219	0.770214	-0.689765
N201	N	0.403530	1.112815	0.271336
H202	H	0.448368	1.111075	0.216494
H203	H	0.307461	1.132728	0.301517
H204	H	1.585088	0.675206	-0.547038
N205	N	1.244215	0.641579	-0.787673
H206	H	1.318464	0.623385	-0.844577
H207	H	1.249322	0.675865	-0.764584
N208	N	1.398824	0.652357	-0.426260
H209	H	1.443675	0.632087	-0.481103
H210	H	1.415489	0.616372	-0.404006
H211	H	0.787942	0.494316	0.011669
N212	N	1.187218	0.092802	-0.212117
H213	H	1.244102	0.107129	-0.255328
H214	H	1.242361	0.054242	-0.207617
H215	H	0.787947	0.122018	0.011675
N216	N	0.813948	0.309788	0.071470
H217	H	0.757065	0.295464	0.114685
H218	H	0.861269	0.323233	0.081918
N219	N	1.244225	0.641635	-0.913116
H220	H	1.295479	0.593526	-0.922395
H221	H	1.226360	0.646056	-0.949033
N222	N	0.756981	0.012138	0.023609
H223	H	0.682731	0.058617	0.052233
H224	H	0.751885	-0.011661	-0.009971
H225	H	1.213248	-0.091743	-0.152317
H226	H	1.213235	0.280558	-0.152297
N227	N	1.187237	0.218248	-0.212110
H228	H	1.244116	0.176025	-0.255327
H229	H	1.139914	0.254887	-0.222555
H230	H	1.213246	0.390051	-0.152288
N231	N	0.756954	0.761086	-0.725240
H232	H	0.774735	0.756737	-0.774909
H233	H	0.705767	0.738088	-0.694970
H234	H	1.213243	0.649117	-0.520905
