data_functionalizedCrystal
_audit_creation_method	'MofGen! by Chris Wilmer'
_symmetry_space_group_name_H-M	'P1'
_symmetry_Int_Tables_number	1
_symmetry_cell_setting	triclinic
loop_
_symmetry_equiv_pos_as_xyz
  x,y,z
_cell_length_a	21.295420
_cell_length_b	21.295417
_cell_length_c	18.101390
_cell_angle_alpha	89.962939
_cell_angle_beta	89.980592
_cell_angle_gamma	90.026289
loop_
_atom_site_label
_atom_site_type_symbol
_atom_site_fract_x
_atom_site_fract_y
_atom_site_fract_z
Zn1	Zn	0.962323	-0.250656	-0.418713
Zn2	Zn	1.295656	0.082677	-0.085380
Zn3	Zn	1.628990	0.416011	0.247953
Zn4	Zn	0.962235	-0.355936	-0.294863
Zn5	Zn	1.295568	-0.022603	0.038471
Zn6	Zn	1.628902	0.310730	0.371804
Zn7	Zn	0.857056	-0.250677	-0.294886
Zn8	Zn	1.190389	0.082656	0.038448
Zn9	Zn	1.523723	0.415990	0.371781
Zn10	Zn	0.857016	-0.355884	-0.418663
Zn11	Zn	1.190349	-0.022550	-0.085329
Zn12	Zn	1.523682	0.310783	0.248004
O13	O	0.909657	-0.303288	-0.356781
O14	O	1.242991	0.030045	-0.023448
O15	O	1.576324	0.363378	0.309886
O16	O	1.050401	-0.264635	-0.402296
O17	O	1.383734	0.068698	-0.068962
O18	O	1.717067	0.402032	0.264371
O19	O	0.948263	-0.342004	-0.191233
O20	O	1.281596	-0.008671	0.142101
O21	O	1.614929	0.324663	0.475434
O22	O	0.871073	-0.162585	-0.311343
O23	O	1.204407	0.170748	0.021991
O24	O	1.537740	0.504082	0.355324
O25	O	1.050336	-0.341984	-0.311303
O26	O	1.383669	-0.008650	0.022030
O27	O	1.717003	0.324683	0.355363
O28	O	0.948413	-0.162569	-0.402318
O29	O	1.281746	0.170764	-0.068985
O30	O	1.615080	0.504097	0.264349
O31	O	0.870988	-0.264671	-0.191250
O32	O	1.204321	0.068663	0.142084
O33	O	1.537655	0.401996	0.475417
O34	O	0.768961	-0.264620	-0.311294
O35	O	1.102295	0.068714	0.022040
O36	O	1.435628	0.402047	0.355373
O37	O	0.871005	-0.341894	-0.522302
O38	O	1.204338	-0.008561	-0.188969
O39	O	1.537672	0.324773	0.144364
O40	O	0.768932	-0.341914	-0.402232
O41	O	1.102265	-0.008581	-0.068899
O42	O	1.435598	0.324752	0.264435
O43	O	0.948374	-0.264584	-0.522339
O44	O	1.281707	0.068749	-0.189006
O45	O	1.615041	0.402083	0.144327
O46	O	0.948224	-0.444019	-0.311254
O47	O	1.281557	-0.110685	0.022079
O48	O	1.614891	0.222648	0.355412
O49	O	0.870920	-0.443980	-0.402210
O50	O	1.204253	-0.110647	-0.068876
O51	O	1.537586	0.222687	0.264457
C52	C	0.746106	-0.303264	-0.356760
C53	C	1.079439	0.030069	-0.023427
C54	C	1.412773	0.363403	0.309907
C55	C	0.676138	-0.303269	-0.356769
C56	C	1.009471	0.030064	-0.023435
C57	C	1.342804	0.363398	0.309898
C58	C	0.176713	-0.263108	-0.404249
C59	C	0.510046	0.070226	-0.070916
C60	C	0.843379	0.403559	0.262418
C61	C	0.242455	-0.263103	-0.404249
C62	C	0.575789	0.070230	-0.070916
C63	C	0.909122	0.403564	0.262418
C64	C	0.275298	-0.303307	-0.356798
C65	C	0.608632	0.030026	-0.023465
C66	C	0.941965	0.363359	0.309868
C67	C	0.242393	-0.343531	-0.309358
C68	C	0.575727	-0.010198	0.023976
C69	C	0.909060	0.323136	0.357309
C70	C	0.176652	-0.343539	-0.309364
C71	C	0.509985	-0.010206	0.023969
C72	C	0.843319	0.323128	0.357302
N73	N	0.378493	-0.308058	-0.291953
N74	N	0.711826	0.025276	0.041381
N75	N	1.045160	0.358609	0.374714
N76	N	0.440945	-0.308047	-0.291948
N77	N	0.774278	0.025287	0.041385
N78	N	1.107611	0.358620	0.374718
C79	C	0.473373	-0.303287	-0.356777
C80	C	0.806706	0.030047	-0.023443
C81	C	1.140040	0.363380	0.309890
N82	N	0.440991	-0.298526	-0.421610
N83	N	0.774324	0.034807	-0.088277
N84	N	1.107657	0.368141	0.245056
N85	N	0.378534	-0.298534	-0.421614
N86	N	0.711867	0.034799	-0.088280
N87	N	1.045200	0.368133	0.245053
C88	C	0.346584	-0.303303	-0.356786
C89	C	0.679917	0.030030	-0.023453
C90	C	1.013250	0.363363	0.309881
C91	C	0.577556	-0.263064	-0.404218
C92	C	0.910889	0.070270	-0.070884
C93	C	1.244222	0.403603	0.262449
C94	C	0.643299	-0.263063	-0.404219
C95	C	0.976633	0.070270	-0.070886
C96	C	1.309966	0.403603	0.262448
C97	C	0.643236	-0.343488	-0.309321
C98	C	0.976569	-0.010155	0.024012
C99	C	1.309903	0.323179	0.357345
C100	C	0.577494	-0.343492	-0.309327
C101	C	0.910827	-0.010158	0.024007
C102	C	1.244160	0.323175	0.357340
C103	C	0.544657	-0.303276	-0.356774
C104	C	0.877991	0.030057	-0.023441
C105	C	1.211324	0.363391	0.309893
C106	C	0.909575	-0.466840	-0.356740
C107	C	1.242908	-0.133507	-0.023407
C108	C	1.576242	0.199827	0.309927
C109	C	0.909597	-0.536808	-0.356747
C110	C	1.242931	-0.203475	-0.023414
C111	C	1.576264	0.129859	0.309919
C112	C	0.949885	-0.569674	-0.309435
C113	C	1.283219	-0.236340	0.023898
C114	C	1.616552	0.096993	0.357231
C115	C	0.949915	-0.635416	-0.309452
C116	C	1.283248	-0.302083	0.023881
C117	C	1.616581	0.031250	0.357215
C118	C	0.909645	-0.668290	-0.356773
C119	C	1.242978	-0.334957	-0.023439
C120	C	1.576312	-0.001624	0.309894
C121	C	0.869354	-0.635417	-0.404094
C122	C	1.202687	-0.302083	-0.070761
C123	C	1.536021	0.031250	0.262573
C124	C	0.869330	-0.569675	-0.404081
C125	C	1.202664	-0.236342	-0.070748
C126	C	1.535997	0.096991	0.262585
N127	N	0.854578	-0.771552	-0.362411
N128	N	1.187911	-0.438218	-0.029078
N129	N	1.521244	-0.104885	0.304255
N130	N	0.854602	-0.834003	-0.362419
N131	N	1.187935	-0.500670	-0.029086
N132	N	1.521269	-0.167336	0.304247
C133	C	0.909716	-0.866365	-0.356815
C134	C	1.243049	-0.533032	-0.023482
C135	C	1.576382	-0.199698	0.309851
N136	N	0.964805	-0.833916	-0.351189
N137	N	1.298138	-0.500583	-0.017855
N138	N	1.631471	-0.167250	0.315478
N139	N	0.964780	-0.771459	-0.351177
N140	N	1.298113	-0.438126	-0.017844
N141	N	1.631446	-0.104793	0.315490
C142	C	0.909667	-0.739576	-0.356792
C143	C	1.243000	-0.406242	-0.023459
C144	C	1.576333	-0.072909	0.309874
C145	C	0.950039	-0.970517	-0.309519
C146	C	1.283372	-0.637183	0.023814
C147	C	1.616706	-0.303850	0.357148
C148	C	0.950070	-1.036260	-0.309541
C149	C	1.283403	-0.702927	0.023793
C150	C	1.616736	-0.369594	0.357126
C151	C	0.869503	-1.036259	-0.404179
C152	C	1.202837	-0.702926	-0.070845
C153	C	1.536170	-0.369593	0.262488
C154	C	0.869478	-0.970517	-0.404161
C155	C	1.202812	-0.637183	-0.070827
C156	C	1.536145	-0.303850	0.262506
C157	C	0.909745	-0.937649	-0.356827
C158	C	1.243079	-0.604316	-0.023494
C159	C	1.576412	-0.270983	0.309840
C160	C	1.073848	-0.303313	-0.356803
C161	C	1.407181	0.030020	-0.023469
C162	C	1.740514	0.363354	0.309864
C163	C	1.143816	-0.303323	-0.356812
C164	C	1.477149	0.030010	-0.023478
C165	C	1.810482	0.363343	0.309855
C166	C	0.909695	-0.303231	-0.549943
C167	C	1.243028	0.030103	-0.216610
C168	C	1.576362	0.363436	0.116724
C169	C	0.909711	-0.303206	-0.632257
C170	C	1.243044	0.030127	-0.298924
C171	C	1.576377	0.363460	0.034409
C172	C	0.909757	-0.139098	-0.356838
C173	C	1.243091	0.194235	-0.023505
C174	C	1.576424	0.527569	0.309828
C175	C	0.909800	-0.069130	-0.356863
C176	C	1.243133	0.264204	-0.023530
C177	C	1.576467	0.597537	0.309804
C178	C	0.909745	-0.303167	-0.931348
C179	C	1.243078	0.030166	-0.598015
C180	C	1.576411	0.363500	-0.264682
C181	C	0.958583	-0.254697	-0.900046
C182	C	1.291917	0.078637	-0.566713
C183	C	1.625250	0.411970	-0.233380
C184	C	0.958431	-0.254517	-0.814428
C185	C	1.291764	0.078817	-0.481095
C186	C	1.625098	0.412150	-0.147762
C187	C	0.909728	-0.303186	-0.782966
C188	C	1.243062	0.030147	-0.449632
C189	C	1.576395	0.363480	-0.116299
C190	C	0.843413	-0.285159	-0.814041
C191	C	1.176746	0.048175	-0.480708
C192	C	1.510080	0.381508	-0.147374
C193	C	0.843705	-0.284795	-0.899686
C194	C	1.177039	0.048538	-0.566353
C195	C	1.510372	0.381872	-0.233020
C196	C	0.926638	-0.369790	-0.899755
C197	C	1.259971	-0.036457	-0.566422
C198	C	1.593304	0.296877	-0.233088
C199	C	0.928093	-0.369450	-0.814105
C200	C	1.261426	-0.036117	-0.480772
C201	C	1.594760	0.297216	-0.147438
C202	C	0.909715	-0.303199	-0.699106
C203	C	1.243049	0.030135	-0.365773
C204	C	1.576382	0.363468	-0.032440
C205	C	0.909754	-0.303153	-1.015208
C206	C	1.243087	0.030180	-0.681875
C207	C	1.576420	0.363513	-0.348541
C208	C	0.909656	-0.303300	-0.164371
C209	C	1.242990	0.030033	0.168963
C210	C	1.576323	0.363367	0.502296
C211	C	0.909762	-0.303147	-0.082057
C212	C	1.243096	0.030186	0.251276
C213	C	1.576429	0.363519	0.584610
H214	H	0.269245	-0.230352	-0.442877
H215	H	0.602579	0.102982	-0.109544
H216	H	0.935912	0.436315	0.223790
H217	H	0.806079	-0.318563	-0.920391
H218	H	1.139412	0.014771	-0.587058
H219	H	1.472746	0.348104	-0.253725
F220	F	0.141770	-0.220310	-0.454751
F221	F	0.475103	0.113023	-0.121418
F222	F	0.808436	0.446356	0.211915
F223	F	1.023070	-0.269268	-0.926976
F224	F	1.356403	0.064065	-0.593642
F225	F	1.689736	0.397399	-0.260309
H226	H	0.149868	-0.376289	-0.270734
H227	H	0.483201	-0.042955	0.062599
H228	H	0.816534	0.290378	0.395932
H229	H	0.947249	-0.205161	-0.793960
H230	H	1.280583	0.128172	-0.460626
H231	H	1.613916	0.461505	-0.127293
H232	H	0.550819	-0.230318	-0.442852
H233	H	0.884152	0.103016	-0.109519
H234	H	1.217486	0.436349	0.223815
F235	F	0.678311	-0.220262	-0.454716
F236	F	1.011644	0.113071	-0.121383
F237	F	1.344977	0.446404	0.211950
H238	H	0.982675	-0.542915	-0.270895
H239	H	1.316008	-0.209582	0.062438
H240	H	1.649341	0.123752	0.395771
F241	F	1.022707	-0.269266	-0.786965
F242	F	1.356041	0.064067	-0.453632
F243	F	1.689374	0.397401	-0.120299
H244	H	0.982881	-1.063018	-0.271015
H245	H	1.316214	-0.729685	0.062318
H246	H	1.649547	-0.396352	0.395651
H247	H	0.829385	-0.236094	-0.919681
H248	H	1.162718	0.097239	-0.586348
H249	H	1.496051	0.430572	-0.253015
F250	F	0.542481	-0.386288	-0.258827
F251	F	0.875814	-0.052954	0.074506
F252	F	1.209147	0.280379	0.407839
F253	F	0.826595	-0.935537	-0.454514
F254	F	1.159928	-0.602204	-0.121181
F255	F	1.493262	-0.268870	0.212152
H256	H	0.806037	-0.319375	-0.793659
H257	H	1.139370	0.013959	-0.460326
H258	H	1.472703	0.347292	-0.126993
H259	H	0.828832	-0.236999	-0.792607
H260	H	1.162165	0.096335	-0.459274
H261	H	1.495498	0.429668	-0.125940
H262	H	0.669976	-0.376228	-0.270692
H263	H	1.003309	-0.042895	0.062642
H264	H	1.336643	0.290438	0.395975
F265	F	0.944156	-0.190545	-0.928203
F266	F	1.277489	0.142789	-0.594869
F267	F	1.610822	0.476122	-0.261536
F268	F	0.988760	-0.391222	-0.927993
F269	F	1.322094	-0.057889	-0.594659
F270	F	1.655427	0.275444	-0.261326
H271	H	0.891069	-0.405906	-0.920002
H272	H	1.224402	-0.072572	-0.586669
H273	H	1.557736	0.260761	-0.253335
F274	F	0.991883	-0.387218	-0.787563
F275	F	1.325217	-0.053885	-0.454229
F276	F	1.658550	0.279448	-0.120896
F277	F	0.884976	-0.419192	-0.786113
F278	F	1.218309	-0.085859	-0.452780
F279	F	1.551643	0.247475	-0.119447
F280	F	0.826499	-0.670404	-0.454459
F281	F	1.159832	-0.337071	-0.121125
F282	F	1.493165	-0.003738	0.212208
H283	H	0.836522	-0.542915	-0.442609
H284	H	1.169856	-0.209582	-0.109276
H285	H	1.503189	0.123751	0.224058
H286	H	0.982724	-0.662181	-0.270925
H287	H	1.316058	-0.328848	0.062408
H288	H	1.649391	0.004486	0.395741
F289	F	0.992894	-0.935534	-0.259142
F290	F	1.326227	-0.602201	0.074191
F291	F	1.659560	-0.268868	0.407524
F292	F	0.277348	-0.386321	-0.258860
F293	F	0.610681	-0.052988	0.074473
F294	F	0.944015	0.280345	0.407807
H295	H	0.836718	-1.063025	-0.442712
H296	H	1.170051	-0.729691	-0.109378
H297	H	1.503384	-0.396358	0.223955
