data_functionalizedCrystal
_audit_creation_method	'MofGen! by Chris Wilmer'
_symmetry_space_group_name_H-M	'P1'
_symmetry_Int_Tables_number	1
_symmetry_cell_setting	triclinic
loop_
_symmetry_equiv_pos_as_xyz
  x,y,z
_cell_length_a	10.686220
_cell_length_b	14.908178
_cell_length_c	10.685971
_cell_angle_alpha	89.189101
_cell_angle_beta	81.625016
_cell_angle_gamma	97.932243
loop_
_atom_site_label
_atom_site_type_symbol
_atom_site_fract_x
_atom_site_fract_y
_atom_site_fract_z
Zn1	Zn	1.863772	-0.286951	0.547482
Zn2	Zn	1.869617	-0.425261	0.324860
Zn3	Zn	1.667850	-0.286958	0.351511
Zn4	Zn	1.639242	-0.450329	0.551422
O5	O	1.760120	-0.362375	0.443819
O6	O	2.042954	-0.294804	0.505148
O7	O	1.857271	-0.396427	0.151564
O8	O	1.703367	-0.160702	0.387011
O9	O	2.047248	-0.396420	0.341589
O10	O	1.847309	-0.160697	0.530990
O11	O	1.709034	-0.294816	0.171145
O12	O	1.485649	-0.319123	0.390832
O13	O	1.654607	-0.439144	0.727731
O14	O	1.464630	-0.439151	0.537706
O15	O	1.819569	-0.319111	0.724836
O16	O	1.829530	-0.554841	0.345410
O17	O	1.660275	-0.573258	0.511864
C18	C	1.428880	-0.381859	0.467590
C19	C	1.287171	-0.390218	0.477787
C20	C	1.742465	-0.596786	0.426198
C21	C	1.735025	-0.697064	0.418693
C22	C	1.870794	-0.885359	0.554699
C23	C	1.863808	-0.979579	0.547651
C24	C	1.714059	-0.979726	0.397559
C25	C	1.721046	-0.885506	0.404606
C26	C	1.799417	-0.838326	0.483177
C27	C	1.806410	-0.744103	0.490217
C28	C	1.656655	-0.744253	0.340132
C29	C	1.649669	-0.838473	0.333085
C30	C	2.092653	-0.342815	0.419956
C31	C	2.234359	-0.334480	0.409787
C32	C	1.733245	-0.381923	0.773416
C33	C	1.721792	-0.390254	0.913870
C34	C	1.777877	-0.127048	0.461534
C35	C	1.785444	-0.026765	0.469083
C36	C	1.786875	-0.342919	1.115504
C37	C	1.798312	-0.334578	0.975052
H38	H	1.297557	-0.280367	0.343767
H39	H	1.872579	-0.280528	0.919975
O40	O	1.933216	-1.025350	0.616939
C41	C	2.017471	-1.070688	0.535083
H42	H	1.979355	-1.081823	0.441440
H43	H	2.025404	-1.138966	0.580397
H44	H	2.115784	-1.027937	0.517222
H45	H	1.223965	-0.444340	0.543803
O46	O	1.633253	-0.454845	0.979404
C47	C	1.656944	-0.541241	0.938489
H48	H	1.713536	-0.534603	0.838972
H49	H	1.562235	-0.586853	0.937661
H50	H	1.714217	-0.572128	1.005745
O51	O	1.947077	-0.839465	0.630827
C52	C	2.039365	-0.775804	0.557122
H53	H	2.053329	-0.797850	0.454906
H54	H	2.133793	-0.771601	0.595952
H55	H	2.005600	-0.706482	0.560907
H56	H	1.650247	-1.018157	0.333597
O57	O	1.882357	-0.698184	0.566622
C58	C	1.807079	-0.652838	0.657479
H59	H	1.715187	-0.641833	0.620801
H60	H	1.862523	-0.584495	0.675696
H61	H	1.782657	-0.695514	0.749407
O62	O	1.573463	-0.884421	0.256935
C63	C	1.481126	-0.948050	0.330641
H64	H	1.517143	-0.965148	0.422176
H65	H	1.463374	-1.012282	0.275420
H66	H	1.388197	-0.918175	0.353927
O67	O	1.587353	-0.698430	0.270779
C68	C	1.610350	-0.605148	0.293815
H69	H	1.645021	-0.595555	0.389348
H70	H	1.518220	-0.574508	0.294683
H71	H	1.686402	-0.569951	0.216044
