data_functionalizedCrystal
_audit_creation_method	'MofGen! by Chris Wilmer'
_symmetry_space_group_name_H-M	'P1'
_symmetry_Int_Tables_number	1
_symmetry_cell_setting	triclinic
loop_
_symmetry_equiv_pos_as_xyz
  x,y,z
_cell_length_a	12.759401
_cell_length_b	19.805405
_cell_length_c	12.759393
_cell_angle_alpha	89.966133
_cell_angle_beta	89.980324
_cell_angle_gamma	90.027152
loop_
_atom_site_label
_atom_site_type_symbol
_atom_site_fract_x
_atom_site_fract_y
_atom_site_fract_z
Zn1	Zn	1.606179	-0.269423	-0.593960
Zn2	Zn	2.106179	0.230577	-0.093960
Zn3	Zn	1.606033	-0.382625	-0.418270
Zn4	Zn	2.106033	0.117375	0.081730
Zn5	Zn	1.430477	-0.269457	-0.418299
Zn6	Zn	1.930477	0.230543	0.081701
Zn7	Zn	1.430432	-0.382576	-0.593911
Zn8	Zn	1.930432	0.117424	-0.093911
O9	O	1.518280	-0.326020	-0.506110
O10	O	2.018280	0.173980	-0.006110
O11	O	1.753180	-0.284446	-0.570663
O12	O	2.253180	0.215554	-0.070663
O13	O	1.582703	-0.367648	-0.271253
O14	O	2.082703	0.132352	0.228747
O15	O	1.453864	-0.174735	-0.441634
O16	O	1.953864	0.325265	0.058366
O17	O	1.753073	-0.367615	-0.441584
O18	O	2.253073	0.132385	0.058416
O19	O	1.582951	-0.174711	-0.570691
O20	O	2.082951	0.325289	-0.070691
O21	O	1.453723	-0.284504	-0.271274
O22	O	1.953723	0.215496	0.228726
O23	O	1.283450	-0.284456	-0.441586
O24	O	1.783450	0.215544	0.058414
O25	O	1.453788	-0.367531	-0.740939
O26	O	1.953788	0.132469	-0.240939
O27	O	1.283417	-0.367564	-0.570607
O28	O	1.783417	0.132436	-0.070607
O29	O	1.582908	-0.284398	-0.740975
O30	O	2.082908	0.215602	-0.240975
O31	O	1.582659	-0.477335	-0.441536
O32	O	2.082659	0.022665	0.058464
O33	O	1.453646	-0.477299	-0.570579
O34	O	1.953646	0.022701	-0.070579
C35	C	1.245313	-0.326009	-0.506095
C36	C	1.745313	0.173991	-0.006095
C37	C	1.128536	-0.326020	-0.506114
C38	C	1.628536	0.173980	-0.006114
C39	C	1.073731	-0.282792	-0.573429
C40	C	1.573731	0.217208	-0.073429
C41	C	0.964007	-0.282799	-0.573436
C42	C	1.464007	0.217201	-0.073436
C43	C	0.963903	-0.369268	-0.438810
C44	C	1.463903	0.130732	0.061190
C45	C	1.073625	-0.369257	-0.438798
C46	C	1.573625	0.130743	0.061202
C47	C	1.518161	-0.501876	-0.506072
C48	C	2.018161	-0.001876	-0.006072
C49	C	1.518205	-0.577108	-0.506091
C50	C	2.018205	-0.077108	-0.006091
C51	C	1.585381	-0.612381	-0.573344
C52	C	2.085381	-0.112381	-0.073344
C53	C	1.585419	-0.683070	-0.573363
C54	C	2.085419	-0.183070	-0.073363
C55	C	1.518286	-0.718484	-0.506124
C56	C	2.018286	-0.218484	-0.006124
C57	C	1.451103	-0.683206	-0.438868
C58	C	1.951103	-0.183206	0.061132
C59	C	1.451060	-0.612519	-0.438855
C60	C	1.951060	-0.112519	0.061145
C61	C	1.451271	-0.968279	-0.438922
C62	C	1.951271	-0.468279	0.061078
C63	C	1.451321	-1.038971	-0.438938
C64	C	1.951321	-0.538971	0.061062
C65	C	1.585630	-1.038830	-0.573431
C66	C	2.085630	-0.538830	-0.073431
C67	C	1.585588	-0.968143	-0.573417
C68	C	2.085588	-0.468143	-0.073417
C69	C	1.518401	-0.932871	-0.506166
C70	C	2.018401	-0.432871	-0.006166
C71	C	1.518360	-0.856223	-0.506147
C72	C	2.018360	-0.356223	-0.006147
C73	C	1.518332	-0.795131	-0.506137
C74	C	2.018332	-0.295131	-0.006137
C75	C	1.792313	-0.326032	-0.506126
C76	C	2.292313	0.173968	-0.006126
C77	C	1.909090	-0.326038	-0.506132
C78	C	2.409090	0.173962	-0.006132
C79	C	1.518359	-0.325955	-0.780143
C80	C	2.018359	0.174045	-0.280143
C81	C	1.518392	-0.325928	-0.896920
C82	C	2.018392	0.174072	-0.396920
C83	C	1.518429	-0.149477	-0.506171
C84	C	2.018429	0.350523	-0.006171
C85	C	1.518492	-0.074245	-0.506197
C86	C	2.018492	0.425755	-0.006197
C87	C	1.585630	-0.282633	-0.951803
C88	C	2.085630	0.217367	-0.451803
C89	C	1.585648	-0.282604	-1.061527
C90	C	2.085648	0.217396	-0.561527
C91	C	1.451187	-0.369169	-1.061476
C92	C	1.951187	0.130831	-0.561476
C93	C	1.451165	-0.369195	-0.951754
C94	C	1.951165	0.130805	-0.451754
C95	C	1.518262	-0.326036	-0.233143
C96	C	2.018262	0.173964	0.266857
C97	C	1.518432	-0.325873	-0.116367
C98	C	2.018432	0.174127	0.383633
H99	H	1.118436	-0.247583	-0.628238
H100	H	1.618436	0.252417	-0.128238
C101	C	1.659573	-0.235032	-0.891489
C102	C	2.159573	0.264968	-0.391489
N103	N	1.715265	-0.199175	-0.846064
N104	N	2.215265	0.300825	-0.346064
H105	H	1.118249	-0.404459	-0.383977
H106	H	1.618249	0.095541	0.116023
C107	C	1.659236	-0.573432	-0.647312
C108	C	2.159236	-0.073432	-0.147312
N109	N	1.714864	-0.544098	-0.703030
N110	N	2.214864	-0.044098	-0.203030
C111	C	1.659446	-0.929191	-0.647379
C112	C	2.159446	-0.429191	-0.147379
N113	N	1.715077	-0.899854	-0.703090
N114	N	2.215077	-0.399854	-0.203090
H115	H	1.396455	-0.404397	-1.106136
H116	H	1.896455	0.095603	-0.606136
C117	C	1.659617	-0.234978	-1.121893
C118	C	2.159617	0.265022	-0.621893
N119	N	1.715335	-0.199104	-1.167359
N120	N	2.215335	0.300896	-0.667359
C121	C	1.659530	-1.077635	-0.647418
C122	C	2.159530	-0.577635	-0.147418
N123	N	1.715190	-1.106862	-0.703142
N124	N	2.215190	-0.606862	-0.203142
C125	C	0.903725	-0.235246	-0.647491
C126	C	1.403725	0.264754	-0.147491
N127	N	0.858322	-0.199428	-0.703272
N128	N	1.358322	0.300572	-0.203272
C129	C	0.903491	-0.416830	-0.364773
C130	C	1.403491	0.083170	0.135227
N131	N	0.857990	-0.452657	-0.309010
N132	N	1.357990	0.047343	0.190990
C133	C	1.377459	-1.077925	-0.364973
C134	C	1.877459	-0.577925	0.135027
N135	N	1.321828	-1.107266	-0.309266
N136	N	1.821828	-0.607266	0.190734
H137	H	1.640129	-0.711786	-0.628119
H138	H	2.140129	-0.211786	-0.128119
H139	H	1.396568	-0.939566	-0.384161
H140	H	1.896568	-0.439566	0.115839
H141	H	1.396437	-0.712046	-0.384125
H142	H	1.896437	-0.212046	0.115875
H143	H	1.396357	-0.583800	-0.384092
H144	H	1.896357	-0.083800	0.115908
H145	H	1.396404	-0.404450	-0.907068
H146	H	1.896404	0.095550	-0.407068
