data_functionalizedCrystal
_audit_creation_method	'MofGen! by Chris Wilmer'
_symmetry_space_group_name_H-M	'P1'
_symmetry_Int_Tables_number	1
_symmetry_cell_setting	triclinic
loop_
_symmetry_equiv_pos_as_xyz
  x,y,z
_cell_length_a	8.559649
_cell_length_b	8.634740
_cell_length_c	7.088929
_cell_angle_alpha	97.198780
_cell_angle_beta	84.674985
_cell_angle_gamma	85.174486
loop_
_atom_site_label
_atom_site_type_symbol
_atom_site_fract_x
_atom_site_fract_y
_atom_site_fract_z
O1	O	-2.098509	0.033904	-0.158952
O2	O	-1.598509	0.533904	0.341048
O3	O	-1.645344	-0.044309	-0.158974
O4	O	-1.145344	0.455691	0.341026
O5	O	-1.850479	0.216738	-0.158918
O6	O	-1.350479	0.716738	0.341082
O7	O	-1.893374	-0.227143	-0.159007
O8	O	-1.393374	0.272857	0.340993
O9	O	-1.877883	0.251695	0.159065
O10	O	-1.377883	0.751695	0.659065
O11	O	-1.672748	-0.009352	0.159009
O12	O	-1.172748	0.490648	0.659009
O13	O	-2.125913	0.068861	0.159031
O14	O	-1.625913	0.568861	0.659031
Cu15	Cu	-1.901832	0.032946	0.188054
Cu16	Cu	-1.401832	0.532946	0.688054
Cu17	Cu	-1.869425	-0.008394	-0.187997
Cu18	Cu	-1.369425	0.491606	0.312003
O19	O	-1.920778	-0.192186	0.158976
O20	O	-1.420778	0.307814	0.658976
C21	C	-1.600428	-0.032758	0.000016
C22	C	-1.100428	0.467242	0.500016
C23	C	-1.425764	-0.050401	0.000009
C24	C	-0.925764	0.449599	0.500009
C25	C	-1.854463	0.290517	0.000080
C26	C	-1.354463	0.790517	0.500080
C27	C	-1.825486	0.458270	0.000102
C28	C	-1.325486	0.958270	0.500102
N29	N	-1.924637	0.062025	0.452549
N30	N	-1.424637	0.562025	0.952549
C31	C	-2.170828	0.057309	0.000038
C32	C	-1.670828	0.557309	0.500038
C33	C	-2.345492	0.074951	0.000032
C34	C	-1.845492	0.574951	0.500032
C35	C	-1.916798	0.734040	0.000020
C36	C	-1.416798	1.234040	0.500020
C37	C	-1.945785	0.566300	0.000127
C38	C	-1.445785	1.066300	0.500127
N39	N	-1.846630	-0.037459	-0.452491
N40	N	-1.346630	0.462541	0.047509
H41	H	-1.410390	0.195768	0.000046
H42	H	-0.910390	0.695768	0.500046
H43	H	-1.360856	-0.171228	-0.000025
H44	H	-0.860856	0.328772	0.499975
Br45	Br	-1.711878	-0.209301	0.411394
Br46	Br	-1.211878	0.290699	0.911394
Br47	Br	-2.059424	0.233853	0.588670
Br48	Br	-1.559424	0.733853	1.088670
H49	H	-2.070948	0.530438	0.000051
H50	H	-1.570948	1.030438	0.500051
Br51	Br	-1.616868	0.518010	0.000090
Br52	Br	-1.116868	1.018010	0.500090
