data_functionalizedCrystal
_audit_creation_method	'MofGen! by Chris Wilmer'
_symmetry_space_group_name_H-M	'P1'
_symmetry_Int_Tables_number	1
_symmetry_cell_setting	triclinic
loop_
_symmetry_equiv_pos_as_xyz
  x,y,z
_cell_length_a	29.839131
_cell_length_b	10.685980
_cell_length_c	10.686551
_cell_angle_alpha	81.591741
_cell_angle_beta	85.589901
_cell_angle_gamma	94.407617
loop_
_atom_site_label
_atom_site_type_symbol
_atom_site_fract_x
_atom_site_fract_y
_atom_site_fract_z
Zn1	Zn	-0.100700	1.995654	-0.866663
Zn2	Zn	-0.182090	1.979123	-0.654366
Zn3	Zn	-0.113204	1.767065	-0.638122
Zn4	Zn	-0.182046	1.783247	-0.850276
O5	O	-0.144510	1.881272	-0.752357
O6	O	-0.106281	2.171102	-0.852157
O7	O	-0.178203	1.937303	-0.474577
O8	O	-0.048673	1.797533	-0.668498
O9	O	-0.166078	2.158957	-0.696183
O10	O	-0.039486	1.965477	-0.836406
O11	O	-0.127593	1.781504	-0.462642
O12	O	-0.127551	1.591571	-0.652609
O13	O	-0.166004	1.825114	-1.030084
O14	O	-0.178129	1.603460	-0.808477
O15	O	-0.106239	1.981169	-1.042123
O16	O	-0.244957	1.952994	-0.680294
O17	O	-0.244925	1.809085	-0.824228
C18	C	-0.154192	1.551455	-0.727003
C19	C	-0.158345	1.410360	-0.716187
C20	C	-0.261241	1.881038	-0.752276
C21	C	-0.311175	1.881057	-0.752293
C22	C	-0.620807	1.956363	-0.677540
C23	C	-0.808474	1.956523	-0.677601
O24	O	-0.832735	2.020365	-0.613981
N25	N	-0.831941	1.881543	-0.752472
C26	C	-0.808489	1.806524	-0.827340
O27	O	-0.832756	1.742762	-0.891034
C28	C	-0.620823	1.806371	-0.827285
C29	C	-0.597358	1.881346	-0.752399
C30	C	-0.597342	2.031333	-0.602661
C31	C	-0.550428	2.031287	-0.602641
C32	C	-0.526979	1.956270	-0.677500
C33	C	-0.550444	1.881300	-0.752379
C34	C	-0.597371	1.731359	-0.902159
C35	C	-0.550452	1.731330	-0.902141
C36	C	-0.526987	1.806305	-0.827255
C37	C	-0.480082	1.806237	-0.827218
N38	N	-0.456614	1.881218	-0.752347
C39	C	-0.480063	1.956234	-0.677488
C40	C	-0.907017	1.806607	-0.827362
C41	C	-0.953934	1.806643	-0.827374
C42	C	-0.953914	1.956645	-0.677637
C43	C	-0.906997	1.956601	-0.677618
C44	C	-0.883549	1.881587	-0.752491
C45	C	-0.381541	1.956131	-0.677451
C46	C	-0.334623	1.956074	-0.677434
C47	C	-0.334646	1.806078	-0.827176
C48	C	-0.381560	1.806129	-0.827189
C49	C	-0.405006	1.881165	-0.752323
O50	O	-0.455791	1.742440	-0.890816
O51	O	-0.455787	2.020008	-0.613825
C52	C	-0.667720	1.956409	-0.677560
C53	C	-0.691185	1.881438	-0.752439
C54	C	-0.667737	1.806422	-0.827298
C55	C	-0.738102	1.881475	-0.752451
C56	C	-0.761550	1.956491	-0.677592
C57	C	-0.738082	2.031471	-0.602720
C58	C	-0.691169	2.031425	-0.602701
C59	C	-0.691205	1.731442	-0.902169
C60	C	-0.738118	1.731493	-0.902182
C61	C	-0.761567	1.806509	-0.827323
C62	C	-0.027321	1.881544	-0.752468
C63	C	0.022618	1.881660	-0.752515
C64	C	-0.134722	1.906790	-1.083450
C65	C	-0.130551	1.917665	-1.224542
C66	C	-0.134790	2.212377	-0.777810
C67	C	-0.130648	2.353474	-0.788657
C68	C	-0.154225	1.855927	-0.422557
C69	C	-0.158263	1.845298	-0.281484
H70	H	-0.185235	1.351114	-0.645857
F71	F	-0.309653	2.035876	-0.597726
H72	H	-0.103756	1.412714	-0.858974
F73	F	-0.978878	2.036480	-0.597963
F74	F	-0.095369	2.009535	-1.301911
F75	F	-0.406487	2.035993	-0.597770
H76	H	-0.531325	2.092342	-0.541667
H77	H	-0.616428	2.092427	-0.541702
H78	H	-0.887895	2.017653	-0.616641
F79	F	-0.978903	1.726829	-0.907063
F80	F	-0.193447	1.753446	-1.204123
H81	H	-0.531362	1.670247	-0.963115
F82	F	-0.882067	1.726760	-0.907055
H83	H	-0.616469	1.670300	-0.963133
H84	H	-0.672067	2.092477	-0.541722
F85	F	-0.406535	1.726307	-0.906865
F86	F	-0.763047	2.111306	-0.523046
F87	F	-0.309682	1.726248	-0.906846
H88	H	-0.672116	1.670356	-0.963130
F89	F	-0.763087	1.651684	-0.981888
