data_functionalizedCrystal
_audit_creation_method	'MofGen! by Chris Wilmer'
_symmetry_space_group_name_H-M	'P1'
_symmetry_Int_Tables_number	1
_symmetry_cell_setting	triclinic
loop_
_symmetry_equiv_pos_as_xyz
  x,y,z
_cell_length_a	19.188925
_cell_length_b	19.188924
_cell_length_c	18.266242
_cell_angle_alpha	89.991576
_cell_angle_beta	89.990012
_cell_angle_gamma	83.142256
loop_
_atom_site_label
_atom_site_type_symbol
_atom_site_fract_x
_atom_site_fract_y
_atom_site_fract_z
O1	O	0.926150	0.087151	-0.060900
O2	O	0.722837	0.098889	-0.060898
O3	O	0.830363	-0.008636	-0.060891
O4	O	0.818624	0.194676	-0.060908
O5	O	0.830345	-0.008642	0.060871
O6	O	0.722819	0.098884	0.060864
O7	O	0.926131	0.087145	0.060862
Zn8	Zn	0.824472	0.093014	0.080195
Zn9	Zn	0.824496	0.093021	-0.080232
O10	O	0.818606	0.194671	0.060854
C11	C	0.696817	0.098507	-0.000017
C12	C	0.619313	0.097368	-0.000016
C13	C	0.829975	-0.034650	-0.000009
C14	C	0.828836	-0.112155	-0.000007
C15	C	0.057541	0.152832	-0.000023
C16	C	0.130364	0.153908	-0.000027
C17	C	0.175300	0.090816	-0.000020
C18	C	0.147408	0.026642	-0.000028
C19	C	0.074586	0.025568	-0.000031
N20	N	0.295972	0.045138	0.041432
N21	N	0.365150	0.046163	0.041437
C22	C	0.394709	0.094050	-0.000012
N23	N	0.352477	0.140884	-0.041456
N24	N	0.283293	0.139861	-0.041458
C25	C	0.254264	0.091974	-0.000017
C26	C	0.501557	0.159387	-0.000013
C27	C	0.574381	0.160461	-0.000022
C28	C	0.591424	0.033193	-0.000016
C29	C	0.518600	0.032121	-0.000015
C30	C	0.473671	0.095220	-0.000010
C31	C	0.828314	-0.148551	-0.066380
C32	C	0.827234	-0.221373	-0.066385
C33	C	0.826690	-0.257799	-0.000014
C34	C	0.827208	-0.221394	0.066367
C35	C	0.828281	-0.148572	0.066371
N36	N	0.864731	-0.377465	0.049384
N37	N	0.863713	-0.446644	0.049376
C38	C	0.823456	-0.477208	-0.000021
N39	N	0.784264	-0.435982	-0.049421
N40	N	0.785285	-0.366798	-0.049415
C41	C	0.825526	-0.336763	-0.000011
C42	C	0.821763	-0.592567	-0.066405
C43	C	0.820678	-0.665390	-0.066407
C44	C	0.820659	-0.665410	0.066347
C45	C	0.821736	-0.592587	0.066348
C46	C	0.822291	-0.556170	-0.000030
C47	C	0.952151	0.087528	-0.000021
C48	C	1.029656	0.088667	-0.000027
C49	C	0.818994	0.220684	-0.000029
C50	C	0.820133	0.298189	-0.000036
N51	N	0.824461	0.093008	0.189682
N52	N	0.824513	0.093021	-0.189719
C53	C	0.872089	0.045419	0.227994
C54	C	0.872094	0.045416	0.304639
C55	C	0.824477	0.093014	0.342969
C56	C	0.776840	0.140606	0.304647
C57	C	0.776832	0.140604	0.228004
N58	N	0.815399	0.154822	0.463296
N59	N	0.815411	0.154822	0.536104
C60	C	0.824496	0.093024	0.573891
N61	N	0.833583	0.031223	0.536120
N62	N	0.833575	0.031223	0.463305
C63	C	0.824480	0.093022	0.426076
C64	C	0.872132	0.045427	0.695311
C65	C	0.872131	0.045423	0.771957
C66	C	0.776881	0.140620	0.771964
C67	C	0.776878	0.140618	0.695319
C68	C	0.824507	0.093022	0.656997
H69	H	0.020963	0.204212	-0.000022
H70	H	0.464973	0.210766	-0.000011
C71	C	0.924510	-0.006932	0.653150
H72	H	0.917690	-0.000112	0.602016
H73	H	0.917071	-0.053510	0.665722
H74	H	0.971086	0.000536	0.665696
H75	H	0.738068	0.179360	0.335859
C76	C	0.924526	-0.006926	0.814101
H77	H	0.952893	-0.035265	0.780298
H78	H	0.899510	-0.035932	0.844013
H79	H	0.953511	0.018128	0.843986
C80	C	0.724494	0.192974	0.653173
H81	H	0.696139	0.221326	0.686976
H82	H	0.695507	0.167931	0.623286
H83	H	0.749522	0.221977	0.623264
H84	H	0.738108	0.179372	0.803171
H85	H	0.738047	0.179357	0.196809
H86	H	0.822167	-0.562954	0.120395
H87	H	0.597083	0.212714	-0.000025
H88	H	0.910870	0.006663	0.196795
H89	H	0.183999	-0.024728	-0.000025
C90	C	0.043911	-0.045017	-0.000029
H91	H	0.081101	-0.082440	-0.000022
H92	H	0.015862	-0.048078	-0.042488
H93	H	0.015853	-0.048083	0.042439
H94	H	0.153073	0.206161	-0.000017
H95	H	0.628010	-0.018178	-0.000016
H96	H	0.820250	-0.695022	-0.120458
C97	C	0.826688	-0.261421	-0.139398
H98	H	0.827184	-0.229304	-0.178928
H99	H	0.785573	-0.284391	-0.142178
H100	H	0.866991	-0.295269	-0.142134
C101	C	0.924487	-0.006932	0.346792
H102	H	0.952854	-0.035276	0.312991
H103	H	0.899469	-0.035934	0.376706
H104	H	0.953473	0.018123	0.376674
H105	H	0.495897	-0.020129	-0.000013
H106	H	0.828764	-0.118904	-0.120430
H107	H	0.826763	-0.251056	0.120407
C108	C	0.828861	-0.108535	0.139384
H109	H	0.828386	-0.140657	0.178913
H110	H	0.788576	-0.074674	0.142145
H111	H	0.869993	-0.085584	0.142142
C112	C	0.820054	-0.705469	0.139354
H113	H	0.819343	-0.754053	0.129847
H114	H	0.779519	-0.688085	0.166624
H115	H	0.860937	-0.698993	0.166628
H116	H	0.822210	-0.562914	-0.120453
