data_functionalizedCrystal
_audit_creation_method	'MofGen! by Chris Wilmer'
_symmetry_space_group_name_H-M	'P1'
_symmetry_Int_Tables_number	1
_symmetry_cell_setting	triclinic
loop_
_symmetry_equiv_pos_as_xyz
  x,y,z
_cell_length_a	14.853567
_cell_length_b	15.995350
_cell_length_c	13.930277
_cell_angle_alpha	89.997676
_cell_angle_beta	89.995755
_cell_angle_gamma	83.563653
loop_
_atom_site_label
_atom_site_type_symbol
_atom_site_fract_x
_atom_site_fract_y
_atom_site_fract_z
O1	O	1.196221	0.109317	-0.079760
O2	O	0.933744	0.122339	-0.079776
O3	O	1.072157	-0.006051	-0.079766
O4	O	1.057808	0.237707	-0.079769
O5	O	1.072138	-0.006054	0.079895
O6	O	0.933725	0.122336	0.079886
O7	O	1.196202	0.109314	0.079902
Zn8	Zn	1.064960	0.115825	0.105244
Zn9	Zn	1.064986	0.115828	-0.105117
O10	O	1.057788	0.237705	0.079893
C11	C	0.900146	0.121748	0.000053
C12	C	0.800065	0.119980	0.000047
C13	C	1.071555	-0.037248	0.000063
C14	C	1.069776	-0.130201	0.000057
C15	C	0.387644	0.036238	0.000069
C16	C	0.366158	0.188769	0.000067
C17	C	0.460189	0.190432	0.000064
C18	C	0.517953	0.114996	0.000062
C19	C	0.481685	0.037899	0.000063
C20	C	0.496464	0.267528	0.000053
C21	C	0.590501	0.269194	0.000048
C22	C	0.648266	0.193758	0.000054
C23	C	0.611993	0.116657	0.000056
C24	C	0.669757	0.041221	0.000054
C25	C	0.633485	-0.035880	0.000064
C26	C	0.539450	-0.037538	0.000069
C27	C	0.742302	0.195415	0.000049
C28	C	0.763797	0.042882	0.000048
C29	C	1.063389	-0.467956	0.000060
C30	C	0.964813	-0.420636	-0.000304
C31	C	0.966592	-0.323944	0.000056
C32	C	1.066557	-0.300391	0.000058
C33	C	1.115167	-0.341414	0.091234
C34	C	1.112691	-0.438052	0.091310
C35	C	1.114749	-0.438405	-0.090255
C36	C	1.114726	-0.341460	-0.091460
C37	C	1.068353	-0.205692	0.000060
C38	C	1.061596	-0.562655	0.000064
C39	C	1.229799	0.109906	0.000071
C40	C	1.329881	0.111674	0.000071
C41	C	1.058391	0.268901	0.000062
C42	C	1.060170	0.361854	0.000061
N43	N	1.064950	0.115822	0.248810
N44	N	1.065003	0.115825	-0.248684
C45	C	1.003694	0.172657	0.701075
C46	C	1.126302	0.058993	0.701053
C47	C	1.126292	0.058990	0.600557
C48	C	1.064982	0.115823	0.550316
C49	C	1.003683	0.172658	0.600570
C50	C	1.187595	0.002162	0.550295
C51	C	1.187588	0.002158	0.449793
C52	C	1.126273	0.058987	0.399550
C53	C	1.064971	0.115824	0.449811
C54	C	1.003661	0.172656	0.399569
C55	C	0.942354	0.229490	0.449828
C56	C	0.942368	0.229487	0.550327
C57	C	1.126259	0.058989	0.299051
C58	C	1.003651	0.172657	0.299064
H59	H	0.810823	-0.018548	0.000051
N60	N	0.879744	0.287555	0.398503
N61	N	0.908347	0.339578	0.342422
H62	H	0.864131	0.380587	0.306170
N63	N	0.350615	-0.042523	0.000068
N64	N	0.402203	-0.109867	0.000063
H65	H	0.376052	-0.165494	0.000061
H66	H	0.680529	-0.097299	0.000056
N67	N	0.879743	0.287527	0.601668
N68	N	0.823798	0.260860	0.657764
H69	H	0.779569	0.301850	0.694028
N70	N	0.502398	-0.116288	0.000088
N71	N	0.452318	-0.134231	0.067391
H72	H	0.426146	-0.189848	0.067403
H73	H	0.928108	-0.296125	0.065521
N74	N	1.188786	0.000890	0.247676
N75	N	1.187459	-0.076494	0.258911
H76	H	1.231588	-0.117548	0.222608
H77	H	0.319121	0.250185	0.000060
H78	H	1.237506	-0.044120	0.408879
N79	N	0.437450	0.344570	0.000024
N80	N	0.353493	0.343073	0.000020
H81	H	0.311808	0.397487	-0.000006
H82	H	0.620025	0.331975	0.000041
H83	H	1.176223	0.012726	0.741962
H84	H	0.925421	-0.439212	-0.065688
N85	N	0.779338	0.274169	0.000031
N86	N	0.727754	0.341515	0.000024
H87	H	0.753909	0.397141	0.000013
N88	N	1.068202	-0.461057	0.176810
N89	N	1.039193	-0.405767	0.236009
H90	H	1.007770	-0.422009	0.296396
N91	N	1.203481	-0.478395	0.096515
N92	N	1.268469	-0.435151	0.100086
H93	H	1.332590	-0.463639	0.103769
H94	H	0.928381	-0.295565	-0.065303
H95	H	0.925581	-0.440277	0.064711
H96	H	1.188608	-0.327203	0.094626
H97	H	0.953776	0.218928	0.741998
N98	N	1.072787	-0.305858	0.176344
N99	N	1.006795	-0.250317	0.170088
H100	H	0.976858	-0.225205	0.230195
N101	N	1.074329	-0.464229	-0.176942
N102	N	1.007170	-0.504733	-0.173208
H103	H	0.978615	-0.522974	-0.234426
N104	N	1.070191	-0.307262	-0.176072
N105	N	1.003226	-0.252843	-0.169074
H106	H	0.971770	-0.228686	-0.228829
H107	H	0.953721	0.218934	0.258164
N108	N	1.206170	-0.322063	-0.098368
N109	N	1.237471	-0.277461	-0.035670
H110	H	1.302056	-0.263757	-0.040544
N111	N	1.250248	-0.055848	0.601628
N112	N	1.250263	-0.055821	0.691359
H113	H	1.294524	-0.096783	0.727618
N114	N	1.205932	-0.478121	-0.091022
N115	N	1.257892	-0.466928	-0.022783
H116	H	1.322290	-0.494976	-0.023317
