data_functionalizedCrystal
_audit_creation_method	'MofGen! by Chris Wilmer'
_symmetry_space_group_name_H-M	'P1'
_symmetry_Int_Tables_number	1
_symmetry_cell_setting	triclinic
loop_
_symmetry_equiv_pos_as_xyz
  x,y,z
_cell_length_a	19.077105
_cell_length_b	18.050589
_cell_length_c	19.076979
_cell_angle_alpha	87.625059
_cell_angle_beta	90.140888
_cell_angle_gamma	92.268789
loop_
_atom_site_label
_atom_site_type_symbol
_atom_site_fract_x
_atom_site_fract_y
_atom_site_fract_z
Zn1	Zn	1.058463	0.321521	0.440468
Zn2	Zn	1.391797	0.654854	0.773801
Zn3	Zn	1.725130	0.988187	1.107135
Zn4	Zn	1.063015	0.451002	0.322960
Zn5	Zn	1.396348	0.784335	0.656293
Zn6	Zn	1.729681	1.117668	0.989627
Zn7	Zn	0.945612	0.322049	0.318252
Zn8	Zn	1.278946	0.655382	0.651586
Zn9	Zn	1.612279	0.988716	0.984919
Zn10	Zn	0.940902	0.440887	0.435720
Zn11	Zn	1.274235	0.774221	0.769053
Zn12	Zn	1.607568	1.107554	1.102387
O13	O	1.001998	0.383865	0.379350
O14	O	1.335331	0.717198	0.712683
O15	O	1.668665	1.050531	1.046017
O16	O	1.157400	0.342708	0.428837
O17	O	1.490734	0.676042	0.762171
O18	O	1.824067	1.009375	1.095504
O19	O	1.051317	0.438350	0.223997
O20	O	1.384651	0.771683	0.557331
O21	O	1.717984	1.105016	0.890664
O22	O	0.960649	0.218056	0.334481
O23	O	1.293982	0.551390	0.667815
O24	O	1.627315	0.884723	1.001148
O25	O	1.160744	0.437837	0.342505
O26	O	1.494078	0.771171	0.675838
O27	O	1.827411	1.104504	1.009171
O28	O	1.043560	0.217668	0.424273
O29	O	1.376893	0.551002	0.757606
O30	O	1.710227	0.884335	1.090939
O31	O	0.965062	0.343609	0.220539
O32	O	1.298395	0.676942	0.553872
O33	O	1.631729	1.010275	0.887205
O34	O	0.846654	0.333801	0.329878
O35	O	1.179987	0.667135	0.663211
O36	O	1.513321	1.000468	0.996544
O37	O	0.952620	0.420599	0.534688
O38	O	1.285954	0.753933	0.868021
O39	O	1.619287	1.087266	1.201355
O40	O	0.843193	0.421112	0.416181
O41	O	1.176527	0.754445	0.749514
O42	O	1.509860	1.087778	1.082847
O43	O	1.038992	0.332901	0.538176
O44	O	1.372326	0.666234	0.871510
O45	O	1.705659	0.999568	1.204843
O46	O	1.046750	0.553582	0.337901
O47	O	1.380083	0.886916	0.671234
O48	O	1.713416	1.220249	1.004568
O49	O	0.957034	0.546152	0.420745
O50	O	1.290367	0.879485	0.754079
O51	O	1.623700	1.212818	1.087412
C52	C	0.819427	0.376417	0.372004
C53	C	1.152760	0.709750	0.705337
C54	C	1.486094	1.043083	1.038670
C55	C	0.741322	0.373248	0.368877
C56	C	1.074655	0.706581	0.702211
C57	C	1.407988	1.039914	1.035544
C58	C	1.001893	0.576813	0.379335
C59	C	1.335226	0.910146	0.712668
C60	C	1.668560	1.243480	1.046002
C61	C	1.001911	0.659359	0.379354
C62	C	1.335245	0.992692	0.712688
C63	C	1.668578	1.326025	1.046021
C64	C	0.702847	0.417291	0.412271
C65	C	1.036180	0.750625	0.745605
C66	C	1.369513	1.083958	1.078938
C67	C	0.629458	0.414304	0.409337
C68	C	0.962792	0.747637	0.742671
C69	C	1.296125	1.080970	1.076004
C70	C	0.594546	0.367276	0.363005
C71	C	0.927879	0.700609	0.696339
C72	C	1.261213	1.033942	1.029672
C73	C	0.633026	0.323227	0.319610
C74	C	0.966359	0.656561	0.652943
C75	C	1.299693	0.989894	0.986276
C76	C	0.706413	0.326211	0.322548
C77	C	1.039746	0.659545	0.655881
C78	C	1.373080	0.992878	0.989214
C79	C	0.375254	0.353464	0.349411
C80	C	0.708587	0.686798	0.682744
C81	C	1.041920	1.020131	1.016078
C82	C	0.301861	0.350485	0.346475
C83	C	0.635195	0.683818	0.679808
C84	C	0.968528	1.017152	1.013141
C85	C	0.298299	0.441561	0.436204
C86	C	0.631632	0.774894	0.769537
C87	C	0.964965	1.108227	1.102871
C88	C	0.371687	0.444544	0.439135
C89	C	0.705021	0.777877	0.772468
C90	C	1.038354	1.111211	1.105801
C91	C	0.410161	0.400493	0.395742
C92	C	0.743494	0.733826	0.729075
C93	C	1.076827	1.067159	1.062408
N94	N	0.519531	0.364223	0.360004
N95	N	0.852865	0.697556	0.693337
N96	N	1.186198	1.030889	1.026670
N97	N	0.485174	0.403543	0.398747
N98	N	0.818507	0.736876	0.732081
N99	N	1.151841	1.070209	1.065414
C100	C	0.953149	0.854797	0.424390
C101	C	1.286483	1.188131	0.757724
C102	C	1.619816	1.521464	1.091057
C103	C	0.938557	0.906427	0.359579
C104	C	1.271890	1.239760	0.692912
C105	C	1.605224	1.573093	1.026246
C106	C	1.001964	0.810491	0.379366
C107	C	1.335297	1.143824	0.712700
C108	C	1.668631	1.477157	1.046033
C109	C	1.016575	0.905943	0.444186
C110	C	1.349908	1.239277	0.777519
C111	C	1.683241	1.572610	1.110853
C112	C	1.002013	0.956477	0.379383
C113	C	1.335346	1.289811	0.712717
C114	C	1.668680	1.623144	1.046050
C115	C	0.987339	0.861033	0.314520
C116	C	1.320673	1.194367	0.647853
C117	C	1.654006	1.527700	0.981186
C118	C	1.065385	0.860545	0.399171
C119	C	1.398718	1.193878	0.732504
C120	C	1.732052	1.527211	1.065838
C121	C	1.050819	0.912155	0.334316
C122	C	1.384152	1.245488	0.667650
C123	C	1.717486	1.578822	1.000983
C124	C	1.001934	0.726392	0.379357
C125	C	1.335267	1.059725	0.712691
C126	C	1.668600	1.393058	1.046024
C127	C	1.002044	1.040575	0.379385
C128	C	1.335377	1.373908	0.712718
C129	C	1.668710	1.707242	1.046052
C130	C	1.185282	0.391342	0.386726
C131	C	1.518615	0.724675	0.720059
C132	C	1.851949	1.058009	1.053392
C133	C	1.263387	0.394529	0.389869
C134	C	1.596720	0.727862	0.723202
C135	C	1.930053	1.061195	1.056535
C136	C	1.002095	1.190162	0.379381
C137	C	1.335428	1.523495	0.712715
C138	C	1.668762	1.856828	1.046048
C139	C	1.002068	1.107614	0.379394
C140	C	1.335401	1.440948	0.712727
C141	C	1.668734	1.774281	1.046061
C142	C	1.009235	0.392082	0.196772
C143	C	1.342568	0.725415	0.530105
C144	C	1.675902	1.058749	0.863438
C145	C	1.012450	0.395416	0.118669
C146	C	1.345783	0.728749	0.452002
C147	C	1.679117	1.062083	0.785336
C148	C	0.968726	0.347991	0.080196
C149	C	1.302060	0.681324	0.413529
C150	C	1.635393	1.014657	0.746862
C151	C	0.971753	0.351123	0.006810
C152	C	1.305087	0.684456	0.340143
C153	C	1.638420	1.017790	0.673477
C154	C	1.018501	0.401685	-0.028101
C155	C	1.351834	0.735018	0.305233
C156	C	1.685168	1.068352	0.638566
C157	C	1.062229	0.449113	0.010378
C158	C	1.395563	0.782446	0.343711
C159	C	1.728896	1.115779	0.677045
C160	C	1.059205	0.445976	0.083762
C161	C	1.392539	0.779309	0.417096
C162	C	1.725872	1.112643	0.750429
C163	C	1.032399	0.416316	-0.247385
C164	C	1.365732	0.749650	0.085948
C165	C	1.699066	1.082983	0.419282
C166	C	1.035418	0.419451	-0.320775
C167	C	1.368751	0.752784	0.012559
C168	C	1.702085	1.086118	0.345892
C169	C	0.944943	0.321460	-0.324338
C170	C	1.278276	0.654793	0.008996
C171	C	1.611609	0.988127	0.342329
C172	C	0.941920	0.318331	-0.250952
C173	C	1.275253	0.651664	0.082381
C174	C	1.608587	0.984997	0.415715
C175	C	0.985651	0.365756	-0.212479
C176	C	1.318984	0.699089	0.120854
C177	C	1.652317	1.032422	0.454187
N178	N	1.021595	0.404890	-0.103113
N179	N	1.354928	0.738223	0.230221
N180	N	1.688261	1.071556	0.563554
N181	N	0.982560	0.362547	-0.137469
N182	N	1.315894	0.695880	0.195865
N183	N	1.649227	1.029213	0.529198
C184	C	0.994773	0.375563	0.562643
C185	C	1.328107	0.708896	0.895976
C186	C	1.661440	1.042230	1.229310
C187	C	0.991695	0.372025	0.640752
C188	C	1.325028	0.705359	0.974085
C189	C	1.658361	1.038692	1.307418
H190	H	0.731267	0.455589	0.449998
H191	H	1.064600	0.788922	0.783331
H192	H	1.397934	1.122256	1.116664
H193	H	1.028914	0.925742	0.498997
H194	H	1.362247	1.259076	0.832330
H195	H	1.695580	1.592409	1.165664
N196	N	0.970916	0.834933	0.241891
N197	N	1.304249	1.168266	0.575224
N198	N	1.637582	1.501600	0.908557
H199	H	0.970978	0.778964	0.242336
H200	H	1.304311	1.112298	0.575670
H201	H	1.637645	1.445631	0.909003
H202	H	0.923200	0.852074	0.226881
H203	H	1.256533	1.185408	0.560214
H204	H	1.589867	1.518741	0.893547
N205	N	0.918299	0.293459	0.117844
N206	N	1.251632	0.626793	0.451177
N207	N	1.584966	0.960126	0.784510
H208	H	0.884674	0.321278	0.146849
H209	H	1.218007	0.654612	0.480182
H210	H	1.551340	0.987945	0.813515
H211	H	0.891110	0.263908	0.082287
H212	H	1.224444	0.597242	0.415620
H213	H	1.557777	0.930575	0.748954
H214	H	1.068006	0.454935	-0.216070
H215	H	1.401339	0.788268	0.117264
H216	H	1.734673	1.121601	0.450597
N217	N	1.112655	0.503644	-0.027271
N218	N	1.445989	0.836977	0.306062
N219	N	1.779322	1.170311	0.639395
H220	H	1.107874	0.498501	-0.079601
H221	H	1.441208	0.831834	0.253732
H222	H	1.774541	1.165167	0.587065
H223	H	1.101583	0.555786	-0.014953
H224	H	1.434917	0.889120	0.318381
H225	H	1.768250	1.222453	0.651714
N226	N	1.105534	0.945167	0.283837
N227	N	1.438868	1.278500	0.617171
N228	N	1.772201	1.611833	0.950504
H229	H	1.094425	0.928789	0.234920
H230	H	1.427759	1.262122	0.568253
H231	H	1.761092	1.595455	0.901587
H232	H	1.105510	1.001085	0.284477
H233	H	1.438844	1.334418	0.617810
H234	H	1.772177	1.667752	0.951144
N235	N	0.595370	0.272518	0.269626
N236	N	0.928703	0.605852	0.602959
N237	N	1.262037	0.939185	0.936293
H238	H	0.563808	0.235617	0.297011
H239	H	0.897141	0.568950	0.630344
H240	H	1.230475	0.902283	0.963678
H241	H	0.566234	0.302956	0.235810
H242	H	0.899567	0.636289	0.569143
H243	H	1.232900	0.969622	0.902477
H244	H	1.094811	0.484594	0.115087
H245	H	1.428144	0.817927	0.448420
H246	H	1.761478	1.151260	0.781754
N247	N	0.867545	0.933213	0.337398
N248	N	1.200879	1.266546	0.670731
N249	N	1.534212	1.599879	1.004064
H250	H	0.872688	0.966144	0.293458
H251	H	1.206021	1.299477	0.626791
H252	H	1.539354	1.632811	0.960125
H253	H	0.835180	0.889148	0.327801
H254	H	1.168514	1.222481	0.661134
H255	H	1.501847	1.555815	0.994467
N256	N	0.898406	0.821595	0.474741
N257	N	1.231739	1.154928	0.808074
N258	N	1.565072	1.488261	1.141408
H259	H	0.921827	0.790119	0.512280
H260	H	1.255161	1.123452	0.845613
H261	H	1.588494	1.456785	1.178946
H262	H	0.873295	0.862724	0.497216
H263	H	1.206629	1.196057	0.830550
H264	H	1.539962	1.529390	1.163883
H265	H	0.406570	0.317600	0.314072
H266	H	0.739903	0.650934	0.647405
H267	H	1.073237	0.984267	0.980739
N268	N	0.587960	0.461819	0.456131
N269	N	0.921294	0.795152	0.789464
N270	N	1.254627	1.128485	1.122797
H271	H	0.621213	0.492071	0.485920
H272	H	0.954546	0.825404	0.819254
H273	H	1.287880	1.158737	1.152587
H274	H	0.558622	0.496193	0.426238
H275	H	0.891956	0.829526	0.759572
H276	H	1.225289	1.162859	1.092905
N277	N	1.136381	0.833745	0.421374
N278	N	1.469714	1.167078	0.754707
N279	N	1.803047	1.500411	1.088040
H280	H	1.147357	0.849983	0.470364
H281	H	1.480690	1.183316	0.803697
H282	H	1.814023	1.516649	1.137031
H283	H	1.135913	0.777809	0.420710
H284	H	1.469246	1.111142	0.754043
H285	H	1.802579	1.444476	1.087377
N286	N	0.747914	0.278702	0.275750
N287	N	1.081248	0.612036	0.609083
N288	N	1.414581	0.945369	0.942416
H289	H	0.714663	0.248457	0.245952
H290	H	1.047996	0.581790	0.579286
H291	H	1.381330	0.915124	0.912619
H292	H	0.779628	0.311587	0.244397
H293	H	1.112961	0.644920	0.577731
H294	H	1.446294	0.978253	0.911064
H295	H	0.273438	0.312180	0.308750
H296	H	0.606771	0.645514	0.642083
H297	H	0.940105	0.978847	0.975417
H298	H	0.936148	0.312505	-0.024512
H299	H	1.269481	0.645838	0.308821
H300	H	1.602815	0.979172	0.642155
H301	H	0.903850	0.277161	-0.222533
H302	H	1.237183	0.610494	0.110800
H303	H	1.570517	0.943827	0.444134
H304	H	0.909340	0.282848	-0.355670
H305	H	1.242674	0.616182	-0.022336
H306	H	1.576007	0.949515	0.310997
N307	N	1.085841	0.473992	-0.358427
N308	N	1.419174	0.807325	-0.025093
N309	N	1.752507	1.140659	0.308240
H310	H	1.113083	0.503557	-0.322916
H311	H	1.446417	0.836890	0.010418
H312	H	1.779750	1.170223	0.343751
H313	H	1.119418	0.446128	-0.387443
H314	H	1.452751	0.779462	-0.054110
H315	H	1.786084	1.112795	0.279224
H316	H	0.400108	0.482841	0.476862
H317	H	0.733441	0.816174	0.810195
H318	H	1.066775	1.149508	1.143528
N319	N	0.256806	0.489064	0.483012
N320	N	0.590139	0.822398	0.816346
N321	N	0.923472	1.155731	1.149679
H322	H	0.269982	0.543125	0.472523
H323	H	0.603315	0.876458	0.805857
H324	H	0.936648	1.209791	1.139190
H325	H	0.205031	0.479979	0.474103
H326	H	0.538364	0.813312	0.807437
H327	H	0.871697	1.146645	1.140770
