data_functionalizedCrystal
_audit_creation_method	'MofGen! by Chris Wilmer'
_symmetry_space_group_name_H-M	'P1'
_symmetry_Int_Tables_number	1
_symmetry_cell_setting	triclinic
loop_
_symmetry_equiv_pos_as_xyz
  x,y,z
_cell_length_a	19.805407
_cell_length_b	18.101397
_cell_length_c	19.805399
_cell_angle_alpha	89.970675
_cell_angle_beta	89.979591
_cell_angle_gamma	90.022406
loop_
_atom_site_label
_atom_site_type_symbol
_atom_site_fract_x
_atom_site_fract_y
_atom_site_fract_z
Zn1	Zn	1.034764	-0.294808	-0.382727
Zn2	Zn	1.534764	0.205192	0.117273
Zn3	Zn	1.034690	-0.418652	-0.269535
Zn4	Zn	1.534690	0.081348	0.230465
Zn5	Zn	0.921578	-0.294833	-0.269550
Zn6	Zn	1.421578	0.205167	0.230450
Zn7	Zn	0.921554	-0.418617	-0.382680
Zn8	Zn	1.421554	0.081383	0.117320
O9	O	0.978146	-0.356728	-0.326123
O10	O	1.478146	0.143272	0.173877
O11	O	1.129470	-0.311241	-0.367725
O12	O	1.629470	0.188759	0.132275
O13	O	1.019665	-0.402252	-0.174820
O14	O	1.519665	0.097748	0.325180
O15	O	0.936634	-0.191197	-0.284588
O16	O	1.436634	0.308803	0.215412
O17	O	1.129417	-0.402228	-0.284563
O18	O	1.629417	0.097772	0.215437
O19	O	1.019790	-0.191179	-0.367739
O20	O	1.519790	0.308821	0.132261
O21	O	0.936562	-0.311283	-0.174831
O22	O	1.436562	0.188717	0.325169
O23	O	0.826858	-0.311249	-0.284543
O24	O	1.326858	0.188751	0.215457
O25	O	0.936591	-0.402168	-0.477403
O26	O	1.436591	0.097832	0.022597
O27	O	0.826840	-0.402192	-0.367660
O28	O	1.326840	0.097808	0.132340
O29	O	1.019766	-0.311207	-0.477437
O30	O	1.519766	0.188793	0.022563
O31	O	1.019641	-0.522280	-0.284518
O32	O	1.519641	-0.022280	0.215482
O33	O	0.936520	-0.522254	-0.367645
O34	O	1.436520	-0.022254	0.132355
C35	C	0.802290	-0.356720	-0.326098
C36	C	1.302290	0.143280	0.173902
C37	C	0.727058	-0.356734	-0.326104
C38	C	1.227058	0.143266	0.173896
C39	C	0.265299	-0.309439	-0.369517
C40	C	0.765299	0.190561	0.130483
C41	C	0.335987	-0.309440	-0.369512
C42	C	0.835987	0.190560	0.130488
C43	C	0.371297	-0.356739	-0.326145
C44	C	0.871297	0.143261	0.173855
C45	C	0.335914	-0.404044	-0.282784
C46	C	0.835914	0.095956	0.217216
C47	C	0.265227	-0.404046	-0.282792
C48	C	0.765227	0.095954	0.217208
C49	C	0.620987	-0.404039	-0.282748
C50	C	1.120987	0.095961	0.217252
C51	C	0.691679	-0.404031	-0.282741
C52	C	1.191679	0.095969	0.217259
C53	C	0.691748	-0.309433	-0.369468
C54	C	1.191748	0.190567	0.130532
C55	C	0.621061	-0.309435	-0.369477
C56	C	1.121061	0.190565	0.130523
C57	C	0.585684	-0.356743	-0.326118
C58	C	1.085684	0.143257	0.173882
C59	C	0.509036	-0.356742	-0.326125
C60	C	1.009036	0.143258	0.173875
C61	C	0.447944	-0.356737	-0.326134
C62	C	0.947944	0.143263	0.173866
C63	C	0.978089	-0.549138	-0.326090
C64	C	1.478089	-0.049138	0.173910
C65	C	0.978126	-0.631452	-0.326099
C66	C	1.478126	-0.131452	0.173901
C67	C	0.978212	-0.930543	-0.326160
C68	C	1.478212	-0.430543	0.173840
C69	C	1.030364	-0.899203	-0.273719
C70	C	1.530364	-0.399203	0.226281
C71	C	1.030544	-0.813585	-0.273855
C72	C	1.530544	-0.313585	0.226145
C73	C	0.978169	-0.782161	-0.326129
C74	C	1.478169	-0.282161	0.173871
C75	C	0.997504	-0.813169	-0.397474
C76	C	1.497504	-0.313169	0.102526
C77	C	0.997908	-0.898814	-0.397189
C78	C	1.497908	-0.398814	0.102811
C79	C	0.906586	-0.899054	-0.307874
C80	C	1.406586	-0.399054	0.192126
C81	C	0.906940	-0.813405	-0.306282
C82	C	1.406940	-0.313405	0.193718
C83	C	0.978144	-0.698301	-0.326116
C84	C	1.478144	-0.198301	0.173884
C85	C	0.978239	-1.014403	-0.326178
C86	C	1.478239	-0.514403	0.173822
C87	C	1.154689	-0.356736	-0.326148
C88	C	1.654689	0.143264	0.173852
C89	C	1.229921	-0.356739	-0.326158
C90	C	1.729921	0.143261	0.173842
C91	C	0.978184	-0.356681	-0.502666
C92	C	1.478184	0.143319	-0.002666
C93	C	0.978201	-0.356661	-0.577898
C94	C	1.478201	0.143339	-0.077898
C95	C	0.978223	-0.163566	-0.326170
C96	C	1.478223	0.336434	0.173830
C97	C	0.978256	-0.081252	-0.326191
C98	C	1.478256	0.418748	0.173809
C99	C	1.021511	-0.309295	-0.613261
C100	C	1.521511	0.190705	-0.113261
C101	C	1.021518	-0.309274	-0.683949
C102	C	1.521518	0.190726	-0.183949
C103	C	0.978217	-0.356622	-0.719273
C104	C	1.478217	0.143378	-0.219273
C105	C	0.934902	-0.403990	-0.683905
C106	C	1.434902	0.096010	-0.183905
C107	C	0.934893	-0.404008	-0.613218
C108	C	1.434893	0.095992	-0.113218
C109	C	0.934941	-0.403921	-0.968979
C110	C	1.434941	0.096079	-0.468979
C111	C	0.934955	-0.403902	-1.039671
C112	C	1.434955	0.096098	-0.539671
C113	C	1.021566	-0.309187	-1.039710
C114	C	1.521566	0.190813	-0.539710
C115	C	1.021556	-0.309204	-0.969023
C116	C	1.521556	0.190796	-0.469023
C117	C	0.978239	-0.356569	-0.933661
C118	C	1.478239	0.143431	-0.433661
C119	C	0.978231	-0.356591	-0.857012
C120	C	1.478231	0.143409	-0.357012
C121	C	0.978228	-0.356605	-0.795920
C122	C	1.478228	0.143395	-0.295920
C123	C	0.978148	-0.356721	-0.150267
C124	C	1.478148	0.143279	0.349733
C125	C	0.978263	-0.356532	-0.075035
C126	C	1.478263	0.143468	0.424965
H127	H	0.364789	-0.270926	-0.404822
H128	H	0.864789	0.229074	0.095178
H129	H	0.720560	-0.270915	-0.404774
H130	H	1.220560	0.229085	0.095226
H131	H	0.960681	-0.792812	-0.437598
H132	H	1.460681	-0.292812	0.062402
H133	H	1.056787	-0.270705	-0.712739
H134	H	1.556787	0.229295	-0.212739
F135	F	0.888866	-0.454299	-1.077264
F136	F	1.388866	0.045701	-0.577264
H137	H	0.364668	-0.442558	-0.247475
H138	H	0.864668	0.057442	0.252525
F139	F	1.014698	-0.786183	-0.204717
F140	F	1.514698	-0.286183	0.295283
F141	F	0.883593	-0.927366	-0.241053
F142	F	1.383593	-0.427366	0.258947
H143	H	0.961587	-0.919543	-0.437608
H144	H	1.461587	-0.419543	0.062392
H145	H	0.720426	-0.442551	-0.247424
H146	H	1.220426	0.057449	0.252576
F147	F	0.583346	-0.454371	-0.236587
F148	F	1.083346	0.045629	0.263413
F149	F	1.014748	-0.926188	-0.204364
F150	F	1.514748	-0.426188	0.295636
F151	F	0.855797	-0.925547	-0.357796
F152	F	1.355797	-0.425547	0.142204
H153	H	1.049274	-0.791660	-0.413225
H154	H	1.549274	-0.291660	0.086775
F155	F	1.067666	-0.258774	-1.077350
F156	F	1.567666	0.241226	-0.577350
H157	H	0.899644	-0.442540	-0.712672
H158	H	1.399644	0.057460	-0.212672
F159	F	0.227575	-0.454394	-0.236648
F160	F	0.727575	0.045606	0.263352
H161	H	1.083130	-0.920670	-0.285679
H162	H	1.583130	-0.420670	0.214321
H163	H	0.899679	-0.442500	-0.940196
H164	H	1.399679	0.057500	-0.440196
F165	F	1.067644	-0.258812	-0.931432
F166	F	1.567644	0.241188	-0.431432
F167	F	0.888794	-0.454419	-0.575582
F168	F	1.388794	0.045581	-0.075582
H169	H	1.050263	-0.918731	-0.412678
H170	H	1.550263	-0.418731	0.087322
F171	F	0.227726	-0.259093	-0.415673
F172	F	0.727726	0.240907	0.084327
F173	F	0.887879	-0.786921	-0.237656
F174	F	1.387879	-0.286921	0.262344
H175	H	0.865993	-0.792022	-0.341680
H176	H	1.365993	-0.292022	0.158320
F177	F	1.099893	-0.786727	-0.289672
F178	F	1.599893	-0.286727	0.210328
H179	H	0.592315	-0.270917	-0.404789
H180	H	1.092315	0.229083	0.095211
F181	F	1.067601	-0.258903	-0.575672
F182	F	1.567601	0.241097	-0.075672
