data_functionalizedCrystal
_audit_creation_method	'MofGen! by Chris Wilmer'
_symmetry_space_group_name_H-M	'P1'
_symmetry_Int_Tables_number	1
_symmetry_cell_setting	triclinic
loop_
_symmetry_equiv_pos_as_xyz
  x,y,z
_cell_length_a	12.759401
_cell_length_b	18.215404
_cell_length_c	12.759393
_cell_angle_alpha	90.033458
_cell_angle_beta	89.980198
_cell_angle_gamma	89.977091
loop_
_atom_site_label
_atom_site_type_symbol
_atom_site_fract_x
_atom_site_fract_y
_atom_site_fract_z
Zn1	Zn	1.606200	0.292967	-0.593967
Zn2	Zn	1.606063	0.416051	-0.418278
Zn3	Zn	1.430498	0.293001	-0.418305
Zn4	Zn	1.430462	0.415994	-0.593918
O5	O	1.518306	0.354503	-0.506117
O6	O	1.753203	0.309304	-0.570670
O7	O	1.582732	0.399766	-0.271260
O8	O	1.453878	0.190012	-0.441639
O9	O	1.753102	0.399733	-0.441592
O10	O	1.582965	0.189987	-0.570697
O11	O	1.453745	0.309361	-0.271280
O12	O	1.283473	0.309306	-0.441592
O13	O	1.453817	0.399636	-0.740946
O14	O	1.283446	0.399669	-0.570614
O15	O	1.582930	0.309249	-0.740981
O16	O	1.582697	0.519027	-0.441545
O17	O	1.453684	0.518986	-0.570587
C18	C	1.245339	0.354486	-0.506102
C19	C	1.128562	0.354496	-0.506120
C20	C	0.964016	0.307512	-0.573442
C21	C	1.073740	0.307497	-0.573435
C22	C	1.073654	0.401518	-0.438815
C23	C	0.963932	0.401535	-0.438828
C24	C	1.518200	0.545709	-0.506081
C25	C	1.518251	0.627508	-0.506101
C26	C	1.585591	0.815699	-0.439046
C27	C	1.585640	0.892558	-0.439077
C28	C	1.451182	0.892555	-0.573339
C29	C	1.451139	0.815697	-0.573312
C30	C	1.518342	0.777272	-0.506160
C31	C	1.518434	0.930988	-0.506218
C32	C	1.518486	1.014321	-0.506252
C33	C	1.518291	0.693933	-0.506127
C34	C	1.792339	0.354521	-0.506133
C35	C	1.909116	0.354528	-0.506140
C36	C	1.518384	0.354432	-0.780150
C37	C	1.518418	0.354402	-0.896927
C38	C	1.518447	1.162550	-0.506195
C39	C	1.518525	1.080751	-0.506277
C40	C	1.585652	0.307330	-0.951809
C41	C	1.585670	0.307298	-1.061533
C42	C	1.451216	0.401418	-1.061484
C43	C	1.451194	0.401445	-0.951762
C44	C	1.518288	0.354520	-0.233150
C45	C	1.518458	0.354343	-0.116373
H46	H	1.118435	0.269213	-0.628240
O47	O	0.910604	0.261880	-0.638734
C48	C	0.741611	0.220271	-0.698470
C49	C	0.801965	0.271972	-0.624450
H50	H	0.653767	0.228423	-0.686963
H51	H	0.763113	0.160894	-0.680171
H52	H	0.763286	0.233257	-0.783138
H53	H	0.780323	0.259052	-0.539758
H54	H	0.780458	0.331334	-0.642839
H55	H	1.640417	0.268966	-1.106214
H56	H	1.396466	0.923850	-0.628010
H57	H	1.396377	0.784407	-0.627969
O58	O	1.385847	0.447245	-0.898604
C59	C	1.252446	0.540566	-0.910125
C60	C	1.326413	0.488753	-0.970455
H61	H	1.204358	0.574127	-0.968189
H62	H	1.300593	0.579111	-0.858777
H63	H	1.197572	0.506772	-0.858730
H64	H	1.381301	0.522487	-1.021906
H65	H	1.278200	0.450206	-1.021736
H66	H	0.919231	0.439826	-0.384022
O67	O	1.127067	0.447104	-0.373459
C68	C	1.296062	0.488773	-0.313814
C69	C	1.235706	0.437099	-0.387870
H70	H	1.383906	0.480714	-0.325456
H71	H	1.274528	0.475780	-0.229111
H72	H	1.274422	0.548126	-0.332103
H73	H	1.257313	0.377729	-0.369676
H74	H	1.257245	0.450155	-0.472551
O75	O	1.650822	0.778452	-0.373677
C76	C	1.701870	0.754980	-0.195000
C77	C	1.627944	0.797218	-0.268912
H78	H	1.683385	0.770124	-0.110281
H79	H	1.786602	0.770047	-0.213448
H80	H	1.690306	0.693450	-0.206560
H81	H	1.639415	0.858757	-0.257393
H82	H	1.543239	0.782089	-0.250446
O83	O	1.651136	0.929783	-0.373934
C84	C	1.829923	0.953185	-0.323179
C85	C	1.755844	0.910985	-0.397004
H86	H	1.914596	0.938015	-0.341819
H87	H	1.811607	0.938110	-0.238425
H88	H	1.818403	1.014721	-0.334687
H89	H	1.767323	0.849440	-0.385589
H90	H	1.774178	0.926121	-0.481730
H91	H	1.396487	0.439720	-1.106143
H92	H	1.640388	0.269023	-0.907166
