data_functionalizedCrystal
_audit_creation_method	'MofGen! by Chris Wilmer'
_symmetry_space_group_name_H-M	'P1'
_symmetry_Int_Tables_number	1
_symmetry_cell_setting	triclinic
loop_
_symmetry_equiv_pos_as_xyz
  x,y,z
_cell_length_a	14.971506
_cell_length_b	16.109304
_cell_length_c	14.048226
_cell_angle_alpha	89.996377
_cell_angle_beta	89.993237
_cell_angle_gamma	83.542513
loop_
_atom_site_label
_atom_site_type_symbol
_atom_site_fract_x
_atom_site_fract_y
_atom_site_fract_z
O1	O	1.186781	0.108428	-0.079161
O2	O	0.926364	0.121385	-0.079161
O3	O	1.063725	-0.006115	-0.079162
O4	O	1.049420	0.235928	-0.079161
O5	O	1.063709	-0.006123	0.079160
O6	O	0.926348	0.121377	0.079160
O7	O	1.186764	0.108420	0.079160
Zn8	Zn	1.056553	0.114898	0.104297
Zn9	Zn	1.056575	0.114907	-0.104298
O10	O	1.049403	0.235920	0.079161
C11	C	0.893033	0.120799	-0.000000
C12	C	0.793739	0.119053	-0.000000
C13	C	1.063137	-0.037095	-0.000003
C14	C	1.061398	-0.129392	-0.000010
C15	C	0.355359	0.187296	-0.000010
C16	C	0.448657	0.188929	-0.000014
C17	C	0.505984	0.114018	-0.000010
C18	C	0.470009	0.037468	-0.000012
C19	C	0.376713	0.035836	-0.000014
C20	C	0.664467	0.040877	-0.000004
C21	C	0.757770	0.042509	0.000001
C22	C	0.736411	0.193970	-0.000003
C23	C	0.643115	0.192338	-0.000006
C24	C	0.607146	0.115788	-0.000006
C25	C	1.057391	-0.341731	-0.086307
C26	C	1.055749	-0.428453	-0.086306
C27	C	1.055735	-0.428458	0.086305
C28	C	1.057371	-0.341737	0.086303
C29	C	1.058203	-0.298376	-0.000006
C30	C	1.054926	-0.471819	-0.000003
C31	C	1.053146	-0.565848	-0.000002
C32	C	1.059981	-0.204341	-0.000008
C33	C	1.220096	0.109006	-0.000003
C34	C	1.319390	0.110752	-0.000009
C35	C	1.049992	0.266900	0.000000
C36	C	1.051730	0.359197	0.000000
N37	N	1.056545	0.114890	0.246658
N38	N	1.056591	0.114908	-0.246659
C39	C	1.117387	0.058457	0.296476
C40	C	1.117394	0.058456	0.396133
C41	C	1.056561	0.114894	0.445971
C42	C	0.995712	0.171330	0.396147
C43	C	0.995702	0.171326	0.296491
C44	C	0.995738	0.171336	0.603861
C45	C	0.995748	0.171342	0.703524
C46	C	1.117429	0.058466	0.703503
C47	C	1.117419	0.058462	0.603848
C48	C	1.056571	0.114900	0.554030
H49	H	0.308688	0.248297	-0.000006
H50	H	0.946157	0.217279	0.255930
F51	F	0.930972	0.231402	0.550845
F52	F	1.058273	-0.295585	-0.178164
H53	H	1.055060	-0.463773	0.156574
H54	H	1.055085	-0.463748	-0.156581
H55	H	1.166935	0.012503	0.436694
H56	H	0.516692	-0.023525	-0.000014
H57	H	0.635186	-0.021458	-0.000008
H58	H	0.946176	0.217280	0.436731
H59	H	0.477938	0.251259	-0.000024
F60	F	1.058227	-0.295591	0.178161
F61	F	1.182140	-0.001610	0.243444
F62	F	0.582104	0.272066	-0.000005
H63	H	1.166958	0.012510	0.563270
F64	F	1.182188	-0.001597	0.756527
F65	F	0.931000	0.231410	0.756558
H66	H	0.765701	0.256300	-0.000003
F67	F	0.818780	-0.037219	-0.000001
H68	H	0.347429	-0.026494	-0.000015
