data_functionalizedCrystal
_audit_creation_method	'MofGen! by Chris Wilmer'
_symmetry_space_group_name_H-M	'P1'
_symmetry_Int_Tables_number	1
_symmetry_cell_setting	triclinic
loop_
_symmetry_equiv_pos_as_xyz
  x,y,z
_cell_length_a	13.339070
_cell_length_b	10.868271
_cell_length_c	13.185408
_cell_angle_alpha	90.002862
_cell_angle_beta	83.801397
_cell_angle_gamma	90.005479
loop_
_atom_site_label
_atom_site_type_symbol
_atom_site_fract_x
_atom_site_fract_y
_atom_site_fract_z
O1	O	1.204770	0.102366	0.505094
O2	O	0.928293	0.102359	0.438797
O3	O	1.113900	0.102355	0.327529
O4	O	1.019163	0.102370	0.616361
O5	O	1.113886	-0.102290	0.327530
O6	O	0.928278	-0.102286	0.438798
O7	O	1.204756	-0.102278	0.505095
Zn8	Zn	1.066515	-0.134774	0.471946
Zn9	Zn	1.066534	0.134854	0.471945
O10	O	1.019149	-0.102274	0.616362
C11	C	0.893645	0.000036	0.427598
C12	C	0.790432	0.000033	0.394217
N13	N	1.066509	-0.318788	0.471949
C14	C	0.354975	0.000066	0.653772
C15	C	0.451948	0.000073	0.685138
C16	C	0.536573	0.000062	0.612411
C17	C	0.524217	0.000046	0.508311
C18	C	0.427234	0.000049	0.476941
C19	C	0.608832	0.000045	0.435580
C20	C	0.596476	0.000029	0.331481
C21	C	0.499502	0.000031	0.300116
C22	C	0.414877	0.000042	0.372844
C23	C	0.705815	0.000042	0.466950
C24	C	0.778074	0.000025	0.290120
C25	C	0.681101	0.000019	0.258753
C26	C	1.066516	-0.430126	0.471951
C27	C	1.066531	-0.569803	0.471946
C28	C	1.239404	0.000048	0.516293
C29	C	1.342617	0.000059	0.549674
C30	C	1.123497	0.000033	0.289807
C31	C	1.152104	0.000035	0.177402
N32	N	1.066549	0.318868	0.471937
C33	C	1.253958	0.000035	0.138351
C34	C	1.280839	0.000047	0.032742
C35	C	1.205868	0.000049	-0.033826
C36	C	1.104011	0.000040	0.005225
C37	C	1.077128	0.000038	0.110844
C38	C	1.029038	0.000052	-0.061333
C39	C	0.927181	0.000043	-0.022282
C40	C	0.900303	0.000040	0.083327
C41	C	0.975274	0.000038	0.149895
C42	C	1.055921	0.000054	-0.166953
C43	C	0.879090	0.000056	-0.194460
C44	C	0.852210	0.000045	-0.088851
C45	C	1.009551	0.000050	0.654084
C46	C	0.980945	0.000056	0.766489
H47	H	0.715865	0.000050	0.551708
F48	F	1.333736	0.000047	0.209202
F49	F	0.639780	0.000067	0.645796
H50	H	0.953393	0.000024	0.235892
F51	F	0.465092	0.000095	0.795924
H52	H	0.818043	0.000061	-0.248660
F53	F	0.791898	0.000053	0.124885
H54	H	0.286067	0.000085	0.712975
F55	F	0.311663	0.000031	0.339466
H56	H	0.489447	0.000032	0.215352
H57	H	0.671026	0.000016	0.173993
H58	H	0.846979	0.000022	0.230898
F59	F	1.164321	0.000063	-0.208502
H60	H	1.227760	0.000058	-0.119817
H61	H	1.363771	0.000053	0.000954
H62	H	0.769277	0.000037	-0.057040
