data_functionalizedCrystal
_audit_creation_method	'MofGen! by Chris Wilmer'
_symmetry_space_group_name_H-M	'P1'
_symmetry_Int_Tables_number	1
_symmetry_cell_setting	triclinic
loop_
_symmetry_equiv_pos_as_xyz
  x,y,z
_cell_length_a	16.109301
_cell_length_b	17.038272
_cell_length_c	15.186229
_cell_angle_alpha	89.995962
_cell_angle_beta	89.999362
_cell_angle_gamma	87.286518
loop_
_atom_site_label
_atom_site_type_symbol
_atom_site_fract_x
_atom_site_fract_y
_atom_site_fract_z
O1	O	1.110268	0.100495	-0.073174
O2	O	0.869094	0.113001	-0.073188
O3	O	0.988247	-0.007067	-0.073174
O4	O	0.991114	0.220563	-0.073187
O5	O	0.988239	-0.007069	0.073284
O6	O	0.869085	0.113000	0.073270
O7	O	1.110259	0.100493	0.073284
Zn8	Zn	0.989671	0.106746	0.096530
Zn9	Zn	0.989682	0.106748	-0.096434
O10	O	0.991105	0.220562	0.073270
C11	C	0.838079	0.112494	0.000039
C12	C	0.745676	0.110975	0.000034
C13	C	0.528212	0.178690	0.000040
C14	C	0.441390	0.177257	0.000046
C15	C	0.451147	0.034799	0.000051
C16	C	0.537968	0.036233	0.000051
C17	C	0.576498	0.108181	0.000042
C18	C	0.402855	0.105314	0.000047
C19	C	0.308719	0.103759	0.000053
C20	C	0.670640	0.109736	0.000037
C21	C	0.985636	-0.036196	0.000055
C22	C	0.977857	-0.122989	0.000054
C23	C	1.049277	-0.173104	0.000059
C24	C	1.041963	-0.254654	0.000050
C25	C	0.963228	-0.286089	0.000043
C26	C	0.891802	-0.235967	0.000035
C27	C	0.899116	-0.154418	0.000038
C28	C	0.937385	-0.531846	0.000029
C29	C	0.930076	-0.613402	0.000029
C30	C	1.080238	-0.632083	0.000043
C31	C	1.087546	-0.550532	0.000051
C32	C	1.016120	-0.500418	0.000038
C33	C	0.955749	-0.369446	0.000037
C34	C	1.023599	-0.417062	0.000038
C35	C	1.141274	0.101001	0.000055
C36	C	1.233677	0.102519	0.000054
C37	C	0.993717	0.249691	0.000039
C38	C	1.001496	0.336484	0.000034
N39	N	0.989669	0.106744	0.228223
N40	N	0.989690	0.106744	-0.228126
C41	C	1.042451	0.053596	0.453952
C42	C	1.042453	0.053594	0.546141
C43	C	0.936902	0.159895	0.546138
C44	C	0.936896	0.159893	0.453950
C45	C	0.989675	0.106744	0.407859
C46	C	0.989684	0.106745	0.592237
C47	C	0.989686	0.106743	0.692193
C48	C	0.989672	0.106744	0.307897
H49	H	1.100122	-0.295455	0.000056
H50	H	0.559580	0.237274	0.000039
H51	H	0.419765	-0.023778	0.000064
O52	O	1.125780	-0.142609	-0.000091
C53	C	1.169677	-0.168231	-0.075931
H54	H	1.123737	-0.185178	-0.128948
H55	H	1.208544	-0.118838	-0.101391
H56	H	1.212244	-0.221394	-0.058783
H57	H	1.085425	0.010318	0.416427
H58	H	1.085427	0.010315	0.583667
O59	O	0.394609	0.245822	0.000002
C60	C	0.447238	0.309627	0.000018
H61	H	0.510556	0.289767	-0.027711
H62	H	0.418742	0.359030	-0.042505
H63	H	0.454974	0.331679	0.070279
H64	H	0.891642	-0.395049	0.000032
O65	O	1.164094	-0.520129	0.000022
C66	C	1.225565	-0.581850	0.000051
H67	H	1.198347	-0.637239	-0.027687
H68	H	1.280196	-0.564816	-0.042457
H69	H	1.247860	-0.593404	0.070317
H70	H	0.893916	0.203173	0.416419
H71	H	0.577284	-0.021187	0.000055
O72	O	0.885720	0.211497	0.591049
C73	C	0.897028	0.200093	0.682301
H74	H	0.961060	0.170887	0.694889
H75	H	0.891969	0.259301	0.717329
H76	H	0.847199	0.160869	0.708473
O77	O	0.815300	-0.266464	-0.000131
C78	C	0.771411	-0.240833	-0.075975
H79	H	0.817356	-0.223878	-0.128987
H80	H	0.732548	-0.290224	-0.101440
H81	H	0.728839	-0.187674	-0.058830
O82	O	1.149532	-0.680875	0.000008
C83	C	1.126197	-0.759593	0.000026
H84	H	1.060675	-0.762702	-0.027703
H85	H	1.171369	-0.796548	-0.042495
H86	H	1.127679	-0.783185	0.070288
O87	O	0.853570	-0.643903	-0.000142
C88	C	0.809685	-0.618279	-0.075991
H89	H	0.855632	-0.601319	-0.128999
H90	H	0.770831	-0.667675	-0.101458
H91	H	0.767105	-0.565124	-0.058852
O92	O	0.868067	-0.483091	0.000140
C93	C	0.867788	-0.435376	0.076001
H94	H	0.934069	-0.431272	0.101294
H95	H	0.841157	-0.374076	0.058937
H96	H	0.827914	-0.462196	0.129113
H97	H	0.840958	-0.113615	0.000033
H98	H	1.087705	-0.391465	0.000025
