data_functionalizedCrystal
_audit_creation_method	'MofGen! by Chris Wilmer'
_symmetry_space_group_name_H-M	'P1'
_symmetry_Int_Tables_number	1
_symmetry_cell_setting	triclinic
loop_
_symmetry_equiv_pos_as_xyz
  x,y,z
_cell_length_a	10.654549
_cell_length_b	10.967971
_cell_length_c	9.130313
_cell_angle_alpha	102.125539
_cell_angle_beta	89.997498
_cell_angle_gamma	84.599518
loop_
_atom_site_label
_atom_site_type_symbol
_atom_site_fract_x
_atom_site_fract_y
_atom_site_fract_z
O1	O	1.667810	0.175269	-0.077524
O2	O	1.302329	0.191968	-0.073319
O3	O	1.493503	0.002047	-0.121244
O4	O	1.476636	0.365189	-0.029598
O5	O	1.493490	0.002042	0.122353
O6	O	1.302316	0.191962	0.170279
O7	O	1.667797	0.175263	0.166074
Cu8	Cu	1.485055	0.183612	0.190419
Cu9	Cu	1.485071	0.183619	-0.097663
O10	O	1.476623	0.365184	0.213999
C11	C	1.255525	0.190739	0.048169
C12	C	1.116082	0.187071	0.047240
C13	C	0.905549	0.295437	0.074594
C14	C	1.036569	0.298893	0.075457
C15	C	1.064569	0.071785	0.018142
C16	C	0.933551	0.068330	0.017268
C17	C	1.492270	-0.044454	-0.011183
C18	C	1.488602	-0.183006	-0.046159
C19	C	1.486959	-0.244786	0.064437
C20	C	1.483167	-0.387986	0.028290
C21	C	1.714602	0.176492	0.044583
C22	C	1.854044	0.180160	0.045503
C23	C	1.477856	0.411685	0.103935
C24	C	1.481525	0.550237	0.138902
N25	N	1.485053	0.183607	0.393040
N26	N	1.485083	0.183614	-0.300287
C27	C	1.569734	0.099546	0.448479
C28	C	1.569746	0.099546	0.601816
C29	C	1.400393	0.267680	0.644264
C30	C	1.400376	0.267672	0.490928
H31	H	0.840817	0.386497	0.097583
C32	C	0.876893	-0.058490	-0.014727
N33	N	0.834218	-0.154007	-0.038824
C34	C	1.307250	0.360144	0.751953
N35	N	1.237092	0.429790	0.833063
C36	C	1.093217	0.425707	0.107472
N37	N	1.135884	0.521229	0.131589
H38	H	1.482932	-0.396646	0.260356
H39	H	1.488367	-0.191663	0.185881
H40	H	1.331412	0.336126	0.445787
H41	H	1.487207	-0.236130	-0.167605
C42	C	1.152038	-0.051221	-0.012889
N43	N	1.217919	-0.143872	-0.036252
C44	C	1.662892	0.007062	0.662788
N45	N	1.733049	-0.062606	0.708710
H46	H	1.481772	-0.441106	-0.093164
C47	C	1.662872	0.007062	0.340805
N48	N	1.733022	-0.062604	0.259707
