data_functionalizedCrystal
_audit_creation_method	'MofGen! by Chris Wilmer'
_symmetry_space_group_name_H-M	'P1'
_symmetry_Int_Tables_number	1
_symmetry_cell_setting	triclinic
loop_
_symmetry_equiv_pos_as_xyz
  x,y,z
_cell_length_a	15.944551
_cell_length_b	16.776229
_cell_length_c	17.699083
_cell_angle_alpha	90.007545
_cell_angle_beta	96.609124
_cell_angle_gamma	89.997350
loop_
_atom_site_label
_atom_site_type_symbol
_atom_site_fract_x
_atom_site_fract_y
_atom_site_fract_z
O1	O	1.114322	-0.066207	-0.097616
O2	O	1.447655	0.267127	0.235717
O3	O	1.780989	0.600460	0.569051
O4	O	0.869747	-0.066227	-0.109651
O5	O	1.203080	0.267107	0.223683
O6	O	1.536414	0.600440	0.557016
O7	O	0.998944	-0.066209	0.006544
O8	O	1.332278	0.267124	0.339877
O9	O	1.665611	0.600458	0.673211
O10	O	0.985125	-0.066224	-0.213811
O11	O	1.318458	0.267109	0.119523
O12	O	1.651791	0.600442	0.452856
O13	O	0.998927	0.066367	0.006551
O14	O	1.332260	0.399701	0.339885
O15	O	1.665594	0.733034	0.673218
O16	O	0.869730	0.066350	-0.109643
O17	O	1.203063	0.399683	0.223690
O18	O	1.536396	0.733016	0.557023
O19	O	1.114305	0.066370	-0.097609
O20	O	1.447638	0.399703	0.235725
O21	O	1.780971	0.733036	0.569058
Zn22	Zn	0.992015	0.087409	-0.103625
Zn23	Zn	1.325348	0.420743	0.229708
Zn24	Zn	1.658681	0.754076	0.563042
Zn25	Zn	0.992037	-0.087266	-0.103634
Zn26	Zn	1.325370	0.246067	0.229699
Zn27	Zn	1.658704	0.579401	0.563032
O28	O	0.985107	0.066352	-0.213803
O29	O	1.318441	0.399686	0.119530
O30	O	1.651774	0.733019	0.452863
C31	C	0.838445	0.000059	-0.109147
C32	C	1.171779	0.333392	0.224186
C33	C	1.505112	0.666726	0.557519
C34	C	0.745203	0.000052	-0.107650
C35	C	1.078536	0.333385	0.225684
C36	C	1.411869	0.666718	0.559017
N37	N	0.992005	0.206620	-0.103618
N38	N	1.325339	0.539954	0.229715
N39	N	1.658672	0.873287	0.563049
N40	N	0.992053	-0.206477	-0.103635
N41	N	1.325386	0.126856	0.229698
N42	N	1.658720	0.460189	0.563031
C43	C	0.530505	0.000072	-0.032046
C44	C	0.863838	0.333406	0.301287
C45	C	1.197171	0.666739	0.634620
C46	C	0.469419	-0.065297	-0.067158
C47	C	0.802753	0.268036	0.266176
C48	C	1.136086	0.601369	0.599509
C49	C	0.574482	0.000061	-0.104940
C50	C	0.907816	0.333395	0.228393
C51	C	1.241149	0.666728	0.561727
C52	C	0.469425	0.065413	-0.067168
C53	C	0.802758	0.398746	0.266166
C54	C	1.136091	0.732079	0.599499
C55	C	0.409575	0.000074	-0.102317
C56	C	0.742909	0.333407	0.231016
C57	C	1.076242	0.666741	0.564350
C58	C	0.514625	-0.065362	-0.140071
C59	C	0.847958	0.267971	0.193262
C60	C	1.181292	0.601304	0.526596
C61	C	0.514637	0.065406	-0.140071
C62	C	0.847970	0.398740	0.193262
C63	C	1.181303	0.732073	0.526596
C64	C	0.453569	0.000021	-0.175235
C65	C	0.786902	0.333354	0.158098
C66	C	1.120235	0.666687	0.491432
C67	C	0.669481	0.000053	-0.106449
C68	C	1.002815	0.333387	0.226885
C69	C	1.336148	0.666720	0.560218
C70	C	0.314577	0.000076	-0.100814
C71	C	0.647911	0.333410	0.232519
C72	C	0.981244	0.666743	0.565853
C73	C	1.145606	0.000082	-0.098112
C74	C	1.478940	0.333416	0.235221
C75	C	1.812273	0.666749	0.568555
C76	C	1.238849	0.000084	-0.099610
C77	C	1.572182	0.333418	0.233724
C78	C	1.905516	0.666751	0.567057
C79	C	0.998440	0.000079	0.034746
C80	C	1.331774	0.333413	0.368079
C81	C	1.665107	0.666746	0.701412
C82	C	0.996955	0.000079	0.118766
C83	C	1.330288	0.333413	0.452100
C84	C	1.663622	0.666746	0.785433
C85	C	1.049231	0.248345	-0.052188
C86	C	1.382565	0.581679	0.281145
C87	C	1.715898	0.915012	0.614479
C88	C	1.049236	0.331797	-0.052187
C89	C	1.382569	0.665131	0.281146
C90	C	1.715903	0.998464	0.614479
C91	C	0.992018	0.373523	-0.103621
C92	C	1.325351	0.706857	0.229712
C93	C	1.658685	1.040190	0.563046
C94	C	0.934786	0.331793	-0.155053
C95	C	1.268119	0.665126	0.178280
C96	C	1.601453	0.998459	0.511613
C97	C	0.934778	0.248342	-0.155050
C98	C	1.268111	0.581675	0.178284
C99	C	1.601445	0.915009	0.511617
C100	C	0.934816	0.668340	-0.155068
C101	C	1.268150	1.001673	0.178265
C102	C	1.601483	1.335006	0.511598
C103	C	0.934830	0.751796	-0.155069
C104	C	1.268164	1.085130	0.178264
C105	C	1.601497	1.418463	0.511597
C106	C	1.049274	0.751795	-0.052206
C107	C	1.382608	1.085129	0.281127
C108	C	1.715941	1.418462	0.614461
C109	C	1.049266	0.668345	-0.052202
C110	C	1.382600	1.001678	0.281131
C111	C	1.715933	1.335011	0.614464
C112	C	0.992032	0.626621	-0.103632
C113	C	1.325365	0.959955	0.229702
C114	C	1.658698	1.293288	0.563035
C115	C	0.992026	0.536133	-0.103631
C116	C	1.325360	0.869466	0.229702
C117	C	1.658693	1.202800	0.563036
C118	C	0.992027	0.464010	-0.103626
C119	C	1.325360	0.797343	0.229707
C120	C	1.658693	1.130677	0.563041
C121	C	0.985611	0.000062	-0.242005
C122	C	1.318944	0.333395	0.091328
C123	C	1.652278	0.666729	0.424662
C124	C	0.987097	0.000057	-0.326026
C125	C	1.320430	0.333390	0.007308
C126	C	1.653763	0.666723	0.340641
C127	C	1.072791	0.000087	0.167258
C128	C	1.406124	0.333420	0.500591
C129	C	1.739458	0.666753	0.833924
C130	C	1.071390	0.000080	0.246203
C131	C	1.404723	0.333413	0.579537
C132	C	1.738057	0.666746	0.912870
C133	C	0.994152	0.000071	0.276656
C134	C	1.327486	0.333404	0.609989
C135	C	1.660819	0.666737	0.943323
C136	C	0.918310	0.000061	0.228158
C137	C	1.251644	0.333394	0.561492
C138	C	1.584977	0.666728	0.894825
C139	C	0.919712	0.000063	0.149214
C140	C	1.253045	0.333396	0.482548
C141	C	1.586379	0.666729	0.815881
C142	C	0.912656	0.000054	0.546531
C143	C	1.245989	0.333387	0.879864
C144	C	1.579322	0.666721	1.213198
C145	C	0.911260	0.000055	0.625481
C146	C	1.244593	0.333388	0.958815
C147	C	1.577926	0.666722	1.292148
C148	C	1.064334	0.000071	0.643520
C149	C	1.397667	0.333405	0.976854
C150	C	1.731000	0.666738	1.310187
C151	C	1.065735	0.000073	0.564576
C152	C	1.399069	0.333406	0.897909
C153	C	1.732402	0.666739	1.231243
C154	C	0.989894	0.000059	0.516085
C155	C	1.323227	0.333392	0.849419
C156	C	1.656561	0.666725	1.182752
C157	C	0.991414	0.000065	0.430484
C158	C	1.324747	0.333398	0.763817
C159	C	1.658081	0.666732	1.097150
C160	C	0.992632	0.000070	0.362256
C161	C	1.325965	0.333404	0.695590
C162	C	1.659298	0.666737	1.028923
H163	H	0.563965	-0.000004	0.028449
H164	H	0.897298	0.333329	0.361783
H165	H	1.230632	0.666662	0.695116
H166	H	0.534696	0.120670	-0.170873
H167	H	0.868029	0.454004	0.162460
H168	H	1.201363	0.787337	0.495793
H169	H	1.095861	0.634374	-0.010323
H170	H	1.429194	0.967707	0.323010
H171	H	1.762528	1.301041	0.656344
H172	H	1.126087	0.000078	0.683011
H173	H	1.459421	0.333412	1.016345
H174	H	1.792754	0.666745	1.349678
H175	H	0.888194	0.365771	-0.196929
H176	H	1.221527	0.699104	0.136404
H177	H	1.554860	1.032437	0.469738
H178	H	0.449381	-0.120559	-0.036330
H179	H	0.782714	0.212775	0.297004
H180	H	1.116048	0.546108	0.630337
H181	H	1.135687	0.000099	0.142470
H182	H	1.469020	0.333432	0.475803
H183	H	1.802354	0.666765	0.809136
H184	H	0.420283	-0.000020	-0.235793
H185	H	0.753616	0.333313	0.097540
H186	H	1.086949	0.666647	0.430874
H187	H	0.888234	0.785768	-0.196954
H188	H	1.221567	1.119101	0.136379
H189	H	1.554900	1.452435	0.469712
H190	H	0.848360	0.000049	0.650272
H191	H	1.181693	0.333383	0.983606
H192	H	1.515026	0.666716	1.316939
H193	H	0.850901	0.000043	0.507059
H194	H	1.184234	0.333376	0.840392
H195	H	1.517567	0.666710	1.173726
H196	H	1.133144	0.000087	0.285683
H197	H	1.466477	0.333421	0.619016
H198	H	1.799810	0.666754	0.952349
H199	H	1.128630	0.000084	0.539786
H200	H	1.461964	0.333417	0.873120
H201	H	1.795297	0.666750	1.206453
H202	H	0.888178	0.214370	-0.196928
H203	H	1.221511	0.547704	0.136405
H204	H	1.554844	0.881037	0.469738
H205	H	0.449396	0.120676	-0.036320
H206	H	0.782730	0.454009	0.297013
H207	H	1.116063	0.787342	0.630346
H208	H	0.855422	0.000049	0.252959
H209	H	1.188755	0.333382	0.586292
H210	H	1.522089	0.666716	0.919626
H211	H	0.534555	-0.120688	-0.170882
H212	H	0.867888	0.212646	0.162452
H213	H	1.201222	0.545979	0.495785
H214	H	1.095833	0.365770	-0.010309
H215	H	1.429166	0.699103	0.323024
H216	H	1.762500	1.032436	0.656358
H217	H	1.095828	0.214378	-0.010308
H218	H	1.429161	0.547711	0.323025
H219	H	1.762495	0.881044	0.656358
H220	H	0.888215	0.634375	-0.196945
H221	H	1.221549	0.967708	0.136388
H222	H	1.554882	1.301042	0.469722
H223	H	1.095875	0.785775	-0.010327
H224	H	1.429209	1.119109	0.323006
H225	H	1.762542	1.452442	0.656340
H226	H	0.857958	0.000056	0.109733
H227	H	1.191292	0.333390	0.443066
H228	H	1.524625	0.666723	0.776399
