data_functionalizedCrystal
_audit_creation_method	'MofGen! by Chris Wilmer'
_symmetry_space_group_name_H-M	'P1'
_symmetry_Int_Tables_number	1
_symmetry_cell_setting	triclinic
loop_
_symmetry_equiv_pos_as_xyz
  x,y,z
_cell_length_a	16.992694
_cell_length_b	16.992695
_cell_length_c	15.455313
_cell_angle_alpha	92.847427
_cell_angle_beta	87.142206
_cell_angle_gamma	90.668223
loop_
_atom_site_label
_atom_site_type_symbol
_atom_site_fract_x
_atom_site_fract_y
_atom_site_fract_z
O1	O	1.054080	0.163694	-0.072023
O2	O	1.387414	0.497028	0.261311
O3	O	1.720747	0.830361	0.594644
O4	O	0.825681	0.161862	-0.072048
O5	O	1.159015	0.495195	0.261285
O6	O	1.492348	0.828529	0.594619
O7	O	0.938965	0.048579	-0.072029
O8	O	1.272298	0.381912	0.261305
O9	O	1.605632	0.715245	0.594638
O10	O	0.940797	0.276978	-0.072042
O11	O	1.274130	0.610311	0.261291
O12	O	1.607463	0.943645	0.594625
O13	O	0.932485	0.055028	0.072232
O14	O	1.265818	0.388361	0.405566
O15	O	1.599152	0.721695	0.738899
O16	O	0.819202	0.168312	0.072213
O17	O	1.152535	0.501645	0.405546
O18	O	1.485868	0.834978	0.738880
O19	O	1.047601	0.170144	0.072238
O20	O	1.380934	0.503477	0.405572
O21	O	1.714267	0.836811	0.738905
Cu22	Cu	0.932809	0.169817	0.085398
Cu23	Cu	1.266143	0.503150	0.418731
Cu24	Cu	1.599476	0.836483	0.752065
Cu25	Cu	0.940473	0.162189	-0.085207
Cu26	Cu	1.273806	0.495523	0.248126
Cu27	Cu	1.607139	0.828856	0.581459
O28	O	0.934317	0.283428	0.072219
O29	O	1.267650	0.616761	0.405552
O30	O	1.600984	0.950094	0.738886
C31	C	0.793081	0.162731	0.000079
C32	C	1.126415	0.496064	0.333413
C33	C	1.459748	0.829398	0.666746
C34	C	0.705597	0.155702	0.000070
C35	C	1.038931	0.489035	0.333403
C36	C	1.372264	0.822368	0.666736
C37	C	0.659607	0.223520	0.000066
C38	C	0.992940	0.556853	0.333400
C39	C	1.326273	0.890186	0.666733
C40	C	0.577405	0.216911	0.000079
C41	C	0.910739	0.550245	0.333412
C42	C	1.244072	0.883578	0.666745
C43	C	0.541197	0.142484	0.000088
C44	C	0.874530	0.475817	0.333421
C45	C	1.207863	0.809151	0.666755
C46	C	0.587193	0.074661	0.000094
C47	C	0.920527	0.407995	0.333427
C48	C	1.253860	0.741328	0.666761
C49	C	0.669393	0.081271	0.000088
C50	C	1.002726	0.414604	0.333421
C51	C	1.336059	0.747937	0.666755
C52	C	0.295881	0.115091	0.000113
C53	C	0.629214	0.448424	0.333446
C54	C	0.962548	0.781757	0.666780
C55	C	0.213676	0.108486	0.000116
C56	C	0.547009	0.441819	0.333450
C57	C	0.880342	0.775153	0.666783
C58	C	0.203893	0.250737	0.000103
C59	C	0.537227	0.584070	0.333436
C60	C	0.870560	0.917404	0.666769
C61	C	0.286095	0.257340	0.000091
C62	C	0.619428	0.590673	0.333425
C63	C	0.952762	0.924006	0.666758
C64	C	0.332084	0.189517	0.000102
C65	C	0.665418	0.522850	0.333435
C66	C	0.998751	0.856184	0.666768
N67	N	0.457174	0.135727	0.000098
N68	N	0.790507	0.469061	0.333431
N69	N	1.123841	0.802394	0.666765
N70	N	0.416105	0.196275	0.000098
N71	N	0.749438	0.529608	0.333431
N72	N	1.082772	0.862941	0.666765
C73	C	0.933369	0.022443	0.000102
C74	C	1.266703	0.355776	0.333435
C75	C	1.600036	0.689110	0.666768
C76	C	0.926341	-0.065041	0.000101
C77	C	1.259674	0.268292	0.333434
C78	C	1.593007	0.601625	0.666767
C79	C	0.994158	-0.111032	0.000109
C80	C	1.327492	0.222301	0.333442
C81	C	1.660825	0.555635	0.666776
C82	C	0.987550	-0.193233	0.000100
C83	C	1.320883	0.140100	0.333433
C84	C	1.654216	0.473434	0.666767
C85	C	0.913123	-0.229442	0.000089
C86	C	1.246456	0.103891	0.333422
C87	C	1.579789	0.437225	0.666756
C88	C	0.845300	-0.183445	0.000078
C89	C	1.178633	0.149888	0.333411
C90	C	1.511967	0.483221	0.666744
C91	C	0.851910	-0.101246	0.000081
C92	C	1.185243	0.232087	0.333414
C93	C	1.518576	0.565421	0.666747
C94	C	0.885729	-0.474757	0.000074
C95	C	1.219062	-0.141424	0.333407
C96	C	1.552395	0.191910	0.666741
C97	C	0.879124	-0.556962	0.000074
C98	C	1.212457	-0.223629	0.333407
C99	C	1.545791	0.109704	0.666740
C100	C	1.021375	-0.566744	0.000094
C101	C	1.354708	-0.233411	0.333428
C102	C	1.688041	0.099922	0.666761
C103	C	1.027977	-0.484543	0.000102
C104	C	1.361311	-0.151209	0.333436
C105	C	1.694644	0.182124	0.666769
C106	C	0.960155	-0.438554	0.000087
C107	C	1.293488	-0.105220	0.333420
C108	C	1.626822	0.228113	0.666753
N109	N	0.906366	-0.313464	0.000082
N110	N	1.239699	0.019869	0.333416
N111	N	1.573032	0.353202	0.666749
N112	N	0.966913	-0.354533	0.000087
N113	N	1.300246	-0.021200	0.333420
N114	N	1.633580	0.312134	0.666754
C115	C	1.080201	0.169275	0.000109
C116	C	1.413534	0.502608	0.333443
C117	C	1.746867	0.835942	0.666776
C118	C	1.167685	0.176304	0.000113
C119	C	1.501018	0.509637	0.333446
C120	C	1.834352	0.842971	0.666780
C121	C	0.939913	0.309563	0.000087
C122	C	1.273246	0.642896	0.333420
C123	C	1.606579	0.976230	0.666754
C124	C	0.946942	0.397047	0.000082
C125	C	1.280275	0.730381	0.333416
C126	C	1.613608	1.063714	0.666749
N127	N	0.927425	0.175181	0.205392
N128	N	1.260759	0.508515	0.538726
N129	N	1.594092	0.841848	0.872059
N130	N	0.945863	0.156819	-0.205202
N131	N	1.279196	0.490152	0.128131
N132	N	1.612529	0.823486	0.461465
C133	C	0.975571	0.127074	0.250795
C134	C	1.308904	0.460408	0.584128
C135	C	1.642238	0.793741	0.917462
C136	C	0.971507	0.131139	0.341602
C137	C	1.304840	0.464473	0.674935
C138	C	1.638174	0.797806	1.008269
C139	C	0.919301	0.183315	0.387005
C140	C	1.252634	0.516649	0.720339
C141	C	1.585967	0.849982	1.053672
C142	C	0.871149	0.231424	0.341596
C143	C	1.204483	0.564757	0.674930
C144	C	1.537816	0.898091	1.008263
C145	C	0.875210	0.227355	0.250791
C146	C	1.208543	0.560688	0.584124
C147	C	1.541877	0.894021	0.917458
C148	C	0.901772	0.200858	0.658584
C149	C	1.235105	0.534192	0.991917
C150	C	1.568439	0.867525	1.325250
C151	C	0.897717	0.204926	0.749395
C152	C	1.231050	0.538259	1.082729
C153	C	1.564383	0.871592	1.416062
C154	C	0.998074	0.104639	0.749395
C155	C	1.331407	0.437973	1.082728
C156	C	1.664740	0.771306	1.416062
C157	C	1.002133	0.100578	0.658588
C158	C	1.335466	0.433911	0.991921
C159	C	1.668800	0.767245	1.325254
C160	C	0.953979	0.148684	0.613187
C161	C	1.287312	0.482017	0.946520
C162	C	1.620646	0.815351	1.279853
N163	N	0.915147	0.187473	0.479825
N164	N	1.248480	0.520806	0.813158
N165	N	1.581814	0.854140	1.146491
N166	N	0.958129	0.144522	0.520369
N167	N	1.291463	0.477855	0.853702
N168	N	1.624796	0.811188	1.187036
H169	H	0.333316	0.059864	0.000122
H170	H	0.666649	0.393198	0.333456
H171	H	0.999983	0.726531	0.666789
H172	H	0.706838	0.026046	0.000090
H173	H	1.040171	0.359379	0.333423
H174	H	1.373505	0.692713	0.666757
H175	H	1.010711	0.091966	0.378568
H176	H	1.344044	0.425300	0.711902
H177	H	1.677377	0.758633	1.045235
F178	F	0.548655	-0.004550	0.000110
F179	F	0.881988	0.328783	0.333443
F180	F	1.215322	0.662117	0.666776
H181	H	0.830503	-0.437322	0.000061
H182	H	1.163836	-0.103989	0.333395
H183	H	1.497169	0.229344	0.666728
H184	H	0.796685	-0.063801	0.000073
H185	H	1.130018	0.269532	0.333407
H186	H	1.463352	0.602865	0.666740
F187	F	0.324625	0.336555	0.000077
F188	F	0.657958	0.669888	0.333410
F189	F	0.991292	1.003222	0.666743
F190	F	0.766089	-0.221984	0.000056
F191	F	1.099422	0.111349	0.333389
F192	F	1.432756	0.444683	0.666723
F193	F	0.698135	0.302736	0.000050
F194	F	1.031469	0.636069	0.333384
F195	F	1.364802	0.969402	0.666717
H196	H	1.044644	0.058092	0.621622
H197	H	1.377977	0.391426	0.954956
H198	H	1.711310	0.724759	1.288289
F199	F	1.107194	-0.446014	0.000092
F200	F	1.440527	-0.112681	0.333426
F201	F	1.773860	0.220653	0.666759
H202	H	1.037278	0.065473	0.786369
H203	H	1.370611	0.398806	1.119702
H204	H	1.703944	0.732140	1.453035
F205	F	1.031141	0.071545	0.202482
F206	F	1.364474	0.404878	0.535815
F207	F	1.697808	0.738212	0.869149
F208	F	0.154943	0.322913	0.000093
F209	F	0.488276	0.656247	0.333427
F210	F	0.821609	0.989580	0.666760
H211	H	1.054764	-0.081557	0.000124
H212	H	1.388098	0.251776	0.333457
H213	H	1.721431	0.585110	0.666790
F214	F	0.815582	0.286951	0.389918
F215	F	1.148916	0.620284	0.723252
F216	F	1.482249	0.953617	1.056585
H217	H	0.862564	0.240030	0.621625
H218	H	1.195898	0.573363	0.954959
H219	H	1.529231	0.906696	1.288292
F220	F	0.799905	-0.595496	0.000066
F221	F	1.133238	-0.262163	0.333399
F222	F	1.466571	0.071171	0.666733
F223	F	0.823964	0.278555	0.202472
F224	F	1.157297	0.611888	0.535805
F225	F	1.490630	0.945221	0.869138
H226	H	0.539963	0.272136	0.000075
H227	H	0.873296	0.605469	0.333408
H228	H	1.206630	0.938803	0.666742
F229	F	0.175141	0.029268	0.000142
F230	F	0.508474	0.362601	0.333475
F231	F	0.841808	0.695934	0.666808
F232	F	0.842149	0.260464	0.797711
F233	F	1.175482	0.593797	1.131045
F234	F	1.508815	0.927130	1.464378
H235	H	1.076591	-0.604197	0.000106
H236	H	1.409925	-0.270864	0.333439
H237	H	1.743258	0.062469	0.666772
F238	F	1.059731	-0.242176	0.000111
F239	F	1.393064	0.091157	0.333444
F240	F	1.726398	0.424490	0.666777
