data_functionalizedCrystal
_audit_creation_method	'MofGen! by Chris Wilmer'
_symmetry_space_group_name_H-M	'P1'
_symmetry_Int_Tables_number	1
_symmetry_cell_setting	triclinic
loop_
_symmetry_equiv_pos_as_xyz
  x,y,z
_cell_length_a	6.394989
_cell_length_b	10.654550
_cell_length_c	9.130313
_cell_angle_alpha	90.000276
_cell_angle_beta	90.001550
_cell_angle_gamma	85.491321
loop_
_atom_site_label
_atom_site_type_symbol
_atom_site_fract_x
_atom_site_fract_y
_atom_site_fract_z
O1	O	-0.293442	-1.670947	-0.121679
O2	O	-0.321399	-1.305765	-0.121705
O3	O	-0.003431	-1.493540	-0.121693
O4	O	-0.611409	-1.483173	-0.121692
O5	O	-0.003422	-1.493526	0.121906
O6	O	-0.321389	-1.305752	0.121893
O7	O	-0.293432	-1.670934	0.121919
Cu8	Cu	-0.307410	-1.488342	0.144149
Cu9	Cu	-0.307421	-1.488357	-0.143935
O10	O	-0.611400	-1.483159	0.121907
C11	C	-0.319341	-1.258939	0.000091
C12	C	-0.313200	-1.119430	0.000080
C13	C	-0.295490	-1.717760	0.000120
C14	C	-0.301631	-1.857269	0.000121
N15	N	-0.307401	-1.488340	0.346772
C16	C	0.074425	-1.491483	0.000101
C17	C	0.310750	-1.485219	0.000099
N18	N	-0.307414	-1.488369	-0.346558
C19	C	-0.500414	-1.041927	0.000085
C20	C	-0.494631	-0.910845	0.000110
C21	C	-0.114403	-0.934782	0.000121
C22	C	-0.120188	-1.065861	0.000106
C23	C	-0.166665	-1.571516	0.423429
C24	C	-0.166665	-1.571528	0.576766
C25	C	-0.448157	-1.405184	0.576774
C26	C	-0.448145	-1.405167	0.423440
H27	H	-0.657577	-1.085539	0.000075
O28	O	-0.696563	-0.827258	0.000121
H29	H	-0.660125	-0.727109	0.000155
H30	H	0.042741	-0.891149	0.000150
O31	O	-0.599923	-1.315440	0.340741
H32	H	-0.702267	-1.369901	0.270846
O33	O	0.081745	-1.149468	0.000111
H34	H	0.174023	-1.130058	-0.099174
H35	H	-0.052063	-1.639256	0.639176
O36	O	-0.014848	-1.661204	0.340728
H37	H	0.083029	-1.719033	0.419801
O38	O	-0.599980	-1.315492	0.659465
H39	H	-0.576366	-1.329487	0.778967
