data_functionalizedCrystal
_audit_creation_method	'MofGen! by Chris Wilmer'
_symmetry_space_group_name_H-M	'P1'
_symmetry_Int_Tables_number	1
_symmetry_cell_setting	triclinic
loop_
_symmetry_equiv_pos_as_xyz
  x,y,z
_cell_length_a	12.827893
_cell_length_b	12.759393
_cell_length_c	12.827885
_cell_angle_alpha	90.027504
_cell_angle_beta	89.980728
_cell_angle_gamma	89.985203
loop_
_atom_site_label
_atom_site_type_symbol
_atom_site_fract_x
_atom_site_fract_y
_atom_site_fract_z
Zn1	Zn	1.597674	0.418216	-0.590865
Zn2	Zn	1.597570	0.593932	-0.416132
Zn3	Zn	1.422915	0.418268	-0.416139
Zn4	Zn	1.422902	0.593854	-0.590832
O5	O	1.510265	0.506068	-0.503492
O6	O	1.743896	0.441537	-0.567698
O7	O	1.574363	0.570684	-0.269897
O8	O	1.446146	0.271240	-0.439333
O9	O	1.743819	0.570634	-0.439322
O10	O	1.574541	0.271202	-0.567704
O11	O	1.446045	0.441624	-0.269902
O12	O	1.276677	0.441548	-0.439301
O13	O	1.446124	0.570501	-0.737073
O14	O	1.276668	0.570551	-0.567648
O15	O	1.574528	0.441461	-0.737097
O16	O	1.574350	0.740943	-0.439290
O17	O	1.446023	0.740885	-0.567642
C18	C	1.238755	0.506047	-0.503472
C19	C	1.122602	0.506064	-0.503489
C20	C	1.070840	0.569998	-0.566901
C21	C	0.950790	0.570017	-0.566919
C22	C	1.510202	0.779035	-0.503485
C23	C	1.510271	0.895812	-0.503516
C24	C	1.643999	0.895818	-0.369964
C25	C	1.710890	0.950682	-0.303204
C26	C	1.710951	1.060404	-0.303239
C27	C	1.644116	1.115264	-0.370045
C28	C	1.577225	1.060400	-0.436805
C29	C	1.577169	0.950676	-0.436760
C30	C	1.443505	1.060393	-0.570361
C31	C	1.443436	0.950672	-0.570321
C32	C	1.376670	1.115253	-0.637166
C33	C	1.309772	1.060389	-0.703922
C34	C	1.309713	0.950661	-0.703883
C35	C	1.376545	0.895808	-0.637082
C36	C	1.782835	0.506089	-0.503513
C37	C	1.898988	0.506098	-0.503522
C38	C	1.510336	0.505967	-0.776063
C39	C	1.510367	0.505924	-0.892216
C40	C	1.510357	1.232034	-0.503539
C41	C	1.510396	1.115257	-0.503600
C42	C	1.573912	0.442058	-0.944012
C43	C	1.573945	0.442012	-1.064063
C44	C	1.510254	0.506092	-0.231982
C45	C	1.510427	0.505839	-0.115830
H46	H	0.943496	0.451362	-0.449226
Br47	Br	1.145101	0.661215	-0.657367
H48	H	1.765308	0.906006	-0.248814
H49	H	1.765425	1.105074	-0.248883
Br50	Br	1.048341	0.414841	-0.413028
Br51	Br	0.876604	0.661263	-0.657402
Br52	Br	1.644244	0.746910	-0.370235
Br53	Br	1.643712	1.264171	-0.369602
H54	H	1.376729	1.204595	-0.637194
H55	H	1.455981	0.560560	-0.936748
H56	H	1.255365	1.105065	-0.758314
Br57	Br	1.419751	0.596990	-1.041601
Br58	Br	1.218935	0.876212	-0.794501
Br59	Br	1.376805	0.746899	-0.637359
H60	H	1.628287	0.387411	-0.899481
H61	H	1.628351	0.387338	-1.108607
