data_functionalizedCrystal
_audit_creation_method	'MofGen! by Chris Wilmer'
_symmetry_space_group_name_H-M	'P1'
_symmetry_Int_Tables_number	1
_symmetry_cell_setting	triclinic
loop_
_symmetry_equiv_pos_as_xyz
  x,y,z
_cell_length_a	10.654550
_cell_length_b	19.188930
_cell_length_c	9.130313
_cell_angle_alpha	89.990369
_cell_angle_beta	89.999724
_cell_angle_gamma	83.814856
loop_
_atom_site_label
_atom_site_type_symbol
_atom_site_fract_x
_atom_site_fract_y
_atom_site_fract_z
O1	O	1.665764	0.098062	-0.121709
O2	O	1.300088	0.107405	-0.121737
O3	O	1.493479	0.001147	-0.121693
O4	O	1.472374	0.204320	-0.121752
O5	O	1.493466	0.001143	0.121905
O6	O	1.300075	0.107401	0.121862
O7	O	1.665751	0.098059	0.121890
Cu8	Cu	1.482912	0.102730	0.144118
Cu9	Cu	1.482928	0.102734	-0.143965
O10	O	1.472361	0.204317	0.121847
C11	C	1.253298	0.106717	0.000059
C12	C	1.113898	0.104665	0.000049
C13	C	1.033089	0.167228	0.000035
C14	C	0.902109	0.165295	0.000061
C15	C	0.932761	0.038231	0.000109
C16	C	1.063738	0.040164	0.000094
C17	C	1.492789	-0.024870	0.000110
C18	C	1.490737	-0.102388	0.000123
C19	C	1.604213	-0.146570	0.000138
C20	C	1.602285	-0.219407	0.000115
C21	C	1.486876	-0.248058	0.000105
C22	C	1.373386	-0.203866	0.000081
C23	C	1.375316	-0.131032	0.000090
N24	N	1.398655	-0.356641	0.082999
N25	N	1.396828	-0.425831	0.082994
C26	C	1.481052	-0.467505	0.000075
N27	N	1.567190	-0.437375	-0.082821
N28	N	1.569020	-0.368178	-0.082809
C29	C	1.484770	-0.327034	0.000094
C30	C	1.592445	-0.590665	0.000063
C31	C	1.590513	-0.663502	0.000030
C32	C	1.361610	-0.647960	0.000011
C33	C	1.363545	-0.575124	0.000029
C34	C	1.478966	-0.546481	0.000062
C35	C	1.712541	0.098746	0.000091
C36	C	1.851941	0.100799	0.000091
C37	C	1.473051	0.230334	0.000040
C38	C	1.475102	0.307852	0.000018
N39	N	1.482910	0.102727	0.346741
N40	N	1.482939	0.102731	-0.346588
C41	C	1.568572	0.055696	0.423412
C42	C	1.568584	0.055696	0.576749
C43	C	1.397268	0.149764	0.576730
C44	C	1.397251	0.149760	0.423396
H45	H	1.698197	-0.123254	0.000160
H46	H	0.836318	0.216240	0.000053
O47	O	1.142067	-0.020679	0.000040
C48	C	1.069712	-0.078023	0.000107
H49	H	0.971850	-0.060780	-0.046010
H50	H	1.118275	-0.121897	-0.070602
H51	H	1.060504	-0.097762	0.116983
H52	H	0.891904	-0.014283	0.000154
O53	O	1.249467	-0.675749	-0.000260
C54	C	1.180310	-0.653194	-0.126407
H55	H	1.247812	-0.637708	-0.214577
H56	H	1.127127	-0.697562	-0.168770
H57	H	1.110070	-0.606074	-0.097883
O58	O	1.651572	0.009947	0.348820
C59	C	1.584508	-0.033485	0.260233
H60	H	1.486115	-0.006160	0.237229
H61	H	1.636970	-0.044308	0.152419
H62	H	1.576208	-0.085107	0.319413
H63	H	1.327489	0.188059	0.360966
H64	H	1.271141	-0.539150	0.000024
O65	O	1.712636	-0.262235	0.000200
C66	C	1.814921	-0.221335	0.000188
H67	H	1.782745	-0.167141	0.046302
H68	H	1.894394	-0.247822	0.070926
H69	H	1.850334	-0.215969	-0.116671
O70	O	1.082025	0.229821	-0.000063
C71	C	1.214958	0.218115	-0.000042
H72	H	1.246016	0.163780	-0.046144
H73	H	1.254940	0.259424	-0.070787
H74	H	1.251412	0.221676	0.116818
O75	O	1.651920	0.009986	0.651000
C76	C	1.727492	-0.031538	0.550456
H77	H	1.728737	-0.002905	0.441142
H78	H	1.827839	-0.041668	0.594748
H79	H	1.687013	-0.083616	0.534174
O80	O	1.261356	-0.231778	-0.000122
C81	C	1.253388	-0.273418	-0.126305
H82	H	1.352469	-0.291071	-0.168355
H83	H	1.203591	-0.321351	-0.097939
H84	H	1.197660	-0.241507	-0.214654
O85	O	1.265197	-0.088009	0.000017
C86	C	1.291650	-0.017581	0.000074
H87	H	1.390276	-0.014306	-0.046030
H88	H	1.219299	0.015072	-0.070652
H89	H	1.286765	0.003441	0.116945
O90	O	1.704669	-0.562950	0.000004
C91	C	1.804416	-0.617570	0.000029
H92	H	1.769486	-0.667206	-0.046095
H93	H	1.885014	-0.601951	-0.070696
H94	H	1.839406	-0.627718	0.116892
H95	H	1.682922	-0.699475	0.000035
O96	O	1.314021	0.195357	0.651361
C97	C	1.236754	0.157567	0.740063
H98	H	1.287078	0.103192	0.763050
H99	H	1.216742	0.186608	0.847878
H100	H	1.143966	0.152342	0.680992
