data_functionalizedCrystal
_audit_creation_method	'MofGen! by Chris Wilmer'
_symmetry_space_group_name_H-M	'P1'
_symmetry_Int_Tables_number	1
_symmetry_cell_setting	triclinic
loop_
_symmetry_equiv_pos_as_xyz
  x,y,z
_cell_length_a	16.120297
_cell_length_b	12.759401
_cell_length_c	12.759400
_cell_angle_alpha	90.014845
_cell_angle_beta	87.124600
_cell_angle_gamma	87.118559
loop_
_atom_site_label
_atom_site_type_symbol
_atom_site_fract_x
_atom_site_fract_y
_atom_site_fract_z
Zn1	Zn	-0.471333	-1.576121	0.448407
Zn2	Zn	0.028667	-1.076121	0.948407
Zn3	Zn	-0.331928	-1.584928	0.615191
Zn4	Zn	0.168072	-1.084928	1.115191
Zn5	Zn	-0.331944	-1.409335	0.439529
Zn6	Zn	0.168056	-0.909335	0.939529
Zn7	Zn	-0.471303	-1.400414	0.624043
Zn8	Zn	0.028697	-0.900414	1.124043
O9	O	-0.401627	-1.492700	0.531792
O10	O	0.098373	-0.992700	1.031792
O11	O	-0.452847	-1.724310	0.470542
O12	O	0.047153	-1.224310	0.970542
O13	O	-0.215267	-1.569055	0.584470
O14	O	0.284733	-1.069055	1.084470
O15	O	-0.350453	-1.431507	0.293687
O16	O	0.149547	-0.931507	0.793687
O17	O	-0.350427	-1.730781	0.593078
O18	O	0.149573	-1.230781	1.093078
O19	O	-0.452862	-1.554044	0.300209
O20	O	0.047138	-1.054044	0.800209
O21	O	-0.215278	-1.440047	0.455411
O22	O	0.284722	-0.940047	0.955411
O23	O	-0.350424	-1.261131	0.463994
O24	O	0.149576	-0.761131	0.963994
O25	O	-0.587970	-1.416303	0.608164
O26	O	-0.087970	-0.916303	1.108164
O27	O	-0.452810	-1.254577	0.599555
O28	O	0.047190	-0.754577	1.099555
O29	O	-0.587992	-1.545394	0.479125
O30	O	-0.087992	-1.045394	0.979125
O31	O	-0.350398	-1.560404	0.763385
O32	O	0.149602	-1.060404	1.263385
O33	O	-0.452795	-1.424842	0.769889
O34	O	0.047205	-0.924842	1.269889
C35	C	-0.401616	-1.219733	0.531772
C36	C	0.098384	-0.719733	1.031772
C37	C	-0.401631	-1.102955	0.531790
C38	C	0.098369	-0.602955	1.031790
C39	C	-0.619077	-1.478871	0.545622
C40	C	-0.119077	-0.978871	1.045622
C41	C	-0.711741	-1.472978	0.551516
C42	C	-0.211741	-0.972978	1.051516
C43	C	-0.401610	-1.492638	0.804759
C44	C	0.098390	-0.992638	1.304759
C45	C	-0.401630	-1.492707	0.921537
C46	C	0.098370	-0.992707	1.421537
C47	C	-0.881399	-1.462180	0.562253
C48	C	-0.381399	-0.962180	1.062253
C49	C	-0.922707	-1.523426	0.501017
C50	C	-0.422707	-1.023426	1.001017
C51	C	-1.017110	-1.517418	0.506991
C52	C	-0.517110	-1.017418	1.006991
C53	C	-0.786987	-1.468186	0.556280
C54	C	-0.286987	-0.968186	1.056280
C55	C	-0.185023	-1.506535	0.517940
C56	C	0.314977	-1.006535	1.017940
C57	C	-0.092360	-1.512632	0.511751
C58	C	0.407640	-1.012632	1.011751
C59	C	-0.401639	-1.766732	0.531813
C60	C	0.098361	-1.266732	1.031813
C61	C	-0.401644	-1.883508	0.531822
C62	C	0.098356	-1.383508	1.031822
C63	C	-0.454855	-1.044714	0.602479
C64	C	0.045145	-0.544714	1.102479
C65	C	-0.454864	-0.934989	0.602493
C66	C	0.045136	-0.434989	1.102493
C67	C	-0.348417	-0.941758	0.461126
C68	C	0.151583	-0.441758	0.961126
C69	C	-0.348413	-1.051480	0.461108
C70	C	0.151587	-0.551480	0.961108
C71	C	-0.516309	-1.040805	0.684100
C72	C	-0.016309	-0.540805	1.184100
C73	C	-0.516318	-0.931080	0.684114
C74	C	-0.016318	-0.431080	1.184114
C75	C	-0.401663	-1.492789	0.257761
C76	C	0.098337	-0.992789	0.757761
C77	C	-0.401678	-1.492826	0.140986
C78	C	0.098322	-0.992826	0.640986
C79	C	-0.348371	-1.563364	0.972981
C80	C	0.151629	-1.063364	1.472981
C81	C	-0.348396	-1.563427	1.082707
C82	C	0.151604	-1.063427	1.582707
C83	C	-0.454943	-1.422165	1.089534
C84	C	0.045057	-0.922165	1.589534
C85	C	-0.454921	-1.422108	0.979810
C86	C	0.045079	-0.922108	1.479810
C87	C	-0.286854	-1.644918	0.969041
C88	C	0.213146	-1.144918	1.469041
C89	C	-0.286880	-1.644981	1.078766
C90	C	0.213120	-1.144981	1.578766
H91	H	-0.887172	-1.580372	0.444105
H92	H	-0.387172	-1.080372	0.944105
Cl93	Cl	-0.936259	-1.374268	0.650120
Cl94	Cl	-0.436259	-0.874268	1.150120
H95	H	-0.304193	-1.725153	0.940294
H96	H	0.195807	-1.225153	1.440294
H97	H	-0.305078	-1.098896	0.403539
H98	H	0.194922	-0.598896	0.903539
Cl99	Cl	-0.521892	-1.333293	0.915141
Cl100	Cl	-0.021892	-0.833293	1.415141
Cl101	Cl	-0.281519	-0.877039	0.372272
Cl102	Cl	0.218481	-0.377039	0.872272
Cl103	Cl	-0.192129	-1.605984	0.910549
Cl104	Cl	0.307871	-1.105984	1.410549
H105	H	-0.222303	-1.627372	1.104490
H106	H	0.277697	-1.127372	1.604490
H107	H	-0.498914	-0.902397	0.764348
H108	H	0.001086	-0.402397	1.264348
H109	H	-0.580906	-1.066483	0.666540
H110	H	-0.080906	-0.566483	1.166540
H111	H	-0.498332	-1.364687	1.136993
H112	H	0.001668	-0.864687	1.636993
H113	H	-0.577698	-0.893158	0.659003
H114	H	-0.077698	-0.393158	1.159003
Cl115	Cl	-0.322681	-1.762031	1.133478
Cl116	Cl	0.177319	-1.262031	1.633478
Cl117	Cl	-0.480512	-1.095618	0.801112
Cl118	Cl	0.019488	-0.595618	1.301112
