data_functionalizedCrystal
_audit_creation_method	'MofGen! by Chris Wilmer'
_symmetry_space_group_name_H-M	'P1'
_symmetry_Int_Tables_number	1
_symmetry_cell_setting	triclinic
loop_
_symmetry_equiv_pos_as_xyz
  x,y,z
_cell_length_a	25.639242
_cell_length_b	21.395361
_cell_length_c	25.639243
_cell_angle_alpha	89.983775
_cell_angle_beta	90.019739
_cell_angle_gamma	89.973766
loop_
_atom_site_label
_atom_site_type_symbol
_atom_site_fract_x
_atom_site_fract_y
_atom_site_fract_z
Zn1	Zn	0.799242	0.249619	0.295734
Zn2	Zn	0.799181	0.354369	0.208295
Zn3	Zn	0.711822	0.249601	0.208298
Zn4	Zn	0.711775	0.354354	0.295685
O5	O	0.755505	0.301986	0.252003
O6	O	0.872399	0.263527	0.284154
O7	O	0.787587	0.340470	0.135130
O8	O	0.723463	0.161925	0.219919
O9	O	0.872354	0.340487	0.219913
O10	O	0.787690	0.161938	0.284157
O11	O	0.723404	0.263497	0.135133
O12	O	0.638650	0.263483	0.219871
O13	O	0.723384	0.340462	0.368857
O14	O	0.638616	0.340445	0.284074
O15	O	0.787645	0.263513	0.368893
O16	O	0.787541	0.442045	0.219866
O17	O	0.723325	0.442034	0.284071
C18	C	0.619662	0.301961	0.251968
C19	C	0.561548	0.301965	0.251965
C20	C	0.755436	0.464773	0.251974
C21	C	0.755454	0.534414	0.251979
C22	C	0.755516	0.301988	0.388376
C23	C	0.755521	0.301989	0.446490
C24	C	0.201176	0.342127	0.285402
C25	C	0.146572	0.342130	0.285410
O26	O	0.118328	0.376246	0.313809
N27	N	0.119266	0.302003	0.252037
C28	C	0.146567	0.261864	0.218658
O29	O	0.118327	0.227733	0.190273
C30	C	0.201170	0.261858	0.218653
C31	C	0.228473	0.301992	0.252024
C32	C	0.228480	0.382257	0.318771
C33	C	0.283080	0.382254	0.318762
C34	C	0.310377	0.342120	0.285384
C35	C	0.283074	0.301989	0.252015
C36	C	0.228470	0.221717	0.185276
C37	C	0.283077	0.221713	0.185274
C38	C	0.310380	0.261848	0.218645
C39	C	0.364971	0.261852	0.218628
N40	N	0.392278	0.301980	0.252001
C41	C	0.364981	0.342114	0.285379
C42	C	0.031896	0.261880	0.218672
C43	C	-0.022706	0.261890	0.218674
C44	C	-0.022697	0.342155	0.285427
C45	C	0.031906	0.342148	0.285422
C46	C	0.059202	0.302008	0.252045
C47	C	0.479646	0.342104	0.285357
C48	C	0.534251	0.342099	0.285343
C49	C	0.534237	0.261832	0.218592
C50	C	0.479637	0.261839	0.218604
C51	C	0.452342	0.301977	0.251990
O52	O	0.393250	0.227752	0.190245
O53	O	0.393227	0.376234	0.313764
C54	C	0.891878	0.302011	0.252039
C55	C	0.949992	0.302022	0.252054
C56	C	0.755588	0.138562	0.252044
C57	C	0.755624	0.068921	0.252061
C58	C	0.788921	0.567112	0.218582
C59	C	0.788946	0.632548	0.218594
C60	C	0.755493	0.665283	0.251997
C61	C	0.722024	0.632577	0.285401
C62	C	0.722004	0.567143	0.285392
C63	C	0.708416	0.768994	0.256087
C64	C	0.708434	0.834427	0.256092
C65	C	0.755554	0.867103	0.252028
C66	C	0.802657	0.834339	0.247947
C67	C	0.802637	0.768905	0.247938
C68	C	0.755511	0.736235	0.252011
C69	C	0.789051	0.970754	0.218641
C70	C	0.789076	1.036191	0.218657
C71	C	0.722149	1.036218	0.285461
C72	C	0.722129	0.970783	0.285449
C73	C	0.755579	0.938055	0.252036
C74	C	0.788922	0.342072	0.697675
C75	C	0.788924	0.342074	0.643071
O76	O	0.817329	0.376170	0.614827
N77	N	0.755510	0.301996	0.615764
C78	C	0.722090	0.261919	0.643065
O79	O	0.693669	0.227831	0.614825
C80	C	0.722086	0.261922	0.697668
C81	C	0.755505	0.301997	0.724972
C82	C	0.822338	0.382145	0.724979
C83	C	0.822338	0.382143	0.779579
C84	C	0.788921	0.342068	0.806876
C85	C	0.755505	0.301995	0.779572
C86	C	0.688663	0.221849	0.724968
C87	C	0.688662	0.221855	0.779575
C88	C	0.722081	0.261931	0.806878
C89	C	0.722087	0.261918	0.861470
N90	N	0.755500	0.301996	0.888776
C91	C	0.788917	0.342071	0.861479
C92	C	0.722099	0.261918	0.528394
C93	C	0.722105	0.261911	0.473792
C94	C	0.788939	0.342067	0.473801
C95	C	0.788935	0.342069	0.528405
C96	C	0.755513	0.301995	0.555701
C97	C	0.788913	0.342063	0.976144
C98	C	0.788911	0.342056	1.030750
C99	C	0.722076	0.261903	1.030735
C100	C	0.722080	0.261908	0.976135
C101	C	0.755500	0.301993	0.948841
O102	O	0.693694	0.227841	0.889748
O103	O	0.817328	0.376160	0.889726
C104	C	0.755492	0.301993	1.116161
C105	C	0.755494	0.301981	1.058047
H106	H	0.556479	0.374784	0.312518
H107	H	0.457429	0.374787	0.312544
O108	O	0.825050	0.667833	0.182582
H109	H	0.801679	0.697692	0.155966
O110	O	0.686070	1.071520	0.321491
H111	H	0.662795	1.037786	0.344714
H112	H	0.694874	0.229267	0.953903
O113	O	0.686057	0.218679	0.557830
H114	H	0.709476	0.186809	0.582723
O115	O	0.825005	0.531811	0.182553
H116	H	0.848285	0.565546	0.159336
O117	O	0.824967	0.385290	0.946713
H118	H	0.815982	0.434462	0.957184
O119	O	0.853486	0.869568	0.243553
H120	H	0.879135	0.856959	0.276818
O121	O	0.824956	0.385282	1.060201
H122	H	0.801536	0.417149	1.085066
O123	O	0.858368	0.425385	0.809026
H124	H	0.881594	0.453257	0.780864
O125	O	0.853436	0.733563	0.243544
H126	H	0.886207	0.767273	0.240723
O127	O	0.686070	0.218675	0.444347
H128	H	0.645028	0.229411	0.454807
O129	O	0.061331	0.218596	0.182655
H130	H	0.050865	0.169439	0.191690
O131	O	-0.052157	0.218612	0.182676
H132	H	-0.041660	0.169453	0.191719
H133	H	0.816289	0.944105	0.191436
O134	O	0.686042	0.218679	1.060190
H135	H	0.644999	0.229410	1.049697
O136	O	0.199028	0.178423	0.149287
H137	H	0.227192	0.150512	0.126086
O138	O	0.825173	1.071463	0.182633
H139	H	0.848424	1.037709	0.159395
H140	H	0.661449	0.189216	0.702746
H141	H	0.694874	0.944159	0.312642
O142	O	0.312519	0.178426	0.149267
H143	H	0.284356	0.150528	0.126061
H144	H	0.457405	0.229159	0.191429
O145	O	0.652617	0.178627	0.809017
H146	H	0.629385	0.150759	0.780853
H147	H	0.816148	0.374703	0.550632
H148	H	0.849551	0.414782	0.702759
O149	O	0.824979	0.385299	0.444356
H150	H	0.819359	0.378567	0.401800
H151	H	0.305306	0.414935	0.345937
H152	H	0.206260	0.414940	0.345954
H153	H	0.054133	0.374829	0.312597
H154	H	0.556472	0.229158	0.191415
O155	O	0.657635	0.869765	0.260493
H156	H	0.624867	0.836052	0.263329
H157	H	-0.044932	0.374832	0.312607
H158	H	0.694788	0.659234	0.312599
H159	H	0.670042	0.742395	0.259399
O160	O	0.685896	0.531869	0.321405
H161	H	0.662634	0.565622	0.344632
