data_functionalizedCrystal
_audit_creation_method	'MofGen! by Chris Wilmer'
_symmetry_space_group_name_H-M	'P1'
_symmetry_Int_Tables_number	1
_symmetry_cell_setting	triclinic
loop_
_symmetry_equiv_pos_as_xyz
  x,y,z
_cell_length_a	14.971475
_cell_length_b	13.448316
_cell_length_c	14.971506
_cell_angle_alpha	89.998220
_cell_angle_beta	96.383967
_cell_angle_gamma	90.004731
loop_
_atom_site_label
_atom_site_type_symbol
_atom_site_fract_x
_atom_site_fract_y
_atom_site_fract_z
O1	O	-1.186961	-0.082668	0.116513
O2	O	-0.853627	0.250665	0.449847
O3	O	-0.520294	0.583999	0.783180
O4	O	-0.926560	-0.082674	0.130482
O5	O	-0.593227	0.250659	0.463815
O6	O	-0.259894	0.583993	0.797149
O7	O	-1.063731	-0.082668	-0.006701
O8	O	-0.730397	0.250665	0.326632
O9	O	-0.397064	0.583998	0.659965
O10	O	-1.049791	-0.082674	0.253697
O11	O	-0.716457	0.250660	0.587030
O12	O	-0.383124	0.583993	0.920363
O13	O	-1.063715	0.082716	-0.006702
O14	O	-0.730382	0.416049	0.326632
O15	O	-0.397049	0.749382	0.659965
O16	O	-0.926545	0.082710	0.130482
O17	O	-0.593212	0.416043	0.463815
O18	O	-0.259879	0.749376	0.797148
O19	O	-1.186946	0.082716	0.116513
O20	O	-0.853612	0.416049	0.449846
O21	O	-0.520279	0.749382	0.783180
Cu22	Cu	-1.056744	0.097814	0.123497
Cu23	Cu	-0.723411	0.431147	0.456831
Cu24	Cu	-0.390077	0.764480	0.790164
Cu25	Cu	-1.056762	-0.097772	0.123498
Cu26	Cu	-0.723429	0.235561	0.456831
Cu27	Cu	-0.390095	0.568895	0.790164
O28	O	-1.049775	0.082710	0.253696
O29	O	-0.716442	0.416043	0.587030
O30	O	-0.383109	0.749377	0.920363
C31	C	-0.893228	0.000017	0.129859
C32	C	-0.559895	0.333350	0.463192
C33	C	-0.226561	0.666684	0.796526
C34	C	-0.793930	0.000015	0.127992
C35	C	-0.460597	0.333348	0.461325
C36	C	-0.127263	0.666681	0.794659
C37	C	-0.747277	0.090166	0.127113
C38	C	-0.413944	0.423500	0.460446
C39	C	-0.080610	0.756833	0.793779
C40	C	-0.653978	0.090167	0.125344
C41	C	-0.320645	0.423500	0.458678
C42	C	0.012689	0.756833	0.792011
C43	C	-0.607333	0.000015	0.124462
C44	C	-0.274000	0.333348	0.457795
C45	C	0.059333	0.666681	0.791128
C46	C	-0.653993	-0.090144	0.125339
C47	C	-0.320660	0.243190	0.458672
C48	C	0.012673	0.576523	0.792005
C49	C	-0.747291	-0.090143	0.127101
C50	C	-0.413958	0.243190	0.460434
C51	C	-0.080625	0.576523	0.793767
C52	C	-0.459530	-0.090138	0.121668
C53	C	-0.126197	0.243195	0.455002
C54	C	0.207136	0.576528	0.788335
C55	C	-0.366226	-0.090139	0.119908
C56	C	-0.032892	0.243194	0.453241
C57	C	0.300441	0.576527	0.786575
C58	C	-0.366217	0.090171	0.119912
C59	C	-0.032884	0.423505	0.453245
C60	C	0.300449	0.756838	0.786579
C61	C	-0.459515	0.090172	0.121674
C62	C	-0.126182	0.423505	0.455007
C63	C	0.207151	0.756839	0.788341
C64	C	-0.506169	0.000013	0.122552
C65	C	-0.172835	0.333347	0.455886
C66	C	0.160498	0.666680	0.789219
N67	N	-1.056738	0.235378	0.123497
N68	N	-0.723405	0.568711	0.456830
N69	N	-0.390071	0.902045	0.790163
C70	C	-1.063096	0.000022	-0.040026
C71	C	-0.729763	0.333356	0.293307
C72	C	-0.396430	0.666689	0.626641
C73	C	-1.061218	0.000018	-0.139322
C74	C	-0.727885	0.333351	0.194011
C75	C	-0.394552	0.666684	0.527345
C76	C	-0.220277	0.000021	0.117142
C77	C	0.113056	0.333354	0.450476
C78	C	0.446389	0.666688	0.783809
C79	C	-0.319573	0.000012	0.119029
C80	C	0.013761	0.333345	0.452362
C81	C	0.347094	0.666679	0.785695
C82	C	-1.111044	0.287414	0.177835
C83	C	-0.777711	0.620747	0.511169
C84	C	-0.444377	0.954081	0.844502
C85	C	-1.111054	0.391517	0.177832
C86	C	-0.777721	0.724851	0.511165
C87	C	-0.444388	1.058184	0.844499
C88	C	-1.056753	0.443583	0.123494
C89	C	-0.723420	0.776916	0.456827
C90	C	-0.390086	1.110249	0.790161
C91	C	-1.002445	0.391539	0.069149
C92	C	-0.669111	0.724872	0.402482
C93	C	-0.335778	1.058206	0.735816
C94	C	-1.002440	0.287438	0.069148
C95	C	-0.669107	0.620771	0.402482
C96	C	-0.335773	0.954104	0.735815
C97	C	-1.002457	0.608519	0.069156
C98	C	-0.669124	0.941853	0.402490
C99	C	-0.335790	1.275186	0.735823
C100	C	-1.002460	0.712628	0.069158
C101	C	-0.669127	1.045961	0.402492
C102	C	-0.335793	1.379294	0.735825
C103	C	-1.111071	0.712599	0.177840
C104	C	-0.777738	1.045932	0.511173
C105	C	-0.444404	1.379265	0.844507
C106	C	-1.111066	0.608497	0.177839
C107	C	-0.777733	0.941831	0.511173
C108	C	-0.444400	1.275164	0.844506
C109	C	-1.056757	0.556461	0.123495
C110	C	-0.723423	0.889795	0.456829
C111	C	-0.390090	1.223128	0.790162
N112	N	-1.056766	0.764664	0.123497
N113	N	-0.723433	1.097997	0.456830
N114	N	-0.390100	1.431331	0.790164
C115	C	-1.134637	0.000020	-0.577607
C116	C	-0.801304	0.333353	-0.244274
C117	C	-0.467970	0.666687	0.089059
C118	C	-1.136394	0.000026	-0.484307
C119	C	-0.803061	0.333360	-0.150974
C120	C	-0.469728	0.666693	0.182359
C121	C	-1.055802	0.000021	-0.427084
C122	C	-0.722468	0.333354	-0.093751
C123	C	-0.389135	0.666688	0.239582
C124	C	-0.973446	0.000019	-0.463166
C125	C	-0.640113	0.333353	-0.129832
C126	C	-0.306779	0.666686	0.203501
C127	C	-0.971689	0.000020	-0.556464
C128	C	-0.638356	0.333353	-0.223131
C129	C	-0.305023	0.666687	0.110203
C130	C	-0.977113	0.000016	-0.268703
C131	C	-0.643780	0.333349	0.064631
C132	C	-0.310446	0.666682	0.397964
C133	C	-0.978869	0.000013	-0.175398
C134	C	-0.645536	0.333346	0.157936
C135	C	-0.312202	0.666680	0.491269
C136	C	-1.141818	0.000022	-0.196546
C137	C	-0.808484	0.333355	0.136787
C138	C	-0.475151	0.666689	0.470121
C139	C	-1.140061	0.000023	-0.289844
C140	C	-0.806728	0.333356	0.043489
C141	C	-0.473395	0.666689	0.376822
C142	C	-1.057705	0.000019	-0.325919
C143	C	-0.724372	0.333352	0.007414
C144	C	-0.391039	0.666686	0.340748
C145	C	-1.050410	0.000017	0.287021
C146	C	-0.717076	0.333351	0.620354
C147	C	-0.383743	0.666684	0.953688
C148	C	-1.052288	0.000015	0.386317
C149	C	-0.718954	0.333349	0.719650
C150	C	-0.385621	0.666682	1.052984
H151	H	-0.328228	0.163582	0.119197
H152	H	0.005106	0.496915	0.452530
H153	H	0.338439	0.830249	0.785864
Cl154	Cl	-0.307588	-0.203475	0.118796
Cl155	Cl	0.025746	0.129858	0.452129
Cl156	Cl	0.359079	0.463192	0.785463
Cl157	Cl	-0.934181	0.456993	0.000837
Cl158	Cl	-0.600848	0.790326	0.334170
Cl159	Cl	-0.267514	1.123659	0.667503
Cl160	Cl	-0.518179	-0.203483	0.122771
Cl161	Cl	-0.184846	0.129850	0.456104
Cl162	Cl	0.148488	0.463184	0.789437
H163	H	-1.155257	0.245030	0.222089
H164	H	-0.821924	0.578363	0.555422
H165	H	-0.488590	0.911697	0.888756
Cl166	Cl	-1.241379	0.000023	-0.361781
Cl167	Cl	-0.908046	0.333356	-0.028448
Cl168	Cl	-0.574713	0.666690	0.304886
H169	H	-0.616008	-0.163547	0.124614
H170	H	-0.282675	0.169786	0.457947
H171	H	0.050658	0.503120	0.791280
H172	H	-0.904632	0.000024	-0.585834
H173	H	-0.571299	0.333358	-0.252501
H174	H	-0.237966	0.666691	0.080832
Cl175	Cl	-0.805942	-0.203481	0.128202
Cl176	Cl	-0.472608	0.129852	0.461535
Cl177	Cl	-0.139275	0.463185	0.794869
Cl178	Cl	-0.934195	0.543104	0.000823
Cl179	Cl	-0.600861	0.876437	0.334156
Cl180	Cl	-0.267528	1.209770	0.667490
Cl181	Cl	-1.179326	0.456930	0.246149
Cl182	Cl	-0.845993	0.790263	0.579482
Cl183	Cl	-0.512659	1.123597	0.912816
H184	H	-0.910050	0.000026	-0.298071
H185	H	-0.576717	0.333360	0.035263
H186	H	-0.243383	0.666693	0.368596
H187	H	-1.155279	0.566109	0.222090
H188	H	-0.821946	0.899442	0.555424
H189	H	-0.488612	1.232775	0.888757
H190	H	-0.958242	0.755016	0.024913
H191	H	-0.624909	1.088350	0.358246
H192	H	-0.291575	1.421683	0.691579
Cl193	Cl	-1.235960	0.000019	-0.649537
Cl194	Cl	-0.902627	0.333353	-0.316203
Cl195	Cl	-0.569293	0.666686	0.017130
H196	H	-0.907826	0.000021	-0.416567
H197	H	-0.574493	0.333354	-0.083234
H198	H	-0.241159	0.666688	0.250100
H199	H	-0.785248	0.163579	0.127839
H200	H	-0.451914	0.496912	0.461172
H201	H	-0.118581	0.830245	0.794505
H202	H	-1.155288	0.754972	0.222093
H203	H	-0.821955	1.088305	0.555426
H204	H	-0.488622	1.421638	0.888759
Cl205	Cl	-1.239924	0.000007	-0.438960
Cl206	Cl	-0.906591	0.333340	-0.105626
Cl207	Cl	-0.573257	0.666674	0.227707
Cl208	Cl	-0.877551	0.000018	-0.103461
Cl209	Cl	-0.544218	0.333352	0.229873
Cl210	Cl	-0.210884	0.666685	0.563206
H211	H	-0.615999	0.163577	0.124613
H212	H	-0.282666	0.496911	0.457947
H213	H	0.050667	0.830244	0.791280
Cl214	Cl	-0.934176	0.222021	0.000824
Cl215	Cl	-0.600842	0.555354	0.334158
Cl216	Cl	-0.267509	0.888687	0.667491
H217	H	-0.497490	0.163582	0.122398
H218	H	-0.164157	0.496915	0.455732
H219	H	0.169176	0.830248	0.789065
Cl220	Cl	-1.245351	0.000026	-0.151195
Cl221	Cl	-0.912017	0.333359	0.182138
Cl222	Cl	-0.578684	0.666692	0.515471
