data_functionalizedCrystal
_audit_creation_method	'MofGen! by Chris Wilmer'
_symmetry_space_group_name_H-M	'P1'
_symmetry_Int_Tables_number	1
_symmetry_cell_setting	triclinic
loop_
_symmetry_equiv_pos_as_xyz
  x,y,z
_cell_length_a	27.732048
_cell_length_b	27.732048
_cell_length_c	12.503572
_cell_angle_alpha	93.489054
_cell_angle_beta	86.516589
_cell_angle_gamma	82.642655
loop_
_atom_site_label
_atom_site_type_symbol
_atom_site_fract_x
_atom_site_fract_y
_atom_site_fract_z
O1	O	0.643731	0.054704	-0.089192
O2	O	0.502939	0.063448	-0.089227
O3	O	0.577707	-0.011320	-0.089188
O4	O	0.568963	0.129472	-0.089231
O5	O	0.572084	-0.005688	0.089451
O6	O	0.497316	0.069080	0.089412
O7	O	0.638108	0.060336	0.089447
Cu8	Cu	0.567199	0.065222	0.105741
Cu9	Cu	0.573849	0.058562	-0.105521
O10	O	0.563340	0.135104	0.089408
C11	C	0.482121	0.066081	0.000089
C12	C	0.428466	0.065527	0.000077
C13	C	0.089650	0.106232	0.000111
C14	C	-0.112010	0.104182	0.000121
O15	O	-0.143267	0.141403	0.000156
N16	N	-0.131134	0.059847	0.000133
C17	C	-0.099840	0.016022	0.000149
O18	O	-0.120734	-0.021735	0.000170
C19	C	0.101819	0.018073	0.000146
C20	C	0.120940	0.062410	0.000124
C21	C	0.108772	0.150566	0.000089
C22	C	0.159184	0.151078	0.000081
C23	C	0.190475	0.107256	0.000094
C24	C	0.171353	0.062922	0.000115
C25	C	0.133112	-0.025751	0.000170
C26	C	0.183529	-0.025234	0.000172
C27	C	0.202651	0.019103	0.000150
C28	C	0.253055	0.019613	0.000120
N29	N	0.272179	0.063948	0.000108
C30	C	0.240889	0.107769	0.000095
C31	C	-0.205714	0.014948	0.000148
C32	C	-0.256128	0.014435	0.000147
C33	C	-0.268295	0.102595	0.000121
C34	C	-0.217879	0.103107	0.000115
C35	C	-0.186590	0.059283	0.000136
C36	C	0.346759	0.108841	0.000077
C37	C	0.397176	0.109349	0.000064
C38	C	0.409338	0.021189	0.000095
C39	C	0.358925	0.020681	0.000102
C40	C	0.327636	0.064511	0.000097
O41	O	0.284340	-0.017589	0.000097
O42	O	0.261791	0.145521	0.000098
C43	C	0.039238	0.105720	0.000119
C44	C	0.020116	0.061386	0.000141
C45	C	0.051406	0.017565	0.000153
C46	C	-0.030298	0.060873	0.000139
C47	C	-0.061589	0.104695	0.000126
C48	C	-0.042465	0.149030	0.000115
C49	C	0.007948	0.149542	0.000106
C50	C	0.032282	-0.026770	0.000165
C51	C	-0.018131	-0.027279	0.000172
C52	C	-0.049421	0.016543	0.000159
C53	C	0.574712	-0.026511	0.000134
C54	C	0.574159	-0.080165	0.000143
C55	C	0.614864	-0.418982	0.000098
C56	C	0.612814	-0.620642	0.000082
O57	O	0.650036	-0.651899	0.000044
N58	N	0.568479	-0.639766	0.000073
C59	C	0.524654	-0.608472	0.000060
O60	O	0.486897	-0.629366	0.000040
C61	C	0.526705	-0.406813	0.000067
C62	C	0.571042	-0.387692	0.000088
C63	C	0.659198	-0.399860	0.000117
C64	C	0.659710	-0.349448	0.000127
C65	C	0.615888	-0.318157	0.000117
C66	C	0.571554	-0.337279	0.000098
C67	C	0.482881	-0.375520	0.000047
C68	C	0.483397	-0.325103	0.000046
C69	C	0.527735	-0.305981	0.000067
C70	C	0.528244	-0.255577	0.000098
N71	N	0.572579	-0.236453	0.000108
C72	C	0.616401	-0.267743	0.000117
C73	C	0.523580	-0.714346	0.000058
C74	C	0.523067	-0.764760	0.000058
C75	C	0.611227	-0.776927	0.000078
C76	C	0.611739	-0.726512	0.000086
C77	C	0.567915	-0.695222	0.000067
C78	C	0.617473	-0.161873	0.000139
C79	C	0.617981	-0.111456	0.000153
C80	C	0.529821	-0.099294	0.000126
C81	C	0.529313	-0.149706	0.000118
C82	C	0.573143	-0.180996	0.000120
O83	O	0.491043	-0.224292	0.000124
O84	O	0.654153	-0.246841	0.000113
C85	C	0.614352	-0.469394	0.000088
C86	C	0.570018	-0.488516	0.000069
C87	C	0.526197	-0.457226	0.000059
C88	C	0.569505	-0.538930	0.000069
C89	C	0.613327	-0.570221	0.000078
C90	C	0.657662	-0.551097	0.000088
C91	C	0.658174	-0.500685	0.000098
C92	C	0.481862	-0.476350	0.000049
C93	C	0.481353	-0.526763	0.000041
C94	C	0.525175	-0.558053	0.000050
C95	C	0.658927	0.057703	0.000129
C96	C	0.712582	0.058256	0.000134
C97	C	0.566335	0.150295	0.000083
C98	C	0.566889	0.203949	0.000067
N99	N	0.562525	0.069907	0.254331
N100	N	0.578526	0.053873	-0.254111
C101	C	0.555650	0.076802	0.473442
C102	C	0.585400	0.046980	0.526785
C103	C	0.581574	0.050816	0.648706
C104	C	0.559475	0.072966	0.351510
H105	H	0.321288	0.144532	0.000075
H106	H	0.527309	0.105214	0.519335
H107	H	0.654087	-0.095890	0.000172
F108	F	0.622590	0.009985	0.466797
F109	F	0.417523	0.156541	0.000036
F110	F	0.705365	-0.480341	0.000113
H111	H	0.647843	-0.710947	0.000102
F112	F	0.704301	-0.584407	0.000104
F113	F	0.442648	-0.025446	0.000111
F114	F	0.434160	-0.547106	0.000026
H115	H	0.023511	0.185646	0.000089
F116	F	0.706901	-0.329105	0.000126
F117	F	0.216827	-0.071880	0.000198
F118	F	0.075477	0.197212	0.000076
F119	F	0.179528	0.198268	0.000062
F120	F	-0.197534	0.150296	0.000093
H121	H	0.694885	-0.425332	0.000121
H122	H	-0.293780	0.138276	0.000111
F123	F	-0.276472	-0.032756	0.000147
F124	F	-0.075775	0.195668	0.000095
H125	H	-0.180242	-0.020742	0.000166
H126	H	0.117552	-0.061855	0.000189
H127	H	0.343357	-0.015423	0.000105
H128	H	-0.033694	-0.063386	0.000182
F129	F	0.065578	-0.073414	0.000181
H130	H	0.646909	-0.802413	0.000087
F131	F	0.664122	-0.195167	0.000141
H132	H	0.486962	-0.780324	0.000060
F133	F	0.435690	-0.395859	0.000020
F134	F	0.476932	-0.681050	0.000038
H135	H	0.447709	-0.299628	0.000029
H136	H	0.494142	-0.073808	0.000122
F137	F	0.482124	-0.170057	0.000115
H138	H	0.446176	-0.450877	0.000039
