data_functionalizedCrystal
_audit_creation_method	'MofGen! by Chris Wilmer'
_symmetry_space_group_name_H-M	'P1'
_symmetry_Int_Tables_number	1
_symmetry_cell_setting	triclinic
loop_
_symmetry_equiv_pos_as_xyz
  x,y,z
_cell_length_a	7.681481
_cell_length_b	8.559649
_cell_length_c	8.559649
_cell_angle_alpha	69.778664
_cell_angle_beta	94.913501
_cell_angle_gamma	85.069100
loop_
_atom_site_label
_atom_site_type_symbol
_atom_site_fract_x
_atom_site_fract_y
_atom_site_fract_z
O1	O	-0.146391	-0.037798	2.109662
O2	O	0.353609	0.462202	2.609662
O3	O	-0.146400	0.045984	1.634176
O4	O	0.353600	0.545984	2.134176
O5	O	-0.146393	-0.233650	1.913810
O6	O	0.353607	0.266350	2.413810
O7	O	-0.146398	0.241836	1.830028
O8	O	0.353602	0.741836	2.330028
O9	O	0.146466	-0.268138	1.948237
O10	O	0.646466	0.231862	2.448237
O11	O	0.146459	0.011496	1.668603
O12	O	0.646459	0.511496	2.168603
O13	O	0.146468	-0.072286	2.144089
O14	O	0.646468	0.427714	2.644089
Zn15	Zn	0.192961	-0.035870	1.911812
Zn16	Zn	0.692961	0.464130	2.411812
Zn17	Zn	-0.192893	0.009569	1.866453
Zn18	Zn	0.307107	0.509569	2.366453
O19	O	0.146461	0.207348	1.864455
O20	O	0.646461	0.707348	2.364455
C21	C	0.000028	0.035090	1.591081
C22	C	0.500028	0.535090	2.091081
C23	C	0.000024	0.053989	1.411381
C24	C	0.500024	0.553989	1.911381
C25	C	0.000034	-0.311202	1.937372
C26	C	0.500034	0.188798	2.437372
C27	C	0.000024	-0.490900	1.956270
C28	C	0.500024	0.009100	2.456270
N29	N	0.456296	-0.066884	1.942780
N30	N	0.956296	0.433116	2.442780
N31	N	-0.456228	0.040567	1.835500
N32	N	0.043772	0.540567	2.335500
C33	C	0.000031	0.284901	1.840893
C34	C	0.500031	0.784901	2.340893
C35	C	0.000029	0.464600	1.821993
C36	C	0.500029	0.964600	2.321993
C37	C	0.000036	-0.061391	2.187184
C38	C	0.500036	0.438609	2.687184
C39	C	0.000028	-0.080289	2.366883
C40	C	0.500028	0.419711	2.866883
H41	H	0.468572	0.150244	1.725989
H42	H	0.968572	0.650244	2.225989
Br43	Br	0.000060	-0.656546	2.172002
Br44	Br	0.500060	-0.156546	2.672002
H45	H	0.000017	-0.209707	2.466260
H46	H	0.500017	0.290293	2.966260
H47	H	0.000018	0.183418	2.311992
H48	H	0.500018	0.683418	2.811992
Br49	Br	0.581636	-0.249680	2.125340
Br50	Br	1.081636	0.250320	2.625340
Br51	Br	0.000035	-0.369767	1.606276
Br52	Br	0.500035	0.130233	2.106276
