data_functionalizedCrystal
_audit_creation_method	'MofGen! by Chris Wilmer'
_symmetry_space_group_name_H-M	'P1'
_symmetry_Int_Tables_number	1
_symmetry_cell_setting	triclinic
loop_
_symmetry_equiv_pos_as_xyz
  x,y,z
_cell_length_a	17.000383
_cell_length_b	17.019294
_cell_length_c	12.503552
_cell_angle_alpha	89.645537
_cell_angle_beta	86.753934
_cell_angle_gamma	79.506204
loop_
_atom_site_label
_atom_site_type_symbol
_atom_site_fract_x
_atom_site_fract_y
_atom_site_fract_z
O1	O	1.060784	0.023435	-0.091562
O2	O	1.394117	0.356769	0.241771
O3	O	1.727451	0.690102	0.575105
O4	O	0.829154	0.051922	-0.094182
O5	O	1.162488	0.385256	0.239151
O6	O	1.495821	0.718589	0.572484
O7	O	0.950888	-0.077023	-0.082258
O8	O	1.284221	0.256311	0.251075
O9	O	1.617554	0.589644	0.584408
O10	O	0.939050	0.152380	-0.103486
O11	O	1.272384	0.485714	0.229847
O12	O	1.605717	0.819047	0.563181
O13	O	0.941722	-0.067316	0.095487
O14	O	1.275055	0.266017	0.428820
O15	O	1.608389	0.599350	0.762153
O16	O	0.819989	0.061628	0.083563
O17	O	1.153322	0.394962	0.416896
O18	O	1.486655	0.728295	0.750229
O19	O	1.051618	0.033142	0.086183
O20	O	1.384952	0.366475	0.419516
O21	O	1.718285	0.699808	0.752850
Cu22	Cu	0.934967	0.048271	0.101102
Cu23	Cu	1.268300	0.381605	0.434436
Cu24	Cu	1.601633	0.714938	0.767769
Cu25	Cu	0.945806	0.036793	-0.109102
Cu26	Cu	1.279139	0.370126	0.224232
Cu27	Cu	1.612473	0.703459	0.557565
O28	O	0.929885	0.162086	0.074259
O29	O	1.263218	0.495420	0.407592
O30	O	1.596551	0.828753	0.740926
C31	C	0.794923	0.058305	-0.005450
C32	C	1.128257	0.391639	0.327884
C33	C	1.461590	0.724972	0.661217
C34	C	0.706581	0.062855	-0.005865
C35	C	1.039914	0.396188	0.327469
C36	C	1.373248	0.729522	0.660802
C37	C	0.206473	0.092228	-0.008623
C38	C	0.539806	0.425561	0.324711
C39	C	0.873139	0.758895	0.658044
C40	C	0.289480	0.087947	-0.008226
C41	C	0.622813	0.421281	0.325107
C42	C	0.956147	0.754614	0.658441
C43	C	0.340205	0.013647	-0.001342
C44	C	0.673538	0.346980	0.331991
C45	C	1.006872	0.680314	0.665324
C46	C	0.307919	-0.056378	0.005134
C47	C	0.641253	0.276956	0.338467
C48	C	0.974586	0.610289	0.671800
C49	C	0.224914	-0.052097	0.004729
C50	C	0.558247	0.281236	0.338062
C51	C	0.891580	0.614570	0.671396
C52	C	0.591290	-0.002889	0.000207
C53	C	0.924623	0.330444	0.333540
C54	C	1.257957	0.663778	0.666873
C55	C	0.674300	-0.007164	0.000614
C56	C	1.007634	0.326169	0.333947
C57	C	1.340967	0.659502	0.667281
C58	C	0.655855	0.137161	-0.012748
C59	C	0.989189	0.470494	0.320586
C60	C	1.322522	0.803828	0.653919
C61	C	0.572849	0.141436	-0.013145
C62	C	0.906182	0.474769	0.320188
C63	C	1.239515	0.808102	0.653522
C64	C	0.540571	0.071411	-0.006675
C65	C	0.873904	0.404744	0.326659
C66	C	1.207237	0.738077	0.659992
C67	C	0.425052	0.009270	-0.000933
C68	C	0.758385	0.342603	0.332400
C69	C	1.091718	0.675937	0.665733
C70	C	0.455725	0.075788	-0.007092
C71	C	0.789059	0.409121	0.326242
C72	C	1.122392	0.742455	0.659575
C73	C	0.945675	-0.101377	0.009315
C74	C	1.279009	0.231956	0.342648
C75	C	1.612342	0.565290	0.675981
C76	C	0.943790	-0.188406	0.017361
C77	C	1.277123	0.144927	0.350695
C78	C	1.610457	0.478261	0.684028
C79	C	0.947902	-0.234579	-0.075746
C80	C	1.281236	0.098755	0.257587
C81	C	1.614569	0.432088	0.590920
C82	C	0.946125	-0.316351	-0.068182
C83	C	1.279459	0.016983	0.265151
C84	C	1.612792	0.350316	0.598484
C85	C	0.940242	-0.351949	0.032490
C86	C	1.273575	-0.018616	0.365824
C87	C	1.606909	0.314718	0.699157
C88	C	0.936127	-0.305770	0.125605
C89	C	1.269460	0.027564	0.458938
C90	C	1.602794	0.360897	0.792272
C91	C	0.937898	-0.223998	0.118040
C92	C	1.271232	0.109335	0.451373
C93	C	1.604565	0.442668	0.784707
C94	C	0.934639	-0.598580	0.060179
C95	C	1.267972	-0.265247	0.393513
C96	C	1.601306	0.068087	0.726846
C97	C	0.932871	-0.680358	0.067738
C98	C	1.266204	-0.347024	0.401071
C99	C	1.599537	-0.013691	0.734404
C100	C	0.942868	-0.690933	-0.126051
C101	C	1.276201	-0.357599	0.207282
C102	C	1.609534	-0.024266	0.540616
C103	C	0.944643	-0.609160	-0.133607
C104	C	1.277976	-0.275827	0.199726
C105	C	1.611310	0.057506	0.533060
C106	C	0.940524	-0.562987	-0.040492
C107	C	1.273857	-0.229654	0.292841
C108	C	1.607191	0.103679	0.626174
C109	C	0.938428	-0.435533	0.040225
C110	C	1.271762	-0.102200	0.373558
C111	C	1.605095	0.231133	0.706891
C112	C	0.942332	-0.479404	-0.048228
C113	C	1.275665	-0.146070	0.285106
C114	C	1.608999	0.187263	0.618439
C115	C	1.085849	0.026758	-0.002552
C116	C	1.419183	0.360092	0.330781
C117	C	1.752516	0.693425	0.664114
C118	C	1.174192	0.022209	-0.002144
C119	C	1.507525	0.355542	0.331189
C120	C	1.840859	0.688875	0.664523
C121	C	0.935097	0.186441	-0.017316
C122	C	1.268430	0.519774	0.316017
C123	C	1.601764	0.853108	0.649350
C124	C	0.936983	0.273469	-0.025370
C125	C	1.270316	0.606803	0.307963
C126	C	1.603650	0.940136	0.641297
N127	N	0.927348	0.056344	0.248949
N128	N	1.260682	0.389677	0.582282
N129	N	1.594015	0.723010	0.915615
N130	N	0.953430	0.028713	-0.256947
N131	N	1.286764	0.362047	0.076386
N132	N	1.620097	0.695380	0.409719
C133	C	0.964633	0.016836	0.525035
C134	C	1.297966	0.350170	0.858368
C135	C	1.631299	0.683503	1.191702
C136	C	0.916149	0.068218	0.466959
C137	C	1.249482	0.401552	0.800293
C138	C	1.582815	0.734885	1.133626
C139	C	0.922382	0.061610	0.345647
C140	C	1.255715	0.394943	0.678980
C141	C	1.589048	0.728276	1.012314
C142	C	0.958401	0.023444	0.646359
C143	C	1.291734	0.356777	0.979692
C144	C	1.625067	0.690111	1.313025
H145	H	0.715600	-0.067672	0.006214
H146	H	1.048933	0.265661	0.339548
H147	H	1.382267	0.598995	0.672881
H148	H	0.931332	-0.334759	0.207575
H149	H	1.264665	-0.001426	0.540908
H150	H	1.597999	0.331907	0.874242
H151	H	1.010820	-0.032113	0.483651
H152	H	1.344153	0.301221	0.816985
H153	H	1.677486	0.634554	1.150318
H154	H	0.931301	-0.560999	0.136000
H155	H	1.264634	-0.227665	0.469334
H156	H	1.597968	0.105668	0.802667
Br157	Br	0.932313	-0.161333	0.244405
Br158	Br	1.265646	0.172000	0.577739
Br159	Br	1.598979	0.505334	0.911072
H160	H	0.165177	0.152732	-0.014220
H161	H	0.498510	0.486065	0.319113
H162	H	0.831843	0.819398	0.652447
Br163	Br	0.699666	0.232189	-0.021535
Br164	Br	1.032999	0.565523	0.311799
Br165	Br	1.366333	0.898856	0.645132
Br166	Br	0.839164	0.149811	0.535940
Br167	Br	1.172497	0.483144	0.869274
Br168	Br	1.505830	0.816477	1.202607
Br169	Br	0.930436	-0.483851	0.176849
Br170	Br	1.263770	-0.150517	0.510182
Br171	Br	1.597103	0.182816	0.843515
H172	H	0.531553	0.201939	-0.018753
H173	H	0.864886	0.535272	0.314580
H174	H	1.198220	0.868606	0.647913
Br175	Br	0.333287	0.182978	-0.017029
Br176	Br	0.666620	0.516311	0.316304
Br177	Br	0.999953	0.849644	0.649637
Br178	Br	0.547496	-0.097925	0.008956
Br179	Br	0.880829	0.235408	0.342290
Br180	Br	1.214162	0.568741	0.675623
Br181	Br	0.376760	-0.157216	0.014469
Br182	Br	0.710093	0.176118	0.347803
Br183	Br	1.043427	0.509451	0.681136
H184	H	0.198633	-0.109114	0.010003
H185	H	0.531966	0.224219	0.343336
H186	H	0.865300	0.557552	0.676669
H187	H	0.414422	0.136283	-0.012701
H188	H	0.747755	0.469616	0.320632
H189	H	1.081089	0.802949	0.653966
H190	H	0.952697	-0.205602	-0.157725
H191	H	1.286031	0.127731	0.175608
H192	H	1.619364	0.461065	0.508942
Br193	Br	0.952633	-0.560855	-0.270239
Br194	Br	1.285967	-0.227522	0.063094
Br195	Br	1.619300	0.105812	0.396427
Br196	Br	0.951705	-0.379011	-0.194549
Br197	Br	1.285039	-0.045678	0.138784
Br198	Br	1.618372	0.287656	0.472118
H199	H	0.466361	-0.051225	0.004675
H200	H	0.799694	0.282108	0.338008
H201	H	1.133028	0.615441	0.671342
H202	H	0.946220	-0.728535	-0.201859
H203	H	1.279553	-0.395202	0.131474
H204	H	1.612886	-0.061868	0.464807
Br205	Br	0.924894	-0.728671	0.204374
Br206	Br	1.258227	-0.395338	0.537708
Br207	Br	1.591561	-0.062005	0.871041
H208	H	0.947117	-0.450415	-0.130195
H209	H	1.280450	-0.117081	0.203138
H210	H	1.613783	0.216252	0.536472
