data_functionalizedCrystal
_audit_creation_method	'MofGen! by Chris Wilmer'
_symmetry_space_group_name_H-M	'P1'
_symmetry_Int_Tables_number	1
_symmetry_cell_setting	triclinic
loop_
_symmetry_equiv_pos_as_xyz
  x,y,z
_cell_length_a	21.395362
_cell_length_b	12.759400
_cell_length_c	21.395355
_cell_angle_alpha	90.012729
_cell_angle_beta	90.043940
_cell_angle_gamma	90.029045
loop_
_atom_site_label
_atom_site_type_symbol
_atom_site_fract_x
_atom_site_fract_y
_atom_site_fract_z
Zn1	Zn	0.957936	-0.417943	0.354611
Zn2	Zn	0.957870	-0.593607	0.249844
Zn3	Zn	0.853151	-0.417992	0.249812
Zn4	Zn	0.853152	-0.593629	0.354549
O5	O	0.905527	-0.505793	0.302204
O6	O	1.045605	-0.441215	0.340753
O7	O	0.943951	-0.570323	0.162162
O8	O	0.867078	-0.270964	0.263727
O9	O	1.045557	-0.570275	0.263781
O10	O	0.944063	-0.270928	0.340722
O11	O	0.867014	-0.441299	0.162138
O12	O	0.765473	-0.441320	0.263666
O13	O	0.867080	-0.570312	0.442235
O14	O	0.765474	-0.570360	0.340616
O15	O	0.944064	-0.441236	0.442281
O16	O	0.943952	-0.740631	0.263721
O17	O	0.867016	-0.740647	0.340647
C18	C	0.742740	-0.505848	0.302131
C19	C	0.673098	-0.505897	0.302115
C20	C	0.640402	-0.573177	0.342123
C21	C	0.574967	-0.573152	0.342150
C22	C	0.542230	-0.505857	0.302160
C23	C	0.574934	-0.438564	0.262149
C24	C	0.640368	-0.438584	0.262127
C25	C	0.438504	-0.497393	0.245754
C26	C	0.373071	-0.497380	0.245775
C27	C	0.340409	-0.505788	0.302229
C28	C	0.373189	-0.514231	0.358663
C29	C	0.438623	-0.514251	0.358641
C30	C	0.471278	-0.505827	0.302180
C31	C	0.236761	-0.573044	0.342270
C32	C	0.171324	-0.573011	0.342299
C33	C	0.171293	-0.438428	0.262292
C34	C	0.236728	-0.438456	0.262269
C35	C	0.269458	-0.505769	0.302257
C36	C	0.905494	-0.778760	0.302194
C37	C	0.905538	-0.895537	0.302211
C38	C	0.945604	-0.950300	0.342335
C39	C	0.945633	-1.060024	0.342350
C40	C	0.865528	-1.060211	0.262112
C41	C	0.865496	-0.950489	0.262100
C42	C	0.985645	-0.895347	0.382446
C43	C	1.025715	-0.950111	0.422573
C44	C	1.025744	-1.059835	0.422588
C45	C	0.985703	-1.114795	0.382476
C46	C	1.068951	-0.505738	0.302277
C47	C	1.138592	-0.505714	0.302308
C48	C	0.905579	-0.505771	0.465627
C49	C	0.905601	-0.505762	0.535269
C50	C	0.905577	-0.231759	0.302228
C51	C	0.905599	-0.114983	0.302238
C52	C	0.905511	-0.505738	0.139416
C53	C	0.905611	-0.505451	0.069775
C54	C	0.945685	-0.438550	0.568006
C55	C	0.945685	-0.438504	0.633442
C56	C	0.905606	-0.505691	0.666137
C57	C	0.865515	-0.572908	0.633391
C58	C	0.865512	-0.572944	0.567957
C59	C	0.900648	-0.600292	0.769806
C60	C	0.900654	-0.600258	0.835239
C61	C	0.905610	-0.505580	0.867958
C62	C	0.910572	-0.410932	0.835235
C63	C	0.910570	-0.410968	0.769801
C64	C	0.905604	-0.505659	0.737089
C65	C	0.945695	-0.438312	0.971648
C66	C	0.945690	-0.438265	1.037085
C67	C	0.865523	-0.572678	1.037033
C68	C	0.865525	-0.572716	0.971597
C69	C	0.905615	-0.505534	0.938909
H70	H	0.465309	-0.521123	0.404591
H71	H	0.832888	-0.627454	0.944942
H72	H	0.914608	-0.333903	0.743161
C73	C	0.916022	-0.306777	0.871220
N74	N	0.920128	-0.228331	0.898327
C75	C	0.337266	-0.523477	0.420767
N76	N	0.310206	-0.530441	0.467543
C77	C	0.985615	-0.774649	0.382435
N78	N	0.985591	-0.683739	0.382426
H79	H	0.978335	-0.383603	0.945032
H80	H	0.144704	-0.627796	0.374882
H81	H	0.548340	-0.627939	0.374732
H82	H	0.263411	-0.627849	0.374834
C83	C	0.135286	-0.364402	0.218302
N84	N	0.108163	-0.308642	0.185168
C85	C	0.337020	-0.488085	0.183697
N86	N	0.309867	-0.481079	0.136939
C87	C	0.989787	-0.364320	1.073096
N88	N	1.023002	-0.308624	1.100221
C89	C	1.069756	-0.889653	0.466694
N90	N	1.102929	-0.844117	0.499927
H91	H	0.832870	-0.905900	0.229428
C92	C	0.821437	-0.646585	1.072994
N93	N	0.788230	-0.702253	1.100082
H94	H	0.263350	-0.383674	0.229687
H95	H	0.896618	-0.677325	0.861877
H96	H	0.896444	-0.677371	0.743173
H97	H	0.832868	-0.627675	0.541302
H98	H	0.667047	-0.627988	0.374685
H99	H	0.832881	-0.627608	0.660016
H100	H	0.548276	-0.383770	0.229589
C101	C	0.474425	-0.488147	0.183646
N102	N	0.501480	-0.481185	0.136868
C103	C	0.676335	-0.364573	0.218110
N104	N	0.703426	-0.308829	0.184954
C105	C	1.069822	-1.120072	0.466727
N106	N	1.103026	-1.165441	0.499971
C107	C	0.985734	-1.235496	0.382499
N108	N	0.985760	-1.326406	0.382515
H109	H	0.832929	-1.104969	0.229454
H110	H	0.978324	-0.383766	0.660102
C111	C	0.989777	-0.364634	0.532053
N112	N	1.022984	-0.308955	0.504972
