data_functionalizedCrystal
_audit_creation_method	'MofGen! by Chris Wilmer'
_symmetry_space_group_name_H-M	'P1'
_symmetry_Int_Tables_number	1
_symmetry_cell_setting	triclinic
loop_
_symmetry_equiv_pos_as_xyz
  x,y,z
_cell_length_a	12.759401
_cell_length_b	13.897448
_cell_length_c	12.759393
_cell_angle_alpha	89.966654
_cell_angle_beta	89.981504
_cell_angle_gamma	90.017853
loop_
_atom_site_label
_atom_site_type_symbol
_atom_site_fract_x
_atom_site_fract_y
_atom_site_fract_z
Zn1	Zn	1.606234	-0.383954	-0.593968
Zn2	Zn	1.606119	-0.545283	-0.418283
Zn3	Zn	1.430536	-0.384004	-0.418308
Zn4	Zn	1.430515	-0.545209	-0.593924
O5	O	1.518351	-0.464613	-0.506121
O6	O	1.753239	-0.405365	-0.570671
O7	O	1.582788	-0.523942	-0.271265
O8	O	1.453899	-0.249016	-0.441638
O9	O	1.753155	-0.523893	-0.441596
O10	O	1.582983	-0.248979	-0.570695
O11	O	1.453788	-0.405451	-0.271283
O12	O	1.283512	-0.405379	-0.441596
O13	O	1.453864	-0.523766	-0.740951
O14	O	1.283497	-0.523815	-0.570621
O15	O	1.582964	-0.405293	-0.740984
O16	O	1.582768	-0.680255	-0.441554
O17	O	1.453753	-0.680201	-0.570597
C18	C	1.245383	-0.464595	-0.506107
C19	C	1.128607	-0.464611	-0.506125
C20	C	1.518274	-0.715227	-0.506090
C21	C	1.518337	-0.822441	-0.506113
C22	C	1.073764	-0.526379	-0.573198
C23	C	0.964040	-0.526391	-0.573209
C24	C	0.964011	-0.402864	-0.439067
C25	C	1.073733	-0.402847	-0.439062
C26	C	1.128638	-0.588142	-0.640261
C27	C	1.073796	-0.649917	-0.707338
C28	C	0.964072	-0.649929	-0.707349
C29	C	0.909190	-0.588167	-0.640284
C30	C	1.518448	-1.018736	-0.506178
C31	C	1.518383	-0.909503	-0.506145
C32	C	1.792384	-0.464631	-0.506136
C33	C	1.909161	-0.464639	-0.506142
C34	C	1.518424	-0.464515	-0.780154
C35	C	1.518456	-0.464474	-0.896931
C36	C	1.518456	-0.213020	-0.506174
C37	C	1.518501	-0.105806	-0.506197
C38	C	1.585687	-0.402779	-0.951812
C39	C	1.585712	-0.402744	-1.061536
C40	C	1.451271	-0.526107	-1.061489
C41	C	1.451242	-0.526137	-0.951767
C42	C	1.652901	-0.341116	-0.896976
C43	C	1.720139	-0.279417	-0.951856
C44	C	1.720164	-0.279382	-1.061580
C45	C	1.652951	-0.341046	-1.116424
C46	C	1.518338	-0.464640	-0.233154
C47	C	1.518510	-0.464410	-0.116377
H48	H	1.217981	-0.588141	-0.640258
C49	C	1.134156	-0.717847	-0.781110
H50	H	1.085776	-0.754628	-0.821065
H51	H	1.176934	-0.759826	-0.740838
H52	H	1.176982	-0.680986	-0.826958
C53	C	0.903648	-0.334936	-0.365295
H54	H	0.952026	-0.298140	-0.325353
H55	H	0.860822	-0.371791	-0.319451
H56	H	0.860869	-0.292955	-0.405575
H57	H	0.919422	-0.700221	-0.761974
H58	H	1.652890	-0.341139	-0.807633
H59	H	1.118386	-0.352543	-0.384454
H60	H	1.774904	-0.229136	-1.106261
H61	H	1.774854	-0.229206	-0.907196
C62	C	0.788496	-0.588159	-0.640321
H63	H	0.763691	-0.633789	-0.689877
H64	H	0.763715	-0.525930	-0.658614
H65	H	0.763623	-0.604771	-0.572495
C66	C	1.377356	-0.593942	-1.121814
H67	H	1.387011	-0.585095	-1.195021
H68	H	1.306764	-0.579830	-1.103838
H69	H	1.392710	-0.658760	-1.103810
H70	H	1.652964	-0.341002	-1.205769
H71	H	1.396480	-0.576359	-0.907082
