data_functionalizedCrystal
_audit_creation_method	'MofGen! by Chris Wilmer'
_symmetry_space_group_name_H-M	'P1'
_symmetry_Int_Tables_number	1
_symmetry_cell_setting	triclinic
loop_
_symmetry_equiv_pos_as_xyz
  x,y,z
_cell_length_a	16.109301
_cell_length_b	23.532357
_cell_length_c	14.586319
_cell_angle_alpha	89.990687
_cell_angle_beta	89.998857
_cell_angle_gamma	83.144938
loop_
_atom_site_label
_atom_site_type_symbol
_atom_site_fract_x
_atom_site_fract_y
_atom_site_fract_z
O1	O	1.102536	0.073204	-0.076201
O2	O	1.352536	0.323204	0.173799
O3	O	1.602536	0.573204	0.423799
O4	O	1.852536	0.823204	0.673799
O5	O	0.860400	0.082314	-0.076216
O6	O	1.110400	0.332314	0.173784
O7	O	1.360400	0.582314	0.423784
O8	O	1.610400	0.832314	0.673784
O9	O	0.988791	-0.005147	-0.076189
O10	O	1.238791	0.244853	0.173811
O11	O	1.488791	0.494853	0.423811
O12	O	1.738791	0.744853	0.673811
O13	O	0.974145	0.160666	-0.076228
O14	O	1.224145	0.410666	0.173772
O15	O	1.474145	0.660666	0.423772
O16	O	1.724145	0.910666	0.673772
O17	O	0.988782	-0.005149	0.076292
O18	O	1.238782	0.244851	0.326292
O19	O	1.488782	0.494851	0.576292
O20	O	1.738782	0.744851	0.826292
O21	O	0.860391	0.082313	0.076265
O22	O	1.110391	0.332313	0.326265
O23	O	1.360391	0.582313	0.576265
O24	O	1.610391	0.832313	0.826265
O25	O	1.102527	0.073203	0.076279
O26	O	1.352527	0.323203	0.326279
O27	O	1.602527	0.573203	0.576279
O28	O	1.852527	0.823203	0.826279
Cu29	Cu	0.981458	0.077758	0.090195
Cu30	Cu	1.231458	0.327758	0.340195
Cu31	Cu	1.481458	0.577758	0.590195
Cu32	Cu	1.731458	0.827758	0.840195
Cu33	Cu	0.981469	0.077759	-0.090131
Cu34	Cu	1.231469	0.327759	0.159869
Cu35	Cu	1.481469	0.577759	0.409869
Cu36	Cu	1.731469	0.827759	0.659869
O37	O	0.974136	0.160665	0.076253
O38	O	1.224136	0.410665	0.326253
O39	O	1.474136	0.660665	0.576253
O40	O	1.724136	0.910665	0.826253
C41	C	0.829424	0.081945	0.000023
C42	C	1.079424	0.331945	0.250023
C43	C	1.329424	0.581945	0.500023
C44	C	1.579424	0.831945	0.750023
C45	C	0.737137	0.080838	0.000019
C46	C	0.987137	0.330838	0.250019
C47	C	1.237137	0.580838	0.500019
C48	C	1.487137	0.830838	0.750019
C49	C	0.427747	0.129119	0.000023
C50	C	0.677747	0.379119	0.250023
C51	C	0.927747	0.629119	0.500023
C52	C	1.177747	0.879119	0.750023
C53	C	0.514459	0.130164	0.000018
C54	C	0.764459	0.380164	0.250018
C55	C	1.014459	0.630164	0.500018
C56	C	1.264459	0.880164	0.750018
C57	C	0.535175	0.026394	0.000030
C58	C	0.785175	0.276394	0.250030
C59	C	1.035175	0.526394	0.500030
C60	C	1.285175	0.776394	0.750030
C61	C	0.448465	0.025350	0.000029
C62	C	0.698465	0.275350	0.250029
C63	C	0.948465	0.525350	0.500029
C64	C	1.198465	0.775350	0.750029
C65	C	0.394752	0.076714	0.000030
C66	C	0.644752	0.326714	0.250030
C67	C	0.894752	0.576714	0.500030
C68	C	1.144752	0.826714	0.750030
C69	C	0.568175	0.078803	0.000026
C70	C	0.818175	0.328803	0.250026
C71	C	1.068175	0.578803	0.500026
C72	C	1.318175	0.828803	0.750026
C73	C	0.662191	0.079936	0.000020
C74	C	0.912191	0.329936	0.250020
C75	C	1.162191	0.579936	0.500020
C76	C	1.412191	0.829936	0.750020
C77	C	0.300730	0.075582	0.000034
C78	C	0.550730	0.325582	0.250034
C79	C	0.800730	0.575582	0.500034
C80	C	1.050730	0.825582	0.750034
C81	C	0.988420	-0.026366	0.000054
C82	C	1.238420	0.223634	0.250054
C83	C	1.488420	0.473634	0.500054
C84	C	1.738420	0.723634	0.750054
C85	C	0.987319	-0.089589	0.000063
C86	C	1.237319	0.160411	0.250063
C87	C	1.487319	0.410411	0.500063
C88	C	1.737319	0.660411	0.750063
C89	C	0.980409	-0.481625	-0.083105
C90	C	1.230409	-0.231625	0.166895
C91	C	1.480409	0.018375	0.416895
C92	C	1.730409	0.268375	0.666895
C93	C	0.979362	-0.541028	-0.083110
C94	C	1.229362	-0.291028	0.166890
C95	C	1.479362	-0.041028	0.416890
C96	C	1.729362	0.208972	0.666890
O97	O	0.978796	-0.571746	-0.153798
O98	O	1.228796	-0.321746	0.096202
O99	O	1.478796	-0.071746	0.346202
O100	O	1.728796	0.178254	0.596202
N101	N	0.978838	-0.570742	0.000006
N102	N	1.228838	-0.320742	0.250006
N103	N	1.478838	-0.070742	0.500006
N104	N	1.728838	0.179258	0.750006
C105	C	0.979352	-0.541048	0.083133
C106	C	1.229352	-0.291048	0.333133
C107	C	1.479352	-0.041048	0.583133
C108	C	1.729352	0.208952	0.833133
O109	O	0.978810	-0.571777	0.153829
O110	O	1.228810	-0.321777	0.403829
O111	O	1.478810	-0.071777	0.653829
O112	O	1.728810	0.178223	0.903829
C113	C	0.980393	-0.481646	0.083137
C114	C	1.230393	-0.231646	0.333137
C115	C	1.480393	0.018354	0.583137
C116	C	1.730393	0.268354	0.833137
C117	C	0.980926	-0.451936	0.000016
C118	C	1.230926	-0.201936	0.250016
C119	C	1.480926	0.048064	0.500016
C120	C	1.730926	0.298064	0.750016
C121	C	0.980940	-0.451915	-0.166219
C122	C	1.230940	-0.201915	0.083781
C123	C	1.480940	0.048085	0.333781
C124	C	1.730940	0.298085	0.583781
C125	C	0.981989	-0.392515	-0.166214
C126	C	1.231989	-0.142515	0.083786
C127	C	1.481989	0.107485	0.333786
C128	C	1.731989	0.357485	0.583786
C129	C	0.982506	-0.362827	-0.083093
C130	C	1.232506	-0.112827	0.166907
C131	C	1.482506	0.137173	0.416907
C132	C	1.732506	0.387173	0.666907
C133	C	0.981974	-0.392537	0.000021
C134	C	1.231974	-0.142537	0.250021
C135	C	1.481974	0.107463	0.500021
C136	C	1.731974	0.357463	0.750021
C137	C	0.980902	-0.451953	0.166263
C138	C	1.230902	-0.201953	0.416263
C139	C	1.480902	0.048047	0.666263
C140	C	1.730902	0.298047	0.916263
C141	C	0.981943	-0.392546	0.166260
C142	C	1.231943	-0.142546	0.416260
C143	C	1.481943	0.107454	0.666260
C144	C	1.731943	0.357454	0.916260
C145	C	0.982475	-0.362836	0.083139
C146	C	1.232475	-0.112836	0.333139
C147	C	1.482475	0.137164	0.583139
C148	C	1.732475	0.387164	0.833139
C149	C	0.983540	-0.303449	0.083148
C150	C	1.233540	-0.053449	0.333148
C151	C	1.483540	0.196551	0.583148
C152	C	1.733540	0.446551	0.833148
N153	N	0.984064	-0.273735	0.000031
N154	N	1.234064	-0.023735	0.250031
N155	N	1.484064	0.226265	0.500031
N156	N	1.734064	0.476265	0.750031
C157	C	0.983547	-0.303424	-0.083089
C158	C	1.233547	-0.053424	0.166911
C159	C	1.483547	0.196576	0.416911
C160	C	1.733547	0.446576	0.666911
C161	C	0.977165	-0.665798	0.083118
C162	C	1.227165	-0.415798	0.333118
C163	C	1.477165	-0.165798	0.583118
C164	C	1.727165	0.084202	0.833118
C165	C	0.976130	-0.725200	0.083114
C166	C	1.226130	-0.475200	0.333114
C167	C	1.476130	-0.225200	0.583114
C168	C	1.726130	0.024800	0.833114
C169	C	0.976138	-0.725176	-0.083129
C170	C	1.226138	-0.475176	0.166871
C171	C	1.476138	-0.225176	0.416871
C172	C	1.726138	0.024824	0.666871
C173	C	0.977179	-0.665773	-0.083125
C174	C	1.227179	-0.415773	0.166875
C175	C	1.477179	-0.165773	0.416875
C176	C	1.727179	0.084227	0.666875
C177	C	0.977689	-0.636084	0.000001
C178	C	1.227689	-0.386084	0.250001
C179	C	1.477689	-0.136084	0.500001
C180	C	1.727689	0.113916	0.750001
C181	C	0.985750	-0.178682	-0.083071
C182	C	1.235750	0.071318	0.166929
C183	C	1.485750	0.321318	0.416929
C184	C	1.735750	0.571318	0.666929
C185	C	0.986802	-0.119278	-0.083058
C186	C	1.236802	0.130722	0.166942
C187	C	1.486802	0.380722	0.416942
C188	C	1.736802	0.630722	0.666942
C189	C	0.986789	-0.119307	0.083185
C190	C	1.236789	0.130693	0.333185
C191	C	1.486789	0.380693	0.583185
C192	C	1.736789	0.630693	0.833185
C193	C	0.985742	-0.178706	0.083172
C194	C	1.235742	0.071294	0.333172
C195	C	1.485742	0.321294	0.583172
C196	C	1.735742	0.571294	0.833172
C197	C	0.985219	-0.208392	0.000037
C198	C	1.235219	0.041608	0.250037
C199	C	1.485219	0.291608	0.500037
C200	C	1.735219	0.541608	0.750037
O201	O	0.984103	-0.272693	0.153799
O202	O	1.234103	-0.022693	0.403799
O203	O	1.484103	0.227307	0.653799
O204	O	1.734103	0.477307	0.903799
O205	O	0.984079	-0.272687	-0.153773
O206	O	1.234079	-0.022687	0.096227
O207	O	1.484079	0.227313	0.346227
O208	O	1.734079	0.477313	0.596227
C209	C	1.133503	0.073573	0.000039
C210	C	1.383503	0.323573	0.250039
C211	C	1.633503	0.573573	0.500039
C212	C	1.883503	0.823573	0.750039
C213	C	1.225790	0.074679	0.000037
C214	C	1.475790	0.324679	0.250037
C215	C	1.725790	0.574679	0.500037
C216	C	1.975790	0.824679	0.750037
C217	C	0.974507	0.181883	0.000008
C218	C	1.224507	0.431883	0.250008
C219	C	1.474507	0.681883	0.500008
C220	C	1.724507	0.931883	0.750008
C221	C	0.975608	0.245106	-0.000007
C222	C	1.225608	0.495106	0.249993
C223	C	1.475608	0.745106	0.499993
C224	C	1.725608	0.995106	0.749993
N225	N	0.981457	0.077757	0.217027
N226	N	1.231457	0.327757	0.467027
N227	N	1.481457	0.577757	0.717027
N228	N	1.731457	0.827757	0.967027
N229	N	0.981477	0.077756	-0.216963
N230	N	1.231477	0.327756	0.033037
N231	N	1.481477	0.577756	0.283037
N232	N	1.731477	0.827756	0.533037
C233	C	1.038327	0.039041	0.452045
C234	C	1.288327	0.289041	0.702045
C235	C	1.538327	0.539041	0.952045
C236	C	1.788327	0.789041	1.202045
C237	C	1.038330	0.039040	0.548026
C238	C	1.288330	0.289040	0.798026
C239	C	1.538330	0.539040	1.048026
C240	C	1.788330	0.789040	1.298026
C241	C	0.924600	0.116473	0.548012
C242	C	1.174600	0.366473	0.798012
C243	C	1.424600	0.616473	1.048012
C244	C	1.674600	0.866473	1.298012
C245	C	0.924595	0.116471	0.452033
C246	C	1.174595	0.366471	0.702033
C247	C	1.424595	0.616471	0.952033
C248	C	1.674595	0.866471	1.202033
C249	C	0.981463	0.077756	0.404052
C250	C	1.231463	0.327756	0.654052
C251	C	1.481463	0.577756	0.904052
C252	C	1.731463	0.827756	1.154052
C253	C	0.981471	0.077757	0.596012
C254	C	1.231471	0.327757	0.846012
C255	C	1.481471	0.577757	1.096012
C256	C	1.731471	0.827757	1.346012
C257	C	0.981473	0.077755	0.700079
C258	C	1.231473	0.327755	0.950079
C259	C	1.481473	0.577755	1.200079
C260	C	1.731473	0.827755	1.450079
C261	C	0.981460	0.077757	0.299978
C262	C	1.231460	0.327757	0.549978
C263	C	1.481460	0.577757	0.799978
C264	C	1.731460	0.827757	1.049978
H265	H	0.421601	-0.017328	0.000031
H266	H	0.671601	0.232672	0.250031
H267	H	0.921601	0.482672	0.500031
H268	H	1.171601	0.732672	0.750031
H269	H	0.987237	-0.095090	-0.150748
H270	H	1.237237	0.154910	0.099252
H271	H	1.487237	0.404910	0.349252
H272	H	1.737237	0.654910	0.599252
Cl273	Cl	0.360226	0.193692	0.000021
Cl274	Cl	0.610226	0.443692	0.250021
Cl275	Cl	0.860226	0.693692	0.500021
Cl276	Cl	1.110226	0.943692	0.750021
Cl277	Cl	1.109815	-0.009631	0.391730
Cl278	Cl	1.359815	0.240369	0.641730
Cl279	Cl	1.609815	0.490369	0.891730
Cl280	Cl	1.859815	0.740369	1.141730
Cl281	Cl	0.982585	-0.355227	0.270769
Cl282	Cl	1.232585	-0.105227	0.520769
Cl283	Cl	1.482585	0.144773	0.770769
Cl284	Cl	1.732585	0.394773	1.020769
H285	H	0.985320	-0.202844	-0.150768
H286	H	1.235320	0.047156	0.099232
H287	H	1.485320	0.297156	0.349232
H288	H	1.735320	0.547156	0.599232
Cl289	Cl	0.977845	-0.628429	-0.187624
Cl290	Cl	1.227845	-0.378429	0.062376
Cl291	Cl	1.477845	-0.128429	0.312376
Cl292	Cl	1.727845	0.121571	0.562376
H293	H	0.985316	-0.202898	0.150857
H294	H	1.235316	0.047102	0.400857
H295	H	1.485316	0.297102	0.650857
H296	H	1.735316	0.547102	0.900857
Cl297	Cl	0.982650	-0.355174	-0.270715
Cl298	Cl	1.232650	-0.105174	-0.020715
Cl299	Cl	1.482650	0.144826	0.229285
Cl300	Cl	1.732650	0.394826	0.479285
H301	H	0.578918	-0.015425	0.000031
H302	H	0.828918	0.234575	0.250031
H303	H	1.078918	0.484575	0.500031
H304	H	1.328918	0.734575	0.750031
Cl305	Cl	0.980292	-0.489227	-0.270728
Cl306	Cl	1.230292	-0.239227	-0.020728
Cl307	Cl	1.480292	0.010773	0.229272
Cl308	Cl	1.730292	0.260773	0.479272
Cl309	Cl	0.853099	0.165143	0.391692
Cl310	Cl	1.103099	0.415143	0.641692
Cl311	Cl	1.353099	0.665143	0.891692
Cl312	Cl	1.603099	0.915143	1.141692
Cl313	Cl	0.975480	-0.762509	-0.187624
Cl314	Cl	1.225480	-0.512509	0.062376
Cl315	Cl	1.475480	-0.262509	0.312376
Cl316	Cl	1.725480	-0.012509	0.562376
Cl317	Cl	0.975476	-0.762544	0.187614
Cl318	Cl	1.225476	-0.512544	0.437614
Cl319	Cl	1.475476	-0.262544	0.687614
Cl320	Cl	1.725476	-0.012544	0.937614
Cl321	Cl	1.109817	-0.009633	0.608358
Cl322	Cl	1.359817	0.240367	0.858358
Cl323	Cl	1.609817	0.490367	1.108358
Cl324	Cl	1.859817	0.740367	1.358358
H325	H	0.977583	-0.641630	0.150813
H326	H	1.227583	-0.391630	0.400813
H327	H	1.477583	-0.141630	0.650813
H328	H	1.727583	0.108370	0.900813
Cl329	Cl	0.980227	-0.489288	0.270766
Cl330	Cl	1.230227	-0.239288	0.520766
Cl331	Cl	1.480227	0.010712	0.770766
Cl332	Cl	1.730227	0.260712	1.020766
Cl333	Cl	0.987439	-0.081973	0.187673
Cl334	Cl	1.237439	0.168027	0.437673
Cl335	Cl	1.487439	0.418027	0.687673
Cl336	Cl	1.737439	0.668027	0.937673
Cl337	Cl	0.853115	0.165144	0.608336
Cl338	Cl	1.103115	0.415144	0.858336
Cl339	Cl	1.353115	0.665144	1.108336
Cl340	Cl	1.603115	0.915144	1.358336
H341	H	0.541318	0.172838	0.000012
H342	H	0.791318	0.422838	0.250012
H343	H	1.041318	0.672838	0.500012
H344	H	1.291318	0.922838	0.750012
