data_functionalizedCrystal
_audit_creation_method	'MofGen! by Chris Wilmer'
_symmetry_space_group_name_H-M	'P1'
_symmetry_Int_Tables_number	1
_symmetry_cell_setting	triclinic
loop_
_symmetry_equiv_pos_as_xyz
  x,y,z
_cell_length_a	19.288864
_cell_length_b	23.532407
_cell_length_c	22.610064
_cell_angle_alpha	90.009150
_cell_angle_beta	90.029123
_cell_angle_gamma	82.992461
loop_
_atom_site_label
_atom_site_type_symbol
_atom_site_fract_x
_atom_site_fract_y
_atom_site_fract_z
O1	O	0.921140	0.071043	0.049380
O2	O	0.718850	0.080627	0.049341
O3	O	0.826095	-0.007084	0.049351
O4	O	0.813895	0.158754	0.049370
O5	O	0.826064	-0.007084	-0.049019
O6	O	0.718819	0.080627	-0.049029
O7	O	0.921109	0.071043	-0.048989
Zn8	Zn	0.819959	0.075835	-0.064627
Zn9	Zn	0.820000	0.075835	0.064979
O10	O	0.813864	0.158754	-0.048999
C11	C	0.692959	0.080319	0.000151
C12	C	0.615858	0.079393	0.000135
C13	C	0.825769	-0.028301	0.000165
C14	C	0.824835	-0.091520	0.000160
C15	C	0.571003	0.130858	0.000150
C16	C	0.498559	0.129988	0.000157
C17	C	0.470973	0.077651	0.000160
C18	C	0.515838	0.026179	0.000141
C19	C	0.588280	0.027050	0.000129
C20	C	0.362849	0.036508	0.034638
C21	C	0.290407	0.035639	0.034654
C22	C	0.247535	0.074961	0.000195
C23	C	0.277113	0.115163	-0.034272
C24	C	0.349556	0.116034	-0.034284
C25	C	0.392422	0.076700	0.000173
C26	C	0.124127	0.125487	0.000217
C27	C	0.051682	0.124615	0.000220
C28	C	0.068962	0.020805	0.000210
C29	C	0.141406	0.021678	0.000201
C30	C	0.168984	0.074021	0.000207
C31	C	0.882442	-0.490503	0.000204
C32	C	0.881574	-0.549905	0.000208
O33	O	0.934976	-0.586539	0.000240
N34	N	0.817817	-0.572664	0.000195
C35	C	0.754923	-0.536017	0.000184
O36	O	0.700613	-0.560829	0.000174
C37	C	0.755792	-0.476616	0.000184
C38	C	0.819553	-0.453861	0.000190
C39	C	0.946198	-0.467748	0.000211
C40	C	0.947065	-0.408350	0.000206
C41	C	0.884177	-0.371707	0.000193
C42	C	0.820420	-0.394463	0.000185
C43	C	0.692899	-0.439970	0.000177
C44	C	0.693773	-0.380565	0.000177
C45	C	0.757534	-0.357810	0.000184
C46	C	0.758399	-0.298422	0.000167
N47	N	0.822156	-0.275664	0.000180
C48	C	0.885045	-0.312307	0.000193
C49	C	0.753104	-0.660763	0.000185
C50	C	0.752235	-0.720163	0.000181
C51	C	0.878886	-0.734047	0.000206
C52	C	0.879755	-0.674647	0.000206
C53	C	0.816861	-0.638005	0.000198
C54	C	0.886862	-0.187566	0.000181
C55	C	0.887724	-0.128162	0.000173
C56	C	0.761073	-0.114283	0.000151
C57	C	0.760211	-0.173681	0.000155
C58	C	0.823111	-0.210322	0.000172
O59	O	0.705025	-0.261754	0.000137
O60	O	0.939346	-0.287486	0.000210
C61	C	0.947000	0.071351	0.000202
C62	C	1.024101	0.072277	0.000222
C63	C	0.814190	0.179971	0.000188
C64	C	0.815124	0.243190	0.000197
N65	N	0.819936	0.075835	-0.153080
C66	C	0.861888	0.110282	-0.561708
C67	C	0.861896	0.110281	-0.623628
O68	O	0.897537	0.139566	-0.655636
N69	N	0.820014	0.075828	-0.654617
C70	C	0.778125	0.041371	-0.623682
O71	O	0.742501	0.012066	-0.655726
C72	C	0.778120	0.041370	-0.561764
C73	C	0.820000	0.075829	-0.530778
C74	C	0.903765	0.144738	-0.530722
C75	C	0.903755	0.144740	-0.468807
C76	C	0.861868	0.110286	-0.437877
C77	C	0.819990	0.075831	-0.468862
C78	C	0.736235	0.006909	-0.530830
C79	C	0.736235	0.006911	-0.468907
C80	C	0.778115	0.041370	-0.437922
C81	C	0.778093	0.041379	-0.376017
N82	N	0.819976	0.075832	-0.345028
C83	C	0.861863	0.110285	-0.375958
C84	C	0.778138	0.041375	-0.753716
C85	C	0.778138	0.041379	-0.815634
C86	C	0.861911	0.110289	-0.815575
C87	C	0.861907	0.110287	-0.753656
C88	C	0.820021	0.075828	-0.722727
C89	C	0.861839	0.110287	-0.245931
C90	C	0.861823	0.110288	-0.184010
C91	C	0.778053	0.041377	-0.184074
C92	C	0.778066	0.041378	-0.245989
C93	C	0.819964	0.075835	-0.276916
O94	O	0.742472	0.012107	-0.343970
O95	O	0.897488	0.139580	-0.343906
N96	N	0.820029	0.075831	0.153431
H97	H	0.593452	0.173479	0.000157
H98	H	0.266330	0.002906	0.062722
C99	C	0.449207	0.186600	0.000176
H100	H	0.402113	0.178583	0.000180
H101	H	0.457558	0.208067	0.034482
H102	H	0.457497	0.208071	-0.034130
C103	C	0.731990	0.003474	-0.150043
H104	H	0.737994	0.008406	-0.108729
H105	H	0.684391	0.014143	-0.160206
H106	H	0.745183	-0.035522	-0.160191
H107	H	0.373635	0.148766	-0.062350
C108	C	0.949891	-0.649621	0.000219
H109	H	0.987217	-0.679957	0.000230
H110	H	0.952856	-0.626741	-0.034082
H111	H	0.952876	-0.626737	0.034529
C112	C	0.002338	0.181228	0.000237
H113	H	-0.044757	0.173214	0.000237
H114	H	0.010687	0.202694	0.034543
H115	H	0.010633	0.202699	-0.034068
H116	H	0.640978	-0.458486	0.000175
H117	H	0.709871	-0.084438	0.000138
H118	H	0.242208	0.147183	-0.062332
C119	C	0.038630	-0.036767	0.000210
H120	H	0.075723	-0.067294	0.000197
H121	H	0.010755	-0.039267	0.034516
H122	H	0.010704	-0.039263	-0.034095
H123	H	0.642556	-0.350733	0.000171
C124	C	0.410000	-0.006746	0.072550
H125	H	0.382010	-0.030805	0.093087
H126	H	0.442071	-0.029404	0.047704
H127	H	0.435000	0.013292	0.100260
H128	H	0.708291	-0.192209	0.000133
H129	H	0.146582	0.168107	0.000213
C130	C	0.907898	0.148191	-0.149929
H131	H	0.932850	0.168704	-0.177221
H132	H	0.879254	0.174463	-0.125784
H133	H	0.940025	0.124782	-0.125763
C134	C	0.190749	-0.034934	0.000193
H135	H	0.163946	-0.066230	0.000201
H136	H	0.219341	-0.036754	-0.034114
H137	H	0.219393	-0.036750	0.034498
H138	H	0.998986	-0.389829	0.000214
H139	H	0.493372	-0.016435	0.000152
H140	H	0.624802	-0.014860	0.000117
H141	H	0.896009	0.138347	-0.728432
H142	H	0.939648	-0.109639	0.000177
C143	C	0.683917	-0.620461	0.000165
H144	H	0.645826	-0.642527	0.000152
H145	H	0.681626	-0.596993	0.034466
H146	H	0.681612	-0.597008	-0.034145
C147	C	0.956050	-0.227863	0.000194
H148	H	0.994140	-0.205795	0.000193
H149	H	0.958365	-0.251319	0.034499
H150	H	0.958334	-0.251327	-0.034113
H151	H	0.997413	-0.497577	0.000224
C152	C	0.907920	0.148194	-0.279942
H153	H	0.932850	0.168717	-0.252613
H154	H	0.940056	0.124796	-0.304085
H155	H	0.879272	0.174467	-0.304104
H156	H	0.937861	0.172798	-0.443584
C157	C	0.948065	-0.774359	0.000225
H158	H	0.986166	-0.752303	0.000227
H159	H	0.950365	-0.797815	0.034530
H160	H	0.950345	-0.797825	-0.034082
C161	C	0.682098	-0.745187	0.000168
H162	H	0.644772	-0.714851	0.000164
H163	H	0.679110	-0.768078	-0.034133
H164	H	0.679137	-0.768061	0.034479
H165	H	0.937878	0.172794	-0.555899
H166	H	0.896017	0.138343	-0.840769
H167	H	0.744027	0.013326	-0.840857
H168	H	0.744023	0.013316	-0.728537
H169	H	0.702133	-0.021152	-0.556048
H170	H	0.702126	-0.021151	-0.443728
H171	H	0.743955	0.013326	-0.271219
