data_functionalizedCrystal
_audit_creation_method	'MofGen! by Chris Wilmer'
_symmetry_space_group_name_H-M	'P1'
_symmetry_Int_Tables_number	1
_symmetry_cell_setting	triclinic
loop_
_symmetry_equiv_pos_as_xyz
  x,y,z
_cell_length_a	16.109301
_cell_length_b	16.992695
_cell_length_c	14.586319
_cell_angle_alpha	89.995905
_cell_angle_beta	89.999213
_cell_angle_gamma	87.064852
loop_
_atom_site_label
_atom_site_type_symbol
_atom_site_fract_x
_atom_site_fract_y
_atom_site_fract_z
O1	O	1.109856	0.100784	-0.076183
O2	O	0.868631	0.113326	-0.076198
O3	O	0.988277	-0.007087	-0.076183
O4	O	0.990211	0.221197	-0.076198
O5	O	0.988268	-0.007089	0.076298
O6	O	0.868622	0.113324	0.076283
O7	O	1.109847	0.100782	0.076298
Cu8	Cu	0.989234	0.107053	0.090213
Cu9	Cu	0.989244	0.107055	-0.090113
O10	O	0.990202	0.221196	0.076283
C11	C	0.837618	0.112817	0.000041
C12	C	0.745221	0.111294	0.000035
C13	C	0.985784	-0.036300	0.000057
C14	C	0.978361	-0.123343	0.000056
C15	C	0.527480	0.179203	0.000042
C16	C	0.440664	0.177766	0.000048
C17	C	0.451005	0.034899	0.000053
C18	C	0.537819	0.036337	0.000054
C19	C	0.576055	0.108492	0.000043
C20	C	0.402424	0.105616	0.000049
C21	C	0.308294	0.104057	0.000055
C22	C	0.670191	0.110051	0.000039
C23	C	1.049987	-0.173601	0.000062
C24	C	1.043007	-0.255386	0.000052
C25	C	0.964400	-0.286911	0.000045
C26	C	0.892768	-0.236645	0.000037
C27	C	0.899749	-0.154862	0.000039
C28	C	0.935467	-0.530501	0.000030
C29	C	0.928491	-0.612291	0.000030
C30	C	1.078731	-0.631026	0.000045
C31	C	1.085704	-0.549240	0.000053
C32	C	1.014073	-0.498982	0.000040
N33	N	0.957263	-0.370508	0.000038
N34	N	1.021210	-0.415387	0.000040
C35	C	1.140860	0.101291	0.000057
C36	C	1.233257	0.102814	0.000057
C37	C	0.992694	0.250408	0.000041
C38	C	1.000118	0.337451	0.000036
N39	N	0.989232	0.107051	0.217045
N40	N	0.989252	0.107051	-0.216945
C41	C	1.042231	0.053750	0.452058
C42	C	1.042233	0.053748	0.548039
C43	C	0.936247	0.160355	0.548036
C44	C	0.936241	0.160352	0.452056
C45	C	0.989238	0.107051	0.404070
C46	C	0.989246	0.107051	0.596030
C47	C	0.989248	0.107050	0.700098
C48	C	0.989235	0.107051	0.299996
H49	H	0.558608	0.237956	0.000040
H50	H	1.085384	0.010345	0.587108
H51	H	1.101332	-0.296304	0.000059
O52	O	0.393602	0.246528	0.000002
C53	C	0.445970	0.310517	0.000018
H54	H	0.509369	0.290599	-0.028851
H55	H	0.453615	0.332632	0.073169
C56	C	0.329336	0.401907	-0.024325
C57	C	0.407202	0.377446	-0.059790
H58	H	0.305421	0.443195	-0.061213
H59	H	0.294054	0.358798	-0.024332
H60	H	0.335718	0.420332	0.036633
H61	H	0.400818	0.359013	-0.120742
H62	H	0.442482	0.420554	-0.059794
O63	O	0.413727	-0.035119	0.000015
C64	C	0.326686	-0.021228	0.000034
H65	H	0.310386	0.039967	-0.028835
H66	H	0.302292	-0.025026	0.073186
C67	C	0.306597	-0.158748	-0.024306
C68	C	0.286577	-0.083590	-0.059771
H69	H	0.281854	-0.197217	-0.061193
H70	H	0.365238	-0.168108	-0.024316
H71	H	0.286268	-0.161902	0.036653
H72	H	0.306915	-0.080434	-0.120725
H73	H	0.227938	-0.074231	-0.059773
O74	O	1.162084	-0.518661	-0.000102
C75	C	1.206094	-0.544356	-0.079057
H76	H	1.160229	-0.561347	-0.134262
H77	H	1.248875	-0.597674	-0.061199
C78	C	1.314665	-0.456577	-0.047048
C79	C	1.258333	-0.477440	-0.114854
H80	H	1.346892	-0.415303	-0.069128
H81	H	1.285017	-0.439268	0.006147
H82	H	1.350308	-0.501015	-0.032173
H83	H	1.222685	-0.433005	-0.129720
H84	H	1.287977	-0.494740	-0.168053
O85	O	0.865802	-0.481799	0.000071
C86	C	0.794929	-0.527165	0.000047
H87	H	0.811980	-0.588211	0.028912
H88	H	0.771089	-0.532976	-0.073105
C89	C	0.705738	-0.411426	0.024396
C90	C	0.726679	-0.486402	0.059855
H91	H	0.663637	-0.386281	0.061284
H92	H	0.753487	-0.380861	0.024408
H93	H	0.685877	-0.416279	-0.036564
H94	H	0.746550	-0.481547	0.120809
H95	H	0.678932	-0.516965	0.059855
H96	H	1.137048	-0.671954	0.000053
O97	O	0.852175	-0.643010	-0.000103
C98	C	0.843651	-0.689740	-0.079085
H99	H	0.907831	-0.710118	-0.105403
H100	H	0.809273	-0.653601	-0.134390
C101	C	0.715255	-0.737048	-0.022773
C102	C	0.794082	-0.762083	-0.055094
H103	H	0.684676	-0.781671	-0.007977
H104	H	0.720996	-0.705563	0.030437
H105	H	0.686617	-0.706932	-0.068866
H106	H	0.822722	-0.792190	-0.008997
H107	H	0.788345	-0.793575	-0.108296
O108	O	0.884675	0.212026	0.405392
C109	C	0.830608	0.170019	0.349865
H110	H	0.825094	0.108184	0.378801
H111	H	0.856354	0.165909	0.277124
C112	C	0.750988	0.289157	0.312843
C113	C	0.744210	0.213213	0.348388
H114	H	0.697694	0.315802	0.311928
H115	H	0.787415	0.317459	0.350250
H116	H	0.772446	0.285722	0.252229
H117	H	0.722762	0.216649	0.409004
H118	H	0.707777	0.184912	0.310991
O119	O	0.584887	-0.032429	0.000013
C120	C	0.532526	-0.096422	0.000037
H121	H	0.469125	-0.076509	-0.028834
H122	H	0.524881	-0.118541	0.073191
C123	C	0.649168	-0.187802	-0.024297
C124	C	0.571301	-0.163347	-0.059764
H125	H	0.673088	-0.229086	-0.061181
H126	H	0.684446	-0.144690	-0.024309
H127	H	0.642787	-0.206230	0.036664
H128	H	0.577684	-0.144911	-0.120718
H129	H	0.536025	-0.206458	-0.059762
O130	O	0.816391	-0.267229	-0.000136
C131	C	0.772398	-0.241525	-0.079100
H132	H	0.818273	-0.224521	-0.134292
H133	H	0.729609	-0.188213	-0.061250
C134	C	0.663827	-0.329318	-0.047126
C135	C	0.720172	-0.308439	-0.114916
H136	H	0.631608	-0.370591	-0.069217
H137	H	0.693464	-0.346633	0.006076
H138	H	0.628177	-0.284885	-0.032257
H139	H	0.755827	-0.352869	-0.129776
H140	H	0.690540	-0.291133	-0.168121
O141	O	0.830197	-0.106005	-0.000126
C142	C	0.829758	-0.058121	-0.079086
H143	H	0.870286	-0.088082	-0.134278
H144	H	0.855229	0.001343	-0.061230
C145	C	0.690347	-0.008867	-0.047116
C146	C	0.740119	-0.045669	-0.114907
H147	H	0.635053	-0.001183	-0.069211
H148	H	0.690643	-0.041125	0.006083
H149	H	0.711583	0.040682	-0.032242
H150	H	0.718889	-0.095221	-0.129771
H151	H	0.739817	-0.013419	-0.168109
H152	H	1.113997	-0.147941	0.000074
H153	H	1.085383	0.010347	0.412989
O154	O	0.884853	0.212105	0.594794
C155	C	0.896207	0.200667	0.689799
H156	H	0.960359	0.171378	0.702905
H157	H	0.846539	0.161331	0.717047
C158	C	0.810253	0.316850	0.722967
C159	C	0.889048	0.280882	0.739065
H160	H	0.805834	0.366329	0.753358
H161	H	0.802601	0.324554	0.658961
H162	H	0.768872	0.284061	0.745675
H163	H	0.930428	0.313666	0.716347
H164	H	0.896708	0.273185	0.803069
