data_functionalizedCrystal
_audit_creation_method	'MofGen! by Chris Wilmer'
_symmetry_space_group_name_H-M	'P1'
_symmetry_Int_Tables_number	1
_symmetry_cell_setting	triclinic
loop_
_symmetry_equiv_pos_as_xyz
  x,y,z
_cell_length_a	20.299480
_cell_length_b	20.298645
_cell_length_c	20.294903
_cell_angle_alpha	60.007695
_cell_angle_beta	60.015306
_cell_angle_gamma	59.991039
loop_
_atom_site_label
_atom_site_type_symbol
_atom_site_fract_x
_atom_site_fract_y
_atom_site_fract_z
O1	O	0.091305	-0.962534	0.804873
O2	O	0.034397	-0.749399	0.648508
O3	O	0.169355	-0.884263	0.648401
O4	O	-0.043654	-0.827670	0.804979
O5	O	0.214132	-0.839502	0.693072
O6	O	0.079173	-0.704639	0.693178
O7	O	0.136081	-0.917774	0.849544
Zn8	Zn	0.114736	-0.804099	0.778453
Zn9	Zn	0.055742	-0.863073	0.719598
O10	O	0.001122	-0.782910	0.849650
N11	N	0.155000	-0.763857	0.818624
N12	N	0.015485	-0.903322	0.679427
C13	C	0.179343	-0.615641	0.842971
C14	C	0.179443	-0.739552	0.966834
C15	C	0.303264	-0.739536	0.842917
C16	C	0.179356	-0.739528	0.842952
C17	C	0.210353	-0.708565	0.873918
C18	C	-0.132622	-0.927446	0.654695
C19	C	-0.008595	-0.927622	0.530981
C20	C	-0.008820	-1.051459	0.654914
C21	C	-0.008800	-0.927618	0.654995
C22	C	-0.039709	-0.958538	0.623897
N23	N	0.376268	-0.763873	0.818558
O24	O	0.652281	-0.777347	0.619856
O25	O	0.652556	-0.934198	0.832777
O26	O	0.652445	-0.933836	0.697731
O27	O	0.652392	-0.777709	0.754902
O28	O	0.518259	-0.889182	0.742556
O29	O	0.518369	-0.889544	0.877602
O30	O	0.518095	-0.732693	0.664680
Zn31	Zn	0.496927	-0.804029	0.778258
Zn32	Zn	0.673724	-0.862862	0.719200
O33	O	0.518205	-0.733055	0.799726
N34	N	0.794383	-0.903019	0.678891
N35	N	0.154981	-0.542636	0.818657
O36	O	-0.043628	-0.266455	0.805024
O37	O	0.169291	-0.266451	0.648191
O38	O	0.034217	-0.266468	0.648577
O39	O	0.091446	-0.266438	0.804638
O40	O	0.078998	-0.400670	0.693303
O41	O	0.214071	-0.400653	0.692918
O42	O	0.001152	-0.400657	0.849750
Zn43	Zn	0.114722	-0.421963	0.778435
Zn44	Zn	0.055722	-0.245145	0.719506
O45	O	0.136226	-0.400640	0.849364
N46	N	0.015453	-0.124472	0.679286
N47	N	0.155155	-0.763898	1.039838
O48	O	0.141555	-0.962488	1.315987
O49	O	-0.015254	-0.749480	1.316022
O50	O	-0.014890	-0.884527	1.315962
O51	O	0.141192	-0.827441	1.316047
O52	O	0.029815	-0.839777	1.181768
O53	O	0.029452	-0.704730	1.181828
O54	O	0.186261	-0.917739	1.181793
Zn55	Zn	0.114954	-0.804130	1.160504
Zn56	Zn	0.056053	-0.863089	1.337311
O57	O	0.185897	-0.782692	1.181853
N58	N	0.015850	-0.903330	1.457977
C59	C	0.051451	-0.700162	0.649301
C60	C	0.218580	-0.867175	0.649169
C61	C	0.119026	-0.967011	0.848750
C62	C	-0.048103	-0.799998	0.848882
C63	C	0.585495	-0.933471	0.882014
C64	C	0.585361	-0.933023	0.714775
C65	C	0.585151	-0.733419	0.615444
C66	C	0.585291	-0.733869	0.782682
C67	C	0.218449	-0.333386	0.648902
C68	C	0.051232	-0.333573	0.649435
C69	C	-0.048061	-0.333556	0.848984
C70	C	0.119212	-0.333537	0.848507
C71	C	-0.014496	-0.700269	1.248929
C72	C	-0.014037	-0.867500	1.248828
C73	C	0.185503	-0.966949	1.248886
C74	C	0.185054	-0.799709	1.248957
H75	H	0.279759	-0.879241	0.599998
C76	C	0.089965	-0.581818	0.561331
C77	C	0.035045	-0.617513	0.582999
H78	H	0.079831	-0.530792	0.520403
H79	H	0.143365	-0.615614	0.541697
H80	H	0.083933	-0.574828	0.607199
H81	H	0.041081	-0.624509	0.537133
H82	H	-0.018368	-0.583709	0.602631
H83	H	0.585279	-0.684826	0.794916
H84	H	0.585565	-0.982710	0.943168
H85	H	0.585383	-0.982069	0.702538
H86	H	0.585062	-0.684173	0.554297
H87	H	0.279471	-0.333012	0.599542
H88	H	0.131184	-1.028235	0.897860
C89	C	0.319537	-1.039107	1.179897
C90	C	0.251968	-1.049532	1.248871
H91	H	0.360567	-1.090091	1.179886
H92	H	0.339010	-1.005217	1.179927
H93	H	0.304860	-1.014954	1.133098
H94	H	0.266644	-1.073679	1.295670
H95	H	0.232493	-1.083435	1.248848
C96	C	-0.101824	-0.829038	1.179709
C97	C	-0.080211	-0.883946	1.248718
H98	H	-0.142681	-0.839190	1.179646
H99	H	-0.055924	-0.835066	1.132940
H100	H	-0.121539	-0.775620	1.179749
H101	H	-0.060491	-0.937365	1.248676
H102	H	-0.126120	-0.877925	1.295500
C103	C	0.222187	-0.704472	1.248993
C104	C	0.251256	-0.783228	1.248975
H105	H	0.263060	-0.694298	1.248999
H106	H	0.176318	-0.698457	1.295789
H107	H	0.207480	-0.667248	1.202195
H108	H	0.265957	-0.820452	1.295776
H109	H	0.297139	-0.789250	1.202174
C110	C	-0.044034	-0.333634	0.612342
C111	C	0.034707	-0.333614	0.583255
H112	H	-0.054230	-0.333674	0.571489
H113	H	-0.081254	-0.286827	0.627012
H114	H	-0.050015	-0.380426	0.658245
H115	H	0.040686	-0.286820	0.537356
H116	H	0.071937	-0.380427	0.568574
C117	C	0.080889	-0.264544	0.936353
C118	C	0.135755	-0.333532	0.914695
H119	H	0.091109	-0.264541	0.977210
H120	H	0.027476	-0.264553	0.956079
H121	H	0.086883	-0.217749	0.890459
H122	H	0.129757	-0.380327	0.960588
H123	H	0.189182	-0.333530	0.894972
C124	C	-0.180604	-0.333537	0.886732
C125	C	-0.130613	-0.333536	0.915450
H126	H	-0.231570	-0.333515	0.927763
H127	H	-0.156477	-0.380343	0.872093
H128	H	-0.187677	-0.286744	0.840871
H129	H	-0.123535	-0.380332	0.961307
H130	H	-0.154746	-0.286725	0.930101
H131	H	-0.109285	-0.787936	0.898049
H132	H	-0.063726	-0.639093	1.248939
