data_functionalizedCrystal
_audit_creation_method	'MofGen! by Chris Wilmer'
_symmetry_space_group_name_H-M	'P1'
_symmetry_Int_Tables_number	1
_symmetry_cell_setting	triclinic
loop_
_symmetry_equiv_pos_as_xyz
  x,y,z
_cell_length_a	14.971486
_cell_length_b	14.044220
_cell_length_c	14.048226
_cell_angle_alpha	89.992807
_cell_angle_beta	89.998499
_cell_angle_gamma	88.401503
loop_
_atom_site_label
_atom_site_type_symbol
_atom_site_fract_x
_atom_site_fract_y
_atom_site_fract_z
O1	O	1.196679	0.123538	-0.079053
O2	O	1.530012	0.456871	0.254280
O3	O	1.863346	0.790204	0.587614
O4	O	0.937444	0.138332	-0.079079
O5	O	1.270778	0.471665	0.254254
O6	O	1.604111	0.804998	0.587588
O7	O	1.063171	-0.007054	-0.079057
O8	O	1.396504	0.326279	0.254276
O9	O	1.729837	0.659612	0.587610
O10	O	1.070953	0.268924	-0.079075
O11	O	1.404286	0.602257	0.254258
O12	O	1.737619	0.935590	0.587592
O13	O	1.063153	-0.007063	0.079264
O14	O	1.396487	0.326270	0.412598
O15	O	1.729820	0.659604	0.745931
O16	O	0.937427	0.138323	0.079242
O17	O	1.270760	0.471656	0.412576
O18	O	1.604094	0.804990	0.745909
O19	O	1.196662	0.123529	0.079268
O20	O	1.529995	0.456863	0.412602
O21	O	1.863329	0.790196	0.745935
Zn22	Zn	1.067042	0.130925	0.104392
Zn23	Zn	1.400375	0.464258	0.437726
Zn24	Zn	1.733708	0.797591	0.771059
Zn25	Zn	1.067064	0.130936	-0.104203
Zn26	Zn	1.400398	0.464269	0.229130
Zn27	Zn	1.733731	0.797603	0.562464
O28	O	1.070936	0.268915	0.079246
O29	O	1.404269	0.602249	0.412580
O30	O	1.737602	0.935582	0.745913
C31	C	0.904059	0.137666	0.000078
C32	C	1.237392	0.470999	0.333412
C33	C	1.570726	0.804332	0.666745
C34	C	0.804606	0.135683	0.000069
C35	C	1.137939	0.469016	0.333402
C36	C	1.471272	0.802350	0.666735
C37	C	0.754109	0.221093	0.000064
C38	C	1.087442	0.554427	0.333398
C39	C	1.420775	0.887760	0.666731
C40	C	0.660662	0.219225	0.000079
C41	C	0.993995	0.552558	0.333412
C42	C	1.327329	0.885892	0.666745
C43	C	0.617714	0.131945	0.000090
C44	C	0.951047	0.465278	0.333424
C45	C	1.284381	0.798612	0.666757
C46	C	0.668218	0.046528	0.000097
C47	C	1.001551	0.379862	0.333431
C48	C	1.334884	0.713195	0.666764
C49	C	0.761663	0.048398	0.000090
C50	C	1.094996	0.381731	0.333423
C51	C	1.428329	0.715064	0.666757
C52	C	0.473449	0.042638	0.000111
C53	C	0.806782	0.375971	0.333444
C54	C	1.140115	0.709304	0.666777
C55	C	0.379997	0.040767	0.000117
C56	C	0.713331	0.374101	0.333450
C57	C	1.046664	0.707434	0.666783
C58	C	0.372448	0.213465	0.000100
C59	C	0.705782	0.546798	0.333433
C60	C	1.039115	0.880131	0.666766
C61	C	0.465893	0.215334	0.000092
C62	C	0.799226	0.548668	0.333425
C63	C	1.132560	0.882001	0.666759
C64	C	0.516390	0.129917	0.000097
C65	C	0.849724	0.463250	0.333431
C66	C	1.183057	0.796584	0.666764
C67	C	1.059755	-0.042377	0.000104
C68	C	1.393089	0.290956	0.333437
C69	C	1.726422	0.624290	0.666770
C70	C	1.049594	-0.147614	0.000104
C71	C	1.382928	0.185719	0.333437
C72	C	1.716261	0.519053	0.666770
C73	C	1.031018	-0.340297	0.000088
C74	C	1.364351	-0.006963	0.333422
C75	C	1.697684	0.326370	0.666755
C76	C	1.103085	-0.397848	0.000093
C77	C	1.436418	-0.064515	0.333426
C78	C	1.769751	0.268819	0.666759
C79	C	1.092748	-0.505063	0.000084
C80	C	1.426082	-0.171730	0.333417
C81	C	1.759415	0.161603	0.666751
C82	C	1.041353	-0.233071	0.000097
C83	C	1.374686	0.100262	0.333430
C84	C	1.708019	0.433595	0.666764
C85	C	1.230047	0.124195	0.000109
C86	C	1.563381	0.457528	0.333442
C87	C	1.896714	0.790862	0.666776
C88	C	1.329501	0.126178	0.000112
C89	C	1.662834	0.459511	0.333446
C90	C	1.996167	0.792844	0.666779
C91	C	1.074351	0.304238	0.000083
C92	C	1.407684	0.637571	0.333417
C93	C	1.741017	0.970904	0.666750
C94	C	1.084512	0.409475	0.000077
C95	C	1.417845	0.742808	0.333410
C96	C	1.751179	1.076142	0.666744
N97	N	1.067033	0.130916	0.246753
N98	N	1.400366	0.464250	0.580086
N99	N	1.733699	0.797583	0.913420
N100	N	1.067080	0.130937	-0.246564
N101	N	1.400413	0.464270	0.086770
N102	N	1.733747	0.797604	0.420103
C103	C	1.122726	0.066566	0.296581
C104	C	1.456059	0.399900	0.629914
C105	C	1.789392	0.733233	0.963247
C106	C	1.122732	0.066566	0.396238
C107	C	1.456065	0.399899	0.729572
C108	C	1.789398	0.733232	1.062905
C109	C	1.067049	0.130921	0.446066
C110	C	1.400382	0.464254	0.779400
C111	C	1.733715	0.797587	1.112733
C112	C	1.011350	0.195274	0.396232
C113	C	1.344683	0.528607	0.729565
C114	C	1.678016	0.861941	1.062898
C115	C	1.011340	0.195269	0.296576
C116	C	1.344673	0.528603	0.629909
C117	C	1.678006	0.861936	0.963242
C118	C	1.011376	0.195281	0.603946
C119	C	1.344709	0.528614	0.937279
C120	C	1.678043	0.861948	1.270612
C121	C	1.011387	0.195287	0.703609
C122	C	1.344720	0.528621	1.036942
C123	C	1.678054	0.861954	1.370275
C124	C	1.122768	0.066577	0.703608
C125	C	1.456101	0.399911	1.036942
C126	C	1.789435	0.733244	1.370275
C127	C	1.122758	0.066573	0.603953
C128	C	1.456091	0.399906	0.937286
C129	C	1.789425	0.733239	1.270619
C130	C	1.067060	0.130927	0.554125
C131	C	1.400393	0.464261	0.887458
C132	C	1.733727	0.797594	1.220791
H133	H	0.633242	-0.024537	0.000121
H134	H	0.966575	0.308797	0.333454
H135	H	1.299909	0.642130	0.666787
C136	C	0.332757	-0.055245	0.000131
C137	C	0.666090	0.278089	0.333465
C138	C	0.999423	0.611422	0.666798
N139	N	0.297175	-0.127563	0.000142
N140	N	0.630508	0.205771	0.333475
N141	N	0.963841	0.539104	0.666809
H142	H	0.961562	-0.371545	0.000079
H143	H	1.294895	-0.038211	0.333412
H144	H	1.628229	0.295122	0.666746
C145	C	1.183975	-0.004248	0.451044
C146	C	1.517308	0.329086	0.784378
C147	C	1.850642	0.662419	1.117711
N148	N	1.230097	-0.057596	0.492324
N149	N	1.563431	0.275737	0.825657
N150	N	1.896764	0.609070	1.158990
H151	H	0.802776	-0.021152	0.000093
H152	H	1.136110	0.312181	0.333426
H153	H	1.469443	0.645514	0.666760
C154	C	1.184033	-0.004217	0.758421
C155	C	1.517366	0.329116	1.091754
C156	C	1.850700	0.662449	1.425088
N157	N	1.230178	-0.057536	0.799710
N158	N	1.563511	0.275797	1.133044
N159	N	1.896844	0.609131	1.466377
H160	H	0.514561	-0.026919	0.000117
H161	H	0.847895	0.306415	0.333450
H162	H	1.181228	0.639748	0.666783
C163	C	0.950128	0.266075	0.758417
C164	C	1.283461	0.599409	1.091751
C165	C	1.616794	0.932742	1.425084
N166	N	0.903985	0.319393	0.799699
N167	N	1.237318	0.652726	1.133033
N168	N	1.570651	0.986060	1.466366
C169	C	0.605120	0.313183	0.000091
C170	C	0.938453	0.646517	0.333424
C171	C	1.271786	0.979850	0.666758
N172	N	0.563285	0.383957	0.000107
N173	N	0.896619	0.717290	0.333441
N174	N	1.229952	1.050624	0.666774
H175	H	0.789070	0.292167	0.000054
H176	H	1.122403	0.625500	0.333387
H177	H	1.455737	0.958833	0.666721
H178	H	0.500859	0.286405	0.000073
H179	H	0.834192	0.619738	0.333407
H180	H	1.167525	0.953072	0.666740
C181	C	1.196925	-0.355633	0.000116
C182	C	1.530258	-0.022300	0.333449
C183	C	1.863591	0.311033	0.666782
N184	N	1.267602	-0.323832	0.000138
N185	N	1.600935	0.009501	0.333471
N186	N	1.934269	0.342834	0.666804
C187	C	1.183982	-0.004231	0.241779
C188	C	1.517315	0.329102	0.575112
C189	C	1.850648	0.662436	0.908446
N190	N	1.230119	-0.057561	0.200505
N191	N	1.563452	0.275772	0.533839
N192	N	1.896785	0.609106	0.867172
C193	C	0.950095	0.266065	0.549137
C194	C	1.283428	0.599398	0.882471
C195	C	1.616762	0.932732	1.215804
N196	N	0.903939	0.319379	0.507856
N197	N	1.237272	0.652712	0.841189
N198	N	1.570605	0.986045	1.174522
H199	H	1.168104	0.014175	0.563383
H200	H	1.501437	0.347508	0.896716
H201	H	1.834770	0.680841	1.230049
C202	C	0.950081	0.266067	0.241766
C203	C	1.283414	0.599401	0.575099
C204	C	1.616748	0.932734	0.908432
N205	N	0.903940	0.319395	0.200484
N206	N	1.237273	0.652728	0.533817
N207	N	1.570606	0.986062	0.867151
H208	H	0.331329	0.283015	0.000099
H209	H	0.664662	0.616348	0.333433
H210	H	0.997995	0.949681	0.666766
H211	H	0.966007	0.247670	0.436807
H212	H	1.299340	0.581003	0.770141
H213	H	1.632674	0.914337	1.103474
