data_functionalizedCrystal
_audit_creation_method	'MofGen! by Chris Wilmer'
_symmetry_space_group_name_H-M	'P1'
_symmetry_Int_Tables_number	1
_symmetry_cell_setting	triclinic
loop_
_symmetry_equiv_pos_as_xyz
  x,y,z
_cell_length_a	10.686220
_cell_length_b	16.625546
_cell_length_c	10.685910
_cell_angle_alpha	94.382491
_cell_angle_beta	89.676032
_cell_angle_gamma	94.404440
loop_
_atom_site_label
_atom_site_type_symbol
_atom_site_fract_x
_atom_site_fract_y
_atom_site_fract_z
Zn1	Zn	1.972068	-0.196760	0.562377
Zn2	Zn	2.472068	0.303240	1.062377
Zn3	Zn	1.955874	-0.342634	0.352597
Zn4	Zn	2.455874	0.157366	0.852597
Zn5	Zn	1.746243	-0.217324	0.368687
Zn6	Zn	2.246243	0.282676	0.868687
Zn7	Zn	1.762233	-0.341073	0.578380
Zn8	Zn	2.262233	0.158927	1.078380
O9	O	1.859104	-0.274448	0.465510
O10	O	2.359104	0.225552	0.965510
O11	O	2.145468	-0.208158	0.521118
O12	O	2.645468	0.291842	1.021118
O13	O	1.914597	-0.335271	0.179180
O14	O	2.414597	0.164729	0.679180
O15	O	1.776285	-0.101758	0.394417
O16	O	2.276285	0.398242	0.894417
O17	O	2.133570	-0.315331	0.366993
O18	O	2.633570	0.184669	0.866993
O19	O	1.942197	-0.086650	0.536720
O20	O	2.442197	0.413350	1.036720
O21	O	1.760582	-0.243206	0.191002
O22	O	2.260582	0.256794	0.691002
O23	O	1.572816	-0.241692	0.409935
O24	O	2.072816	0.258308	0.909935
O25	O	1.803537	-0.312671	0.751807
O26	O	2.303537	0.187329	1.251807
O27	O	1.584564	-0.332611	0.563995
O28	O	2.084564	0.167389	1.063995
O29	O	1.957702	-0.206644	0.740050
O30	O	2.457702	0.293356	1.240050
O31	O	1.930101	-0.455266	0.382511
O32	O	2.430101	0.044734	0.882511
O33	O	1.787834	-0.454119	0.548392
O34	O	2.287834	0.045881	1.048392
C35	C	1.533173	-0.289214	0.490448
C36	C	2.033173	0.210786	0.990448
C37	C	1.393740	-0.295549	0.501147
C38	C	1.893740	0.204451	1.001147
C39	C	1.858982	-0.483947	0.465467
C40	C	2.358982	0.016053	0.965467
C41	C	1.859047	-0.573564	0.465481
C42	C	2.359047	-0.073564	0.965481
C43	C	1.859276	-0.901723	0.465595
C44	C	2.359276	-0.401723	0.965595
C45	C	1.859209	-0.810419	0.465567
C46	C	2.359209	-0.310419	0.965567
C47	C	1.859161	-0.737647	0.465538
C48	C	2.359161	-0.237647	0.965538
C49	C	1.859095	-0.646337	0.465511
C50	C	2.359095	-0.146337	0.965511
C51	C	2.186309	-0.259625	0.440475
C52	C	2.686309	0.240375	0.940475
C53	C	2.325744	-0.253308	0.429807
C54	C	2.825744	0.246692	0.929807
C55	C	1.884210	-0.257190	0.792720
C56	C	2.384210	0.242810	1.292720
C57	C	1.894908	-0.249835	0.932157
C58	C	2.394908	0.250165	1.432157
C59	C	1.859264	-0.064128	0.465579
C60	C	2.359264	0.435872	0.965579
C61	C	1.859332	0.025498	0.465608
C62	C	2.359332	0.525498	0.965608
C63	C	1.834090	-0.291659	1.139574
C64	C	2.334090	0.208341	1.639574
C65	C	1.823398	-0.299018	1.000136
C66	C	2.323398	0.200982	1.500136
H67	H	1.374200	-0.212298	0.360544
H68	H	1.874200	0.287702	0.860544
H69	H	1.345277	-0.336567	0.570406
H70	H	1.845277	0.163433	1.070406
H71	H	1.753995	-0.346754	0.951661
H72	H	2.253995	0.153246	1.451661
O73	O	1.977613	-0.192903	0.990185
O74	O	2.477613	0.307097	1.490185
C75	C	1.970262	-0.197993	1.121157
C76	C	2.470262	0.302007	1.621157
H77	H	1.874781	-0.227864	1.146331
H78	H	2.374781	0.272136	1.646331
H79	H	2.047464	-0.235620	1.152637
H80	H	2.547464	0.264380	1.652637
C81	C	2.104195	-0.075683	1.156776
C82	C	2.604195	0.424317	1.656776
C83	C	1.986919	-0.112365	1.187696
C84	C	2.486919	0.387635	1.687696
H85	H	2.114475	-0.022865	1.197822
H86	H	2.614475	0.477135	1.697822
H87	H	2.109152	-0.072255	1.068538
H88	H	2.609152	0.427745	1.568538
H89	H	2.168517	-0.107047	1.183011
H90	H	2.668517	0.392953	1.683011
H91	H	1.922600	-0.081006	1.161447
H92	H	2.422600	0.418994	1.661447
H93	H	1.981951	-0.115786	1.275932
H94	H	2.481951	0.384214	1.775932
