data_functionalizedCrystal
_audit_creation_method	'MofGen! by Chris Wilmer'
_symmetry_space_group_name_H-M	'P1'
_symmetry_Int_Tables_number	1
_symmetry_cell_setting	triclinic
loop_
_symmetry_equiv_pos_as_xyz
  x,y,z
_cell_length_a	19.805407
_cell_length_b	12.759393
_cell_length_c	19.805405
_cell_angle_alpha	90.037833
_cell_angle_beta	89.976273
_cell_angle_gamma	89.980254
loop_
_atom_site_label
_atom_site_type_symbol
_atom_site_fract_x
_atom_site_fract_y
_atom_site_fract_z
Zn1	Zn	1.034749	-0.594003	0.269470
Zn2	Zn	1.034660	-0.418305	0.382676
Zn3	Zn	0.921559	-0.418335	0.269501
Zn4	Zn	0.921527	-0.593939	0.382617
O5	O	0.978124	-0.506146	0.326066
O6	O	1.129453	-0.570711	0.284499
O7	O	1.019633	-0.271288	0.367700
O8	O	0.936625	-0.441678	0.174780
O9	O	1.129388	-0.441626	0.367670
O10	O	1.019785	-0.570740	0.174758
O11	O	0.936539	-0.271310	0.284550
O12	O	0.826839	-0.441616	0.284494
O13	O	0.936570	-0.740969	0.367571
O14	O	0.826815	-0.570631	0.367601
O15	O	1.019753	-0.741016	0.284443
O16	O	1.019601	-0.441563	0.477384
O17	O	0.936483	-0.570601	0.477342
C18	C	0.802268	-0.506120	0.326045
C19	C	0.727036	-0.506134	0.326052
C20	C	0.691726	-0.573451	0.282821
C21	C	0.621038	-0.573455	0.282825
C22	C	0.585660	-0.506147	0.326063
C23	C	0.620974	-0.438823	0.369296
C24	C	0.691662	-0.438814	0.369288
C25	C	0.335901	-0.438855	0.369326
C26	C	0.265209	-0.438871	0.369332
C27	C	0.265277	-0.573496	0.282863
C28	C	0.335964	-0.573487	0.282855
C29	C	0.371273	-0.506160	0.326085
C30	C	0.447921	-0.506155	0.326080
C31	C	0.509013	-0.506156	0.326072
C32	C	0.978168	-0.780179	0.325997
C33	C	0.978186	-0.896956	0.325968
C34	C	0.934938	-0.951836	0.282664
C35	C	0.934958	-1.061560	0.282644
C36	C	1.021482	-1.061515	0.369233
C37	C	1.021458	-0.951793	0.369256
C38	C	0.891666	-0.896999	0.239376
C39	C	0.848414	-0.951879	0.196068
C40	C	0.848435	-1.061603	0.196048
C41	C	0.891707	-1.116447	0.239335
C42	C	1.154666	-0.506172	0.326088
C43	C	1.229898	-0.506183	0.326097
C44	C	0.978047	-0.506095	0.501922
C45	C	0.978077	-0.506108	0.577154
C46	C	0.978119	-0.233178	0.326086
C47	C	0.978231	-0.116402	0.325925
C48	C	0.978219	-0.506220	0.149523
C49	C	0.978259	-0.506251	0.074291
C50	C	1.021398	-0.438989	0.612498
C51	C	1.021427	-0.439012	0.683186
C52	C	0.978130	-0.506150	0.718530
C53	C	0.934807	-0.573277	0.683181
C54	C	0.934782	-0.573258	0.612494
C55	C	0.934907	-0.573355	0.968254
C56	C	0.934933	-0.573366	1.038946
C57	C	1.021552	-0.439108	1.038947
C58	C	1.021527	-0.439090	0.968260
C59	C	0.978206	-0.506220	0.932917
C60	C	0.978177	-0.506196	0.856268
C61	C	0.978156	-0.506170	0.795177
H62	H	0.364765	-0.628300	0.247648
C63	C	0.272446	-0.706583	0.197391
C64	C	0.226465	-0.647501	0.235338
H65	H	0.248485	-0.752276	0.168058
H66	H	0.300011	-0.660881	0.171464
H67	H	0.300020	-0.746676	0.226920
H68	H	0.198895	-0.607402	0.205810
H69	H	0.198889	-0.693210	0.261268
C70	C	0.839102	-1.185059	0.104987
C71	C	0.800890	-1.121936	0.148454
H72	H	0.809748	-1.222310	0.075607
H73	H	0.868590	-1.142274	0.079107
H74	H	0.864875	-1.233415	0.130769
H75	H	0.775121	-1.073575	0.122671
H76	H	0.771390	-1.164725	0.174336
H77	H	0.891719	-1.205792	0.239317
H78	H	0.364641	-0.384034	0.404527
C79	C	1.059944	-1.229694	0.407635
C80	C	1.069052	-1.121798	0.416805
H81	H	1.089317	-1.266907	0.437001
H82	H	1.014472	-1.247667	0.417536
H83	H	1.069876	-1.247683	0.362152
H84	H	1.059114	-1.103807	0.462287
H85	H	1.114535	-1.103818	0.406909
H86	H	0.899632	-0.628013	0.939483
C87	C	1.106985	-0.962761	0.454845
C88	C	1.068995	-0.891460	0.416858
H89	H	1.136332	-0.925511	0.484232
H90	H	1.077489	-1.005545	0.480717
H91	H	1.132906	-1.005569	0.425345
H92	H	1.043070	-0.848656	0.446358
H93	H	1.098494	-0.848658	0.390984
C94	C	0.925380	-0.714601	0.762613
C95	C	0.887214	-0.647076	0.722031
H96	H	0.895995	-0.760154	0.786599
H97	H	0.954839	-0.754822	0.734994
H98	H	0.951182	-0.674616	0.793777
H99	H	0.861416	-0.687061	0.690864
H100	H	0.857744	-0.606850	0.749652
H101	H	0.813180	-0.907218	0.160828
C102	C	0.800113	-0.633226	0.244416
C103	C	0.730611	-0.647441	0.235293
H104	H	0.824116	-0.678909	0.215075
H105	H	0.811678	-0.562671	0.234455
H106	H	0.811680	-0.648474	0.289906
H107	H	0.719043	-0.632185	0.189805
H108	H	0.719041	-0.718012	0.245250
H109	H	0.891646	-0.807656	0.239386
H110	H	1.056828	-0.384452	1.067731
H111	H	1.056653	-0.384312	0.583726
H112	H	0.899506	-0.627915	0.583717
C113	C	1.107036	-0.306284	0.676087
C114	C	1.069044	-0.365225	0.722036
H115	H	1.136430	-0.260726	0.700073
H116	H	1.132900	-0.352084	0.648473
H117	H	1.077540	-0.266055	0.648560
H118	H	1.098540	-0.405461	0.749560
H119	H	1.043177	-0.319420	0.749662
H120	H	0.236406	-0.384057	0.404543
H121	H	0.592164	-0.384014	0.404498
C122	C	0.684499	-0.305752	0.454771
C123	C	0.730476	-0.364825	0.416814
H124	H	0.708462	-0.260077	0.484113
H125	H	0.656929	-0.265651	0.425254
H126	H	0.656931	-0.351470	0.480696
H127	H	0.758041	-0.319107	0.390885
H128	H	0.758058	-0.404928	0.446333
H129	H	0.592292	-0.628273	0.247623
H130	H	1.056781	-0.384416	0.939485
C131	C	0.849318	-0.706105	1.031849
C132	C	0.887344	-0.647180	1.077797
H133	H	0.819943	-0.751675	1.055836
H134	H	0.823430	-0.660295	1.004324
H135	H	0.878793	-0.746321	1.004233
H136	H	0.857868	-0.606958	1.105410
H137	H	0.913234	-0.692995	1.105334
