data_functionalizedCrystal
_audit_creation_method	'MofGen! by Chris Wilmer'
_symmetry_space_group_name_H-M	'P1'
_symmetry_Int_Tables_number	1
_symmetry_cell_setting	triclinic
loop_
_symmetry_equiv_pos_as_xyz
  x,y,z
_cell_length_a	18.215407
_cell_length_b	10.685194
_cell_length_c	18.215399
_cell_angle_alpha	94.396576
_cell_angle_beta	90.019833
_cell_angle_gamma	94.377432
loop_
_atom_site_label
_atom_site_type_symbol
_atom_site_fract_x
_atom_site_fract_y
_atom_site_fract_z
Zn1	Zn	1.102699	-0.502407	0.393658
Zn2	Zn	1.602699	-0.002407	0.893658
Zn3	Zn	1.093210	-0.713450	0.261159
Zn4	Zn	1.593210	-0.213450	0.761159
Zn5	Zn	0.979630	-0.502448	0.270604
Zn6	Zn	1.479630	-0.002448	0.770604
Zn7	Zn	0.970203	-0.713379	0.384187
Zn8	Zn	1.470203	-0.213379	0.884187
O9	O	1.036436	-0.607921	0.327402
O10	O	1.536436	-0.107921	0.827402
O11	O	1.204424	-0.530414	0.376093
O12	O	1.704424	-0.030414	0.876093
O13	O	1.078117	-0.685507	0.159425
O14	O	1.578117	-0.185507	0.659425
O15	O	1.003872	-0.325846	0.294844
O16	O	1.503872	0.174154	0.794844
O17	O	1.197452	-0.685467	0.278746
O18	O	1.697452	-0.185467	0.778746
O19	O	1.094291	-0.325815	0.385252
O20	O	1.594291	0.174185	0.885252
O21	O	0.994671	-0.530485	0.166365
O22	O	1.494671	-0.030485	0.666365
O23	O	0.875396	-0.530417	0.285660
O24	O	1.375396	-0.030417	0.785660
O25	O	0.987805	-0.685347	0.488430
O26	O	1.487805	-0.185347	0.988430
O27	O	0.868470	-0.685387	0.369109
O28	O	1.368470	-0.185387	0.869109
O29	O	1.085150	-0.530346	0.495388
O30	O	1.585150	-0.030346	0.995388
O31	O	1.068976	-0.890038	0.269562
O32	O	1.568976	-0.390038	0.769562
O33	O	0.978604	-0.889986	0.359950
O34	O	1.478604	-0.389986	0.859950
C35	C	0.845230	-0.607900	0.327382
C36	C	1.345230	-0.107900	0.827382
C37	C	0.763430	-0.607921	0.327389
C38	C	1.263430	-0.107921	0.827389
C39	C	0.571644	-0.688740	0.370776
C40	C	1.071644	-0.188740	0.870776
C41	C	0.494785	-0.688744	0.370785
C42	C	0.994785	-0.188744	0.870785
C43	C	0.501978	-0.527125	0.284043
C44	C	1.001978	-0.027125	0.784043
C45	C	0.578836	-0.527115	0.284038
C46	C	1.078836	-0.027115	0.784038
C47	C	0.613667	-0.607930	0.327404
C48	C	1.113667	-0.107930	0.827404
C49	C	0.459950	-0.607944	0.327417
C50	C	0.959950	-0.107944	0.827417
C51	C	0.376616	-0.607947	0.327427
C52	C	0.876616	-0.107947	0.827427
C53	C	0.697006	-0.607925	0.327395
C54	C	1.197006	-0.107925	0.827395
C55	C	1.021757	-0.935802	0.312719
C56	C	1.521757	-0.435802	0.812719
C57	C	1.015545	-1.076070	0.306462
C58	C	1.515545	-0.576070	0.806462
C59	C	1.228387	-0.607944	0.327423
C60	C	1.728387	-0.107944	0.827423
C61	C	1.310186	-0.607953	0.327431
C62	C	1.810186	-0.107953	0.827431
C63	C	1.036484	-0.607834	0.519359
C64	C	1.536484	-0.107834	1.019359
C65	C	1.036505	-0.607797	0.601159
C66	C	1.536505	-0.107797	1.101159
C67	C	1.051191	-0.278760	0.342158
C68	C	1.551191	0.221240	0.842158
C69	C	1.057480	-0.138492	0.348447
C70	C	1.557480	0.361508	0.848447
C71	C	1.036433	-0.607917	0.136196
C72	C	1.536433	-0.107917	0.636196
C73	C	1.036571	-0.607598	0.054412
C74	C	1.536571	-0.107598	0.554412
C75	C	1.087213	-0.527013	0.792982
C76	C	1.587213	-0.027013	1.292982
C77	C	1.087223	-0.526976	0.869842
C78	C	1.587223	-0.026976	1.369842
C79	C	0.985858	-0.688386	0.862584
C80	C	1.485858	-0.188386	1.362584
C81	C	0.985845	-0.688416	0.785725
C82	C	1.485845	-0.188416	1.285725
C83	C	1.036526	-0.607731	0.750926
C84	C	1.536526	-0.107731	1.250926
C85	C	1.036550	-0.607665	0.904645
C86	C	1.536550	-0.107665	1.404645
C87	C	1.036561	-0.607625	0.987981
C88	C	1.536561	-0.107625	1.487981
C89	C	1.036515	-0.607768	0.667585
C90	C	1.536515	-0.107768	1.167585
H91	H	0.460573	-0.754546	0.406105
H92	H	0.960573	-0.254546	0.906105
H93	H	0.473610	-0.461330	0.248735
H94	H	0.973610	0.038670	0.748735
H95	H	1.128479	-0.461311	0.764651
H96	H	1.628479	0.038689	1.264651
F97	F	0.623563	-0.441095	0.237877
F98	F	1.123563	0.058905	0.737877
F99	F	0.962394	-1.146483	0.253223
F100	F	1.462394	-0.646483	0.753223
F101	F	0.931925	-0.774256	0.899626
F102	F	1.431925	-0.274256	1.399626
F103	F	0.931891	-0.774325	0.740964
F104	F	1.431891	-0.274325	1.240964
F105	F	1.141175	-0.441073	0.914597
F106	F	1.641175	0.058927	1.414597
F107	F	1.110620	-1.068085	0.401691
F108	F	1.610620	-0.568085	0.901691
H109	H	0.600000	-0.754542	0.406089
H110	H	1.100000	-0.254542	0.906089
