data_functionalizedCrystal
_audit_creation_method	'MofGen! by Chris Wilmer'
_symmetry_space_group_name_H-M	'P1'
_symmetry_Int_Tables_number	1
_symmetry_cell_setting	triclinic
loop_
_symmetry_equiv_pos_as_xyz
  x,y,z
_cell_length_a	16.959447
_cell_length_b	16.959455
_cell_length_c	16.959454
_cell_angle_alpha	90.017022
_cell_angle_beta	90.026736
_cell_angle_gamma	90.014322
loop_
_atom_site_label
_atom_site_type_symbol
_atom_site_fract_x
_atom_site_fract_y
_atom_site_fract_z
Zn1	Zn	-0.446928	-1.208384	0.314730
Zn2	Zn	0.053072	-0.708384	0.814730
Zn3	Zn	-0.314758	-1.208306	0.446923
Zn4	Zn	0.185242	-0.708306	0.946923
Zn5	Zn	-0.314766	-1.076212	0.314755
Zn6	Zn	0.185234	-0.576212	0.814755
Zn7	Zn	-0.446897	-1.076177	0.446864
Zn8	Zn	0.053103	-0.576177	0.946864
O9	O	-0.380837	-1.142270	0.380818
O10	O	0.119163	-0.642270	0.880818
O11	O	-0.429406	-1.318984	0.332280
O12	O	0.070594	-0.818984	0.832280
O13	O	-0.204148	-1.190766	0.429426
O14	O	0.295852	-0.690766	0.929426
O15	O	-0.332314	-1.093792	0.204141
O16	O	0.167686	-0.593792	0.704141
O17	O	-0.332301	-1.318927	0.429402
O18	O	0.167699	-0.818927	0.929402
O19	O	-0.429413	-1.190898	0.204123
O20	O	0.070587	-0.690898	0.704123
O21	O	-0.204154	-1.093717	0.332323
O22	O	0.295846	-0.593717	0.832323
O23	O	-0.332283	-0.965597	0.332265
O24	O	0.167717	-0.465597	0.832265
O25	O	-0.557512	-1.093732	0.429301
O26	O	-0.057512	-0.593732	0.929301
O27	O	-0.429359	-0.965571	0.429325
O28	O	0.070641	-0.465571	0.929325
O29	O	-0.557535	-1.190864	0.332223
O30	O	-0.057535	-0.690864	0.832223
O31	O	-0.332270	-1.190732	0.557526
O32	O	0.167730	-0.690732	1.057526
O33	O	-0.429352	-1.093657	0.557482
O34	O	0.070648	-0.593657	1.057482
C35	C	-0.380819	-0.936904	0.380792
C36	C	0.119181	-0.436904	0.880792
C37	C	-0.380830	-0.849047	0.380800
C38	C	0.119170	-0.349047	0.880800
C39	C	-0.380824	-1.142204	0.586184
C40	C	0.119176	-0.642204	1.086184
C41	C	-0.380844	-1.142248	0.674041
C42	C	0.119156	-0.642248	1.174041
C43	C	-0.587006	-1.142303	0.380753
C44	C	-0.087006	-0.642303	0.880753
C45	C	-0.674862	-1.142317	0.380725
C46	C	-0.174862	-0.642317	0.880725
C47	C	-1.046328	-1.091839	0.431185
C48	C	-0.546328	-0.591839	0.931185
C49	C	-1.046348	-1.192983	0.330097
C50	C	-0.546348	-0.692983	0.830097
C51	C	-0.963802	-1.192962	0.330114
C52	C	-0.463802	-0.692962	0.830114
C53	C	-0.922515	-1.142380	0.380668
C54	C	-0.422515	-0.642380	0.880668
C55	C	-0.963775	-1.091818	0.431205
C56	C	-0.463775	-0.591818	0.931205
C57	C	-0.922536	-1.243529	0.279584
C58	C	-0.422536	-0.743529	0.779584
C59	C	-0.839985	-1.243510	0.279599
C60	C	-0.339985	-0.743510	0.779599
C61	C	-0.798697	-1.192923	0.330149
C62	C	-0.298697	-0.692923	0.830149
C63	C	-0.839962	-1.142359	0.380688
C64	C	-0.339962	-0.642359	0.880688
C65	C	-0.798675	-1.091776	0.431242
C66	C	-0.298675	-0.591776	0.931242
C67	C	-0.839938	-1.041207	0.481777
C68	C	-0.339938	-0.541207	0.981777
C69	C	-0.922487	-1.041231	0.481756
C70	C	-0.422487	-0.541231	0.981756
C71	C	-0.716149	-1.192899	0.330171
C72	C	-0.216149	-0.692899	0.830171
C73	C	-0.716122	-1.091755	0.431262
C74	C	-0.216122	-0.591755	0.931262
C75	C	-0.175471	-1.142283	0.380826
C76	C	0.324529	-0.642283	0.880826
C77	C	-0.087615	-1.142422	0.380631
C78	C	0.412385	-0.642422	0.880631
C79	C	-0.380856	-1.348438	0.380845
C80	C	0.119144	-0.848438	0.880845
C81	C	-0.380864	-1.436295	0.380856
C82	C	0.119136	-0.936295	0.880856
C83	C	-0.330395	-0.477560	0.330238
C84	C	0.169605	0.022440	0.830238
C85	C	-0.431324	-0.477582	0.431463
C86	C	0.068676	0.022418	0.931463
C87	C	-0.431320	-0.560128	0.431452
C88	C	0.068680	-0.060128	0.931452
C89	C	-0.380851	-0.601394	0.380834
C90	C	0.119149	-0.101394	0.880834
C91	C	-0.330387	-0.560114	0.330226
C92	C	0.169613	-0.060114	0.830226
C93	C	-0.481777	-0.601414	0.482064
C94	C	0.018223	-0.101414	0.982064
C95	C	-0.481773	-0.683965	0.482055
C96	C	0.018227	-0.183965	0.982055
C97	C	-0.431308	-0.725233	0.431432
C98	C	0.068692	-0.225233	0.931432
C99	C	-0.380843	-0.683948	0.380822
C100	C	0.119157	-0.183948	0.880822
C101	C	-0.330374	-0.725213	0.330204
C102	C	0.169626	-0.225213	0.830204
C103	C	-0.279913	-0.683930	0.279589
C104	C	0.220087	-0.183930	0.779589
C105	C	-0.279922	-0.601381	0.279603
C106	C	0.220078	-0.101381	0.779603
C107	C	-0.431299	-0.807781	0.431418
C108	C	0.068701	-0.307781	0.931418
C109	C	-0.330366	-0.807767	0.330193
C110	C	0.169634	-0.307767	0.830193
C111	C	-0.380868	-1.142358	0.174650
C112	C	0.119132	-0.642358	0.674650
C113	C	-0.380881	-1.142395	0.086793
C114	C	0.119119	-0.642395	0.586793
C115	C	-0.431382	-1.091796	1.045524
C116	C	0.068618	-0.591796	1.545524
C117	C	-0.330373	-1.192963	1.045509
C118	C	0.169627	-0.692963	1.545509
C119	C	-0.330365	-1.192936	0.962963
C120	C	0.169635	-0.692936	1.462963
C121	C	-0.380867	-1.142337	0.921694
C122	C	0.119133	-0.642337	1.421694
C123	C	-0.431375	-1.091765	0.962970
C124	C	0.068625	-0.591765	1.462970
C125	C	-0.279852	-1.243501	0.921680
C126	C	0.220148	-0.743501	1.421680
C127	C	-0.279842	-1.243475	0.839130
C128	C	0.220158	-0.743475	1.339130
C129	C	-0.330348	-1.192879	0.797859
C130	C	0.169652	-0.692879	1.297859
C131	C	-0.380859	-1.142306	0.839140
C132	C	0.119141	-0.642306	1.339140
C133	C	-0.431360	-1.091707	0.797871
C134	C	0.068640	-0.591707	1.297871
C135	C	-0.481876	-1.041137	0.839151
C136	C	0.018124	-0.541137	1.339151
C137	C	-0.481881	-1.041170	0.921699
C138	C	0.018119	-0.541170	1.421699
C139	C	-0.330343	-1.192847	0.715310
C140	C	0.169657	-0.692847	1.215310
C141	C	-0.431353	-1.091676	0.715317
C142	C	0.068647	-0.591676	1.215317
H143	H	-0.806312	-1.000026	0.522942
H144	H	-0.306312	-0.500026	1.022942
N145	N	-0.536199	-0.556899	0.536656
N146	N	-0.036199	-0.056899	1.036656
H147	H	-0.572886	-0.522670	0.504580
H148	H	-0.072886	-0.022670	1.004580
H149	H	-0.568112	-0.595619	0.568712
H150	H	-0.068112	-0.095619	1.068712
N151	N	-0.671639	-1.247447	0.275689
N152	N	-0.171639	-0.747447	0.775689
H153	H	-0.637390	-1.215344	0.239059
H154	H	-0.137390	-0.715344	0.739059
H155	H	-0.637434	-1.284031	0.307902
H156	H	-0.137434	-0.784031	0.807902
H157	H	-0.472513	-1.050626	1.079138
H158	H	0.027487	-0.550626	1.579138
H159	H	-0.522863	-0.717571	0.523268
H160	H	-0.022863	-0.217571	1.023268
N161	N	-0.275904	-1.247540	1.090009
N162	N	0.224096	-0.747540	1.590009
H163	H	-0.219417	-1.235295	1.075678
H164	H	0.280583	-0.735295	1.575678
H165	H	-0.283634	-1.239864	1.148554
H166	H	0.216366	-0.739864	1.648554
N167	N	-0.225371	-1.298056	0.966189
N168	N	0.274629	-0.798056	1.466189
H169	H	-0.233041	-1.290400	1.024747
H170	H	0.266959	-0.790400	1.524747
H171	H	-0.237708	-1.354499	0.951721
H172	H	0.262292	-0.854499	1.451721
N173	N	-0.275941	-0.852273	0.275587
N174	N	0.224059	-0.352273	0.775587
H175	H	-0.243980	-0.813593	0.243526
H176	H	0.256020	-0.313593	0.743526
H177	H	-0.239298	-0.886506	0.307707
H178	H	0.260702	-0.386506	0.807707
N179	N	-1.090826	-1.037283	0.485674
N180	N	-0.590826	-0.537283	0.985674
H181	H	-1.149386	-1.044963	0.477987
H182	H	-0.649386	-0.544963	0.977987
H183	H	-1.076392	-1.049545	0.542135
H184	H	-0.576392	-0.549545	1.042135
H185	H	-0.238711	-1.284651	0.805524
H186	H	0.261289	-0.784651	1.305524
N187	N	-1.090879	-1.247536	0.275577
N188	N	-0.590879	-0.747536	0.775577
H189	H	-1.076529	-1.235279	0.219102
H190	H	-0.576529	-0.735279	0.719102
H191	H	-1.076492	-1.303982	0.287929
H192	H	-0.576492	-0.803982	0.787929
H193	H	-0.956091	-1.000063	0.522901
H194	H	-0.456091	-0.500063	1.022901
H195	H	-0.238818	-0.717539	0.238379
H196	H	0.261182	-0.217539	0.738379
N197	N	-0.275861	-1.247376	0.670786
N198	N	0.224139	-0.747376	1.170786
H199	H	-0.243867	-1.279432	0.709456
H200	H	0.256133	-0.779432	1.209456
H201	H	-0.308064	-1.283926	0.636495
H202	H	0.191936	-0.783926	1.136495
N203	N	-0.536335	-0.986560	0.794630
N204	N	-0.036335	-0.486560	1.294630
H205	H	-0.572985	-1.018647	0.760333
H206	H	-0.072985	-0.518647	1.260333
H207	H	-0.568286	-0.954538	0.833348
H208	H	-0.068286	-0.454538	1.333348
H209	H	-0.682512	-1.050557	0.472422
H210	H	-0.182512	-0.550557	0.972422
H211	H	-0.956158	-1.284715	0.238430
H212	H	-0.456158	-0.784715	0.738430
N213	N	-0.795483	-1.298048	0.225097
N214	N	-0.295483	-0.798048	0.725097
H215	H	-0.834165	-1.330095	0.193070
H216	H	-0.334165	-0.830095	0.693070
H217	H	-0.761244	-1.265879	0.188520
H218	H	-0.261244	-0.765879	0.688520
H219	H	-0.238838	-0.567761	0.238397
H220	H	0.261162	-0.067761	0.738397
H221	H	-0.289313	-0.443944	0.289026
H222	H	0.210687	0.056056	0.789026
H223	H	-0.472381	-0.841390	0.472630
H224	H	0.027619	-0.341390	0.972630
N225	N	-0.485748	-0.433071	0.486058
N226	N	0.014252	0.066929	0.986058
H227	H	-0.522432	-0.398837	0.453985
H228	H	-0.022432	0.101163	0.953985
H229	H	-0.517664	-0.471795	0.518107
H230	H	-0.017664	0.028205	1.018107
N231	N	-0.485826	-1.037104	0.670807
N232	N	0.014174	-0.537104	1.170807
H233	H	-0.517825	-1.005077	0.709485
H234	H	-0.017825	-0.505077	1.209485
H235	H	-0.453615	-1.000530	0.636602
H236	H	0.046385	-0.500530	1.136602
H237	H	-0.523007	-0.999998	0.955317
H238	H	-0.023007	-0.499998	1.455317
