data_functionalizedCrystal
_audit_creation_method	'MofGen! by Chris Wilmer'
_symmetry_space_group_name_H-M	'P1'
_symmetry_Int_Tables_number	1
_symmetry_cell_setting	triclinic
loop_
_symmetry_equiv_pos_as_xyz
  x,y,z
_cell_length_a	17.639054
_cell_length_b	19.077068
_cell_length_c	19.076919
_cell_angle_alpha	85.529249
_cell_angle_beta	80.566498
_cell_angle_gamma	76.080428
loop_
_atom_site_label
_atom_site_type_symbol
_atom_site_fract_x
_atom_site_fract_y
_atom_site_fract_z
Zn1	Zn	1.176637	0.093343	-0.613945
Zn2	Zn	1.176539	0.206514	-0.500772
Zn3	Zn	1.049976	0.110516	-0.474104
Zn4	Zn	1.038865	0.235002	-0.594735
O5	O	1.110504	0.161344	-0.545889
O6	O	1.287249	0.089246	-0.618132
O7	O	1.164359	0.189044	-0.399387
O8	O	1.071468	0.008778	-0.489533
O9	O	1.287177	0.172392	-0.534984
O10	O	1.164526	-0.003839	-0.592273
O11	O	1.071373	0.118515	-0.379794
O12	O	0.937876	0.146139	-0.470907
O13	O	1.052531	0.220947	-0.695131
O14	O	0.929713	0.237599	-0.559534
O15	O	1.153752	0.116870	-0.709244
O16	O	1.153585	0.309753	-0.516358
O17	O	1.052436	0.330683	-0.585392
C18	C	0.905111	0.196824	-0.510242
C19	C	0.817241	0.212021	-0.495009
C20	C	0.693361	0.276652	-0.430182
C21	C	0.775928	0.262368	-0.444501
C22	C	0.775997	0.175942	-0.531223
C23	C	0.693428	0.190222	-0.516914
C24	C	0.652117	0.240578	-0.466393
C25	C	0.652184	0.154148	-0.553125
C26	C	0.569622	0.168424	-0.538814
C27	C	0.528305	0.218775	-0.488294
C28	C	0.569555	0.254854	-0.452082
C29	C	0.693497	0.103789	-0.603642
C30	C	0.652253	0.067714	-0.639853
C31	C	0.569690	0.081994	-0.625546
C32	C	0.528372	0.132345	-0.575026
C33	C	0.528440	0.045915	-0.661757
C34	C	0.445878	0.060192	-0.647447
C35	C	0.445811	0.146622	-0.560715
C36	C	1.101815	0.346004	-0.551704
C37	C	1.098169	0.424991	-0.554227
C38	C	1.101913	0.170171	-0.728268
C39	C	1.098252	0.173932	-0.805987
C40	C	1.316699	0.125725	-0.581676
C41	C	1.404567	0.110547	-0.596926
C42	C	1.119247	-0.024040	-0.540071
C43	C	1.122973	-0.103040	-0.537592
C44	C	1.149157	0.451173	-0.519514
C45	C	1.145732	0.525390	-0.521892
C46	C	1.091316	0.573423	-0.558980
C47	C	1.040326	0.547236	-0.593697
C48	C	1.043755	0.473020	-0.591323
C49	C	1.075413	0.796557	-0.569935
C50	C	1.071986	0.870778	-0.572305
C51	C	1.177393	0.848926	-0.500500
C52	C	1.180814	0.774710	-0.498126
C53	C	1.129827	0.748529	-0.532846
N54	N	1.087812	0.649285	-0.561410
N55	N	1.133335	0.672668	-0.530420
C56	C	1.149230	0.121515	-0.849848
C57	C	1.145780	0.125048	-0.922871
C58	C	1.091357	0.181002	-0.952033
C59	C	1.040374	0.233422	-0.908166
C60	C	1.043820	0.229885	-0.835143
C61	C	1.075396	0.197387	-1.169638
C62	C	1.071955	0.200921	-1.242667
C63	C	1.177361	0.092546	-1.257367
C64	C	1.180805	0.089017	-1.184343
C65	C	1.129820	0.141435	-1.140482
N66	N	1.087831	0.184616	-1.026675
N67	N	1.133342	0.137817	-1.065841
C68	C	1.119109	0.152492	-0.364226
C69	C	1.122933	0.148504	-0.286528
H70	H	0.809644	0.134941	-0.572356
H71	H	0.685900	0.026713	-0.680985
C72	C	0.987670	0.444219	-0.629508
H73	H	0.954767	0.483455	-0.651933
H74	H	1.017790	0.411488	-0.664311
H75	H	0.955843	0.419957	-0.595836
C76	C	1.209009	0.398340	-0.478712
H77	H	1.203744	0.350390	-0.482262
H78	H	1.261073	0.401777	-0.498584
H79	H	1.199122	0.410255	-0.430111
C80	C	0.980468	0.600071	-0.634491
H81	H	0.985721	0.648023	-0.630927
H82	H	0.990341	0.588164	-0.683090
H83	H	0.928404	0.596629	-0.614608
H84	H	1.193550	0.075953	-0.826111
C85	C	0.987763	0.287558	-0.786900
H86	H	0.954867	0.321397	-0.814726
H87	H	0.955940	0.264956	-0.751572
H88	H	1.017908	0.311918	-0.764647
C89	C	0.647913	0.332047	-0.374614
H90	H	0.684300	0.351489	-0.355094
H91	H	0.612998	0.369913	-0.396709
H92	H	0.618411	0.308905	-0.337747
H93	H	0.562088	0.004911	-0.702887
C94	C	1.240641	0.721879	-0.457298
H95	H	1.235366	0.673931	-0.460840
H96	H	1.292718	0.725298	-0.477145
H97	H	1.230726	0.733812	-0.408700
C98	C	1.233479	0.877723	-0.462315
H99	H	1.266374	0.838487	-0.439884
H100	H	1.265302	0.901986	-0.495985
H101	H	1.203359	0.910455	-0.427506
C102	C	1.019321	0.255047	-1.121398
H103	H	1.029158	0.244927	-1.073730
H104	H	1.028074	0.301382	-1.136873
H105	H	0.966129	0.254396	-1.123820
C106	C	1.012132	0.923613	-0.613110
H107	H	0.982262	0.897392	-0.633455
H108	H	0.977631	0.957256	-0.581294
H109	H	1.039584	0.948781	-0.649765
C110	C	1.201859	0.067392	-0.971116
H111	H	1.234772	0.033567	-0.943291
H112	H	1.171740	0.043023	-0.993381
H113	H	1.233677	0.090017	-1.006435
H114	H	1.225125	0.043455	-1.160606
H115	H	0.535917	0.295865	-0.410949
C116	C	0.821293	0.302064	-0.404675
H117	H	0.784862	0.334102	-0.372544
H118	H	0.856209	0.267794	-0.378977
H119	H	0.850787	0.328798	-0.437943
C120	C	0.400359	0.202014	-0.505146
H121	H	0.345282	0.205351	-0.501815
H122	H	0.416579	0.186932	-0.460194
H123	H	0.411168	0.247939	-0.519158
C124	C	1.019316	0.767769	-0.608111
H125	H	0.986410	0.807008	-0.630528
H126	H	1.049421	0.735035	-0.642918
H127	H	0.987492	0.743511	-0.574430
C128	C	1.012082	0.262468	-1.274746
H129	H	1.017340	0.257069	-1.324518
H130	H	0.960023	0.260657	-1.253233
H131	H	1.021962	0.307649	-1.266286
H132	H	0.760724	0.092164	-0.615289
C133	C	0.400506	0.020517	-0.687283
H134	H	0.436933	-0.011510	-0.719427
H135	H	0.371002	-0.006214	-0.654029
H136	H	0.365598	0.054804	-0.712982
H137	H	1.187251	0.546703	-0.493624
C138	C	1.233437	0.034887	-1.305611
H139	H	1.266346	0.001060	-1.277785
H140	H	1.203315	0.010522	-1.327877
H141	H	1.265260	0.057508	-1.340929
C142	C	0.980510	0.294971	-0.940242
H143	H	0.985763	0.289575	-0.990015
H144	H	0.928449	0.293166	-0.918728
H145	H	0.990398	0.340148	-0.931780
H146	H	0.461080	0.230387	-0.476632
