data_functionalizedCrystal
_audit_creation_method	'MofGen! by Chris Wilmer'
_symmetry_space_group_name_H-M	'P1'
_symmetry_Int_Tables_number	1
_symmetry_cell_setting	triclinic
loop_
_symmetry_equiv_pos_as_xyz
  x,y,z
_cell_length_a	12.759401
_cell_length_b	11.998008
_cell_length_c	12.021050
_cell_angle_alpha	90.069767
_cell_angle_beta	90.118819
_cell_angle_gamma	89.717787
loop_
_atom_site_label
_atom_site_type_symbol
_atom_site_fract_x
_atom_site_fract_y
_atom_site_fract_z
Zn1	Zn	1.609947	-0.760914	0.133656
Zn2	Zn	1.609435	-0.761869	-0.130010
Zn3	Zn	1.433440	-0.629285	0.001506
Zn4	Zn	1.434639	-0.893459	0.002141
O5	O	1.521865	-0.761382	0.001823
O6	O	1.756900	-0.761057	0.098679
O7	O	1.585373	-0.634124	-0.223174
O8	O	1.456567	-0.535789	0.129115
O9	O	1.756524	-0.761759	-0.095035
O10	O	1.586245	-0.632496	0.226205
O11	O	1.456071	-0.536715	-0.126550
O12	O	1.286578	-0.664312	0.001591
O13	O	1.458610	-0.986034	0.130197
O14	O	1.287459	-0.858399	0.002057
O15	O	1.587408	-0.888654	0.226820
O16	O	1.586536	-0.890282	-0.222559
O17	O	1.458114	-0.986960	-0.125468
C18	C	1.248898	-0.761353	0.001824
C19	C	1.132121	-0.761378	0.001824
C20	C	1.522358	-1.056913	-0.291896
C21	C	1.522320	-0.967327	-0.202616
Zn22	Zn	1.434821	-1.260748	-0.629674
Zn23	Zn	1.433601	-1.261045	-0.366015
Zn24	Zn	1.610713	-1.131025	-0.496228
Zn25	Zn	1.609002	-1.395182	-0.496864
O26	O	1.522034	-1.262000	-0.497195
O27	O	1.287641	-1.258940	-0.595786
O28	O	1.457300	-1.133371	-0.272679
O29	O	1.588608	-1.037559	-0.624006
O30	O	1.286745	-1.259158	-0.402077
O31	O	1.459380	-1.132865	-0.722048
O32	O	1.587424	-1.037846	-0.368346
O33	O	1.757504	-1.167914	-0.495226
O34	O	1.585692	-1.487775	-0.625090
O35	O	1.756247	-1.361988	-0.495693
O36	O	1.457721	-1.389007	-0.722665
O37	O	1.455641	-1.389513	-0.273296
O38	O	1.584508	-1.488063	-0.369431
C39	C	0.968020	-0.862463	0.001912
C40	C	1.077744	-0.862440	0.001910
C41	C	1.076769	-0.660332	0.001731
C42	C	0.967047	-0.660356	0.001725
C43	C	0.913649	-0.963532	0.002009
C44	C	0.968995	-1.064579	0.002100
C45	C	1.078718	-1.064556	0.002098
C46	C	1.133097	-0.963486	0.002003
C47	C	1.795899	-0.761412	0.001822
C48	C	1.912675	-0.761425	0.001822
C49	C	1.523205	-0.966702	0.207995
C50	C	1.523792	-1.055850	0.297496
C51	C	1.520594	-0.556793	-0.203480
C52	C	1.520222	-0.467425	-0.292761
C53	C	1.521322	-0.554566	0.206999
C54	C	1.521089	-0.464778	0.296076
C55	C	1.794996	-1.265431	-0.495178
C56	C	1.911770	-1.266937	-0.494315
C57	C	1.248007	-1.258556	-0.499221
C58	C	1.131233	-1.257089	-0.500084
C59	C	1.965948	-1.368683	-0.494001
C60	C	2.075669	-1.370091	-0.493212
C61	C	2.077025	-1.167997	-0.493047
C62	C	1.967306	-1.166590	-0.493844
C63	C	1.910412	-1.469030	-0.494472
C64	C	1.964590	-1.570784	-0.494156
C65	C	2.074311	-1.572192	-0.493368
C66	C	2.129855	-1.471846	-0.492895
H67	H	0.924712	-1.146866	0.002169
H68	H	1.222442	-0.963476	0.001992
H69	H	1.121052	-0.578046	0.001655
C70	C	1.907695	-1.054673	-0.494174
C71	C	1.922899	-0.971470	-0.397912
C72	C	1.863286	-0.859552	-0.398242
C73	C	1.788468	-0.830838	-0.494834
C74	C	1.773261	-0.914043	-0.591103
C75	C	1.832874	-1.025961	-0.590773
H76	H	1.978287	-0.992724	-0.326402
H77	H	1.874544	-0.797959	-0.326976
H78	H	1.744338	-0.747990	-0.495078
H79	H	1.717873	-0.892789	-0.662613
H80	H	1.821616	-1.087555	-0.662039
C81	C	0.906159	-0.549215	0.001646
C82	C	0.965960	-0.438042	0.001567
C83	C	0.905071	-0.326899	0.001491
C84	C	0.784381	-0.326927	0.001493
C85	C	0.724573	-0.438104	0.001571
C86	C	0.785462	-0.549248	0.001648
H87	H	1.055308	-0.438017	0.001566
H88	H	0.949345	-0.244599	0.001432
H89	H	0.739308	-0.244652	0.001436
H90	H	0.635225	-0.438129	0.001573
H91	H	0.741188	-0.631548	0.001707
H92	H	1.123778	-1.146833	0.002162
C93	C	2.133909	-1.684117	-0.493024
C94	C	2.072818	-1.794488	-0.493543
C95	C	2.132413	-1.906417	-0.493192
C96	C	2.253100	-1.907974	-0.492324
C97	C	2.314199	-1.797598	-0.491805
C98	C	2.254603	-1.685670	-0.492155
H99	H	1.983472	-1.793340	-0.494186
H100	H	2.087183	-1.988124	-0.493576
H101	H	2.297216	-1.990830	-0.492064
H102	H	2.403545	-1.798747	-0.491162
H103	H	2.299833	-1.603962	-0.491771
H104	H	1.821071	-1.467895	-0.495110
H105	H	2.219198	-1.473000	-0.492262
H106	H	1.919359	-1.652483	-0.494550
H107	H	0.824307	-0.963562	0.002014
H108	H	2.122258	-1.086300	-0.492660
