data_functionalizedCrystal
_audit_creation_method	'MofGen! by Chris Wilmer'
_symmetry_space_group_name_H-M	'P1'
_symmetry_Int_Tables_number	1
_symmetry_cell_setting	triclinic
loop_
_symmetry_equiv_pos_as_xyz
  x,y,z
_cell_length_a	10.654537
_cell_length_b	15.944551
_cell_length_c	9.130307
_cell_angle_alpha	89.995755
_cell_angle_beta	90.000617
_cell_angle_gamma	96.009642
loop_
_atom_site_label
_atom_site_type_symbol
_atom_site_fract_x
_atom_site_fract_y
_atom_site_fract_z
O1	O	-1.666316	0.117946	-0.121773
O2	O	-1.300691	0.129193	-0.121783
O3	O	-1.493488	0.001352	-0.121764
O4	O	-1.473519	0.245787	-0.121791
O5	O	-1.493482	0.001351	0.121835
O6	O	-1.300684	0.129191	0.121816
O7	O	-1.666310	0.117945	0.121826
Cu8	Cu	-1.483497	0.123568	0.144064
Cu9	Cu	-1.483504	0.123570	-0.144020
O10	O	-1.473513	0.245786	0.121808
C11	C	-1.253900	0.128368	0.000016
C12	C	-1.114488	0.125901	0.000012
C13	C	-1.492656	-0.029947	0.000035
C14	C	-1.490170	-0.123207	0.000036
C15	C	-1.084539	0.278766	-0.000023
C16	C	-1.004071	0.354037	-0.000045
C17	C	-0.873083	0.351714	-0.000045
C18	C	-0.822562	0.274112	-0.000018
C19	C	-0.903030	0.198842	0.000004
C20	C	-1.034020	0.201173	0.000000
C21	C	-0.932978	0.045978	0.000050
C22	C	-1.063967	0.048299	0.000039
C23	C	-0.882457	-0.031624	0.000077
C24	C	-0.962926	-0.106896	0.000089
C25	C	-1.093921	-0.104570	0.000088
C26	C	-1.144435	-0.026971	0.000062
C27	C	-1.364725	-0.338788	0.000013
C28	C	-1.422975	-0.399470	0.120123
C29	C	-1.485674	-0.293959	0.000025
C30	C	-1.423009	-0.399452	-0.120046
C31	C	-1.481322	-0.458897	0.000007
C32	C	-1.543957	-0.353413	0.120234
C33	C	-1.543975	-0.353388	-0.120043
C34	C	-1.602312	-0.414052	0.000097
C35	C	-1.488178	-0.198942	0.000036
C36	C	-1.478828	-0.553913	0.000007
C37	C	-0.713100	0.118773	0.000027
C38	C	-0.852510	0.121248	0.000027
C39	C	-1.474345	0.277085	0.000005
C40	C	-1.476830	0.370345	-0.000006
N41	N	-1.483501	0.123567	0.346686
N42	N	-1.483510	0.123565	-0.346643
C43	C	-1.654292	0.010397	0.346693
C44	C	-1.739695	-0.046185	0.423363
C45	C	-1.739708	-0.046186	0.576696
C46	C	-1.654305	0.010401	0.653363
C47	C	-1.568901	0.066983	0.576693
C48	C	-1.568900	0.066979	0.423356
C49	C	-1.398106	0.180147	0.576687
C50	C	-1.398098	0.180153	0.423354
C51	C	-1.312703	0.236733	0.653354
C52	C	-1.227303	0.293321	0.576684
C53	C	-1.227295	0.293320	0.423341
C54	C	-1.312694	0.236735	0.346684
H55	H	-1.191195	0.280666	-0.000055
Br56	Br	-1.197398	-0.284240	0.000193
H57	H	-1.312712	0.236727	0.778206
H58	H	-1.371840	-0.419823	-0.221598
H59	H	-1.045220	0.417219	-0.000064
H60	H	-0.921780	-0.170073	0.000110
Br61	Br	-0.644790	0.270961	0.000014
Br62	Br	-1.203119	-0.206729	0.000136
Br63	Br	-0.763870	0.453866	-0.000056
Br64	Br	-1.312698	0.236734	0.138587
H65	H	-1.157769	0.339385	0.639116
Br66	Br	-0.704686	-0.034778	0.000090
H67	H	-1.157744	0.339392	0.360925
Br68	Br	-1.769785	-0.468355	0.000204
H69	H	-1.251091	-0.025070	0.000043
Br70	Br	-1.337712	-0.433477	0.289369
H71	H	-1.809228	-0.092259	0.360927
Br72	Br	-1.629153	-0.319611	0.289665
H73	H	-1.595090	-0.332962	-0.221589
H74	H	-1.654300	0.010399	0.221841
H75	H	-1.809247	-0.092263	0.639121
Br76	Br	-1.654301	0.010387	0.861460
