data_functionalizedCrystal
_audit_creation_method	'MofGen! by Chris Wilmer'
_symmetry_space_group_name_H-M	'P1'
_symmetry_Int_Tables_number	1
_symmetry_cell_setting	triclinic
loop_
_symmetry_equiv_pos_as_xyz
  x,y,z
_cell_length_a	19.077105
_cell_length_b	19.077068
_cell_length_c	19.076919
_cell_angle_alpha	94.470751
_cell_angle_beta	90.076224
_cell_angle_gamma	90.115316
loop_
_atom_site_label
_atom_site_type_symbol
_atom_site_fract_x
_atom_site_fract_y
_atom_site_fract_z
Zn1	Zn	1.044048	-0.340450	-0.453500
Zn2	Zn	1.377382	-0.007117	-0.120166
Zn3	Zn	1.710715	0.326216	0.213167
Zn4	Zn	1.043962	-0.453600	-0.340340
Zn5	Zn	1.377295	-0.120267	-0.007007
Zn6	Zn	1.710628	0.213066	0.326326
Zn7	Zn	0.931660	-0.331023	-0.330931
Zn8	Zn	1.264993	0.002310	0.002403
Zn9	Zn	1.598327	0.335643	0.335736
Zn10	Zn	0.921801	-0.453176	-0.453077
Zn11	Zn	1.255134	-0.119842	-0.119743
Zn12	Zn	1.588468	0.213491	0.213590
O13	O	0.985368	-0.394562	-0.394462
O14	O	1.318701	-0.061229	-0.061129
O15	O	1.652034	0.272104	0.272205
O16	O	1.142196	-0.359583	-0.442604
O17	O	1.475530	-0.026250	-0.109270
O18	O	1.808863	0.307084	0.224063
O19	O	1.033154	-0.433572	-0.240616
O20	O	1.366488	-0.100239	0.092717
O21	O	1.699821	0.233094	0.426050
O22	O	0.950731	-0.233799	-0.343429
O23	O	1.284064	0.099534	-0.010095
O24	O	1.617398	0.432868	0.323238
O25	O	1.142133	-0.442714	-0.359466
O26	O	1.475466	-0.109380	-0.026133
O27	O	1.808799	0.223953	0.307200
O28	O	1.033302	-0.240725	-0.433479
O29	O	1.366636	0.092608	-0.100146
O30	O	1.699969	0.425942	0.233187
O31	O	0.950647	-0.343516	-0.233703
O32	O	1.283980	-0.010182	0.099630
O33	O	1.617313	0.323151	0.432964
O34	O	0.832193	-0.343104	-0.343019
O35	O	1.165526	-0.009771	-0.009685
O36	O	1.498859	0.323563	0.323648
O37	O	0.933928	-0.441990	-0.551609
O38	O	1.267261	-0.108657	-0.218276
O39	O	1.600594	0.224676	0.115058
O40	O	0.824949	-0.432849	-0.432759
O41	O	1.158283	-0.099516	-0.099426
O42	O	1.491616	0.233818	0.233908
O43	O	1.023742	-0.359171	-0.551919
O44	O	1.357076	-0.025838	-0.218586
O45	O	1.690409	0.307495	0.114747
O46	O	1.023594	-0.552019	-0.359056
O47	O	1.356928	-0.218685	-0.025723
O48	O	1.690261	0.114648	0.307610
O49	O	0.933844	-0.551707	-0.441883
O50	O	1.267177	-0.218374	-0.108550
O51	O	1.600510	0.114960	0.224783
C52	C	0.803119	-0.386908	-0.386822
C53	C	1.136453	-0.053575	-0.053489
C54	C	1.469786	0.279759	0.279844
C55	C	0.725151	-0.383651	-0.383571
C56	C	1.058485	-0.050318	-0.050238
C57	C	1.391818	0.283016	0.283095
C58	C	0.684769	-0.428912	-0.428699
C59	C	1.018102	-0.095578	-0.095365
C60	C	1.351436	0.237755	0.237968
C61	C	0.611510	-0.425842	-0.425647
C62	C	0.944843	-0.092509	-0.092314
C63	C	1.278176	0.240825	0.241019
C64	C	0.578634	-0.377515	-0.377464
C65	C	0.911968	-0.044182	-0.044131
C66	C	1.245301	0.289151	0.289202
C67	C	0.619022	-0.332250	-0.332335
C68	C	0.952355	0.001083	0.000999
C69	C	1.285689	0.334417	0.334332
C70	C	0.692280	-0.335317	-0.335390
C71	C	1.025613	-0.001983	-0.002057
C72	C	1.358946	0.331350	0.331276
C73	C	0.359940	-0.363323	-0.363326
C74	C	0.693273	-0.029990	-0.029993
C75	C	1.026607	0.303343	0.303340
C76	C	0.286677	-0.360262	-0.360273
C77	C	0.620010	-0.026928	-0.026939
C78	C	0.953344	0.306405	0.306394
C79	C	0.279170	-0.453853	-0.453586
C80	C	0.612503	-0.120520	-0.120253
C81	C	0.945836	0.212813	0.213080
C82	C	0.352429	-0.456918	-0.456635
C83	C	0.685762	-0.123585	-0.123301
C84	C	1.019096	0.209748	0.210032
C85	C	0.392810	-0.411651	-0.411508
C86	C	0.726144	-0.078317	-0.078175
C87	C	1.059477	0.255016	0.255159
N88	N	0.503752	-0.374378	-0.374342
N89	N	0.837085	-0.041045	-0.041009
N90	N	1.170419	0.292289	0.292324
N91	N	0.467691	-0.414785	-0.414634
N92	N	0.801025	-0.081451	-0.081300
N93	N	1.134358	0.251882	0.252033
C94	C	0.977658	-0.577398	-0.401461
C95	C	1.310992	-0.244064	-0.068128
C96	C	1.644325	0.089269	0.265206
C97	C	0.974423	-0.655619	-0.404482
C98	C	1.307756	-0.322285	-0.071148
C99	C	1.641090	0.011048	0.262185
C100	C	1.019665	-0.692509	-0.362816
C101	C	1.352998	-0.359176	-0.029483
C102	C	1.686332	-0.025843	0.303851
C103	C	1.016626	-0.766007	-0.365661
C104	C	1.349960	-0.432673	-0.032328
C105	C	1.683293	-0.099340	0.301005
C106	C	0.968342	-0.802612	-0.410169
C107	C	1.301675	-0.469279	-0.076836
C108	C	1.635009	-0.135945	0.256498
C109	C	0.923098	-0.765717	-0.451839
C110	C	1.256431	-0.432383	-0.118506
C111	C	1.589765	-0.099050	0.214827
C112	C	0.926141	-0.692221	-0.448997
C113	C	1.259474	-0.358888	-0.115664
C114	C	1.592807	-0.025554	0.217669
C115	C	0.954231	-1.022406	-0.423292
C116	C	1.287564	-0.689073	-0.089959
C117	C	1.620897	-0.355740	0.243374
C118	C	0.951190	-1.095907	-0.426130
C119	C	1.284523	-0.762574	-0.092796
C120	C	1.617857	-0.429241	0.240537
C121	C	1.044720	-1.096192	-0.339952
C122	C	1.378053	-0.762859	-0.006619
C123	C	1.711386	-0.429526	0.326714
C124	C	1.047755	-1.022695	-0.337111
C125	C	1.381089	-0.689361	-0.003778
C126	C	1.714422	-0.356028	0.329556
C127	C	1.002514	-0.985806	-0.378784
C128	C	1.335847	-0.652473	-0.045451
C129	C	1.669181	-0.319139	0.287883
N130	N	0.965233	-0.877738	-0.413077
N131	N	1.298566	-0.544405	-0.079743
N132	N	1.631900	-0.211072	0.253590
N133	N	1.005627	-0.910681	-0.375880
N134	N	1.338960	-0.577348	-0.042546
N135	N	1.672293	-0.244015	0.290787
C136	C	1.168328	-0.402247	-0.402132
C137	C	1.501661	-0.068914	-0.068798
C138	C	1.834995	0.264419	0.264535
C139	C	1.246295	-0.405522	-0.405400
C140	C	1.579628	-0.072189	-0.072067
C141	C	1.912961	0.261145	0.261266
C142	C	0.977745	-0.401585	-0.578012
C143	C	1.311078	-0.068252	-0.244679
C144	C	1.644412	0.265082	0.088655
C145	C	0.974497	-0.404578	-0.656230
C146	C	1.307830	-0.071244	-0.322897
C147	C	1.641163	0.262089	0.010437
C148	C	0.993126	-0.211015	-0.387451
C149	C	1.326459	0.122319	-0.054118
C150	C	1.659793	0.455652	0.279215
C151	C	0.996432	-0.132798	-0.384464
C152	C	1.329765	0.200536	-0.051131
C153	C	1.663099	0.533869	0.282203
C154	C	1.019730	-0.362866	-0.693140
C155	C	1.353063	-0.029533	-0.359806
C156	C	1.686396	0.303800	-0.026473
C157	C	1.016669	-0.365675	-0.766634
C158	C	1.350002	-0.032342	-0.433300
C159	C	1.683336	0.300992	-0.099967
C160	C	0.968378	-0.410200	-0.803216
C161	C	1.301712	-0.076866	-0.469883
C162	C	1.635045	0.256467	-0.136550
C163	C	0.923140	-0.451913	-0.766301
C164	C	1.256474	-0.118579	-0.432968
C165	C	1.589807	0.214754	-0.099635
C166	C	0.926198	-0.449100	-0.692809
C167	C	1.259531	-0.115766	-0.359475
C168	C	1.592865	0.217567	-0.026142
C169	C	0.954216	-0.423233	-1.022998
C170	C	1.287549	-0.089900	-0.689665
C171	C	1.620882	0.243434	-0.356332
C172	C	0.951163	-0.426044	-1.096496
C173	C	1.284496	-0.092711	-0.763163
C174	C	1.617830	0.240622	-0.429830
C175	C	1.044691	-0.339805	-1.096823
C176	C	1.378025	-0.006472	-0.763490
C177	C	1.711358	0.326861	-0.430157
C178	C	1.047748	-0.337000	-1.023329
C179	C	1.381081	-0.003666	-0.689996
C180	C	1.714414	0.329667	-0.356663
C181	C	1.002507	-0.378710	-0.986421
C182	C	1.335840	-0.045376	-0.653087
C183	C	1.669174	0.287957	-0.319754
N184	N	0.965250	-0.413073	-0.878339
N185	N	1.298583	-0.079740	-0.545006
N186	N	1.631917	0.253593	-0.211672
N187	N	1.005632	-0.375832	-0.911299
N188	N	1.338966	-0.042498	-0.577966
N189	N	1.672299	0.290835	-0.244632
C190	C	0.993003	-0.387518	-0.211626
C191	C	1.326337	-0.054185	0.121708
C192	C	1.659670	0.279149	0.455041
C193	C	0.996396	-0.384333	-0.133406
C194	C	1.329729	-0.051000	0.199927
C195	C	1.663063	0.282334	0.533261
H196	H	0.725159	-0.298457	-0.298646
H197	H	1.058492	0.034876	0.034687
H198	H	1.391825	0.368210	0.368021
O199	O	0.583569	-0.280141	-0.280347
O200	O	0.916902	0.053192	0.052987
O201	O	1.250236	0.386526	0.386320
H202	H	0.525844	-0.285623	-0.285791
H203	H	0.859177	0.047711	0.047542
H204	H	1.192510	0.381044	0.380876
O205	O	1.065421	-0.805797	-0.320720
O206	O	1.398754	-0.472464	0.012613
O207	O	1.732088	-0.139131	0.345947
H208	H	1.056302	-0.789114	-0.264434
H209	H	1.389635	-0.455780	0.068899
H210	H	1.722968	-0.122447	0.402233
H211	H	0.578633	-0.462699	-0.462394
H212	H	0.911967	-0.129365	-0.129061
H213	H	1.245300	0.203968	0.204272
H214	H	0.889357	-0.483058	-0.662757
H215	H	1.222691	-0.149725	-0.329424
H216	H	1.556024	0.183609	0.003910
O217	O	0.387882	-0.509052	-0.508598
O218	O	0.721216	-0.175719	-0.175264
O219	O	1.054549	0.157615	0.158069
H220	H	0.445607	-0.503588	-0.503133
H221	H	0.778941	-0.170255	-0.169799
H222	H	1.112274	0.163078	0.163534
H223	H	1.058980	-0.662710	-0.326570
H224	H	1.392314	-0.329376	0.006764
H225	H	1.725647	0.003957	0.340097
H226	H	0.259912	-0.320900	-0.321040
H227	H	0.593246	0.012433	0.012293
H228	H	0.926579	0.345767	0.345626
H229	H	1.087072	-0.992892	-0.300869
H230	H	1.420406	-0.659559	0.032464
H231	H	1.753739	-0.326225	0.365797
O232	O	0.899104	-1.135396	-0.474129
O233	O	1.232438	-0.802062	-0.140795
O234	O	1.565771	-0.468729	0.192538
H235	H	0.927597	-1.171537	-0.512556
H236	H	1.260930	-0.838203	-0.179223
H237	H	1.594263	-0.504870	0.154111
H238	H	0.392810	-0.326468	-0.326576
H239	H	0.726143	0.006865	0.006758
H240	H	1.059477	0.340198	0.340091
O241	O	0.905417	-0.982621	-0.468215
O242	O	1.238750	-0.649287	-0.134881
O243	O	1.572083	-0.315954	0.198452
H244	H	0.871321	-1.020424	-0.499627
H245	H	1.204654	-0.687090	-0.166293
H246	H	1.537987	-0.353757	0.167040
H247	H	1.081554	-1.126235	-0.306026
H248	H	1.414887	-0.792902	0.027308
H249	H	1.748220	-0.459568	0.360641
O250	O	0.235612	-0.502709	-0.502220
O251	O	0.568945	-0.169376	-0.168886
O252	O	0.902279	0.163958	0.164447
H253	H	0.270780	-0.536845	-0.536220
H254	H	0.604114	-0.203512	-0.202886
H255	H	0.937447	0.129821	0.130447
H256	H	0.889301	-0.662185	-0.482927
H257	H	1.222634	-0.328852	-0.149593
H258	H	1.555967	0.004481	0.183740
O259	O	0.871010	-0.805192	-0.499838
O260	O	1.204343	-0.471859	-0.166504
O261	O	1.537677	-0.138526	0.166829
H262	H	0.876486	-0.862496	-0.494807
H263	H	1.209819	-0.529163	-0.161473
H264	H	1.543153	-0.195829	0.171860
H265	H	1.059056	-0.326612	-0.663360
H266	H	1.392389	0.006721	-0.330026
H267	H	1.725722	0.340055	0.003307
H268	H	1.053504	-0.331711	-0.796682
H269	H	1.386838	0.001622	-0.463349
H270	H	1.720171	0.334956	-0.130016
H271	H	0.711530	-0.468267	-0.467932
H272	H	1.044864	-0.134933	-0.134599
H273	H	1.378197	0.198400	0.198734
O274	O	0.871053	-0.499935	-0.805757
O275	O	1.204386	-0.166601	-0.472423
O276	O	1.537720	0.166732	-0.139090
H277	H	0.817098	-0.485005	-0.788882
H278	H	1.150432	-0.151672	-0.455548
H279	H	1.483765	0.181661	-0.122215
O280	O	1.099835	-0.288980	-0.983872
O281	O	1.433169	0.044353	-0.650538
O282	O	1.766502	0.377686	-0.317205
H283	H	1.130774	-0.260444	-1.021885
H284	H	1.464107	0.072889	-0.688552
H285	H	1.797441	0.406222	-0.355218
O286	O	1.093465	-0.294798	-1.136628
O287	O	1.426799	0.038536	-0.803295
O288	O	1.760132	0.371869	-0.469962
H289	H	1.083219	-0.304221	-1.193878
H290	H	1.416553	0.029112	-0.860544
H291	H	1.749886	0.362445	-0.527211
H292	H	0.911836	-0.462303	-1.126280
H293	H	1.245170	-0.128970	-0.792947
H294	H	1.578503	0.204364	-0.459613
O295	O	0.905389	-0.468180	-0.983190
O296	O	1.238723	-0.134847	-0.649856
O297	O	1.572056	0.198486	-0.316523
H298	H	0.871289	-0.499603	-1.020977
H299	H	1.204623	-0.166270	-0.687643
H300	H	1.537956	0.167064	-0.354310
