data_functionalizedCrystal
_audit_creation_method	'MofGen! by Chris Wilmer'
_symmetry_space_group_name_H-M	'P1'
_symmetry_Int_Tables_number	1
_symmetry_cell_setting	triclinic
loop_
_symmetry_equiv_pos_as_xyz
  x,y,z
_cell_length_a	15.944551
_cell_length_b	11.026607
_cell_length_c	9.482900
_cell_angle_alpha	78.599815
_cell_angle_beta	80.714234
_cell_angle_gamma	83.957623
loop_
_atom_site_label
_atom_site_type_symbol
_atom_site_fract_x
_atom_site_fract_y
_atom_site_fract_z
O1	O	1.148389	-0.137536	-0.120735
O2	O	0.906759	-0.156827	-0.120771
O3	O	1.007547	0.029473	-0.120751
O4	O	1.047600	-0.323836	-0.120755
O5	O	0.987098	-0.008521	0.121038
O6	O	0.886310	-0.194821	0.121018
O7	O	1.127939	-0.175530	0.121053
Cu8	Cu	1.005257	-0.188644	0.143113
Cu9	Cu	1.029441	-0.143713	-0.142830
O10	O	1.027151	-0.361830	0.121033
C11	C	0.865120	-0.175022	0.000119
C12	C	0.771512	-0.172618	0.000105
C13	C	0.989934	0.055688	0.000141
C14	C	0.967908	0.190405	0.000132
N15	N	0.988254	-0.220246	0.344229
C16	C	0.538328	-0.051403	0.000135
C17	C	0.495900	-0.088961	-0.119080
C18	C	0.600128	-0.168276	0.000123
C19	C	0.475765	-0.126447	0.119304
C20	C	0.434577	-0.164075	0.000146
C21	C	0.558941	-0.205850	-0.119191
C22	C	0.538801	-0.243337	0.119300
C23	C	0.496405	-0.280975	0.000056
C24	C	0.695497	-0.170693	0.000108
C25	C	0.339212	-0.161665	0.000150
C26	C	1.169579	-0.157334	0.000160
C27	C	1.263188	-0.159737	0.000164
C28	C	1.044765	-0.388044	0.000139
C29	C	1.066792	-0.522760	0.000137
C30	C	1.028727	0.264204	0.000139
C31	C	1.005963	0.403442	0.000131
N32	N	1.046450	-0.112101	-0.343947
C33	C	1.024419	-0.153027	0.416436
C34	C	1.010279	-0.179330	0.583850
H35	H	0.557011	0.045616	-0.000011
H36	H	0.594929	-0.239392	-0.220088
N37	N	0.564087	-0.329759	0.252783
H38	H	0.548031	-0.416139	0.253715
H39	H	0.533489	-0.299591	0.342736
N40	N	0.933366	-0.322265	0.426500
H41	H	0.931043	-0.326591	0.534434
H42	H	0.958472	-0.404151	0.399972
H43	H	0.937038	0.443336	0.000111
N44	N	1.120023	0.211364	0.000169
H45	H	1.157484	0.279743	0.000174
H46	H	1.139386	0.173541	-0.089461
N47	N	0.470641	-0.002514	-0.252578
H48	H	0.502096	-0.031643	-0.342620
H49	H	0.485680	0.084156	-0.252360
H50	H	0.477930	-0.378061	-0.000012
H51	H	1.065846	-0.076001	0.354316
N52	N	0.427961	-0.081927	0.252805
H53	H	0.443029	0.004798	0.252693
H54	H	0.444223	-0.139425	0.342773
N55	N	1.158097	0.424424	0.000150
H56	H	1.177536	0.386617	-0.089478
H57	H	1.162310	0.358507	0.089843
H58	H	0.898986	0.230305	0.000113
N59	N	0.955389	-0.281353	0.666115
H60	H	0.953066	-0.285680	0.774049
H61	H	0.980495	-0.363240	0.639587
H62	H	1.087879	-0.035070	0.593937
