data_functionalizedCrystal
_audit_creation_method	'MofGen! by Chris Wilmer'
_symmetry_space_group_name_H-M	'P1'
_symmetry_Int_Tables_number	1
_symmetry_cell_setting	triclinic
loop_
_symmetry_equiv_pos_as_xyz
  x,y,z
_cell_length_a	12.759401
_cell_length_b	13.032721
_cell_length_c	12.759393
_cell_angle_alpha	97.148028
_cell_angle_beta	89.978811
_cell_angle_gamma	97.204431
loop_
_atom_site_label
_atom_site_type_symbol
_atom_site_fract_x
_atom_site_fract_y
_atom_site_fract_z
Zn1	Zn	1.553097	-0.415976	-0.647138
Zn2	Zn	1.530656	-0.590758	-0.493761
Zn3	Zn	1.377392	-0.416030	-0.471476
Zn4	Zn	1.355062	-0.590676	-0.669384
O5	O	1.454052	-0.503360	-0.570439
O6	O	1.697140	-0.439172	-0.626808
O7	O	1.510278	-0.567636	-0.343791
O8	O	1.419437	-0.269786	-0.476141
O9	O	1.680652	-0.567584	-0.514123
O10	O	1.548526	-0.269746	-0.605199
O11	O	1.397676	-0.439264	-0.327418
O12	O	1.227410	-0.439186	-0.497712
O13	O	1.381379	-0.567445	-0.813447
O14	O	1.211005	-0.567498	-0.643114
O15	O	1.526874	-0.439094	-0.797102
O16	O	1.488626	-0.736984	-0.535694
O17	O	1.359618	-0.736924	-0.664723
C18	C	1.181087	-0.503340	-0.570410
C19	C	1.064308	-0.503356	-0.570425
C20	C	0.891138	-0.570136	-0.511685
C21	C	1.000864	-0.570117	-0.511653
C22	C	1.018021	-0.436602	-0.629225
C23	C	0.908297	-0.436617	-0.629250
C24	C	0.881233	-0.647223	-0.443810
C25	C	0.990959	-0.647204	-0.443777
C26	C	1.419292	-0.774872	-0.605064
C27	C	1.404518	-0.891026	-0.619912
C28	C	1.461818	-0.942805	-0.562738
C29	C	1.446550	-1.062857	-0.578082
C30	C	1.728082	-0.503381	-0.570470
C31	C	1.844858	-0.503390	-0.570483
C32	C	1.454139	-0.503254	-0.844459
C33	C	1.454176	-0.503209	-0.961230
C34	C	1.488976	-0.230788	-0.535703
C35	C	1.503858	-0.114634	-0.520900
C36	C	1.529945	-0.436370	-1.007583
C37	C	1.529975	-0.436333	-1.117302
C38	C	1.378462	-0.569982	-1.134308
C39	C	1.378428	-0.570014	-1.024590
C40	C	1.617423	-0.359212	-0.997766
C41	C	1.617453	-0.359174	-1.107486
C42	C	1.454035	-0.503389	-0.297476
C43	C	1.454239	-0.503140	-0.180668
H44	H	1.028663	-0.618123	-0.362810
Cl45	Cl	1.587518	-0.240513	-1.144918
H46	H	1.069687	-0.382237	-0.677070
Cl47	Cl	0.839477	-0.613621	-0.313964
Cl48	Cl	1.738807	-0.392626	-1.157744
H49	H	1.605997	-0.278281	-0.957682
Cl50	Cl	1.555020	-0.874038	-0.469629
Cl51	Cl	1.283242	-0.653960	-1.213967
H52	H	0.870622	-0.382258	-0.677120
Cl53	Cl	0.813516	-0.765976	-0.503773
Cl54	Cl	1.731000	-0.404000	-0.950929
Cl55	Cl	1.020977	-0.772190	-0.493151
Cl56	Cl	1.353356	-1.131620	-0.671207
H57	H	1.564227	-1.070092	-0.460591
H58	H	1.344162	-0.935572	-0.680224
Cl59	Cl	1.283156	-0.654027	-0.966320
