data_functionalizedCrystal
_audit_creation_method	'MofGen! by Chris Wilmer'
_symmetry_space_group_name_H-M	'P1'
_symmetry_Int_Tables_number	1
_symmetry_cell_setting	triclinic
loop_
_symmetry_equiv_pos_as_xyz
  x,y,z
_cell_length_a	16.625547
_cell_length_b	16.120484
_cell_length_c	16.120297
_cell_angle_alpha	95.614431
_cell_angle_beta	92.874036
_cell_angle_gamma	92.925712
loop_
_atom_site_label
_atom_site_type_symbol
_atom_site_fract_x
_atom_site_fract_y
_atom_site_fract_z
Zn1	Zn	1.191152	-0.356754	-0.489547
Zn2	Zn	1.441152	-0.106754	-0.239547
Zn3	Zn	1.691152	0.143246	0.010453
Zn4	Zn	1.941152	0.393246	0.260453
Zn5	Zn	1.191051	-0.489444	-0.356858
Zn6	Zn	1.441051	-0.239444	-0.106858
Zn7	Zn	1.691051	0.010556	0.143142
Zn8	Zn	1.941051	0.260556	0.393142
Zn9	Zn	1.063517	-0.349689	-0.349783
Zn10	Zn	1.313517	-0.099689	-0.099783
Zn11	Zn	1.563517	0.150311	0.150217
Zn12	Zn	1.813517	0.400311	0.400217
Zn13	Zn	1.049081	-0.496484	-0.496569
Zn14	Zn	1.299081	-0.246484	-0.246569
Zn15	Zn	1.549081	0.003516	0.003431
Zn16	Zn	1.799081	0.253516	0.253431
O17	O	1.123700	-0.423093	-0.423189
O18	O	1.373700	-0.173093	-0.173189
O19	O	1.623700	0.076907	0.076811
O20	O	1.873700	0.326907	0.326811
O21	O	1.303970	-0.374366	-0.471968
O22	O	1.553970	-0.124366	-0.221968
O23	O	1.803970	0.125634	0.028032
O24	O	2.053970	0.375634	0.278032
O25	O	1.180132	-0.465002	-0.238958
O26	O	1.430132	-0.215002	0.011042
O27	O	1.680132	0.034998	0.261042
O28	O	1.930132	0.284998	0.511042
O29	O	1.086532	-0.233661	-0.362424
O30	O	1.336532	0.016339	-0.112424
O31	O	1.586532	0.266339	0.137576
O32	O	1.836532	0.516339	0.387576
O33	O	1.303895	-0.471852	-0.374481
O34	O	1.553895	-0.221852	-0.124481
O35	O	1.803895	0.028148	0.125519
O36	O	2.053895	0.278148	0.375519
O37	O	1.180306	-0.238852	-0.465108
O38	O	1.430306	0.011148	-0.215108
O39	O	1.680306	0.261148	0.034892
O40	O	1.930306	0.511148	0.284892
O41	O	1.086434	-0.362325	-0.233760
O42	O	1.336434	-0.112325	0.016240
O43	O	1.586434	0.137675	0.266240
O44	O	1.836434	0.387675	0.516240
O45	O	0.948771	-0.369152	-0.369233
O46	O	1.198771	-0.119152	-0.119233
O47	O	1.448771	0.130848	0.130767
O48	O	1.698771	0.380848	0.380767
O49	O	1.061928	-0.483852	-0.612599
O50	O	1.311928	-0.233852	-0.362599
O51	O	1.561928	0.016148	-0.112599
O52	O	1.811928	0.266148	0.137401
O53	O	0.938165	-0.477001	-0.477076
O54	O	1.188165	-0.227001	-0.227076
O55	O	1.438165	0.022999	0.022924
O56	O	1.688165	0.272999	0.272924
O57	O	1.166307	-0.381193	-0.607440
O58	O	1.416307	-0.131193	-0.357440
O59	O	1.666307	0.118807	-0.107440
O60	O	1.916307	0.368807	0.142560
O61	O	1.166134	-0.607343	-0.381290
O62	O	1.416134	-0.357343	-0.131290
O63	O	1.666134	-0.107343	0.118710
O64	O	1.916134	0.142657	0.368710
O65	O	1.061829	-0.612515	-0.483935
O66	O	1.311829	-0.362515	-0.233935
O67	O	1.561829	-0.112515	0.016065
O68	O	1.811829	0.137485	0.266065
C69	C	0.914212	-0.423075	-0.423149
C70	C	1.164212	-0.173075	-0.173149
C71	C	1.414212	0.076925	0.076851
C72	C	1.664212	0.326925	0.326851
C73	C	0.824590	-0.423088	-0.423152
C74	C	1.074590	-0.173088	-0.173152
C75	C	1.324590	0.076912	0.076848
C76	C	1.574590	0.326912	0.326848
C77	C	0.751807	-0.423090	-0.423163
C78	C	1.001807	-0.173090	-0.173163
C79	C	1.251807	0.076910	0.076837
C80	C	1.501807	0.326910	0.326837
C81	C	0.660498	-0.423096	-0.423184
C82	C	0.910498	-0.173096	-0.173184
C83	C	1.160498	0.076904	0.076816
C84	C	1.410498	0.326904	0.326816
C85	C	0.587720	-0.423104	-0.423206
C86	C	0.837720	-0.173104	-0.173206
C87	C	1.087720	0.076896	0.076794
C88	C	1.337720	0.326896	0.326794
C89	C	0.496404	-0.423111	-0.423226
C90	C	0.746404	-0.173111	-0.173226
C91	C	0.996404	0.076889	0.076774
C92	C	1.246404	0.326889	0.326774
C93	C	1.112425	-0.640258	-0.434160
C94	C	1.362425	-0.390258	-0.184160
C95	C	1.612425	-0.140258	0.065840
C96	C	1.862425	0.109742	0.315840
C97	C	1.107674	-0.733163	-0.438882
C98	C	1.357674	-0.483163	-0.188882
C99	C	1.607674	-0.233163	0.061118
C100	C	1.857674	0.016837	0.311118
C101	C	1.099003	-0.903263	-0.447519
C102	C	1.349003	-0.653263	-0.197519
C103	C	1.599003	-0.403263	0.052481
C104	C	1.849003	-0.153263	0.302481
C105	C	1.148542	-0.942083	-0.398873
C106	C	1.398542	-0.692083	-0.148873
C107	C	1.648542	-0.442083	0.101127
C108	C	1.898542	-0.192083	0.351127
C109	C	1.143717	-1.036732	-0.403679
C110	C	1.393717	-0.786732	-0.153679
C111	C	1.643717	-0.536732	0.096321
C112	C	1.893717	-0.286732	0.346321
C113	C	1.103826	-0.808605	-0.442715
C114	C	1.353826	-0.558605	-0.192715
C115	C	1.603826	-0.308605	0.057285
C116	C	1.853826	-0.058605	0.307285
C117	C	1.334006	-0.423112	-0.423230
C118	C	1.584006	-0.173112	-0.173230
C119	C	1.834006	0.076888	0.076770
C120	C	2.084006	0.326888	0.326770
C121	C	1.423626	-0.423120	-0.423248
C122	C	1.673626	-0.173120	-0.173248
C123	C	1.923626	0.076880	0.076752
C124	C	2.173626	0.326880	0.326752
C125	C	1.112518	-0.434096	-0.641194
C126	C	1.362518	-0.184096	-0.391194
C127	C	1.612518	0.065904	-0.141194
C128	C	1.862518	0.315904	0.108806
C129	C	1.107753	-0.438784	-0.734095
C130	C	1.357753	-0.188784	-0.484095
C131	C	1.607753	0.061216	-0.234095
C132	C	1.857753	0.311216	0.015905
C133	C	1.135041	-0.205081	-0.412193
C134	C	1.385041	0.044919	-0.162193
C135	C	1.635041	0.294919	0.087807
C136	C	1.885041	0.544919	0.337807
C137	C	1.139873	-0.112177	-0.407508
C138	C	1.389873	0.137823	-0.157508
C139	C	1.639873	0.387823	0.092492
C140	C	1.889873	0.637823	0.342492
C141	C	1.099025	-0.447326	-0.904184
C142	C	1.349025	-0.197326	-0.654184
C143	C	1.599025	0.052674	-0.404184
C144	C	1.849025	0.302674	-0.154184
C145	C	1.148547	-0.398609	-0.943033
C146	C	1.398547	-0.148609	-0.693033
C147	C	1.648547	0.101391	-0.443033
C148	C	1.898547	0.351391	-0.193033
C149	C	1.143691	-0.403362	-1.037677
C150	C	1.393691	-0.153362	-0.787677
C151	C	1.643691	0.096638	-0.537677
C152	C	1.893691	0.346638	-0.287677
C153	C	1.103880	-0.442574	-0.809532
C154	C	1.353880	-0.192574	-0.559532
C155	C	1.603880	0.057426	-0.309532
C156	C	1.853880	0.307426	-0.059532
C157	C	1.134888	-0.412073	-0.206029
C158	C	1.384888	-0.162073	0.043971
C159	C	1.634888	0.087927	0.293971
C160	C	1.884888	0.337927	0.543971
C161	C	1.139822	-0.407149	-0.113117
C162	C	1.389822	-0.157149	0.136883
C163	C	1.639822	0.092851	0.386883
C164	C	1.889822	0.342851	0.636883
H165	H	1.194576	-0.904232	-0.353615
H166	H	1.444576	-0.654232	-0.103615
H167	H	1.694576	-0.404232	0.146385
H168	H	1.944576	-0.154232	0.396385
Br169	Br	1.022278	-0.966346	-0.522946
Br170	Br	1.272278	-0.716346	-0.272946
Br171	Br	1.522278	-0.466346	-0.022946
Br172	Br	1.772278	-0.216346	0.227054
H173	H	1.052984	-0.492600	-0.942002
H174	H	1.302984	-0.242600	-0.692002
H175	H	1.552984	0.007400	-0.442002
H176	H	1.802984	0.257400	-0.192002
H177	H	1.194592	-0.353331	-0.905213
H178	H	1.444592	-0.103331	-0.655213
H179	H	1.694592	0.146669	-0.405213
H180	H	1.944592	0.396669	-0.155213
