data_functionalizedCrystal
_audit_creation_method	'MofGen! by Chris Wilmer'
_symmetry_space_group_name_H-M	'P1'
_symmetry_Int_Tables_number	1
_symmetry_cell_setting	triclinic
loop_
_symmetry_equiv_pos_as_xyz
  x,y,z
_cell_length_a	12.837943
_cell_length_b	17.038272
_cell_length_c	11.295483
_cell_angle_alpha	94.391706
_cell_angle_beta	85.461227
_cell_angle_gamma	92.970248
loop_
_atom_site_label
_atom_site_type_symbol
_atom_site_fract_x
_atom_site_fract_y
_atom_site_fract_z
O1	O	1.400057	0.199823	-0.099006
O2	O	1.097361	0.189716	-0.099013
O3	O	1.246909	0.080820	-0.099000
O4	O	1.250509	0.308719	-0.099019
O5	O	1.233773	0.090368	0.099049
O6	O	1.084224	0.199264	0.099036
O7	O	1.386921	0.209371	0.099043
Cu8	Cu	1.234373	0.205189	0.117123
Cu9	Cu	1.249908	0.193897	-0.117093
O10	O	1.237372	0.318267	0.099030
C11	C	1.051871	0.191076	0.000011
C12	C	0.935896	0.180893	0.000008
C13	C	0.705733	0.303310	0.000015
C14	C	0.596764	0.293746	0.000014
C15	C	0.608986	0.152201	0.000013
C16	C	0.717955	0.161765	0.000014
C17	C	0.766324	0.237322	0.000014
C18	C	0.875296	0.246885	0.000007
C19	C	0.887516	0.105342	0.000014
C20	C	0.778546	0.095777	0.000013
C21	C	1.237069	0.056221	0.000024
C22	C	1.227305	-0.031301	0.000024
C23	C	1.316945	-0.074719	0.000027
C24	C	1.307766	-0.156956	0.000015
C25	C	1.208945	-0.195773	0.000009
C26	C	1.119299	-0.152349	0.000002
C27	C	1.128480	-0.070114	0.000005
C28	C	1.176511	-0.443954	-0.000008
C29	C	1.167337	-0.526195	-0.000007
C30	C	1.355805	-0.530796	0.000004
C31	C	1.364977	-0.448559	0.000014
C32	C	1.275331	-0.405143	0.000001
C33	C	1.199560	-0.279832	0.000001
C34	C	1.284718	-0.321086	0.000000
C35	C	1.432411	0.208011	0.000017
C36	C	1.548386	0.218194	0.000011
C37	C	1.247213	0.342865	0.000003
C38	C	1.256977	0.430387	-0.000004
N39	N	1.223454	0.213132	0.281859
N40	N	1.260835	0.185950	-0.281829
C41	C	1.339435	0.128734	0.531158
C42	C	1.331191	0.134742	0.655821
C43	C	1.198717	0.231151	0.655850
C44	C	1.206961	0.225143	0.531187
C45	C	1.277323	0.173934	0.468845
C46	C	1.285572	0.167930	0.344180
C47	C	1.153093	0.264335	0.344211
C48	C	1.144849	0.270343	0.468874
H49	H	0.547433	0.347481	0.000019
H50	H	0.745116	0.364831	0.000013
C51	C	1.399516	0.085024	0.724362
H52	H	1.442604	0.053671	0.669375
H53	H	1.355876	0.051796	0.773005
H54	H	1.442240	0.118938	0.772978
H55	H	0.569577	0.090691	0.000112
H56	H	1.141422	0.272839	0.706625
H57	H	0.739148	0.034262	0.000027
C58	C	1.067462	0.326672	0.537456
H59	H	1.071451	0.323781	0.620626
H60	H	0.998416	0.311931	0.517042
H61	H	1.084792	0.379065	0.517020
C62	C	1.010598	-0.195045	-0.000001
H63	H	1.017966	-0.250239	0.000011
H64	H	0.977962	-0.183950	-0.069065
H65	H	0.968807	-0.177292	0.069073
H66	H	1.102521	0.301142	0.293462
H67	H	1.397415	-0.043120	0.000039
C68	C	0.928502	0.329993	0.000009
H69	H	0.876804	0.367923	0.000022
H70	H	0.975338	0.333343	-0.069054
H71	H	0.966174	0.339991	0.069084
C72	C	1.362962	0.111600	0.275606
H73	H	1.398764	0.085535	0.330576
H74	H	1.412115	0.140816	0.226961
H75	H	1.325741	0.073681	0.226989
C76	C	0.954169	0.032752	0.000010
H77	H	1.025995	0.049267	0.000016
H78	H	0.943397	-0.001220	-0.069054
H79	H	0.934244	0.005433	0.069083
C80	C	1.406369	-0.204712	0.000031
H81	H	1.466536	-0.169815	0.000053
H82	H	1.411297	-0.240214	-0.069033
H83	H	1.402115	-0.233559	0.069105
H84	H	1.365179	-0.289479	-0.000021
C85	C	1.473680	-0.405867	0.000005
H86	H	1.525754	-0.443504	-0.000007
H87	H	1.476603	-0.370554	0.069067
H88	H	1.485754	-0.377213	-0.069070
C89	C	1.454407	-0.578556	0.000001
H90	H	1.434791	-0.633092	-0.000013
H91	H	1.490054	-0.562700	0.069063
H92	H	1.499204	-0.569349	-0.069074
C93	C	1.058631	-0.568893	-0.000034
H94	H	1.006556	-0.531260	-0.000057
H95	H	1.046541	-0.597553	0.069026
H96	H	1.055732	-0.604202	-0.069112
C97	C	1.077903	-0.396206	-0.000001
H98	H	1.017736	-0.431103	0.000011
H99	H	1.082138	-0.367354	-0.069062
H100	H	1.072989	-0.360706	0.069075
H101	H	1.055485	-0.034764	0.000002
H102	H	1.119099	-0.311445	-0.000001
H103	H	1.396734	0.087042	0.480399
