data_functionalizedCrystal
_audit_creation_method	'MofGen! by Chris Wilmer'
_symmetry_space_group_name_H-M	'P1'
_symmetry_Int_Tables_number	1
_symmetry_cell_setting	triclinic
loop_
_symmetry_equiv_pos_as_xyz
  x,y,z
_cell_length_a	12.811434
_cell_length_b	12.784890
_cell_length_c	11.295483
_cell_angle_alpha	93.661968
_cell_angle_beta	88.710262
_cell_angle_gamma	101.398548
loop_
_atom_site_label
_atom_site_type_symbol
_atom_site_fract_x
_atom_site_fract_y
_atom_site_fract_z
O1	O	-1.375731	0.146691	0.049559
O2	O	-1.071294	0.159882	0.016677
O3	O	-1.245791	-0.001168	0.035531
O4	O	-1.201234	0.307741	0.030706
O5	O	-1.230467	0.012955	0.231926
O6	O	-1.055970	0.174005	0.213072
O7	O	-1.360407	0.160814	0.245954
Cu8	Cu	-1.206789	0.168699	0.247446
Cu9	Cu	-1.224912	0.151997	0.015186
O10	O	-1.185910	0.321864	0.227101
C11	C	-1.024934	0.165770	0.110695
C12	C	-0.909627	0.162262	0.098241
C13	C	-0.755456	0.149618	-0.026355
C14	C	-0.863798	0.152914	-0.014663
C15	C	-0.847106	0.168311	0.199460
C16	C	-0.738763	0.165016	0.187768
C17	C	-0.692942	0.155671	0.074857
C18	C	-0.584596	0.152383	0.063166
C19	C	-0.567907	0.167774	0.277287
C20	C	-0.676250	0.171069	0.288979
C21	C	-1.241027	-0.033671	0.134040
C22	C	-1.249650	-0.151559	0.134969
C23	C	-1.357718	-0.329213	0.146639
C24	C	-1.349623	-0.218447	0.145767
C25	C	-1.157766	-0.195445	0.125045
C26	C	-1.165862	-0.306211	0.125917
C27	C	-1.265841	-0.373091	0.136713
C28	C	-1.273936	-0.483860	0.137576
C29	C	-1.082080	-0.460856	0.116863
C30	C	-1.073984	-0.350089	0.115990
C31	C	-0.406768	0.154926	0.151935
C32	C	-0.522075	0.158433	0.164385
C33	C	-1.190674	0.354367	0.128589
C34	C	-1.182052	0.472255	0.127653
N35	N	-1.194050	0.180446	0.410806
N36	N	-1.237660	0.140241	-0.148173
C37	C	-1.329368	0.055620	0.674716
C38	C	-1.319748	0.064505	0.798340
C39	C	-1.165185	0.207095	0.781680
C40	C	-1.174806	0.198210	0.658056
C41	C	-1.256901	0.122472	0.604578
C42	C	-1.266525	0.113592	0.480952
C43	C	-1.111959	0.256177	0.464295
C44	C	-1.102338	0.265062	0.587919
H45	H	-0.516996	0.172707	0.359701
Cl46	Cl	-1.369731	0.018381	0.413726
Cl47	Cl	-0.904728	0.180058	0.341392
H48	H	-1.098339	0.268753	0.825237
H49	H	-1.378757	0.010067	0.855443
Cl50	Cl	-1.020859	0.340228	0.376111
H51	H	-0.992584	-0.295620	0.107205
H52	H	-0.547290	0.144779	-0.028772
Cl53	Cl	-1.432581	-0.039581	0.607486
Cl54	Cl	-0.999136	0.360270	0.655156
Cl55	Cl	-1.483404	-0.413296	0.160191
H56	H	-1.076368	-0.140972	0.116263
Cl57	Cl	-1.399623	-0.567938	0.151143
Cl58	Cl	-0.966570	-0.516023	0.104381
H59	H	-1.424438	-0.182726	0.153853
Cl60	Cl	-0.697845	0.137887	-0.168295
H61	H	-0.713573	0.178673	0.380908
Cl62	Cl	-0.942385	0.145301	-0.141906
