data_functionalizedCrystal
_audit_creation_method	'MofGen! by Chris Wilmer'
_symmetry_space_group_name_H-M	'P1'
_symmetry_Int_Tables_number	1
_symmetry_cell_setting	triclinic
loop_
_symmetry_equiv_pos_as_xyz
  x,y,z
_cell_length_a	19.805404
_cell_length_b	12.759401
_cell_length_c	19.805399
_cell_angle_alpha	90.016822
_cell_angle_beta	90.029797
_cell_angle_gamma	90.030876
loop_
_atom_site_label
_atom_site_type_symbol
_atom_site_fract_x
_atom_site_fract_y
_atom_site_fract_z
Zn1	Zn	0.269451	-1.606117	-0.382660
Zn2	Zn	0.382640	-1.605975	-0.269467
Zn3	Zn	0.269473	-1.430428	-0.269490
Zn4	Zn	0.382607	-1.430362	-0.382619
O5	O	0.326043	-1.518221	-0.326059
O6	O	0.284471	-1.753119	-0.367652
O7	O	0.367651	-1.582657	-0.174753
O8	O	0.174754	-1.453820	-0.284528
O9	O	0.367630	-1.753015	-0.284490
O10	O	0.174738	-1.582898	-0.367674
O11	O	0.284508	-1.453683	-0.174770
O12	O	0.284476	-1.283398	-0.284489
O13	O	0.367574	-1.453708	-0.477341
O14	O	0.367595	-1.283350	-0.367605
O15	O	0.284439	-1.582834	-0.477371
O16	O	0.477352	-1.582593	-0.284450
O17	O	0.477328	-1.453571	-0.367583
C18	C	0.326034	-1.245253	-0.326045
C19	C	0.326047	-1.128477	-0.326056
C20	C	0.501899	-1.518088	-0.326025
C21	C	0.577131	-1.518128	-0.326032
C22	C	0.149500	-1.518382	-0.326108
C23	C	0.074268	-1.518451	-0.326129
C24	C	1.038854	-1.585574	-0.369448
C25	C	0.968166	-1.585533	-0.369432
C26	C	0.932892	-1.518362	-0.326101
C27	C	0.968311	-1.451236	-0.282777
C28	C	1.038998	-1.451283	-0.282790
C29	C	0.683238	-1.451043	-0.282724
C30	C	0.612546	-1.450999	-0.282717
C31	C	0.612406	-1.585293	-0.369367
C32	C	0.683093	-1.585340	-0.369380
C33	C	0.718505	-1.518218	-0.326054
C34	C	0.795154	-1.518266	-0.326070
C35	C	0.856245	-1.518308	-0.326087
C36	C	0.326000	-1.518280	-0.502602
C37	C	0.325982	-1.518305	-0.577834
C38	C	0.326052	-1.792254	-0.326073
C39	C	0.326055	-1.909031	-0.326079
C40	C	0.369393	-1.073617	-0.369266
C41	C	0.369396	-0.963893	-0.369279
C42	C	0.282705	-0.963898	-0.282866
C43	C	0.282699	-1.073620	-0.282857
C44	C	0.282691	-1.585542	-0.613194
C45	C	0.282672	-1.585553	-0.683883
C46	C	0.325947	-1.518331	-0.719209
C47	C	0.369239	-1.451086	-0.683844
C48	C	0.369255	-1.451071	-0.613156
C49	C	0.369176	-1.451145	-0.968917
C50	C	0.369158	-1.451168	-1.039609
C51	C	0.282593	-1.585627	-1.039643
C52	C	0.282609	-1.585612	-0.968956
C53	C	0.325898	-1.518364	-0.933597
C54	C	0.325918	-1.518352	-0.856948
C55	C	0.325931	-1.518348	-0.795856
C56	C	0.326036	-1.518222	-0.150203
C57	C	0.325864	-1.518401	-0.074971
H58	H	1.067569	-1.640262	-0.404740
O59	O	0.574502	-1.378549	-0.235973
H60	H	0.519399	-1.389787	-0.243251
H61	H	0.939333	-1.640190	-0.404705
H62	H	0.939587	-1.396547	-0.247492
O63	O	0.236020	-1.658051	-0.575092
H64	H	0.182893	-1.640078	-0.588667
O65	O	0.416149	-0.904663	-0.415853
H66	H	0.450514	-0.854632	-0.385461
O67	O	0.235946	-1.132805	-0.236251
H68	H	0.266196	-1.182758	-0.201762
O69	O	0.235985	-1.658079	-0.722025
H70	H	0.205903	-1.704831	-0.685584
H71	H	0.247413	-0.919220	-0.247695
O72	O	0.235935	-1.658116	-0.930852
H73	H	0.205825	-1.704868	-0.967317
O74	O	0.415947	-1.378546	-0.575017
H75	H	0.408682	-1.389818	-0.519930
O76	O	0.235880	-1.658134	-1.077780
H77	H	0.243125	-1.646840	-1.132868
H78	H	0.404688	-1.118278	-0.404443
O79	O	0.415827	-1.378650	-1.077716
H80	H	0.445926	-1.331875	-1.041253
O81	O	1.077194	-1.378893	-0.236059
H82	H	1.132273	-1.390222	-0.243340
O83	O	0.415909	-1.378571	-0.721943
H84	H	0.450346	-1.425564	-0.754139
H85	H	0.404435	-1.396403	-0.940136
H86	H	0.711809	-1.640034	-0.404667
O87	O	0.574213	-1.657707	-0.416091
H88	H	0.519133	-1.646404	-0.408799
O89	O	0.721429	-1.378643	-0.236002
H90	H	0.685023	-1.331920	-0.205877
