data_functionalizedCrystal
_audit_creation_method	'MofGen! by Chris Wilmer'
_symmetry_space_group_name_H-M	'P1'
_symmetry_Int_Tables_number	1
_symmetry_cell_setting	triclinic
loop_
_symmetry_equiv_pos_as_xyz
  x,y,z
_cell_length_a	17.038272
_cell_length_b	19.288865
_cell_length_c	16.098538
_cell_angle_alpha	92.708117
_cell_angle_beta	87.069734
_cell_angle_gamma	87.123902
loop_
_atom_site_label
_atom_site_type_symbol
_atom_site_fract_x
_atom_site_fract_y
_atom_site_fract_z
O1	O	-1.040387	-0.147907	0.069168
O2	O	-0.707053	0.185426	0.402502
O3	O	-0.373720	0.518759	0.735835
O4	O	-0.812765	-0.145512	0.069192
O5	O	-0.479432	0.187821	0.402526
O6	O	-0.146098	0.521155	0.735859
O7	O	-0.933152	-0.045987	0.069163
O8	O	-0.599819	0.287346	0.402496
O9	O	-0.266486	0.620680	0.735830
O10	O	-0.920000	-0.247432	0.069198
O11	O	-0.586666	0.085901	0.402531
O12	O	-0.253333	0.419234	0.735864
O13	O	-0.926120	-0.051776	-0.069348
O14	O	-0.592787	0.281557	0.263985
O15	O	-0.259453	0.614890	0.597319
O16	O	-0.805733	-0.151301	-0.069319
O17	O	-0.472399	0.182032	0.264015
O18	O	-0.139066	0.515365	0.597348
O19	O	-1.033354	-0.153697	-0.069343
O20	O	-0.700021	0.179637	0.263990
O21	O	-0.366688	0.512970	0.597324
Zn22	Zn	-0.918427	-0.153418	-0.091323
Zn23	Zn	-0.585094	0.179915	0.242011
Zn24	Zn	-0.251760	0.513248	0.575344
Zn25	Zn	-0.927692	-0.145791	0.091172
Zn26	Zn	-0.594359	0.187543	0.424505
Zn27	Zn	-0.261026	0.520876	0.757839
O28	O	-0.912967	-0.253222	-0.069314
O29	O	-0.579634	0.080112	0.264020
O30	O	-0.246301	0.413445	0.597353
C31	C	-0.780128	-0.146229	-0.000060
C32	C	-0.446794	0.187105	0.333273
C33	C	-0.113461	0.520438	0.666606
C34	C	-0.693356	-0.139731	-0.000052
C35	C	-0.360023	0.193603	0.333281
C36	C	-0.026690	0.526936	0.666615
C37	C	-0.929213	-0.022979	-0.000095
C38	C	-0.595879	0.310354	0.333238
C39	C	-0.262546	0.643687	0.666572
C40	C	-0.927942	0.054203	-0.000102
C41	C	-0.594608	0.387536	0.333231
C42	C	-0.261275	0.720869	0.666565
C43	C	-1.065992	-0.152980	-0.000088
C44	C	-0.732658	0.180353	0.333245
C45	C	-0.399325	0.513687	0.666578
C46	C	-1.152764	-0.159478	-0.000091
C47	C	-0.819430	0.173856	0.333242
C48	C	-0.486097	0.507189	0.666575
C49	C	-0.643050	-0.199386	-0.000042
C50	C	-0.309717	0.133947	0.333291
C51	C	0.023617	0.467280	0.666624
C52	C	-0.561519	-0.193277	-0.000055
C53	C	-0.228185	0.140056	0.333278
C54	C	0.105148	0.473389	0.666612
C55	C	-0.530295	-0.127512	-0.000071
C56	C	-0.196962	0.205821	0.333262
C57	C	0.136371	0.539155	0.666596
C58	C	-0.580608	-0.067852	-0.000083
C59	C	-0.247274	0.265481	0.333250
C60	C	0.086059	0.598815	0.666584
C61	C	-0.662137	-0.073962	-0.000076
C62	C	-0.328804	0.259372	0.333257
C63	C	0.004529	0.592705	0.666590
C64	C	-0.284606	-0.105928	-0.000097
C65	C	0.048728	0.227406	0.333236
C66	C	0.382061	0.560739	0.666570
C67	C	-0.203070	-0.099822	-0.000101
C68	C	0.130264	0.233511	0.333232
C69	C	0.463597	0.566844	0.666566
C70	C	-0.183986	-0.225248	-0.000074
C71	C	0.149347	0.108085	0.333259
C72	C	0.482681	0.441418	0.666592
C73	C	-0.265518	-0.231352	-0.000063
C74	C	0.067815	0.101981	0.333271
C75	C	0.401148	0.435315	0.666604
C76	C	-0.315824	-0.171692	-0.000079
C77	C	0.017510	0.161641	0.333254
C78	C	0.350843	0.494974	0.666587
C79	C	-0.446957	-0.121266	-0.000081
C80	C	-0.113624	0.212067	0.333252
C81	C	0.219709	0.545400	0.666586
C82	C	-0.399160	-0.177939	-0.000075
C83	C	-0.065826	0.155394	0.333258
C84	C	0.267507	0.488728	0.666592
C85	C	-0.916907	-0.276229	-0.000054
C86	C	-0.583574	0.057104	0.333279
C87	C	-0.250240	0.390437	0.666613
C88	C	-0.918178	-0.353411	-0.000041
C89	C	-0.584845	-0.020078	0.333292
C90	C	-0.251511	0.313256	0.666626
N91	N	-0.912109	-0.158624	-0.215870
N92	N	-0.578776	0.174709	0.117463
N93	N	-0.245443	0.508043	0.450796
C94	C	-0.998580	0.094528	-0.000114
C95	C	-0.665246	0.427861	0.333220
C96	C	-0.331913	0.761195	0.666553
C97	C	-0.997387	0.167050	-0.000100
C98	C	-0.664053	0.500383	0.333233
C99	C	-0.330720	0.833716	0.666566
C100	C	-0.925551	0.199242	-0.000092
C101	C	-0.592218	0.532575	0.333241
C102	C	-0.258884	0.865909	0.666574
C103	C	-0.854904	0.158908	-0.000076
C104	C	-0.521570	0.492241	0.333257
C105	C	-0.188237	0.825574	0.666591
C106	C	-0.856099	0.086388	-0.000081
C107	C	-0.522766	0.419721	0.333252
C108	C	-0.189433	0.753055	0.666586
C109	C	-0.866616	0.308996	-0.048604
C110	C	-0.533283	0.642329	0.284730
C111	C	-0.199949	0.975662	0.618063
C112	C	-0.865423	0.381514	-0.048604
C113	C	-0.532090	0.714847	0.284729
C114	C	-0.198757	1.048181	0.618063
C115	C	-0.921861	0.422917	-0.000073
C116	C	-0.588528	0.756250	0.333260
C117	C	-0.255194	1.089583	0.666593
C118	C	-0.979504	0.391793	0.048447
C119	C	-0.646171	0.725126	0.381780
C120	C	-0.312837	1.058459	0.715114
C121	C	-0.980699	0.319273	0.048442
C122	C	-0.647366	0.652606	0.381775
C123	C	-0.314033	0.985940	0.715109
C124	C	-0.924247	0.277877	-0.000086
C125	C	-0.590913	0.611210	0.333247
C126	C	-0.257580	0.944544	0.666580
C127	C	-0.991210	0.541878	-0.000069
C128	C	-0.657877	0.875212	0.333264
C129	C	-0.324544	1.208545	0.666597
C130	C	-0.990015	0.614401	-0.000051
C131	C	-0.656681	0.947735	0.333283
C132	C	-0.323348	1.281068	0.666616
C133	C	-0.847529	0.606258	-0.000035
C134	C	-0.514196	0.939591	0.333299
C135	C	-0.180862	1.272924	0.666632
C136	C	-0.848727	0.533737	-0.000045
C137	C	-0.515394	0.867070	0.333289
C138	C	-0.182061	1.200403	0.666622
C139	C	-0.920570	0.501551	-0.000066
C140	C	-0.587237	0.834885	0.333267
C141	C	-0.253903	1.168218	0.666601
C142	C	-0.963225	-0.116399	-0.259468
C143	C	-0.629892	0.216935	0.073866
C144	C	-0.296558	0.550268	0.407199
C145	C	-0.958813	-0.120047	-0.346656
C146	C	-0.625479	0.213286	-0.013322
C147	C	-0.292146	0.546619	0.320011
C148	C	-0.903288	-0.165925	-0.390244
C149	C	-0.569955	0.167408	-0.056911
C150	C	-0.236621	0.500742	0.276422
C151	C	-0.852167	-0.208152	-0.346641
C152	C	-0.518833	0.125181	-0.013307
C153	C	-0.185500	0.458515	0.320026
C154	C	-0.856576	-0.204499	-0.259454
C155	C	-0.523243	0.128834	0.073879
C156	C	-0.189909	0.462167	0.407212
C157	C	-0.887304	-0.179154	-0.653490
C158	C	-0.553971	0.154179	-0.320157
C159	C	-0.220638	0.487513	0.013176
C160	C	-0.882901	-0.182805	-0.740683
C161	C	-0.549567	0.150528	-0.407350
C162	C	-0.216234	0.483862	-0.074016
C163	C	-0.989546	-0.094699	-0.740692
C164	C	-0.656213	0.238634	-0.407358
C165	C	-0.322880	0.571968	-0.074025
C166	C	-0.993954	-0.091053	-0.653504
C167	C	-0.660620	0.242280	-0.320170
C168	C	-0.327287	0.575613	0.013163
C169	C	-0.942830	-0.133278	-0.609908
C170	C	-0.609496	0.200056	-0.276574
C171	C	-0.276163	0.533389	0.056759
C172	C	-0.898778	-0.169657	-0.479364
C173	C	-0.565445	0.163676	-0.146031
C174	C	-0.232112	0.497010	0.187302
C175	C	-0.947336	-0.129542	-0.520789
C176	C	-0.614003	0.203792	-0.187456
C177	C	-0.280670	0.537125	0.145877
N178	N	-0.934016	-0.140580	0.215720
N179	N	-0.600683	0.192754	0.549053
N180	N	-0.267350	0.526087	0.882386
H181	H	-0.668465	-0.252939	-0.000029
H182	H	-0.335132	0.080394	0.333305
H183	H	-0.001799	0.413727	0.666638
F184	F	-0.547375	0.002141	-0.000106
F185	F	-0.214042	0.335474	0.333228
F186	F	0.119292	0.668807	0.666561
H187	H	-1.008442	-0.079043	-0.223983
H188	H	-0.675109	0.254290	0.109350
H189	H	-0.341776	0.587623	0.442683
H190	H	-1.057080	0.068328	-0.000128
H191	H	-0.723746	0.401661	0.333205
H192	H	-0.390413	0.734994	0.666539
H193	H	-1.047539	0.647234	-0.000056
H194	H	-0.714206	0.980567	0.333278
H195	H	-0.380873	1.313900	0.666611
F196	F	-1.072572	0.209975	-0.000111
F197	F	-0.739239	0.543308	0.333222
F198	F	-0.405906	0.876642	0.666555
F199	F	-0.338134	-0.042431	-0.000114
F200	F	-0.004801	0.290902	0.333219
F201	F	0.328533	0.624235	0.666552
H202	H	-0.992542	-0.092185	-0.485297
H203	H	-0.659209	0.241148	-0.151963
H204	H	-0.325875	0.574482	0.181370
F205	F	-0.130443	-0.288738	-0.000059
F206	F	0.202891	0.044596	0.333275
F207	F	0.536224	0.377929	0.666608
F208	F	-0.298742	-0.301348	-0.000041
F209	F	0.034591	0.031985	0.333292
F210	F	0.367924	0.365318	0.666625
H211	H	-0.853570	-0.207013	-0.514862
H212	H	-0.520237	0.126320	-0.181528
H213	H	-0.186903	0.459654	0.151805
H214	H	-0.421525	-0.067721	-0.000118
H215	H	-0.088192	0.265613	0.333216
H216	H	0.245142	0.598946	0.666549
H217	H	-1.025461	0.425502	0.087966
H218	H	-0.692127	0.758835	0.421299
H219	H	-0.358794	1.092168	0.754632
H220	H	-0.837683	-0.220167	-0.776169
H221	H	-0.504350	0.113166	-0.442836
H222	H	-0.171017	0.446500	-0.109502
H223	H	-0.789039	0.632468	-0.000024
H224	H	-0.455706	0.965801	0.333309
H225	H	-0.122372	1.299135	0.666643
H226	H	-0.177652	-0.046266	-0.000113
H227	H	0.155682	0.287068	0.333220
H228	H	0.489015	0.620401	0.666553
F229	F	-0.780913	0.043469	-0.000068
F230	F	-0.447580	0.376803	0.333265
F231	F	-0.114246	0.710136	0.666599
H232	H	-1.031168	-0.060321	-0.776195
H233	H	-0.697835	0.273012	-0.442862
H234	H	-0.364501	0.606346	-0.109529
F235	F	-0.507982	-0.256772	-0.000041
F236	F	-0.174649	0.076562	0.333292
F237	F	0.158685	0.409895	0.666626
H238	H	-0.703097	-0.025384	-0.000084
H239	H	-0.369763	0.307950	0.333250
H240	H	-0.036430	0.641283	0.666583
H241	H	-0.845679	-0.213536	-0.618001
H242	H	-0.512345	0.119797	-0.284668
H243	H	-0.179012	0.453131	0.048665
H244	H	-0.424585	-0.231485	-0.000066
H245	H	-0.091252	0.101848	0.333267
H246	H	0.242082	0.435182	0.666600
H247	H	-1.027633	0.293935	0.087950
H248	H	-0.694300	0.627268	0.421284
H249	H	-0.360966	0.960601	0.754617
H250	H	-0.791206	0.500903	-0.000040
H251	H	-0.457872	0.834236	0.333293
H252	H	-0.124539	1.167569	0.666627
H253	H	-1.049709	0.515672	-0.000083
H254	H	-0.716376	0.849005	0.333251
H255	H	-0.383042	1.182339	0.666584
H256	H	-0.806953	-0.245504	-0.382136
H257	H	-0.473620	0.087829	-0.048802
H258	H	-0.140287	0.421163	0.284531
F259	F	-0.804078	0.414632	-0.100246
F260	F	-0.470745	0.747965	0.233087
F261	F	-0.137411	1.081299	0.566421
F262	F	-0.806544	0.264938	-0.100262
F263	F	-0.473211	0.598272	0.233072
F264	F	-0.139878	0.931605	0.566405
H265	H	-0.796414	0.185123	-0.000067
H266	H	-0.463081	0.518457	0.333266
H267	H	-0.129748	0.851790	0.666599
H268	H	-1.000435	-0.085664	-0.382152
H269	H	-0.667101	0.247670	-0.048819
H270	H	-0.333768	0.581003	0.284514
F271	F	-1.053050	-0.042226	-0.607114
F272	F	-0.719716	0.291107	-0.273781
F273	F	-0.386383	0.624441	0.059552
H274	H	-0.814951	-0.238883	-0.223958
H275	H	-0.481618	0.094451	0.109375
H276	H	-0.148284	0.427784	0.442708
