data_functionalizedCrystal
_audit_creation_method	'MofGen! by Chris Wilmer'
_symmetry_space_group_name_H-M	'P1'
_symmetry_Int_Tables_number	1
_symmetry_cell_setting	triclinic
loop_
_symmetry_equiv_pos_as_xyz
  x,y,z
_cell_length_a	12.759399
_cell_length_b	12.759401
_cell_length_c	12.759393
_cell_angle_alpha	90.019837
_cell_angle_beta	89.967969
_cell_angle_gamma	89.983359
loop_
_atom_site_label
_atom_site_type_symbol
_atom_site_fract_x
_atom_site_fract_y
_atom_site_fract_z
Zn1	Zn	-0.418161	-1.606252	-0.594017
Zn2	Zn	-0.593880	-1.606145	-0.418336
Zn3	Zn	-0.418220	-1.430554	-0.418352
Zn4	Zn	-0.593803	-1.430541	-0.593973
O5	O	-0.506016	-1.518373	-0.506170
O6	O	-0.441478	-1.753259	-0.570724
O7	O	-0.570635	-1.582813	-0.271317
O8	O	-0.271191	-1.453911	-0.441680
O9	O	-0.570578	-1.753180	-0.441652
O10	O	-0.271148	-1.582995	-0.570740
O11	O	-0.441579	-1.453807	-0.271329
O12	O	-0.441505	-1.283531	-0.441637
O13	O	-0.570447	-1.453889	-0.741000
O14	O	-0.570504	-1.283522	-0.570665
O15	O	-0.441403	-1.582983	-0.741032
O16	O	-0.740891	-1.582801	-0.441609
O17	O	-0.740834	-1.453785	-0.570649
C18	C	-0.506003	-1.245406	-0.506149
C19	C	-0.506023	-1.128629	-0.506165
C20	C	-0.778984	-1.518309	-0.506146
C21	C	-0.895760	-1.518377	-0.506171
C22	C	-0.505910	-1.518446	-0.780203
C23	C	-0.505865	-1.518478	-0.896980
C24	C	-0.950617	-1.585632	-0.439056
C25	C	-1.060341	-1.585700	-0.439091
C26	C	-1.060342	-1.451248	-0.573359
C27	C	-0.950620	-1.451187	-0.573328
C28	C	-0.231983	-1.518466	-0.506217
C29	C	-0.115206	-1.518506	-0.506237
C30	C	-0.506030	-1.792406	-0.506191
C31	C	-0.506036	-1.909183	-0.506200
C32	C	-0.573296	-1.073790	-0.573244
C33	C	-0.573300	-0.964066	-0.573265
C34	C	-0.438756	-0.964030	-0.439118
C35	C	-0.438747	-1.073752	-0.439104
C36	C	-0.438653	-1.451328	-0.951848
C37	C	-0.438620	-1.451353	-1.061572
C38	C	-0.573015	-1.585685	-1.061551
C39	C	-0.573052	-1.585654	-0.951829
C40	C	-0.506046	-1.518360	-0.233202
C41	C	-0.505796	-1.518533	-0.116426
H42	H	-0.905952	-1.640344	-0.384374
H43	H	-0.628073	-1.118467	-0.627852
N44	N	-1.119509	-1.658241	-0.366706
H45	H	-1.068102	-1.700794	-0.324161
H46	H	-1.165113	-1.615526	-0.318063
N47	N	-1.119512	-1.378777	-0.645785
H48	H	-1.197346	-1.389016	-0.635619
H49	H	-1.100408	-1.303742	-0.629360
N50	N	-0.645869	-0.904920	-0.645605
H51	H	-0.635668	-0.827084	-0.635444
H52	H	-0.629611	-0.924142	-0.720666
H53	H	-0.383959	-1.118403	-0.384480
H54	H	-0.627715	-1.640379	-1.106222
H55	H	-0.627788	-1.640338	-0.907154
H56	H	-0.905953	-1.396420	-0.627986
H57	H	-0.383984	-0.919336	-0.384518
H58	H	-0.383945	-1.396629	-0.907193
H59	H	-0.383891	-1.396672	-1.106240
