data_functionalizedCrystal
_audit_creation_method	'MofGen! by Chris Wilmer'
_symmetry_space_group_name_H-M	'P1'
_symmetry_Int_Tables_number	1
_symmetry_cell_setting	triclinic
loop_
_symmetry_equiv_pos_as_xyz
  x,y,z
_cell_length_a	16.959455
_cell_length_b	16.959454
_cell_length_c	13.032268
_cell_angle_alpha	82.849649
_cell_angle_beta	82.838824
_cell_angle_gamma	90.019023
loop_
_atom_site_label
_atom_site_type_symbol
_atom_site_fract_x
_atom_site_fract_y
_atom_site_fract_z
Zn1	Zn	1.151628	-0.371437	0.590917
Zn2	Zn	1.168333	-0.486849	0.416185
Zn3	Zn	1.036239	-0.354686	0.416188
Zn4	Zn	1.019426	-0.503570	0.590868
O5	O	1.093906	-0.429135	0.503540
O6	O	1.264453	-0.386759	0.567758
O7	O	1.164838	-0.455309	0.269955
O8	O	1.051591	-0.246299	0.439388
O9	O	1.276726	-0.471552	0.439383
O10	O	1.136367	-0.258606	0.567761
O11	O	1.067789	-0.358210	0.269957
O12	O	0.923400	-0.374424	0.439340
O13	O	1.022936	-0.500050	0.737105
O14	O	0.911047	-0.483808	0.567677
O15	O	1.120064	-0.402973	0.737141
O16	O	1.148535	-0.599676	0.439335
O17	O	1.039134	-0.611961	0.567674
C18	C	0.888544	-0.429113	0.503504
C19	C	0.800686	-0.429125	0.503514
C20	C	0.765810	-0.372112	0.436802
C21	C	0.753008	-0.486146	0.570241
C22	C	0.670460	-0.486156	0.570257
C23	C	0.635584	-0.429143	0.503545
C24	C	0.683255	-0.372119	0.436817
C25	C	0.622783	-0.543174	0.636990
C26	C	0.540230	-0.543186	0.637009
C27	C	0.505352	-0.486176	0.570291
C28	C	0.553029	-0.429150	0.503560
C29	C	0.518152	-0.372137	0.436848
C30	C	0.565828	-0.315114	0.370111
C31	C	0.648377	-0.315109	0.370099
C32	C	0.422803	-0.486182	0.570303
C33	C	0.435597	-0.372144	0.436864
C34	C	1.093842	-0.634500	0.503522
C35	C	1.093883	-0.722359	0.503549
C36	C	1.037015	-1.100260	0.570359
C37	C	1.151008	-1.087418	0.436827
C38	C	1.150981	-1.004871	0.436818
C39	C	1.093970	-0.970015	0.503578
C40	C	1.036985	-1.017705	0.570349
C41	C	1.207960	-0.957174	0.370041
C42	C	1.207935	-0.874622	0.370028
C43	C	1.150926	-0.839765	0.436795
C44	C	1.093940	-0.887460	0.503569
C45	C	1.036929	-0.852604	0.570329
C46	C	0.979945	-0.900299	0.637110
C47	C	0.979977	-0.982848	0.637116
C48	C	1.150895	-0.757215	0.436788
C49	C	1.036899	-0.770050	0.570320
C50	C	1.300071	-0.429158	0.503576
C51	C	1.387926	-0.429168	0.503591
C52	C	1.067761	-0.455245	0.776099
C53	C	1.056619	-0.466372	0.892248
C54	C	1.093991	-0.222971	0.503580
C55	C	1.094026	-0.135116	0.503598
C56	C	1.119996	-0.403070	0.232040
C57	C	1.131291	-0.391721	0.115892
C58	C	1.099709	-0.423300	0.944049
C59	C	1.088195	-0.434799	1.064094
H60	H	0.804631	-0.325687	0.382464
H61	H	0.933583	-1.021688	0.691483
H62	H	1.042771	-0.480185	1.108615
N63	N	1.191449	-0.331588	1.056934
H64	H	1.191147	-0.331894	0.979535
H65	H	1.246084	-0.345705	1.075962
H66	H	0.687201	-0.268683	0.315767
H67	H	1.197420	-1.115803	0.382467
N68	N	0.975401	-0.732464	0.642328
H69	H	0.942861	-0.694178	0.599809
H70	H	1.002886	-0.702867	0.690776
H71	H	0.781409	-0.532560	0.624560
H72	H	1.011199	-0.511754	0.936773
H73	H	0.651185	-0.589589	0.691307
H74	H	1.145122	-0.377909	0.899524
H75	H	0.383989	-0.532604	0.624646
H76	H	0.501419	-0.589619	0.691349
N77	N	0.918449	-0.862700	0.709104
H78	H	0.927078	-0.803168	0.698955
H79	H	0.923548	-0.884249	0.783756
H80	H	0.407208	-0.325718	0.382537
N81	N	0.975554	-1.151691	0.642384
H82	H	1.003008	-1.190551	0.690857
H83	H	0.943057	-1.181851	0.599804
N84	N	1.269431	-0.994777	0.298029
H85	H	1.301970	-1.033067	0.340542
H86	H	1.305470	-0.951997	0.255727
N87	N	0.528209	-0.253630	0.298148
H88	H	0.468680	-0.262293	0.308287
H89	H	0.549780	-0.258710	0.223492
N90	N	1.269398	-0.823183	0.298016
H91	H	1.305519	-0.857792	0.255728
H92	H	1.301852	-0.792987	0.340605
N93	N	1.212352	-0.705781	0.364770
H94	H	1.244868	-0.675572	0.407277
H95	H	1.184839	-0.666964	0.316315
