data_functionalizedCrystal
_audit_creation_method	'MofGen! by Chris Wilmer'
_symmetry_space_group_name_H-M	'P1'
_symmetry_Int_Tables_number	1
_symmetry_cell_setting	triclinic
loop_
_symmetry_equiv_pos_as_xyz
  x,y,z
_cell_length_a	12.759401
_cell_length_b	25.639240
_cell_length_c	12.759393
_cell_angle_alpha	90.044235
_cell_angle_beta	90.018496
_cell_angle_gamma	90.032919
loop_
_atom_site_label
_atom_site_type_symbol
_atom_site_fract_x
_atom_site_fract_y
_atom_site_fract_z
Zn1	Zn	1.606124	-0.208118	0.593889
Zn2	Zn	1.605962	-0.295564	0.418170
Zn3	Zn	1.430425	-0.208145	0.418228
Zn4	Zn	1.430359	-0.295524	0.593812
O5	O	1.518218	-0.251838	0.506025
O6	O	1.753123	-0.219723	0.570587
O7	O	1.582638	-0.283996	0.271157
O8	O	1.453828	-0.134976	0.441587
O9	O	1.753005	-0.283970	0.441488
O10	O	1.582912	-0.134956	0.570644
O11	O	1.453671	-0.219770	0.271199
O12	O	1.283396	-0.219731	0.441512
O13	O	1.453714	-0.283901	0.740843
O14	O	1.283347	-0.283928	0.570512
O15	O	1.582847	-0.219684	0.740900
O16	O	1.582573	-0.368724	0.441413
O17	O	1.453558	-0.368695	0.570456
C18	C	1.245250	-0.251828	0.506010
C19	C	1.128474	-0.251837	0.506029
C20	C	1.073614	-0.285318	0.573089
C21	C	0.963889	-0.285324	0.573100
C22	C	0.963895	-0.218368	0.438984
C23	C	1.073617	-0.218359	0.438978
C24	C	1.073609	-0.323976	0.650516
C25	C	0.963885	-0.323983	0.650528
C26	C	1.518069	-0.387680	0.505942
C27	C	1.518102	-0.445795	0.505942
C28	C	1.585465	-0.806109	0.573346
C29	C	1.585496	-0.860713	0.573367
O30	O	1.642595	-0.888908	0.630592
N31	N	1.518363	-0.888077	0.506126
C32	C	1.451188	-0.860834	0.438867
O33	O	1.394088	-0.889123	0.381676
C34	C	1.451152	-0.806230	0.438852
C35	C	1.518297	-0.778869	0.506090
C36	C	1.652604	-0.778747	0.640579
C37	C	1.652574	-0.724147	0.640556
C38	C	1.585406	-0.696907	0.573300
C39	C	1.518267	-0.724269	0.506067
C40	C	1.383972	-0.778988	0.371598
C41	C	1.383941	-0.724381	0.371590
C42	C	1.451086	-0.697020	0.438828
C43	C	1.451069	-0.642429	0.438787
N44	N	1.518202	-0.615065	0.506028
C45	C	1.585370	-0.642304	0.573285
C46	C	1.451266	-0.975504	0.438905
C47	C	1.451306	-1.030107	0.438915
C48	C	1.585614	-1.029982	0.573417
C49	C	1.585578	-0.975379	0.573401
C50	C	1.518399	-0.948140	0.506146
C51	C	1.585303	-0.527639	0.573231
C52	C	1.585270	-0.473034	0.573199
C53	C	1.450959	-0.473163	0.438701
C54	C	1.450995	-0.527764	0.438729
C55	C	1.518171	-0.555000	0.506002
O56	O	1.393996	-0.614199	0.381595
O57	O	1.642450	-0.614008	0.630476
C58	C	1.792251	-0.251848	0.506040
C59	C	1.909027	-0.251852	0.506046
C60	C	1.518291	-0.251785	0.780058
C61	C	1.518323	-0.251763	0.896835
C62	C	1.518395	-0.115465	0.506130
C63	C	1.518471	-0.057351	0.506175
C64	C	1.518205	-0.251853	0.233057
C65	C	1.518377	-0.251728	0.116281
C66	C	1.585572	-0.218322	0.951728
C67	C	1.585597	-0.218303	1.061452
C68	C	1.451120	-0.285170	1.061380
C69	C	1.451091	-0.285186	0.951658
C70	C	1.663214	-0.179718	0.951771
C71	C	1.663239	-0.179699	1.061495
H72	H	1.103424	-0.313178	0.731928
C73	C	0.917957	-0.304463	0.755033
C74	C	0.798336	-0.301679	0.769997
C75	C	0.752406	-0.282160	0.874498
C76	C	0.826095	-0.265426	0.964036
C77	C	0.945723	-0.268210	0.949075
C78	C	0.991654	-0.287729	0.844573
H79	H	0.743780	-0.314067	0.703713
H80	H	0.663849	-0.280099	0.885573
H81	H	0.792095	-0.250977	1.041394
H82	H	1.000279	-0.255822	1.015358
H83	H	1.080210	-0.289790	0.833498
H84	H	1.740476	-0.194233	0.917728
H85	H	1.744603	-0.190544	1.091268
C86	C	1.119542	-0.375911	0.610939
C87	C	1.190856	-0.408548	0.682841
C88	C	1.236791	-0.460482	0.643261
C89	C	1.211412	-0.479778	0.531779
C90	C	1.140095	-0.447139	0.459870
C91	C	1.094160	-0.395206	0.499451
H92	H	1.209646	-0.394265	0.765373
H93	H	1.289585	-0.484643	0.696493
H94	H	1.245417	-0.518222	0.502479
H95	H	1.121305	-0.461423	0.377338
H96	H	1.041366	-0.371045	0.446218
C97	C	1.659131	-0.442938	0.647169
C98	C	1.741626	-0.405388	0.601707
C99	C	1.815483	-0.375295	0.675676
C100	C	1.806843	-0.382751	0.795107
C101	C	1.724344	-0.420302	0.840575
C102	C	1.650488	-0.450395	0.766605
H103	H	1.748025	-0.399868	0.513292
H104	H	1.876554	-0.347497	0.642017
H105	H	1.861516	-0.360473	0.849863
H106	H	1.717945	-0.425822	0.928990
H107	H	1.589416	-0.478193	0.800264
H108	H	1.639996	-0.549809	0.628018
H109	H	1.634149	-0.141226	1.095560
C110	C	1.726425	-0.694056	0.714534
C111	C	1.808928	-0.656504	0.669094
C112	C	1.882781	-0.626419	0.743081
C113	C	1.874130	-0.633886	0.862508
C114	C	1.791623	-0.671440	0.907954
C115	C	1.717771	-0.701525	0.833967
H116	H	1.815336	-0.650976	0.580681
H117	H	1.943857	-0.598620	0.709438
H118	H	1.928799	-0.611615	0.917277
H119	H	1.785216	-0.676968	0.996367
H120	H	1.656694	-0.729324	0.867610
C121	C	1.133957	-0.181529	0.365207
C122	C	1.118920	-0.122098	0.374012
C123	C	1.179256	-0.085267	0.300233
C124	C	1.254630	-0.107868	0.217648
C125	C	1.269671	-0.167302	0.208840
C126	C	1.209335	-0.204132	0.282620
H127	H	1.063120	-0.105365	0.435149
H128	H	1.168121	-0.041270	0.306753
H129	H	1.299295	-0.080604	0.163032
H130	H	1.325471	-0.184035	0.147703
H131	H	1.220470	-0.248130	0.276099
H132	H	1.396641	-1.052380	0.384151
H133	H	0.919218	-0.191111	0.384394
C134	C	1.377179	-0.321939	1.121692
C135	C	1.385672	-0.381379	1.106551
C136	C	1.311733	-0.418150	1.166861
C137	C	1.229300	-0.395480	1.242312
C138	C	1.220803	-0.336037	1.257455
C139	C	1.294743	-0.299266	1.197145
H140	H	1.446697	-0.398163	1.050695
H141	H	1.318023	-0.462154	1.155650
H142	H	1.174565	-0.422700	1.286957
H143	H	1.159778	-0.319253	1.313311
H144	H	1.288452	-0.255262	1.208356
H145	H	1.396564	-0.953330	0.384130
H146	H	1.707300	-0.800920	0.695354
C147	C	0.923584	-0.378669	0.620866
C148	C	0.854142	-0.385931	0.523200
C149	C	0.813839	-0.440614	0.493539
C150	C	0.842980	-0.488035	0.561544
C151	C	0.912426	-0.480775	0.659216
C152	C	0.952728	-0.426092	0.688877
H153	H	0.832567	-0.350825	0.472854
H154	H	0.762430	-0.445988	0.421236
H155	H	0.813146	-0.528515	0.539587
H156	H	0.934001	-0.515881	0.709563
H157	H	1.004137	-0.420718	0.761181
C158	C	1.310044	-0.694420	0.297603
C159	C	1.318683	-0.701982	0.178178
C160	C	1.244790	-0.672022	0.104191
C161	C	1.162257	-0.634498	0.149630
C162	C	1.153614	-0.626933	0.269062
C163	C	1.227508	-0.656894	0.343048
H164	H	1.379782	-0.729761	0.144536
H165	H	1.251188	-0.677622	0.015780
H166	H	1.107556	-0.612319	0.094860
H167	H	1.092516	-0.599154	0.302704
H168	H	1.221110	-0.651294	0.431460
C169	C	1.633834	-0.125020	0.911586
C170	C	1.711078	-0.094402	0.842235
C171	C	1.681697	-0.039707	0.802050
C172	C	1.575072	-0.015630	0.831215
C173	C	1.497821	-0.046248	0.900569
C174	C	1.527201	-0.100943	0.940754
H175	H	1.790015	-0.112226	0.820643
H176	H	1.738884	-0.017042	0.750710
H177	H	1.553323	0.024859	0.801467
H178	H	1.418884	-0.028425	0.922161
H179	H	1.470014	-0.123609	0.992094
H180	H	1.640253	-0.953104	0.628153
H181	H	1.396274	-0.450977	0.383938
H182	H	1.640304	-1.052170	0.628182
H183	H	1.329295	-0.801257	0.316846
H184	H	1.396329	-0.550042	0.383970
H185	H	1.396327	-0.312415	0.906968
