data_functionalizedCrystal
_audit_creation_method	'MofGen! by Chris Wilmer'
_symmetry_space_group_name_H-M	'P1'
_symmetry_Int_Tables_number	1
_symmetry_cell_setting	triclinic
loop_
_symmetry_equiv_pos_as_xyz
  x,y,z
_cell_length_a	8.597340
_cell_length_b	10.540539
_cell_length_c	7.681481
_cell_angle_alpha	95.792916
_cell_angle_beta	76.520048
_cell_angle_gamma	84.930270
loop_
_atom_site_label
_atom_site_type_symbol
_atom_site_fract_x
_atom_site_fract_y
_atom_site_fract_z
O1	O	2.101858	0.175552	-0.172469
O2	O	1.638022	0.195774	-0.102095
O3	O	1.880522	0.000880	-0.138890
O4	O	1.859358	0.370447	-0.135674
O5	O	1.910391	-0.023146	-0.436280
O6	O	1.667891	0.171748	-0.399484
O7	O	2.131726	0.151527	-0.469859
Zn8	Zn	1.904551	0.157823	-0.481889
Zn9	Zn	1.865198	0.189478	-0.090065
O10	O	1.889226	0.346421	-0.433064
C11	C	1.593563	0.182928	-0.241778
C12	C	1.416588	0.180430	-0.214926
C13	C	1.893869	-0.058425	-0.287341
C14	C	1.889120	-0.199337	-0.286611
C15	C	1.707094	-0.381390	-0.258336
C16	C	1.711975	-0.234861	-0.259735
C17	C	1.991426	-0.275333	-0.469369
C18	C	1.985394	-0.421846	-0.468595
C19	C	1.955031	-0.395068	-0.130954
C20	C	1.956437	-0.247917	-0.128956
C21	C	2.176185	0.164373	-0.330172
C22	C	2.353159	0.166872	-0.357012
C23	C	1.875879	0.405725	-0.284609
C24	C	1.880627	0.546639	-0.285328
N25	N	1.931420	0.136218	-0.749300
N26	N	1.838341	0.211072	0.177344
H27	H	1.335492	0.190127	-0.072723
N28	N	2.126156	-0.215992	-0.141329
H29	H	2.166151	-0.248348	-0.038401
H30	H	2.127320	-0.119889	-0.134118
N31	N	2.057300	0.035024	-0.867992
H32	H	2.054257	0.037486	-0.998267
H33	H	2.034546	-0.052408	-0.832418
H34	H	2.082867	-0.443130	-0.149225
H35	H	1.743321	0.287480	-0.733032
N36	N	2.155162	-0.487461	-0.504456
H37	H	2.167036	-0.534324	-0.399068
H38	H	2.233491	-0.421103	-0.520742
N39	N	1.630890	-0.433674	-0.404749
H40	H	1.519459	-0.386923	-0.386415
H41	H	1.623233	-0.528324	-0.399381
N42	N	1.460555	0.154014	-0.545373
H43	H	1.575998	0.157675	-0.538508
H44	H	1.426659	0.226525	-0.609980
H45	H	1.624887	-0.399644	-0.125935
N46	N	1.606927	-0.164743	-0.085009
H47	H	1.557024	-0.228962	-0.006383
H48	H	1.519040	-0.105331	-0.111756
N49	N	1.638735	-0.191936	-0.407686
H50	H	1.603158	-0.268239	-0.472255
H51	H	1.721397	-0.152928	-0.496294
H52	H	1.935141	-0.459844	-0.585983
H53	H	2.122150	-0.254433	-0.495421
H54	H	1.944899	-0.242514	-0.586762
N55	N	1.861978	-0.422537	0.051073
H56	H	1.770639	-0.473055	0.035304
H57	H	1.817068	-0.338878	0.130457
N58	N	1.857206	-0.179669	0.049991
H59	H	1.769014	-0.117536	0.029044
H60	H	1.928598	-0.131136	0.113375
