data_functionalizedCrystal
_audit_creation_method	'MofGen! by Chris Wilmer'
_symmetry_space_group_name_H-M	'P1'
_symmetry_Int_Tables_number	1
_symmetry_cell_setting	triclinic
loop_
_symmetry_equiv_pos_as_xyz
  x,y,z
_cell_length_a	23.532407
_cell_length_b	16.109301
_cell_length_c	14.586319
_cell_angle_alpha	90.000787
_cell_angle_beta	89.991566
_cell_angle_gamma	96.844921
loop_
_atom_site_label
_atom_site_type_symbol
_atom_site_fract_x
_atom_site_fract_y
_atom_site_fract_z
O1	O	0.073202	-1.102555	-0.076192
O2	O	0.082312	-0.860422	-0.076208
O3	O	-0.005148	-0.988790	-0.076183
O4	O	0.160662	-0.974187	-0.076217
O5	O	-0.005149	-0.988781	0.076298
O6	O	0.082311	-0.860413	0.076273
O7	O	0.073201	-1.102546	0.076289
Cu8	Cu	0.077756	-0.981479	0.090204
Cu9	Cu	0.077757	-0.981489	-0.090123
O10	O	0.160660	-0.974178	0.076264
C11	C	0.081942	-0.829445	0.000031
C12	C	0.080836	-0.737159	0.000026
C13	C	-0.026366	-0.988414	0.000060
C14	C	-0.089587	-0.987296	0.000067
C15	C	0.073570	-1.133523	0.000048
C16	C	0.074677	-1.225809	0.000047
C17	C	-0.488436	-1.056249	0.000021
C18	C	-0.547840	-1.055210	0.000014
O19	O	-0.584349	-1.119130	-0.000015
N20	N	-0.570748	-0.978895	0.000010
C21	C	-0.534248	-0.903614	0.000003
O22	O	-0.559187	-0.838607	-0.000002
C23	C	-0.474845	-0.904654	0.000004
C24	C	-0.451941	-0.980973	0.000018
C25	C	-0.465531	-1.132562	0.000034
C26	C	-0.406131	-1.133601	0.000043
C27	C	-0.369636	-1.058325	0.000039
C28	C	-0.392541	-0.982012	0.000026
C29	C	-0.438346	-0.829373	-0.000009
C30	C	-0.378940	-0.830419	-0.000009
C31	C	-0.356036	-0.906739	0.000004
C32	C	-0.296645	-0.907774	0.000031
N33	N	-0.273738	-0.984089	0.000035
C34	C	-0.310233	-1.059365	0.000039
C35	C	-0.658998	-0.901437	0.000001
C36	C	-0.718400	-0.900396	0.000007
C37	C	-0.731988	-1.051993	0.000016
C38	C	-0.672585	-1.053032	0.000017
C39	C	-0.636091	-0.977752	0.000005
C40	C	-0.185488	-1.061539	0.000058
C41	C	-0.126082	-1.062571	0.000071
C42	C	-0.112499	-0.910975	0.000057
C43	C	-0.171900	-0.909943	0.000049
C44	C	-0.208394	-0.985232	0.000047
O45	O	-0.260102	-0.843888	0.000057
O46	O	-0.285285	-1.124361	0.000032
C47	C	0.181878	-0.974554	0.000019
C48	C	0.245100	-0.975672	0.000006
N49	N	0.077754	-0.981477	0.217035
C50	C	0.130160	-0.514498	0.000026
C51	C	0.129116	-0.427786	0.000032
C52	C	0.025348	-0.448476	0.000050
C53	C	0.026393	-0.535187	0.000050
C54	C	0.078801	-0.568195	0.000034
C55	C	0.076712	-0.394773	0.000039
C56	C	0.075580	-0.300755	0.000046
C57	C	0.079933	-0.662218	0.000029
N58	N	0.077754	-0.981497	-0.216954
C59	C	0.039040	-1.038338	0.452053
C60	C	0.039039	-1.038340	0.548034
C61	C	0.116470	-0.924631	0.548021
C62	C	0.116468	-0.924625	0.452042
C63	C	0.077754	-0.981483	0.404060
C64	C	0.077754	-0.981491	0.596021
C65	C	0.077753	-0.981494	0.700088
C66	C	0.077754	-0.981480	0.299986
H67	H	-0.107437	-1.124722	0.000084
O68	O	-0.381435	-1.215921	0.000049
H69	H	-0.333996	-1.204011	0.000057
O70	O	0.186682	-0.550105	0.000027
H71	H	0.222220	-0.498195	0.000035
O72	O	0.184511	-0.369867	0.000021
H73	H	0.221126	-0.407391	0.000004
H74	H	-0.017320	-0.421590	0.000069
H75	H	-0.215195	-1.122847	0.000053
H76	H	0.147994	-0.878324	0.412964
H77	H	-0.015433	-0.578910	0.000059
O78	O	-0.002732	-1.099639	0.400304
H79	H	0.003768	-1.090085	0.325500
O80	O	-0.504890	-1.213759	0.000051
H81	H	-0.478973	-1.266991	0.000069
H82	H	0.007514	-1.084635	0.587107
O83	O	-0.647885	-1.135350	0.000013
H84	H	-0.662555	-1.171497	0.062159
O85	O	-0.771356	-1.133188	0.000011
H86	H	-0.816509	-1.119637	-0.000003
O87	O	-0.743102	-0.818081	0.000004
H88	H	-0.707740	-0.765917	-0.000002
O89	O	-0.619636	-0.820237	0.000013
H90	H	-0.645550	-0.767002	0.000022
H91	H	-0.456984	-0.767225	-0.000026
H92	H	0.147991	-0.878340	0.587098
H93	H	-0.190549	-0.847797	0.000064
O94	O	-0.339576	-0.749222	-0.000011
H95	H	-0.365487	-0.695984	-0.000011
H96	H	-0.082774	-0.849688	0.000057
