data_functionalizedCrystal
_audit_creation_method	'MofGen! by Chris Wilmer'
_symmetry_space_group_name_H-M	'P1'
_symmetry_Int_Tables_number	1
_symmetry_cell_setting	triclinic
loop_
_symmetry_equiv_pos_as_xyz
  x,y,z
_cell_length_a	16.109301
_cell_length_b	14.853559
_cell_length_c	14.586319
_cell_angle_alpha	89.997993
_cell_angle_beta	90.003489
_cell_angle_gamma	83.546519
loop_
_atom_site_label
_atom_site_type_symbol
_atom_site_fract_x
_atom_site_fract_y
_atom_site_fract_z
O1	O	1.103294	0.115877	0.076185
O2	O	0.861251	0.130298	0.076198
O3	O	0.988741	-0.008153	0.076190
O4	O	0.975804	0.254329	0.076193
O5	O	0.988726	-0.008145	-0.076290
O6	O	0.861236	0.130306	-0.076283
O7	O	1.103278	0.115885	-0.076295
Cu8	Cu	0.982255	0.123097	-0.090212
Cu9	Cu	0.982274	0.123087	0.090114
O10	O	0.975788	0.254337	-0.076288
C11	C	0.830268	0.129718	-0.000041
C12	C	0.737970	0.127967	-0.000036
C13	C	0.429077	0.204395	-0.000051
C14	C	0.515800	0.206050	-0.000046
C15	C	0.535447	0.041781	-0.000035
C16	C	0.448726	0.040128	-0.000034
C17	C	0.395543	0.121438	-0.000047
C18	C	0.568986	0.124745	-0.000043
C19	C	0.663015	0.126538	-0.000037
C20	C	0.301508	0.119646	-0.000051
C21	C	0.988149	-0.041737	-0.000048
C22	C	0.986396	-0.141818	-0.000043
C23	C	0.978968	-0.564986	0.083075
C24	C	0.978951	-0.564971	-0.083166
C25	C	0.980605	-0.470941	-0.083167
C26	C	0.981439	-0.423928	-0.000046
C27	C	0.980619	-0.470946	0.083076
C28	C	0.981416	-0.423915	-0.166287
C29	C	0.983069	-0.329878	-0.166291
C30	C	0.983909	-0.282865	-0.083169
C31	C	0.983090	-0.329888	-0.000044
C32	C	0.983925	-0.282876	0.083077
C33	C	0.983112	-0.329899	0.166203
C34	C	0.981460	-0.423932	0.166198
C35	C	0.985562	-0.188831	-0.083164
C36	C	0.985576	-0.188836	0.083079
C37	C	1.134261	0.116465	-0.000055
C38	C	1.226559	0.118217	-0.000053
C39	C	0.976381	0.287921	-0.000047
C40	C	0.978134	0.388002	-0.000046
N41	N	0.982249	0.123103	-0.217044
C42	C	1.032747	0.177786	-0.452052
C43	C	1.032755	0.177779	-0.548033
C44	C	0.931787	0.068384	-0.548039
C45	C	0.931784	0.068387	-0.452059
C46	C	0.982262	0.123092	-0.404068
C47	C	0.982274	0.123084	-0.596029
C48	C	0.982283	0.123077	-0.700096
C49	C	0.982254	0.123098	-0.299995
N50	N	0.982287	0.123073	0.216946
H51	H	0.986259	-0.150566	0.150767
H52	H	1.073866	0.222315	-0.587098
H53	H	0.978266	-0.603254	-0.150839
N54	N	0.412550	-0.049351	-0.000024
H55	H	0.459398	-0.100610	-0.000023
H56	H	0.376991	-0.053614	-0.056549
N57	N	0.983957	-0.279172	-0.255947
H58	H	1.036143	-0.247488	-0.259650
H59	H	0.933113	-0.232874	-0.259601
N60	N	1.087199	0.236772	-0.400285
H61	H	1.051054	0.280892	-0.360469
H62	H	1.119177	0.271356	-0.445306
N63	N	0.592808	-0.045913	-0.000028
H64	H	0.652835	-0.032280	-0.000033
H65	H	0.581932	-0.082066	-0.056553
H66	H	0.986204	-0.150546	-0.150844
H67	H	0.890689	0.023846	-0.587124
H68	H	0.978309	-0.603276	0.150754
N69	N	0.983931	-0.279178	0.255854
H70	H	0.985072	-0.212469	0.243235
H71	H	1.035124	-0.302898	0.292206
H72	H	0.890672	0.023844	-0.412990
N73	N	0.980535	-0.474620	-0.255934
H74	H	0.979379	-0.541327	-0.243320
H75	H	1.032327	-0.465495	-0.292216
H76	H	0.980797	-0.462227	0.233875
N77	N	0.371727	0.292098	-0.000076
H78	H	0.382526	0.328299	0.056443
H79	H	0.311720	0.278403	-0.000118
N80	N	0.551970	0.295525	-0.000041
H81	H	0.505117	0.346779	-0.000046
H82	H	0.587524	0.299792	-0.056564
