data_functionalizedCrystal
_audit_creation_method	'MofGen! by Chris Wilmer'
_symmetry_space_group_name_H-M	'P1'
_symmetry_Int_Tables_number	1
_symmetry_cell_setting	triclinic
loop_
_symmetry_equiv_pos_as_xyz
  x,y,z
_cell_length_a	10.540510
_cell_length_b	16.974800
_cell_length_c	15.455313
_cell_angle_alpha	90.973911
_cell_angle_beta	87.308802
_cell_angle_gamma	96.049471
loop_
_atom_site_label
_atom_site_type_symbol
_atom_site_fract_x
_atom_site_fract_y
_atom_site_fract_z
O1	O	-0.161818	1.049975	0.001601
O2	O	-0.181204	0.820650	-0.014505
O3	O	0.013255	0.940556	-0.006077
O4	O	-0.356277	0.930068	-0.006827
O5	O	0.002181	0.933699	0.137703
O6	O	-0.192278	0.813793	0.129275
O7	O	-0.172892	1.043117	0.145381
Cu8	Cu	-0.183596	0.927829	0.150456
Cu9	Cu	-0.170500	0.935938	-0.019580
O10	O	-0.367351	0.923211	0.136953
C11	C	-0.185801	0.787857	0.055323
C12	C	-0.182984	0.700359	0.049178
C13	C	-0.187694	0.655520	0.124668
C14	C	-0.185027	0.573308	0.118896
C15	C	-0.177659	0.535937	0.037635
C16	C	-0.172945	0.580783	-0.037861
C17	C	-0.175603	0.662994	-0.032089
C18	C	-0.169055	0.290465	0.011967
C19	C	-0.166401	0.208248	0.006201
C20	C	-0.178481	0.200779	0.162959
C21	C	-0.181146	0.282991	0.168723
C22	C	-0.176425	0.327830	0.093228
N23	N	-0.174937	0.451903	0.031733
N24	N	-0.179138	0.411863	0.099130
C25	C	-0.409109	0.927421	0.065116
C26	C	-0.550033	0.929760	0.065274
C27	C	-0.768433	0.846445	0.059765
C28	C	-0.621839	0.843967	0.059253
C29	C	-0.588001	0.977594	-0.013741
C30	C	-0.734737	0.979483	-0.013664
C31	C	-0.747084	0.973471	0.149966
C32	C	-0.600870	0.969351	0.150752
C33	C	0.055013	0.936346	0.065758
C34	C	0.195937	0.934007	0.065594
C35	C	-0.168295	1.075911	0.075551
C36	C	-0.171112	1.163408	0.081690
N37	N	-0.192807	0.922131	0.270051
N38	N	-0.161279	0.941642	-0.139175
C39	C	-0.110224	0.973090	0.319027
C40	C	-0.117202	0.968788	0.409533
C41	C	-0.206768	0.913531	0.451061
C42	C	-0.289355	0.862567	0.402078
C43	C	-0.282370	0.866866	0.311574
C44	C	-0.236881	0.894977	0.721338
C45	C	-0.243862	0.890684	0.811849
C46	C	-0.071706	0.996904	0.819297
C47	C	-0.064735	1.001201	0.728791
C48	C	-0.147317	0.950234	0.679816
N49	N	-0.213905	0.909134	0.543572
N50	N	-0.140173	0.954628	0.587307
H51	H	-0.597396	0.806791	0.115686
H52	H	-0.316803	0.845685	0.845657
H53	H	-0.165207	0.326963	-0.049506
H54	H	-0.349616	0.825369	0.271698
H55	H	-0.304125	0.853479	0.681470
H56	H	-0.539679	1.040898	-0.012361
H57	H	-0.171770	0.699501	-0.093561
H58	H	-0.004471	1.038398	0.859181
H59	H	-0.166937	0.550349	-0.104026
O60	O	-0.376323	0.808959	0.442555
C61	C	-0.463336	0.755233	0.578675
C62	C	-0.364799	0.815992	0.532950
H63	H	-0.454035	0.760886	0.651766
H64	H	-0.563715	0.766906	0.561688
H65	H	-0.445146	0.692880	0.556410
H66	H	-0.382871	0.878368	0.555190
H67	H	-0.264453	0.804250	0.549936
H68	H	-0.815286	0.810212	0.116298
H69	H	-0.037295	1.018089	0.285222
O70	O	-0.036937	1.018380	0.456980
C71	C	0.134572	1.124177	0.454816
C72	C	0.043732	1.068068	0.400979
H73	H	0.199834	1.164353	0.409561
H74	H	0.076369	1.161884	0.499933
H75	H	0.194825	1.087788	0.494817
H76	H	-0.016541	1.104395	0.360926
H77	H	0.102010	1.030360	0.355916
H78	H	-0.552790	0.950007	-0.076987
O79	O	-0.815593	0.810185	-0.012837
C80	C	-1.002857	0.768309	-0.092167
C81	C	-0.949621	0.809399	-0.009910
H82	H	-1.111227	0.767645	-0.089819
H83	H	-0.960304	0.801926	-0.151740
H84	H	-0.976446	0.704878	-0.095810
H85	H	-0.976014	0.872829	-0.006184
H86	H	-0.992171	0.775722	0.049624
O87	O	-0.194795	0.691698	0.203676
C88	C	-0.206558	0.675598	0.358547
C89	C	-0.198494	0.634532	0.269125
H90	H	-0.209578	0.629396	0.411486
H91	H	-0.119332	0.720599	0.365701
H92	H	-0.296834	0.707204	0.364650
H93	H	-0.108272	0.602882	0.262960
H94	H	-0.285784	0.589574	0.262011
H95	H	0.008197	1.046195	0.694981
O96	O	-0.803555	0.937578	0.222003
C97	C	-0.774549	0.865168	0.351123
C98	C	-0.710428	0.905815	0.269592
H99	H	-0.699290	0.839462	0.389612
H100	H	-0.822678	0.910404	0.392970
H101	H	-0.849180	0.815495	0.331108
H102	H	-0.635744	0.955483	0.289529
H103	H	-0.662385	0.860529	0.227766
O104	O	-0.189756	0.529650	0.192161
C105	C	-0.303643	0.424191	0.276052
C106	C	-0.298439	0.473564	0.193034
H107	H	-0.391521	0.378845	0.276794
H108	H	-0.213997	0.392187	0.277745
H109	H	-0.309305	0.465037	0.335115
H110	H	-0.292820	0.432774	0.133925
H111	H	-0.388084	0.505576	0.191418
O112	O	-0.188074	0.319268	0.247685
C113	C	-0.089381	0.346310	0.384042
C114	C	-0.081355	0.305207	0.294638
H115	H	-0.003125	0.334942	0.422037
H116	H	-0.090397	0.412784	0.375258
H117	H	-0.180628	0.321586	0.421044
H118	H	0.009883	0.329866	0.257589
H119	H	-0.080410	0.238735	0.303484
O120	O	-0.159193	0.172073	-0.072810
C121	C	-0.147590	0.188144	-0.227685
C122	C	-0.155707	0.229216	-0.138268
H123	H	-0.144796	0.234324	-0.280631
H124	H	-0.057274	0.156581	-0.233890
H125	H	-0.234791	0.143104	-0.234727
H126	H	-0.068572	0.274292	-0.131165
H127	H	-0.246078	0.260727	-0.132103
O128	O	-0.183283	0.157240	0.236313
C129	C	-0.302613	0.117419	0.367969
C130	C	-0.297359	0.166745	0.284915
H131	H	-0.394823	0.125100	0.407296
H132	H	-0.299531	0.052223	0.349940
H133	H	-0.217311	0.138461	0.408189
H134	H	-0.382644	0.145772	0.244657
H135	H	-0.300378	0.231932	0.303005
H136	H	-0.551488	1.031748	0.160110
H137	H	-0.589286	0.812220	-0.002135
O138	O	-0.772784	1.050264	0.156186
C139	C	-0.874914	1.148625	0.240201
C140	C	-0.845867	1.061645	0.233287
H141	H	-0.934028	1.157850	0.302524
H142	H	-0.781509	1.189100	0.240922
H143	H	-0.930784	1.163305	0.182233
H144	H	-0.790034	1.046890	0.291241
H145	H	-0.939317	1.021217	0.232525
H146	H	-0.770570	0.952395	-0.077144
H147	H	-0.756738	1.043828	-0.012886
H148	H	-0.577274	0.934499	0.209245
