data_functionalizedCrystal
_audit_creation_method	'MofGen! by Chris Wilmer'
_symmetry_space_group_name_H-M	'P1'
_symmetry_Int_Tables_number	1
_symmetry_cell_setting	triclinic
loop_
_symmetry_equiv_pos_as_xyz
  x,y,z
_cell_length_a	10.654550
_cell_length_b	11.792254
_cell_length_c	9.730223
_cell_angle_alpha	89.998472
_cell_angle_beta	89.996251
_cell_angle_gamma	84.341750
loop_
_atom_site_label
_atom_site_type_symbol
_atom_site_fract_x
_atom_site_fract_y
_atom_site_fract_z
O1	O	1.667391	0.159414	-0.114404
O2	O	1.301870	0.174602	-0.114382
O3	O	1.493493	0.001859	-0.114383
O4	O	1.475769	0.332157	-0.114402
O5	O	1.493490	0.001863	0.114196
O6	O	1.301868	0.174607	0.114198
O7	O	1.667389	0.159418	0.114176
Zn8	Zn	1.484628	0.167013	0.150479
Zn9	Zn	1.484631	0.167007	-0.150685
O10	O	1.475767	0.332162	0.114178
C11	C	1.255074	0.173489	-0.000089
C12	C	1.115640	0.170153	-0.000080
C13	C	1.035872	0.271861	-0.000106
C14	C	0.904860	0.268719	-0.000130
C15	C	0.933397	0.062152	-0.000107
C16	C	1.064407	0.065295	-0.000074
C17	C	1.019395	0.391122	-0.000125
C18	C	0.888383	0.387980	-0.000148
C19	C	1.492375	-0.040432	-0.000094
C20	C	1.489033	-0.166453	-0.000095
C21	C	1.486318	-0.268796	-0.000100
C22	C	1.482923	-0.397190	-0.000112
C23	C	1.714185	0.160531	-0.000120
C24	C	1.853619	0.163868	-0.000137
C25	C	1.476884	0.374453	-0.000115
C26	C	1.480226	0.500473	-0.000123
N27	N	1.484635	0.167016	0.356016
N28	N	1.484634	0.166995	-0.356221
C29	C	1.569508	0.090552	0.427941
C30	C	1.569504	0.090538	0.571824
C31	C	1.399753	0.243463	0.571844
C32	C	1.399751	0.243471	0.427963
C33	C	1.667516	0.002265	0.427931
C34	C	1.667513	0.002251	0.571814
H35	H	1.048596	0.437766	0.095538
C36	C	1.152149	-0.046592	-0.000027
N37	N	1.218236	-0.130871	0.000010
C38	C	1.067432	0.442400	-0.133459
N39	N	1.103616	0.481012	-0.233894
C40	C	0.826537	0.436697	0.133150
N41	N	0.779952	0.473397	0.233545
C42	C	0.831833	0.448672	-0.129398
N43	N	0.789240	0.494381	-0.226747
H44	H	0.891667	-0.023221	-0.000123
H45	H	1.758623	0.029909	0.383297
C46	C	1.306482	0.327675	0.348851
N47	N	1.236266	0.391136	0.289263
H48	H	1.330641	0.305710	0.630439
C49	C	1.638867	-0.115588	0.375173
N50	N	1.617284	-0.204352	0.335435
H51	H	1.637229	-0.080191	0.616436
H52	H	1.763970	0.021698	0.610857
