data_functionalizedCrystal
_audit_creation_method	'MofGen! by Chris Wilmer'
_symmetry_space_group_name_H-M	'P1'
_symmetry_Int_Tables_number	1
_symmetry_cell_setting	triclinic
loop_
_symmetry_equiv_pos_as_xyz
  x,y,z
_cell_length_a	18.101395
_cell_length_b	18.101398
_cell_length_c	18.215399
_cell_angle_alpha	89.989569
_cell_angle_beta	89.973573
_cell_angle_gamma	90.026661
loop_
_atom_site_label
_atom_site_type_symbol
_atom_site_fract_x
_atom_site_fract_y
_atom_site_fract_z
Zn1	Zn	-0.294925	1.132126	-0.415939
Zn2	Zn	0.205075	1.632126	0.084061
Zn3	Zn	-0.418771	1.132020	-0.292876
Zn4	Zn	0.081229	1.632020	0.207124
Zn5	Zn	-0.294939	1.008283	-0.292907
Zn6	Zn	0.205061	1.508283	0.207093
Zn7	Zn	-0.418720	1.008236	-0.415921
Zn8	Zn	0.081280	1.508236	0.084079
O9	O	-0.356839	1.070166	-0.354411
O10	O	0.143161	1.570166	0.145589
O11	O	-0.311370	1.235745	-0.399609
O12	O	0.188630	1.735745	0.100391
O13	O	-0.402372	1.115582	-0.189896
O14	O	0.097628	1.615582	0.310104
O15	O	-0.191304	1.024776	-0.309247
O16	O	0.308696	1.524776	0.190753
O17	O	-0.402359	1.235667	-0.309195
O18	O	0.097641	1.735667	0.190805
O19	O	-0.191294	1.115762	-0.399639
O20	O	0.308706	1.615762	0.100361
O21	O	-0.311393	1.024673	-0.189918
O22	O	0.188607	1.524673	0.310082
O23	O	-0.311343	0.904644	-0.309230
O24	O	0.188657	1.404644	0.190770
O25	O	-0.402271	1.024694	-0.518908
O26	O	0.097729	1.524694	-0.018908
O27	O	-0.402284	0.904609	-0.399608
O28	O	0.097716	1.404609	0.100392
O29	O	-0.311319	1.115716	-0.518921
O30	O	0.188681	1.615716	-0.018921
O31	O	-0.522398	1.115536	-0.309178
O32	O	-0.022398	1.615536	0.190822
O33	O	-0.522359	1.024592	-0.399579
O34	O	-0.022359	1.524592	0.100421
C35	C	-0.356810	0.877756	-0.354421
C36	C	0.143190	1.377756	0.145579
C37	C	-0.356815	0.795442	-0.354443
C38	C	0.143185	1.295442	0.145557
C39	C	-0.356859	0.496351	-0.354412
C40	C	0.143141	0.996351	0.145588
C41	C	-0.414353	0.527679	-0.410995
C42	C	0.085647	1.027679	0.089005
C43	C	-0.414173	0.613297	-0.411227
C44	C	0.085827	1.113297	0.088773
C45	C	-0.356838	0.644733	-0.354427
C46	C	0.143162	1.144733	0.145573
C47	C	-0.278835	0.613679	-0.375619
C48	C	0.221165	1.113679	0.124381
C49	C	-0.279181	0.528034	-0.376022
C50	C	0.220819	1.028034	0.123978
C51	C	-0.376679	0.527897	-0.276501
C52	C	0.123321	1.027897	0.223499
C53	C	-0.378390	0.613547	-0.276917
C54	C	0.121610	1.113547	0.223083
C55	C	-0.356821	0.728593	-0.354435
C56	C	0.143179	1.228593	0.145565
C57	C	-0.356870	0.412491	-0.354406
C58	C	0.143130	0.912491	0.145594
C59	C	-0.549249	1.070067	-0.354389
C60	C	-0.049249	1.570067	0.145611
C61	C	-0.631563	1.070093	-0.354404
C62	C	-0.131563	1.570093	0.145596
C63	C	-0.930654	1.070255	-0.354444
C64	C	-0.430654	1.570255	0.145556
C65	C	-0.899336	1.013168	-0.411463
C66	C	-0.399336	1.513168	0.088537
C67	C	-0.813718	1.012897	-0.411285
C68	C	-0.313718	1.512897	0.088715
C69	C	-0.782272	1.070174	-0.354425
C70	C	-0.282272	1.570174	0.145575
C71	C	-0.813420	1.049044	-0.276867
C72	C	-0.313420	1.549044	0.223133
C73	C	-0.899065	1.048676	-0.277209
C74	C	-0.399065	1.548676	0.222791
C75	C	-0.899004	1.148597	-0.374300
C76	C	-0.399004	1.648597	0.125700
C77	C	-0.813353	1.148136	-0.376001
C78	C	-0.313353	1.648136	0.123999
C79	C	-0.698412	1.070130	-0.354409
C80	C	-0.198412	1.570130	0.145591
C81	C	-1.014514	1.070298	-0.354454
C82	C	-0.514514	1.570298	0.145546
C83	C	-0.163677	1.070286	-0.354448
C84	C	0.336323	1.570286	0.145552
C85	C	-0.081363	1.070337	-0.354465
C86	C	0.418637	1.570337	0.145535
C87	C	-0.356788	1.070211	-0.546364
C88	C	0.143212	1.570211	-0.046364
C89	C	-0.356766	1.070231	-0.628163
C90	C	0.143234	1.570231	-0.128163
C91	C	-0.356869	1.263328	-0.354401
C92	C	0.143131	1.763328	0.145599
C93	C	-0.356881	1.345642	-0.354397
C94	C	0.143119	1.845642	0.145603
C95	C	-0.309363	1.117643	-0.816365
C96	C	0.190637	1.617643	-0.316365
C97	C	-0.309342	1.117652	-0.893223
C98	C	0.190658	1.617652	-0.393223
C99	C	-0.404054	1.022871	-0.893198
C100	C	0.095946	1.522871	-0.393198
C101	C	-0.404071	1.022859	-0.816341
C102	C	0.095929	1.522859	-0.316341
C103	C	-0.356727	1.070249	-0.777926
C104	C	0.143273	1.570249	-0.277926
C105	C	-0.356688	1.070270	-0.931642
C106	C	0.143312	1.570270	-0.431642
C107	C	-0.356665	1.070279	-1.014976
C108	C	0.143335	1.570279	-0.514976
C109	C	-0.356749	1.070239	-0.694587
C110	C	0.143251	1.570239	-0.194587
C111	C	-0.356836	1.070164	-0.163204
C112	C	0.143164	1.570164	0.336796
C113	C	-0.356649	1.070288	-0.081406
C114	C	0.143351	1.570288	0.418594
H115	H	-0.472385	0.507063	-0.397861
H116	H	0.027615	1.007063	0.102139
H117	H	-0.234837	0.634043	-0.335693
H118	H	0.265163	1.134043	0.164307
H119	H	-0.920918	0.955452	-0.398477
H120	H	-0.420918	1.455452	0.101523
H121	H	-0.442640	0.984260	-0.785044
H122	H	0.057360	1.484260	-0.285044
H123	H	-0.792656	1.026117	-0.468793
H124	H	-0.292656	1.526117	0.031207
H125	H	-0.432585	0.506283	-0.257241
H126	H	0.067415	1.006283	0.242759
H127	H	-0.435788	0.633851	-0.260934
H128	H	0.064212	1.133851	0.239066
H129	H	-0.919257	1.191129	-0.332771
H130	H	-0.419257	1.691129	0.167229
H131	H	-0.472016	0.634292	-0.397946
H132	H	0.027984	1.134292	0.102054
H133	H	-0.270810	1.156229	-0.785089
H134	H	0.229190	1.656229	-0.285089
H135	H	-0.401406	0.506169	-0.468389
H136	H	0.098594	1.006169	0.031611
H137	H	-0.401059	0.633800	-0.468955
H138	H	0.098941	1.133800	0.031045
H139	H	-0.793290	0.954828	-0.398133
H140	H	-0.293290	1.454828	0.101867
H141	H	-0.919886	1.026257	-0.469158
H142	H	-0.419886	1.526257	0.030842
H143	H	-0.919104	0.991409	-0.260387
H144	H	-0.419104	1.491409	0.239613
H145	H	-0.792992	1.164071	-0.433079
H146	H	-0.292992	1.664071	0.066921
H147	H	-0.339555	0.634947	-0.232494
H148	H	0.160445	1.134947	0.267506
H149	H	-0.262370	0.508073	-0.432978
H150	H	0.237630	1.008073	0.067022
H151	H	-0.792031	0.992383	-0.259744
H152	H	-0.292031	1.492383	0.240256
H153	H	-0.234808	0.507312	-0.336699
H154	H	0.265192	1.007312	0.163301
H155	H	-0.920555	1.167862	-0.429891
H156	H	-0.420555	1.667862	0.070109
H157	H	-0.261721	0.635145	-0.431957
H158	H	0.238279	1.135145	0.068043
H159	H	-0.334800	0.507638	-0.234341
H160	H	0.165200	1.007638	0.265659
H161	H	-0.919785	1.088452	-0.233277
H162	H	-0.419785	1.588452	0.266723
H163	H	-0.793052	1.089316	-0.233226
H164	H	-0.293052	1.589316	0.266774
H165	H	-0.791944	1.192919	-0.337498
H166	H	-0.291944	1.692919	0.162502
H167	H	-0.442602	0.984289	-0.924485
H168	H	0.057398	1.484289	-0.424485
H169	H	-0.270772	1.156243	-0.924517
H170	H	0.229228	1.656243	-0.424517
