data_functionalizedCrystal
_audit_creation_method	'MofGen! by Chris Wilmer'
_symmetry_space_group_name_H-M	'P1'
_symmetry_Int_Tables_number	1
_symmetry_cell_setting	triclinic
loop_
_symmetry_equiv_pos_as_xyz
  x,y,z
_cell_length_a	10.723023
_cell_length_b	11.792254
_cell_length_c	9.798715
_cell_angle_alpha	89.996677
_cell_angle_beta	89.996770
_cell_angle_gamma	84.333073
loop_
_atom_site_label
_atom_site_type_symbol
_atom_site_fract_x
_atom_site_fract_y
_atom_site_fract_z
O1	O	1.656775	0.159187	-0.113478
O2	O	1.293583	0.174426	-0.113484
O3	O	1.483984	0.001656	-0.113471
O4	O	1.466373	0.331957	-0.113491
O5	O	1.483970	0.001656	0.113511
O6	O	1.293568	0.174425	0.113499
O7	O	1.656760	0.159187	0.113504
Zn8	Zn	1.475162	0.166806	0.149540
Zn9	Zn	1.475181	0.166806	-0.149519
O10	O	1.466359	0.331956	0.113492
C11	C	1.247079	0.173317	0.000007
C12	C	1.108533	0.169999	0.000005
C13	C	1.046757	0.168520	0.117587
C14	C	0.903563	0.165091	0.117588
C15	C	1.482868	-0.040637	0.000020
C16	C	1.479547	-0.166658	0.000018
C17	C	1.476849	-0.269000	0.000014
C18	C	1.473476	-0.397394	0.000001
C19	C	1.703264	0.160296	0.000011
C20	C	1.841810	0.163613	0.000004
C21	C	1.467475	0.374250	-0.000002
C22	C	1.470796	0.500270	-0.000010
N23	N	1.475158	0.166805	0.353639
N24	N	1.475194	0.166799	-0.353619
C25	C	1.555104	0.093944	0.421422
C26	C	1.555124	0.093940	0.578584
H27	H	1.623529	0.031563	0.363104
O28	O	1.110280	0.169889	0.237600
C29	C	1.199026	0.073547	0.244919
H30	H	1.222893	0.041294	0.137465
H31	H	1.158352	0.003635	0.306056
C32	C	1.289360	0.145930	0.447455
C33	C	1.318681	0.106322	0.315478
H34	H	1.363166	0.166144	0.490985
H35	H	1.229567	0.210835	0.442529
H36	H	1.255463	0.087663	0.498386
H37	H	1.352562	0.164593	0.264545
H38	H	1.378482	0.041427	0.320397
H39	H	0.850437	0.163826	0.218255
H40	H	1.406724	0.229177	0.411959
H41	H	1.623573	0.031565	0.636874
O42	O	1.393705	0.241274	0.576712
C43	C	1.461305	0.311620	0.494070
H44	H	1.558548	0.266973	0.472785
H45	H	1.470569	0.395572	0.549053
C46	C	1.271835	0.390202	0.384419
C47	C	1.391268	0.335362	0.358267
H48	H	1.228632	0.404852	0.300652
H49	H	1.226291	0.342812	0.440100
H50	H	1.279573	0.460156	0.430242
H51	H	1.383528	0.265403	0.312462
H52	H	1.436809	0.382741	0.302576
H53	H	0.894926	0.164892	-0.100668
H54	H	1.055411	0.168724	-0.100661
