data_functionalizedCrystal
_audit_creation_method	'MofGen! by Chris Wilmer'
_symmetry_space_group_name_H-M	'P1'
_symmetry_Int_Tables_number	1
_symmetry_cell_setting	triclinic
loop_
_symmetry_equiv_pos_as_xyz
  x,y,z
_cell_length_a	8.559649
_cell_length_b	13.596369
_cell_length_c	8.597249
_cell_angle_alpha	82.296473
_cell_angle_beta	77.625029
_cell_angle_gamma	90.005140
loop_
_atom_site_label
_atom_site_type_symbol
_atom_site_fract_x
_atom_site_fract_y
_atom_site_fract_z
O1	O	2.119303	0.086280	-0.053154
O2	O	2.619303	0.586280	0.446846
O3	O	1.655362	0.079428	0.027747
O4	O	2.155362	0.579428	0.527747
O5	O	1.896465	0.102307	-0.242273
O6	O	2.396465	0.602307	0.257727
O7	O	1.878199	0.063402	0.216866
O8	O	2.378199	0.563402	0.716866
O9	O	1.896435	-0.061277	-0.242256
O10	O	2.396435	0.438723	0.257744
O11	O	1.655332	-0.084156	0.027764
O12	O	2.155332	0.415844	0.527764
O13	O	2.119273	-0.077304	-0.053137
O14	O	2.619273	0.422696	0.446863
Zn15	Zn	1.887298	-0.106703	-0.012684
Zn16	Zn	2.387298	0.393297	0.487316
Zn17	Zn	1.887337	0.108827	-0.012706
Zn18	Zn	2.387337	0.608827	0.487294
O19	O	1.878169	-0.100183	0.216883
O20	O	2.378169	0.399817	0.716883
C21	C	1.595913	-0.002883	0.033886
C22	C	2.095913	0.497117	0.533886
C23	C	1.418817	-0.004428	0.052136
C24	C	1.918817	0.495572	0.552136
N25	N	1.887282	-0.253795	-0.012671
N26	N	2.387282	0.246205	0.487329
C27	C	1.887290	-0.342794	-0.012668
C28	C	2.387290	0.157206	0.487332
C29	C	1.887306	-0.454444	-0.012681
C30	C	2.387306	0.045556	0.487319
C31	C	1.887326	-0.543433	-0.012701
C32	C	2.387326	-0.043433	0.487299
C33	C	1.887344	-0.655090	-0.012713
C34	C	2.387344	-0.155090	0.487287
C35	C	2.178722	0.005009	-0.059276
C36	C	2.678722	0.505009	0.440724
C37	C	2.355817	0.006561	-0.077526
C38	C	2.855817	0.506561	0.422474
C39	C	1.894490	0.025452	-0.300500
C40	C	2.394490	0.525452	0.199500
C41	C	1.888629	0.040161	-0.474022
C42	C	2.388629	0.540161	0.025978
N43	N	1.887365	0.255921	-0.012733
N44	N	2.387365	0.755921	0.487267
C45	C	1.880145	-0.023325	0.275110
C46	C	2.380145	0.476675	0.775110
C47	C	1.886006	-0.038028	0.448632
C48	C	2.386006	0.461972	0.948632
H49	H	1.337262	-0.015012	0.177114
H50	H	1.837262	0.484988	0.677114
F51	F	1.885726	0.142369	-0.560990
F52	F	2.385726	0.642369	-0.060990
H53	H	1.888243	-0.116217	-0.484839
H54	H	2.388243	0.383783	0.015161
H55	H	1.437363	0.017155	-0.202496
H56	H	1.937363	0.517155	0.297504
