data_functionalizedCrystal
_audit_creation_method	'MofGen! by Chris Wilmer'
_symmetry_space_group_name_H-M	'P1'
_symmetry_Int_Tables_number	1
_symmetry_cell_setting	triclinic
loop_
_symmetry_equiv_pos_as_xyz
  x,y,z
_cell_length_a	18.050591
_cell_length_b	19.121063
_cell_length_c	18.050591
_cell_angle_alpha	87.585417
_cell_angle_beta	90.011897
_cell_angle_gamma	92.465257
loop_
_atom_site_label
_atom_site_type_symbol
_atom_site_fract_x
_atom_site_fract_y
_atom_site_fract_z
Zn1	Zn	1.122608	-0.279733	0.432629
Zn2	Zn	1.372608	-0.029733	0.682629
Zn3	Zn	1.622608	0.220267	0.932629
Zn4	Zn	1.872608	0.470267	1.182629
Zn5	Zn	1.117241	-0.397178	0.313729
Zn6	Zn	1.367241	-0.147178	0.563729
Zn7	Zn	1.617241	0.102822	0.813729
Zn8	Zn	1.867241	0.352822	1.063729
Zn9	Zn	0.998447	-0.279736	0.308441
Zn10	Zn	1.248447	-0.029736	0.558441
Zn11	Zn	1.498447	0.220264	0.808441
Zn12	Zn	1.748447	0.470264	1.058441
Zn13	Zn	0.993079	-0.397140	0.437863
Zn14	Zn	1.243079	-0.147140	0.687863
Zn15	Zn	1.493079	0.102860	0.937863
Zn16	Zn	1.743079	0.352860	1.187863
O17	O	1.057844	-0.338447	0.373165
O18	O	1.307844	-0.088447	0.623165
O19	O	1.557844	0.161553	0.873165
O20	O	1.807844	0.411553	1.123165
O21	O	1.225820	-0.295327	0.416880
O22	O	1.475820	-0.045327	0.666880
O23	O	1.725820	0.204673	0.916880
O24	O	1.975820	0.454673	1.166880
O25	O	1.101482	-0.381616	0.209104
O26	O	1.351482	-0.131616	0.459104
O27	O	1.601482	0.118384	0.709104
O28	O	1.851482	0.368384	0.959104
O29	O	1.019410	-0.181451	0.320512
O30	O	1.269410	0.068549	0.570512
O31	O	1.519410	0.318549	0.820512
O32	O	1.769410	0.568549	1.070512
O33	O	1.221877	-0.381613	0.329524
O34	O	1.471877	-0.131613	0.579524
O35	O	1.721877	0.118387	0.829524
O36	O	1.971877	0.368387	1.079524
O37	O	1.110630	-0.181449	0.411752
O38	O	1.360630	0.068551	0.661752
O39	O	1.610630	0.318551	0.911752
O40	O	1.860630	0.568551	1.161752
O41	O	1.014205	-0.295332	0.205218
O42	O	1.264205	-0.045332	0.455218
O43	O	1.514205	0.204668	0.705218
O44	O	1.764205	0.454668	0.955218
O45	O	0.893811	-0.295296	0.325586
O46	O	1.143811	-0.045296	0.575586
O47	O	1.393811	0.204704	0.825586
O48	O	1.643811	0.454704	1.075586
O49	O	1.010262	-0.381549	0.541092
O50	O	1.260262	-0.131549	0.791092
O51	O	1.510262	0.118451	1.041092
O52	O	1.760262	0.368451	1.291092
O53	O	0.889867	-0.381552	0.420672
O54	O	1.139867	-0.131552	0.670672
O55	O	1.389867	0.118448	0.920672
O56	O	1.639867	0.368448	1.170672
O57	O	1.105426	-0.295291	0.537247
O58	O	1.355426	-0.045291	0.787247
O59	O	1.605426	0.204709	1.037247
O60	O	1.855426	0.454709	1.287247
O61	O	1.096278	-0.495457	0.334599
O62	O	1.346278	-0.245457	0.584599
O63	O	1.596278	0.004543	0.834599
O64	O	1.846278	0.254543	1.084599
O65	O	1.005057	-0.495430	0.425799
O66	O	1.255057	-0.245430	0.675799
O67	O	1.505057	0.004570	0.925799
O68	O	1.755057	0.254570	1.175799
C69	C	0.864893	-0.338421	0.373123
C70	C	1.114893	-0.088421	0.623123
C71	C	1.364893	0.161579	0.873123
C72	C	1.614893	0.411579	1.123123
C73	C	0.782347	-0.338426	0.373123
C74	C	1.032347	-0.088426	0.623123
C75	C	1.282347	0.161574	0.873123
C76	C	1.532347	0.411574	1.123123
C77	C	1.049523	-0.520928	0.381357
C78	C	1.299523	-0.270928	0.631357
C79	C	1.549523	-0.020928	0.881357
C80	C	1.799523	0.229072	1.131357
C81	C	1.046031	-0.598994	0.384886
C82	C	1.296031	-0.348994	0.634886
C83	C	1.546031	-0.098994	0.884886
C84	C	1.796031	0.151006	1.134886
C85	C	0.585021	-0.291466	0.321528
C86	C	0.835021	-0.041466	0.571528
C87	C	1.085021	0.208534	0.821528
C88	C	1.335021	0.458534	1.071528
C89	C	0.532715	-0.355526	0.306137
C90	C	0.782715	-0.105526	0.556137
C91	C	1.032715	0.144474	0.806137
C92	C	1.282715	0.394474	1.056137
C93	C	0.631215	-0.338448	0.373158
C94	C	0.881215	-0.088448	0.623158
C95	C	1.131215	0.161552	0.873158
C96	C	1.381215	0.411552	1.123158
C97	C	0.536439	-0.274410	0.388548
C98	C	0.786439	-0.024410	0.638548
C99	C	1.036439	0.225590	0.888548
C100	C	1.286439	0.475590	1.138548
C101	C	0.485230	-0.338463	0.373190
C102	C	0.735230	-0.088463	0.623190
C103	C	0.985230	0.161537	0.873190
C104	C	1.235230	0.411537	1.123190
C105	C	0.579995	-0.402541	0.357733
C106	C	0.829995	-0.152541	0.607733
C107	C	1.079995	0.097459	0.857733
C108	C	1.329995	0.347459	1.107733
C109	C	0.583725	-0.321382	0.440174
C110	C	0.833725	-0.071382	0.690174
C111	C	1.083725	0.178618	0.940174
C112	C	1.333725	0.428618	1.190174
C113	C	0.531439	-0.385487	0.424811
C114	C	0.781439	-0.135487	0.674811
C115	C	1.031439	0.114513	0.924811
C116	C	1.281439	0.364513	1.174811
C117	C	0.715314	-0.338438	0.373138
C118	C	0.965314	-0.088438	0.623138
C119	C	1.215314	0.161562	0.873138
C120	C	1.465314	0.411562	1.123138
C121	C	0.401132	-0.338479	0.373210
C122	C	0.651132	-0.088479	0.623210
C123	C	0.901132	0.161521	0.873210
C124	C	1.151132	0.411521	1.123210
C125	C	1.091921	-0.635660	0.339100
C126	C	1.341921	-0.385660	0.589100
C127	C	1.591921	-0.135660	0.839100
C128	C	1.841921	0.114340	1.089100
C129	C	1.088642	-0.709012	0.342423
C130	C	1.338642	-0.459012	0.592423
C131	C	1.588642	-0.209012	0.842423
C132	C	1.838642	0.040988	1.092423
C133	C	1.039467	-0.745695	0.391530
C134	C	1.289467	-0.495695	0.641530
C135	C	1.539467	-0.245695	0.891530
C136	C	1.789467	0.004305	1.141530
C137	C	0.993575	-0.709024	0.437321
C138	C	1.243575	-0.459024	0.687321
C139	C	1.493575	-0.209024	0.937321
C140	C	1.743575	0.040976	1.187321
C141	C	0.996859	-0.635674	0.434000
C142	C	1.246859	-0.385674	0.684000
C143	C	1.496859	-0.135674	0.934000
C144	C	1.746859	0.114326	1.184000
C145	C	1.027178	-0.967166	0.403932
C146	C	1.277178	-0.717166	0.653932
C147	C	1.527178	-0.467166	0.903932
C148	C	1.777178	-0.217166	1.153932
C149	C	1.023896	-1.040521	0.407247
C150	C	1.273896	-0.790521	0.657247
C151	C	1.523896	-0.540521	0.907247
C152	C	1.773896	-0.290521	1.157247
C153	C	1.118963	-1.040504	0.312350
C154	C	1.368963	-0.790504	0.562350
C155	C	1.618963	-0.540504	0.812350
C156	C	1.868963	-0.290504	1.062350
C157	C	1.122240	-0.967152	0.309031
C158	C	1.372240	-0.717152	0.559031
C159	C	1.622240	-0.467152	0.809031
C160	C	1.872240	-0.217152	1.059031
C161	C	1.076350	-0.930487	0.354825
C162	C	1.326350	-0.680487	0.604825
C163	C	1.576350	-0.430487	0.854825
C164	C	1.826350	-0.180487	1.104825
C165	C	1.036112	-0.820672	0.394926
C166	C	1.286112	-0.570672	0.644926
C167	C	1.536112	-0.320672	0.894926
C168	C	1.786112	-0.070672	1.144926
C169	C	1.079710	-0.855512	0.351432
C170	C	1.329710	-0.605512	0.601432
C171	C	1.579710	-0.355512	0.851432
C172	C	1.829710	-0.105512	1.101432
C173	C	1.251548	-0.338474	0.373208
C174	C	1.501548	-0.088474	0.623208
C175	C	1.751548	0.161526	0.873208
C176	C	2.001548	0.411526	1.123208
C177	C	1.334093	-0.338485	0.373227
C178	C	1.584093	-0.088485	0.623227
C179	C	1.834093	0.161515	0.873227
C180	C	2.084093	0.411515	1.123227
C181	C	1.057844	-0.338416	0.566870
C182	C	1.307844	-0.088416	0.816870
C183	C	1.557844	0.161584	1.066870
C184	C	1.807844	0.411584	1.316870
C185	C	1.057844	-0.338402	0.649415
C186	C	1.307844	-0.088402	0.899415
C187	C	1.557844	0.161598	1.149415
C188	C	1.807844	0.411598	1.399415
C189	C	1.066217	-0.155253	0.364958
C190	C	1.316217	0.094747	0.614958
C191	C	1.566217	0.344747	0.864958
C192	C	1.816217	0.594747	1.114958
C193	C	1.069786	-0.077187	0.361461
C194	C	1.319786	0.172813	0.611461
C195	C	1.569786	0.422813	0.861461
C196	C	1.819786	0.672813	1.111461
C197	C	1.109607	-0.291517	0.846776
C198	C	1.359607	-0.041517	1.096776
C199	C	1.609607	0.208483	1.346776
C200	C	1.859607	0.458483	1.596776
C201	C	1.042640	-0.274334	0.895389
C202	C	1.292640	-0.024334	1.145389
C203	C	1.542640	0.225666	1.395389
C204	C	1.792640	0.475666	1.645389
C205	C	1.057846	-0.338424	0.800546
C206	C	1.307846	-0.088424	1.050546
C207	C	1.557846	0.161576	1.300546
C208	C	1.807846	0.411576	1.550546
C209	C	1.124815	-0.355596	0.899013
C210	C	1.374815	-0.105596	1.149013
C211	C	1.624815	0.144404	1.399013
C212	C	1.874815	0.394404	1.649013
C213	C	1.057854	-0.338444	0.946532
C214	C	1.307854	-0.088444	1.196532
C215	C	1.557854	0.161556	1.446532
C216	C	1.807854	0.411556	1.696532
C217	C	0.990844	-0.321208	0.848071
C218	C	1.240844	-0.071208	1.098071
C219	C	1.490844	0.178792	1.348071
C220	C	1.740844	0.428792	1.598071
C221	C	1.073063	-0.402499	0.851692
C222	C	1.323063	-0.152499	1.101692
C223	C	1.573063	0.097501	1.351692
C224	C	1.823063	0.347501	1.601692
C225	C	1.006048	-0.385341	0.900285
C226	C	1.256048	-0.135341	1.150285
C227	C	1.506048	0.114659	1.400285
C228	C	1.756048	0.364659	1.650285
C229	C	1.057842	-0.338411	0.716447
C230	C	1.307842	-0.088411	0.966447
C231	C	1.557842	0.161589	1.216447
C232	C	1.807842	0.411589	1.466447
C233	C	1.057850	-0.338457	1.030629
C234	C	1.307850	-0.088457	1.280629
C235	C	1.557850	0.161543	1.530629
C236	C	1.807850	0.411543	1.780629
C237	C	1.057842	-0.338484	1.180215
C238	C	1.307842	-0.088484	1.430215
C239	C	1.557842	0.161516	1.680215
C240	C	1.807842	0.411516	1.930215
C241	C	1.057855	-0.338468	1.097668
C242	C	1.307855	-0.088468	1.347668
C243	C	1.557855	0.161532	1.597668
C244	C	1.807855	0.411532	1.847668
H245	H	0.608476	-0.251778	0.277822
H246	H	0.858476	-0.001778	0.527822
H247	H	1.108476	0.248222	0.777822
H248	H	1.358476	0.498222	1.027822
H249	H	0.983861	-1.070386	0.447248
H250	H	1.233861	-0.820386	0.697248
H251	H	1.483861	-0.570386	0.947248
H252	H	1.733861	-0.320386	1.197248
O253	O	0.510970	-0.202669	0.405785
O254	O	0.760970	0.047331	0.655785
O255	O	1.010970	0.297331	0.905785
O256	O	1.260970	0.547331	1.155785
H257	H	0.532496	-0.163765	0.362838
H258	H	0.782496	0.086235	0.612838
H259	H	1.032496	0.336235	0.862838
H260	H	1.282496	0.586235	1.112838
H261	H	0.962230	-0.425017	0.923575
H262	H	1.212230	-0.175017	1.173575
H263	H	1.462230	0.074983	1.423575
H264	H	1.712230	0.324983	1.673575
O265	O	0.503059	-0.374664	0.231089
O266	O	0.753059	-0.124664	0.481089
O267	O	1.003059	0.125336	0.731089
O268	O	1.253059	0.375336	0.981089
H269	H	0.524576	-0.335584	0.188312
H270	H	0.774576	-0.085584	0.438312
H271	H	1.024576	0.164416	0.688312
H272	H	1.274576	0.414416	0.938312
O273	O	1.175270	-0.927583	0.256062
O274	O	1.425270	-0.677583	0.506062
O275	O	1.675270	-0.427583	0.756062
O276	O	1.925270	-0.177583	1.006062
H277	H	1.214520	-0.894110	0.287821
H278	H	1.464520	-0.644110	0.537821
H279	H	1.714520	-0.394110	0.787821
H280	H	1.964520	-0.144110	1.037821
O281	O	1.167523	-0.238941	0.815717
O282	O	1.417523	0.011059	1.065717
O283	O	1.667523	0.261059	1.315717
O284	O	1.917523	0.511059	1.565717
H285	H	1.167349	-0.239768	0.754270
H286	H	1.417349	0.010232	1.004270
H287	H	1.667349	0.260232	1.254270
H288	H	1.917349	0.510232	1.504270
H289	H	1.156325	-1.070365	0.275069
H290	H	1.406325	-0.820365	0.525069
H291	H	1.656325	-0.570365	0.775069
H292	H	1.906325	-0.320365	1.025069
O293	O	1.090142	-0.474239	0.826100
O294	O	1.340142	-0.224239	1.076100
O295	O	1.590142	0.025761	1.326100
O296	O	1.840142	0.275761	1.576100
H297	H	1.145787	-0.488366	0.846479
H298	H	1.395787	-0.238366	1.096479
H299	H	1.645787	0.011634	1.346479
H300	H	1.895787	0.261634	1.596479
O301	O	1.199830	-0.374824	0.928618
O302	O	1.449830	-0.124824	1.178618
O303	O	1.699830	0.125176	1.428618
O304	O	1.949830	0.375176	1.678618
H305	H	1.198991	-0.375137	0.990116
H306	H	1.448991	-0.125137	1.240116
H307	H	1.698991	0.124863	1.490116
H308	H	1.948991	0.374863	1.740116
O309	O	0.977663	-0.927623	0.453298
O310	O	1.227663	-0.677623	0.703298
O311	O	1.477663	-0.427623	0.953298
O312	O	1.727663	-0.177623	1.203298
H313	H	0.942906	-0.965456	0.487988
H314	H	1.192906	-0.715456	0.737988
H315	H	1.442906	-0.465456	0.987988
H316	H	1.692906	-0.215456	1.237988
O317	O	0.605333	-0.474306	0.340409
O318	O	0.855333	-0.224306	0.590409
O319	O	1.105333	0.025694	0.840409
O320	O	1.355333	0.275694	1.090409
H321	H	0.666847	-0.473728	0.340500
H322	H	0.916847	-0.223728	0.590500
H323	H	1.166847	0.026272	0.840500
H324	H	1.416847	0.276272	1.090500
H325	H	0.953540	-0.738897	0.477307
H326	H	1.203540	-0.488897	0.727307
H327	H	1.453540	-0.238897	0.977307
H328	H	1.703540	0.011103	1.227307
H329	H	1.029768	-0.220156	0.914679
H330	H	1.279768	0.029844	1.164679
H331	H	1.529768	0.279844	1.414679
H332	H	1.779768	0.529844	1.664679
O333	O	0.915811	-0.301887	0.818593
O334	O	1.165811	-0.051887	1.068593
O335	O	1.415811	0.198113	1.318593
O336	O	1.665811	0.448113	1.568593
H337	H	0.916407	-0.302002	0.757110
H338	H	1.166407	-0.052002	1.007110
H339	H	1.416407	0.197998	1.257110
H340	H	1.666407	0.447998	1.507110
O341	O	0.500526	-0.438178	0.482662
O342	O	0.750526	-0.188178	0.732662
O343	O	1.000526	0.061822	0.982662
O344	O	1.250526	0.311822	1.232662
H345	H	0.517993	-0.491267	0.469719
H346	H	0.767993	-0.241267	0.719719
H347	H	1.017993	0.008733	0.969719
H348	H	1.267993	0.258733	1.219719
O349	O	0.613407	-0.302226	0.515201
O350	O	0.863407	-0.052226	0.765201
O351	O	1.113407	0.197774	1.015201
O352	O	1.363407	0.447774	1.265201
H353	H	0.596087	-0.249014	0.527837
H354	H	0.846087	0.000986	0.777837
H355	H	1.096087	0.250986	1.027837
H356	H	1.346087	0.500986	1.277837
H357	H	1.126010	-0.738863	0.305139
H358	H	1.376010	-0.488863	0.555139
H359	H	1.626010	-0.238863	0.805139
H360	H	1.876010	0.011137	1.055139
O361	O	1.144966	-0.596093	0.286143
O362	O	1.394966	-0.346093	0.536143
O363	O	1.644966	-0.096093	0.786143
O364	O	1.894966	0.153907	1.036143
H365	H	1.131656	-0.610213	0.228480
H366	H	1.381656	-0.360213	0.478480
H367	H	1.631656	-0.110213	0.728480
H368	H	1.881656	0.139787	0.978480
O369	O	0.947356	-0.596120	0.483374
O370	O	1.197356	-0.346120	0.733374
O371	O	1.447356	-0.096120	0.983374
O372	O	1.697356	0.153880	1.233374
H373	H	0.912602	-0.633950	0.518072
H374	H	1.162602	-0.383950	0.768072
H375	H	1.412602	-0.133950	1.018072
H376	H	1.662602	0.116050	1.268072
H377	H	1.119750	-0.825642	0.311452
H378	H	1.369750	-0.575642	0.561452
H379	H	1.619750	-0.325642	0.811452
H380	H	1.869750	-0.075642	1.061452
H381	H	0.996073	-0.850548	0.434907
H382	H	1.246073	-0.600548	0.684907
H383	H	1.496073	-0.350548	0.934907
H384	H	1.746073	-0.100548	1.184907
