data_functionalizedCrystal
_audit_creation_method	'MofGen! by Chris Wilmer'
_symmetry_space_group_name_H-M	'P1'
_symmetry_Int_Tables_number	1
_symmetry_cell_setting	triclinic
loop_
_symmetry_equiv_pos_as_xyz
  x,y,z
_cell_length_a	16.109295
_cell_length_b	10.540539
_cell_length_c	14.586319
_cell_angle_alpha	89.998343
_cell_angle_beta	90.000576
_cell_angle_gamma	96.007661
loop_
_atom_site_label
_atom_site_type_symbol
_atom_site_fract_x
_atom_site_fract_y
_atom_site_fract_z
O1	O	-1.104131	0.163125	-0.076174
O2	O	-0.862193	0.183437	-0.076189
O3	O	-0.988682	-0.011504	-0.076180
O4	O	-0.977642	0.358066	-0.076183
O5	O	-0.988673	-0.011507	0.076301
O6	O	-0.862184	0.183434	0.076292
O7	O	-1.104122	0.163122	0.076307
Cu8	Cu	-0.983152	0.173278	0.090222
Cu9	Cu	-0.983163	0.173281	-0.090104
O10	O	-0.977633	0.358063	0.076298
C11	C	-0.831208	0.182614	0.000050
C12	C	-0.738898	0.180151	0.000044
C13	C	-0.517297	0.290096	0.000053
C14	C	-0.430562	0.287772	0.000058
C15	C	-0.449022	0.056485	0.000057
C16	C	-0.535756	0.058810	0.000058
C17	C	-0.569890	0.175620	0.000051
C18	C	-0.396422	0.170970	0.000056
C19	C	-0.302381	0.168449	0.000062
C20	C	-0.663938	0.178141	0.000047
C21	C	-0.987849	-0.058797	0.000059
C22	C	-0.985373	-0.199710	0.000054
C23	C	-0.890462	-0.381781	-0.000294
C24	C	-0.892973	-0.235198	0.000049
C25	C	-1.029834	-0.262004	0.087131
C26	C	-1.026681	-0.408504	0.087204
C27	C	-1.028570	-0.409045	-0.086195
C28	C	-1.029421	-0.262076	-0.087346
C29	C	-0.135106	0.163953	0.000066
C30	C	-0.227415	0.166439	0.000063
C31	C	-0.978466	0.405356	0.000058
C32	C	-0.980943	0.546269	0.000057
N33	N	-0.983151	0.173275	0.217054
N34	N	-0.983171	0.173274	-0.216935
C35	C	-1.039179	0.086983	0.452065
C36	C	-1.039182	0.086980	0.548046
C37	C	-0.927137	0.259570	0.548047
C38	C	-0.927131	0.259566	0.452068
C39	C	-0.983157	0.173274	0.404079
C40	C	-0.983165	0.173275	0.596040
C41	C	-0.983167	0.173272	0.700107
C42	C	-0.983154	0.173275	0.300005
H43	H	-0.578579	-0.034416	0.000059
N44	N	-0.846632	-0.178088	-0.082629
H45	H	-0.824384	-0.248127	-0.119626
H46	H	-0.798656	-0.115370	-0.061763
N47	N	-0.412211	-0.069502	0.000049
H48	H	-0.431339	-0.119658	0.056573
H49	H	-0.349291	-0.053510	0.000010
H50	H	-0.545087	0.385210	0.000055
N51	N	-0.373836	0.411243	0.000111
H52	H	-0.408624	0.485588	0.000124
H53	H	-0.337424	0.415365	-0.056397
N54	N	-0.866696	0.352638	0.400312
H55	H	-0.876802	0.442737	0.417006
H56	H	-0.875218	0.339428	0.332244
N57	N	-0.842109	-0.418968	-0.083003
H58	H	-0.878382	-0.482820	-0.121050
H59	H	-0.790762	-0.458267	-0.062151
H60	H	-0.881523	0.329828	0.587130
N61	N	-0.842299	-0.421094	0.081949
H62	H	-0.878835	-0.485309	0.119433
H63	H	-0.824628	-0.343604	0.120759
N64	N	-0.846308	-0.179205	0.082866
H65	H	-0.786439	-0.199418	0.080185
H66	H	-0.873539	-0.217065	0.140429
H67	H	-0.993814	-0.436235	0.152292
H68	H	-0.996889	-0.220751	-0.151763
N69	N	-1.114694	-0.473327	0.092456
H70	H	-1.147611	-0.447878	0.037730
H71	H	-1.142043	-0.446597	0.150651
N72	N	-1.119726	-0.233730	0.091415
H73	H	-1.132522	-0.180132	0.036823
H74	H	-1.129261	-0.185755	0.149766
N75	N	-0.988930	-0.204986	0.172965
H76	H	-0.941607	-0.138821	0.155644
H77	H	-0.966445	-0.274503	0.210288
H78	H	-0.998669	-0.440170	-0.152193
N79	N	-1.118659	-0.231283	-0.094313
H80	H	-1.119729	-0.135799	-0.098196
H81	H	-1.150664	-0.264910	-0.038329
N82	N	-1.116974	-0.472856	-0.086972
H83	H	-1.126165	-0.530435	-0.031756
H84	H	-1.126599	-0.525076	-0.144774
N85	N	-1.099603	-0.006085	0.400303
H86	H	-1.135091	-0.060751	0.445270
H87	H	-1.067440	-0.062216	0.360485
H88	H	-1.084799	0.016713	0.587113
