data_functionalizedCrystal
_audit_creation_method	'MofGen! by Chris Wilmer'
_symmetry_space_group_name_H-M	'P1'
_symmetry_Int_Tables_number	1
_symmetry_cell_setting	triclinic
loop_
_symmetry_equiv_pos_as_xyz
  x,y,z
_cell_length_a	14.971486
_cell_length_b	19.288865
_cell_length_c	13.448316
_cell_angle_alpha	89.988163
_cell_angle_beta	89.998199
_cell_angle_gamma	83.375189
loop_
_atom_site_label
_atom_site_type_symbol
_atom_site_fract_x
_atom_site_fract_y
_atom_site_fract_z
O1	O	1.186458	0.090517	-0.082589
O2	O	0.925999	0.101357	-0.082618
O3	O	1.063755	-0.005169	-0.082583
O4	O	1.048703	0.197043	-0.082624
O5	O	1.063737	-0.005175	0.082801
O6	O	0.925982	0.101350	0.082766
O7	O	1.186441	0.090511	0.082794
Cu8	Cu	1.056210	0.095930	0.097881
Cu9	Cu	1.056230	0.095938	-0.097704
O10	O	1.048685	0.197036	0.082760
C11	C	0.892669	0.100869	0.000071
C12	C	0.793379	0.099416	0.000061
C13	C	0.735816	0.161997	0.000049
C14	C	0.642524	0.160628	0.000065
C15	C	0.606797	0.096677	0.000084
C16	C	0.664368	0.034092	0.000098
C17	C	0.757658	0.035461	0.000090
C18	C	0.469921	0.031241	0.000112
C19	C	0.376624	0.029871	0.000118
C20	C	0.354786	0.156407	0.000087
C21	C	0.448077	0.157777	0.000079
C22	C	0.505641	0.095191	0.000091
C23	C	1.063262	-0.031050	0.000112
C24	C	1.061808	-0.108158	0.000120
C25	C	1.142636	-0.152591	0.000134
C26	C	1.141271	-0.225043	0.000118
C27	C	1.059071	-0.253058	0.000109
C28	C	0.978232	-0.208615	0.000089
C29	C	0.979600	-0.136166	0.000095
C30	C	0.994447	-0.361558	0.058032
C31	C	0.993083	-0.434007	0.058032
C32	C	1.054848	-0.476517	0.000086
C33	C	1.117994	-0.446571	-0.057848
C34	C	1.119362	-0.374121	-0.057842
C35	C	1.057579	-0.331617	0.000101
C36	C	1.134201	-0.599511	0.000081
C37	C	1.132832	-0.671963	0.000059
C38	C	0.969791	-0.655535	0.000040
C39	C	0.971163	-0.583084	0.000052
C40	C	1.053370	-0.555077	0.000077
C41	C	1.219771	0.090999	0.000104
C42	C	1.319061	0.092452	0.000107
C43	C	1.049178	0.222918	0.000063
C44	C	1.050632	0.300026	0.000048
N45	N	1.056202	0.095924	0.235445
N46	N	1.056245	0.095938	-0.235269
C47	C	1.117219	0.048774	0.287501
C48	C	1.117224	0.048773	0.391604
C49	C	1.056217	0.095927	0.443650
C50	C	0.995193	0.143079	0.391587
C51	C	0.995184	0.143076	0.287486
C52	C	0.995218	0.143084	0.608567
C53	C	0.995228	0.143088	0.712675
C54	C	1.117258	0.048781	0.712686
C55	C	1.117249	0.048778	0.608584
C56	C	1.056227	0.095932	0.556529
H57	H	0.804527	-0.015498	0.000099
C58	C	0.579207	0.229467	0.000049
H59	H	0.613846	0.267749	0.000024
H60	H	0.542364	0.231565	0.057725
H61	H	0.542358	0.231562	-0.057628
H62	H	0.307912	0.207367	0.000081
H63	H	0.944148	-0.326952	0.105224
C64	C	0.533240	-0.037602	0.000114
H65	H	0.498603	-0.075886	0.000113
H66	H	0.570095	-0.039707	0.057780
H67	H	0.570077	-0.039689	-0.057573
H68	H	0.477162	0.209852	0.000054
H69	H	1.209576	-0.129793	0.000151
C70	C	0.337326	-0.040473	0.000146
H71	H	0.384969	-0.077551	0.000165
H72	H	0.301386	-0.043638	-0.057524
H73	H	0.301388	-0.043633	0.057829
H74	H	0.764896	0.214073	0.000033
H75	H	0.941662	-0.458383	0.105199
H76	H	0.635272	-0.017978	0.000128
C77	C	0.882253	-0.534203	0.000043
H78	H	0.894840	-0.487042	0.000039
H79	H	0.848524	-0.542710	0.057709
H80	H	0.848546	-0.542693	-0.057645
C81	C	1.230185	-0.273927	0.000140
H82	H	1.279340	-0.246870	0.000162
H83	H	1.233052	-0.302525	-0.057531
H84	H	1.233023	-0.302537	0.057822
H85	H	1.166908	0.010380	0.433988
H86	H	1.166930	0.010386	0.566209
H87	H	1.170776	-0.349742	-0.105015
C88	C	1.185935	-0.493322	-0.121599
H89	H	1.176071	-0.540759	-0.113318
H90	H	1.245337	-0.487418	-0.101223
H91	H	1.178296	-0.480638	-0.189592
H92	H	1.201139	-0.576706	0.000097
H93	H	1.198655	-0.708141	0.000065
H94	H	0.902863	-0.678344	0.000027
C95	C	0.887816	-0.239430	0.000082
H96	H	0.898577	-0.288942	0.000091
H97	H	0.854551	-0.224174	-0.057594
H98	H	0.854542	-0.224190	0.057759
H99	H	0.913778	-0.099988	0.000084
H100	H	0.945497	0.181469	0.245103
C101	C	1.184333	-0.003089	0.230255
H102	H	1.175598	0.003666	0.160800
H103	H	1.174819	-0.049460	0.247331
H104	H	1.243996	0.004542	0.247309
C105	C	1.184375	-0.003092	0.769942
H106	H	1.175637	0.003656	0.839395
H107	H	1.244035	0.004527	0.752874
H108	H	1.174844	-0.049463	0.752895
H109	H	0.945549	0.181485	0.755046
C110	C	0.928099	0.194955	0.551307
H111	H	0.891773	0.223044	0.597212
H112	H	0.890965	0.169923	0.510709
H113	H	0.960161	0.223910	0.510686
H114	H	0.945515	0.181470	0.433968
