data_functionalizedCrystal
_audit_creation_method	'MofGen! by Chris Wilmer'
_symmetry_space_group_name_H-M	'P1'
_symmetry_Int_Tables_number	1
_symmetry_cell_setting	triclinic
loop_
_symmetry_equiv_pos_as_xyz
  x,y,z
_cell_length_a	16.992695
_cell_length_b	16.992697
_cell_length_c	16.053789
_cell_angle_alpha	87.285052
_cell_angle_beta	92.721521
_cell_angle_gamma	89.331663
loop_
_atom_site_label
_atom_site_type_symbol
_atom_site_fract_x
_atom_site_fract_y
_atom_site_fract_z
O1	O	0.170059	-1.053991	0.069309
O2	O	0.168228	-0.825592	0.069337
O3	O	0.054943	-0.938876	0.069317
O4	O	0.283344	-0.940708	0.069330
O5	O	0.048648	-0.932573	-0.069542
O6	O	0.161933	-0.819290	-0.069522
O7	O	0.163763	-1.047688	-0.069550
Zn8	Zn	0.161849	-0.932488	-0.091583
Zn9	Zn	0.170143	-0.940792	0.091370
O10	O	0.277049	-0.934405	-0.069529
C11	C	0.162725	-0.793081	-0.000089
C12	C	0.155697	-0.705597	-0.000078
C13	C	0.223515	-0.659606	-0.000074
C14	C	0.216905	-0.577405	-0.000085
C15	C	0.142477	-0.541196	-0.000093
C16	C	0.074654	-0.587193	-0.000100
C17	C	0.081264	-0.669392	-0.000095
C18	C	0.115081	-0.295881	-0.000113
C19	C	0.108476	-0.213676	-0.000115
C20	C	0.250728	-0.203893	-0.000102
C21	C	0.257332	-0.286095	-0.000092
C22	C	0.189508	-0.332084	-0.000103
N23	N	0.135719	-0.457174	-0.000101
N24	N	0.196267	-0.416105	-0.000101
C25	C	0.022435	-0.933369	-0.000112
C26	C	-0.065049	-0.926340	-0.000111
C27	C	-0.111040	-0.994158	-0.000120
C28	C	-0.193241	-0.987549	-0.000112
C29	C	-0.229449	-0.913122	-0.000100
C30	C	-0.183451	-0.845299	-0.000088
C31	C	-0.101252	-0.851909	-0.000091
C32	C	-0.474762	-0.885728	-0.000085
C33	C	-0.556968	-0.879123	-0.000085
C34	C	-0.566751	-1.021374	-0.000107
C35	C	-0.484551	-1.027977	-0.000115
C36	C	-0.438560	-0.960154	-0.000098
N37	N	-0.313471	-0.906365	-0.000093
N38	N	-0.354539	-0.966912	-0.000099
C39	C	0.309556	-0.939912	-0.000098
C40	C	0.397041	-0.946941	-0.000094
C41	C	0.169266	-0.080200	-0.000118
C42	C	0.176294	-0.167685	-0.000112
N43	N	0.156188	-0.926827	-0.216443
C44	C	0.204972	-0.975580	-0.260137
C45	C	0.201008	-0.971630	-0.347543
C46	C	0.148263	-0.918922	-0.391255
C47	C	0.099473	-0.870167	-0.347555
C48	C	0.103434	-0.874122	-0.260150
C49	C	0.130969	-0.901659	-0.652665
C50	C	0.127014	-0.897706	-0.740076
C51	C	0.228548	-0.999171	-0.740058
C52	C	0.232508	-1.003117	-0.652651
C53	C	0.183715	-0.954365	-0.608959
N54	N	0.144211	-0.914882	-0.480599
N55	N	0.187763	-0.958410	-0.519617
N56	N	0.175798	-0.946460	0.216230
H57	H	0.317939	-0.315570	-0.000076
N58	N	0.078353	-0.849060	-0.605559
H59	H	0.111834	-0.814317	-0.569296
H60	H	0.043632	-0.882603	-0.569343
H61	H	-0.063807	-0.796684	-0.000083
H62	H	0.240732	-1.011331	-0.383115
N63	N	0.281156	-1.051758	-0.787193
H64	H	0.269934	-1.108745	-0.771977
H65	H	0.338120	-1.040444	-0.771965
N66	N	0.070114	-0.840853	-0.787212
H67	H	0.032111	-0.871072	-0.823482
H68	H	0.100363	-0.802837	-0.823423
H69	H	-0.437327	-0.830502	-0.000072
N70	N	0.323877	-0.154292	-0.000092
H71	H	0.308399	-0.096724	-0.000097
H72	H	0.353757	-0.164196	-0.051566
N73	N	-0.222495	-0.765021	-0.000074
H74	H	-0.254047	-0.761444	0.051400
H75	H	-0.258676	-0.756819	-0.051584
N76	N	0.028197	-0.174619	-0.000120
H77	H	-0.013767	-0.216226	-0.000126
H78	H	0.020027	-0.138394	-0.051595
N79	N	0.042577	-0.813322	-0.394696
H80	H	0.047470	-0.818213	-0.456698
H81	H	0.055199	-0.757737	-0.379419
N82	N	0.041932	-0.345477	-0.000130
H83	H	-0.006219	-0.310064	-0.000135
H84	H	0.043902	-0.382129	0.051344
H85	H	-0.230684	-1.042773	-0.000121
N86	N	-0.005624	-0.548143	-0.000122
H87	H	0.000477	-0.489091	-0.000124
H88	H	-0.033200	-0.566976	0.051350
H89	H	0.063708	-0.834421	-0.224576
N90	N	0.008118	-0.719000	-0.000106
H91	H	-0.040036	-0.683591	-0.000111
H92	H	0.010092	-0.755650	0.051371
N93	N	0.303792	-0.698657	-0.000055
H94	H	0.345750	-0.657046	-0.000055
H95	H	0.307303	-0.730223	-0.051528
H96	H	-0.081567	-1.054764	-0.000135
N97	N	-0.596020	-0.798844	-0.000063
H98	H	-0.655071	-0.804951	-0.000068
H99	H	-0.581851	-0.766600	-0.051533
H100	H	0.272130	-0.539962	-0.000081
H101	H	0.247928	-1.018496	-0.224553
N102	N	-0.445499	-1.108251	-0.000132
H103	H	-0.487108	-1.150212	-0.000137
H104	H	-0.409268	-1.116431	0.051341
H105	H	-0.604205	-1.076591	-0.000118
N106	N	0.289389	-1.059975	-0.605508
H107	H	0.344995	-1.047351	-0.620714
H108	H	0.276719	-1.115563	-0.620740
