data_functionalizedCrystal
_audit_creation_method	'MofGen! by Chris Wilmer'
_symmetry_space_group_name_H-M	'P1'
_symmetry_Int_Tables_number	1
_symmetry_cell_setting	triclinic
loop_
_symmetry_equiv_pos_as_xyz
  x,y,z
_cell_length_a	13.448316
_cell_length_b	14.971486
_cell_length_c	14.971486
_cell_angle_alpha	83.614129
_cell_angle_beta	90.007486
_cell_angle_gamma	89.999610
loop_
_atom_site_label
_atom_site_type_symbol
_atom_site_fract_x
_atom_site_fract_y
_atom_site_fract_z
O1	O	0.082651	1.186940	0.116566
O2	O	0.082662	0.926540	0.130525
O3	O	0.082649	1.063720	-0.006654
O4	O	0.082664	1.049761	0.253746
O5	O	-0.082735	1.063717	-0.006666
O6	O	-0.082722	0.926537	0.130513
O7	O	-0.082733	1.186937	0.116555
Cu8	Cu	-0.097828	1.056737	0.123533
Cu9	Cu	0.097757	1.056740	0.123547
O10	O	-0.082720	1.049758	0.253734
C11	C	-0.000028	0.893214	0.129895
C12	C	-0.000024	0.793917	0.128024
N13	N	-0.235392	1.056741	0.123523
N14	N	0.235322	1.056744	0.123550
C15	C	-0.000042	1.063094	-0.039985
C16	C	-0.000042	1.061223	-0.139282
C17	C	0.287356	1.117600	0.062927
C18	C	0.391460	1.117604	0.062924
C19	C	0.443526	1.056746	0.123542
C20	C	0.391484	0.995887	0.184171
C21	C	0.287383	0.995888	0.184177
C22	C	0.608464	0.995887	0.184153
C23	C	0.712573	0.995884	0.184146
C24	C	0.712541	1.117603	0.062900
C25	C	0.608440	1.117604	0.062906
C26	C	0.556405	1.056743	0.123535
C27	C	-0.000040	1.220263	0.117185
C28	C	-0.000038	1.319561	0.119056
C29	C	-0.000039	1.376786	0.038466
C30	C	-0.000042	1.470085	0.040229
C31	C	-0.000037	1.506158	0.122583
C32	C	-0.000039	1.448925	0.203178
C33	C	-0.000043	1.355627	0.201414
C34	C	-0.000029	1.643387	0.206849
C35	C	-0.000023	1.736692	0.208614
C36	C	-0.000028	1.757845	0.045664
C37	C	-0.000032	1.664548	0.043900
C38	C	-0.000032	1.607322	0.124496
C39	C	-0.000046	1.141812	-0.196507
C40	C	-0.000036	1.140049	-0.289807
C41	C	-0.000028	1.057696	-0.325879
C42	C	-0.000021	0.977101	-0.268646
C43	C	-0.000024	0.978865	-0.175349
C44	C	-0.000018	0.973430	-0.463109
C45	C	-0.000016	0.971665	-0.556413
C46	C	-0.000029	1.134614	-0.577567
C47	C	-0.000032	1.136378	-0.484269
C48	C	-0.000027	1.055782	-0.427043
C49	C	-0.000026	1.050384	0.287065
C50	C	-0.000021	1.052254	0.386362
H51	H	0.244970	1.167154	0.013562
F52	F	-0.000037	1.224028	-0.445880
H53	H	0.566101	0.946331	0.233526
F54	F	-0.000010	0.887650	-0.402206
H55	H	-0.000047	1.516675	-0.025395
F56	F	-0.000010	0.884016	-0.594802
H57	H	-0.000045	1.309035	0.267038
F58	F	0.767979	0.931112	0.248665
F59	F	-0.000017	0.893090	-0.114445
F60	F	0.446839	1.182375	-0.001596
F61	F	0.553026	1.182369	-0.001614
H62	H	0.754914	1.167158	0.013534
F63	F	-0.000063	1.229465	-0.158125
F64	F	0.446898	0.931121	0.248690
F65	F	0.232005	0.931118	0.248704
F66	F	-0.000030	1.220391	-0.638472
F67	F	-0.000040	1.338404	-0.049187
H68	H	-0.000009	0.910047	-0.298024
H69	H	-0.000041	1.205673	-0.336396
F70	F	-0.000018	1.626159	-0.043749
H71	H	-0.000026	1.804444	-0.019960
F72	F	-0.000024	1.775080	0.296263
H73	H	-0.000036	1.596796	0.272479
H74	H	-0.000041	1.478302	0.270232
