data_functionalizedCrystal
_audit_creation_method	'MofGen! by Chris Wilmer'
_symmetry_space_group_name_H-M	'P1'
_symmetry_Int_Tables_number	1
_symmetry_cell_setting	triclinic
loop_
_symmetry_equiv_pos_as_xyz
  x,y,z
_cell_length_a	12.759401
_cell_length_b	18.101395
_cell_length_c	12.759393
_cell_angle_alpha	89.967467
_cell_angle_beta	89.982754
_cell_angle_gamma	90.030148
loop_
_atom_site_label
_atom_site_type_symbol
_atom_site_fract_x
_atom_site_fract_y
_atom_site_fract_z
Zn1	Zn	1.606122	-0.294812	-0.593970
Zn2	Zn	1.605970	-0.418671	-0.418284
Zn3	Zn	1.430428	-0.294846	-0.418309
Zn4	Zn	1.430362	-0.418614	-0.593925
O5	O	1.518221	-0.356736	-0.506122
O6	O	1.753123	-0.311251	-0.570673
O7	O	1.582648	-0.402284	-0.271266
O8	O	1.453825	-0.191208	-0.441640
O9	O	1.753011	-0.402251	-0.441597
O10	O	1.582907	-0.191183	-0.570697
O11	O	1.453678	-0.311310	-0.271284
O12	O	1.283398	-0.311254	-0.441596
O13	O	1.453713	-0.402153	-0.740952
O14	O	1.283350	-0.402186	-0.570621
O15	O	1.582843	-0.311196	-0.740985
O16	O	1.582584	-0.522296	-0.441554
O17	O	1.453566	-0.522254	-0.570597
C18	C	1.245253	-0.356718	-0.506107
C19	C	1.128477	-0.356729	-0.506126
C20	C	1.073666	-0.309435	-0.573440
C21	C	0.963942	-0.309449	-0.573446
C22	C	0.963849	-0.404057	-0.438822
C23	C	1.073571	-0.404039	-0.438811
C24	C	1.128571	-0.262125	-0.640754
C25	C	1.073760	-0.214828	-0.708074
C26	C	0.964036	-0.214842	-0.708081
C27	C	0.909123	-0.262153	-0.640767
C28	C	1.518080	-0.549146	-0.506091
C29	C	1.518116	-0.631460	-0.506113
C30	C	1.518347	-0.930551	-0.506169
C31	C	1.437360	-0.899230	-0.587561
C32	C	1.436975	-0.813612	-0.587307
C33	C	1.518232	-0.782169	-0.506142
C34	C	1.488254	-0.813327	-0.395417
C35	C	1.487732	-0.898972	-0.395904
C36	C	1.629488	-0.898894	-0.534528
C37	C	1.628835	-0.813243	-0.536956
C38	C	1.518169	-0.698309	-0.506120
C39	C	1.518407	-1.014411	-0.506184
C40	C	1.792254	-0.356754	-0.506137
C41	C	1.909030	-0.356761	-0.506144
C42	C	1.518288	-0.356664	-0.780155
C43	C	1.518316	-0.356633	-0.896932
C44	C	1.518390	-0.163574	-0.506176
C45	C	1.518463	-0.081259	-0.506199
C46	C	1.451101	-0.403972	-0.951779
C47	C	1.451140	-0.403945	-1.061503
C48	C	1.585612	-0.309234	-1.061524
C49	C	1.585578	-0.309265	-0.951802
C50	C	1.383840	-0.451340	-0.896909
C51	C	1.316618	-0.498683	-0.951756
C52	C	1.316656	-0.498656	-1.061480
C53	C	1.383917	-0.451287	-1.116357
C54	C	1.518214	-0.356753	-0.233154
C55	C	1.518389	-0.356575	-0.116378
H56	H	1.118478	-0.176304	-0.762872
H57	H	1.640371	-0.270668	-1.106214
N58	N	1.129563	-0.452361	-0.370070
N59	N	1.190783	-0.499574	-0.406913
H60	H	1.230327	-0.533702	-0.358362
N61	N	1.385821	-0.924124	-0.365752
N62	N	1.349361	-0.907051	-0.278118
H63	H	1.277384	-0.924812	-0.256821
H64	H	1.261863	-0.537253	-0.907068
H65	H	1.544160	-0.919694	-0.333194
H66	H	1.640309	-0.270717	-0.907144
H67	H	1.217914	-0.262108	-0.640756
N68	N	1.460721	-0.924991	-0.690882
N69	N	1.461014	-0.992723	-0.709904
H70	H	1.477540	-1.010913	-0.782875
N71	N	0.908063	-0.166519	-0.776837
N72	N	0.957103	-0.124282	-0.836926
H73	H	0.917574	-0.090153	-0.885491
N74	N	1.387420	-0.786498	-0.364725
N75	N	1.372061	-0.718584	-0.356005
H76	H	1.300845	-0.699636	-0.334331
H77	H	1.656819	-0.920437	-0.613892
N78	N	1.559931	-0.787779	-0.317274
N79	N	1.634084	-0.746222	-0.342377
H80	H	1.684710	-0.728177	-0.287190
H81	H	0.819778	-0.262145	-0.640756
N82	N	1.657234	-0.787682	-0.639165
N83	N	1.742995	-0.806290	-0.678456
H84	H	1.763055	-0.788231	-0.750640
N85	N	0.907744	-0.452375	-0.370073
N86	N	0.809779	-0.452384	-0.370093
H87	H	0.770153	-0.486510	-0.321538
H88	H	1.355480	-0.920817	-0.569014
H89	H	1.455731	-0.792543	-0.669408
N90	N	1.708539	-0.786384	-0.468015
N91	N	1.724913	-0.718503	-0.460532
H92	H	1.781200	-0.699534	-0.411832
N93	N	1.705203	-0.924304	-0.460186
N94	N	1.798996	-0.905271	-0.468805
H95	H	1.852465	-0.923220	-0.416300
N96	N	1.333625	-0.787997	-0.563745
N97	N	1.261557	-0.833373	-0.547430
H98	H	1.188561	-0.815284	-0.530787
N99	N	1.383779	-0.451373	-0.784830
N100	N	1.323720	-0.493664	-0.735848
H101	H	1.323675	-0.493686	-0.656692
H102	H	1.261929	-0.537209	-1.106133
N103	N	1.383958	-0.451278	-1.228438
N104	N	1.323947	-0.493555	-1.277399
H105	H	1.323974	-0.493550	-1.356556
