data_functionalizedCrystal
_audit_creation_method	'MofGen! by Chris Wilmer'
_symmetry_space_group_name_H-M	'P1'
_symmetry_Int_Tables_number	1
_symmetry_cell_setting	triclinic
loop_
_symmetry_equiv_pos_as_xyz
  x,y,z
_cell_length_a	10.654550
_cell_length_b	9.065218
_cell_length_c	9.130313
_cell_angle_alpha	89.997322
_cell_angle_beta	89.999724
_cell_angle_gamma	84.750408
loop_
_atom_site_label
_atom_site_type_symbol
_atom_site_fract_x
_atom_site_fract_y
_atom_site_fract_z
O1	O	1.668660	0.207235	-0.121684
O2	O	1.303260	0.226979	-0.121710
O3	O	1.493513	0.002423	-0.121693
O4	O	1.478407	0.431791	-0.121700
O5	O	1.493500	0.002417	0.121906
O6	O	1.303247	0.226972	0.121889
O7	O	1.668647	0.207228	0.121915
Cu8	Cu	1.485946	0.217100	0.144145
Cu9	Cu	1.485961	0.217107	-0.143939
O10	O	1.478394	0.431784	0.121899
C11	C	1.256450	0.225526	0.000086
C12	C	1.116989	0.221188	0.000076
C13	C	1.492055	-0.052559	0.000104
C14	C	1.487714	-0.216378	0.000096
C15	C	1.038027	0.353403	0.000078
C16	C	0.906990	0.349319	0.000104
C17	C	0.933890	0.080794	0.000119
C18	C	1.064924	0.084879	0.000104
C19	C	1.715457	0.208681	0.000116
C20	C	1.854918	0.213019	0.000117
C21	C	1.479852	0.486766	0.000098
C22	C	1.484193	0.650585	0.000096
N23	N	1.485944	0.217093	0.346767
N24	N	1.485973	0.217102	-0.346562
C25	C	1.570217	0.117702	0.423427
C26	C	1.570229	0.117703	0.576763
C27	C	1.401691	0.316498	0.576768
C28	C	1.401674	0.316489	0.423434
H29	H	0.842704	0.456982	0.000108
H30	H	1.129219	-0.022793	0.000106
O31	O	1.652040	0.020955	0.651068
C32	C	1.629954	-0.125333	0.613640
H33	H	1.581534	-0.125684	0.502316
H34	H	1.566934	-0.171649	0.699950
C35	C	1.815836	-0.221659	0.743272
C36	C	1.756375	-0.222092	0.606536
H37	H	1.893817	-0.281348	0.738896
H38	H	1.830714	-0.123103	0.768493
H39	H	1.763306	-0.260252	0.815183
H40	H	1.808898	-0.183482	0.534632
H41	H	1.741509	-0.320644	0.581302
H42	H	1.333082	0.397426	0.639206
H43	H	1.080414	0.464395	0.000066
O44	O	0.883104	-0.051484	0.000069
C45	C	0.750517	-0.026742	0.000116
H46	H	0.721058	0.088085	-0.046006
H47	H	0.713976	-0.034267	0.116986
C48	C	0.731021	-0.285699	-0.038758
C49	C	0.694839	-0.144670	-0.095416
H50	H	0.696675	-0.358445	-0.097680
H51	H	0.820348	-0.302370	-0.038783
H52	H	0.700568	-0.291948	0.058633
H53	H	0.725306	-0.138417	-0.192798
H54	H	0.605517	-0.128001	-0.095409
O55	O	1.319761	0.413187	0.349185
C56	C	1.245372	0.500902	0.449729
H57	H	1.296891	0.503148	0.559024
H58	H	1.151536	0.451970	0.466057
C59	C	1.158001	0.657026	0.255624
C60	C	1.221282	0.659794	0.389858
H61	H	1.143135	0.755037	0.218692
H62	H	1.208114	0.597928	0.187884
H63	H	1.079811	0.616243	0.269249
H64	H	1.299476	0.700560	0.376228
H65	H	1.171181	0.718903	0.457595
H66	H	1.638833	0.036766	0.361008
