data_functionalizedCrystal
_audit_creation_method	'MofGen! by Chris Wilmer'
_symmetry_space_group_name_H-M	'P1'
_symmetry_Int_Tables_number	1
_symmetry_cell_setting	triclinic
loop_
_symmetry_equiv_pos_as_xyz
  x,y,z
_cell_length_a	29.839134
_cell_length_b	13.033732
_cell_length_c	13.034356
_cell_angle_alpha	105.193241
_cell_angle_beta	82.786625
_cell_angle_gamma	97.178759
loop_
_atom_site_label
_atom_site_type_symbol
_atom_site_fract_x
_atom_site_fract_y
_atom_site_fract_z
Zn1	Zn	0.735671	0.346621	-0.547236
Zn2	Zn	0.735630	0.546817	-0.347095
Zn3	Zn	0.652073	0.369217	-0.369600
Zn4	Zn	0.669002	0.524174	-0.524639
O5	O	0.698094	0.446707	-0.447142
O6	O	0.798536	0.373197	-0.520725
O7	O	0.717444	0.542191	-0.201436
O8	O	0.656095	0.217587	-0.412039
O9	O	0.798506	0.520280	-0.373682
O10	O	0.717514	0.200986	-0.542547
O11	O	0.656055	0.411709	-0.217970
O12	O	0.591448	0.389753	-0.390128
O13	O	0.684948	0.481689	-0.676281
O14	O	0.603886	0.503599	-0.504034
O15	O	0.733929	0.351241	-0.692883
O16	O	0.733859	0.692446	-0.351771
O17	O	0.684907	0.675810	-0.482212
C18	C	0.581366	0.446672	-0.447071
C19	C	0.531431	0.446679	-0.447063
C20	C	0.711229	0.722664	-0.412121
C21	C	0.716891	0.840715	-0.397174
C22	C	0.711331	0.411419	-0.724201
C23	C	0.716972	0.396381	-0.842267
C24	C	0.228280	0.506098	-0.506358
C25	C	0.040611	0.506122	-0.506401
O26	O	0.021861	0.556598	-0.556777
N27	N	0.010658	0.446736	-0.447217
C28	C	0.027624	0.387334	-0.388024
O29	O	-0.002159	0.336815	-0.337695
C30	C	0.215293	0.387305	-0.387987
C31	C	0.245244	0.446704	-0.447166
C32	C	0.258231	0.565491	-0.565533
C33	C	0.305145	0.565489	-0.565517
C34	C	0.322109	0.506094	-0.506326
C35	C	0.292158	0.446702	-0.447150
C36	C	0.232259	0.327898	-0.328801
C37	C	0.279179	0.327894	-0.328799
C38	C	0.309130	0.387292	-0.387978
C39	C	0.356037	0.387305	-0.387943
N40	N	0.385990	0.446691	-0.447127
C41	C	0.369026	0.506085	-0.506318
C42	C	-0.070904	0.387356	-0.388046
C43	C	-0.117821	0.387364	-0.388053
C44	C	-0.104831	0.506151	-0.506432
C45	C	-0.057914	0.506147	-0.506418
C46	C	-0.040951	0.446742	-0.447230
C47	C	0.467549	0.506078	-0.506279
C48	C	0.514467	0.506074	-0.506254
C49	C	0.501473	0.387284	-0.387880
C50	C	0.454559	0.387291	-0.387900
C51	C	0.437599	0.446691	-0.447108
O52	O	0.374818	0.336846	-0.337604
O53	O	0.398816	0.556579	-0.556659
C54	C	0.181366	0.506100	-0.506374
C55	C	0.151415	0.446708	-0.447199
C56	C	0.168379	0.387313	-0.388007
C57	C	0.104498	0.446716	-0.447206
C58	C	0.087534	0.506111	-0.506397
C59	C	0.117487	0.565497	-0.565581
C60	C	0.164402	0.565495	-0.565565
C61	C	0.138426	0.327927	-0.328824
C62	C	0.091512	0.327935	-0.328844
C63	C	0.074548	0.387329	-0.388035
C64	C	0.815278	0.446743	-0.447214
C65	C	0.865215	0.446759	-0.447245
C66	C	0.695172	0.885157	-0.454993
C67	C	0.701023	1.007168	-0.439546
C68	C	0.684919	1.169668	-0.482338
C69	C	0.679301	1.051606	-0.497373
C70	C	0.701081	0.438683	-1.008717
C71	C	0.695250	0.454226	-0.886690
C72	C	0.684930	0.481782	-0.171171
C73	C	0.679362	0.496521	-0.053144
H74	H	0.538852	0.554447	-0.554445
O75	O	0.731427	0.357845	-1.078009
H76	H	0.766550	0.378751	-1.054505
H77	H	0.723950	1.059446	-0.378602
O78	O	0.747259	0.909960	-0.316452
H79	H	0.762276	0.858847	-0.276441
H80	H	0.656371	0.999331	-0.558310
O81	O	0.664895	0.535063	-0.817425
H82	H	0.665075	0.534580	-0.732450
O83	O	0.649005	0.577338	-0.983861
H84	H	0.613888	0.556409	-1.007396
O85	O	0.747321	0.315528	-0.911532
H86	H	0.747135	0.315995	-0.996509
H87	H	0.329528	0.613854	-0.613709
O88	O	0.449259	0.570230	-0.570047
H89	H	0.477973	0.611562	-0.611149
H90	H	-0.033530	0.554513	-0.554609
O91	O	0.239938	0.629695	-0.629241
H92	H	0.268653	0.671041	-0.670326
H93	H	-0.118651	0.554512	-0.554628
H94	H	-0.142204	0.339008	-0.339852
H95	H	-0.057098	0.338980	-0.339843
O96	O	0.059208	0.263862	-0.265014
H97	H	0.078892	0.222555	-0.223866
O98	O	0.199961	0.263822	-0.264982
H99	H	0.219647	0.222513	-0.223842
O100	O	0.297472	0.263832	-0.264941
H101	H	0.285373	0.178164	-0.293865
O102	O	0.422251	0.323232	-0.324072
H103	H	0.441931	0.281928	-0.282914
H104	H	0.188784	0.613862	-0.613755
O105	O	0.519774	0.323217	-0.324045
H106	H	0.557430	0.333189	-0.333994
H107	H	0.103667	0.613861	-0.613773
H108	H	0.152232	0.279560	-0.280622
O109	O	0.664802	0.815920	-0.535717
H110	H	0.664975	0.730951	-0.535187
