data_functionalizedCrystal
_audit_creation_method	'MofGen! by Chris Wilmer'
_symmetry_space_group_name_H-M	'P1'
_symmetry_Int_Tables_number	1
_symmetry_cell_setting	triclinic
loop_
_symmetry_equiv_pos_as_xyz
  x,y,z
_cell_length_a	15.944551
_cell_length_b	14.044220
_cell_length_c	14.421503
_cell_angle_alpha	90.000302
_cell_angle_beta	89.988429
_cell_angle_gamma	88.343808
loop_
_atom_site_label
_atom_site_type_symbol
_atom_site_fract_x
_atom_site_fract_y
_atom_site_fract_z
O1	O	-1.123664	-0.122244	-0.077017
O2	O	-0.790331	0.211090	0.256317
O3	O	-0.456997	0.544423	0.589650
O4	O	-0.880243	-0.137316	-0.077040
O5	O	-0.546910	0.196017	0.256293
O6	O	-0.213576	0.529351	0.589627
O7	O	-0.998300	0.008205	-0.077020
O8	O	-0.664966	0.341538	0.256314
O9	O	-0.331633	0.674872	0.589647
O10	O	-1.005607	-0.267765	-0.077037
O11	O	-0.672274	0.065569	0.256296
O12	O	-0.338941	0.398902	0.589629
O13	O	-0.998316	0.008196	0.077204
O14	O	-0.664983	0.341529	0.410537
O15	O	-0.331649	0.674862	0.743870
O16	O	-0.880259	-0.137325	0.077183
O17	O	-0.546926	0.196008	0.410517
O18	O	-0.213593	0.529341	0.743850
O19	O	-1.123680	-0.122253	0.077207
O20	O	-0.790347	0.211080	0.410540
O21	O	-0.457014	0.544414	0.743873
Cu22	Cu	-1.001971	-0.129790	0.091277
Cu23	Cu	-0.668638	0.203543	0.424610
Cu24	Cu	-0.335305	0.536877	0.757943
Cu25	Cu	-1.001952	-0.129779	-0.091110
Cu26	Cu	-0.668619	0.203554	0.242223
Cu27	Cu	-0.335285	0.536888	0.575556
O28	O	-1.005624	-0.267774	0.077186
O29	O	-0.672290	0.065559	0.410519
O30	O	-0.338957	0.398893	0.743853
C31	C	-0.848910	-0.136695	0.000069
C32	C	-0.515577	0.196638	0.333402
C33	C	-0.182244	0.529972	0.666735
C34	C	-0.755524	-0.134819	0.000060
C35	C	-0.422190	0.198514	0.333393
C36	C	-0.088857	0.531848	0.666727
C37	C	-0.995109	0.043515	0.000092
C38	C	-0.661776	0.376848	0.333425
C39	C	-0.328442	0.710182	0.666759
C40	C	-0.985568	0.148741	0.000092
C41	C	-0.652235	0.482075	0.333426
C42	C	-0.318901	0.815408	0.666759
C43	C	-1.155013	-0.122874	0.000096
C44	C	-0.821680	0.210459	0.333429
C45	C	-0.488346	0.543793	0.666762
C46	C	-1.248399	-0.124750	0.000098
C47	C	-0.915066	0.208583	0.333432
C48	C	-0.581733	0.541917	0.666765
C49	C	-0.533577	-0.040135	0.000084
C50	C	-0.200244	0.293199	0.333417
C51	C	0.133089	0.626532	0.666751
C52	C	-0.475841	-0.084098	-0.075959
C53	C	-0.142508	0.249235	0.257374
C54	C	0.190825	0.582568	0.590708
C55	C	-0.584544	-0.131425	0.000071
C56	C	-0.251210	0.201908	0.333405
C57	C	0.082123	0.535241	0.666738
C58	C	-0.475881	-0.084129	0.076093
C59	C	-0.142548	0.249204	0.409427
C60	C	0.190785	0.582538	0.742760
C61	C	-0.419385	-0.128141	0.000086
C62	C	-0.086052	0.205193	0.333419
C63	C	0.247282	0.538526	0.666753
C64	C	-0.528038	-0.175414	-0.076035
C65	C	-0.194705	0.157919	0.257299
C66	C	0.138629	0.491253	0.590632
C67	C	-0.528083	-0.175432	0.076086
C68	C	-0.194750	0.157901	0.409419
C69	C	0.138583	0.491234	0.742753
C70	C	-0.470370	-0.219462	0.000024
C71	C	-0.137037	0.113871	0.333358
C72	C	0.196297	0.447204	0.666691
C73	C	-0.679688	-0.133315	0.000062
C74	C	-0.346354	0.200018	0.333395
C75	C	-0.013021	0.533352	0.666729
C76	C	-0.324243	-0.126258	0.000089
C77	C	0.009090	0.207075	0.333422
C78	C	0.342424	0.540409	0.666755
C79	C	-1.008814	-0.303084	0.000072
C80	C	-0.675481	0.030249	0.333406
C81	C	-0.342147	0.363583	0.666739
C82	C	-1.018355	-0.408310	0.000066
C83	C	-0.685022	-0.074977	0.333399
C84	C	-0.351689	0.258356	0.666733
N85	N	-1.001991	-0.129797	0.219558
N86	N	-0.668658	0.203536	0.552891
N87	N	-0.335324	0.536869	0.886225
C88	C	-0.968124	0.341404	0.000077
C89	C	-0.634791	0.674737	0.333411
C90	C	-0.301458	1.008070	0.666744
C91	C	-1.035795	0.399033	0.000081
C92	C	-0.702462	0.732366	0.333414
C93	C	-0.369128	1.065699	0.666748
C94	C	-1.026089	0.506237	0.000073
C95	C	-0.692756	0.839570	0.333406
C96	C	-0.359423	1.172903	0.666739
C97	C	-0.977829	0.234190	0.000086
C98	C	-0.644496	0.567523	0.333419
C99	C	-0.311162	0.900856	0.666752
N100	N	-1.001938	-0.129764	-0.219392
N101	N	-0.668605	0.203569	0.113942
N102	N	-0.335272	0.536902	0.447275
C103	C	-1.056592	-0.062494	0.469196
C104	C	-0.723259	0.270840	0.802530
C105	C	-0.389925	0.604173	1.135863
C106	C	-0.979314	-0.044080	0.530987
C107	C	-0.645981	0.289253	0.864321
C108	C	-0.312647	0.622587	1.197654
C109	C	-1.001971	-0.129786	0.408719
C110	C	-0.668638	0.203547	0.742053
C111	C	-0.335305	0.536881	1.075386
C112	C	-1.079228	-0.148144	0.531022
C113	C	-0.745894	0.185189	0.864356
C114	C	-0.412561	0.518522	1.197689
C115	C	-1.001959	-0.129773	0.591441
C116	C	-0.668626	0.203561	0.924774
C117	C	-0.335292	0.536894	1.258108
C118	C	-0.924652	-0.111330	0.469150
C119	C	-0.591318	0.222003	0.802483
C120	C	-0.257985	0.555337	1.135816
C121	C	-1.024618	-0.215431	0.469179
C122	C	-0.691285	0.117902	0.802513
C123	C	-0.357951	0.451235	1.135846
C124	C	-0.947288	-0.197054	0.530942
C125	C	-0.613954	0.136279	0.864276
C126	C	-0.280621	0.469613	1.197609
C127	C	-1.001979	-0.129791	0.303458
C128	C	-0.668646	0.203542	0.636792
C129	C	-0.335313	0.536876	0.970125
C130	C	-1.001942	-0.129768	0.696700
C131	C	-0.668609	0.203565	1.030033
C132	C	-0.335276	0.536898	1.363366
H133	H	-0.561237	0.035629	-0.000005
H134	H	-0.227904	0.368963	0.333328
H135	H	0.105429	0.702296	0.666662
H136	H	-0.452833	-0.045482	-0.140243
H137	H	-0.119500	0.287851	0.193090
H138	H	0.213833	0.621185	0.526423
H139	H	-0.551110	-0.214017	0.140373
H140	H	-0.217777	0.119317	0.473706
H141	H	0.115556	0.452650	0.807040
H142	H	-0.452910	-0.045504	0.140379
H143	H	-0.119576	0.287829	0.473713
H144	H	0.213757	0.621163	0.807046
H145	H	-1.101019	0.367858	0.000025
H146	H	-0.767686	0.701191	0.333358
H147	H	-0.434353	1.034524	0.666692
H148	H	-0.902905	0.372577	0.000069
H149	H	-0.569572	0.705911	0.333402
H150	H	-0.236239	1.039244	0.666736
H151	H	-1.043805	-0.287842	0.442009
H152	H	-0.710472	0.045491	0.775343
H153	H	-0.377139	0.378824	1.108676
H154	H	-0.550908	-0.213994	-0.140393
H155	H	-0.217574	0.119340	0.192940
H156	H	0.115759	0.452673	0.526273
H157	H	-1.102728	-0.005555	0.442084
H158	H	-0.769394	0.327778	0.775417
H159	H	-0.436061	0.661112	1.108750
H160	H	-0.442890	-0.295304	-0.000023
H161	H	-0.109557	0.038029	0.333310
H162	H	0.223777	0.371362	0.666644
H163	H	-0.960149	0.028354	0.558137
H164	H	-0.626815	0.361687	0.891471
H165	H	-0.293482	0.695020	1.224804
H166	H	-0.859291	-0.095714	0.442086
H167	H	-0.525958	0.237619	0.775420
H168	H	-0.192624	0.570952	1.108753
H169	H	-0.901037	-0.253959	0.557883
H170	H	-0.567703	0.079375	0.891216
H171	H	-0.234370	0.412708	1.224549
H172	H	-1.144567	-0.163678	0.558200
H173	H	-0.811234	0.169655	0.891533
H174	H	-0.477901	0.502989	1.224867
