data_functionalizedCrystal
_audit_creation_method	'MofGen! by Chris Wilmer'
_symmetry_space_group_name_H-M	'P1'
_symmetry_Int_Tables_number	1
_symmetry_cell_setting	triclinic
loop_
_symmetry_equiv_pos_as_xyz
  x,y,z
_cell_length_a	18.050591
_cell_length_b	14.908520
_cell_length_c	14.908694
_cell_angle_alpha	83.255478
_cell_angle_beta	86.677417
_cell_angle_gamma	86.682923
loop_
_atom_site_label
_atom_site_type_symbol
_atom_site_fract_x
_atom_site_fract_y
_atom_site_fract_z
Zn1	Zn	1.142129	0.389979	-0.532732
Zn2	Zn	1.642129	0.889979	-0.032732
Zn3	Zn	1.128493	0.532623	-0.390099
Zn4	Zn	1.628493	1.032623	0.109901
Zn5	Zn	1.011164	0.381270	-0.381370
Zn6	Zn	1.511164	0.881270	0.118630
Zn7	Zn	1.011132	0.541285	-0.541393
Zn8	Zn	1.511132	1.041285	-0.041393
O9	O	1.073229	0.461289	-0.461398
O10	O	1.573229	0.961289	0.038602
O11	O	1.244245	0.408921	-0.513840
O12	O	1.744245	0.908921	-0.013840
O13	O	1.107235	0.505277	-0.262278
O14	O	1.607235	1.005277	0.237722
O15	O	1.034257	0.255761	-0.394171
O16	O	1.534257	0.755761	0.105829
O17	O	1.234227	0.513721	-0.409048
O18	O	1.734227	1.013721	0.090952
O19	O	1.130476	0.262159	-0.505376
O20	O	1.630476	0.762159	-0.005376
O21	O	1.021034	0.394078	-0.255865
O22	O	1.521034	0.894078	0.244135
O23	O	0.907235	0.402476	-0.402569
O24	O	1.407235	0.902476	0.097431
O25	O	1.034203	0.528483	-0.666907
O26	O	1.534203	1.028483	-0.166907
O27	O	0.907212	0.520038	-0.520138
O28	O	1.407212	1.020038	-0.020138
O29	O	1.130445	0.417319	-0.660544
O30	O	1.630445	0.917319	-0.160544
O31	O	1.107205	0.660437	-0.417446
O32	O	1.607205	1.160437	0.082554
O33	O	1.020980	0.666800	-0.528602
O34	O	1.520980	1.166800	-0.028602
C35	C	1.062630	0.696462	-0.474931
C36	C	1.562630	1.196462	0.025069
C37	C	1.058165	0.797072	-0.480750
C38	C	1.558165	1.297072	0.019250
C39	C	0.880277	0.461253	-0.461346
C40	C	1.380277	0.961253	0.038654
C41	C	0.797730	0.461260	-0.461347
C42	C	1.297730	0.961260	0.038653
C43	C	1.083842	0.474839	-0.697486
C44	C	1.583842	0.974839	-0.197486
C45	C	1.088364	0.480613	-0.798093
C46	C	1.588364	0.980613	-0.298093
C47	C	0.598280	0.397267	-0.397548
C48	C	1.098280	0.897267	0.102452
C49	C	0.544173	0.478543	-0.380035
C50	C	1.044173	0.978543	0.119965
C51	C	0.646601	0.461290	-0.461389
C52	C	1.146601	0.961290	0.038611
C53	C	0.553625	0.380042	-0.478902
C54	C	1.053625	0.880042	0.021098
C55	C	0.500616	0.461311	-0.461428
C56	C	1.000616	0.961311	0.038572
C57	C	0.593577	0.542607	-0.443836
C58	C	1.093577	1.042607	0.056164
C59	C	0.603037	0.444052	-0.542737
C60	C	1.103037	0.944052	-0.042737
C61	C	0.548951	0.525387	-0.525259
C62	C	1.048951	1.025387	-0.025259
C63	C	0.730698	0.461276	-0.461365
C64	C	1.230698	0.961276	0.038635
C65	C	0.416520	0.461334	-0.461454
C66	C	0.916520	0.961334	0.038546
C67	C	1.266936	0.461327	-0.461451
C68	C	1.766936	0.961327	0.038549
C69	C	1.349482	0.461343	-0.461474
C70	C	1.849482	0.961343	0.038526
C71	C	1.083891	0.225199	-0.447833
C72	C	1.583891	0.725199	0.052167
C73	C	1.088434	0.124592	-0.442053
C74	C	1.588434	0.624592	0.057947
C75	C	1.139662	0.979446	-0.376033
C76	C	1.639662	1.479446	0.123967
C77	C	1.135469	1.073978	-0.381497
C78	C	1.635469	1.573978	0.118503
C79	C	1.045591	1.080668	-0.497149
C80	C	1.545591	1.580668	0.002851
C81	C	1.049784	0.986137	-0.491684
C82	C	1.549784	1.486137	0.008316
C83	C	1.096820	0.935529	-0.431123
C84	C	1.596820	1.435529	0.068877
C85	C	1.101009	0.840995	-0.425654
C86	C	1.601009	1.340995	0.074346
C87	C	1.011135	0.847688	-0.541309
C88	C	1.511135	1.347688	-0.041309
C89	C	1.006942	0.942219	-0.546774
C90	C	1.506942	1.442219	-0.046774
C91	C	1.007083	0.375674	-0.980466
C92	C	1.507083	0.875674	-0.480466
C93	C	1.011330	0.381096	-1.074995
C94	C	1.511330	0.881096	-0.574995
C95	C	1.101099	0.496884	-1.081680
C96	C	1.601099	0.996884	-0.581680
C97	C	1.096853	0.491461	-0.987152
C98	C	1.596853	0.991461	-0.487152
C99	C	1.049844	0.430853	-0.936548
C100	C	1.549844	0.930853	-0.436548
C101	C	1.045602	0.425427	-0.842017
C102	C	1.545602	0.925427	-0.342017
C103	C	1.135367	0.541219	-0.848704
C104	C	1.635367	1.041219	-0.348704
C105	C	1.139613	0.546641	-0.943233
C106	C	1.639613	1.046641	-0.443233
C107	C	1.062704	0.447727	-0.226226
C108	C	1.562704	0.947727	0.273774
C109	C	1.058337	0.441698	-0.125605
C110	C	1.558337	0.941698	0.374395
H111	H	0.619934	0.343178	-0.343508
H112	H	1.119934	0.843178	0.156492
H113	H	0.628755	0.429430	-0.611492
H114	H	1.128755	0.929430	-0.111492
H115	H	0.976248	0.811920	-0.586165
H116	H	1.476248	1.311920	-0.086165
Br117	Br	1.193618	1.133578	-0.306734
Br118	Br	1.693618	1.633578	0.193266
H119	H	1.139361	0.546240	-1.122898
H120	H	1.639361	1.046240	-0.622898
H121	H	0.611189	0.611342	-0.428963
H122	H	1.111189	1.111342	0.071037
H123	H	0.976510	0.336163	-1.110750
H124	H	1.476510	0.836163	-0.610750
Br125	Br	0.513073	0.615734	-0.615280
Br126	Br	1.013073	1.115734	-0.115280
Br127	Br	0.943299	0.293411	-0.911785
Br128	Br	1.443299	0.793411	-0.411785
Br129	Br	0.981809	0.343171	-0.773341
Br130	Br	1.481809	0.843171	-0.273341
H131	H	1.177884	0.595989	-0.984447
H132	H	1.677884	1.095989	-0.484447
H133	H	1.139306	0.799791	-0.376340
H134	H	1.639306	1.299791	0.123660
H135	H	0.968649	0.983437	-0.596083
H136	H	1.468649	1.483437	-0.096083
Br137	Br	0.501337	0.502874	-0.265404
Br138	Br	1.001337	1.002874	0.234596
Br139	Br	0.524103	0.265510	-0.503560
Br140	Br	1.024103	0.765510	-0.003560
Br141	Br	1.203480	0.910758	-0.293828
Br142	Br	1.703480	1.410758	0.206172
H143	H	1.007302	1.121890	-0.546460
H144	H	1.507302	1.621890	-0.046460
Br145	Br	1.193407	0.616106	-0.789096
Br146	Br	1.693407	1.116106	-0.289096
