data_functionalizedCrystal
_audit_creation_method	'MofGen! by Chris Wilmer'
_symmetry_space_group_name_H-M	'P1'
_symmetry_Int_Tables_number	1
_symmetry_cell_setting	triclinic
loop_
_symmetry_equiv_pos_as_xyz
  x,y,z
_cell_length_a	17.699083
_cell_length_b	16.992695
_cell_length_c	16.776229
_cell_angle_alpha	89.993259
_cell_angle_beta	89.998886
_cell_angle_gamma	86.975619
loop_
_atom_site_label
_atom_site_type_symbol
_atom_site_fract_x
_atom_site_fract_y
_atom_site_fract_z
O1	O	1.010251	0.099146	-0.066177
O2	O	0.790676	0.112045	-0.066203
O3	O	0.899583	-0.008546	-0.066184
O4	O	0.901344	0.219736	-0.066196
O5	O	0.899568	-0.008553	0.066393
O6	O	0.790660	0.112037	0.066374
O7	O	1.010235	0.099138	0.066400
Zn8	Zn	0.900445	0.105587	0.087436
Zn9	Zn	0.900466	0.105596	-0.087239
O10	O	0.901328	0.219729	0.066381
C11	C	0.762442	0.111579	0.000082
C12	C	0.678338	0.110192	0.000072
C13	C	0.634124	0.180976	0.000069
C14	C	0.555099	0.179669	0.000079
C15	C	0.520290	0.107576	0.000087
C16	C	0.564510	0.036787	0.000093
C17	C	0.643533	0.038095	0.000089
C18	C	0.245818	0.031509	0.000113
C19	C	0.166789	0.030206	0.000116
C20	C	0.157384	0.173082	0.000104
C21	C	0.236408	0.174391	0.000099
C22	C	0.280621	0.103602	0.000109
C23	C	0.366308	0.105020	0.000099
C24	C	0.434604	0.106157	0.000091
C25	C	0.897311	-0.037758	0.000104
C26	C	0.890554	-0.124789	0.000103
C27	C	0.955751	-0.175154	0.000112
C28	C	0.949398	-0.256928	0.000104
C29	C	0.877846	-0.288336	0.000092
C30	C	0.812643	-0.237965	0.000081
C31	C	0.818998	-0.156192	0.000084
C32	C	0.851510	-0.531884	0.000078
C33	C	0.845160	-0.613663	0.000078
C34	C	0.981915	-0.632621	0.000099
C35	C	0.988263	-0.550845	0.000106
C36	C	0.923061	-0.500481	0.000091
N37	N	0.871350	-0.371923	0.000086
N38	N	0.929558	-0.416897	0.000091
C39	C	1.038469	0.099604	0.000113
C40	C	1.122574	0.100991	0.000118
C41	C	0.903601	0.248941	0.000091
C42	C	0.910358	0.335972	0.000087
N43	N	0.900437	0.105579	0.206647
N44	N	0.900481	0.105597	-0.206450
C45	C	0.948678	0.052204	0.248373
C46	C	0.948682	0.052203	0.331825
C47	C	0.900448	0.105582	0.373550
C48	C	0.852202	0.158961	0.331819
C49	C	0.852194	0.158957	0.248368
C50	C	0.852230	0.158976	0.668366
C51	C	0.852243	0.158977	0.751822
C52	C	0.948718	0.052222	0.751823
C53	C	0.948710	0.052219	0.668372
C54	C	0.900461	0.105594	0.626648
C55	C	0.900456	0.105593	0.536160
C56	C	0.900456	0.105588	0.464037
H57	H	0.519103	0.237308	0.000075
O58	O	1.000696	-0.005386	0.203383
H59	H	0.966523	-0.043445	0.165377
H60	H	0.812910	0.202420	0.214396
O61	O	0.273954	0.252146	0.000102
H62	H	0.229933	0.301149	0.000112
O63	O	0.781183	-0.477574	0.000081
H64	H	0.747175	-0.488724	-0.053952
O65	O	0.800229	0.216565	0.796831
H66	H	0.766678	0.253680	0.753799
H67	H	0.765906	-0.115186	0.000077
O68	O	1.032927	-0.141280	0.000126
H69	H	1.039095	-0.104466	-0.053906
H70	H	0.662460	0.239682	0.000061
O71	O	1.019721	-0.311247	0.000111
H72	H	1.003285	-0.373386	0.000096
O73	O	0.526966	-0.040970	0.000104
H74	H	0.544385	-0.074973	0.054146
O75	O	0.800181	0.216537	0.376823
H76	H	0.813516	0.277640	0.360785
O77	O	0.691227	-0.038250	0.000090
H78	H	0.653748	-0.088601	0.000089
O79	O	1.065437	-0.516968	0.000099
H80	H	1.109707	-0.565729	0.000091
O81	O	1.000727	-0.005352	0.376833
H82	H	1.034278	-0.042458	0.333799
H83	H	0.812945	0.202437	0.634401
O84	O	0.129247	-0.047558	0.000137
H85	H	0.093473	-0.051579	-0.053900
H86	H	0.988002	0.008759	0.785804
H87	H	1.034999	-0.673635	0.000110
H88	H	0.121377	0.230722	0.000100
O89	O	0.293501	-0.044838	0.000124
H90	H	0.256017	-0.095186	0.000124
H91	H	0.786891	-0.639232	0.000082
O92	O	0.735467	-0.271836	0.000067
H93	H	0.703891	-0.251593	0.054095
H94	H	0.987989	0.008755	0.634402
