data_functionalizedCrystal
_audit_creation_method	'MofGen! by Chris Wilmer'
_symmetry_space_group_name_H-M	'P1'
_symmetry_Int_Tables_number	1
_symmetry_cell_setting	triclinic
loop_
_symmetry_equiv_pos_as_xyz
  x,y,z
_cell_length_a	10.654534
_cell_length_b	10.654551
_cell_length_c	9.482944
_cell_angle_alpha	79.637507
_cell_angle_beta	79.627882
_cell_angle_gamma	84.481833
loop_
_atom_site_label
_atom_site_type_symbol
_atom_site_fract_x
_atom_site_fract_y
_atom_site_fract_z
O1	O	-1.685522	-0.193958	0.120916
O2	O	-1.320040	-0.210784	0.120912
O3	O	-1.511184	-0.019631	0.120913
O4	O	-1.494379	-0.385111	0.120915
O5	O	-1.475835	0.015678	-0.120880
O6	O	-1.284692	-0.175475	-0.120881
O7	O	-1.650174	-0.158649	-0.120877
Cu8	Cu	-1.464205	-0.163838	-0.142956
Cu9	Cu	-1.506009	-0.205595	0.142991
O10	O	-1.459031	-0.349802	-0.120878
C11	C	-1.255568	-0.191898	0.000015
C12	C	-1.116124	-0.188214	0.000014
C13	C	-1.031350	-0.167233	-0.131790
C14	C	-0.900329	-0.163750	-0.131793
C15	C	-0.938868	-0.202238	0.131823
C16	C	-1.069888	-0.205711	0.131824
C17	C	-1.492276	0.044821	0.000019
C18	C	-1.488585	0.184263	0.000027
C19	C	-0.714645	-0.177545	0.000017
C20	C	-0.854084	-0.181258	0.000009
C21	C	-1.506120	0.230519	0.131830
C22	C	-1.502641	0.361539	0.131833
C23	C	-1.464094	0.400037	-0.131783
C24	C	-1.467564	0.269018	-0.131784
N25	N	-1.434812	-0.134467	-0.344077
C26	C	-1.477940	0.585745	0.000022
C27	C	-1.481634	0.446301	0.000031
C28	C	-1.472894	-0.172492	-0.583689
C29	C	-1.497339	-0.196941	-0.416272
N30	N	-1.535412	-0.234956	0.344112
H31	H	-0.831311	-0.146665	-0.239121
C32	C	-1.529229	0.137285	0.276817
C33	C	-1.653511	0.152740	0.385560
C34	C	-1.676616	0.059509	0.530551
C35	C	-1.575438	-0.049178	0.566800
C36	C	-1.451147	-0.064639	0.458054
C37	C	-1.428042	0.028593	0.313063
H38	H	-1.728417	0.233201	0.358729
H39	H	-1.768624	0.070954	0.611051
H40	H	-1.592541	-0.118194	0.674131
H41	H	-1.376241	-0.145099	0.484885
H42	H	-1.336033	0.017147	0.232563
H43	H	-1.401279	-0.100908	-0.645821
H44	H	-0.901206	-0.216484	0.239138
H45	H	-1.138915	-0.222795	0.239161
C46	C	-1.521937	0.412419	0.276821
C47	C	-1.647184	0.391847	0.385548
C48	C	-1.666479	0.442724	0.530543
C49	C	-1.560528	0.514173	0.566811
C50	C	-1.435272	0.534748	0.458081
C51	C	-1.415977	0.483871	0.313086
H52	H	-1.725623	0.338953	0.358703
H53	H	-1.759202	0.427493	0.611032
H54	H	-1.574811	0.551835	0.674145
H55	H	-1.356833	0.587642	0.484926
H56	H	-1.323254	0.499102	0.232597
C57	C	-1.594103	-0.293646	-0.332357
C58	C	-1.735115	-0.273366	-0.353108
C59	C	-1.831876	-0.370070	-0.269192
C60	C	-1.787626	-0.487053	-0.164526
C61	C	-1.646607	-0.507338	-0.143771
C62	C	-1.549845	-0.410635	-0.227687
H63	H	-1.767878	-0.186763	-0.430592
H64	H	-1.936268	-0.355052	-0.284557
H65	H	-1.859254	-0.558639	-0.102407
H66	H	-1.613844	-0.593941	-0.066287
H67	H	-1.445454	-0.425652	-0.212321
H68	H	-1.068990	-0.152985	-0.239118
H69	H	-1.363187	-0.062883	-0.406201
H70	H	-1.446982	0.469060	-0.239098
H71	H	-1.453277	0.231357	-0.239120
H72	H	-1.607037	-0.306530	-0.593756
