data_functionalizedCrystal
_audit_creation_method	'MofGen! by Chris Wilmer'
_symmetry_space_group_name_H-M	'P1'
_symmetry_Int_Tables_number	1
_symmetry_cell_setting	triclinic
loop_
_symmetry_equiv_pos_as_xyz
  x,y,z
_cell_length_a	27.731994
_cell_length_b	27.732064
_cell_length_c	26.809956
_cell_angle_alpha	90.008400
_cell_angle_beta	89.997334
_cell_angle_gamma	82.634978
loop_
_atom_site_label
_atom_site_type_symbol
_atom_site_fract_x
_atom_site_fract_y
_atom_site_fract_z
O1	O	0.640952	0.057385	-0.041404
O2	O	1.140952	0.557385	0.458596
O3	O	0.500155	0.066158	-0.041420
O4	O	1.000155	0.566158	0.458580
O5	O	0.574922	-0.008626	-0.041414
O6	O	1.074922	0.491374	0.458586
O7	O	0.566185	0.132168	-0.041411
O8	O	1.066185	0.632168	0.458589
O9	O	0.574908	-0.008614	0.041545
O10	O	1.074908	0.491386	0.541545
O11	O	0.500141	0.066169	0.041539
O12	O	1.000141	0.566169	0.541539
O13	O	0.640938	0.057396	0.041555
O14	O	1.140938	0.557396	0.541555
Zn15	Zn	0.570537	0.061785	0.054718
Zn16	Zn	1.070537	0.561785	0.554718
Zn17	Zn	0.570556	0.061770	-0.054584
Zn18	Zn	1.070556	0.561770	0.445416
O19	O	0.566171	0.132180	0.041548
O20	O	1.066171	0.632180	0.541548
C21	C	0.482140	0.065983	0.000057
C22	C	0.982140	0.565983	0.500057
C23	C	0.428484	0.065441	0.000051
C24	C	0.928484	0.565441	0.500051
C25	C	0.095758	0.062032	0.045291
C26	C	0.595758	0.562032	0.545291
C27	C	-0.105900	0.059970	0.045297
C28	C	0.394100	0.559970	0.545297
O29	O	-0.131980	0.059688	0.083755
O30	O	0.368020	0.559688	0.583755
N31	N	-0.131108	0.059708	0.000076
N32	N	0.368892	0.559708	0.500076
C33	C	-0.105897	0.059958	-0.045150
C34	C	0.394103	0.559958	0.454850
O35	O	-0.131963	0.059682	-0.083613
O36	O	0.368037	0.559682	0.416387
C37	C	0.095761	0.062016	-0.045155
C38	C	0.595761	0.562016	0.454845
C39	C	0.120965	0.062283	0.000069
C40	C	0.620965	0.562283	0.500069
C41	C	0.120962	0.062298	0.090511
C42	C	0.620962	0.562298	0.590511
C43	C	0.171373	0.062816	0.090510
C44	C	0.671373	0.562816	0.590510
C45	C	0.196580	0.063068	0.045287
C46	C	0.696580	0.563068	0.545287
C47	C	0.171376	0.062801	0.000067
C48	C	0.671376	0.562801	0.500067
C49	C	0.120972	0.062262	-0.090380
C50	C	0.620972	0.562262	0.409620
C51	C	0.171389	0.062776	-0.090377
C52	C	0.671389	0.562776	0.409623
C53	C	0.196593	0.063043	-0.045153
C54	C	0.696593	0.563043	0.454847
C55	C	0.246995	0.063570	-0.045157
C56	C	0.746995	0.563570	0.454843
N57	N	0.272202	0.063833	0.000064
N58	N	0.772202	0.563833	0.500064
C59	C	0.246994	0.063581	0.045286
C60	C	0.746994	0.563581	0.545286
C61	C	-0.211770	0.058878	-0.045144
C62	C	0.288230	0.558878	0.454856
C63	C	-0.262184	0.058364	-0.045143
C64	C	0.237816	0.558364	0.454857
C65	C	-0.262185	0.058376	0.045304
C66	C	0.237815	0.558376	0.545304
C67	C	-0.211770	0.058893	0.045302
C68	C	0.288230	0.558893	0.545302
C69	C	-0.186563	0.059140	0.000077
C70	C	0.313437	0.559140	0.500077
C71	C	0.352862	0.064670	0.045279
C72	C	0.852862	0.564670	0.545279
C73	C	0.403277	0.065190	0.045273
C74	C	0.903277	0.565190	0.545273
C75	C	0.403273	0.065176	-0.045174
C76	C	0.903273	0.565176	0.454826
C77	C	0.352862	0.064658	-0.045168
C78	C	0.852862	0.564658	0.454832
C79	C	0.327657	0.064403	0.000062
C80	C	0.827657	0.564403	0.500062
O81	O	0.273105	0.063847	-0.083595
O82	O	0.773105	0.563847	0.416405
O83	O	0.273071	0.063846	0.083744
O84	O	0.773071	0.563846	0.583744
C85	C	0.045347	0.061514	0.045293
C86	C	0.545347	0.561514	0.545293
C87	C	0.020143	0.061247	0.000073
C88	C	0.520143	0.561247	0.500073
C89	C	0.045350	0.061498	-0.045150
C90	C	0.545350	0.561498	0.454850
C91	C	-0.030272	0.060733	0.000074
C92	C	0.469728	0.560733	0.500074
C93	C	-0.055479	0.060482	0.045296
C94	C	0.444521	0.560482	0.545296
C95	C	-0.030272	0.060744	0.090517
C96	C	0.469728	0.560744	0.590517
C97	C	0.020139	0.061262	0.090515
C98	C	0.520139	0.561262	0.590515
C99	C	0.020143	0.061236	-0.090371
C100	C	0.520143	0.561236	0.409629
C101	C	-0.030269	0.060719	-0.090365
C102	C	0.469731	0.560719	0.409635
C103	C	-0.055476	0.060467	-0.045143
C104	C	0.444524	0.560467	0.454857
C105	C	0.574730	-0.026627	0.000064
C106	C	1.074730	0.473373	0.500064
C107	C	0.574174	-0.080281	0.000060
C108	C	1.074174	0.419719	0.500060
C109	C	0.526206	-0.457344	0.000052
C110	C	1.026206	0.042656	0.500052
C111	C	0.528252	-0.255685	0.000052
C112	C	1.028252	0.244315	0.500052
O113	O	0.491030	-0.224425	0.000028
O114	O	0.991030	0.275575	0.500028
N115	N	0.572588	-0.236566	0.000057
N116	N	1.072588	0.263434	0.500057
C117	C	0.616415	-0.267865	0.000058
C118	C	1.116415	0.232135	0.500058
O119	O	0.654172	-0.246976	0.000058
O120	O	1.154172	0.253024	0.500058
C121	C	0.614368	-0.469524	0.000055
C122	C	1.114368	0.030476	0.500055
C123	C	0.570029	-0.488640	0.000055
C124	C	1.070029	0.011360	0.500055
C125	C	0.481871	-0.476461	0.000052
C126	C	0.981871	0.023539	0.500052
C127	C	0.481360	-0.526873	0.000054
C128	C	0.981360	-0.026873	0.500054
C129	C	0.525184	-0.558168	0.000058
C130	C	1.025184	-0.058168	0.500058
C131	C	0.569518	-0.539052	0.000058
C132	C	1.069518	-0.039052	0.500058
C133	C	0.658194	-0.500823	0.000054
C134	C	1.158194	-0.000823	0.500054
C135	C	0.657679	-0.551240	0.000051
C136	C	1.157679	-0.051240	0.500051
C137	C	0.613340	-0.570356	0.000052
C138	C	1.113340	-0.070356	0.500052
C139	C	0.612831	-0.620760	0.000064
C140	C	1.112831	-0.120760	0.500064
N141	N	0.568495	-0.639879	0.000059
N142	N	1.068495	-0.139879	0.500059
C143	C	0.524672	-0.608583	0.000056
C144	C	1.024672	-0.108583	0.500056
C145	C	0.617486	-0.161991	0.000061
C146	C	1.117486	0.338009	0.500061
C147	C	0.617998	-0.111577	0.000063
C148	C	1.117998	0.388423	0.500063
C149	C	0.529835	-0.099399	0.000055
C150	C	1.029835	0.400601	0.500055
C151	C	0.529324	-0.149815	0.000057
C152	C	1.029324	0.350185	0.500057
C153	C	0.573151	-0.181110	0.000056
C154	C	1.073151	0.318890	0.500056
C155	C	0.523602	-0.714452	0.000062
C156	C	1.023602	-0.214452	0.500062
C157	C	0.523095	-0.764869	0.000067
C158	C	1.023095	-0.264869	0.500067
C159	C	0.611257	-0.777042	0.000072
C160	C	1.111257	-0.277042	0.500072
C161	C	0.611764	-0.726630	0.000070
C162	C	1.111764	-0.226630	0.500070
C163	C	0.567933	-0.695335	0.000063
C164	C	1.067933	-0.195335	0.500063
O165	O	0.650033	-0.652048	0.000083
O166	O	1.150033	-0.152048	0.500083
O167	O	0.486920	-0.629481	0.000046
O168	O	0.986920	-0.129481	0.500046
C169	C	0.526717	-0.406932	0.000049
C170	C	1.026717	0.093068	0.500049
C171	C	0.571052	-0.387816	0.000050
C172	C	1.071052	0.112184	0.500050
C173	C	0.614875	-0.419112	0.000053
C174	C	1.114875	0.080888	0.500053
C175	C	0.571563	-0.337402	0.000051
C176	C	1.071563	0.162598	0.500051
C177	C	0.527740	-0.306106	0.000048
C178	C	1.027740	0.193894	0.500048
C179	C	0.483404	-0.325225	0.000043
C180	C	0.983404	0.174775	0.500043
C181	C	0.482893	-0.375637	0.000046
C182	C	0.982893	0.124363	0.500046
C183	C	0.659211	-0.399993	0.000058
C184	C	1.159211	0.100007	0.500058
C185	C	0.659718	-0.349580	0.000056
C186	C	1.159718	0.150420	0.500056
C187	C	0.615895	-0.318285	0.000052
C188	C	1.115895	0.181715	0.500052
C189	C	0.658952	0.057571	0.000076
C190	C	1.158952	0.557571	0.500076
C191	C	0.712608	0.058113	0.000079
C192	C	1.212608	0.558113	0.500079
C193	C	0.566362	0.150181	0.000069
C194	C	1.066362	0.650181	0.500069
C195	C	0.566918	0.203835	0.000071
C196	C	1.066918	0.703835	0.500071
N197	N	0.570528	0.061795	0.129314
N198	N	1.070528	0.561795	0.629314
N199	N	0.570569	0.061756	-0.129180
N200	N	1.070569	0.561756	0.370820
C201	C	0.603658	0.028664	0.473943
C202	C	1.103658	0.528664	0.973943
C203	C	0.603670	0.028656	0.682821
C204	C	1.103670	0.528656	1.182821
O205	O	0.631818	0.000490	0.709827
O206	O	1.131818	0.500490	1.209827
N207	N	0.570558	0.061759	0.708942
N208	N	1.070558	0.561759	1.208942
C209	C	0.537439	0.094864	0.682839
C210	C	1.037439	0.594864	1.182839
O211	O	0.509273	0.123016	0.709849
O212	O	1.009273	0.623016	1.209849
C213	C	0.537426	0.094868	0.473963
C214	C	1.037426	0.594868	0.973963
C215	C	0.570543	0.061767	0.447845
C216	C	1.070543	0.561767	0.947845
C217	C	0.636772	-0.004436	0.447826
C218	C	1.136772	0.495564	0.947826
C219	C	0.636770	-0.004432	0.395609
C220	C	1.136770	0.495568	0.895609
C221	C	0.603655	0.028671	0.369511
C222	C	1.103655	0.528671	0.869511
C223	C	0.570541	0.061771	0.395629
C224	C	1.070541	0.561771	0.895629
C225	C	0.504305	0.127971	0.447861
C226	C	1.004305	0.627971	0.947861
C227	C	0.504304	0.127968	0.395639
C228	C	1.004304	0.627968	0.895639
C229	C	0.537421	0.094866	0.369521
C230	C	1.037421	0.594866	0.869521
C231	C	0.537425	0.094878	0.317314
C232	C	1.037425	0.594878	0.817314
N233	N	0.570536	0.061775	0.291193
N234	N	1.070536	0.561775	0.791193
C235	C	0.603651	0.028672	0.317292
C236	C	1.103651	0.528672	0.817292
C237	C	0.537449	0.094859	0.792503
C238	C	1.037449	0.594859	1.292503
C239	C	0.537453	0.094859	0.844722
C240	C	1.037453	0.594859	1.344722
C241	C	0.603683	0.028651	0.844700
C242	C	1.103683	0.528651	1.344700
C243	C	0.603681	0.028654	0.792480
C244	C	1.103681	0.528654	1.292480
C245	C	0.570561	0.061757	0.766382
C246	C	1.070561	0.561757	1.266382
C247	C	0.603646	0.028683	0.207634
C248	C	1.103646	0.528683	0.707634
C249	C	0.603643	0.028691	0.155413
C250	C	1.103643	0.528691	0.655413
C251	C	0.537412	0.094898	0.155439
C252	C	1.037412	0.594898	0.655439
C253	C	0.537416	0.094891	0.207656
C254	C	1.037416	0.594891	0.707656
C255	C	0.570535	0.061780	0.233752
C256	C	1.070535	0.561780	0.733752
O257	O	0.509287	0.123026	0.290275
O258	O	1.009287	0.623026	0.790275
O259	O	0.631806	0.000517	0.290273
O260	O	1.131806	0.500517	0.790273
C261	C	0.603660	0.028660	0.526160
C262	C	1.103660	0.528660	1.026160
C263	C	0.570546	0.061759	0.552277
C264	C	1.070546	0.561759	1.052277
C265	C	0.537431	0.094862	0.526179
C266	C	1.037431	0.594862	1.026179
C267	C	0.570550	0.061758	0.604496
C268	C	1.070550	0.561758	1.104496
C269	C	0.603665	0.028655	0.630595
C270	C	1.103665	0.528655	1.130595
C271	C	0.636776	-0.004448	0.604474
C272	C	1.136776	0.495552	1.104474
C273	C	0.636775	-0.004444	0.552258
C274	C	1.136775	0.495556	1.052258
C275	C	0.504319	0.127965	0.552299
C276	C	1.004319	0.627965	1.052299
C277	C	0.504324	0.127959	0.604516
C278	C	1.004324	0.627959	1.104516
C279	C	0.537439	0.094855	0.630614
C280	C	1.037439	0.594855	1.130614
H281	H	0.191890	0.063031	0.127336
H282	H	0.691890	0.563031	0.627336
O283	O	0.476327	-0.680705	0.000064
O284	O	0.976327	-0.180705	0.500064
H285	H	0.455090	-0.687471	-0.033745
H286	H	0.955090	-0.187471	0.466255
O287	O	0.665821	-0.090964	0.000062
O288	O	1.165821	0.409036	0.500062
H289	H	0.686860	-0.103561	0.033872
H290	H	1.186860	0.396439	0.533872
O291	O	0.501739	0.130568	0.872886
O292	O	1.001739	0.630568	1.372886
H293	H	0.507303	0.125013	0.913583
H294	H	1.007303	0.625013	1.413583
H295	H	0.423806	0.065382	-0.081992
H296	H	0.923806	0.565382	0.418008
H297	H	-0.191252	0.059111	0.082128
H298	H	0.308748	0.559111	0.582128
H299	H	0.477332	0.154924	0.374393
H300	H	0.977332	0.654924	0.874393
O301	O	0.468607	0.163665	0.632688
O302	O	0.968607	0.663665	1.132688
H303	H	0.488783	0.187014	0.656479
H304	H	0.988783	0.687014	1.156479
H305	H	0.477352	0.154921	0.531054
H306	H	0.977352	0.654921	1.031054
H307	H	0.646937	-0.802532	0.000077
H308	H	1.146937	-0.302532	0.500077
H309	H	0.663736	-0.031387	0.374347
H310	H	1.163736	0.468613	0.874347
H311	H	0.423795	0.065409	0.082102
H312	H	0.923795	0.565409	0.582102
H313	H	0.510478	0.121817	0.771257
H314	H	1.010478	0.621817	1.271257
O315	O	0.047315	0.061553	0.139296
O316	O	0.547315	0.561553	0.639296
H317	H	0.074843	0.028833	0.141467
H318	H	0.574843	0.528833	0.641467
O319	O	0.093777	0.062032	0.139291
O320	O	0.593777	0.562032	0.639291
H321	H	0.119780	0.062308	0.170730
H322	H	0.619780	0.562308	0.670730
O323	O	0.664760	-0.195743	0.000063
O324	O	1.164760	0.304257	0.500063
H325	H	0.666630	-0.219000	0.033874
H326	H	1.166630	0.281000	0.533874
H327	H	0.332346	0.064467	0.082110
H328	H	0.832346	0.564467	0.582110
H329	H	0.647868	-0.711065	0.000077
H330	H	1.147868	-0.211065	0.500077
H331	H	0.446788	-0.391196	0.000046
H332	H	0.946788	0.108804	0.500046
O333	O	0.706017	-0.480212	0.000041
O334	O	1.206017	0.019788	0.500041
H335	H	0.736399	-0.510451	0.000033
H336	H	1.236399	-0.010451	0.500033
O337	O	0.475271	-0.785488	0.000069
O338	O	0.975271	-0.285488	0.500069
H339	H	0.454238	-0.772902	-0.033748
H340	H	0.954238	-0.272902	0.466252
H341	H	0.191910	0.062977	-0.127206
H342	H	0.691910	0.562977	0.372794
O343	O	0.436135	-0.291466	0.000039
O344	O	0.936135	0.208534	0.500039
H345	H	0.443945	-0.253200	0.000033
H346	H	0.943945	0.246800	0.500033
O347	O	0.704950	-0.584996	0.000056
O348	O	1.204950	-0.084996	0.500056
H349	H	0.735863	-0.563229	0.000061
H350	H	1.235863	-0.063229	0.500061
H351	H	0.494152	-0.073910	0.000055
H352	H	0.994152	0.426090	0.500055
H353	H	-0.282717	0.058172	0.082126
H354	H	0.217283	0.558172	0.582126
O355	O	0.433536	-0.547485	0.000052
O356	O	0.933536	-0.047485	0.500052
H357	H	0.431197	-0.570170	-0.033759
H358	H	0.931197	-0.070170	0.466241
H359	H	0.477339	0.154925	0.469119
H360	H	0.977339	0.654925	0.969119
O361	O	0.672498	-0.040136	0.475971
O362	O	1.172498	0.459864	0.975971
H363	H	0.695524	-0.063144	0.449029
H364	H	1.195524	0.436856	0.949029
H365	H	0.510454	0.121850	0.228921
H366	H	1.010454	0.621850	0.728921
O367	O	0.707543	-0.328964	0.000050
O368	O	1.207543	0.171036	0.500050
H369	H	0.737928	-0.359201	0.000045
H370	H	1.237928	0.140799	0.500045
H371	H	0.630647	0.001700	0.771218
H372	H	1.130647	0.501700	1.271218
O373	O	0.706480	-0.433745	0.000070
O374	O	1.206480	0.066255	0.500070
H375	H	0.737391	-0.411976	0.000078
H376	H	1.237391	0.088024	0.500078
H377	H	-0.191251	0.059079	-0.081974
H378	H	0.308749	0.559079	0.418026
H379	H	0.630612	0.001736	0.134149
H380	H	1.130612	0.501736	0.634149
O381	O	0.639372	-0.007027	0.235772
O382	O	1.139372	0.492973	0.735772
H383	H	0.619209	-0.030388	0.259557
H384	H	1.119209	0.469612	0.759557
H385	H	0.332339	0.064449	-0.081993
H386	H	0.832339	0.564449	0.418007
H387	H	0.630647	0.001697	0.865958
H388	H	1.130647	0.501697	1.365958
H389	H	0.446182	-0.450984	0.000047
H390	H	0.946182	0.049016	0.500047
O391	O	0.501683	0.130590	0.127286
O392	O	1.001683	0.630590	0.627286
H393	H	0.507242	0.125020	0.086588
H394	H	1.007242	0.625020	0.586588
H395	H	0.663741	-0.031398	0.530997
H396	H	1.163741	0.468602	1.030997
O397	O	0.672493	-0.040155	0.632628
O398	O	1.172493	0.459845	1.132628
H399	H	0.666924	-0.034594	0.673326
H400	H	1.166924	0.465406	1.173326
O401	O	-0.289364	0.058084	-0.093922
O402	O	0.210636	0.558084	0.406078
H403	H	-0.328657	0.057689	-0.086330
H404	H	0.171343	0.557689	0.413670
O405	O	0.093798	0.061949	-0.139158
O406	O	0.593798	0.561949	0.360842
H407	H	0.119805	0.062195	-0.170599
H408	H	0.619805	0.562195	0.329401
H409	H	-0.050805	0.060542	0.127339
H410	H	0.449195	0.560542	0.627339
O411	O	0.481503	-0.170432	0.000052
O412	O	0.981503	0.329568	0.500052
H413	H	0.451118	-0.140196	0.000048
H414	H	0.951118	0.359804	0.500048
H415	H	-0.050786	0.060505	-0.127195
H416	H	0.449214	0.560505	0.372805
H417	H	0.040661	0.061439	-0.127197
H418	H	0.540661	0.561439	0.372803
