data_functionalizedCrystal
_audit_creation_method	'MofGen! by Chris Wilmer'
_symmetry_space_group_name_H-M	'P1'
_symmetry_Int_Tables_number	1
_symmetry_cell_setting	triclinic
loop_
_symmetry_equiv_pos_as_xyz
  x,y,z
_cell_length_a	9.065215
_cell_length_b	19.188925
_cell_length_c	17.666332
_cell_angle_alpha	90.010202
_cell_angle_beta	90.004180
_cell_angle_gamma	84.078623
loop_
_atom_site_label
_atom_site_type_symbol
_atom_site_fract_x
_atom_site_fract_y
_atom_site_fract_z
O1	O	0.184138	0.927582	0.062963
O2	O	0.208940	0.724462	0.062961
O3	O	-0.018250	0.830222	0.062959
O4	O	0.411327	0.821823	0.062965
O5	O	-0.018256	0.830203	-0.062938
O6	O	0.208933	0.724444	-0.062936
O7	O	0.184131	0.927563	-0.062934
Cu8	Cu	0.196532	0.826001	-0.074430
Cu9	Cu	0.196539	0.826024	0.074457
O10	O	0.411321	0.821804	-0.062932
C11	C	0.208135	0.698436	0.000012
C12	C	0.205728	0.620912	0.000011
C13	C	0.322917	0.060052	0.000015
C14	C	0.325192	0.132893	0.000019
C15	C	0.191885	0.176792	0.000016
C16	C	0.056293	0.147845	0.000028
C17	C	0.054022	0.075006	0.000031
N18	N	0.095373	0.296714	-0.042842
N19	N	0.097539	0.365908	-0.042847
C20	C	0.198718	0.396254	0.000007
N21	N	0.297671	0.354792	0.042856
N22	N	0.295509	0.285591	0.042858
C23	C	0.194332	0.255775	0.000012
C24	C	0.336767	0.504175	0.000005
C25	C	0.339036	0.577018	0.000013
C26	C	0.070133	0.591969	0.000014
C27	C	0.067868	0.519128	0.000013
C28	C	0.201190	0.475235	0.000005
C29	C	-0.073212	0.829405	0.000011
C30	C	-0.236971	0.826993	0.000014
C31	C	0.466283	0.822620	0.000018
C32	C	0.630042	0.825032	0.000020
C33	C	0.184936	0.953590	0.000017
C34	C	0.187343	1.031113	0.000023
N35	N	0.196525	0.825991	-0.179150
C36	C	0.285784	0.868893	-0.218751
C37	C	0.285780	0.868904	-0.297999
C38	C	0.196534	0.826000	-0.337642
C39	C	0.107257	0.783095	-0.298031
C40	C	0.107253	0.783091	-0.218785
N41	N	0.192902	0.764823	-0.462082
N42	N	0.192914	0.764830	-0.537362
C43	C	0.196539	0.826013	-0.576406
N44	N	0.200179	0.887190	-0.537325
N45	N	0.200175	0.887183	-0.462037
C46	C	0.196528	0.826001	-0.423571
C47	C	0.285798	0.868931	-0.701937
C48	C	0.285783	0.868943	-0.781186
C49	C	0.107269	0.783128	-0.781216
C50	C	0.107275	0.783122	-0.701968
C51	C	0.196547	0.826022	-0.662333
N52	N	0.196534	0.826040	0.179177
H53	H	0.435596	0.156460	0.000006
H54	H	0.445326	0.468436	-0.000001
H55	H	0.034597	0.748184	-0.669725
H56	H	0.449441	0.600578	0.000013
H57	H	0.358487	0.903863	-0.669664
H58	H	0.034591	0.748163	-0.330313
H59	H	-0.042531	0.495566	0.000015
H60	H	0.034566	0.748153	-0.186541
H61	H	0.034601	0.748196	-0.813493
H62	H	0.358469	0.903840	-0.330248
H63	H	0.358463	0.903884	-0.813428
H64	H	0.358471	0.903828	-0.186485
H65	H	0.431479	0.024318	0.000012
H66	H	-0.038408	0.627712	0.000018
H67	H	-0.052247	0.183593	0.000027
H68	H	-0.056382	0.051445	0.000038
