data_functionalizedCrystal
_audit_creation_method	'MofGen! by Chris Wilmer'
_symmetry_space_group_name_H-M	'P1'
_symmetry_Int_Tables_number	1
_symmetry_cell_setting	triclinic
loop_
_symmetry_equiv_pos_as_xyz
  x,y,z
_cell_length_a	16.109301
_cell_length_b	16.109301
_cell_length_c	8.140239
_cell_angle_alpha	89.995060
_cell_angle_beta	89.999998
_cell_angle_gamma	83.461481
loop_
_atom_site_label
_atom_site_type_symbol
_atom_site_fract_x
_atom_site_fract_y
_atom_site_fract_z
O1	O	1.103130	0.106866	-0.136515
O2	O	1.436463	0.440199	0.196819
O3	O	1.769797	0.773533	0.530152
O4	O	0.861068	0.120165	-0.136542
O5	O	1.194401	0.453499	0.196792
O6	O	1.527735	0.786832	0.530125
O7	O	0.988749	-0.007515	-0.136511
O8	O	1.322082	0.325818	0.196823
O9	O	1.655415	0.659151	0.530156
O10	O	0.975449	0.234547	-0.136546
O11	O	1.308783	0.567880	0.196788
O12	O	1.642116	0.901213	0.530121
O13	O	0.988742	-0.007517	0.136716
O14	O	1.322075	0.325816	0.470050
O15	O	1.655408	0.659150	0.803383
O16	O	0.861061	0.120164	0.136686
O17	O	1.194394	0.453497	0.470019
O18	O	1.527728	0.786830	0.803352
O19	O	1.103123	0.106864	0.136712
O20	O	1.436456	0.440198	0.470046
O21	O	1.769790	0.773531	0.803379
Zn22	Zn	0.982091	0.113514	0.180080
Zn23	Zn	1.315424	0.446847	0.513413
Zn24	Zn	1.648757	0.780181	0.846746
Zn25	Zn	0.982100	0.113516	-0.179909
Zn26	Zn	1.315433	0.446849	0.153424
Zn27	Zn	1.648767	0.780182	0.486758
O28	O	0.975442	0.234545	0.136681
O29	O	1.308776	0.567878	0.470015
O30	O	1.642109	0.901212	0.803348
C31	C	0.830090	0.119626	0.000069
C32	C	1.163423	0.452959	0.333402
C33	C	1.496756	0.786292	0.666735
C34	C	0.737794	0.118011	0.000059
C35	C	1.071128	0.451344	0.333392
C36	C	1.404461	0.784677	0.666726
C37	C	0.515522	0.190018	0.000068
C38	C	0.848855	0.523352	0.333401
C39	C	1.182188	0.856685	0.666734
C40	C	0.428801	0.188494	0.000078
C41	C	0.762135	0.521828	0.333412
C42	C	1.095468	0.855161	0.666745
C43	C	0.448676	0.037006	0.000094
C44	C	0.782009	0.370339	0.333427
C45	C	1.115342	0.703672	0.666760
C46	C	0.535394	0.038530	0.000094
C47	C	0.868728	0.371864	0.333428
C48	C	1.202061	0.705197	0.666761
C49	C	0.568815	0.115039	0.000073
C50	C	0.902148	0.448373	0.333407
C51	C	1.235482	0.781706	0.666740
C52	C	0.395376	0.111990	0.000083
C53	C	0.728709	0.445324	0.333416
C54	C	1.062042	0.778657	0.666750
C55	C	0.301350	0.110337	0.000095
C56	C	0.634683	0.443671	0.333428
C57	C	0.968016	0.777004	0.666761
C58	C	0.662847	0.116693	0.000065
C59	C	0.996180	0.450026	0.333398
C60	C	1.329514	0.783359	0.666731
C61	C	0.988206	-0.038491	0.000104
C62	C	1.321540	0.294842	0.333437
C63	C	1.654873	0.628176	0.666770
C64	C	0.986591	-0.130786	0.000106
C65	C	1.319925	0.202547	0.333439
C66	C	1.653258	0.535880	0.666772
C67	C	1.058599	-0.353059	0.000088
C68	C	1.391932	-0.019725	0.333421
C69	C	1.725266	0.313608	0.666754
C70	C	1.057075	-0.439779	0.000074
C71	C	1.390408	-0.106446	0.333407
C72	C	1.723742	0.226888	0.666741
C73	C	0.905586	-0.419905	0.000064
C74	C	1.238919	-0.086571	0.333397
C75	C	1.572253	0.246762	0.666730
C76	C	0.907111	-0.333186	0.000066
C77	C	1.240444	0.000147	0.333399
C78	C	1.573778	0.333481	0.666732
C79	C	0.983620	-0.299766	0.000086
C80	C	1.316953	0.033568	0.333419
C81	C	1.650287	0.366901	0.666753
C82	C	0.980571	-0.473205	0.000070
C83	C	1.313904	-0.139871	0.333404
C84	C	1.647238	0.193462	0.666737
C85	C	0.978918	-0.567231	0.000056
C86	C	1.312251	-0.233897	0.333389
C87	C	1.645585	0.099436	0.666722
C88	C	0.985273	-0.205734	0.000098
C89	C	1.318607	0.127600	0.333431
C90	C	1.651940	0.460933	0.666764
C91	C	1.134101	0.107404	0.000098
C92	C	1.467435	0.440737	0.333432
C93	C	1.800768	0.774071	0.666765
C94	C	1.226397	0.109019	0.000097
C95	C	1.559730	0.442352	0.333431
C96	C	1.893063	0.775686	0.666764
C97	C	0.975984	0.265521	0.000064
C98	C	1.309318	0.598854	0.333397
C99	C	1.642651	0.932187	0.666730
C100	C	0.977600	0.357816	0.000051
C101	C	1.310933	0.691149	0.333384
C102	C	1.644266	1.024483	0.666717
N103	N	0.982090	0.113512	0.425762
N104	N	1.315424	0.446845	0.759095
N105	N	1.648757	0.780179	1.092429
N106	N	0.982107	0.113511	-0.425591
N107	N	1.315440	0.446844	-0.092258
N108	N	1.648774	0.780178	0.241075
H109	H	0.385413	0.249550	0.000077
H110	H	0.718746	0.582883	0.333411
H111	H	1.052080	0.916217	0.666744
Cl112	Cl	1.154781	-0.311047	0.000109
Cl113	Cl	1.488114	0.022286	0.333442
Cl114	Cl	1.821448	0.355619	0.666776
Cl115	Cl	0.557533	0.286200	0.000051
Cl116	Cl	0.890867	0.619534	0.333385
Cl117	Cl	1.224200	0.952867	0.666718
Cl118	Cl	0.406655	-0.059172	0.000109
Cl119	Cl	0.739988	0.274162	0.333443
Cl120	Cl	1.073322	0.607495	0.666776
Cl121	Cl	0.812844	-0.266184	0.000049
Cl122	Cl	1.146177	0.067150	0.333382
Cl123	Cl	1.479510	0.400483	0.666716
Cl124	Cl	0.602397	-0.055737	0.000115
Cl125	Cl	0.935730	0.277596	0.333448
Cl126	Cl	1.269064	0.610930	0.666781
Cl127	Cl	0.809409	-0.461926	0.000039
Cl128	Cl	1.142742	-0.128592	0.333372
Cl129	Cl	1.476076	0.204741	0.666705
Cl130	Cl	1.151339	-0.506773	0.000073
Cl131	Cl	1.484672	-0.173440	0.333406
Cl132	Cl	1.818006	0.159893	0.666740
