data_functionalizedCrystal
_audit_creation_method	'MofGen! by Chris Wilmer'
_symmetry_space_group_name_H-M	'P1'
_symmetry_Int_Tables_number	1
_symmetry_cell_setting	triclinic
loop_
_symmetry_equiv_pos_as_xyz
  x,y,z
_cell_length_a	11.792241
_cell_length_b	17.666332
_cell_length_c	11.792241
_cell_angle_alpha	89.994673
_cell_angle_beta	95.806584
_cell_angle_gamma	90.005047
loop_
_atom_site_label
_atom_site_type_symbol
_atom_site_fract_x
_atom_site_fract_y
_atom_site_fract_z
O1	O	1.506917	0.062875	-0.155568
O2	O	1.840250	0.396208	0.177766
O3	O	2.173583	0.729542	0.511099
O4	O	1.176576	0.062893	-0.171601
O5	O	1.509909	0.396226	0.161733
O6	O	1.843242	0.729559	0.495066
O7	O	1.349762	0.062878	0.001586
O8	O	1.683096	0.396212	0.334920
O9	O	2.016429	0.729545	0.668253
O10	O	1.333730	0.062890	-0.328755
O11	O	1.667063	0.396223	0.004579
O12	O	2.000396	0.729556	0.337912
O13	O	1.349732	-0.063019	0.001592
O14	O	1.683065	0.270315	0.334925
O15	O	2.016398	0.603648	0.668258
O16	O	1.176545	-0.063004	-0.171595
O17	O	1.509878	0.270329	0.161738
O18	O	1.843211	0.603663	0.495071
O19	O	1.506886	-0.063022	-0.155562
O20	O	1.840219	0.270312	0.177771
O21	O	2.173552	0.603645	0.511104
Cu22	Cu	1.341712	-0.074508	-0.163578
Cu23	Cu	1.675046	0.258825	0.169755
Cu24	Cu	2.008379	0.592159	0.503088
Cu25	Cu	1.341749	0.074379	-0.163585
Cu26	Cu	1.675082	0.407713	0.169749
Cu27	Cu	2.008416	0.741046	0.503082
O28	O	1.333699	-0.063007	-0.328749
O29	O	1.667032	0.270326	0.004584
O30	O	2.000365	0.603660	0.337917
C31	C	1.134269	-0.000053	-0.170591
C32	C	1.467603	0.333280	0.162742
C33	C	1.800936	0.666613	0.496076
C34	C	1.008255	-0.000047	-0.167576
C35	C	1.341589	0.333287	0.165757
C36	C	1.674922	0.666620	0.499090
C37	C	0.777543	-0.000069	-0.162034
C38	C	1.110877	0.333265	0.171300
C39	C	1.444210	0.666598	0.504633
C40	C	0.905928	-0.000057	-0.165113
C41	C	1.239262	0.333277	0.168220
C42	C	1.572595	0.666610	0.501553
N43	N	1.341695	-0.179228	-0.163573
N44	N	1.675029	0.154106	0.169760
N45	N	2.008362	0.487439	0.503093
C46	C	1.410945	-0.218832	-0.232882
C47	C	1.744279	0.114501	0.100451
C48	C	2.077612	0.447834	0.433784
C49	C	1.410963	-0.298080	-0.232879
C50	C	1.744297	0.035253	0.100454
C51	C	2.077630	0.368587	0.433788
C52	C	1.341710	-0.337720	-0.163580
C53	C	1.675044	-0.004386	0.169753
C54	C	2.008377	0.328947	0.503087
C55	C	1.272456	-0.298105	-0.094257
C56	C	1.605789	0.035228	0.239076
C57	C	1.939123	0.368561	0.572409
C58	C	1.272448	-0.218859	-0.094254
C59	C	1.605782	0.114474	0.239079
C60	C	1.939115	0.447807	0.572413
N61	N	1.242278	-0.462154	-0.159868
N62	N	1.575611	-0.128821	0.173465
N63	N	1.908944	0.204513	0.506798
N64	N	1.242288	-0.537435	-0.159878
N65	N	1.575621	-0.204101	0.173455
N66	N	1.908955	0.129232	0.506789
C67	C	1.341731	-0.576484	-0.163584
C68	C	1.675064	-0.243150	0.169749
C69	C	2.008398	0.090183	0.503083
N70	N	1.441165	-0.537409	-0.167302
N71	N	1.774498	-0.204075	0.166031
N72	N	2.107831	0.129258	0.499364
N73	N	1.441153	-0.462121	-0.167299
N74	N	1.774486	-0.128788	0.166035
N75	N	2.107820	0.204545	0.499368
C76	C	1.341712	-0.423649	-0.163575
C77	C	1.675045	-0.090316	0.169758
C78	C	2.008378	0.243018	0.503091
C79	C	1.411007	-0.702018	-0.232893
C80	C	1.744340	-0.368685	0.100440
C81	C	2.077674	-0.035351	0.433773
C82	C	1.411027	-0.781267	-0.232882
C83	C	1.744361	-0.447934	0.100451
C84	C	2.077694	-0.114600	0.433785
C85	C	1.272509	-0.781291	-0.094267
C86	C	1.605843	-0.447958	0.239067
C87	C	1.939176	-0.114624	0.572400
C88	C	1.272499	-0.702043	-0.094271
C89	C	1.605833	-0.368710	0.239062
C90	C	1.939166	-0.035377	0.572395
C91	C	1.341746	-0.662412	-0.163591
C92	C	1.675080	-0.329078	0.169743
C93	C	2.008413	0.004255	0.503076
C94	C	1.549192	-0.000074	-0.156572
C95	C	1.882525	0.333260	0.176761
C96	C	2.215859	0.666593	0.510095
C97	C	1.675206	-0.000075	-0.159587
C98	C	2.008539	0.333258	0.173747
C99	C	2.341873	0.666591	0.507080
C100	C	1.348740	-0.000070	0.043880
C101	C	1.682073	0.333263	0.377213
C102	C	2.015407	0.666597	0.710547
C103	C	1.345726	-0.000069	0.169894
C104	C	1.679059	0.333264	0.503227
C105	C	2.012392	0.666598	0.836560
N106	N	1.341775	0.179099	-0.163581
N107	N	1.675108	0.512432	0.169753
N108	N	2.008442	0.845765	0.503086
C109	C	1.334721	-0.000057	-0.371043
C110	C	1.668055	0.333276	-0.037710
C111	C	2.001388	0.666609	0.295624
C112	C	1.337736	-0.000053	-0.497057
C113	C	1.671069	0.333280	-0.163723
C114	C	2.004402	0.666613	0.169610
C115	C	1.340183	-0.000056	0.400606
C116	C	1.673516	0.333277	0.733939
C117	C	2.006849	0.666611	1.067272
C118	C	1.343262	-0.000063	0.272221
C119	C	1.676596	0.333270	0.605554
C120	C	2.009929	0.666604	0.938887
H121	H	1.467336	-0.186569	-0.289323
H122	H	1.800669	0.146764	0.044010
H123	H	2.134003	0.480098	0.377344
F124	F	1.484673	-0.340239	-0.306649
F125	F	1.818006	-0.006906	0.026685
F126	F	2.151340	0.326428	0.360018
F127	F	1.198755	-0.340294	-0.020501
F128	F	1.532088	-0.006960	0.312832
F129	F	1.865422	0.326373	0.646165
H130	H	1.467427	-0.813512	-0.289318
H131	H	1.800760	-0.480178	0.044015
H132	H	2.134094	-0.146845	0.377348
H133	H	1.216054	-0.186614	-0.037813
H134	H	1.549388	0.146720	0.295520
H135	H	1.882721	0.480053	0.628854
F136	F	1.198815	-0.823473	-0.020502
F137	F	1.532149	-0.490140	0.312831
F138	F	1.865482	-0.156806	0.646165
F139	F	1.484724	-0.659836	-0.306648
F140	F	1.818057	-0.326503	0.026685
F141	F	2.151391	0.006831	0.360019
H142	H	1.216104	-0.669797	-0.037837
H143	H	1.549437	-0.336463	0.295496
H144	H	1.882770	-0.003130	0.628830
