data_functionalizedCrystal
_audit_creation_method	'MofGen! by Chris Wilmer'
_symmetry_space_group_name_H-M	'P1'
_symmetry_Int_Tables_number	1
_symmetry_cell_setting	triclinic
loop_
_symmetry_equiv_pos_as_xyz
  x,y,z
_cell_length_a	18.101395
_cell_length_b	17.077404
_cell_length_c	18.101390
_cell_angle_alpha	90.017355
_cell_angle_beta	89.968753
_cell_angle_gamma	89.968671
loop_
_atom_site_label
_atom_site_type_symbol
_atom_site_fract_x
_atom_site_fract_y
_atom_site_fract_z
Zn1	Zn	-0.294798	-1.199993	-0.418740
Zn2	Zn	0.205202	-0.699993	0.081260
Zn3	Zn	-0.418654	-1.199886	-0.294902
Zn4	Zn	0.081346	-0.699886	0.205098
Zn5	Zn	-0.294832	-1.068730	-0.294913
Zn6	Zn	0.205168	-0.568730	0.205087
Zn7	Zn	-0.418602	-1.068674	-0.418702
Zn8	Zn	0.081398	-0.568674	0.081298
O9	O	-0.356721	-1.134321	-0.356814
O10	O	0.143279	-0.634321	0.143186
O11	O	-0.311235	-1.309826	-0.402324
O12	O	0.188765	-0.809826	0.097676
O13	O	-0.402265	-1.182467	-0.191270
O14	O	0.097735	-0.682467	0.308730
O15	O	-0.191194	-1.086210	-0.311359
O16	O	0.308806	-0.586210	0.188641
O17	O	-0.402232	-1.309747	-0.311340
O18	O	0.097768	-0.809747	0.188660
O19	O	-0.191169	-1.182649	-0.402334
O20	O	0.308831	-0.682649	0.097666
O21	O	-0.311293	-1.086107	-0.191278
O22	O	0.188707	-0.586107	0.308722
O23	O	-0.311243	-0.958876	-0.311322
O24	O	0.188757	-0.458876	0.188678
O25	O	-0.402143	-1.086115	-0.522340
O26	O	0.097857	-0.586115	-0.022340
O27	O	-0.402176	-0.958835	-0.402270
O28	O	0.097824	-0.458835	0.097730
O29	O	-0.311184	-1.182595	-0.522368
O30	O	0.188816	-0.682595	-0.022368
O31	O	-0.522280	-1.182413	-0.311304
O32	O	-0.022280	-0.682413	0.188696
O33	O	-0.522242	-1.086012	-0.402259
O34	O	-0.022242	-0.586012	0.097741
C35	C	-0.549132	-1.134216	-0.356792
C36	C	-0.049132	-0.634216	0.143208
C37	C	-0.631446	-1.134243	-0.356808
C38	C	-0.131446	-0.634243	0.143192
C39	C	-0.356708	-0.930373	-0.356794
C40	C	0.143292	-0.430373	0.143206
C41	C	-0.356720	-0.843123	-0.356802
C42	C	0.143280	-0.343123	0.143198
C43	C	-0.356654	-1.134361	-0.549976
C44	C	0.143346	-0.634361	-0.049976
C45	C	-0.356625	-1.134378	-0.632290
C46	C	0.143375	-0.634378	-0.132290
C47	C	-0.930537	-1.134415	-0.356848
C48	C	-0.430537	-0.634415	0.143152
C49	C	-0.899219	-1.073903	-0.414216
C50	C	-0.399219	-0.573903	0.085784
C51	C	-0.813601	-1.073615	-0.414037
C52	C	-0.313601	-0.573615	0.085963
C53	C	-0.782155	-1.134330	-0.356828
C54	C	-0.282155	-0.634330	0.143172
C55	C	-0.813311	-1.111936	-0.278779
C56	C	-0.313311	-0.611936	0.221221
C57	C	-0.898956	-1.111546	-0.279122
C58	C	-0.398956	-0.611546	0.220878
C59	C	-0.898879	-1.217454	-0.376841
C60	C	-0.398879	-0.717454	0.123159
C61	C	-0.813228	-1.216965	-0.378553
C62	C	-0.313228	-0.716965	0.121447
C63	C	-0.698295	-1.134283	-0.356813
C64	C	-0.198295	-0.634283	0.143187
C65	C	-1.014396	-1.134460	-0.356858
C66	C	-0.514396	-0.634460	0.143142
C67	C	-0.163560	-1.134448	-0.356852
C68	C	0.336440	-0.634448	0.143148
C69	C	-0.081245	-1.134502	-0.356868
C70	C	0.418755	-0.634502	0.143132
C71	C	-0.356735	-1.339065	-0.356835
C72	C	0.143265	-0.839065	0.143165
C73	C	-0.356741	-1.426315	-0.356844
C74	C	0.143259	-0.926315	0.143156
C75	C	-0.404141	-0.802132	-0.404083
C76	C	0.095859	-0.302132	0.095917
C77	C	-0.404142	-0.720152	-0.404095
C78	C	0.095858	-0.220152	0.095905
C79	C	-0.356727	-0.679164	-0.356822
C80	C	0.143273	-0.179164	0.143178
C81	C	-0.309301	-0.720161	-0.309539
C82	C	0.190699	-0.220161	0.190461
C83	C	-0.309296	-0.802139	-0.309532
C84	C	0.190704	-0.302139	0.190468
C85	C	-0.309315	-0.549291	-0.309557
C86	C	0.190685	-0.049291	0.190443
C87	C	-0.309321	-0.467306	-0.309563
C88	C	0.190679	0.032694	0.190437
C89	C	-0.404162	-0.467303	-0.404120
C90	C	0.095838	0.032697	0.095880
C91	C	-0.404157	-0.549282	-0.404112
C92	C	0.095843	-0.049282	0.095888
C93	C	-0.356732	-0.590273	-0.356829
C94	C	0.143268	-0.090273	0.143171
C95	C	-0.356602	-1.134406	-0.782999
C96	C	0.143398	-0.634406	-0.282999
C97	C	-0.299368	-1.195110	-0.814370
C98	C	0.200632	-0.695110	-0.314370
C99	C	-0.299523	-1.195364	-0.899988
C100	C	0.200477	-0.695364	-0.399988
C101	C	-0.356578	-1.134434	-0.931381
C102	C	0.143422	-0.634434	-0.431381
C103	C	-0.434690	-1.156561	-0.900273
C104	C	0.065310	-0.656561	-0.400273
C105	C	-0.434372	-1.156985	-0.814628
C106	C	0.065628	-0.656985	-0.314628
C107	C	-0.336402	-1.051427	-0.814556
C108	C	0.163598	-0.551427	-0.314556
C109	C	-0.334667	-1.051888	-0.900207
C110	C	0.165333	-0.551888	-0.400207
C111	C	-0.356569	-1.134448	-1.015241
C112	C	0.143431	-0.634448	-0.515241
C113	C	-0.356616	-1.134393	-0.699139
C114	C	0.143384	-0.634393	-0.199139
C115	C	-0.356735	-1.134326	-0.164403
C116	C	0.143265	-0.634326	0.335597
C117	C	-0.356555	-1.134462	-0.082090
C118	C	0.143445	-0.634462	0.417910
H119	H	-0.792532	-1.087626	-0.471910
H120	H	-0.292532	-0.587626	0.028090
N121	N	-0.926421	-1.167366	-0.220559
N122	N	-0.426421	-0.667366	0.279441
H123	H	-0.957379	-1.209584	-0.244369
H124	H	-0.457379	-0.709584	0.255631
H125	H	-0.882855	-1.192068	-0.194647
H126	H	-0.382855	-0.692068	0.305353
N127	N	-0.455299	-0.675939	-0.455079
N128	N	0.044701	-0.175939	0.044921
H129	H	-0.485343	-0.714344	-0.485017
H130	H	0.014657	-0.214344	0.014983
H131	H	-0.489530	-0.641900	-0.424864
H132	H	0.010470	-0.141900	0.075136
H133	H	-0.378086	-1.006202	-0.794264
H134	H	0.121914	-0.506202	-0.294264
H135	H	-0.792861	-1.233853	-0.435993
H136	H	-0.292861	-0.733853	0.064007
H137	H	-0.452075	-1.216539	-0.921746
H138	H	0.047925	-0.716539	-0.421746
N139	N	-0.925703	-1.277173	-0.321495
N140	N	-0.425703	-0.777173	0.178505
H141	H	-0.981460	-1.279168	-0.322362
H142	H	-0.481460	-0.779168	0.177638
H143	H	-0.905138	-1.330371	-0.334650
H144	H	-0.405138	-0.830371	0.165350
N145	N	-0.258170	-0.593508	-0.258557
N146	N	0.241830	-0.093508	0.241443
H147	H	-0.223885	-0.627552	-0.288708
H148	H	0.276115	-0.127552	0.211292
H149	H	-0.228184	-0.555057	-0.228617
H150	H	0.271816	-0.055057	0.271383
H151	H	-0.792944	-1.154623	-0.234869
H152	H	-0.292944	-0.654623	0.265131
N153	N	-0.258181	-0.423094	-0.258578
N154	N	0.241819	0.076906	0.241422
H155	H	-0.228132	-0.461500	-0.228627
H156	H	0.271868	0.038500	0.271373
H157	H	-0.223954	-0.389109	-0.288792
H158	H	0.276046	0.110891	0.211208
H159	H	-0.270691	-0.686782	-0.271052
H160	H	0.229309	-0.186782	0.228948
N161	N	-0.927801	-0.992863	-0.396897
N162	N	-0.427801	-0.492863	0.103103
H163	H	-0.956770	-0.972334	-0.440459
H164	H	-0.456770	-0.472334	0.059541
H165	H	-0.960919	-0.995239	-0.352034
H166	H	-0.460919	-0.495239	0.147966
N167	N	-0.927432	-1.244502	-0.450937
N168	N	-0.427432	-0.744502	0.049063
H169	H	-0.955761	-1.294990	-0.444575
H170	H	-0.455761	-0.794990	0.055425
H171	H	-0.961147	-1.203144	-0.472246
H172	H	-0.461147	-0.703144	0.027754
H173	H	-0.791818	-1.264435	-0.339814
H174	H	-0.291818	-0.764435	0.160186
N175	N	-0.786540	-0.992089	-0.396489
N176	N	-0.286540	-0.492089	0.103511
H177	H	-0.830248	-0.956199	-0.388836
H178	H	-0.330248	-0.456199	0.111164
H179	H	-0.755689	-0.993501	-0.350036
H180	H	-0.255689	-0.493501	0.149964
N181	N	-0.455283	-0.846335	-0.455073
N182	N	0.044717	-0.346335	0.044927
H183	H	-0.448087	-0.904489	-0.447894
H184	H	0.051913	-0.404489	0.052106
H185	H	-0.508159	-0.831971	-0.443454
H186	H	-0.008159	-0.331971	0.056546
N187	N	-0.262245	-1.024650	-0.785968
N188	N	0.237755	-0.524650	-0.285968
H189	H	-0.240992	-1.066044	-0.752266
H190	H	0.259008	-0.566044	-0.252266
H191	H	-0.227628	-1.015820	-0.828938
H192	H	0.272372	-0.515820	-0.328938
H193	H	-0.478468	-1.114660	-0.793872
H194	H	0.021532	-0.614660	-0.293872
N195	N	-0.385831	-0.988814	-0.928494
N196	N	0.114169	-0.488814	-0.428494
H197	H	-0.383239	-0.986880	-0.984201
H198	H	0.116761	-0.486880	-0.484201
H199	H	-0.438102	-1.000855	-0.912625
H200	H	0.061898	-0.500855	-0.412625
H201	H	-0.277183	-1.035195	-0.920542
H202	H	0.222817	-0.535195	-0.420542
H203	H	-0.478492	-1.113709	-0.920604
H204	H	0.021508	-0.613709	-0.420604
N205	N	-0.455303	-0.593493	-0.455091
N206	N	0.044697	-0.093493	0.044909
H207	H	-0.485347	-0.555088	-0.485047
H208	H	0.014653	-0.055088	0.014953
H209	H	-0.425198	-0.627539	-0.489412
H210	H	0.074802	-0.127539	0.010588
N211	N	-0.316897	-1.276094	-0.785879
N212	N	0.183103	-0.776094	-0.285879
H213	H	-0.327296	-1.312121	-0.828890
H214	H	0.172704	-0.812121	-0.328890
H215	H	-0.273377	-1.296725	-0.756909
H216	H	0.226623	-0.796725	-0.256909
N217	N	-0.784990	-1.032385	-0.255934
N218	N	-0.284990	-0.532385	0.244066
H219	H	-0.751986	-1.010738	-0.296023
H220	H	-0.251986	-0.510738	0.203977
H221	H	-0.828123	-0.995813	-0.247914
H222	H	-0.328123	-0.495813	0.252086
N223	N	-0.455316	-0.423097	-0.455118
N224	N	0.044684	0.076903	0.044882
H225	H	-0.448124	-0.364944	-0.447954
H226	H	0.051876	0.135056	0.052046
H227	H	-0.443857	-0.437458	-0.508028
H228	H	0.056143	0.062542	-0.008028
H229	H	-0.312908	-1.256859	-0.920485
H230	H	0.187092	-0.756859	-0.420485
N231	N	-0.258144	-0.846349	-0.258538
N232	N	0.241856	-0.346349	0.241462
H233	H	-0.269580	-0.832056	-0.205605
H234	H	0.230420	-0.332056	0.294395
H235	H	-0.265354	-0.904487	-0.265769
H236	H	0.234646	-0.404487	0.234231
H237	H	-0.919001	-1.050845	-0.262186
H238	H	-0.419001	-0.550845	0.237814
H239	H	-0.919762	-1.087774	-0.472277
H240	H	-0.419762	-0.587774	0.027723
H241	H	-0.241614	-1.181539	-0.921023
H242	H	0.258386	-0.681539	-0.421023
H243	H	-0.241281	-1.181452	-0.793796
H244	H	0.258719	-0.681452	-0.293796
H245	H	-0.451458	-1.217633	-0.794658
H246	H	0.048542	-0.717633	-0.294658
