data_functionalizedCrystal
_audit_creation_method	'MofGen! by Chris Wilmer'
_symmetry_space_group_name_H-M	'P1'
_symmetry_Int_Tables_number	1
_symmetry_cell_setting	triclinic
loop_
_symmetry_equiv_pos_as_xyz
  x,y,z
_cell_length_a	13.032721
_cell_length_b	12.759401
_cell_length_c	13.032268
_cell_angle_alpha	82.836092
_cell_angle_beta	103.289627
_cell_angle_gamma	82.794169
loop_
_atom_site_label
_atom_site_type_symbol
_atom_site_fract_x
_atom_site_fract_y
_atom_site_fract_z
Zn1	Zn	-0.499040	-1.458905	-0.654168
Zn2	Zn	-0.654124	-1.458791	-0.499116
Zn3	Zn	-0.476539	-1.308770	-0.476591
Zn4	Zn	-0.676604	-1.257631	-0.676662
O5	O	-0.576577	-1.371024	-0.576634
O6	O	-0.519621	-1.605908	-0.633612
O7	O	-0.611743	-1.460244	-0.347507
O8	O	-0.330893	-1.350136	-0.481306
O9	O	-0.633561	-1.605824	-0.519696
O10	O	-0.347424	-1.460440	-0.611771
O11	O	-0.481272	-1.350025	-0.330959
O12	O	-0.503069	-1.154968	-0.503118
O13	O	-0.671874	-1.262976	-0.822299
O14	O	-0.650056	-1.117396	-0.650110
O15	O	-0.541419	-1.410852	-0.805772
O16	O	-0.805737	-1.410656	-0.541508
O17	O	-0.822253	-1.262865	-0.671951
C18	C	-0.576561	-1.098062	-0.576611
C19	C	-0.576583	-0.981280	-0.576630
C20	C	-0.852536	-1.331224	-0.611638
C21	C	-0.970598	-1.314289	-0.626648
C22	C	-0.611664	-1.331223	-0.853649
C23	C	-0.626616	-1.314261	-0.971696
C24	C	-1.015033	-1.379912	-0.568848
C25	C	-1.137055	-1.362410	-0.584360
C26	C	-0.299542	-1.411005	-0.541517
C27	C	-0.181487	-1.428042	-0.526552
C28	C	-0.576593	-1.645052	-0.576658
C29	C	-0.576600	-1.761827	-0.576668
C30	C	-0.653209	-0.906882	-0.653075
C31	C	-0.653216	-0.797155	-0.653096
C32	C	-0.499967	-0.836234	-0.500219
C33	C	-0.499956	-0.945959	-0.500203
C34	C	-0.568735	-1.379866	-1.016148
C35	C	-0.584187	-1.362337	-1.138155
C36	C	-0.541550	-1.410743	-0.300688
C37	C	-0.526299	-1.427950	-0.182603
H38	H	-0.962742	-1.449056	-0.507882
H39	H	-1.129198	-1.497191	-0.465583
H40	H	-1.022892	-1.245152	-0.687621
N41	N	-0.664993	-1.270747	-1.207379
H42	H	-0.701498	-1.229375	-1.160952
H43	H	-0.627544	-1.221801	-1.247914
H44	H	-0.715601	-0.935636	-0.715309
H45	H	-1.189346	-1.293269	-0.645338
H46	H	-0.715611	-0.736583	-0.715347
N47	N	-0.445506	-1.519552	-1.113384
H48	H	-0.409004	-1.560924	-1.159813
H49	H	-0.390560	-1.490449	-1.061129
N50	N	-0.417347	-0.798136	-0.417766
H51	H	-0.428989	-0.717336	-0.429365
H52	H	-0.424175	-0.825847	-0.343981
H53	H	-0.437552	-1.006538	-0.437952
N54	N	-0.487963	-1.471477	-0.946928
H55	H	-0.488386	-1.471024	-0.869583
H56	H	-0.506963	-1.541349	-0.968380
H57	H	-0.687602	-1.245113	-1.023963
