data_functionalizedCrystal
_audit_creation_method	'MofGen! by Chris Wilmer'
_symmetry_space_group_name_H-M	'P1'
_symmetry_Int_Tables_number	1
_symmetry_cell_setting	triclinic
loop_
_symmetry_equiv_pos_as_xyz
  x,y,z
_cell_length_a	15.944551
_cell_length_b	13.330367
_cell_length_c	15.944493
_cell_angle_alpha	90.001230
_cell_angle_beta	83.486891
_cell_angle_gamma	89.996937
loop_
_atom_site_label
_atom_site_type_symbol
_atom_site_fract_x
_atom_site_fract_y
_atom_site_fract_z
O1	O	1.114505	-0.083306	0.108334
O2	O	0.869953	-0.083329	0.121691
O3	O	0.998933	-0.083325	-0.007265
O4	O	0.985526	-0.083310	0.237291
O5	O	0.998914	0.083522	-0.007268
O6	O	0.869934	0.083518	0.121688
O7	O	1.114487	0.083542	0.108332
Cu8	Cu	0.992209	0.098764	0.115010
Cu9	Cu	0.992231	-0.098552	0.115013
O10	O	0.985507	0.083538	0.237288
C11	C	0.838650	0.000091	0.121135
C12	C	0.745404	0.000082	0.119473
N13	N	0.992199	0.237546	0.115007
N14	N	0.992247	-0.237333	0.115009
C15	C	0.530565	0.000096	0.035566
C16	C	0.469546	-0.082166	0.074531
C17	C	0.574679	0.000093	0.116465
C18	C	0.469550	0.082332	0.074547
C19	C	0.409767	0.000109	0.113555
C20	C	0.514888	-0.082236	0.155452
C21	C	0.514898	0.082336	0.155457
C22	C	0.453897	0.000054	0.194481
C23	C	0.669681	0.000084	0.118140
C24	C	0.314766	0.000112	0.111886
C25	C	1.145790	0.000119	0.108888
C26	C	1.239036	0.000122	0.110550
C27	C	0.998375	0.000094	-0.038562
C28	C	0.996733	0.000081	-0.131810
C29	C	0.935116	0.710167	0.172092
C30	C	1.049368	0.710138	0.057927
C31	C	1.049359	0.605120	0.057924
C32	C	0.992228	0.552620	0.115008
C33	C	0.935107	0.605139	0.172093
C34	C	1.106485	0.552594	0.000845
C35	C	1.106478	0.447569	0.000841
C36	C	1.049343	0.395067	0.057921
C37	C	0.992218	0.447592	0.115008
C38	C	0.935088	0.395092	0.172092
C39	C	0.877959	0.447616	0.229176
C40	C	0.877971	0.552637	0.229173
C41	C	1.049330	0.290046	0.057923
C42	C	0.935078	0.290064	0.172092
C43	C	1.072653	0.000108	-0.367570
C44	C	1.031721	-0.082160	-0.418137
C45	C	0.993688	0.000093	-0.302531
C46	C	1.031684	0.082338	-0.418116
C47	C	0.990754	0.000109	-0.467441
C48	C	0.952778	-0.082242	-0.351870
C49	C	0.952753	0.082330	-0.351845
C50	C	0.911763	0.000042	-0.402379
C51	C	0.995381	0.000083	-0.207531
C52	C	0.989055	0.000112	-0.562438
C53	C	0.986064	0.000116	0.268584
C54	C	0.987707	0.000122	0.361833
H55	H	0.449451	-0.151717	0.040315
N56	N	0.821612	-0.000043	-0.422910
H57	H	0.791907	-0.062218	-0.398583
H58	H	0.821083	0.000578	-0.486188
N59	N	1.075898	-0.174276	-0.456491
H60	H	1.046700	-0.236414	-0.431454
H61	H	1.136632	-0.174120	-0.444118
N62	N	0.541354	-0.174462	0.200744
H63	H	0.604599	-0.173914	0.201563
H64	H	0.524421	-0.236471	0.170393
N65	N	0.908603	0.174450	-0.313481
H66	H	0.938492	0.236564	-0.337697
H67	H	0.909590	0.173317	-0.250265
N68	N	0.442937	0.174451	0.029209
H69	H	0.471116	0.174370	-0.030809
H70	H	0.460240	0.236536	0.059221
H71	H	0.919457	-0.151868	-0.323049
N72	N	1.110977	0.766770	-0.003638
H73	H	1.101310	0.748497	-0.063261
H74	H	1.170561	0.748465	0.006141
H75	H	1.140671	0.000031	-0.351942
H76	H	1.095847	0.247286	0.011450
N77	N	0.873449	0.233450	0.233660
H78	H	0.883108	0.251730	0.293284
H79	H	0.882138	0.158966	0.224930
N80	N	1.075852	0.174470	-0.456437
H81	H	1.124792	0.153490	-0.498603
H82	H	1.097461	0.215916	-0.410405
N83	N	0.574697	-0.000000	-0.053383
H84	H	0.558327	-0.062201	-0.083833
H85	H	0.637806	0.000675	-0.051575
N86	N	0.816339	0.390993	0.290746
H87	H	0.848427	0.347417	0.327959
H88	H	0.779173	0.347479	0.258560
N89	N	0.409947	0.000006	0.283502
H90	H	0.426418	-0.062157	0.313941
H91	H	0.346819	0.000634	0.281827
N92	N	0.541519	0.174463	0.200767
H93	H	0.525209	0.236573	0.170159
H94	H	0.604698	0.173358	0.202040
H95	H	0.831460	0.595408	0.275650
H96	H	0.888600	0.752934	0.218567
N97	N	1.168108	0.609214	-0.060713
H98	H	1.159441	0.683715	-0.052052
H99	H	1.158422	0.590858	-0.120311
N100	N	1.168090	0.390923	-0.060725
H101	H	1.204283	0.440118	-0.096886
H102	H	1.135937	0.347358	-0.097882
