data_functionalizedCrystal
_audit_creation_method	'MofGen! by Chris Wilmer'
_symmetry_space_group_name_H-M	'P1'
_symmetry_Int_Tables_number	1
_symmetry_cell_setting	triclinic
loop_
_symmetry_equiv_pos_as_xyz
  x,y,z
_cell_length_a	17.917603
_cell_length_b	14.628931
_cell_length_c	14.628931
_cell_angle_alpha	59.999972
_cell_angle_beta	90.000302
_cell_angle_gamma	57.011537
loop_
_atom_site_label
_atom_site_type_symbol
_atom_site_fract_x
_atom_site_fract_y
_atom_site_fract_z
Zr1	Zr	0.754907	0.916420	-0.077880
O2	O	0.629783	1.121075	-0.230816
O3	O	0.793264	0.721439	-0.030997
O4	O	0.793264	0.912144	-0.221703
O5	O	0.629783	0.930369	0.110322
O6	O	0.922222	0.897768	-0.214514
O7	O	0.629783	0.930369	-0.040110
O8	O	0.922222	0.556630	0.126624
O9	O	0.629783	1.271507	-0.230816
O10	O	0.905863	0.787326	-0.005637
O11	O	0.809624	0.798055	0.101264
O12	O	0.809624	1.022586	-0.123268
O13	O	0.713384	1.033315	-0.016367
Zr14	Zr	0.960580	0.893492	0.173507
Zr15	Zr	0.960579	0.893492	-0.066415
Zr16	Zr	0.754908	0.916420	0.162042
Zr17	Zr	0.754908	1.156342	-0.077880
Zr18	Zr	0.960579	0.653570	0.173507
O19	O	0.922222	1.088473	0.126623
O20	O	0.922222	1.088473	-0.214514
O21	O	0.629784	1.121075	0.110321
O22	O	1.085704	0.688837	0.326443
O23	O	1.085703	0.688837	-0.014695
O24	O	0.793265	0.721438	0.310141
O25	O	1.085704	0.879543	-0.014695
O26	O	0.922222	0.897768	0.317329
O27	O	0.793265	0.912144	0.310141
O28	O	1.085704	0.879543	0.135737
O29	O	0.793265	1.253282	-0.221703
O30	O	0.922222	0.556630	0.317330
O31	O	1.085704	0.538405	0.326443
O32	O	1.085703	0.538405	0.135737
O33	O	0.629783	1.271507	-0.040111
O34	O	0.793265	1.253282	-0.030997
O35	O	0.905863	0.787326	0.218894
O36	O	1.002102	0.776597	0.111994
O37	O	0.905863	1.011857	-0.005637
O38	O	0.809624	1.022586	0.101264
C39	C	0.857743	0.604851	0.047814
C40	C	0.857743	0.502998	0.047814
C41	C	0.905484	0.452266	-0.005216
C42	C	0.905485	0.346996	-0.005217
C43	C	0.600479	0.933636	0.033472
C44	C	0.513166	0.943370	0.028605
C45	C	0.353322	0.961150	0.019716
C46	C	0.362158	0.848768	0.075908
C47	C	0.273215	0.858661	0.070962
C48	C	0.442271	0.951260	0.024661
C49	C	1.115007	0.876276	0.062154
C50	C	1.202321	0.866542	0.067022
C51	C	0.857743	0.904956	-0.252292
C52	C	0.857743	0.904956	-0.354145
C53	C	0.857744	1.205061	0.047813
C54	C	0.857744	1.306914	0.047813
C55	C	0.925259	0.897429	-0.395790
C56	C	0.925260	0.897429	-0.501061
C57	C	0.857744	0.904956	0.347919
C58	C	0.857744	0.904956	0.449772
C59	C	1.115007	0.576171	0.062155
C60	C	1.202320	0.464584	0.067022
C61	C	0.857744	0.604851	0.347919
C62	C	0.857744	0.502998	0.449772
C63	C	1.115008	0.576171	0.362260
C64	C	1.202321	0.464584	0.468981
C65	C	0.600479	1.233741	-0.266634
C66	C	0.513166	1.345328	-0.373354
C67	C	0.600480	1.233741	0.033472
C68	C	0.513167	1.345328	0.028604
C69	C	0.857743	1.205061	-0.252292
C70	C	0.857743	1.306914	-0.354145
C71	C	1.193087	0.417782	0.007896
C72	C	1.275119	0.312948	0.012447
C73	C	1.366383	0.254912	0.076131
C74	C	1.375614	0.301724	0.135258
C75	C	1.293583	0.406562	0.130701
C76	C	1.293568	0.406580	0.463297
C77	C	1.375616	0.301745	0.563563
C78	C	1.366414	0.254909	0.669512
C79	C	1.275157	0.312923	0.675193
C80	C	1.193111	0.417763	0.574928
C81	C	0.421918	1.403343	-0.367670
C82	C	0.339871	1.508208	-0.467937
C83	C	0.349072	1.555049	-0.573885
C84	C	0.440330	1.497029	-0.579566
C85	C	0.522375	1.392173	-0.479301
C86	C	0.522400	1.392140	0.087721
C87	C	0.440368	1.497000	0.083144
C88	C	0.349104	1.555040	0.019456
C89	C	0.339873	1.508223	-0.039667
C90	C	0.421904	1.403372	-0.035096
C91	C	0.905485	0.452266	0.553534
C92	C	0.905486	0.346996	0.658806
H93	H	0.816864	0.350522	0.093210
O94	O	0.411973	1.352839	-0.253408
H95	H	0.484348	1.270168	-0.184629
O96	O	1.474024	0.239231	0.557388
H97	H	1.513787	0.253213	0.600364
H98	H	0.265573	1.555432	-0.463289
H99	H	1.433229	0.169541	0.751146
H100	H	0.265555	1.555495	-0.091520
O101	O	0.450246	1.547559	-0.693845
H102	H	0.490076	1.462791	-0.701368
H103	H	1.267584	0.274848	-0.035703
H104	H	0.946354	0.303395	-0.050624
O105	O	0.803596	0.457315	0.435312
H106	H	0.832612	0.410441	0.390486
O107	O	0.450336	1.547461	0.146936
H108	H	0.490195	1.586586	0.115314
H109	H	0.282258	1.640431	-0.655519
O110	O	1.265237	0.262384	0.789469
H111	H	1.337624	0.179724	0.858225
H112	H	0.282317	1.640415	0.015744
O113	O	1.094693	0.480295	0.581063
H114	H	1.102089	0.430090	0.671584
O115	O	1.474052	0.239123	0.203943
H116	H	1.482403	0.194587	0.294480
O117	O	0.460653	0.711473	0.144540
H118	H	0.516062	0.725149	0.137690
H119	H	0.596671	1.344937	-0.483942
O120	O	0.620830	1.329569	0.156397
H121	H	0.613453	1.379768	0.196712
O122	O	0.411932	1.352887	-0.098858
H123	H	0.484299	1.270232	-0.084996
H124	H	0.799935	0.911408	-0.514410
H125	H	0.946353	0.486773	0.564432
O126	O	1.303552	0.457019	0.194492
H127	H	1.268583	0.442540	0.257317
H128	H	0.816873	0.468493	0.093217
O129	O	0.781154	0.913529	-0.410153
H130	H	0.784615	0.825515	-0.347839
H131	H	0.816875	0.350509	0.556852
O132	O	1.094657	0.480380	-0.060807
H133	H	1.102034	0.430223	-0.101164
O134	O	0.959631	0.289246	0.776702
H135	H	0.951130	0.215633	0.840885
O136	O	0.254831	1.098435	-0.048947
H137	H	0.199427	1.084749	-0.042116
O138	O	1.001824	0.888909	-0.548523
H139	H	1.051274	0.883410	-0.496495
O140	O	0.959621	0.497964	-0.065369
H141	H	0.951115	0.573488	-0.055940
H142	H	1.433170	0.169546	0.079833
O143	O	1.001845	0.888843	-0.339759
H144	H	0.967653	0.980278	-0.341861
O145	O	1.303505	0.457100	0.349030
H146	H	1.380745	0.399155	0.361941
