data_functionalizedCrystal
_audit_creation_method	'MofGen! by Chris Wilmer'
_symmetry_space_group_name_H-M	'P1'
_symmetry_Int_Tables_number	1
_symmetry_cell_setting	triclinic
loop_
_symmetry_equiv_pos_as_xyz
  x,y,z
_cell_length_a	27.780882
_cell_length_b	27.780884
_cell_length_c	27.781022
_cell_angle_alpha	59.997968
_cell_angle_beta	90.002223
_cell_angle_gamma	119.999789
loop_
_atom_site_label
_atom_site_type_symbol
_atom_site_fract_x
_atom_site_fract_y
_atom_site_fract_z
O1	O	0.410271	-0.344534	0.014321
O2	O	0.340273	-0.245964	-0.014251
O3	O	0.340272	-0.344531	0.084318
O4	O	0.410272	-0.245968	-0.084247
O5	O	0.260212	-0.424590	0.084317
O6	O	0.260213	-0.326023	-0.014251
O7	O	0.330211	-0.424593	0.014321
Cu8	Cu	0.287902	-0.382618	0.000035
Cu9	Cu	0.382582	-0.287939	0.000035
O10	O	0.330212	-0.326027	-0.084247
C11	C	0.207595	-0.090568	-0.029862
C12	C	0.237299	-0.031162	-0.025772
C13	C	0.149664	-0.119397	-0.030267
C14	C	0.207597	-0.177731	-0.029867
C15	C	0.237302	-0.211520	-0.025783
C16	C	0.149665	-0.206428	-0.030272
C17	C	0.120429	-0.177734	-0.029862
C18	C	0.056934	-0.211527	-0.025772
C19	C	0.236699	-0.119394	-0.030273
C20	C	0.005635	-0.238829	-0.022466
C21	C	0.261295	0.016830	-0.022467
C22	C	0.261300	-0.238819	-0.022482
C23	C	-0.058720	-0.273080	-0.018320
C24	C	0.291401	0.077041	-0.018321
C25	C	0.291408	-0.273067	-0.018342
O26	O	-0.249046	-0.424605	0.014339
O27	O	-0.080481	-0.326036	-0.014229
O28	O	-0.179040	-0.424606	0.084338
O29	O	-0.150487	-0.326035	-0.084227
O30	O	-0.179042	-0.344550	0.084342
O31	O	-0.080483	-0.245980	-0.014225
O32	O	-0.249048	-0.344549	0.014344
Cu33	Cu	-0.164766	-0.287954	0.000060
Cu34	Cu	-0.164764	-0.382630	0.000055
O35	O	-0.150489	-0.245979	-0.084223
C36	C	0.550051	-0.090560	-0.372320
C37	C	0.613546	-0.031154	-0.402022
C38	C	0.520816	-0.119388	-0.314390
C39	C	0.462887	-0.177724	-0.372323
C40	C	0.433184	-0.211515	-0.402027
C41	C	0.433783	-0.206421	-0.314393
C42	C	0.462885	-0.177726	-0.285156
C43	C	0.433181	-0.211518	-0.221662
C44	C	0.520817	-0.119387	-0.401424
C45	C	0.409183	-0.238819	-0.170364
C46	C	0.664843	0.016840	-0.426017
C47	C	0.409187	-0.238815	-0.426025
C48	C	0.379077	-0.273069	-0.106009
C49	C	0.729198	0.077050	-0.456121
C50	C	0.379083	-0.273063	-0.456132
C51	C	0.550045	-0.492842	0.029964
C52	C	0.613539	-0.459052	0.025878
C53	C	0.520809	-0.551181	0.030373
C54	C	0.462880	-0.492839	0.029959
C55	C	0.433177	-0.459046	0.025868
C56	C	0.433777	-0.551178	0.030368
C57	C	0.462879	-0.580008	0.029964
C58	C	0.433175	-0.639417	0.025877
C59	C	0.520810	-0.464145	0.030368
C60	C	0.409178	-0.687411	0.022575
C61	C	0.664836	-0.431752	0.022576
C62	C	0.409181	-0.431744	0.022562
C63	C	0.379072	-0.747624	0.018432
C64	C	0.729191	-0.397504	0.018434
C65	C	0.379076	-0.397492	0.018415
O66	O	0.330207	0.234705	0.014343
O67	O	0.260205	0.094708	-0.014225
O68	O	0.260211	0.094702	0.084341
O69	O	0.330201	0.234711	-0.084224
O70	O	0.340272	0.094705	0.084336
O71	O	0.340266	0.094711	-0.014231
O72	O	0.410268	0.234708	0.014337
Cu73	Cu	0.382577	0.164709	0.000053
Cu74	Cu	0.287895	0.164706	0.000059
O75	O	0.410262	0.234714	-0.084229
O76	O	0.340282	-0.344521	-0.575000
O77	O	0.410278	-0.245960	-0.504995
O78	O	0.410279	-0.344526	-0.504993
O79	O	0.340281	-0.245955	-0.575002
O80	O	0.330218	-0.424586	-0.424936
O81	O	0.330218	-0.326021	-0.424938
O82	O	0.260221	-0.424581	-0.494943
Cu83	Cu	0.287909	-0.382611	-0.452631
Cu84	Cu	0.382590	-0.287930	-0.547307
O85	O	0.260221	-0.326015	-0.494945
O86	O	0.919524	0.234718	-0.494922
O87	O	0.750960	0.094719	-0.424925
O88	O	0.849522	0.094715	-0.424919
O89	O	0.820962	0.234722	-0.494927
O90	O	0.849522	0.094715	-0.504979
O91	O	0.750960	0.094719	-0.504985
O92	O	0.919524	0.234718	-0.574981
Cu93	Cu	0.835242	0.164719	-0.547293
Cu94	Cu	0.835242	0.164719	-0.452613
O95	O	0.820962	0.234722	-0.574987
C96	C	0.120441	-0.579990	0.372392
C97	C	0.056946	-0.639396	0.402096
C98	C	0.149677	-0.551161	0.401494
C99	C	0.207605	-0.492825	0.285226
C100	C	0.237307	-0.459035	0.221732
C101	C	0.236709	-0.464129	0.314461
C102	C	0.207607	-0.492823	0.372391
C103	C	0.237312	-0.459031	0.402094
C104	C	0.149675	-0.551163	0.314462
C105	C	0.261310	-0.431729	0.426090
C106	C	0.005649	-0.687390	0.426093
C107	C	0.261303	-0.431736	0.170434
C108	C	0.291416	-0.397479	0.456195
C109	C	-0.058706	-0.747600	0.456198
C110	C	0.291408	-0.397487	0.106080
C111	C	-0.194652	-0.492857	0.372418
C112	C	-0.190564	-0.459068	0.402123
C113	C	-0.195057	-0.551194	0.401519
C114	C	-0.194657	-0.492853	0.285250
C115	C	-0.190573	-0.459060	0.221755
C116	C	-0.195061	-0.551191	0.314483
C117	C	-0.194650	-0.580020	0.372414
C118	C	-0.190559	-0.639426	0.402115
C119	C	-0.195063	-0.464160	0.314487
C120	C	-0.187253	-0.687420	0.426110
C121	C	-0.187259	-0.431768	0.426122
C122	C	-0.187272	-0.431758	0.170457
C123	C	-0.183106	-0.747631	0.456214
C124	C	-0.183115	-0.397521	0.456229
C125	C	-0.183133	-0.397506	0.106102
C126	C	-0.134879	-0.090567	-0.372300
C127	C	-0.138970	-0.031160	-0.402001
C128	C	-0.134473	-0.119393	-0.401404
C129	C	-0.134873	-0.177733	-0.285135
C130	C	-0.138957	-0.211526	-0.221640
C131	C	-0.134466	-0.206427	-0.314372
C132	C	-0.134877	-0.177731	-0.372302
C133	C	-0.138966	-0.211520	-0.402007
C134	C	-0.134468	-0.119396	-0.314369
C135	C	-0.142270	-0.238820	-0.426005
C136	C	-0.142276	0.016833	-0.425997
C137	C	-0.142257	-0.238828	-0.170343
C138	C	-0.146415	-0.273067	-0.456113
C139	C	-0.146423	0.077044	-0.456101
C140	C	-0.146397	-0.273079	-0.105987
C141	C	0.207607	-0.177778	0.372403
C142	C	0.237313	-0.211570	0.402102
C143	C	0.149676	-0.206478	0.401507
C144	C	0.207604	-0.090603	0.285243
C145	C	0.237306	-0.031188	0.221750
C146	C	0.149673	-0.119436	0.314480
C147	C	0.120439	-0.177781	0.372408
C148	C	0.056944	-0.211577	0.402113
C149	C	0.236709	-0.119433	0.314474
C150	C	0.005646	-0.238882	0.426111
C151	C	0.261311	-0.238872	0.426095
C152	C	0.261302	0.016812	0.170454
C153	C	-0.058709	-0.273136	0.456218
C154	C	0.291419	-0.273123	0.456196
C155	C	0.291407	0.077031	0.106101
O156	O	-0.150433	-0.326053	0.575089
O157	O	-0.179016	-0.424623	0.505092
O158	O	-0.080445	-0.326054	0.505080
O159	O	-0.249004	-0.424622	0.575102
O160	O	-0.080456	-0.245997	0.425024
O161	O	-0.179027	-0.344566	0.425037
O162	O	-0.150444	-0.245995	0.495033
Cu163	Cu	-0.164737	-0.287971	0.452725
Cu164	Cu	-0.164723	-0.382648	0.547400
O165	O	-0.249015	-0.344564	0.495046
C166	C	0.550033	0.507196	-0.372297
C167	C	0.613528	0.540992	-0.402001
C168	C	0.520797	0.535894	-0.401395
C169	C	0.462868	0.420019	-0.285131
C170	C	0.433166	0.360604	-0.221638
C171	C	0.433764	0.448849	-0.314362
C172	C	0.462866	0.507194	-0.372291
C173	C	0.433160	0.540987	-0.401990
C174	C	0.520799	0.448852	-0.314368
C175	C	0.409162	0.568289	-0.425983
C176	C	0.664826	0.568297	-0.425999
C177	C	0.409170	0.312604	-0.170342
C178	C	0.379055	0.602540	-0.456084
C179	C	0.729181	0.602550	-0.456106
C180	C	0.379066	0.252385	-0.105989
H181	H	0.126195	-0.095267	-0.030924
H182	H	0.544286	-0.417198	0.031019
Cl183	Cl	0.557029	0.608373	-0.474883
Cl184	Cl	0.360298	-0.278900	-0.278153
Cl185	Cl	0.557049	-0.082137	-0.278152
H186	H	0.126204	-0.575290	0.449093
Cl187	Cl	0.310181	-0.391622	0.278208
H188	H	0.284306	-0.095306	0.291003
Cl189	Cl	0.113439	-0.588417	0.278226
Cl190	Cl	-0.196071	-0.588437	0.278243
Cl191	Cl	0.557040	0.411602	-0.278132
Cl192	Cl	0.360271	0.411584	-0.278130
Cl193	Cl	-0.133463	-0.082155	-0.278126
H194	H	0.284299	-0.095262	-0.030932
Cl195	Cl	0.113423	-0.278909	-0.031276
Cl196	Cl	0.113430	-0.082190	0.278246
Cl197	Cl	0.557056	-0.082141	-0.474909
H198	H	-0.195719	-0.417216	0.291019
H199	H	0.126210	-0.253423	0.449106
H200	H	0.544283	-0.575307	0.031030
H201	H	-0.195701	-0.575315	0.449114
H202	H	-0.133809	-0.253370	-0.290899
Cl203	Cl	0.360291	-0.588426	0.031376
H204	H	-0.133819	-0.095262	-0.449003
