data_functionalizedCrystal
_audit_creation_method	'MofGen! by Chris Wilmer'
_symmetry_space_group_name_H-M	'P1'
_symmetry_Int_Tables_number	1
_symmetry_cell_setting	triclinic
loop_
_symmetry_equiv_pos_as_xyz
  x,y,z
_cell_length_a	15.944545
_cell_length_b	15.995350
_cell_length_c	15.072220
_cell_angle_alpha	89.998899
_cell_angle_beta	89.990287
_cell_angle_gamma	96.505727
loop_
_atom_site_label
_atom_site_type_symbol
_atom_site_fract_x
_atom_site_fract_y
_atom_site_fract_z
O1	O	1.114532	-0.107958	-0.073721
O2	O	0.869981	-0.121277	-0.073734
O3	O	0.998941	0.007270	-0.073726
O4	O	0.985571	-0.236505	-0.073729
O5	O	0.998909	0.007262	0.073839
O6	O	0.869949	-0.121285	0.073831
O7	O	1.114500	-0.107965	0.073844
Zn8	Zn	0.992219	-0.114626	0.097267
Zn9	Zn	0.992261	-0.114617	-0.097157
O10	O	0.985539	-0.236512	0.073836
C11	C	0.838671	-0.120729	0.000046
C12	C	0.745424	-0.119074	0.000041
C13	C	0.474796	-0.034450	0.000051
C14	C	0.525360	-0.075252	0.072810
C15	C	0.409781	-0.113172	0.000056
C16	C	0.525372	-0.075266	-0.072677
C17	C	0.574694	-0.116068	0.000047
C18	C	0.459116	-0.153954	0.072875
C19	C	0.459125	-0.153956	-0.072678
C20	C	0.509656	-0.194817	0.000099
C21	C	0.314779	-0.111502	0.000062
C22	C	0.669694	-0.117744	0.000048
C23	C	0.998372	0.038461	0.000054
C24	C	0.996715	0.131411	0.000049
C25	C	1.145810	-0.108514	0.000062
C26	C	1.239056	-0.110169	0.000061
C27	C	0.986108	-0.267704	0.000054
C28	C	0.987765	-0.360654	0.000053
N29	N	0.992197	-0.114632	0.229956
C30	C	0.990764	0.469159	0.000052
C31	C	0.898921	0.421728	-0.000284
C32	C	0.900578	0.325038	0.000049
C33	C	0.993716	0.301598	0.000050
C34	C	1.038998	0.342670	0.084318
C35	C	1.036691	0.439306	0.084389
C36	C	1.038625	0.439672	-0.083421
C37	C	1.038603	0.342727	-0.084534
C38	C	0.995389	0.206901	0.000052
C39	C	0.989094	0.563857	0.000056
N40	N	0.992290	-0.114604	-0.229845
C41	C	0.992260	-0.114613	0.589157
C42	C	0.923024	-0.183166	0.551546
C43	C	0.923182	-0.183416	0.448720
C44	C	0.992228	-0.114623	0.410953
C45	C	1.079871	-0.133707	0.448249
C46	C	1.079483	-0.134194	0.551107
C47	C	0.974634	-0.026773	0.551257
C48	C	0.972623	-0.027359	0.448393
C49	C	0.992215	-0.114626	0.310240
C50	C	0.992278	-0.114612	0.689870
H51	H	0.864982	0.296620	-0.060358
C52	C	0.998084	0.467420	-0.169706
H53	H	1.027909	0.449001	-0.219266
H54	H	0.940867	0.443359	-0.172298
H55	H	1.000473	0.527026	-0.170789
C56	C	0.420188	-0.198835	0.156065
H57	H	0.463592	-0.218637	0.190764
H58	H	0.392037	-0.160508	0.190076
H59	H	0.380926	-0.245062	0.138674
C60	C	0.453664	0.057138	0.000129
H61	H	0.422174	0.066956	-0.051596
H62	H	0.421288	0.066592	0.051327
H63	H	0.504504	0.094373	0.000688
H64	H	0.554305	-0.042003	-0.134186
H65	H	1.025125	0.024241	0.575578
H66	H	0.862225	0.440264	-0.060714
C67	C	1.101355	-0.219263	0.413448
H68	H	1.057034	-0.243462	0.376200
H69	H	1.152477	-0.211374	0.380575
H70	H	1.107791	-0.255745	0.462106
C71	C	1.127774	0.482875	0.089579
H72	H	1.126983	0.542175	0.089655
H73	H	1.153638	0.466273	0.142526
H74	H	1.158891	0.467064	0.039749
C75	C	0.530589	-0.286470	0.000154
H76	H	0.507682	-0.314303	0.051884
H77	H	0.506905	-0.314625	-0.051040
H78	H	0.590103	-0.287022	-0.000328
C79	C	0.420028	-0.198824	-0.155776
H80	H	0.442826	-0.170759	-0.207424
H81	H	0.432565	-0.255481	-0.156299
H82	H	0.360565	-0.197892	-0.154882
H83	H	0.912113	-0.008423	0.577244
H84	H	0.862362	0.441320	0.059805
H85	H	0.864717	0.297171	0.060554
C86	C	0.564440	-0.030344	0.155901
H87	H	0.552778	0.026599	0.155813
H88	H	0.540874	-0.057748	0.207570
H89	H	0.623787	-0.032163	0.155567
C90	C	0.992040	0.464035	0.169473
H91	H	0.990242	0.523195	0.170268
H92	H	0.936153	0.436237	0.170780
H93	H	1.022191	0.447938	0.219868
C94	C	1.131432	0.323582	0.088563
H95	H	1.143255	0.290311	0.038864
H96	H	1.167853	0.374867	0.087784
H97	H	1.140207	0.293772	0.141659
C98	C	1.151167	-0.069310	0.584721
H99	H	1.180402	-0.042776	0.535511
H100	H	1.128072	-0.028164	0.619750
H101	H	1.189264	-0.096970	0.619626
C102	C	0.996471	0.304342	0.169033
H103	H	0.951127	0.263320	0.153229
H104	H	1.036578	0.278600	0.203131
H105	H	0.975451	0.347466	0.202996
C106	C	0.938017	-0.270731	0.586442
H107	H	0.986289	-0.265694	0.623831
H108	H	0.890068	-0.294042	0.619186
H109	H	0.946962	-0.306475	0.537831
C110	C	0.993945	0.305852	-0.168754
H111	H	0.948138	0.265555	-0.152446
H112	H	0.973321	0.349754	-0.201842
H113	H	1.032827	0.279476	-0.203924
H114	H	1.106524	0.327363	-0.089621
H115	H	1.106340	0.471431	-0.083986
H116	H	0.934437	-0.248601	0.424106
C117	C	0.835162	-0.168114	0.414648
H118	H	0.835138	-0.168259	0.351616
H119	H	0.794375	-0.211435	0.435784
H120	H	0.821671	-0.115212	0.435517
C121	C	0.834731	-0.168070	0.585000
H122	H	0.839298	-0.119828	0.622209
H123	H	0.799532	-0.159318	0.535802
H124	H	0.810896	-0.215751	0.617649
C125	C	1.100453	-0.220736	0.583510
H126	H	1.109125	-0.255266	0.533811
H127	H	1.150238	-0.213683	0.618596
H128	H	1.054918	-0.246660	0.618098
C129	C	1.151138	-0.068060	0.415195
H130	H	1.128019	-0.028336	0.378263
H131	H	1.178448	-0.039871	0.464570
H132	H	1.190907	-0.095474	0.382340
H133	H	0.908152	-0.012876	0.424018
C134	C	1.036326	0.044787	0.413681
H135	H	1.075892	0.022533	0.375735
H136	H	1.007180	0.083659	0.381569
H137	H	1.065226	0.072667	0.462333
