data_functionalizedCrystal
_audit_creation_method	'MofGen! by Chris Wilmer'
_symmetry_space_group_name_H-M	'P1'
_symmetry_Int_Tables_number	1
_symmetry_cell_setting	triclinic
loop_
_symmetry_equiv_pos_as_xyz
  x,y,z
_cell_length_a	19.188930
_cell_length_b	9.798715
_cell_length_c	10.723023
_cell_angle_alpha	89.997861
_cell_angle_beta	83.806164
_cell_angle_gamma	89.982440
loop_
_atom_site_label
_atom_site_type_symbol
_atom_site_fract_x
_atom_site_fract_y
_atom_site_fract_z
O1	O	0.927156	-0.113927	0.155779
O2	O	0.723981	-0.113833	0.176749
O3	O	0.830256	-0.113877	-0.015410
O4	O	0.820882	-0.113884	0.347937
O5	O	0.830248	0.113105	-0.015410
O6	O	0.723973	0.113149	0.176749
O7	O	0.927148	0.113055	0.155778
Zn8	Zn	0.825559	0.149140	0.166264
Zn9	Zn	0.825570	-0.149919	0.166264
O10	O	0.820874	0.113098	0.347937
C11	C	0.697962	-0.000330	0.176070
C12	C	0.620444	-0.000294	0.174031
N13	N	0.825557	0.353240	0.166262
N14	N	0.825578	-0.354018	0.166255
C15	C	0.576253	-0.000318	0.286784
C16	C	0.503416	-0.000333	0.284869
C17	C	0.474775	-0.000352	0.170195
C18	C	0.518976	-0.000321	0.057427
C19	C	0.591811	-0.000292	0.059346
N20	N	0.366228	-0.077657	0.082541
N21	N	0.297037	-0.077687	0.080726
C22	C	0.255329	-0.000435	0.164408
N23	N	0.285423	0.076831	0.249992
N24	N	0.354619	0.076855	0.251810
C25	C	0.395799	-0.000382	0.168102
C26	C	0.132159	-0.000473	0.275091
C27	C	0.059322	-0.000480	0.273171
C28	C	0.074883	-0.000481	0.045726
C29	C	0.147719	-0.000461	0.047650
C30	C	0.176352	-0.000463	0.162335
C31	C	0.953168	-0.000451	0.156457
C32	C	1.030685	-0.000496	0.158496
C33	C	0.829570	-0.000387	-0.061895
C34	C	0.827529	-0.000390	-0.200407
C35	C	0.870179	0.420998	0.085229
C36	C	0.870190	0.578161	0.085224
C37	C	0.826623	-0.117975	-0.262154
C38	C	0.824514	-0.117982	-0.405313
C39	C	0.821560	-0.000395	0.394423
C40	C	0.823601	-0.000400	0.532935
H41	H	0.599561	-0.000323	0.380170
H42	H	0.023341	-0.000491	0.364992
H43	H	0.787376	0.587721	0.235640
N44	N	0.827574	-0.251326	-0.191783
H45	H	0.828904	-0.232419	-0.099480
H46	H	0.870420	-0.305528	-0.224746
H47	H	0.155474	-0.000455	0.368475
N48	N	0.774959	0.430508	0.258150
H49	H	0.802025	0.489772	0.313077
H50	H	0.745190	0.363612	0.312143
H51	H	0.051564	-0.000581	-0.047644
H52	H	0.823739	-0.218650	-0.458415
H53	H	0.495651	-0.000355	-0.035941
H54	H	0.627792	-0.000273	-0.032474
H55	H	0.183701	-0.000449	-0.044166
H56	H	0.908371	0.362660	0.015851
N57	N	0.455740	-0.000361	0.406484
H58	H	0.484932	-0.000358	0.479427
H59	H	0.425207	-0.084523	0.410627
N60	N	0.920802	0.655332	-0.006671
H61	H	0.913637	0.756664	0.006354
H62	H	0.912186	0.630440	-0.095109
N63	N	0.824638	0.132956	-0.396742
H64	H	0.782230	0.138420	-0.332386
H65	H	0.823765	0.211347	-0.457709
N66	N	0.826492	0.132955	-0.270765
H67	H	0.870028	0.187058	-0.258531
H68	H	0.783591	0.186997	-0.237799
