data_functionalizedCrystal
_audit_creation_method	'MofGen! by Chris Wilmer'
_symmetry_space_group_name_H-M	'P1'
_symmetry_Int_Tables_number	1
_symmetry_cell_setting	triclinic
loop_
_symmetry_equiv_pos_as_xyz
  x,y,z
_cell_length_a	14.560438
_cell_length_b	31.640172
_cell_length_c	14.560438
_cell_angle_alpha	120.001082
_cell_angle_beta	89.999999
_cell_angle_gamma	119.993305
loop_
_atom_site_label
_atom_site_type_symbol
_atom_site_fract_x
_atom_site_fract_y
_atom_site_fract_z
Zr1	Zr	0.884909	-0.462581	-0.120514
O2	O	0.738287	-0.550747	-0.267154
O3	O	0.929836	-0.374416	-0.075565
O4	O	0.929860	-0.462583	-0.267164
O5	O	0.738267	-0.462579	0.075585
O6	O	1.080999	-0.462583	-0.267166
O7	O	0.738263	-0.462581	-0.075556
O8	O	1.080956	-0.304869	0.075569
O9	O	0.738310	-0.620294	-0.267150
O10	O	1.061815	-0.410680	-0.056392
O11	O	0.949024	-0.410678	0.056405
O12	O	0.949053	-0.514483	-0.169178
O13	O	0.836262	-0.514482	-0.056381
Zr14	Zr	1.125964	-0.462580	0.120533
Zr15	Zr	1.125958	-0.462582	-0.120519
Zr16	Zr	0.884915	-0.462579	0.120538
Zr17	Zr	0.884945	-0.573500	-0.120507
Zr18	Zr	1.125927	-0.351662	0.120526
O19	O	1.081037	-0.550746	0.075584
O20	O	1.081029	-0.550748	-0.267161
O21	O	0.738296	-0.550745	0.075591
O22	O	1.272586	-0.374414	0.267174
O23	O	1.272577	-0.374416	-0.075571
O24	O	0.929844	-0.374413	0.267180
O25	O	1.272606	-0.462582	-0.075566
O26	O	1.081013	-0.462579	0.267183
O27	O	0.929874	-0.462578	0.267186
O28	O	1.272610	-0.462581	0.075575
O29	O	0.929912	-0.620294	-0.267154
O30	O	1.080960	-0.304867	0.267173
O31	O	1.272563	-0.304868	0.267169
O32	O	1.272558	-0.304869	0.075565
O33	O	0.738315	-0.620292	-0.075546
O34	O	0.929917	-0.620293	-0.075549
O35	O	1.061820	-0.410678	0.169197
O36	O	1.174611	-0.410679	0.056401
O37	O	1.061849	-0.514483	-0.056385
O38	O	0.949058	-0.514482	0.056411
C39	C	1.005390	-0.323839	0.000001
C40	C	1.005375	-0.276751	-0.000002
C41	C	1.064318	0.015286	-0.058877
C42	C	1.064336	0.192278	-0.058883
O43	O	1.114448	0.215182	-0.108918
N44	N	1.005458	0.214408	-0.000008
C45	C	0.946578	0.192289	0.058880
O46	O	0.896509	0.215177	0.108966
C47	C	0.946568	0.015300	0.058892
C48	C	1.005440	-0.006831	0.000003
C49	C	1.123187	-0.006845	-0.117760
C50	C	1.123177	-0.051093	-0.117763
C51	C	1.064299	-0.073210	-0.058883
C52	C	1.005430	-0.051079	0.000000
C53	C	0.887695	-0.006815	0.117785
C54	C	0.887700	-0.051064	0.117785
C55	C	0.946572	-0.073195	0.058897
C56	C	0.946542	-0.117444	0.058877
N57	N	1.005420	-0.139573	0.000002
C58	C	1.064298	-0.117456	-0.058878
C59	C	0.946585	0.285210	0.058867
C60	C	0.946586	0.329456	0.058863
C61	C	1.064346	0.329443	-0.058899
C62	C	1.064338	0.285193	-0.058900
C63	C	1.005463	0.263080	-0.000008
C64	C	1.064272	-0.210380	-0.058881
C65	C	1.064253	-0.254634	-0.058882
C66	C	0.946499	-0.254615	0.058884
C67	C	0.946512	-0.210368	0.058881
C68	C	1.005407	-0.188250	-0.000004
O69	O	0.896467	-0.140371	0.108896
O70	O	1.114380	-0.140343	-0.108937
C71	C	1.064328	0.059533	-0.058874
C72	C	1.005460	0.081664	0.000009
C73	C	0.946582	0.059547	0.058889
C74	C	1.005461	0.125911	0.000004
C75	C	1.064339	0.148028	-0.058876
C76	C	1.123217	0.125898	-0.117752
C77	C	1.123207	0.081650	-0.117754
C78	C	0.887704	0.081677	0.117765
C79	C	0.887718	0.125924	0.117762
C80	C	0.946596	0.148041	0.058881
C81	C	0.703920	-0.462580	0.000016
C82	C	0.601588	-0.462580	0.000018
C83	C	0.457352	-0.462581	0.083272
C84	C	0.553507	-0.462578	0.083283
C85	C	0.553517	-0.462579	-0.083257
C86	C	0.457368	-0.462577	-0.083262
C87	C	1.306953	-0.462581	0.000004
C88	C	1.409285	-0.462582	0.000002
C89	C	1.005474	0.398673	0.000009
C90	C	1.005464	0.351573	-0.000017
C91	C	1.005429	-0.462583	-0.301510
C92	C	1.005426	-0.462584	-0.403843
C93	C	0.946567	-0.516767	-0.510792
C94	C	0.946580	-0.516765	-0.606941
C95	C	1.064313	-0.408390	-0.489177
C96	C	1.064306	-0.408393	-0.393031
C97	C	1.005444	-0.462578	0.301529
C98	C	1.005447	-0.462578	0.403862
C99	C	1.306907	-0.323839	-0.000005
C100	C	1.409223	-0.276752	-0.000010
C101	C	1.005398	-0.323836	0.301520
C102	C	1.005385	-0.276748	0.403850
C103	C	1.306914	-0.323837	0.301515
C104	C	1.409233	-0.276749	0.403843
C105	C	0.703959	-0.601324	-0.301495
C106	C	0.601640	-0.648413	-0.403823
C107	C	0.703966	-0.601322	0.000024
C108	C	0.601650	-0.648409	0.000029
C109	C	1.005475	-0.601325	-0.301501
C110	C	1.005488	-0.648413	-0.403831
C111	C	1.398393	-0.254639	-0.058899
C112	C	1.494521	-0.210402	-0.058926
C113	C	1.601477	-0.188274	-0.000057
C114	C	1.612305	-0.210391	0.058834
C115	C	1.516178	-0.254631	0.058854
C116	C	1.064257	-0.254634	0.510792
C117	C	1.064241	-0.210396	0.606951
C118	C	1.005358	-0.188269	0.596166
C119	C	0.946478	-0.210387	0.489213
C120	C	0.946489	-0.254627	0.393056
C121	C	1.516169	-0.254636	0.393018
C122	C	1.612317	-0.210398	0.489157
C123	C	1.601528	-0.188270	0.596119
C124	C	1.494581	-0.210387	0.606941
C125	C	1.398435	-0.254627	0.510804
C126	C	0.494704	-0.670531	-0.392999
C127	C	0.398556	-0.714783	-0.489137
C128	C	0.409345	-0.736913	-0.596100
C129	C	0.516292	-0.714793	-0.606922
C130	C	0.612438	-0.670545	-0.510784
C131	C	0.612480	-0.670527	0.058908
C132	C	0.516352	-0.714776	0.058909
C133	C	0.409396	-0.736905	0.000036
C134	C	0.398568	-0.714786	-0.058850
C135	C	0.494695	-0.670540	-0.058856
C136	C	1.064382	-0.670527	-0.393010
C137	C	1.064417	-0.714765	-0.489150
C138	C	1.005549	-0.736893	-0.596111
C139	C	0.946653	-0.714776	-0.606930
C140	C	0.946626	-0.670535	-0.510791
H141	H	1.112277	0.267177	-0.106852
H142	H	0.898537	-0.192364	0.480448
H143	H	1.171153	0.143911	-0.165699
Cl144	Cl	0.813682	-0.078860	0.191827
Cl145	Cl	1.197208	0.020947	-0.191799
Cl146	Cl	1.197198	-0.078906	-0.191793
Cl147	Cl	1.138366	0.357257	-0.132917
H148	H	1.112192	-0.192392	0.694028
H149	H	0.592674	-0.462577	-0.151050
Cl150	Cl	0.264122	-0.742579	-0.475506
Cl151	Cl	0.813694	0.153738	0.191796
H152	H	1.112231	-0.192376	-0.106828
H153	H	1.005358	-0.152245	0.674472
Cl154	Cl	0.396939	-0.462574	-0.187948
Cl155	Cl	0.872641	-0.742606	-0.741404
Cl156	Cl	0.872477	-0.282418	0.258619
Cl157	Cl	1.480883	-0.182604	-0.132960
Cl158	Cl	0.872554	0.357264	0.132880
Cl159	Cl	1.722313	-0.132656	-0.000091
Cl160	Cl	0.872567	-0.642747	-0.524415
H161	H	0.699561	-0.652513	0.106857
Cl162	Cl	1.138456	-0.742564	-0.475523
H163	H	1.311367	-0.272626	0.519633
Cl164	Cl	1.722410	-0.132651	0.716969
H165	H	0.898558	-0.272632	0.106819
Cl166	Cl	1.746751	-0.182600	0.475526
H167	H	1.112193	-0.272653	-0.106840
H168	H	1.524975	-0.272646	0.305933
Cl169	Cl	1.746773	-0.182565	0.132841
Cl170	Cl	1.138304	-0.340271	-0.258569
H171	H	0.898623	-0.560893	-0.519602
Cl172	Cl	1.481036	-0.182561	0.741417
Cl173	Cl	1.138399	-0.642717	-0.258556
H174	H	1.005580	-0.772917	-0.674385
Cl175	Cl	1.263945	-0.282450	-0.132921
Cl176	Cl	0.481111	-0.642719	-0.258543
Cl177	Cl	0.481060	-0.642737	-0.132875
H178	H	0.331048	-0.772942	-0.674372
Cl179	Cl	0.529990	-0.742571	0.132949
H180	H	1.525012	-0.272629	0.106815
H181	H	0.898641	0.267210	0.106828
Cl182	Cl	0.746868	-0.642741	-0.524412
Cl183	Cl	0.529837	-0.742618	-0.741398
Cl184	Cl	1.138294	-0.282440	0.524381
H185	H	0.331132	-0.772933	0.000051
Cl186	Cl	0.264100	-0.742609	-0.132850
H187	H	0.592641	-0.462576	0.151090
Cl188	Cl	0.813684	0.020998	0.191827
Cl189	Cl	0.872584	-0.584884	-0.741391
H190	H	0.898559	-0.192354	0.106818
H191	H	0.839760	0.063675	0.165716
Cl192	Cl	1.197223	0.053835	-0.191789
H193	H	1.112250	-0.364270	-0.480388
Cl194	Cl	0.396912	-0.462582	0.187950
