data_functionalizedCrystal
_audit_creation_method	'MofGen! by Chris Wilmer'
_symmetry_space_group_name_H-M	'P1'
_symmetry_Int_Tables_number	1
_symmetry_cell_setting	triclinic
loop_
_symmetry_equiv_pos_as_xyz
  x,y,z
_cell_length_a	12.759401
_cell_length_b	21.295417
_cell_length_c	12.759393
_cell_angle_alpha	90.038123
_cell_angle_beta	90.019125
_cell_angle_gamma	90.029346
loop_
_atom_site_label
_atom_site_type_symbol
_atom_site_fract_x
_atom_site_fract_y
_atom_site_fract_z
Zn1	Zn	1.606146	-0.250578	0.593951
Zn2	Zn	1.605994	-0.355862	0.418251
Zn3	Zn	1.430448	-0.250610	0.418289
Zn4	Zn	1.430390	-0.355813	0.593891
O5	O	1.518245	-0.303216	0.506095
O6	O	1.753147	-0.264552	0.570654
O7	O	1.582668	-0.341934	0.271235
O8	O	1.453842	-0.162516	0.441632
O9	O	1.753035	-0.341903	0.441568
O10	O	1.582927	-0.162493	0.570690
O11	O	1.453695	-0.264606	0.271262
O12	O	1.283419	-0.264558	0.441573
O13	O	1.453744	-0.341819	0.740920
O14	O	1.283377	-0.341850	0.570587
O15	O	1.582871	-0.264504	0.740964
O16	O	1.582613	-0.443945	0.441509
O17	O	1.453597	-0.443909	0.570551
C18	C	1.245277	-0.303203	0.506078
C19	C	1.128501	-0.303212	0.506096
C20	C	0.963905	-0.262927	0.439047
C21	C	1.073629	-0.262914	0.439036
C22	C	1.073643	-0.343522	0.573177
C23	C	0.963920	-0.343532	0.573192
C24	C	0.909039	-0.222630	0.371975
C25	C	0.963889	-0.182320	0.304895
C26	C	1.073613	-0.182306	0.304885
C27	C	1.128487	-0.222604	0.371955
C28	C	1.518111	-0.466767	0.506042
C29	C	1.518150	-0.536735	0.506055
C30	C	1.585325	-0.569533	0.573303
C31	C	1.585362	-0.635275	0.573329
C32	C	1.518235	-0.668218	0.506088
C33	C	1.451046	-0.635413	0.438834
C34	C	1.451003	-0.569672	0.438818
N35	N	1.510296	-0.771487	0.414141
N36	N	1.510342	-0.833939	0.414160
C37	C	1.518357	-0.866293	0.506135
N38	N	1.526345	-0.833836	0.598093
N39	N	1.526304	-0.771379	0.598073
C40	C	1.518273	-0.739503	0.506099
C41	C	1.585577	-0.970375	0.573418
C42	C	1.585607	-1.036119	0.573445
C43	C	1.451296	-1.036255	0.438941
C44	C	1.451260	-0.970513	0.438923
C45	C	1.518407	-0.937577	0.506159
C46	C	1.792278	-0.303229	0.506113
C47	C	1.909054	-0.303235	0.506121
C48	C	1.518318	-0.303152	0.780129
C49	C	1.518350	-0.303125	0.896906
C50	C	1.518408	-0.139025	0.506172
C51	C	1.518477	-0.069057	0.506204
C52	C	1.518232	-0.303234	0.233128
C53	C	1.518404	-0.303083	0.116352
C54	C	1.585595	-0.262863	0.951792
C55	C	1.585620	-0.262840	1.061517
C56	C	1.451151	-0.343347	1.061457
C57	C	1.451122	-0.343366	0.951735
C58	C	1.652823	-0.222622	0.896963
C59	C	1.720075	-0.182357	0.951850
C60	C	1.720100	-0.182335	1.061574
C61	C	1.652873	-0.222577	1.116411
H62	H	0.919204	-0.149507	0.250295
Cl63	Cl	1.266427	-0.222583	0.371943
H64	H	0.919260	-0.376352	0.627813
Cl65	Cl	1.142566	-0.131625	0.220567
Cl66	Cl	1.366650	-0.676826	0.354308
Cl67	Cl	1.366902	-1.077663	0.354410
Cl68	Cl	1.142627	-0.394183	0.657480
H69	H	1.652813	-0.222638	0.807620
Cl70	Cl	1.366648	-0.393936	1.130396
H71	H	1.396564	-0.943808	0.384158
Cl72	Cl	1.804567	-0.131761	0.882914
Cl73	Cl	1.670052	-1.077351	0.658008
H74	H	1.774852	-0.149545	1.106260
H75	H	1.640249	-0.943558	0.628170
H76	H	1.652887	-0.222548	1.205756
H77	H	1.396348	-0.376141	0.907045
Cl78	Cl	1.669731	-0.528131	0.657837
Cl79	Cl	0.771100	-0.222645	0.371983
Cl80	Cl	1.366546	-0.528439	0.354270
H81	H	1.640056	-0.661984	0.628103
