data_functionalizedCrystal
_audit_creation_method	'MofGen! by Chris Wilmer'
_symmetry_space_group_name_H-M	'P1'
_symmetry_Int_Tables_number	1
_symmetry_cell_setting	triclinic
loop_
_symmetry_equiv_pos_as_xyz
  x,y,z
_cell_length_a	14.971486
_cell_length_b	9.065218
_cell_length_c	14.048226
_cell_angle_alpha	90.000338
_cell_angle_beta	90.003179
_cell_angle_gamma	84.315007
loop_
_atom_site_label
_atom_site_type_symbol
_atom_site_fract_x
_atom_site_fract_y
_atom_site_fract_z
O1	O	1.188383	0.192252	0.079047
O2	O	0.928154	0.215275	0.079073
O3	O	1.063647	-0.010988	0.079057
O4	O	1.052890	0.418515	0.079062
O5	O	1.063625	-0.010982	-0.079264
O6	O	0.928132	0.215281	-0.079249
O7	O	1.188361	0.192257	-0.079274
Zn8	Zn	1.058243	0.203770	-0.104398
Zn9	Zn	1.058272	0.203763	0.104197
O10	O	1.052867	0.418521	-0.079259
C11	C	0.894811	0.214249	-0.000085
C12	C	0.795491	0.211163	-0.000075
C13	C	1.062602	-0.065951	-0.000102
C14	C	1.059511	-0.229731	-0.000097
C15	C	0.739256	0.344086	-0.000075
C16	C	0.645935	0.341178	-0.000089
C17	C	0.608850	0.205345	-0.000097
C18	C	0.665092	0.072412	-0.000100
C19	C	0.758411	0.075321	-0.000092
C20	C	0.470584	0.066357	-0.000113
C21	C	0.377259	0.063446	-0.000118
C22	C	0.358108	0.332214	-0.000110
C23	C	0.451427	0.335123	-0.000102
C24	C	0.507663	0.202189	-0.000103
C25	C	1.221704	0.193284	-0.000115
C26	C	1.321024	0.196370	-0.000118
C27	C	1.053912	0.473483	-0.000098
C28	C	1.057004	0.637264	-0.000097
N29	N	1.058229	0.203774	-0.246759
C30	C	1.118297	0.103598	-0.703605
C31	C	1.118289	0.103609	-0.603948
C32	C	1.058271	0.203761	-0.554129
C33	C	0.998263	0.303920	-0.603973
C34	C	0.998276	0.303916	-0.703629
C35	C	0.998239	0.303920	-0.396259
C36	C	0.998224	0.303922	-0.296596
C37	C	1.118252	0.103612	-0.296578
C38	C	1.118265	0.103608	-0.396233
C39	C	1.058256	0.203766	-0.446071
N40	N	1.058292	0.203747	0.246557
H41	H	0.600152	0.449418	-0.000088
C42	C	0.586640	-0.086312	-0.081495
C43	C	0.532398	-0.079770	-0.000113
H44	H	0.624796	-0.176527	-0.081492
H45	H	0.622079	-0.005012	-0.081485
H46	H	0.549829	-0.081860	-0.136702
H47	H	0.569209	-0.084211	0.055095
H48	H	0.496956	-0.161093	-0.000114
H49	H	0.481618	0.445731	-0.000087
C50	C	0.710943	0.609456	-0.000077
C51	C	0.780014	0.493401	-0.000069
H52	H	0.736106	0.701638	-0.000082
H53	H	0.674946	0.602732	0.055127
H54	H	0.674944	0.602718	-0.055294
H55	H	0.816010	0.500133	0.055152
H56	H	0.816027	0.500129	-0.055279
C57	C	0.767974	-0.190634	-0.000085
C58	C	0.820228	-0.070793	-0.000084
H59	H	0.806138	-0.280839	-0.000076
H60	H	0.731181	-0.186180	-0.055295
H61	H	0.731173	-0.186168	0.055126
H62	H	0.857024	-0.075253	-0.055298
H63	H	0.857036	-0.075249	0.055132
C64	C	1.236937	-0.094397	-0.693566
C65	C	1.184269	-0.006500	-0.758361
H66	H	1.277669	-0.162362	-0.727370
H67	H	1.199273	-0.147562	-0.654705
H68	H	1.269598	-0.032876	-0.654691
H69	H	1.151603	-0.068020	-0.797232
H70	H	1.221938	0.046668	-0.797239
H71	H	0.312316	0.440454	-0.000113
C72	C	1.135606	-0.097642	-0.492335
C73	C	1.184058	-0.007065	-0.549378
H74	H	1.176157	-0.166136	-0.458706
H75	H	1.097761	-0.150205	-0.531364
H76	H	1.100050	-0.038010	-0.448236
H77	H	1.219608	-0.066697	-0.593481
H78	H	1.221918	0.045501	-0.510345
C79	C	1.135702	-0.097501	-0.184846
C80	C	1.184081	-0.006909	-0.241956
H81	H	1.176300	-0.165854	-0.151166
H82	H	1.097910	-0.150226	-0.223836
H83	H	1.100098	-0.037860	-0.140792
H84	H	1.219681	-0.066550	-0.286015
H85	H	1.221890	0.045819	-0.202962
C86	C	0.405557	-0.201929	-0.000142
C87	C	0.336493	-0.085862	-0.000132
H88	H	0.380388	-0.294105	-0.000156
H89	H	0.441557	-0.195220	0.055066
H90	H	0.441556	-0.195189	-0.055355
H91	H	0.300498	-0.092596	0.055084
H92	H	0.300478	-0.092575	-0.055346
C93	C	0.879602	0.501954	-0.306619
C94	C	0.932262	0.414027	-0.241833
H95	H	0.838886	0.569935	-0.272809
H96	H	0.846931	0.440465	-0.345492
H97	H	0.917279	0.555113	-0.345485
H98	H	0.894586	0.360860	-0.202973
H99	H	0.964935	0.475524	-0.202944
C100	C	0.876790	0.335581	-0.508360
C101	C	0.932276	0.414006	-0.451048
H102	H	0.836071	0.403540	-0.542189
H103	H	0.844122	0.274094	-0.469487
H104	H	0.912551	0.275938	-0.552283
H105	H	0.896515	0.473641	-0.407120
H106	H	0.964947	0.475518	-0.489924
C107	C	0.879622	0.501893	-0.693644
C108	C	0.932310	0.413992	-0.758414
H109	H	0.838894	0.569845	-0.727468
H110	H	0.917272	0.555072	-0.654771
H111	H	0.846955	0.440374	-0.654778
H112	H	0.964982	0.475511	-0.797276
H113	H	0.894655	0.360810	-0.797304
H114	H	0.634890	-0.038186	-0.000119
H115	H	1.167132	0.022049	-0.436795
H116	H	0.949398	0.385474	-0.563405
