data_functionalizedCrystal
_audit_creation_method	'MofGen! by Chris Wilmer'
_symmetry_space_group_name_H-M	'P1'
_symmetry_Int_Tables_number	1
_symmetry_cell_setting	triclinic
loop_
_symmetry_equiv_pos_as_xyz
  x,y,z
_cell_length_a	12.837932
_cell_length_b	15.995350
_cell_length_c	11.295483
_cell_angle_alpha	94.097343
_cell_angle_beta	85.460332
_cell_angle_gamma	89.161039
loop_
_atom_site_label
_atom_site_type_symbol
_atom_site_fract_x
_atom_site_fract_y
_atom_site_fract_z
O1	O	1.382437	0.212595	-0.099016
O2	O	1.080631	0.201841	-0.099019
O3	O	1.239784	0.085989	-0.099016
O4	O	1.223284	0.328448	-0.099019
O5	O	1.225805	0.096147	0.099034
O6	O	1.066652	0.211999	0.099032
O7	O	1.368458	0.222754	0.099034
Cu8	Cu	1.216279	0.218304	0.117117
Cu9	Cu	1.232810	0.206291	-0.117101
O10	O	1.209305	0.338606	0.099032
C11	C	1.035021	0.203288	0.000006
C12	C	0.919944	0.192454	0.000005
C13	C	0.770101	0.101901	0.000008
C14	C	0.878227	0.112076	0.000008
C15	C	0.853526	0.262663	0.000007
C16	C	0.745400	0.252489	0.000008
C17	C	0.703692	0.172105	0.000006
C18	C	0.595564	0.161931	-0.000002
C19	C	0.570864	0.312518	0.000006
C20	C	0.678990	0.322693	0.000006
C21	C	1.232113	0.059819	0.000007
C22	C	1.230068	-0.033295	0.000000
C23	C	1.222723	-0.371628	0.000004
C24	C	1.109409	-0.333261	-0.000441
C25	C	1.111423	-0.236385	0.000005
C26	C	1.226367	-0.203777	0.000001
C27	C	1.274290	-0.234593	0.113096
C28	C	1.271436	-0.331451	0.113191
C29	C	1.289674	-0.343174	-0.112030
C30	C	1.289753	-0.246308	-0.113524
C31	C	1.228431	-0.108915	0.000004
C32	C	1.220661	-0.466490	0.000010
C33	C	1.414068	0.221307	0.000007
C34	C	1.529146	0.232141	0.000000
C35	C	1.216977	0.364776	0.000006
C36	C	1.219022	0.457889	0.000005
N37	N	1.204659	0.226753	0.281853
N38	N	1.244438	0.197835	-0.281837
C39	C	1.328084	0.136964	0.531144
C40	C	1.319310	0.143356	0.655808
C41	C	1.178333	0.245924	0.655846
C42	C	1.187107	0.239532	0.531182
C43	C	1.261986	0.185051	0.468836
C44	C	1.270764	0.178664	0.344170
C45	C	1.129783	0.281228	0.344210
C46	C	1.121009	0.287620	0.468874
H47	H	0.736143	0.036450	-0.000004
C48	C	0.899406	0.351082	0.000010
C49	C	0.881607	0.406523	-0.102833
C50	C	0.927482	0.494945	-0.102832
C51	C	0.991156	0.527926	0.000013
C52	C	1.008958	0.472484	0.102864
C53	C	0.963083	0.384062	0.102862
H54	H	0.834469	0.382109	-0.178972
H55	H	0.914304	0.535987	-0.178970
H56	H	1.025116	0.593381	0.000014
H57	H	1.056096	0.496898	0.179003
H58	H	0.976261	0.343021	0.179000
H59	H	0.932295	0.054908	0.000010
C60	C	1.208293	-0.354721	0.227393
C61	C	1.109074	-0.407035	0.218758
C62	C	1.045927	-0.430299	0.332960
C63	C	1.081997	-0.401250	0.455797
C64	C	1.181220	-0.348933	0.464437
C65	C	1.244368	-0.325668	0.350235
H66	H	1.082368	-0.428542	0.127822
H67	H	0.972475	-0.469028	0.326564
H68	H	1.035252	-0.418472	0.540337
H69	H	1.207926	-0.327426	0.555373
H70	H	1.317820	-0.286939	0.356631
C71	C	1.387965	-0.206105	0.118781
C72	C	1.412559	-0.112028	0.124925
C73	C	1.526232	-0.083533	0.130603
C74	C	1.615311	-0.149115	0.130136
C75	C	1.590720	-0.243199	0.123991
C76	C	1.477047	-0.271694	0.118314
H77	H	1.346615	-0.063474	0.125271
H78	H	1.544436	-0.013886	0.135152
H79	H	1.699459	-0.128022	0.134339
H80	H	1.656664	-0.291752	0.123646
H81	H	1.458843	-0.341341	0.113765
H82	H	1.373133	0.104197	0.706536
H83	H	1.058614	-0.352318	0.080209
H84	H	0.712964	0.388139	0.000011
C85	C	1.410451	0.077042	0.462557
C86	C	1.407516	-0.017568	0.479693
C87	C	1.489886	-0.077491	0.411108
C88	C	1.575191	-0.042804	0.325388
C89	C	1.578130	0.051810	0.308248
C90	C	1.495760	0.111733	0.376833
H91	H	1.344366	-0.043250	0.543152
H92	H	1.487710	-0.147531	0.423797
H93	H	1.636166	-0.087163	0.274618
H94	H	1.641280	0.077492	0.244789
H95	H	1.497935	0.181774	0.364144
H96	H	0.516781	0.369683	0.000004
C97	C	1.043924	-0.197875	0.109718
C98	C	0.988023	-0.255281	0.197203
C99	C	0.920523	-0.216770	0.306924
C100	C	0.908925	-0.120854	0.329160
C101	C	0.964828	-0.063442	0.241672
C102	C	1.032327	-0.101953	0.131951
H103	H	0.996607	-0.326289	0.180746
H104	H	0.879140	-0.259271	0.371688
H105	H	0.858958	-0.092347	0.410381
H106	H	0.956244	0.007566	0.258130
H107	H	1.073710	-0.059452	0.067188
H108	H	1.069830	-0.359568	-0.081543
H109	H	1.073199	-0.215628	-0.081065
H110	H	0.561608	0.096479	-0.000007
H111	H	1.354291	-0.356796	0.118320
C112	C	1.213808	-0.194616	0.226802
C113	C	1.208436	-0.098584	0.250579
C114	C	1.147946	-0.058610	0.364281
C115	C	1.092829	-0.114667	0.454207
C116	C	1.098199	-0.210705	0.430433
C117	C	1.158689	-0.250679	0.316730
H118	H	1.249238	-0.057082	0.184009
H119	H	1.143971	0.012484	0.381880
H120	H	1.048051	-0.085076	0.538376
H121	H	1.057396	-0.252207	0.497003
H122	H	1.162664	-0.321773	0.299132
C123	C	1.247788	-0.380851	-0.227835
C124	C	1.152246	-0.437948	-0.222147
C125	C	1.110346	-0.475625	-0.337944
C126	C	1.163989	-0.456206	-0.459431
C127	C	1.259537	-0.399106	-0.465124
C128	C	1.301436	-0.361429	-0.349327
H129	H	1.112531	-0.452326	-0.132211
H130	H	1.039615	-0.517894	-0.333729
H131	H	1.132973	-0.484097	-0.545151
H132	H	1.299252	-0.384729	-0.555060
H133	H	1.372167	-0.319160	-0.353542
C134	C	1.403645	-0.216998	-0.122753
C135	C	1.494159	-0.281288	-0.123122
C136	C	1.608055	-0.251977	-0.132337
C137	C	1.631438	-0.158377	-0.141182
C138	C	1.540922	-0.094082	-0.140813
C139	C	1.427025	-0.123392	-0.131598
H140	H	1.476852	-0.350581	-0.116574
H141	H	1.675061	-0.299574	-0.132610
H142	H	1.715751	-0.136680	-0.148003
H143	H	1.558229	-0.024788	-0.147361
H144	H	1.360019	-0.075795	-0.131325
H145	H	1.254783	-0.226612	-0.197189
H146	H	1.117362	0.290275	0.706624
H147	H	1.373297	-0.368306	-0.112792
H148	H	1.331737	0.134306	0.293409
H149	H	1.060041	0.331975	0.519651
H150	H	1.075964	0.320386	0.293465
