data_functionalizedCrystal
_audit_creation_method	'MofGen! by Chris Wilmer'
_symmetry_space_group_name_H-M	'P1'
_symmetry_Int_Tables_number	1
_symmetry_cell_setting	triclinic
loop_
_symmetry_equiv_pos_as_xyz
  x,y,z
_cell_length_a	17.639617
_cell_length_b	12.827893
_cell_length_c	12.827885
_cell_angle_alpha	89.974949
_cell_angle_beta	78.758244
_cell_angle_gamma	101.190607
loop_
_atom_site_label
_atom_site_type_symbol
_atom_site_fract_x
_atom_site_fract_y
_atom_site_fract_z
Zn1	Zn	1.208567	-0.093408	-0.914473
Zn2	Zn	1.708567	0.406592	-0.414473
Zn3	Zn	1.208514	-0.268200	-0.739733
Zn4	Zn	1.708514	0.231800	-0.239733
Zn5	Zn	1.076377	-0.128741	-0.704353
Zn6	Zn	1.576377	0.371259	-0.204353
Zn7	Zn	1.076393	-0.303386	-0.879058
Zn8	Zn	1.576393	0.196614	-0.379058
O9	O	1.142463	-0.198434	-0.809404
O10	O	1.642463	0.301566	-0.309404
O11	O	1.319175	-0.087082	-0.920921
O12	O	1.819175	0.412918	-0.420921
O13	O	1.190957	-0.249762	-0.588796
O14	O	1.690957	0.250238	-0.088796
O15	O	1.093928	0.022186	-0.732240
O16	O	1.593928	0.522186	-0.232240
O17	O	1.319137	-0.215500	-0.792541
O18	O	1.819137	0.284500	-0.292541
O19	O	1.191047	0.048145	-0.886614
O20	O	1.691047	0.548145	-0.386614
O21	O	1.093876	-0.147302	-0.562802
O22	O	1.593876	0.352698	-0.062802
O23	O	0.965764	-0.181421	-0.697900
O24	O	1.465764	0.318579	-0.197900
O25	O	1.093955	-0.275470	-1.030000
O26	O	1.593955	0.224530	-0.530000
O27	O	0.965776	-0.309732	-0.826255
O28	O	1.465776	0.190268	-0.326255
O29	O	1.191063	-0.121201	-1.056019
O30	O	1.691063	0.378799	-0.556019
O31	O	1.190973	-0.419107	-0.758201
O32	O	1.690973	0.080893	-0.258201
O33	O	1.093904	-0.444958	-0.860562
O34	O	1.593904	0.055042	-0.360562
C35	C	0.937089	-0.253229	-0.754396
C36	C	1.437089	0.246771	-0.254396
C37	C	0.849229	-0.276696	-0.730888
C38	C	1.349229	0.223304	-0.230888
C39	C	0.560340	-0.020135	-0.988250
C40	C	1.060340	0.479865	-0.488250
C41	C	0.477783	-0.042212	-0.966140
C42	C	0.977783	0.457788	-0.466140
C43	C	0.477764	-0.175713	-0.832265
C44	C	0.977764	0.324287	-0.332265
C45	C	0.560324	-0.153650	-0.854368
C46	C	1.060324	0.346350	-0.354368
C47	C	0.601605	-0.075860	-0.932361
C48	C	1.101605	0.424140	-0.432361
C49	C	0.601589	-0.209375	-0.798478
C50	C	1.101589	0.290625	-0.298478
C51	C	0.684141	-0.187310	-0.820576
C52	C	1.184141	0.312690	-0.320576
C53	C	0.725428	-0.109521	-0.898563
C54	C	1.225428	0.390479	-0.398563
C55	C	0.684158	-0.053795	-0.954458
C56	C	1.184158	0.446205	-0.454458
C57	C	0.560305	-0.287160	-0.720480
C58	C	1.060305	0.212840	-0.220480
C59	C	0.601570	-0.342885	-0.664591
C60	C	1.101570	0.157115	-0.164591
C61	C	0.684124	-0.320826	-0.686693
C62	C	1.184124	0.179174	-0.186693
C63	C	0.725411	-0.243036	-0.764680
C64	C	1.225411	0.256964	-0.264680
C65	C	0.725395	-0.376552	-0.630798
C66	C	1.225395	0.123448	-0.130798
C67	C	0.807947	-0.354487	-0.652895
C68	C	1.307947	0.145513	-0.152895
C69	C	0.807964	-0.220972	-0.786778
C70	C	1.307964	0.279028	-0.286778
C71	C	1.142456	-0.469945	-0.809407
C72	C	1.642456	0.030055	-0.309407
C73	C	1.142525	-0.586080	-0.809462
C74	C	1.642525	-0.086080	-0.309462
C75	C	1.142517	-0.198319	-1.081989
C76	C	1.642517	0.301681	-0.581989
C77	C	1.142540	-0.198270	-1.198148
C78	C	1.642540	0.301730	-0.698148
C79	C	1.348639	-0.143425	-0.864628
C80	C	1.848639	0.356575	-0.364628
C81	C	1.436499	-0.119983	-0.888161
C82	C	1.936499	0.380017	-0.388161
C83	C	1.142491	0.074144	-0.809431
C84	C	1.642491	0.574144	-0.309431
C85	C	1.142503	0.190300	-0.809442
C86	C	1.642503	0.690300	-0.309442
C87	C	1.094456	0.229242	-0.733066
C88	C	1.594456	0.729242	-0.233066
C89	C	1.094467	0.349296	-0.733076
C90	C	1.594467	0.849296	-0.233076
C91	C	1.190597	-0.121919	-1.262809
C92	C	1.690597	0.378081	-0.762809
C93	C	1.190622	-0.121867	-1.382867
C94	C	1.690622	0.378133	-0.882867
C95	C	1.142455	-0.198460	-0.537892
C96	C	1.642455	0.301540	-0.037892
C97	C	1.142585	-0.198174	-0.421775
C98	C	1.642585	0.301826	0.078225
H99	H	0.792648	-0.091554	-0.916550
H100	H	1.292648	0.408446	-0.416550
H101	H	1.183644	0.245838	-0.874841
H102	H	1.683644	0.745838	-0.374841
Cl103	Cl	1.254152	-0.020943	-1.468639
Cl104	Cl	1.754152	0.479057	-0.968639
Cl105	Cl	1.254074	-0.021030	-1.211057
Cl106	Cl	1.754074	0.478970	-0.711057
Cl107	Cl	0.736061	0.043992	-1.052517
Cl108	Cl	1.236061	0.543992	-0.552517
Cl109	Cl	0.859827	-0.424551	-0.582643
Cl110	Cl	1.359827	0.075449	-0.082643
Cl111	Cl	1.079061	-0.299110	-1.336010
Cl112	Cl	1.579061	0.200890	-0.836010
H113	H	0.841578	-0.157631	-0.850291
H114	H	1.341578	0.342369	-0.350291
H115	H	1.101409	-0.263593	-1.231670
H116	H	1.601409	0.236407	-0.731670
Cl117	Cl	0.612244	0.077652	-1.086309
Cl118	Cl	1.112244	0.577652	-0.586309
H119	H	1.183666	0.380389	-0.874851
H120	H	1.683666	0.880389	-0.374851
Cl121	Cl	1.030922	0.143500	-0.632103
Cl122	Cl	1.530922	0.643500	-0.132103
Cl123	Cl	0.425909	0.027857	-1.036405
Cl124	Cl	0.925909	0.527857	-0.536405
Cl125	Cl	1.030959	0.401071	-0.632111
Cl126	Cl	1.530959	0.901071	-0.132111
H127	H	0.493086	-0.305099	-0.702468
H128	H	0.993086	0.194901	-0.202468
Cl129	Cl	0.425860	-0.273500	-0.734218
Cl130	Cl	0.925860	0.226500	-0.234218
H131	H	0.567947	-0.406219	-0.601086
H132	H	1.067947	0.093781	-0.101086
H133	H	0.691771	-0.439881	-0.567289
H134	H	1.191771	0.060119	-0.067289
