data_functionalizedCrystal
_audit_creation_method	'MofGen! by Chris Wilmer'
_symmetry_space_group_name_H-M	'P1'
_symmetry_Int_Tables_number	1
_symmetry_cell_setting	triclinic
loop_
_symmetry_equiv_pos_as_xyz
  x,y,z
_cell_length_a	16.625548
_cell_length_b	16.959454
_cell_length_c	16.959447
_cell_angle_alpha	90.026818
_cell_angle_beta	89.981950
_cell_angle_gamma	89.978857
loop_
_atom_site_label
_atom_site_type_symbol
_atom_site_fract_x
_atom_site_fract_y
_atom_site_fract_z
Zn1	Zn	1.232674	0.314643	-0.446952
Zn2	Zn	1.232589	0.446835	-0.314781
Zn3	Zn	1.097842	0.314677	-0.314787
Zn4	Zn	1.097812	0.446786	-0.446917
O5	O	1.165229	0.380735	-0.380859
O6	O	1.345495	0.332185	-0.429431
O7	O	1.214691	0.429340	-0.204171
O8	O	1.115776	0.204062	-0.332335
O9	O	1.345432	0.429306	-0.332326
O10	O	1.214836	0.204036	-0.429436
O11	O	1.115693	0.332244	-0.204175
O12	O	0.985005	0.332195	-0.332302
O13	O	1.115725	0.429221	-0.557533
O14	O	0.984983	0.429255	-0.429378
O15	O	1.214807	0.332137	-0.557558
O16	O	1.214662	0.557440	-0.332293
O17	O	1.115642	0.557403	-0.429373
C18	C	0.955738	0.380724	-0.380837
C19	C	0.866117	0.380738	-0.380847
C20	C	1.165161	0.586102	-0.380846
C21	C	1.165206	0.673958	-0.380867
C22	C	1.165272	0.380670	-0.587028
C23	C	1.165291	0.380642	-0.674884
C24	C	0.537941	0.380743	-0.380880
C25	C	0.629250	0.380740	-0.380868
C26	C	0.702026	0.380741	-0.380863
C27	C	0.793341	0.380737	-0.380852
C28	C	1.375538	0.380747	-0.380882
C29	C	1.465159	0.380752	-0.380892
C30	C	1.165319	0.174567	-0.380890
C31	C	1.165357	0.086710	-0.380903
C32	C	1.113744	1.045445	-0.431403
C33	C	1.216938	1.045423	-0.330396
C34	C	1.216910	0.962877	-0.330389
C35	C	1.165297	0.921611	-0.380889
C36	C	1.113713	0.962891	-0.431396
C37	C	1.268488	0.921591	-0.279876
C38	C	1.268462	0.839040	-0.279867
C39	C	1.216852	0.797772	-0.330371
C40	C	1.165266	0.839058	-0.380881
C41	C	1.113653	0.797792	-0.431381
C42	C	1.062070	0.839075	-0.481896
C43	C	1.062103	0.921624	-0.481901
C44	C	1.216819	0.715224	-0.330367
C45	C	1.113621	0.715238	-0.431374
C46	C	1.113818	0.330005	-1.046368
C47	C	1.216905	0.431112	-1.046352
C48	C	1.216891	0.431130	-0.963806
C49	C	1.165339	0.380586	-0.922537
C50	C	1.113801	0.330023	-0.963815
C51	C	1.268423	0.481698	-0.922522
C52	C	1.268410	0.481719	-0.839971
C53	C	1.216861	0.431170	-0.798701
C54	C	1.165322	0.380605	-0.839984
C55	C	1.113769	0.330060	-0.798715
C56	C	1.062233	0.279490	-0.839996
C57	C	1.062252	0.279475	-0.922545
C58	C	1.216843	0.431186	-0.716153
C59	C	1.113752	0.330079	-0.716162
C60	C	1.165232	0.380744	-0.175493
C61	C	1.165370	0.380549	-0.087637
H62	H	1.071595	0.681644	-0.472500
H63	H	1.310385	0.522857	-0.956129
H64	H	1.310503	0.955195	-0.238756
Cl65	Cl	1.048904	1.097341	-0.494908
H66	H	1.071775	0.288915	-0.682567
H67	H	1.310374	0.522897	-0.806367
Cl68	Cl	0.997184	0.787189	-0.545375
Cl69	Cl	0.997466	0.215910	-0.974445
H70	H	1.258954	1.079026	-0.289276
Cl71	Cl	1.333314	0.787148	-0.216371
H72	H	1.020106	0.955244	-0.523026
H73	H	1.020256	0.238341	-0.806385
H74	H	1.258813	0.681615	-0.289235
Cl75	Cl	1.049036	0.266432	-1.098262
Cl76	Cl	1.281703	0.494656	-1.098233
H77	H	1.258808	0.472354	-0.682546
