data_functionalizedCrystal
_audit_creation_method	'MofGen! by Chris Wilmer'
_symmetry_space_group_name_H-M	'P1'
_symmetry_Int_Tables_number	1
_symmetry_cell_setting	triclinic
loop_
_symmetry_equiv_pos_as_xyz
  x,y,z
_cell_length_a	42.774135
_cell_length_b	42.790298
_cell_length_c	42.784893
_cell_angle_alpha	59.995086
_cell_angle_beta	89.999782
_cell_angle_gamma	119.987826
loop_
_atom_site_label
_atom_site_type_symbol
_atom_site_fract_x
_atom_site_fract_y
_atom_site_fract_z
O1	O	0.266496	-0.223677	0.009296
O2	O	0.221023	-0.159685	-0.009256
O3	O	0.221033	-0.223673	0.054746
O4	O	0.266486	-0.159689	-0.054706
O5	O	0.169047	-0.275642	0.054745
O6	O	0.169038	-0.211654	-0.009257
O7	O	0.214510	-0.275645	0.009295
Zn8	Zn	0.183520	-0.251901	0.000019
Zn9	Zn	0.252013	-0.183430	0.000020
O10	O	0.214500	-0.211657	-0.054707
C11	C	0.079386	-0.051029	-0.028125
C12	C	0.098276	-0.013159	-0.028388
C13	C	0.022771	-0.051033	-0.028123
C14	C	0.041747	-0.013163	-0.028386
C15	C	0.079368	0.005552	-0.028122
C16	C	0.041765	-0.069659	-0.028388
C17	C	0.113989	-0.152921	-0.017883
C18	C	0.131816	-0.173750	-0.014987
C19	C	0.169096	-0.155867	-0.013533
C20	C	0.188424	-0.178455	-0.010386
C21	C	0.188550	-0.117151	-0.014978
C22	C	0.170725	-0.096322	-0.017879
C23	C	0.133443	-0.114208	-0.019331
C24	C	0.171033	0.131761	-0.017873
C25	C	0.188967	0.167506	-0.014975
C26	C	0.169617	0.185434	-0.013518
C27	C	0.189056	0.224186	-0.010370
C28	C	0.132332	0.167617	-0.014963
C29	C	0.114401	0.131878	-0.017868
C30	C	0.133756	0.113950	-0.019320
C31	C	-0.113724	-0.152939	-0.017875
C32	C	-0.152382	-0.173777	-0.014972
C33	C	-0.171783	-0.155899	-0.013517
C34	C	-0.213699	-0.178491	-0.010368
C35	C	-0.152526	-0.117186	-0.014960
C36	C	-0.113869	-0.096352	-0.017861
C37	C	-0.094470	-0.114230	-0.019322
C38	C	0.114117	-0.091621	-0.022473
C39	C	0.098712	-0.073616	-0.024979
C40	C	-0.019143	-0.073626	-0.024975
C41	C	-0.052554	-0.091634	-0.022468
C42	C	0.098810	0.044304	-0.024974
C43	C	0.114309	0.075195	-0.022467
O44	O	-0.227511	-0.211688	-0.009242
O45	O	-0.336977	-0.275685	0.009318
O46	O	-0.272982	-0.211697	-0.054688
O47	O	-0.291506	-0.275677	0.054763
O48	O	-0.272998	-0.159728	-0.054687
O49	O	-0.336993	-0.223716	0.009319
O50	O	-0.227527	-0.159720	-0.009241
Zn51	Zn	-0.282263	-0.183467	0.000039
Zn52	Zn	-0.282241	-0.251938	0.000037
O53	O	-0.291522	-0.223708	0.054764
C54	C	0.356306	-0.051021	-0.361565
C55	C	0.393923	-0.013152	-0.380462
C56	C	0.356306	-0.051020	-0.304966
C57	C	0.393923	-0.013151	-0.323950
C58	C	0.412907	0.005562	-0.361565
C59	C	0.337408	-0.069648	-0.323949
C60	C	0.264625	-0.152919	-0.396125
C61	C	0.246684	-0.173751	-0.413939
C62	C	0.266025	-0.155871	-0.451214
C63	C	0.246577	-0.178461	-0.470528
C64	C	0.303306	-0.117156	-0.470675
C65	C	0.321242	-0.096324	-0.452862
C66	C	0.301899	-0.114207	-0.415585
C67	C	0.549400	0.131765	-0.453244
C68	C	0.588054	0.167509	-0.471184
C69	C	0.607446	0.185439	-0.451846
C70	C	0.649358	0.224190	-0.471292
C71	C	0.588180	0.167625	-0.414566
C72	C	0.549526	0.131888	-0.396629
C73	C	0.530139	0.113957	-0.415972
C74	C	0.264626	-0.152917	-0.168479
C75	C	0.246688	-0.173752	-0.129825
C76	C	0.266029	-0.155872	-0.110436
C77	C	0.246582	-0.178461	-0.068525
C78	C	0.303308	-0.117160	-0.129700
C79	C	0.321245	-0.096328	-0.168352
C80	C	0.301899	-0.114209	-0.187740
C81	C	0.321352	-0.091617	-0.396272
C82	C	0.336856	-0.073611	-0.380878
C83	C	0.336857	-0.073610	-0.263057
C84	C	0.321353	-0.091616	-0.229651
C85	C	0.454818	0.044313	-0.381014
C86	C	0.488226	0.075203	-0.396518
C87	C	0.412728	-0.384341	0.028187
C88	C	0.393748	-0.422212	0.028452
C89	C	0.356118	-0.384336	0.028184
C90	C	0.337224	-0.422207	0.028448
C91	C	0.356128	-0.440923	0.028186
C92	C	0.393738	-0.365711	0.028450
C93	C	0.549225	-0.282449	0.017944
C94	C	0.587881	-0.261619	0.015048
C95	C	0.607278	-0.279503	0.013595
C96	C	0.649193	-0.256915	0.010448
C97	C	0.588015	-0.318220	0.015042
C98	C	0.549361	-0.339049	0.017942
C99	C	0.529966	-0.321162	0.019393
C100	C	0.321582	-0.567135	0.017941
C101	C	0.303770	-0.602881	0.015045
C102	C	0.266492	-0.620809	0.013587
C103	C	0.247179	-0.659562	0.010441
C104	C	0.247025	-0.602991	0.015032
C105	C	0.264833	-0.567252	0.017935
C106	C	0.302116	-0.549324	0.019388
C107	C	0.321532	-0.282427	0.017931
C108	C	0.303712	-0.261589	0.015027
C109	C	0.266433	-0.279467	0.013572
C110	C	0.247110	-0.256874	0.010421
C111	C	0.246976	-0.318181	0.015016
C112	C	0.264798	-0.339016	0.017919
C113	C	0.302076	-0.321137	0.019379
C114	C	0.488052	-0.343749	0.022535
C115	C	0.454642	-0.361754	0.025041
C116	C	0.336797	-0.361743	0.025035
C117	C	0.321396	-0.343734	0.022526
C118	C	0.336818	-0.479676	0.025039
C119	C	0.321425	-0.510568	0.022532
O120	O	0.214577	0.327750	0.009311
O121	O	0.169141	0.236870	-0.009238
O122	O	0.169138	0.236866	0.054763
O123	O	0.214580	0.327754	-0.054690
O124	O	0.221138	0.236870	0.054761
O125	O	0.221140	0.236874	-0.009240
O126	O	0.266577	0.327754	0.009309
Zn127	Zn	0.252114	0.282314	0.000034
Zn128	Zn	0.183603	0.282309	0.000037
O129	O	0.266579	0.327758	-0.054692
O130	O	0.772638	0.327754	-0.496840
O131	O	0.663179	0.236877	-0.451387
O132	O	0.727191	0.236871	-0.451385
O133	O	0.708626	0.327761	-0.496842
O134	O	0.727190	0.236869	-0.503368
O135	O	0.663178	0.236876	-0.503370
O136	O	0.772637	0.327753	-0.548824
Zn137	Zn	0.717907	0.282314	-0.534351
Zn138	Zn	0.717909	0.282316	-0.465860
O139	O	0.708625	0.327760	-0.548826
O140	O	0.221032	-0.223674	-0.548575
O141	O	0.266483	-0.159691	-0.503123
O142	O	0.266494	-0.223678	-0.503120
O143	O	0.221022	-0.159687	-0.548578
O144	O	0.214507	-0.275648	-0.451136
O145	O	0.214497	-0.211661	-0.451139
O146	O	0.169046	-0.275643	-0.496591
Zn147	Zn	0.183517	-0.251904	-0.465612
Zn148	Zn	0.252012	-0.183431	-0.534103
O149	O	0.169035	-0.211656	-0.496594
C150	C	0.022869	-0.440650	0.361604
C151	C	0.041853	-0.421937	0.380501
C152	C	0.079470	-0.384067	0.305005
C153	C	0.098367	-0.365440	0.323988
C154	C	0.079470	-0.384067	0.361604
C155	C	0.041853	-0.421937	0.323988
C156	C	-0.113625	-0.566853	0.396164
C157	C	-0.152279	-0.602597	0.413979
C158	C	-0.171669	-0.620527	0.451254
C159	C	-0.213582	-0.659278	0.470568
C160	C	-0.152403	-0.602713	0.470714
C161	C	-0.113751	-0.566975	0.452902
C162	C	-0.094362	-0.549045	0.415625
C163	C	0.114030	-0.339271	0.453282
C164	C	0.131845	-0.318565	0.471222
C165	C	0.169120	-0.279847	0.451884
C166	C	0.188437	-0.257389	0.471330
C167	C	0.188581	-0.261838	0.414604
C168	C	0.170770	-0.282547	0.396668
C169	C	0.133490	-0.321265	0.416011
C170	C	0.114031	-0.339271	0.168518
C171	C	0.131844	-0.318561	0.129865
C172	C	0.169120	-0.279843	0.110475
C173	C	0.188436	-0.257385	0.068564
C174	C	0.188580	-0.261833	0.129739
C175	C	0.170765	-0.282543	0.168391
C176	C	0.133491	-0.321265	0.187779
C177	C	-0.052450	-0.510291	0.396312
C178	C	-0.019043	-0.479401	0.380917
C179	C	0.098783	-0.361613	0.263096
C180	C	0.114179	-0.343716	0.229690
C181	C	0.098783	-0.361613	0.381053
C182	C	0.114178	-0.343716	0.396557
C183	C	-0.254189	0.005263	-0.361539
C184	C	-0.253920	-0.013451	-0.380435
C185	C	-0.254167	-0.051316	-0.304942
C186	C	-0.253898	-0.069944	-0.323924
C187	C	-0.254172	-0.051319	-0.361538
C188	C	-0.253916	-0.013448	-0.323924
C189	C	-0.264481	0.131464	-0.396098
C190	C	-0.267392	0.167207	-0.413911
C191	C	-0.268855	0.185135	-0.451185
C192	C	-0.272018	0.223885	-0.470500
C193	C	-0.267405	0.167320	-0.470645
C194	C	-0.264489	0.131583	-0.452833
C195	C	-0.263027	0.113655	-0.415558
C196	C	-0.264415	-0.096122	-0.453213
C197	C	-0.267308	-0.116829	-0.471152
C198	C	-0.268751	-0.155546	-0.451814
C199	C	-0.271893	-0.178005	-0.471259
C200	C	-0.267296	-0.173553	-0.414536
C201	C	-0.264396	-0.152843	-0.396600
C202	C	-0.262958	-0.114125	-0.415943
C203	C	-0.264393	-0.096105	-0.168457
C204	C	-0.267287	-0.116813	-0.129805
C205	C	-0.268728	-0.155530	-0.110416
C206	C	-0.271867	-0.177986	-0.068505
C207	C	-0.267279	-0.173541	-0.129679
C208	C	-0.264387	-0.152833	-0.168330
C209	C	-0.262941	-0.114112	-0.187718
C210	C	-0.259869	0.074902	-0.396245
C211	C	-0.257351	0.044013	-0.380851
C212	C	-0.257305	-0.073768	-0.263033
C213	C	-0.259805	-0.091664	-0.229628
C214	C	-0.257314	-0.073775	-0.380986
C215	C	-0.259817	-0.091673	-0.396490
C216	C	-0.310333	-0.384333	0.361615
C217	C	-0.310584	-0.422201	0.380511
C218	C	-0.310337	-0.384335	0.305018
C219	C	-0.310588	-0.422203	0.324000
C220	C	-0.310315	-0.440915	0.361615
C221	C	-0.310606	-0.365707	0.324001
C222	C	-0.300112	-0.282433	0.396175
C223	C	-0.297219	-0.261601	0.413989
C224	C	-0.295756	-0.279479	0.451263
C225	C	-0.292612	-0.256888	0.470577
C226	C	-0.297189	-0.318193	0.470723
C227	C	-0.300086	-0.339026	0.452911
C228	C	-0.301548	-0.321144	0.415635
C229	C	-0.300018	-0.567113	0.453289
C230	C	-0.297108	-0.602856	0.471228
C231	C	-0.295647	-0.620786	0.451890
C232	C	-0.292486	-0.659536	0.471334
C233	C	-0.297102	-0.602974	0.414611
C234	C	-0.300019	-0.567238	0.396675
C235	C	-0.301475	-0.549307	0.416018
C236	C	-0.300129	-0.282444	0.168534
C237	C	-0.297235	-0.261611	0.129881
C238	C	-0.295776	-0.279492	0.110492
C239	C	-0.292637	-0.256904	0.068582
C240	C	-0.297207	-0.318203	0.129755
C241	C	-0.300099	-0.339033	0.168406
C242	C	-0.301563	-0.321151	0.187794
C243	C	-0.304687	-0.343735	0.396322
C244	C	-0.307190	-0.361742	0.380928
C245	C	-0.307199	-0.361747	0.263110
C246	C	-0.304699	-0.343743	0.229704
C247	C	-0.307153	-0.479665	0.381062
C248	C	-0.304635	-0.510554	0.396565
C249	C	0.079357	-0.051077	0.361611
C250	C	0.041735	-0.069710	0.380509
C251	C	0.079344	0.005512	0.305016
C252	C	0.041722	-0.013207	0.323999
C253	C	0.022742	-0.051082	0.361613
C254	C	0.098251	-0.013202	0.323997
C255	C	0.171075	-0.095868	0.396166
C256	C	0.189025	-0.116575	0.413979
C257	C	0.169689	-0.155299	0.451253
C258	C	0.189148	-0.177756	0.470566
C259	C	0.132402	-0.173313	0.470714
C260	C	0.114457	-0.152604	0.452903
C261	C	0.133794	-0.113880	0.415628
C262	C	-0.113759	-0.152999	0.453291
C263	C	-0.152416	-0.173835	0.471231
C264	C	-0.171817	-0.155957	0.451894
C265	C	-0.213733	-0.178548	0.471340
C266	C	-0.152555	-0.117236	0.414615
C267	C	-0.113898	-0.096397	0.396679
C268	C	-0.094502	-0.114285	0.416020
C269	C	0.171020	0.131740	0.168531
C270	C	0.188956	0.167487	0.129878
C271	C	0.169606	0.185418	0.110490
C272	C	0.189050	0.224176	0.068580
C273	C	0.132321	0.167598	0.129755
C274	C	0.114387	0.131851	0.168406
C275	C	0.133742	0.113927	0.187792
C276	C	0.114331	-0.091429	0.396316
C277	C	0.098818	-0.073532	0.380923
C278	C	0.098790	0.044270	0.263107
C279	C	0.114291	0.075165	0.229702
C280	C	-0.019173	-0.073676	0.381062
C281	C	-0.052584	-0.091687	0.396566
O282	O	-0.291548	-0.275705	-0.496806
O283	O	-0.273012	-0.211720	-0.451355
O284	O	-0.337012	-0.275710	-0.451347
O285	O	-0.227548	-0.211715	-0.496813
O286	O	-0.337032	-0.223743	-0.503329
O287	O	-0.273032	-0.159753	-0.503337
O288	O	-0.291568	-0.223738	-0.548788
Zn289	Zn	-0.282303	-0.183494	-0.534315
Zn290	Zn	-0.282277	-0.251963	-0.465827
O291	O	-0.227568	-0.159748	-0.548795
C292	C	0.412730	0.615704	-0.361542
C293	C	0.393738	0.634333	-0.380438
C294	C	0.356129	0.559112	-0.304944
C295	C	0.337222	0.577826	-0.323926
C296	C	0.356116	0.615701	-0.361540
C297	C	0.393751	0.577829	-0.323928
C298	C	0.549244	0.660510	-0.396106
C299	C	0.587901	0.681220	-0.413921
C300	C	0.607287	0.719944	-0.451195
C301	C	0.649204	0.742406	-0.470510
C302	C	0.588012	0.737955	-0.470653
C303	C	0.549356	0.717242	-0.452840
C304	C	0.529972	0.678518	-0.415565
C305	C	0.321521	0.717607	-0.453211
C306	C	0.303697	0.738440	-0.471149
C307	C	0.266417	0.720558	-0.451809
C308	C	0.247089	0.743146	-0.471253
C309	C	0.246960	0.681837	-0.414531
C310	C	0.264781	0.661001	-0.396596
C311	C	0.302066	0.678893	-0.415940
C312	C	0.321586	0.432887	-0.168462
C313	C	0.303776	0.397140	-0.129809
C314	C	0.266495	0.379205	-0.110419
C315	C	0.247183	0.340447	-0.068509
C316	C	0.247026	0.397021	-0.129681
C317	C	0.264838	0.432768	-0.168332
C318	C	0.302118	0.450696	-0.187721
C319	C	0.488057	0.656063	-0.396251
C320	C	0.454646	0.638162	-0.380856
C321	C	0.336819	0.520353	-0.263036
C322	C	0.321426	0.489458	-0.229631
C323	C	0.336792	0.638292	-0.380987
C324	C	0.321388	0.656299	-0.396489
H325	H	0.115974	-0.205272	-0.013810
C326	C	0.414513	0.008008	-0.303363
H327	H	0.397812	-0.008570	-0.278194
H328	H	0.436756	0.008165	-0.302061
H329	H	0.421667	0.037483	-0.317133
C330	C	-0.295580	-0.337859	0.511721
H331	H	-0.296852	-0.363900	0.520759
H332	H	-0.272303	-0.316905	0.511708
H333	H	-0.316599	-0.344914	0.527990
C334	C	0.609334	0.780547	-0.511651
H335	H	0.592318	0.788304	-0.520689
H336	H	0.630279	0.803806	-0.511639
H337	H	0.618552	0.775805	-0.527921
H338	H	0.306314	-0.437864	0.028871
C339	C	0.073014	-0.172539	-0.019568
H340	H	0.065192	-0.154576	-0.021523
H341	H	0.072486	-0.173532	-0.041262
H342	H	0.056094	-0.201596	0.003024
H343	H	-0.098218	-0.064871	0.366327
C344	C	0.021188	-0.110811	-0.028983
H345	H	-0.003983	-0.119271	-0.029106
H346	H	0.034968	-0.104192	-0.051305
H347	H	0.019880	-0.134359	-0.006902
H348	H	-0.268476	-0.102151	-0.114120
H349	H	0.306311	0.562161	-0.308683
H350	H	-0.296022	-0.332764	0.113967
H351	H	0.083678	-0.370798	0.469035
H352	H	0.248954	-0.370537	0.019095
C353	C	0.229554	-0.097483	-0.013379
H354	H	0.237384	-0.115434	-0.011442
H355	H	0.246426	-0.068439	-0.035997
H356	H	0.230149	-0.096447	0.008295
C357	C	-0.092556	-0.547388	0.474308
H358	H	-0.066758	-0.523539	0.458362
H359	H	-0.104782	-0.536994	0.480749
H360	H	-0.093047	-0.569552	0.497021
C361	C	-0.253309	-0.111108	-0.303339
H362	H	-0.253189	-0.119570	-0.320043
H363	H	-0.230987	-0.104504	-0.296175
H364	H	-0.275395	-0.134648	-0.281103
H365	H	-0.168193	-0.617316	0.501064
C366	C	-0.295505	-0.622700	0.393339
H367	H	-0.296794	-0.606978	0.368572
H368	H	-0.272225	-0.620372	0.391015
H369	H	-0.316519	-0.652921	0.407305
C370	C	0.192123	-0.053739	-0.019470
H371	H	0.216877	-0.046072	-0.018186
H372	H	0.194485	-0.030434	-0.042744
H373	H	0.178210	-0.058443	0.001547
C374	C	0.414513	0.008006	-0.422212
H375	H	0.397813	-0.008576	-0.430797
H376	H	0.421671	0.037481	-0.437927
H377	H	0.436755	0.008157	-0.423668
H378	H	0.026474	0.002455	0.308757
C379	C	0.140119	-0.324275	0.303403
H380	H	0.148702	-0.315813	0.320107
H381	H	0.155839	-0.330876	0.296236
H382	H	0.141572	-0.300735	0.281168
H383	H	0.219381	-0.101909	0.398129
C384	C	0.362594	0.452612	-0.189789
H385	H	0.370411	0.476449	-0.215567
H386	H	0.379469	0.463051	-0.177613
H387	H	0.363197	0.430505	-0.189350
C388	C	-0.092299	-0.547137	0.355165
H389	H	-0.109307	-0.562868	0.346128
H390	H	-0.083088	-0.516917	0.338895
H391	H	-0.071347	-0.549470	0.355179
C392	C	0.111135	-0.215906	0.511711
H393	H	0.127162	-0.225663	0.519531
H394	H	0.104697	-0.210171	0.528589
H395	H	0.088426	-0.238168	0.512303
C396	C	0.325115	-0.219004	0.013434
H397	H	0.349868	-0.211343	0.014721
H398	H	0.327481	-0.195699	-0.009843
H399	H	0.311203	-0.223703	0.034448
H400	H	0.115996	-0.333230	0.501574
H401	H	0.116578	0.182218	-0.013782
C402	C	-0.301730	-0.262770	0.189857
H403	H	-0.300457	-0.236728	0.172849
H404	H	-0.325005	-0.283721	0.210807
H405	H	-0.280709	-0.255716	0.199066
C406	C	-0.301679	-0.381615	0.189595
H407	H	-0.300400	-0.389284	0.172514
H408	H	-0.280661	-0.376916	0.198802
H409	H	-0.324957	-0.404921	0.210538
C410	C	0.192324	0.112047	-0.019478
H411	H	0.217097	0.127780	-0.018207
H412	H	0.178371	0.081828	0.001534
H413	H	0.194643	0.114380	-0.042758
C414	C	-0.092385	-0.172605	-0.019478
H415	H	-0.066603	-0.154650	-0.021418
H416	H	-0.104553	-0.201648	0.003139
H417	H	-0.092826	-0.173642	-0.041152
C418	C	0.140035	0.008007	-0.028970
H419	H	0.148628	-0.008572	-0.029086
H420	H	0.155740	0.037480	-0.051292
H421	H	0.141497	0.008163	-0.006888
C422	C	0.295655	-0.110810	-0.303361
H423	H	0.287068	-0.119276	-0.320061
H424	H	0.294197	-0.134346	-0.281121
H425	H	0.279939	-0.104197	-0.296205
H426	H	-0.098191	-0.064830	-0.019039
C427	C	0.110440	-0.338369	0.108675
H428	H	0.126386	-0.320488	0.082878
H429	H	0.104008	-0.367420	0.120902
H430	H	0.087720	-0.339412	0.109167
C431	C	-0.173602	-0.216426	0.512231
H432	H	-0.156514	-0.224094	0.521178
H433	H	-0.182819	-0.211736	0.528549
H434	H	-0.194540	-0.239728	0.512257
H435	H	0.084099	-0.167273	0.468751
H436	H	0.218934	-0.230314	0.398860
C437	C	0.073395	0.112287	-0.019464
H438	H	0.064437	0.128081	-0.018180
H439	H	0.073364	0.114623	-0.042741
H440	H	0.057083	0.082070	0.001551
C441	C	0.229974	0.187098	-0.013381
H442	H	0.238930	0.171300	-0.014660
H443	H	0.246285	0.217313	-0.034393
H444	H	0.230004	0.184759	0.009898
H445	H	0.219314	0.181992	0.114195
H446	H	0.186618	-0.267883	0.366316
C447	C	-0.269012	0.187039	-0.511644
H448	H	-0.267727	0.171314	-0.520683
H449	H	-0.292294	0.184708	-0.511632
H450	H	-0.248000	0.217261	-0.527912
H451	H	0.218932	-0.230303	0.113949
C452	C	0.205681	-0.216335	-0.392532
H453	H	0.196733	-0.224003	-0.367780
H454	H	0.189362	-0.211638	-0.406440
H455	H	0.205654	-0.239640	-0.390162
H456	H	-0.268453	-0.205068	-0.113890
H457	H	0.408996	-0.437875	0.028878
C458	C	0.362247	-0.053744	-0.474266
H459	H	0.371199	-0.046080	-0.499015
H460	H	0.362281	-0.030436	-0.476635
H461	H	0.378562	-0.058451	-0.460353
C462	C	-0.173864	-0.097516	-0.013361
H463	H	-0.199643	-0.115465	-0.011431
H464	H	-0.173423	-0.096477	0.008309
H465	H	-0.161691	-0.068472	-0.035982
C466	C	0.206002	-0.337793	0.013327
H467	H	0.198182	-0.319827	0.011368
H468	H	0.205476	-0.338786	-0.008367
H469	H	0.189077	-0.366850	0.035919
C470	C	0.206020	-0.622711	0.013431
H471	H	0.198201	-0.646546	0.011493
H472	H	0.189142	-0.633151	0.036048
H473	H	0.205421	-0.600599	-0.008243
C474	C	-0.268912	-0.097026	-0.512153
H475	H	-0.270841	-0.114904	-0.520066
H476	H	-0.290587	-0.095985	-0.512701
H477	H	-0.246292	-0.067973	-0.528988
C478	C	-0.173565	-0.216361	-0.013381
H479	H	-0.199367	-0.226211	-0.011440
H480	H	-0.161338	-0.210571	-0.036003
H481	H	-0.173065	-0.238575	0.008288
C482	C	0.609505	0.187347	-0.393292
H483	H	0.592495	0.171622	-0.368524
H484	H	0.630457	0.185017	-0.390972
H485	H	0.618715	0.217568	-0.407254
C486	C	-0.262893	0.111988	-0.474236
H487	H	-0.260946	0.088137	-0.458289
H488	H	-0.285519	0.101592	-0.480670
H489	H	-0.241225	0.134145	-0.496952
C490	C	0.205682	-0.216332	-0.108638
H491	H	0.196730	-0.223994	-0.125722
H492	H	0.205647	-0.239640	-0.087694
H493	H	0.189368	-0.211625	-0.099432
C494	C	0.243348	-0.172588	-0.189803
H495	H	0.218579	-0.198630	-0.172794
H496	H	0.241024	-0.151636	-0.210751
H497	H	0.257314	-0.179641	-0.199016
C498	C	-0.173470	-0.622184	0.392571
H499	H	-0.156388	-0.606384	0.367819
H500	H	-0.182679	-0.652400	0.406477
H501	H	-0.194415	-0.619843	0.390202
H502	H	0.603810	-0.332778	0.013861
C503	C	0.243345	-0.172588	-0.355125
H504	H	0.218573	-0.198624	-0.346088
H505	H	0.257307	-0.179643	-0.338855
H506	H	0.241023	-0.151631	-0.355139
H507	H	0.319049	-0.102599	-0.501024
H508	H	0.533617	0.117170	-0.468997
C509	C	-0.301663	-0.381607	0.474313
H510	H	-0.303600	-0.391454	0.458366
H511	H	-0.279036	-0.375816	0.480747
H512	H	-0.323332	-0.403825	0.497029
H513	H	0.129162	0.002461	0.308757
C514	C	-0.092423	-0.172669	0.474567
H515	H	-0.109429	-0.198709	0.499338
H516	H	-0.083202	-0.179717	0.460607
H517	H	-0.071478	-0.151716	0.476888
H518	H	0.248983	0.447271	-0.184014
C519	C	0.021148	-0.110881	0.422258
H520	H	-0.004023	-0.119342	0.430843
H521	H	0.019848	-0.134415	0.423715
H522	H	0.034917	-0.104280	0.437975
H523	H	0.186613	-0.267876	0.184073
H524	H	0.603737	0.182010	-0.501537
H525	H	-0.296053	-0.230081	0.398143
H526	H	0.408976	0.664808	-0.411344
H527	H	-0.168351	-0.102676	0.398872
C528	C	0.073378	0.112253	0.189597
H529	H	0.065467	0.088393	0.215391
H530	H	0.072817	0.134405	0.189107
H531	H	0.056546	0.101861	0.177368
C532	C	0.528336	0.112296	-0.355627
H533	H	0.545420	0.128090	-0.346676
H534	H	0.507389	0.114630	-0.355593
H535	H	0.519132	0.082080	-0.339312
H536	H	0.351599	-0.064807	-0.184035
H537	H	-0.268574	0.181708	-0.398064
C538	C	0.324585	-0.097488	-0.108375
H539	H	0.308563	-0.115435	-0.082597
H540	H	0.347300	-0.096449	-0.108816
H541	H	0.331011	-0.068443	-0.120553
H542	H	0.026610	-0.437601	0.411408
C543	C	0.414326	-0.324536	0.029011
H544	H	0.439500	-0.316069	0.029126
H545	H	0.415620	-0.301007	0.006926
H546	H	0.400562	-0.331132	0.051330
H547	H	0.351887	-0.267865	0.019117
C548	C	0.243382	0.618414	-0.355594
H549	H	0.259336	0.608568	-0.347685
H550	H	0.236940	0.624198	-0.338761
H551	H	0.220669	0.596198	-0.355044
H552	H	-0.253501	0.002211	-0.411341
C553	C	-0.253341	0.007712	-0.303337
H554	H	-0.253231	0.032992	-0.320038
H555	H	-0.275419	-0.013060	-0.281095
H556	H	-0.231011	0.016268	-0.296185
H557	H	0.533437	-0.267881	0.019126
H558	H	0.116565	0.182198	0.113966
H559	H	0.409004	0.562174	-0.308687
C560	C	0.192309	0.112022	0.189855
H561	H	0.217080	0.127750	0.172846
H562	H	0.194625	0.114348	0.210803
H563	H	0.178354	0.081802	0.199066
H564	H	0.603562	-0.230095	0.013868
C565	C	0.073028	-0.381859	0.189842
H566	H	0.063987	-0.389615	0.172833
H567	H	0.073039	-0.405122	0.210790
H568	H	0.056759	-0.377107	0.199054
C569	C	0.528175	-0.381631	0.019532
H570	H	0.545263	-0.389298	0.018248
H571	H	0.507232	-0.404936	0.042806
H572	H	0.518967	-0.376926	-0.001486
H573	H	-0.301303	-0.267870	0.365825
C574	C	0.362587	-0.547422	0.019547
H575	H	0.371627	-0.563155	0.018276
H576	H	0.378854	-0.517202	-0.001466
H577	H	0.362573	-0.549754	0.042826
C578	C	-0.262806	-0.053516	-0.189782
H579	H	-0.264089	-0.045759	-0.172773
H580	H	-0.239531	-0.030255	-0.210730
H581	H	-0.283827	-0.058266	-0.198993
C582	C	-0.262869	0.111750	-0.355099
H583	H	-0.264145	0.127481	-0.346063
H584	H	-0.283877	0.081530	-0.338828
H585	H	-0.239584	0.114084	-0.355115
C586	C	0.325185	-0.622474	0.013451
H587	H	0.349939	-0.606675	0.014729
H588	H	0.311280	-0.652689	0.034463
H589	H	0.327554	-0.620135	-0.009828
C590	C	0.243421	-0.547654	0.019522
H591	H	0.218670	-0.563447	0.018236
H592	H	0.241053	-0.549985	0.042796
H593	H	0.257331	-0.517438	-0.001496
C594	C	0.325192	0.377545	-0.108623
H595	H	0.349943	0.393342	-0.125707
H596	H	0.327559	0.379874	-0.087679
H597	H	0.311285	0.347330	-0.099418
C598	C	0.021265	-0.443091	0.303399
H599	H	-0.003905	-0.468370	0.320099
H600	H	0.019961	-0.422314	0.281159
H601	H	0.035036	-0.451646	0.296241
C602	C	0.527923	0.617913	-0.355108
H603	H	0.544936	0.610150	-0.346073
H604	H	0.518703	0.622650	-0.338836
H605	H	0.506977	0.594655	-0.355124
C606	C	-0.301627	-0.547396	0.474567
H607	H	-0.300348	-0.563125	0.499337
H608	H	-0.280618	-0.517176	0.460607
H609	H	-0.324912	-0.549731	0.476888
C610	C	-0.262826	-0.053532	-0.474491
H611	H	-0.264103	-0.045771	-0.499261
H612	H	-0.283842	-0.058276	-0.460531
H613	H	-0.239547	-0.030270	-0.476812
C614	C	-0.268880	-0.216139	-0.393263
H615	H	-0.270817	-0.225898	-0.409282
H616	H	-0.246257	-0.210396	-0.386834
H617	H	-0.290552	-0.238403	-0.370551
C618	C	-0.262797	-0.172650	-0.355597
H619	H	-0.264073	-0.198676	-0.346646
H620	H	-0.239522	-0.151746	-0.355564
H621	H	-0.283817	-0.179756	-0.339284
H622	H	-0.295920	-0.617353	0.501578
H623	H	-0.263206	-0.167500	-0.184012
H624	H	-0.311015	-0.437868	0.308760
H625	H	-0.310997	-0.437856	0.411415
C626	C	-0.311192	-0.324542	0.303412
H627	H	-0.311311	-0.316075	0.320112
H628	H	-0.289113	-0.301009	0.281172
H629	H	-0.333521	-0.331152	0.296255
H630	H	-0.296068	-0.230090	0.114199
H631	H	-0.301206	-0.552739	0.366324
C632	C	0.609101	0.661413	-0.392515
H633	H	0.592021	0.635388	-0.367764
H634	H	0.618319	0.654314	-0.406424
H635	H	0.630040	0.682318	-0.390145
H636	H	0.186824	-0.064337	0.365816
C637	C	0.528158	0.737054	-0.474242
H638	H	0.545239	0.763085	-0.498990
H639	H	0.507215	0.716156	-0.476613
H640	H	0.518947	0.744154	-0.460327
C641	C	0.362528	0.737282	-0.474490
H642	H	0.371560	0.763321	-0.499260
H643	H	0.378798	0.744332	-0.460530
H644	H	0.362521	0.716330	-0.476811
C645	C	0.325101	0.781033	-0.512147
H646	H	0.349859	0.788705	-0.521095
H647	H	0.311196	0.776346	-0.528467
H648	H	0.327461	0.804332	-0.512170
C649	C	0.205952	0.662161	-0.393256
H650	H	0.196917	0.636117	-0.368489
H651	H	0.205955	0.683109	-0.390933
H652	H	0.189684	0.655112	-0.407218
C653	C	0.021148	0.007993	-0.028961
H654	H	-0.004022	-0.008586	-0.029079
H655	H	0.019846	0.008151	-0.006881
H656	H	0.034913	0.037468	-0.051285
C657	C	0.206017	0.377295	-0.108354
H658	H	0.198195	0.353451	-0.082578
H659	H	0.205412	0.399399	-0.108793
H660	H	0.189143	0.366856	-0.120533
