data_functionalizedCrystal
_audit_creation_method	'MofGen! by Chris Wilmer'
_symmetry_space_group_name_H-M	'P1'
_symmetry_Int_Tables_number	1
_symmetry_cell_setting	triclinic
loop_
_symmetry_equiv_pos_as_xyz
  x,y,z
_cell_length_a	23.532407
_cell_length_b	19.288865
_cell_length_c	18.366186
_cell_angle_alpha	90.011479
_cell_angle_beta	89.988493
_cell_angle_gamma	97.007538
loop_
_atom_site_label
_atom_site_type_symbol
_atom_site_fract_x
_atom_site_fract_y
_atom_site_fract_z
O1	O	0.755438	-0.084319	-0.060599
O2	O	1.005438	0.165681	0.189401
O3	O	1.255438	0.415681	0.439401
O4	O	1.505438	0.665681	0.689401
O5	O	0.589600	-0.096519	-0.060592
O6	O	0.839600	0.153481	0.189408
O7	O	1.089600	0.403481	0.439408
O8	O	1.339600	0.653481	0.689408
O9	O	0.677311	0.010726	-0.060581
O10	O	0.927311	0.260726	0.189419
O11	O	1.177311	0.510726	0.439419
O12	O	1.427311	0.760726	0.689419
O13	O	0.667727	-0.191564	-0.060610
O14	O	0.917727	0.058436	0.189390
O15	O	1.167727	0.308436	0.439390
O16	O	1.417727	0.558436	0.689390
O17	O	0.677296	0.010731	0.060518
O18	O	0.927296	0.260731	0.310518
O19	O	1.177296	0.510731	0.560518
O20	O	1.427296	0.760731	0.810518
O21	O	0.589585	-0.096514	0.060507
O22	O	0.839585	0.153486	0.310507
O23	O	1.089585	0.403486	0.560507
O24	O	1.339585	0.653486	0.810507
O25	O	0.755423	-0.084314	0.060501
O26	O	1.005423	0.165686	0.310501
O27	O	1.255423	0.415686	0.560501
O28	O	1.505423	0.665686	0.810501
Zn29	Zn	0.672502	-0.090413	0.079731
Zn30	Zn	0.922502	0.159587	0.329731
Zn31	Zn	1.172502	0.409587	0.579731
Zn32	Zn	1.422502	0.659587	0.829731
Zn33	Zn	0.672521	-0.090420	-0.079823
Zn34	Zn	0.922521	0.159580	0.170177
Zn35	Zn	1.172521	0.409580	0.420177
Zn36	Zn	1.422521	0.659580	0.670177
O37	O	0.667712	-0.191559	0.060490
O38	O	0.917712	0.058441	0.310490
O39	O	1.167712	0.308441	0.560490
O40	O	1.417712	0.558441	0.810490
C41	C	0.568376	-0.096206	-0.000042
C42	C	0.818376	0.153794	0.249958
C43	C	1.068376	0.403794	0.499958
C44	C	1.318376	0.653794	0.749958
C45	C	0.505157	-0.095272	-0.000039
C46	C	0.755157	0.154728	0.249961
C47	C	1.005157	0.404728	0.499961
C48	C	1.255157	0.654728	0.749961
C49	C	0.676995	0.036604	-0.000029
C50	C	0.926995	0.286604	0.249971
C51	C	1.176995	0.536604	0.499971
C52	C	1.426995	0.786604	0.749971
C53	C	0.676069	0.113705	-0.000023
C54	C	0.926069	0.363705	0.249977
C55	C	1.176069	0.613705	0.499977
C56	C	1.426069	0.863705	0.749977
C57	C	0.776647	-0.084627	-0.000052
C58	C	1.026647	0.165373	0.249948
C59	C	1.276647	0.415373	0.499948
C60	C	1.526647	0.665373	0.749948
C61	C	0.839866	-0.085561	-0.000059
C62	C	1.089866	0.164439	0.249941
C63	C	1.339866	0.414439	0.499941
C64	C	1.589866	0.664439	0.749941
C65	C	1.238850	-0.027954	-0.000026
C66	C	1.488850	0.222046	0.249974
C67	C	1.738850	0.472046	0.499974
C68	C	1.988850	0.722046	0.749974
C69	C	1.298252	-0.028822	-0.000023
C70	C	1.548252	0.221178	0.249977
C71	C	1.798252	0.471178	0.499977
C72	C	2.048252	0.721178	0.749977
O73	O	1.334886	0.024580	0.000011
O74	O	1.584886	0.274580	0.250011
O75	O	1.834886	0.524580	0.500011
O76	O	2.084886	0.774580	0.750011
N77	N	1.321010	-0.092579	-0.000034
N78	N	1.571010	0.157421	0.249966
N79	N	1.821010	0.407421	0.499966
N80	N	2.071010	0.657421	0.749966
C81	C	1.284363	-0.155473	-0.000041
C82	C	1.534363	0.094527	0.249959
C83	C	1.784363	0.344527	0.499959
C84	C	2.034363	0.594527	0.749959
O85	O	1.309175	-0.209783	-0.000049
O86	O	1.559175	0.040217	0.249951
O87	O	1.809175	0.290217	0.499951
O88	O	2.059175	0.540217	0.749951
C89	C	1.224962	-0.154604	-0.000039
C90	C	1.474962	0.095396	0.249961
C91	C	1.724962	0.345396	0.499961
C92	C	1.974962	0.595396	0.749961
C93	C	1.202207	-0.090843	-0.000035
C94	C	1.452207	0.159157	0.249965
C95	C	1.702207	0.409157	0.499965
C96	C	1.952207	0.659157	0.749965
C97	C	1.216094	0.035802	-0.000022
C98	C	1.466094	0.285802	0.249978
C99	C	1.716094	0.535802	0.499978
C100	C	1.966094	0.785802	0.749978
C101	C	1.156696	0.036669	-0.000026
C102	C	1.406696	0.286669	0.249974
C103	C	1.656696	0.536669	0.499974
C104	C	1.906696	0.786669	0.749974
C105	C	1.120054	-0.026220	-0.000035
C106	C	1.370054	0.223780	0.249965
C107	C	1.620054	0.473780	0.499965
C108	C	1.870054	0.723780	0.749965
C109	C	1.142809	-0.089976	-0.000040
C110	C	1.392809	0.160024	0.249960
C111	C	1.642809	0.410024	0.499960
C112	C	1.892809	0.660024	0.749960
C113	C	1.188316	-0.217497	-0.000040
C114	C	1.438316	0.032503	0.249960
C115	C	1.688316	0.282503	0.499960
C116	C	1.938316	0.532503	0.749960
C117	C	1.128912	-0.216623	-0.000038
C118	C	1.378912	0.033377	0.249962
C119	C	1.628912	0.283377	0.499962
C120	C	1.878912	0.533377	0.749962
C121	C	1.106157	-0.152862	-0.000034
C122	C	1.356157	0.097138	0.249966
C123	C	1.606157	0.347138	0.499966
C124	C	1.856157	0.597138	0.749966
C125	C	1.046769	-0.151997	-0.000053
C126	C	1.296769	0.098003	0.249947
C127	C	1.546769	0.348003	0.499947
C128	C	1.796769	0.598003	0.749947
N129	N	1.024011	-0.088240	-0.000042
N130	N	1.274011	0.161760	0.249958
N131	N	1.524011	0.411760	0.499958
N132	N	1.774011	0.661760	0.749958
C133	C	1.060653	-0.025351	-0.000033
C134	C	1.310653	0.224649	0.249967
C135	C	1.560653	0.474649	0.499967
C136	C	1.810653	0.724649	0.749967
C137	C	1.409109	-0.157292	-0.000044
C138	C	1.659109	0.092708	0.249956
C139	C	1.909109	0.342708	0.499956
C140	C	2.159109	0.592708	0.749956
C141	C	1.468509	-0.158161	-0.000051
C142	C	1.718509	0.091839	0.249949
C143	C	1.968509	0.341839	0.499949
C144	C	2.218509	0.591839	0.749949
C145	C	1.482394	-0.031510	-0.000032
C146	C	1.732394	0.218490	0.249968
C147	C	1.982394	0.468490	0.499968
C148	C	2.232394	0.718490	0.749968
C149	C	1.422993	-0.030641	-0.000030
C150	C	1.672993	0.219359	0.249970
C151	C	1.922993	0.469359	0.499970
C152	C	2.172993	0.719359	0.749970
C153	C	1.386351	-0.093535	-0.000033
C154	C	1.636351	0.156465	0.249967
C155	C	1.886351	0.406465	0.499967
C156	C	2.136351	0.656465	0.749967
C157	C	0.935913	-0.023534	-0.000043
C158	C	1.185913	0.226466	0.249957
C159	C	1.435913	0.476466	0.499957
C160	C	1.685913	0.726466	0.749957
C161	C	0.876509	-0.022672	-0.000050
C162	C	1.126509	0.227328	0.249950
C163	C	1.376509	0.477328	0.499950
C164	C	1.626509	0.727328	0.749950
C165	C	0.862629	-0.149323	-0.000066
C166	C	1.112629	0.100677	0.249934
C167	C	1.362629	0.350677	0.499934
C168	C	1.612629	0.600677	0.749934
C169	C	0.922028	-0.150185	-0.000062
C170	C	1.172028	0.099815	0.249938
C171	C	1.422028	0.349815	0.499938
C172	C	1.672028	0.599815	0.749938
C173	C	0.958669	-0.087285	-0.000048
C174	C	1.208669	0.162715	0.249952
C175	C	1.458669	0.412715	0.499952
C176	C	1.708669	0.662715	0.749952
O177	O	1.010100	-0.205371	-0.000084
O178	O	1.260100	0.044629	0.249916
O179	O	1.510100	0.294629	0.499916
O180	O	1.760100	0.544629	0.749916
O181	O	1.035833	0.028950	-0.000015
O182	O	1.285833	0.278950	0.249985
O183	O	1.535833	0.528950	0.499985
O184	O	1.785833	0.778950	0.749985
C185	C	0.668028	-0.217437	-0.000064
C186	C	0.918028	0.032563	0.249936
C187	C	1.168028	0.282563	0.499936
C188	C	1.418028	0.532563	0.749936
C189	C	0.668954	-0.294538	-0.000075
C190	C	0.918954	-0.044538	0.249925
C191	C	1.168954	0.205462	0.499925
C192	C	1.418954	0.455462	0.749925
N193	N	0.672493	-0.090408	0.188622
N194	N	0.922493	0.159592	0.438622
N195	N	1.172493	0.409592	0.688622
N196	N	1.422493	0.659592	0.938622
C197	C	0.727534	0.158560	-0.000021
C198	C	0.977534	0.408560	0.249979
C199	C	1.227534	0.658560	0.499979
C200	C	1.477534	0.908560	0.749979
C201	C	0.726664	0.231004	-0.000033
C202	C	0.976664	0.481004	0.249967
C203	C	1.226664	0.731004	0.499967
C204	C	1.476664	0.981004	0.749967
C205	C	0.674327	0.258590	-0.000031
C206	C	0.924327	0.508590	0.249969
C207	C	1.174327	0.758590	0.499969
C208	C	1.424327	1.008590	0.749969
C209	C	0.622855	0.213725	-0.000037
C210	C	0.872855	0.463725	0.249963
C211	C	1.122855	0.713725	0.499963
C212	C	1.372855	0.963725	0.749963
C213	C	0.623727	0.141283	-0.000033
C214	C	0.873727	0.391283	0.249967
C215	C	1.123727	0.641283	0.499967
C216	C	1.373727	0.891283	0.749967
C217	C	0.633179	0.366753	0.042389
C218	C	0.883179	0.616753	0.292389
C219	C	1.133179	0.866753	0.542389
C220	C	1.383179	1.116753	0.792389
C221	C	0.632310	0.439194	0.042389
C222	C	0.882310	0.689194	0.292389
C223	C	1.132310	0.939194	0.542389
C224	C	1.382310	1.189194	0.792389
C225	C	0.671638	0.482028	-0.000048
C226	C	0.921638	0.732028	0.249952
C227	C	1.171638	0.982028	0.499952
C228	C	1.421638	1.232028	0.749952
C229	C	0.711845	0.452412	-0.042475
C230	C	0.961845	0.702412	0.207525
C231	C	1.211845	0.952412	0.457525
C232	C	1.461845	1.202412	0.707525
C233	C	0.712716	0.379969	-0.042471
C234	C	0.962716	0.629969	0.207529
C235	C	1.212716	0.879969	0.457529
C236	C	1.462716	1.129969	0.707529
C237	C	0.673377	0.337141	-0.000036
C238	C	0.923377	0.587141	0.249964
C239	C	1.173377	0.837141	0.499964
C240	C	1.423377	1.087141	0.749964
C241	C	0.722163	0.605436	-0.000059
C242	C	0.972163	0.855436	0.249941
C243	C	1.222163	1.105436	0.499941
C244	C	1.472163	1.355436	0.749941
C245	C	0.721292	0.677881	-0.000075
C246	C	0.971292	0.927881	0.249925
C247	C	1.221292	1.177881	0.499925
C248	C	1.471292	1.427881	0.749925
C249	C	0.617481	0.660601	-0.000072
C250	C	0.867481	0.910601	0.249928
C251	C	1.117481	1.160601	0.499928
C252	C	1.367481	1.410601	0.749928
C253	C	0.618354	0.588157	-0.000064
C254	C	0.868354	0.838157	0.249936
C255	C	1.118354	1.088157	0.499936
C256	C	1.368354	1.338157	0.749936
C257	C	0.670697	0.560579	-0.000054
C258	C	0.920697	0.810579	0.249946
C259	C	1.170697	1.060579	0.499946
C260	C	1.420697	1.310579	0.749946
N261	N	0.672535	-0.090420	-0.188714
N262	N	0.922535	0.159580	0.061286
N263	N	1.172535	0.409580	0.311286
N264	N	1.422535	0.659580	0.561286
C265	C	0.711344	-0.042943	0.226727
C266	C	0.961344	0.207057	0.476727
C267	C	1.211344	0.457057	0.726727
C268	C	1.461344	0.707057	0.976727
C269	C	0.711347	-0.042940	0.302955
C270	C	0.961347	0.207060	0.552955
C271	C	1.211347	0.457060	0.802955
C272	C	1.461347	0.707060	1.052955
C273	C	0.672505	-0.090414	0.341075
C274	C	0.922505	0.159586	0.591075
C275	C	1.172505	0.409586	0.841075
C276	C	1.422505	0.659586	1.091075
C277	C	0.633647	-0.137882	0.302960
C278	C	0.883647	0.112118	0.552960
C279	C	1.133647	0.362118	0.802960
C280	C	1.383647	0.612118	1.052960
C281	C	0.633640	-0.137880	0.226734
C282	C	0.883640	0.112120	0.476734
C283	C	1.133640	0.362120	0.726734
C284	C	1.383640	0.612120	0.976734
C285	C	0.664881	-0.153725	0.461826
C286	C	0.914881	0.096275	0.711826
C287	C	1.164881	0.346275	0.961826
C288	C	1.414881	0.596275	1.211826
C289	C	0.664892	-0.153729	0.538051
C290	C	0.914892	0.096271	0.788051
C291	C	1.164892	0.346271	1.038051
C292	C	1.414892	0.596271	1.288051
C293	C	0.672521	-0.090422	0.576182
C294	C	0.922521	0.159578	0.826182
C295	C	1.172521	0.409578	1.076182
C296	C	1.422521	0.659578	1.326182
C297	C	0.680153	-0.027109	0.538079
C298	C	0.930153	0.222891	0.788079
C299	C	1.180153	0.472891	1.038079
C300	C	1.430153	0.722891	1.288079
C301	C	0.680147	-0.027107	0.461853
C302	C	0.930147	0.222893	0.711853
C303	C	1.180147	0.472893	0.961853
C304	C	1.430147	0.722893	1.211853
C305	C	0.672507	-0.090422	0.423730
C306	C	0.922507	0.159578	0.673730
C307	C	1.172507	0.409578	0.923730
C308	C	1.422507	0.659578	1.173730
C309	C	0.711378	-0.042950	0.696943
C310	C	0.961378	0.207050	0.946943
C311	C	1.211378	0.457050	1.196943
C312	C	1.461378	0.707050	1.446943
C313	C	0.711378	-0.042946	0.773172
C314	C	0.961378	0.207054	1.023172
C315	C	1.211378	0.457054	1.273172
C316	C	1.461378	0.707054	1.523172
C317	C	0.633680	-0.137895	0.773176
C318	C	0.883680	0.112105	1.023176
C319	C	1.133680	0.362105	1.273176
C320	C	1.383680	0.612105	1.523176
C321	C	0.633678	-0.137893	0.696948
C322	C	0.883678	0.112107	0.946948
C323	C	1.133678	0.362107	1.196948
C324	C	1.383678	0.612107	1.446948
C325	C	0.672530	-0.090421	0.658836
C326	C	0.922530	0.159579	0.908836
C327	C	1.172530	0.409579	1.158836
C328	C	1.422530	0.659579	1.408836
H329	H	0.857985	0.029252	-0.000049
H330	H	1.107985	0.279252	0.249951
H331	H	1.357985	0.529252	0.499951
H332	H	1.607985	0.779252	0.749951
Cl333	Cl	0.655342	-0.233320	0.413898
Cl334	Cl	0.905342	0.016680	0.663898
Cl335	Cl	1.155342	0.266680	0.913898
Cl336	Cl	1.405342	0.516680	1.163898
H337	H	0.602020	-0.176535	0.334001
H338	H	0.852020	0.073465	0.584001
H339	H	1.102020	0.323465	0.834001
H340	H	1.352020	0.573465	1.084001
H341	H	1.487030	-0.210082	-0.000065
H342	H	1.737030	0.039918	0.249935
H343	H	1.987030	0.289918	0.499935
H344	H	2.237030	0.539918	0.749935
Cl345	Cl	0.793336	0.123894	-0.000030
Cl346	Cl	1.043336	0.373894	0.249970
Cl347	Cl	1.293336	0.623894	0.499970
Cl348	Cl	1.543336	0.873894	0.749970
H349	H	0.743870	0.487285	-0.077031
H350	H	0.993870	0.737285	0.172969
H351	H	1.243870	0.987285	0.422969
H352	H	1.493870	1.237285	0.672969
H353	H	0.764784	0.582981	-0.000055
H354	H	1.014784	0.832981	0.249945
H355	H	1.264784	1.082981	0.499945
H356	H	1.514784	1.332981	0.749945
H357	H	0.686365	0.024441	0.569124
H358	H	0.936365	0.274441	0.819124
H359	H	1.186365	0.524441	1.069124
H360	H	1.436365	0.774441	1.319124
Cl361	Cl	0.584796	-0.197555	0.178827
Cl362	Cl	0.834796	0.052445	0.428827
Cl363	Cl	1.084796	0.302445	0.678827
Cl364	Cl	1.334796	0.552445	0.928827
H365	H	0.965739	0.027685	-0.000032
H366	H	1.215739	0.277685	0.249968
H367	H	1.465739	0.527685	0.499968
H368	H	1.715739	0.777685	0.749968
Cl369	Cl	1.363050	-0.236366	-0.000057
Cl370	Cl	1.613050	0.013634	0.249943
Cl371	Cl	1.863050	0.263634	0.499943
Cl372	Cl	2.113050	0.513634	0.749943
Cl373	Cl	0.760182	0.016737	0.178816
Cl374	Cl	1.010182	0.266737	0.428816
Cl375	Cl	1.260182	0.516737	0.678816
Cl376	Cl	1.510182	0.766737	0.928816
H377	H	0.602044	-0.176546	0.665920
H378	H	0.852044	0.073454	0.915920
H379	H	1.102044	0.323454	1.165920
H380	H	1.352044	0.573454	1.415920
Cl381	Cl	1.128100	0.116831	-0.000028
Cl382	Cl	1.378100	0.366831	0.249972
Cl383	Cl	1.628100	0.616831	0.499972
Cl384	Cl	1.878100	0.866831	0.749972
Cl385	Cl	0.760218	0.016732	0.649029
Cl386	Cl	1.010218	0.266732	0.899029
Cl387	Cl	1.260218	0.516732	1.149029
Cl388	Cl	1.510218	0.766732	1.399029
Cl389	Cl	0.763256	0.342739	-0.095810
Cl390	Cl	1.013256	0.592739	0.154190
Cl391	Cl	1.263256	0.842739	0.404190
Cl392	Cl	1.513256	1.092739	0.654190
Cl393	Cl	1.262150	0.114873	-0.000010
Cl394	Cl	1.512150	0.364873	0.249990
Cl395	Cl	1.762150	0.614873	0.499990
Cl396	Cl	2.012150	0.864873	0.749990
H397	H	0.576446	0.551635	-0.000061
H398	H	0.826446	0.801635	0.249939
H399	H	1.076446	1.051635	0.499939
H400	H	1.326446	1.301635	0.749939
Cl401	Cl	0.583733	0.312912	0.095745
Cl402	Cl	0.833733	0.562912	0.345745
Cl403	Cl	1.083733	0.812912	0.595745
Cl404	Cl	1.333733	1.062912	0.845745
Cl405	Cl	1.082851	-0.295695	-0.000039
Cl406	Cl	1.332851	-0.045695	0.249961
Cl407	Cl	1.582851	0.204305	0.499961
Cl408	Cl	1.832851	0.454305	0.749961
Cl409	Cl	0.785997	0.734272	-0.000078
Cl410	Cl	1.035997	0.984272	0.249922
Cl411	Cl	1.285997	1.234272	0.499922
Cl412	Cl	1.535997	1.484272	0.749922
H413	H	0.574867	0.683060	-0.000075
H414	H	0.824867	0.933060	0.249925
H415	H	1.074867	1.183060	0.499925
H416	H	1.324867	1.433060	0.749925
H417	H	0.832784	-0.200525	-0.000077
H418	H	1.082784	0.049475	0.249923
H419	H	1.332784	0.299475	0.499923
H420	H	1.582784	0.549475	0.749923
H421	H	0.581816	0.104761	-0.000034
H422	H	0.831816	0.354761	0.249966
H423	H	1.081816	0.604761	0.499966
H424	H	1.331816	0.854761	0.749966
Cl425	Cl	1.394393	0.049518	-0.000022
Cl426	Cl	1.644393	0.299518	0.249978
Cl427	Cl	1.894393	0.549518	0.499978
Cl428	Cl	2.144393	0.799518	0.749978
Cl429	Cl	0.760194	0.016735	0.350867
Cl430	Cl	1.010194	0.266735	0.600867
Cl431	Cl	1.260194	0.516735	0.850867
Cl432	Cl	1.510194	0.766735	1.100867
Cl433	Cl	0.584846	-0.197571	0.821092
Cl434	Cl	0.834846	0.052429	1.071092
Cl435	Cl	1.084846	0.302429	1.321092
Cl436	Cl	1.334846	0.552429	1.571092
H437	H	1.206832	-0.269419	-0.000047
H438	H	1.456832	-0.019419	0.249953
H439	H	1.706832	0.230581	0.499953
H440	H	1.956832	0.480581	0.749953
Cl441	Cl	0.581766	0.476419	0.095729
Cl442	Cl	0.831766	0.726419	0.345729
Cl443	Cl	1.081766	0.976419	0.595729
Cl444	Cl	1.331766	1.226419	0.845729
H445	H	0.768575	0.267532	-0.000034
H446	H	1.018575	0.517532	0.249966
H447	H	1.268575	0.767532	0.499966
H448	H	1.518575	1.017532	0.749966
Cl449	Cl	1.528470	0.047551	-0.000021
Cl450	Cl	1.778470	0.297551	0.249979
Cl451	Cl	2.028470	0.547551	0.499979
Cl452	Cl	2.278470	0.797551	0.749979
H453	H	0.940555	-0.202105	-0.000066
H454	H	1.190555	0.047895	0.249934
H455	H	1.440555	0.297895	0.499934
H456	H	1.690555	0.547895	0.749934
Cl457	Cl	0.557060	0.248404	-0.000041
Cl458	Cl	0.807060	0.498404	0.249959
Cl459	Cl	1.057060	0.748404	0.499959
Cl460	Cl	1.307060	0.998404	0.749959
H461	H	0.686359	0.024445	0.430832
H462	H	0.936359	0.274445	0.680832
H463	H	1.186359	0.524445	0.930832
H464	H	1.436359	0.774445	1.180832
Cl465	Cl	0.655302	-0.233321	0.585945
Cl466	Cl	0.905302	0.016679	0.835945
Cl467	Cl	1.155302	0.266679	1.085945
Cl468	Cl	1.405302	0.516679	1.335945
Cl469	Cl	0.760220	0.016733	0.821079
Cl470	Cl	1.010220	0.266733	1.071079
Cl471	Cl	1.260220	0.516733	1.321079
Cl472	Cl	1.510220	0.766733	1.571079
