data_functionalizedCrystal
_audit_creation_method	'MofGen! by Chris Wilmer'
_symmetry_space_group_name_H-M	'P1'
_symmetry_Int_Tables_number	1
_symmetry_cell_setting	triclinic
loop_
_symmetry_equiv_pos_as_xyz
  x,y,z
_cell_length_a	8.634740
_cell_length_b	15.944545
_cell_length_c	7.088929
_cell_angle_alpha	83.773894
_cell_angle_beta	97.174675
_cell_angle_gamma	92.033240
loop_
_atom_site_label
_atom_site_type_symbol
_atom_site_fract_x
_atom_site_fract_y
_atom_site_fract_z
O1	O	2.030245	0.281217	-0.159023
O2	O	1.581292	0.258253	-0.159022
O3	O	1.818036	0.148451	-0.159000
O4	O	1.793501	0.391019	-0.159045
O5	O	1.849674	0.133738	0.158979
O6	O	1.612930	0.243540	0.158956
O7	O	2.061883	0.266504	0.158956
Cu8	Cu	1.840296	0.253679	0.187990
Cu9	Cu	1.802880	0.271078	-0.188056
O10	O	1.825140	0.376306	0.158933
C11	C	1.539660	0.245694	-0.000033
C12	C	1.368476	0.230183	-0.000032
C13	C	1.832838	0.109718	-0.000009
C14	C	1.829791	0.016225	-0.000003
C15	C	1.673937	-0.267015	-0.000042
C16	C	1.733476	-0.203096	-0.156823
C17	C	1.818916	-0.320296	-0.000058
C18	C	1.764707	-0.217626	0.156679
C19	C	1.824252	-0.154952	-0.000028
C20	C	1.878404	-0.257603	-0.156968
C21	C	1.909628	-0.272144	0.156674
C22	C	1.969270	-0.208248	-0.000145
C23	C	1.815838	-0.415546	-0.000077
C24	C	1.827340	-0.059703	-0.000023
C25	C	2.103514	0.279063	-0.000038
C26	C	2.274697	0.294575	-0.000052
C27	C	1.810336	0.415039	-0.000062
C28	C	1.813382	0.508533	-0.000080
N29	N	1.866623	0.241441	0.452480
N30	N	1.776564	0.283310	-0.452547
H31	H	1.325372	0.361570	-0.000047
H32	H	1.683228	0.326698	0.465798
C33	C	1.632950	-0.162406	-0.335870
H34	H	1.528098	-0.182565	-0.335682
H35	H	1.672339	-0.176724	-0.447207
H36	H	1.636368	-0.102822	-0.335154
C37	C	1.300033	0.139670	-0.000022
H38	H	1.381822	0.101353	0.000005
H39	H	1.227004	0.136036	-0.110909
H40	H	1.249068	0.125775	0.110877
H41	H	1.549061	-0.292761	-0.000195
C42	C	1.943209	-0.281529	-0.336234
H43	H	1.940831	-0.341192	-0.335185
H44	H	2.047748	-0.260908	-0.336692
H45	H	1.880995	-0.257258	-0.447429
C46	C	2.138053	-0.173648	-0.000263
H47	H	2.178217	-0.187236	-0.111735
H48	H	2.200886	-0.198253	0.110050
H49	H	2.139172	-0.114100	0.000780
C50	C	2.010081	-0.312863	0.335734
H51	H	1.969472	-0.299411	0.447030
H52	H	2.114537	-0.291934	0.336863
H53	H	2.008170	-0.372374	0.333801
C54	C	1.699782	-0.193541	0.335728
H55	H	1.594899	-0.213697	0.335519
H56	H	1.703058	-0.133897	0.335058
H57	H	1.761316	-0.218188	0.447069
C58	C	1.992725	0.182826	0.562788
H59	H	1.990923	0.183663	0.696295
H60	H	2.092438	0.201732	0.530050
H61	H	1.972584	0.126913	0.530091
