data_functionalizedCrystal
_audit_creation_method	'MofGen! by Chris Wilmer'
_symmetry_space_group_name_H-M	'P1'
_symmetry_Int_Tables_number	1
_symmetry_cell_setting	triclinic
loop_
_symmetry_equiv_pos_as_xyz
  x,y,z
_cell_length_a	10.489711
_cell_length_b	10.489746
_cell_length_c	8.965430
_cell_angle_alpha	90.001047
_cell_angle_beta	89.998649
_cell_angle_gamma	84.534155
loop_
_atom_site_label
_atom_site_type_symbol
_atom_site_fract_x
_atom_site_fract_y
_atom_site_fract_z
O1	O	1.694066	0.179781	0.124095
O2	O	1.322866	0.196713	0.124086
O3	O	1.516909	0.002649	0.124079
O4	O	1.500023	0.373845	0.124101
O5	O	1.516918	0.002655	-0.123999
O6	O	1.322875	0.196719	-0.123993
O7	O	1.694075	0.179787	-0.123984
Cu8	Cu	1.508476	0.188254	-0.146640
Cu9	Cu	1.508465	0.188246	0.146742
O10	O	1.500032	0.373851	-0.123978
C11	C	1.275338	0.195445	0.000045
C12	C	1.133707	0.191643	0.000042
C13	C	0.951322	0.308348	0.000066
C14	C	1.043462	0.250049	0.122376
C15	C	1.043444	0.250024	-0.122211
C16	C	0.973509	0.126507	0.122484
C17	C	0.973481	0.126499	-0.122212
C18	C	1.065594	0.068111	0.000128
C19	C	1.515637	-0.044880	0.000040
C20	C	1.511817	-0.186509	0.000041
C21	C	1.386092	-0.339353	0.000057
C22	C	1.448945	-0.261971	0.122371
C23	C	1.448983	-0.262006	-0.122215
C24	C	1.567928	-0.361475	0.122489
C25	C	1.567949	-0.361515	-0.122207
C26	C	1.630889	-0.284182	0.000137
C27	C	1.741603	0.181055	0.000060
C28	C	1.883234	0.184857	0.000073
C29	C	1.501304	0.421380	0.000065
C30	C	1.505124	0.563008	0.000074
N31	N	1.508493	0.188258	-0.352989
C32	C	1.598260	0.098516	-0.450258
C33	C	1.482763	0.072693	-0.549667
C34	C	1.623945	0.213998	-0.549708
C35	C	1.392937	0.162378	-0.450209
C36	C	1.534195	0.303733	-0.450241
C37	C	1.418615	0.277959	-0.549605
N38	N	1.508458	0.188232	0.353091
H39	H	1.074405	0.302300	-0.225616
H40	H	1.282589	-0.364061	0.000176
C41	C	0.884185	0.445466	0.000242
N42	N	0.833614	0.548740	0.000384
H43	H	1.398692	-0.218492	0.225779
C44	C	1.635753	-0.419951	0.262354
N45	N	1.686833	-0.463997	0.367703
C46	C	1.770822	-0.251130	0.000226
N47	N	1.876219	-0.226235	0.000299
H48	H	1.074454	0.302302	0.225782
C49	C	1.635772	-0.420296	-0.261913
N50	N	1.686845	-0.464572	-0.367152
H51	H	0.942462	0.074292	-0.225628
C52	C	0.931886	0.055980	0.262344
N53	N	0.900531	0.002865	0.367688
H54	H	1.115050	-0.033484	0.000184
H55	H	1.398715	-0.218553	-0.225624
C56	C	1.563649	0.435631	-0.391182
N57	N	1.585849	0.534976	-0.346694
C58	C	1.700713	-0.004062	-0.391314
N59	N	1.777873	-0.081327	-0.346913
H60	H	1.461000	-0.024972	-0.593342
H61	H	1.295263	0.140485	-0.406688
H62	H	1.342603	0.353844	-0.592951
H63	H	1.721596	0.235780	-0.593413
