data_functionalizedCrystal
_audit_creation_method	'MofGen! by Chris Wilmer'
_symmetry_space_group_name_H-M	'P1'
_symmetry_Int_Tables_number	1
_symmetry_cell_setting	triclinic
loop_
_symmetry_equiv_pos_as_xyz
  x,y,z
_cell_length_a	16.625547
_cell_length_b	16.625546
_cell_length_c	18.215399
_cell_angle_alpha	90.029595
_cell_angle_beta	90.023440
_cell_angle_gamma	90.022405
loop_
_atom_site_label
_atom_site_type_symbol
_atom_site_fract_x
_atom_site_fract_y
_atom_site_fract_z
Zn1	Zn	1.232669	-0.321008	0.416190
Zn2	Zn	1.232576	-0.455849	0.293121
Zn3	Zn	1.097835	-0.321034	0.293128
Zn4	Zn	1.097802	-0.455802	0.416137
O5	O	1.165220	-0.388423	0.354644
O6	O	1.345489	-0.338904	0.399884
O7	O	1.214677	-0.437996	0.190138
O8	O	1.115774	-0.208198	0.309478
O9	O	1.345421	-0.437971	0.309465
O10	O	1.214836	-0.208179	0.399891
O11	O	1.115683	-0.338948	0.190143
O12	O	0.984998	-0.338903	0.309427
O13	O	1.115718	-0.437891	0.519128
O14	O	0.984974	-0.437916	0.399801
O15	O	1.214804	-0.338858	0.519167
O16	O	1.214645	-0.568675	0.309414
O17	O	1.115627	-0.568641	0.399794
C18	C	0.955730	-0.388408	0.354609
C19	C	0.866108	-0.388420	0.354612
C20	C	0.793326	-0.388422	0.354621
C21	C	0.702018	-0.388426	0.354639
C22	C	0.629241	-0.388434	0.354658
C23	C	0.537927	-0.388439	0.354676
C24	C	1.165144	-0.597914	0.354613
C25	C	1.165185	-0.687535	0.354625
C26	C	1.165326	-1.015711	0.354701
C27	C	1.165284	-0.924402	0.354682
C28	C	1.165255	-0.851626	0.354663
C29	C	1.165215	-0.760312	0.354644
C30	C	1.375529	-0.388440	0.354679
C31	C	1.465150	-0.388447	0.354695
C32	C	1.165268	-0.388366	0.546597
C33	C	1.165288	-0.388342	0.628396
C34	C	1.165319	-0.178114	0.354691
C35	C	1.165361	-0.088493	0.354711
C36	C	1.165220	-0.388422	0.163438
C37	C	1.165356	-0.388219	0.081639
C38	C	1.216912	-0.336706	0.893475
C39	C	1.216903	-0.336728	0.816616
C40	C	1.113729	-0.439861	0.816566
C41	C	1.113743	-0.439842	0.893423
C42	C	1.165334	-0.388260	0.931876
C43	C	1.165310	-0.388301	0.778160
C44	C	1.165299	-0.388325	0.694826
C45	C	1.165346	-0.388237	1.015215
H46	H	1.258920	-0.294704	0.924781
H47	H	1.258904	-0.294748	0.785354
H48	H	1.071741	-0.481829	0.924690
H49	H	1.071725	-0.481856	0.785248
