data_functionalizedCrystal
_audit_creation_method	'MofGen! by Chris Wilmer'
_symmetry_space_group_name_H-M	'P1'
_symmetry_Int_Tables_number	1
_symmetry_cell_setting	triclinic
loop_
_symmetry_equiv_pos_as_xyz
  x,y,z
_cell_length_a	10.654556
_cell_length_b	15.995292
_cell_length_c	9.730223
_cell_angle_alpha	89.998793
_cell_angle_beta	89.998368
_cell_angle_gamma	83.978077
loop_
_atom_site_label
_atom_site_type_symbol
_atom_site_fract_x
_atom_site_fract_y
_atom_site_fract_z
O1	O	1.666261	0.117631	-0.114227
O2	O	1.300634	0.128830	-0.114240
O3	O	1.493480	0.001398	-0.114236
O4	O	1.473415	0.245063	-0.114232
O5	O	1.493468	0.001394	0.114344
O6	O	1.300621	0.128826	0.114340
O7	O	1.666249	0.117627	0.114353
Zn8	Zn	1.483433	0.123226	0.150638
Zn9	Zn	1.483449	0.123231	-0.150526
O10	O	1.473402	0.245059	0.114348
C11	C	1.253841	0.128005	0.000048
C12	C	1.114431	0.125541	0.000042
C13	C	0.917938	0.122074	-0.124546
C14	C	1.048930	0.124384	-0.124555
C15	C	1.048935	0.124380	0.124656
C16	C	0.917947	0.122064	0.124663
C17	C	1.492657	-0.029804	0.000051
C18	C	1.490209	-0.122772	0.000041
C19	C	1.481208	-0.460562	0.000053
C20	C	1.620399	-0.436440	0.000568
C21	C	1.623045	-0.339749	0.000048
C22	C	1.485674	-0.292980	0.000047
C23	C	1.416092	-0.322485	-0.130481
C24	C	1.414417	-0.419285	-0.130586
C25	C	1.411560	-0.419163	0.129353
C26	C	1.416718	-0.322640	0.131073
C27	C	1.488191	-0.198270	0.000040
C28	C	1.478687	-0.555273	0.000051
C29	C	1.713042	0.118452	0.000062
C30	C	1.852451	0.120916	0.000058
C31	C	1.474225	0.276261	0.000058
C32	C	1.476673	0.369229	0.000060
N33	N	1.483431	0.123223	0.356175
N34	N	1.483461	0.123228	-0.356062
C35	C	1.568852	0.066820	0.428103
C36	C	1.568865	0.066820	0.571986
C37	C	1.398031	0.179634	0.572000
C38	C	1.398013	0.179628	0.428119
H39	H	1.674045	-0.464126	0.094176
N40	N	1.691804	-0.316234	-0.117533
N41	N	1.705711	-0.240644	-0.138351
H42	H	1.754273	-0.224036	-0.221399
H43	H	1.673757	-0.465145	-0.092510
H44	H	1.102277	0.125317	0.226105
N45	N	1.283026	-0.437448	0.130460
N46	N	1.211552	-0.414189	0.032770
H47	H	1.120778	-0.427105	0.033543
H48	H	1.638403	0.020889	0.369528
N49	N	0.851066	0.120892	0.251965
N50	N	0.854105	0.180068	0.335394
H51	H	0.806872	0.179239	0.425300
N52	N	1.310771	0.237249	0.645475
N53	N	1.194701	0.235373	0.629425
H54	H	1.133071	0.276065	0.681315
H55	H	1.677540	-0.320408	0.093614
H56	H	1.462616	-0.445819	-0.228157
N57	N	1.115820	0.125550	-0.251838
N58	N	1.112771	0.066372	-0.335262
H59	H	1.160011	0.067191	-0.425163
N60	N	1.286387	-0.438276	-0.138005
N61	N	1.198557	-0.380060	-0.143099
H62	H	1.108137	-0.393469	-0.148339
H63	H	1.638421	0.020891	0.630545
H64	H	1.328447	0.225559	0.369552
N65	N	1.289292	-0.283228	-0.136602
N66	N	1.253931	-0.238043	-0.237050
H67	H	1.164379	-0.210314	-0.241373
N68	N	1.476729	-0.296962	-0.252332
N69	N	1.571173	-0.257053	-0.243380
H70	H	1.614006	-0.239029	-0.329435
N71	N	1.466255	-0.454304	0.253457
N72	N	1.557241	-0.510297	0.248112
H73	H	1.595881	-0.535119	0.335754
H74	H	1.316451	-0.290255	0.138955
N75	N	0.851055	0.120900	-0.251834
N76	N	0.909548	0.121933	-0.363077
H77	H	0.862316	0.121102	-0.452980
N78	N	1.480288	-0.298981	0.252204
N79	N	1.576022	-0.260417	0.242180
H80	H	1.620923	-0.243703	0.327727
