data_functionalizedCrystal
_audit_creation_method	'MofGen! by Chris Wilmer'
_symmetry_space_group_name_H-M	'P1'
_symmetry_Int_Tables_number	1
_symmetry_cell_setting	triclinic
loop_
_symmetry_equiv_pos_as_xyz
  x,y,z
_cell_length_a	19.288840
_cell_length_b	10.654551
_cell_length_c	18.366186
_cell_angle_alpha	90.001303
_cell_angle_beta	89.986410
_cell_angle_gamma	83.805689
loop_
_atom_site_label
_atom_site_type_symbol
_atom_site_fract_x
_atom_site_fract_y
_atom_site_fract_z
O1	O	0.922387	0.156498	-0.060667
O2	O	1.422387	0.656498	0.439333
O3	O	0.720262	0.177664	-0.060641
O4	O	1.220262	0.677664	0.439359
O5	O	0.825971	-0.015758	-0.060655
O6	O	1.325971	0.484242	0.439345
O7	O	0.816678	0.349921	-0.060653
O8	O	1.316678	0.849921	0.439347
O9	O	0.825958	-0.015751	0.060444
O10	O	1.325958	0.484249	0.560444
O11	O	0.720249	0.177671	0.060458
O12	O	1.220249	0.677671	0.560458
O13	O	0.922373	0.156505	0.060432
O14	O	1.422373	0.656505	0.560432
Zn15	Zn	0.821309	0.167089	0.079672
Zn16	Zn	1.321309	0.667089	0.579672
Zn17	Zn	0.821327	0.167080	-0.079881
Zn18	Zn	1.321327	0.667080	0.420119
O19	O	0.816664	0.349927	0.060446
O20	O	1.316664	0.849927	0.560446
C21	C	0.694374	0.176992	-0.000088
C22	C	1.194374	0.676992	0.499912
C23	C	0.617256	0.174963	-0.000079
C24	C	1.117256	0.674963	0.499921
C25	C	0.581054	0.173985	-0.066092
C26	C	1.081054	0.673985	0.433908
C27	C	0.508595	0.172065	-0.066101
C28	C	1.008595	0.672065	0.433899
C29	C	0.472342	0.171097	-0.000093
C30	C	0.972342	0.671097	0.499907
C31	C	0.508553	0.172083	0.065929
C32	C	1.008553	0.672083	0.565929
C33	C	0.581010	0.174016	0.065936
C34	C	1.081010	0.674016	0.565936
C35	C	0.362507	0.094483	0.050468
C36	C	0.862507	0.594483	0.550468
C37	C	0.290051	0.092543	0.050458
C38	C	0.790051	0.592543	0.550458
C39	C	0.248859	0.165142	-0.000112
C40	C	0.748859	0.665142	0.499888
C41	C	0.280133	0.239665	-0.050684
C42	C	0.780133	0.739665	0.449316
C43	C	0.352590	0.241598	-0.050677
C44	C	0.852590	0.741598	0.449323
C45	C	0.393774	0.169002	-0.000093
C46	C	0.893774	0.669002	0.499907
C47	C	0.134088	0.162084	-0.066139
C48	C	0.634088	0.662084	0.433861
C49	C	0.061627	0.160171	-0.066145
C50	C	0.561627	0.660171	0.433855
C51	C	0.061587	0.160177	0.065886
C52	C	0.561587	0.660177	0.565886
C53	C	0.134046	0.162102	0.065891
C54	C	0.634046	0.662102	0.565891
C55	C	0.170293	0.163049	-0.000124
C56	C	0.670293	0.663049	0.499876
C57	C	0.825282	-0.062538	-0.000107
C58	C	1.325282	0.437462	0.499893
C59	C	0.823240	-0.201937	-0.000112
C60	C	1.323240	0.298063	0.499888
C61	C	0.822289	-0.267432	-0.066121
C62	C	1.322289	0.232568	0.433879
C63	C	0.820365	-0.398411	-0.066118
C64	C	1.320365	0.101589	0.433882
C65	C	0.820344	-0.398389	0.065911
C66	C	1.320344	0.101611	0.565911
C67	C	0.822264	-0.267411	0.065907
C68	C	1.322264	0.232589	0.565907
C69	C	0.823266	-0.201958	-0.132140
C70	C	1.323266	0.298042	0.367860
C71	C	0.822316	-0.267453	-0.198155
C72	C	1.322316	0.232547	0.301845
C73	C	0.820391	-0.398432	-0.198152
C74	C	1.320391	0.101568	0.301848
C75	C	0.819416	-0.463916	-0.132133
C76	C	1.319416	0.036084	0.367867
C77	C	0.948261	0.157178	-0.000122
C78	C	1.448261	0.657178	0.499878
C79	C	1.025379	0.159206	-0.000137
C80	C	1.525379	0.659206	0.499863
C81	C	0.817353	0.396707	-0.000103
C82	C	1.317353	0.896707	0.499897
C83	C	0.819395	0.536106	-0.000104
C84	C	1.319395	1.036106	0.499896
N85	N	0.821301	0.167094	0.188564
N86	N	1.321301	0.667094	0.688564
N87	N	0.821339	0.167065	-0.188772
N88	N	1.321339	0.667065	0.311228
C89	C	0.863830	0.243017	0.773108
C90	C	1.363830	0.743017	1.273108
C91	C	0.863823	0.243030	0.696880
C92	C	1.363823	0.743030	1.196880
C93	C	0.821333	0.167066	0.658775
C94	C	1.321333	0.667066	1.158775
C95	C	0.778834	0.091109	0.696904
C96	C	1.278834	0.591109	1.196904
C97	C	0.778837	0.091109	0.773130
C98	C	1.278837	0.591109	1.273130
C99	C	0.818865	0.053845	0.538009
C100	C	1.318865	0.553845	1.038009
C101	C	0.818866	0.053843	0.461784
C102	C	1.318866	0.553843	0.961784
C103	C	0.821319	0.167069	0.423667
C104	C	1.321319	0.667069	0.923667
C105	C	0.823785	0.280300	0.461785
C106	C	1.323785	0.780300	0.961785
C107	C	0.823788	0.280299	0.538012
C108	C	1.323788	0.780299	1.038012
C109	C	0.821325	0.167059	0.576120
C110	C	1.321325	0.667059	1.076120
C111	C	0.863804	0.243042	0.302893
C112	C	1.363804	0.743042	0.802893
C113	C	0.863792	0.243057	0.226664
C114	C	1.363792	0.743057	0.726664
C115	C	0.778807	0.091125	0.226689
C116	C	1.278807	0.591125	0.726689
C117	C	0.778815	0.091121	0.302916
C118	C	1.278815	0.591121	0.802916
C119	C	0.821318	0.167078	0.341014
C120	C	1.321318	0.667078	0.841014
H121	H	0.264595	0.031855	0.091634
H122	H	0.764595	0.531855	0.591634
H123	H	0.378049	0.302280	-0.091853
H124	H	0.878049	0.802280	0.408147
Br125	Br	0.721166	-0.011976	0.824868
Br126	Br	1.221166	0.488024	1.324868
H127	H	0.610485	0.174813	0.119694
H128	H	1.110485	0.674813	0.619694
H129	H	0.823023	-0.214081	0.119658
H130	H	1.323023	0.285919	0.619658
Br131	Br	0.921507	0.346108	0.824809
Br132	Br	1.421507	0.846108	1.324809
H133	H	0.163601	0.162868	-0.119892
H134	H	0.663601	0.662868	0.380108
Br135	Br	0.816794	-0.641672	-0.132130
Br136	Br	1.316794	-0.141672	0.367870
H137	H	0.898423	0.304884	0.665837
H138	H	1.398423	0.804884	1.165837
H139	H	0.479031	0.171298	0.119673
H140	H	0.979031	0.671298	0.619673
H141	H	0.825794	0.372496	0.569044
H142	H	1.325794	0.872496	1.069044
H143	H	0.816861	-0.038363	0.569037
H144	H	1.316861	0.461637	1.069037
Br145	Br	0.819021	-0.487259	0.155502
Br146	Br	1.319021	0.012741	0.655502
H147	H	0.744237	0.029262	0.665874
H148	H	1.244237	0.529262	1.165874
H149	H	0.824835	-0.095309	-0.132150
H150	H	1.324835	0.404691	0.367850
H151	H	0.823103	-0.214126	-0.251905
H152	H	1.323103	0.285874	0.248095
H153	H	0.819611	-0.451753	-0.251904
H154	H	1.319611	0.048247	0.248096
H155	H	0.825783	0.372500	0.430753
H156	H	1.325783	0.872500	0.930753
Br157	Br	0.921483	0.346125	0.354601
Br158	Br	1.421483	0.846125	0.854601
H159	H	0.246595	0.298788	-0.091861
H160	H	0.746595	0.798788	0.408139
Br161	Br	0.012492	0.158860	-0.155743
Br162	Br	0.512492	0.658860	0.344257
Br163	Br	0.921445	0.346179	0.174928
Br164	Br	1.421445	0.846179	0.674928
Br165	Br	0.721133	-0.011956	0.174983
Br166	Br	1.221133	0.488044	0.674983
H167	H	0.744218	0.029267	0.333954
H168	H	1.244218	0.529267	0.833954
H169	H	0.032070	0.159397	0.119632
H170	H	0.532070	0.659397	0.619632
H171	H	0.816864	-0.038357	0.430754
H172	H	1.316864	0.461643	0.930754
Br173	Br	0.183182	0.163426	0.155485
Br174	Br	0.683182	0.663426	0.655485
H175	H	0.610561	0.174756	-0.119846
H176	H	1.110561	0.674756	0.380154
H177	H	0.396040	0.035361	0.091652
H178	H	0.896040	0.535361	0.591652
Br179	Br	0.459451	0.170740	-0.155696
Br180	Br	0.959451	0.670740	0.344304
