data_functionalizedCrystal
_audit_creation_method	'MofGen! by Chris Wilmer'
_symmetry_space_group_name_H-M	'P1'
_symmetry_Int_Tables_number	1
_symmetry_cell_setting	triclinic
loop_
_symmetry_equiv_pos_as_xyz
  x,y,z
_cell_length_a	9.065215
_cell_length_b	23.532407
_cell_length_c	7.540329
_cell_angle_alpha	89.991770
_cell_angle_beta	89.997574
_cell_angle_gamma	83.931687
loop_
_atom_site_label
_atom_site_type_symbol
_atom_site_fract_x
_atom_site_fract_y
_atom_site_fract_z
O1	O	1.956287	0.083490	-0.147483
O2	O	1.526664	0.090340	-0.147493
O3	O	1.754430	0.004078	-0.147455
O4	O	1.728520	0.169751	-0.147521
O5	O	1.754417	0.004077	0.147510
O6	O	1.526650	0.090339	0.147472
O7	O	1.956273	0.083488	0.147482
Cu8	Cu	1.741460	0.086914	0.174410
Cu9	Cu	1.741476	0.086915	-0.174421
O10	O	1.728506	0.169750	0.147444
C11	C	1.471703	0.089682	-0.000011
C12	C	1.307957	0.087714	-0.000013
C13	C	1.753764	-0.017143	0.000032
C14	C	1.751780	-0.080375	0.000045
C15	C	1.874125	-0.478580	-0.000049
C16	C	1.872282	-0.537994	-0.000063
O17	O	1.985698	-0.573906	-0.000125
N18	N	1.736875	-0.561614	-0.000064
C19	C	1.603302	-0.525816	-0.000071
O20	O	1.487958	-0.551362	-0.000075
C21	C	1.605146	-0.466404	-0.000070
C22	C	1.740562	-0.442787	-0.000050
C23	C	2.009530	-0.454963	-0.000031
C24	C	2.011373	-0.395554	-0.000014
C25	C	1.877810	-0.359761	-0.000015
C26	C	1.742405	-0.383378	-0.000033
C27	C	1.471575	-0.430607	-0.000089
C28	C	1.473431	-0.371191	-0.000089
C29	C	1.608847	-0.347575	-0.000070
C30	C	1.610684	-0.288175	-0.000017
N31	N	1.746091	-0.264555	-0.000016
C32	C	1.879654	-0.300348	-0.000015
C33	C	1.599439	-0.650587	-0.000075
C34	C	1.597593	-0.709999	-0.000064
C35	C	1.866574	-0.722172	-0.000059
C36	C	1.868419	-0.662760	-0.000058
C37	C	1.734846	-0.626967	-0.000074
C38	C	1.883513	-0.175583	0.000022
C39	C	1.885343	-0.116168	0.000046
C40	C	1.616363	-0.103999	0.000032
C41	C	1.614532	-0.163410	0.000017
C42	C	1.748119	-0.199201	0.000006
O43	O	1.497328	-0.252228	0.000038
O44	O	1.994979	-0.274794	-0.000034
C45	C	2.011234	0.084147	-0.000004
C46	C	2.174980	0.086114	-0.000013
C47	C	1.729173	0.190972	-0.000047
C48	C	1.731157	0.254203	-0.000072
N49	N	1.741460	0.086912	0.419758
N50	N	1.741489	0.086912	-0.419769
H51	H	1.992292	-0.204718	0.000006
O52	O	1.465920	-0.732842	-0.000142
C53	C	1.199326	-0.714481	-0.000041
C54	C	1.348344	-0.688538	0.000020
H55	H	1.104227	-0.678674	0.000127
H56	H	1.191633	-0.741962	-0.123520
H57	H	1.191805	-0.742019	0.123365
H58	H	1.355966	-0.660974	-0.123303
H59	H	1.355973	-0.661090	0.123580
O60	O	2.139187	-0.489786	0.000208
C61	C	2.293271	-0.563902	0.153098
C62	C	2.146355	-0.524512	0.153011
H63	H	2.299128	-0.591980	0.276645
H64	H	2.299181	-0.592057	0.029743
H65	H	2.390327	-0.536796	0.153022
H66	H	2.049217	-0.551574	0.153150
H67	H	2.140576	-0.496354	0.276356
H68	H	1.978686	-0.643536	-0.000043
O69	O	1.469716	-0.615797	-0.000379
C70	C	1.315705	-0.541627	-0.153125
C71	C	1.462651	-0.580998	-0.153019
H72	H	1.309959	-0.513473	-0.276503
H73	H	1.218563	-0.568691	-0.153238
H74	H	1.309852	-0.513540	-0.029624
H75	H	1.468649	-0.609092	-0.276500
H76	H	1.559724	-0.553900	-0.152814
H77	H	1.361305	-0.449825	-0.000116
H78	H	1.995620	-0.096943	0.000067
O79	O	1.996360	-0.756925	0.000239
C80	C	2.225727	-0.785512	0.152975
C81	C	2.078799	-0.746130	0.152881
H82	H	2.292435	-0.776791	0.276354
H83	H	2.201219	-0.832041	0.153077
H84	H	2.292349	-0.776832	0.029475
H85	H	2.012104	-0.754760	0.276360
H86	H	2.103411	-0.699614	0.152687
H87	H	1.507620	-0.074846	0.000038
H88	H	1.364657	-0.342051	-0.000105
O89	O	2.142826	-0.372552	-0.000255
C90	C	2.301082	-0.312577	-0.153142
C91	C	2.152136	-0.338571	-0.153057
H92	H	2.308671	-0.285108	-0.276688
H93	H	2.308716	-0.285035	-0.029786
H94	H	2.396184	-0.348383	-0.153065
H95	H	2.056949	-0.302802	-0.153197
H96	H	2.144632	-0.366128	-0.276403
H97	H	1.504265	-0.182639	0.000051
