data_functionalizedCrystal
_audit_creation_method	'MofGen! by Chris Wilmer'
_symmetry_space_group_name_H-M	'P1'
_symmetry_Int_Tables_number	1
_symmetry_cell_setting	triclinic
loop_
_symmetry_equiv_pos_as_xyz
  x,y,z
_cell_length_a	15.995292
_cell_length_b	15.995300
_cell_length_c	8.140239
_cell_angle_alpha	89.995692
_cell_angle_beta	90.006520
_cell_angle_gamma	96.529788
loop_
_atom_site_label
_atom_site_type_symbol
_atom_site_fract_x
_atom_site_fract_y
_atom_site_fract_z
O1	O	-0.107728	1.110987	-0.136685
O2	O	-0.121099	0.867203	-0.136676
O3	O	0.007479	0.995785	-0.136657
O4	O	-0.236306	0.982406	-0.136704
O5	O	0.007480	0.995778	0.136570
O6	O	-0.121098	0.867196	0.136551
O7	O	-0.107726	1.110980	0.136542
Zn8	Zn	-0.114412	0.989087	0.179927
Zn9	Zn	-0.114414	0.989097	-0.180061
O10	O	-0.236304	0.982399	0.136524
C11	C	-0.120553	0.836005	-0.000061
C12	C	-0.118918	0.743052	-0.000057
C13	C	-0.115899	0.572870	-0.000069
C14	C	-0.207449	0.525385	-0.000083
C15	C	-0.205779	0.428697	-0.000707
C16	C	-0.112927	0.405314	-0.000079
C17	C	-0.067506	0.446460	-0.155789
C18	C	-0.069823	0.543093	-0.155916
C19	C	-0.068466	0.543364	0.154806
C20	C	-0.068474	0.446420	0.156848
C21	C	-0.111242	0.310619	-0.000090
C22	C	-0.117580	0.667565	-0.000069
C23	C	-0.267500	0.982947	-0.000096
C24	C	-0.360453	0.984579	-0.000114
C25	C	-0.698191	0.990581	-0.000061
C26	C	-0.674895	0.897774	0.000547
C27	C	-0.578220	0.896010	-0.000086
C28	C	-0.530635	0.987603	-0.000087
C29	C	-0.559740	1.034006	-0.156105
C30	C	-0.656530	1.035123	-0.156219
C31	C	-0.656363	1.037010	0.154492
C32	C	-0.559871	1.033571	0.156537
C33	C	-0.435939	0.985925	-0.000107
C34	C	-0.792886	0.992262	-0.000053
C35	C	0.038675	0.995237	-0.000041
C36	C	0.131627	0.993604	-0.000034
C37	C	-0.108272	1.142179	-0.000076
C38	C	-0.109907	1.235131	-0.000091
N39	N	-0.114410	0.989087	0.425610
N40	N	-0.114409	0.989103	-0.425744
H41	H	-0.243693	0.544989	-0.111589
O42	O	-0.252918	0.391822	-0.149382
H43	H	-0.222386	0.419332	-0.262553
O44	O	-0.693784	0.998496	0.311145
H45	H	-0.722693	1.046986	0.382237
O46	O	-0.692079	0.992548	-0.310687
H47	H	-0.664155	1.026883	-0.419643
H48	H	-0.702894	0.861998	0.112435
H49	H	-0.098647	0.418071	-0.272117
O50	O	-0.533177	0.991362	-0.309940
H51	H	-0.589747	0.968814	-0.383387
O52	O	0.020939	0.585490	0.156843
H53	H	0.031581	0.627243	0.048149
H54	H	-0.102559	0.561408	-0.272765
H55	H	0.000719	0.432375	-0.161129
H56	H	-0.703925	0.862205	-0.110714
O57	O	-0.674889	1.127494	0.155913
H58	H	-0.614855	1.169727	0.151892
O59	O	-0.516292	1.122176	0.168890
H60	H	-0.472912	1.134885	0.063131
O61	O	0.019219	0.585876	-0.164708
H62	H	0.049510	0.566505	-0.279088
O63	O	-0.675801	1.125252	-0.165637
H64	H	-0.616010	1.167847	-0.170103
O65	O	-0.108389	0.570494	0.311198
H66	H	-0.162491	0.605314	0.280278
O67	O	-0.112412	0.410210	0.309452
H68	H	-0.165683	0.363126	0.273701
O69	O	-0.517517	1.123287	-0.163818
H70	H	-0.448257	1.122651	-0.169305
O71	O	-0.535217	0.988834	0.309408
H72	H	-0.565657	0.922921	0.308175
O73	O	-0.253057	0.390969	0.147100
H74	H	-0.277325	0.441778	0.219667
O75	O	-0.553849	0.847594	-0.148485
H76	H	-0.611147	0.825359	-0.220089
O77	O	0.021177	0.426069	0.170023
H78	H	0.035520	0.386175	0.064438
O79	O	-0.553005	0.847871	0.148047
H80	H	-0.609911	0.825640	0.220778
H81	H	-0.244240	0.543866	0.111559
