data_functionalizedCrystal
_audit_creation_method	'MofGen! by Chris Wilmer'
_symmetry_space_group_name_H-M	'P1'
_symmetry_Int_Tables_number	1
_symmetry_cell_setting	triclinic
loop_
_symmetry_equiv_pos_as_xyz
  x,y,z
_cell_length_a	10.654550
_cell_length_b	10.654551
_cell_length_c	9.130313
_cell_angle_alpha	89.996157
_cell_angle_beta	90.003013
_cell_angle_gamma	84.485132
loop_
_atom_site_label
_atom_site_type_symbol
_atom_site_fract_x
_atom_site_fract_y
_atom_site_fract_z
O1	O	1.667834	0.176389	0.121910
O2	O	1.302355	0.193195	0.121885
O3	O	1.493497	0.002053	0.121899
O4	O	1.476692	0.367531	0.121896
O5	O	1.493497	0.002066	-0.121700
O6	O	1.302355	0.193208	-0.121713
O7	O	1.667833	0.176402	-0.121689
Cu8	Cu	1.485094	0.184806	-0.143944
Cu9	Cu	1.485095	0.184791	0.144140
O10	O	1.476692	0.367544	-0.121703
C11	C	1.255557	0.191968	0.000083
C12	C	1.116114	0.188276	0.000074
C13	C	1.036629	0.300817	0.000095
C14	C	0.905608	0.297341	0.000120
C15	C	0.933570	0.068771	0.000110
C16	C	1.064589	0.072249	0.000074
C17	C	1.020484	0.432780	0.000106
C18	C	0.889463	0.429304	0.000132
C19	C	1.492263	-0.044739	0.000103
C20	C	1.488570	-0.184182	0.000112
C21	C	1.714632	0.177629	0.000117
C22	C	1.854075	0.181321	0.000135
C23	C	1.486838	-0.249701	0.132895
C24	C	1.483358	-0.380721	0.132888
C25	C	1.483347	-0.380692	-0.132696
C26	C	1.486818	-0.249673	-0.132688
C27	C	1.486850	-0.249719	0.286229
C28	C	1.483369	-0.380740	0.286222
C29	C	1.477926	0.414336	0.000097
C30	C	1.481619	0.553779	0.000097
N31	N	1.485103	0.184817	-0.346566
C32	C	1.400444	0.269391	-0.576600
C33	C	1.400444	0.269412	-0.423263
C34	C	1.569759	0.100187	-0.423214
C35	C	1.569751	0.100161	-0.576549
C36	C	1.302695	0.367096	-0.576627
C37	C	1.302695	0.367117	-0.423290
N38	N	1.485096	0.184770	0.346763
H39	H	0.843791	0.469190	-0.105037
H40	H	1.129302	-0.019393	0.000037
H41	H	0.891602	-0.025694	0.000133
H42	H	1.391773	-0.410310	0.333807
H43	H	1.324140	0.463659	-0.381704
H44	H	1.049815	0.484396	-0.101845
H45	H	1.488222	-0.196332	-0.240813
H46	H	1.570161	-0.427034	0.345101
H47	H	1.638670	0.031245	-0.638945
H48	H	1.481919	-0.434031	-0.240818
H49	H	1.638682	0.031299	-0.360758
H50	H	1.056139	0.474793	0.105278
O51	O	1.187511	0.341639	-0.626331
C52	C	1.134662	0.443356	-0.712139
H53	H	1.179147	0.532636	-0.680513
H54	H	1.153494	0.421868	-0.832905
C55	C	0.936767	0.353233	-0.724303
C56	C	0.991396	0.462892	-0.685450
H57	H	0.848394	0.365282	-0.707846
H58	H	0.972373	0.284702	-0.666497
H59	H	0.952473	0.335338	-0.824939
H60	H	0.975704	0.480776	-0.584811
H61	H	0.955785	0.531427	-0.743238
H62	H	1.400060	-0.203442	0.345103
H63	H	1.333218	0.458298	-0.624215
O64	O	1.194014	0.330479	-0.366441
C65	C	1.221698	0.221977	-0.279496
H66	H	1.315697	0.171102	-0.315322
H67	H	1.227750	0.250671	-0.159605
C68	C	1.001330	0.195900	-0.254081
C69	C	1.116778	0.133409	-0.298091
H70	H	0.936609	0.141269	-0.265545
H71	H	0.982678	0.269003	-0.312653
H72	H	1.006392	0.219808	-0.154175
H73	H	1.111719	0.109516	-0.398000
H74	H	1.135426	0.060300	-0.239537
H75	H	0.847730	0.479020	0.102085
H76	H	1.578449	-0.220156	0.333810
