data_functionalizedCrystal
_audit_creation_method	'MofGen! by Chris Wilmer'
_symmetry_space_group_name_H-M	'P1'
_symmetry_Int_Tables_number	1
_symmetry_cell_setting	triclinic
loop_
_symmetry_equiv_pos_as_xyz
  x,y,z
_cell_length_a	13.262402
_cell_length_b	17.019294
_cell_length_c	11.804365
_cell_angle_alpha	98.044273
_cell_angle_beta	93.583660
_cell_angle_gamma	85.004648
loop_
_atom_site_label
_atom_site_type_symbol
_atom_site_fract_x
_atom_site_fract_y
_atom_site_fract_z
O1	O	1.325143	0.156579	0.314140
O2	O	1.039324	0.153354	0.221890
O3	O	1.187888	0.042306	0.281405
O4	O	1.176579	0.267627	0.254625
O5	O	1.148776	0.071509	0.463796
O6	O	1.000212	0.182557	0.404281
O7	O	1.286031	0.185782	0.496531
Cu8	Cu	1.139550	0.186836	0.467060
Cu9	Cu	1.185805	0.152300	0.251361
O10	O	1.137467	0.296830	0.437016
C11	C	0.983153	0.165450	0.301483
C12	C	0.874052	0.157973	0.266910
C13	C	0.844115	0.138540	0.151243
C14	C	0.741608	0.131523	0.118762
C15	C	0.669028	0.143932	0.201944
C16	C	0.698964	0.163359	0.317614
C17	C	0.801481	0.170383	0.350098
C18	C	0.626393	0.175775	0.400798
C19	C	0.656329	0.195203	0.516468
C20	C	0.758836	0.202225	0.548947
C21	C	0.831417	0.189816	0.465764
C22	C	0.523876	0.168751	0.368314
C23	C	0.481241	0.200594	0.567168
C24	C	0.583749	0.207612	0.599650
C25	C	1.167132	0.027929	0.375182
C26	C	1.163544	-0.058416	0.382871
C27	C	1.183181	-0.114895	0.287063
C28	C	1.179803	-0.196025	0.294289
C29	C	1.156795	-0.220675	0.397326
C30	C	1.137154	-0.164189	0.493140
C31	C	1.140525	-0.083060	0.485911
C32	C	1.145543	-0.464835	0.424125
C33	C	1.142176	-0.545970	0.431348
C34	C	1.184823	-0.577802	0.232496
C35	C	1.188198	-0.496670	0.225278
C36	C	1.168552	-0.440191	0.321090
C37	C	1.153345	-0.303603	0.404716
C38	C	1.171996	-0.357264	0.313697
C39	C	1.342203	0.173686	0.416936
C40	C	1.451305	0.181162	0.451502
C41	C	1.158223	0.311206	0.343237
C42	C	1.161813	0.397550	0.335541
N43	N	1.107025	0.211127	0.618773
N44	N	1.218338	0.128003	0.099651
C45	C	1.296444	0.069658	1.068591
C46	C	1.321048	0.051278	0.953785
C47	C	1.267544	0.091239	0.870026
C48	C	1.189432	0.149582	0.901085
C49	C	1.164830	0.167967	1.015904
C50	C	1.135931	0.189548	0.817339
C51	C	1.057818	0.247891	0.848398
C52	C	1.033220	0.266274	0.963206
C53	C	1.086724	0.226313	1.046965
C54	C	1.160532	0.171163	0.702520
C55	C	1.028919	0.269473	0.649834
C56	C	1.004314	0.287852	0.764640
H57	H	0.717241	0.115705	0.024583
C58	C	0.970923	0.313004	0.558990
C59	C	0.982351	0.394687	0.584605
C60	C	0.928958	0.434811	0.500934
H61	H	0.901125	0.304074	0.557694
H62	H	0.996765	0.293750	0.486149
H63	H	0.956504	0.413936	0.657427
H64	H	1.052136	0.403641	0.585892
H65	H	0.954801	0.415556	0.428092
H66	H	0.859164	0.425875	0.499643
H67	H	0.936713	0.490236	0.518296
H68	H	0.903217	0.128444	0.083528
H69	H	0.914890	0.195523	0.492206
H70	H	1.195797	-0.242009	0.216274
H71	H	1.134615	-0.323681	0.488610
C72	C	1.245191	0.107676	0.668886
C73	C	1.221754	0.034956	0.699128
C74	C	1.299710	-0.023562	0.668172
H75	H	1.306941	0.122613	0.707737
H76	H	1.252208	0.102363	0.588510
H77	H	1.214749	0.040270	0.779490
H78	H	1.160018	0.019995	0.660282
H79	H	1.306727	-0.028875	0.587796
H80	H	1.361454	-0.008618	0.707025
H81	H	1.283815	-0.072911	0.688677
H82	H	0.783205	0.218052	0.643131
C83	C	0.402469	0.214233	0.657515
C84	C	0.404745	0.291744	0.715421
C85	C	0.332178	0.304340	0.798635
H86	H	0.417054	0.177133	0.710551
H87	H	0.337106	0.207313	0.621637
H88	H	0.470092	0.298656	0.751298
H89	H	0.390149	0.328860	0.662415
H90	H	0.266816	0.297419	0.762758
H91	H	0.346770	0.267235	0.851664
H92	H	0.333706	0.356933	0.837928
C93	C	0.557694	0.136480	0.166731
C94	C	0.502392	0.209026	0.200186
C95	C	0.399827	0.202191	0.167752
H96	H	0.533122	0.095953	0.202830
H97	H	0.550204	0.123173	0.085926
H98	H	0.509876	0.222323	0.280975
H99	H	0.526932	0.249564	0.164091
H100	H	0.392337	0.188884	0.086947
H101	H	0.375266	0.161662	0.203854
H102	H	0.362293	0.251413	0.190437
C103	C	1.405845	-0.012117	0.920284
C104	C	1.447418	-0.043194	1.018201
C105	C	1.525530	-0.101607	0.987383
H106	H	1.456967	0.010818	0.885844
H107	H	1.379501	-0.053607	0.867409
H108	H	1.473764	-0.001712	1.071056
H109	H	1.396323	-0.066145	1.052654
H110	H	1.499185	-0.143097	0.934508
H111	H	1.576644	-0.078666	0.952941
H112	H	1.553740	-0.122706	1.053812
C113	C	0.948355	0.329620	0.996695
C114	C	0.906745	0.360668	0.898772
C115	C	0.828558	0.419018	0.929573
H116	H	0.974606	0.371140	1.049565
H117	H	0.897277	0.306613	1.031130
H118	H	0.957814	0.383677	0.864354
H119	H	0.880473	0.319169	0.845891
H120	H	0.777480	0.396011	0.964008
H121	H	0.854818	0.460532	0.982444
H122	H	0.800310	0.440086	0.863136
H123	H	1.287581	0.076271	0.776547
H124	H	1.200816	-0.623795	0.154491
H125	H	1.340005	0.037131	1.136793
C126	C	1.124034	-0.403484	0.528057
C127	C	1.040395	-0.351851	0.502019
C128	C	1.020546	-0.295331	0.597746
H129	H	1.181522	-0.373893	0.548252
H130	H	1.109798	-0.429762	0.590461
H131	H	1.054636	-0.325575	0.439634
H132	H	0.982890	-0.381419	0.481837
H133	H	1.006310	-0.321609	0.660150
H134	H	1.078039	-0.265746	0.617934
H135	H	0.963790	-0.260296	0.580096
C136	C	0.616453	0.228743	0.725167
C137	C	0.721759	0.232255	0.735799
C138	C	0.751921	0.251729	0.851404
H139	H	0.597618	0.189304	0.767566
H140	H	0.584325	0.279022	0.753971
H141	H	0.753875	0.181982	0.707009
H142	H	0.740620	0.271695	0.693426
H143	H	0.719793	0.302008	0.880209
H144	H	0.733079	0.212287	0.893794
H145	H	0.823371	0.254122	0.858633
C146	C	1.196795	-0.330392	0.201843
C147	C	1.115669	-0.280600	0.164172
C148	C	1.138481	-0.255817	0.061142
H149	H	1.207978	-0.375573	0.145701
H150	H	1.256114	-0.302159	0.213657
H151	H	1.056367	-0.308833	0.152352
H152	H	1.104473	-0.235407	0.220284
H153	H	1.197799	-0.227584	0.072956
H154	H	1.149665	-0.301003	0.005010
H155	H	1.083445	-0.222025	0.035575
H156	H	0.499513	0.152934	0.274135
H157	H	1.201921	-0.094834	0.203161
C158	C	1.213142	-0.470066	0.113287
C159	C	1.229591	-0.536893	0.030918
C160	C	1.252562	-0.512416	-0.072265
H161	H	1.272508	-0.441903	0.124972
H162	H	1.158186	-0.436302	0.087472
H163	H	1.284542	-0.570644	0.056728
H164	H	1.170237	-0.565064	0.019199
H165	H	1.197606	-0.478652	-0.098080
H166	H	1.311926	-0.484253	-0.060568
H167	H	1.263716	-0.557753	-0.128167
H168	H	1.123435	-0.566035	0.515256
H169	H	1.118415	-0.184264	0.577033
H170	H	1.124521	-0.037073	0.563923
H171	H	1.066689	0.241275	1.140450
H172	H	0.940714	0.335357	0.789943
