data_functionalizedCrystal
_audit_creation_method	'MofGen! by Chris Wilmer'
_symmetry_space_group_name_H-M	'P1'
_symmetry_Int_Tables_number	1
_symmetry_cell_setting	triclinic
loop_
_symmetry_equiv_pos_as_xyz
  x,y,z
_cell_length_a	13.339070
_cell_length_b	15.944551
_cell_length_c	12.376457
_cell_angle_alpha	101.276265
_cell_angle_beta	75.589755
_cell_angle_gamma	99.564016
loop_
_atom_site_label
_atom_site_type_symbol
_atom_site_fract_x
_atom_site_fract_y
_atom_site_fract_z
O1	O	1.361721	0.409519	-0.094056
O2	O	1.067189	0.354248	-0.094048
O3	O	1.222496	0.261484	-0.094042
O4	O	1.206414	0.502283	-0.094062
O5	O	1.183683	0.284634	0.093969
O6	O	1.028376	0.377398	0.093963
O7	O	1.322908	0.432670	0.093955
Zn8	Zn	1.169480	0.408710	0.123810
Zn9	Zn	1.220618	0.378208	-0.123903
O10	O	1.167601	0.525433	0.093949
C11	C	1.010092	0.356487	-0.000041
C12	C	0.897788	0.328657	-0.000038
C13	C	1.202422	0.241610	-0.000036
C14	C	1.200420	0.147897	-0.000036
C15	C	0.533017	0.545045	-0.000074
C16	C	0.638533	0.571195	-0.000081
C17	C	0.703352	0.510563	-0.000069
C18	C	0.662645	0.423776	-0.000053
C19	C	0.557120	0.397623	-0.000055
C20	C	0.727455	0.363140	-0.000050
C21	C	0.686748	0.276354	-0.000033
C22	C	0.581233	0.250205	-0.000035
C23	C	0.516415	0.310837	-0.000046
C24	C	0.832979	0.389294	-0.000048
C25	C	0.857082	0.241871	-0.000029
C26	C	0.751566	0.215722	-0.000022
C27	C	1.099369	-0.090507	-0.000048
C28	C	1.127158	-0.129176	0.092651
C29	C	1.196799	-0.023674	-0.000044
C30	C	1.165448	-0.151979	-0.092713
C31	C	1.193296	-0.189405	-0.000057
C32	C	1.224599	-0.061099	0.092732
C33	C	1.262892	-0.083908	-0.092715
C34	C	1.290747	-0.122540	0.000007
C35	C	1.198814	0.071800	-0.000036
C36	C	1.191287	-0.284874	-0.000058
C37	C	1.380005	0.430431	-0.000054
C38	C	1.492311	0.458260	-0.000065
C39	C	1.187676	0.545308	-0.000059
C40	C	1.189680	0.639019	-0.000067
N41	N	1.134587	0.429527	0.292867
N42	N	1.255518	0.357386	-0.292960
C43	C	1.336516	0.309045	0.647859
C44	C	1.360931	0.294473	0.529520
C45	C	1.304347	0.328235	0.470351
C46	C	1.223343	0.376572	0.529532
C47	C	1.198930	0.391151	0.647883
C48	C	1.166762	0.410341	0.470375
C49	C	1.085758	0.458678	0.529556
C50	C	1.061349	0.473254	0.647895
C51	C	1.117933	0.439492	0.707064
C52	C	1.191175	0.395762	0.352024
C53	C	1.053590	0.477868	0.352048
C54	C	1.029174	0.492440	0.470387
H55	H	0.789267	0.531859	-0.000078
N56	N	0.941815	0.544582	0.534218
H57	H	0.874264	0.515604	0.513644
H58	H	0.935031	0.548679	0.618145
N59	N	0.463107	0.610431	-0.000090
H60	H	0.504902	0.669378	-0.000099
H61	H	0.433201	0.594201	-0.069794
H62	H	1.018478	-0.076032	0.000046
H63	H	0.909859	0.192498	-0.000025
H64	H	1.257129	0.356407	0.303849
H65	H	1.007515	0.505362	0.303873
H66	H	1.249577	-0.021853	0.171188
N67	N	1.448291	0.242341	0.465693
H68	H	1.503210	0.278856	0.416584
H69	H	1.480347	0.223173	0.521204
H70	H	0.866111	0.459956	-0.000057
N71	N	1.091601	0.455216	0.834705
H72	H	1.016988	0.430457	0.863228
H73	H	1.139801	0.426493	0.863110
H74	H	0.430494	0.289550	-0.000040
H75	H	1.371680	-0.136832	0.000057
H76	H	0.718409	0.145057	-0.000018
H77	H	0.671671	0.641855	-0.000103
N78	N	0.537327	0.156600	-0.000031
H79	H	0.594396	0.122157	-0.000022
H80	H	0.479680	0.151124	0.069667
N81	N	1.051152	-0.155739	0.196474
H82	H	0.978881	-0.144426	0.196412
H83	H	1.050951	-0.219175	0.196029
N84	N	1.397548	0.272644	0.711674
H85	H	1.369793	0.289218	0.795623
H86	H	1.390134	0.207779	0.691007
N87	N	1.338871	-0.057314	-0.196527
H88	H	1.316451	-0.090826	-0.266516
H89	H	1.340120	0.006375	-0.195255
N90	N	1.132275	-0.204100	-0.196516
H91	H	1.059973	-0.192766	-0.196426
H92	H	1.182863	-0.186979	-0.266477
H93	H	0.995399	0.512620	0.696080
N94	N	1.330676	0.312520	0.342715
H95	H	1.390575	0.276775	0.314202
H96	H	1.267768	0.280764	0.314319
