data_functionalizedCrystal
_audit_creation_method	'MofGen! by Chris Wilmer'
_symmetry_space_group_name_H-M	'P1'
_symmetry_Int_Tables_number	1
_symmetry_cell_setting	triclinic
loop_
_symmetry_equiv_pos_as_xyz
  x,y,z
_cell_length_a	15.944499
_cell_length_b	15.944551
_cell_length_c	9.483334
_cell_angle_alpha	99.342144
_cell_angle_beta	80.722247
_cell_angle_gamma	83.488174
loop_
_atom_site_label
_atom_site_type_symbol
_atom_site_fract_x
_atom_site_fract_y
_atom_site_fract_z
O1	O	1.101450	0.121284	0.120978
O2	O	0.856896	0.134684	0.120963
O3	O	0.985852	0.005707	0.120958
O4	O	0.972493	0.250262	0.120983
O5	O	1.012025	-0.020596	-0.120819
O6	O	0.883068	0.108382	-0.120814
O7	O	1.127622	0.094982	-0.120798
Cu8	Cu	1.007735	0.099280	-0.142882
Cu9	Cu	0.976783	0.130386	0.143047
O10	O	0.998666	0.223959	-0.120793
C11	C	0.838688	0.120984	0.000072
C12	C	0.745440	0.119338	0.000066
C13	C	0.998384	-0.038738	0.000069
C14	C	0.996722	-0.131984	0.000068
C15	C	0.453901	0.194274	0.000095
C16	C	0.502026	0.168291	0.119302
C17	C	0.409800	0.113366	0.000099
C18	C	0.527816	0.142336	-0.119070
C19	C	0.574711	0.116304	0.000080
C20	C	0.456686	0.087371	0.119404
C21	C	0.482481	0.061416	-0.119075
C22	C	0.530585	0.035377	0.000161
C23	C	0.314798	0.111675	0.000111
C24	C	0.669710	0.117990	0.000079
C25	C	0.912814	-0.346824	0.000083
C26	C	0.964682	-0.420817	-0.119125
C27	C	0.993713	-0.302708	0.000079
C28	C	0.938897	-0.394868	0.119248
C29	C	0.990801	-0.467619	0.000096
C30	C	1.045614	-0.375484	-0.119227
C31	C	1.019806	-0.349517	0.119253
C32	C	1.071736	-0.423496	0.000016
C33	C	0.995389	-0.207708	0.000068
C34	C	0.989132	-0.562619	0.000097
C35	C	1.145830	0.108682	0.000096
C36	C	1.239077	0.110329	0.000112
C37	C	0.986133	0.268405	0.000098
C38	C	0.987795	0.361652	0.000109
N39	N	1.029511	0.077401	-0.343989
C40	C	0.983196	0.123932	-0.416216
C41	C	1.001335	0.105720	-0.583623
N42	N	0.955014	0.152258	0.344153
H43	H	0.420557	0.261433	0.000218
H44	H	0.558800	0.165608	-0.219847
H45	H	1.138951	-0.456673	-0.000047
H46	H	0.511214	0.213478	0.220083
H47	H	1.090724	-0.366476	-0.220118
H48	H	0.930117	0.177256	-0.354121
H49	H	1.043083	-0.318428	0.220043
H50	H	0.425785	0.064158	0.220297
H51	H	0.563757	-0.031823	0.000217
H52	H	0.893759	-0.403974	0.220035
H53	H	0.845677	-0.313517	-0.000040
H54	H	0.941374	-0.451883	-0.219910
H55	H	1.054423	0.052399	-0.645715
H56	H	0.901932	0.205585	-0.593755
H57	H	1.082595	0.024084	-0.406086
H58	H	0.473275	0.016259	-0.219866
