data_functionalizedCrystal
_audit_creation_method	'MofGen! by Chris Wilmer'
_symmetry_space_group_name_H-M	'P1'
_symmetry_Int_Tables_number	1
_symmetry_cell_setting	triclinic
loop_
_symmetry_equiv_pos_as_xyz
  x,y,z
_cell_length_a	16.992697
_cell_length_b	16.053934
_cell_length_c	16.992695
_cell_angle_alpha	92.750093
_cell_angle_beta	89.331663
_cell_angle_gamma	92.747587
loop_
_atom_site_label
_atom_site_type_symbol
_atom_site_fract_x
_atom_site_fract_y
_atom_site_fract_z
O1	O	-1.047750	0.069308	0.170019
O2	O	-0.547750	0.569308	0.670019
O3	O	-0.819349	0.069337	0.168188
O4	O	-0.319349	0.569337	0.668188
O5	O	-0.932634	0.069316	0.054903
O6	O	-0.432634	0.569316	0.554903
O7	O	-0.934465	0.069329	0.283304
O8	O	-0.434465	0.569329	0.783304
O9	O	-0.938835	-0.069541	0.048688
O10	O	-0.438835	0.430459	0.548688
O11	O	-0.825550	-0.069521	0.161973
O12	O	-0.325550	0.430479	0.661973
O13	O	-1.053951	-0.069549	0.163804
O14	O	-0.553951	0.430451	0.663804
Zn15	Zn	-0.940735	-0.091582	0.161902
Zn16	Zn	-0.440735	0.408418	0.661902
Zn17	Zn	-0.932565	0.091369	0.170090
Zn18	Zn	-0.432565	0.591369	0.670090
O19	O	-0.940666	-0.069528	0.277089
O20	O	-0.440666	0.430472	0.777089
C21	C	-0.793089	-0.000089	0.162725
C22	C	-0.293089	0.499911	0.662725
C23	C	-0.705604	-0.000078	0.155697
C24	C	-0.205604	0.499922	0.655697
C25	C	-0.659613	-0.000074	0.223515
C26	C	-0.159613	0.499926	0.723515
C27	C	-0.577413	-0.000085	0.216905
C28	C	-0.077413	0.499915	0.716905
C29	C	-0.541205	-0.000093	0.142477
C30	C	-0.041205	0.499907	0.642477
C31	C	-0.587202	-0.000100	0.074654
C32	C	-0.087202	0.499900	0.574654
C33	C	-0.669401	-0.000095	0.081264
C34	C	-0.169401	0.499905	0.581264
C35	C	-0.295891	-0.000113	0.115081
C36	C	0.204109	0.499887	0.615081
C37	C	-0.213686	-0.000115	0.108476
C38	C	0.286314	0.499885	0.608476
C39	C	-0.203902	-0.000102	0.250728
C40	C	0.296098	0.499898	0.750728
C41	C	-0.286103	-0.000092	0.257332
C42	C	0.213897	0.499908	0.757332
C43	C	-0.332093	-0.000103	0.189508
C44	C	0.167907	0.499897	0.689508
N45	N	-0.457183	-0.000101	0.135719
N46	N	0.042817	0.499899	0.635719
N47	N	-0.416114	-0.000101	0.196267
N48	N	0.083886	0.499899	0.696267
N49	N	-0.946316	-0.216440	0.156313
N50	N	-0.446316	0.283560	0.656313
C51	C	-0.080211	-0.000118	0.169267
C52	C	0.419789	0.499882	0.669267
C53	C	-0.167695	-0.000112	0.176294
C54	C	0.332305	0.499888	0.676294
C55	C	-0.898102	-0.260146	0.204497
C56	C	-0.398102	0.239854	0.704497
C57	C	-0.902029	-0.347552	0.200586
C58	C	-0.402029	0.152448	0.700586
C59	C	-0.954167	-0.391250	0.148487
C60	C	-0.454167	0.108750	0.648487
C61	C	-1.002386	-0.347539	0.100301
C62	C	-0.502386	0.152461	0.600301
C63	C	-0.998463	-0.260134	0.104217
C64	C	-0.498463	0.239866	0.604217
C65	C	-0.971285	-0.652656	0.131403
C66	C	-0.471285	-0.152656	0.631403
C67	C	-0.975204	-0.740066	0.127489
C68	C	-0.475204	-0.240066	0.627489
C69	C	-0.874847	-0.740074	0.227775
C70	C	-0.374847	-0.240074	0.727775
C71	C	-0.870925	-0.652668	0.231683
C72	C	-0.370925	-0.152668	0.731683
C73	C	-0.919147	-0.608963	0.183500
C74	C	-0.419147	-0.108963	0.683500
N75	N	-0.958180	-0.480593	0.144486
N76	N	-0.458180	0.019407	0.644486
N77	N	-0.915137	-0.519622	0.187506
N78	N	-0.415137	-0.019622	0.687506
C79	C	-0.933379	-0.000112	0.022435
C80	C	-0.433379	0.499888	0.522435
C81	C	-0.926350	-0.000111	-0.065049
C82	C	-0.426350	0.499889	0.434951
N83	N	-0.926989	0.216228	0.175673
N84	N	-0.426989	0.716228	0.675673
C85	C	-0.994168	-0.000120	-0.111040
C86	C	-0.494168	0.499880	0.388960
C87	C	-0.987559	-0.000112	-0.193241
C88	C	-0.487559	0.499888	0.306759
C89	C	-0.913131	-0.000100	-0.229449
C90	C	-0.413131	0.499900	0.270551
C91	C	-0.845307	-0.000088	-0.183451
C92	C	-0.345307	0.499912	0.316549
C93	C	-0.851917	-0.000091	-0.101252
C94	C	-0.351917	0.499909	0.398748
C95	C	-0.885736	-0.000085	-0.474762
C96	C	-0.385736	0.499915	0.025238
C97	C	-0.879131	-0.000085	-0.556968
C98	C	-0.379131	0.499915	-0.056968
C99	C	-1.021383	-0.000107	-0.566751
C100	C	-0.521383	0.499893	-0.066751
C101	C	-1.027987	-0.000115	-0.484550
C102	C	-0.527987	0.499885	0.015450
C103	C	-0.960163	-0.000098	-0.438560
C104	C	-0.460163	0.499902	0.061440
N105	N	-0.906373	-0.000093	-0.313471
N106	N	-0.406373	0.499907	0.186529
N107	N	-0.966921	-0.000099	-0.354539
N108	N	-0.466921	0.499901	0.145461
C109	C	-0.939921	-0.000098	0.309556
C110	C	-0.439921	0.499902	0.809556
C111	C	-0.946949	-0.000094	0.397041
C112	C	-0.446949	0.499906	0.897041
H113	H	-0.557715	-0.000119	0.014052
H114	H	-0.057715	0.499881	0.514052
H115	H	-1.054776	-0.000135	-0.081566
H116	H	-0.554776	0.499865	0.418434
Br117	Br	-0.800163	-0.593361	0.302385
Br118	Br	-0.300163	-0.093361	0.802385
Br119	Br	-0.164548	-0.000145	0.007459
Br120	Br	0.335452	0.499855	0.507459
H121	H	-0.855642	-0.224573	0.246918
H122	H	-0.355642	0.275427	0.746918
Br123	Br	-0.358297	-0.000130	0.023034
Br124	Br	0.141703	0.499870	0.523034
H125	H	-0.706846	-0.000098	0.026039
H126	H	-0.206846	0.499902	0.526039
H127	H	-0.862770	-0.383137	0.239821
H128	H	-0.362770	0.116863	0.739821
H129	H	-0.539970	-0.000081	0.272130
H130	H	-0.039970	0.499919	0.772130
H131	H	-0.835587	-0.775666	0.267004
H132	H	-0.335587	-0.275666	0.767004
Br133	Br	-0.744296	-0.000058	-0.232589
Br134	Br	-0.244296	0.499942	0.267411
Br135	Br	-1.128999	-0.000104	-0.435416
Br136	Br	-0.628999	0.499896	0.064584
H137	H	-1.017663	-0.775642	0.085061
H138	H	-0.517663	-0.275642	0.585061
Br139	Br	-1.036726	-0.593348	0.066013
Br140	Br	-0.536726	-0.093348	0.566013
Br141	Br	-1.079603	-0.000124	-0.255655
Br142	Br	-0.579603	0.499876	0.244345
H143	H	-1.044842	-0.383123	0.057884
H144	H	-0.544842	0.116877	0.557884
H145	H	-1.037725	-0.224550	0.064982
H146	H	-0.537725	0.275450	0.564982
H147	H	-1.076601	-0.000118	-0.604205
H148	H	-0.576601	0.499882	-0.104205
H149	H	-0.830508	-0.000072	-0.437326
H150	H	-0.330508	0.499928	0.062674
H151	H	-0.689087	-0.000066	0.284122
H152	H	-0.189087	0.499934	0.784122
Br153	Br	-0.335236	-0.000071	0.358346
Br154	Br	0.164764	0.499929	0.858346
Br155	Br	-0.141484	-0.000088	0.342769
Br156	Br	0.358516	0.499912	0.842769
Br157	Br	-0.778115	-0.000077	-0.606107
Br158	Br	-0.278115	0.499923	-0.106107
H159	H	-0.796692	-0.000083	-0.063807
H160	H	-0.296692	0.499917	0.436193
