data_functionalizedCrystal
_audit_creation_method	'MofGen! by Chris Wilmer'
_symmetry_space_group_name_H-M	'P1'
_symmetry_Int_Tables_number	1
_symmetry_cell_setting	triclinic
loop_
_symmetry_equiv_pos_as_xyz
  x,y,z
_cell_length_a	29.839134
_cell_length_b	16.994747
_cell_length_c	29.839125
_cell_angle_alpha	89.991363
_cell_angle_beta	90.021980
_cell_angle_gamma	90.005924
loop_
_atom_site_label
_atom_site_type_symbol
_atom_site_fract_x
_atom_site_fract_y
_atom_site_fract_z
Zn1	Zn	0.686814	-0.314247	0.254207
Zn2	Zn	0.686786	-0.446127	0.179112
Zn3	Zn	0.611697	-0.314229	0.179077
Zn4	Zn	0.611685	-0.446101	0.254200
O5	O	0.649246	-0.380176	0.216649
O6	O	0.749678	-0.331759	0.244263
O7	O	0.676819	-0.428635	0.116240
O8	O	0.621679	-0.203850	0.189031
O9	O	0.749657	-0.428651	0.189091
O10	O	0.676867	-0.203863	0.244230
O11	O	0.621651	-0.331730	0.116214
O12	O	0.548828	-0.331704	0.189025
O13	O	0.621657	-0.428606	0.317068
O14	O	0.548819	-0.428589	0.244217
O15	O	0.676855	-0.331734	0.317074
O16	O	0.676807	-0.556505	0.189084
O17	O	0.621630	-0.556486	0.244251
C18	C	0.532523	-0.380143	0.216617
C19	C	0.482589	-0.380147	0.216613
C20	C	0.649220	-0.585116	0.216669
C21	C	0.649223	-0.674438	0.216668
Zn22	Zn	0.611710	-0.945316	0.179064
Zn23	Zn	0.686834	-0.945312	0.254188
Zn24	Zn	0.611700	-0.813493	0.254193
Zn25	Zn	0.686795	-0.813382	0.179097
O26	O	0.649260	-0.879376	0.216635
O27	O	0.621696	-1.055697	0.189014
O28	O	0.676880	-0.927870	0.317055
O29	O	0.548834	-0.831028	0.244215
O30	O	0.676890	-1.055693	0.244206
O31	O	0.548842	-0.927877	0.189019
O32	O	0.621679	-0.831024	0.317059
O33	O	0.621641	-0.703097	0.244247
O34	O	0.676822	-0.830839	0.116226
O35	O	0.676812	-0.703016	0.189075
O36	O	0.621658	-0.927770	0.116202
O37	O	0.749696	-0.927763	0.244238
O38	O	0.749667	-0.830835	0.189070
C39	C	0.172950	-0.430699	0.245353
C40	C	-0.014723	-0.430721	0.245373
O41	O	-0.038984	-0.473665	0.269789
N42	N	-0.038196	-0.380205	0.216683
C43	C	-0.014749	-0.329676	0.187988
O44	O	-0.039020	-0.286704	0.163589
C45	C	0.172924	-0.329650	0.187971
C46	C	0.196395	-0.380176	0.216659
C47	C	0.196421	-0.481219	0.274039
C48	C	0.243337	-0.481216	0.274032
C49	C	0.266781	-0.430693	0.245339
C50	C	0.243310	-0.380172	0.216652
C51	C	0.196371	-0.279118	0.159279
C52	C	0.243292	-0.279115	0.159278
C53	C	0.266762	-0.329640	0.187966
C54	C	0.313670	-0.329646	0.187952
N55	N	0.337143	-0.380162	0.216642
C56	C	0.313699	-0.430686	0.245335
C57	C	-0.113279	-0.329694	0.187999
C58	C	-0.160197	-0.329701	0.188002
C59	C	-0.160168	-0.430746	0.245388
C60	C	-0.113250	-0.430742	0.245381
C61	C	-0.089806	-0.380210	0.216688
C62	C	0.412225	-0.430676	0.245318
C63	C	0.459144	-0.430671	0.245307
C64	C	0.459111	-0.329624	0.187924
C65	C	0.412196	-0.329632	0.187933
C66	C	0.388754	-0.380160	0.216633
O67	O	0.337960	-0.286719	0.163552
O68	O	0.337979	-0.473639	0.269737
C69	C	0.126035	-0.430702	0.245360
C70	C	0.102564	-0.380182	0.216673
C71	C	0.126008	-0.329658	0.187980
C72	C	0.055646	-0.380189	0.216677
C73	C	0.032201	-0.430712	0.245371
C74	C	0.055675	-0.481228	0.274060
C75	C	0.102590	-0.481225	0.274053
C76	C	0.102535	-0.279142	0.159290
C77	C	0.055619	-0.279150	0.159299
C78	C	0.032175	-0.329673	0.187992
C79	C	0.766424	-0.380210	0.216682
C80	C	0.816358	-0.380225	0.216696
C81	C	0.649258	-0.380169	0.333827
C82	C	0.649263	-0.380166	0.383762
C83	C	0.649274	-0.174436	0.216626
C84	C	0.649288	-0.085114	0.216617
C85	C	0.649259	-0.380126	0.099927
C86	C	0.649341	-0.379907	0.049992
C87	C	0.678035	-0.329592	0.693411
C88	C	0.678057	-0.329525	0.881084
O89	O	0.702486	-0.286600	0.905354
N90	N	0.649323	-0.379955	0.904547
C91	C	0.620579	-0.430401	0.881089
O92	O	0.596136	-0.473287	0.905352
C93	C	0.620554	-0.430464	0.693417
C94	C	0.649294	-0.380037	0.669956
C95	C	0.706771	-0.279168	0.669951
C96	C	0.706767	-0.279189	0.623035
C97	C	0.678026	-0.329633	0.599580
C98	C	0.649290	-0.380057	0.623041
C99	C	0.591809	-0.480906	0.669959
C100	C	0.591804	-0.480916	0.623038
C101	C	0.620544	-0.430488	0.599578
C102	C	0.620545	-0.430521	0.552670
N103	N	0.649279	-0.380092	0.529207
C104	C	0.678020	-0.329648	0.552662
C105	C	0.620594	-0.430366	0.979620
C106	C	0.620601	-0.430351	1.026537
C107	C	0.678078	-0.329474	1.026530
C108	C	0.678074	-0.329493	0.979611
C109	C	0.649328	-0.379936	0.956157
C110	C	0.678009	-0.329695	0.454136
C111	C	0.678004	-0.329722	0.407217
C112	C	0.620525	-0.430596	0.407229
C113	C	0.620531	-0.430572	0.454144
C114	C	0.649275	-0.380115	0.477597
O115	O	0.596125	-0.473418	0.528372
O116	O	0.702452	-0.286755	0.528391
C117	C	0.678039	-0.329572	0.740327
C118	C	0.649302	-0.379996	0.763787
C119	C	0.620561	-0.430440	0.740332
C120	C	0.649309	-0.379981	0.810705
C121	C	0.678049	-0.329537	0.834160
C122	C	0.706784	-0.279107	0.810697
C123	C	0.706779	-0.279128	0.763782
C124	C	0.591827	-0.480870	0.763795
C125	C	0.591834	-0.480846	0.810711
C126	C	0.620575	-0.430402	0.834166
C127	C	0.765982	-0.879289	0.216658
C128	C	0.815917	-0.879274	0.216681
C129	C	0.649237	-0.879293	0.099457
C130	C	0.649227	-0.879257	0.049523
C131	C	0.532081	-0.879465	0.216614
C132	C	0.482147	-0.879504	0.216605
C133	C	0.649251	-0.879503	0.333358
C134	C	0.649135	-0.879690	0.383292
C135	C	0.839369	-0.929780	0.245392
C136	C	0.886287	-0.929782	0.245413
C137	C	0.909753	-0.879274	0.216726
C138	C	0.886298	-0.828766	0.188012
C139	C	0.839380	-0.828769	0.187989
C140	C	0.620497	-0.929708	0.026058
C141	C	0.620479	-0.929675	-0.020861
C142	C	0.649193	-0.879194	-0.044314
C143	C	0.677923	-0.828738	-0.020846
C144	C	0.677939	-0.828768	0.026072
C145	C	0.458691	-0.829091	0.245338
C146	C	0.411772	-0.829111	0.245330
C147	C	0.388311	-0.879549	0.216589
C148	C	0.411770	-0.929964	0.187852
C149	C	0.458688	-0.929939	0.187859
C150	C	0.620547	-0.828988	0.406724
C151	C	0.620430	-0.829163	0.453643
C152	C	0.648904	-0.880035	0.477128
C153	C	0.677494	-0.930741	0.453693
C154	C	0.677608	-0.930570	0.406775
H155	H	0.393144	-0.471819	0.268690
H156	H	0.905411	-0.787644	0.164656
H157	H	0.597149	-0.787868	0.472717
O158	O	0.648750	-0.880068	0.522704
C159	C	0.617402	-0.824417	0.538345
H160	H	0.611359	-0.778167	0.511336
H161	H	0.584501	-0.855329	0.546546
C162	C	0.643189	-0.841150	0.614011
C163	C	0.635770	-0.784342	0.580839
H164	H	0.654517	-0.816432	0.640225
H165	H	0.664308	-0.878646	0.603474
H166	H	0.615770	-0.866906	0.620839
H167	H	0.663190	-0.758594	0.574008
H168	H	0.614656	-0.746841	0.591376
H169	H	0.701336	-0.787687	0.045173
H170	H	0.700675	-0.972161	0.472822
H171	H	0.700891	-0.971855	0.387700
O172	O	0.481525	-0.780051	0.273195
C173	C	0.508642	-0.729056	0.247628
H174	H	0.515672	-0.756853	0.213582
H175	H	0.490547	-0.670614	0.242692
C176	C	0.544574	-0.680609	0.314175
C177	C	0.553212	-0.714753	0.272361
H178	H	0.572066	-0.671782	0.329432
H179	H	0.526304	-0.714962	0.331401
H180	H	0.529494	-0.631911	0.310056
H181	H	0.568287	-0.763454	0.276481
H182	H	0.571486	-0.680407	0.255137
O183	O	-0.183010	-0.280747	0.160075
C184	C	-0.210166	-0.325587	0.131032
H185	H	-0.196033	-0.387706	0.128219
H186	H	-0.245722	-0.328334	0.144913
C187	C	-0.228252	-0.210648	0.087809
C188	C	-0.210890	-0.286942	0.084351
H189	H	-0.228701	-0.186809	0.059015
H190	H	-0.209958	-0.180437	0.107377
H191	H	-0.257880	-0.212947	0.099379
H192	H	-0.181261	-0.284641	0.072787
H193	H	-0.229180	-0.317151	0.064780
H194	H	0.568406	-0.521969	0.689053
O195	O	0.481923	-0.479667	0.273242
C196	C	0.470472	-0.462558	0.318031
H197	H	0.457579	-0.399549	0.320349
H198	H	0.443240	-0.504878	0.329744
C199	C	0.527998	-0.549206	0.345158
C200	C	0.512167	-0.471815	0.348004
H201	H	0.553716	-0.554919	0.363647
H202	H	0.535712	-0.560735	0.314983
H203	H	0.505301	-0.584464	0.354918
H204	H	0.534861	-0.436559	0.338239
H205	H	0.504457	-0.460279	0.378179
O206	O	0.481491	-0.978807	0.159902
C207	C	0.508629	-0.933880	0.130899
H208	H	0.494488	-0.871758	0.128126
H209	H	0.544191	-0.931161	0.144793
C210	C	0.526706	-1.048696	0.087599
C211	C	0.509335	-0.972397	0.084191
H212	H	0.527143	-1.072456	0.058788
H213	H	0.508424	-1.078965	0.107140
H214	H	0.556339	-1.046419	0.099180
H215	H	0.479700	-0.974676	0.072616
H216	H	0.527613	-0.942129	0.064647
O217	O	0.173637	-0.230072	0.131342
C218	C	0.185087	-0.247212	0.086557
H219	H	0.219145	-0.277551	0.085613
H220	H	0.158670	-0.287711	0.071385
C221	C	0.145441	-0.132981	0.060562
C222	C	0.187273	-0.170238	0.059404
H223	H	0.146788	-0.085501	0.043812
H224	H	0.137725	-0.121435	0.090735
H225	H	0.123432	-0.166738	0.047920
H226	H	0.209281	-0.136485	0.072051
H227	H	0.194993	-0.181777	0.029232
O228	O	0.389045	-0.978987	0.159897
C229	C	0.419804	-1.023502	0.134543
H230	H	0.453246	-0.991178	0.132986
H231	H	0.424807	-1.083413	0.150992
C232	C	0.360400	-1.074563	0.088642
C233	C	0.401472	-1.034859	0.086727
H234	H	0.349091	-1.081572	0.059147
H235	H	0.339676	-1.044575	0.105724
H236	H	0.364574	-1.124485	0.102352
H237	H	0.397296	-0.984935	0.073022
H238	H	0.422194	-1.064839	0.069641
H239	H	0.701301	-0.787639	-0.039948
H240	H	0.597082	-0.970763	-0.039962
H241	H	0.262442	-0.522357	0.297394
H242	H	0.820289	-0.787636	0.164610
O243	O	0.649140	-0.879308	-0.089890
C244	C	0.617620	-0.934659	-0.105567
H245	H	0.611341	-0.980748	-0.078526
H246	H	0.584855	-0.903406	-0.113902
C247	C	0.643642	-0.918471	-0.181172
C248	C	0.635933	-0.975083	-0.147961
H249	H	0.654937	-0.943404	-0.207323
H250	H	0.664877	-0.881178	-0.170610
H251	H	0.616336	-0.892432	-0.188112
H252	H	0.663240	-1.001114	-0.141017
H253	H	0.614703	-1.012382	-0.158522
H254	H	0.597361	-0.787558	0.387609
H255	H	0.820269	-0.970909	0.268755
O256	O	0.705954	-0.280793	0.476964
C257	C	0.734975	-0.325698	0.504112
H258	H	0.719121	-0.385465	0.511155
H259	H	0.768262	-0.334389	0.486037
C260	C	0.762600	-0.208868	0.540017
C261	C	0.743126	-0.282272	0.548671
H262	H	0.767630	-0.182081	0.567503
H263	H	0.743049	-0.178615	0.521726
H264	H	0.790337	-0.216121	0.524955
H265	H	0.715387	-0.275019	0.563728
H266	H	0.762672	-0.312524	0.566966
H267	H	0.905378	-0.970911	0.268798
O268	O	0.389059	-0.780117	0.273292
C269	C	0.419832	-0.735593	0.298654
H270	H	0.453279	-0.767891	0.300204
H271	H	0.424813	-0.675668	0.282217
C272	C	0.360456	-0.684608	0.344566
C273	C	0.401535	-0.724281	0.346473
H274	H	0.349169	-0.677627	0.374062
H275	H	0.339723	-0.714602	0.327478
H276	H	0.364612	-0.634675	0.330866
H277	H	0.397377	-0.774216	0.360167
H278	H	0.422266	-0.694295	0.363565
O279	O	-0.090579	-0.280582	0.160080
C280	C	-0.121363	-0.235990	0.134770
H281	H	-0.154807	-0.268307	0.133197
H282	H	-0.126347	-0.176128	0.151268
C283	C	-0.062005	-0.184797	0.088893
C284	C	-0.103080	-0.224493	0.086958
H285	H	-0.050727	-0.177701	0.059401
H286	H	-0.041265	-0.214837	0.105946
H287	H	-0.066164	-0.134916	0.102643
H288	H	-0.098920	-0.274377	0.073213
H289	H	-0.123820	-0.194461	0.069901
H290	H	0.947957	-0.879279	0.216750
H291	H	0.701409	-0.288657	0.388117
O292	O	0.342734	-0.879498	0.216659
C293	C	0.327067	-0.824171	0.248178
H294	H	0.354115	-0.813129	0.274426
H295	H	0.318729	-0.766647	0.230373
C296	C	0.251459	-0.869919	0.238966
C297	C	0.284678	-0.856362	0.271206
H298	H	0.225311	-0.889773	0.253169
H299	H	0.262014	-0.907192	0.217729
H300	H	0.244516	-0.821979	0.224130
H301	H	0.291625	-0.904304	0.286037
H302	H	0.274124	-0.819098	0.292446
H303	H	0.597115	-0.970817	0.045147
H304	H	0.177338	-0.522362	0.297407
O305	O	0.563892	-0.529948	0.741084
C306	C	0.538525	-0.574431	0.771859
H307	H	0.556933	-0.577147	0.805308
H308	H	0.504411	-0.545533	0.776835
C309	C	0.509425	-0.655056	0.712489
C310	C	0.532035	-0.658397	0.753570
H311	H	0.505420	-0.706849	0.701207
H312	H	0.526513	-0.625085	0.691755
H313	H	0.480999	-0.630971	0.716640
H314	H	0.560463	-0.682473	0.749417
H315	H	0.514951	-0.688375	0.774303
O316	O	-0.090521	-0.479842	0.273294
C317	C	-0.121281	-0.524449	0.298609
H318	H	-0.154724	-0.492147	0.300188
H319	H	-0.126278	-0.584313	0.282111
C320	C	-0.061878	-0.575616	0.344476
C321	C	-0.102953	-0.535939	0.346418
H322	H	-0.050573	-0.582708	0.373966
H323	H	-0.041155	-0.545566	0.327420
H324	H	-0.066049	-0.625498	0.330725
H325	H	-0.098781	-0.486054	0.360163
H326	H	-0.123675	-0.565981	0.363478
H327	H	0.393085	-0.288492	0.164571
O328	O	-0.183016	-0.479747	0.273249
C329	C	-0.229459	-0.468927	0.267089
H330	H	-0.235867	-0.408018	0.252417
H331	H	-0.242786	-0.515656	0.243133
C332	C	-0.245659	-0.551070	0.330559
C333	C	-0.253530	-0.476258	0.312543
H334	H	-0.260508	-0.555595	0.358597
H335	H	-0.214370	-0.558363	0.334709
H336	H	-0.256765	-0.590003	0.310592
H337	H	-0.242418	-0.437327	0.332507
H338	H	-0.284818	-0.468958	0.308398
H339	H	0.597134	-0.471641	0.473247
O340	O	0.481872	-0.280635	0.159987
C341	C	0.470380	-0.297737	0.115198
H342	H	0.457474	-0.360743	0.112879
H343	H	0.443147	-0.255410	0.103488
C344	C	0.527900	-0.211098	0.088072
C345	C	0.512052	-0.288485	0.085223
H346	H	0.553604	-0.205388	0.069581
H347	H	0.535641	-0.199573	0.118247
H348	H	0.505202	-0.175834	0.078314
H349	H	0.534748	-0.323746	0.094986
H350	H	0.504316	-0.300016	0.055049
O351	O	0.125317	-0.530327	0.301966
C352	C	0.094555	-0.574928	0.327282
H353	H	0.061114	-0.542621	0.328861
H354	H	0.089554	-0.634792	0.310784
C355	C	0.153956	-0.626105	0.373148
C356	C	0.112884	-0.586421	0.375091
H357	H	0.165262	-0.633198	0.402638
H358	H	0.174681	-0.596059	0.356091
H359	H	0.149783	-0.675987	0.359398
H360	H	0.117058	-0.536536	0.388835
H361	H	0.092159	-0.616459	0.392151
H362	H	0.036578	-0.522369	0.297422
O363	O	0.032877	-0.230105	0.131362
C364	C	0.044316	-0.247240	0.086573
H365	H	0.078376	-0.277572	0.085620
H366	H	0.017898	-0.287743	0.071407
C367	C	0.004655	-0.133016	0.060591
C368	C	0.046490	-0.170264	0.059421
H369	H	0.005995	-0.085534	0.043842
H370	H	-0.003053	-0.121473	0.090766
H371	H	-0.017355	-0.166777	0.047954
H372	H	0.068499	-0.136507	0.072063
H373	H	0.054203	-0.181799	0.029247
O374	O	0.734736	-0.230139	0.692661
C375	C	0.760085	-0.185630	0.661884
H376	H	0.761623	-0.217957	0.628448
H377	H	0.743645	-0.125718	0.656878
C378	C	0.806020	-0.134569	0.721261
C379	C	0.807911	-0.174277	0.680195
H380	H	0.835520	-0.127562	0.732557
H381	H	0.788940	-0.164553	0.741997
H382	H	0.792317	-0.084646	0.717084
H383	H	0.821608	-0.224202	0.684374
H384	H	0.824994	-0.144300	0.659461
O385	O	0.706003	-0.280430	0.956893
C386	C	0.731379	-0.235924	0.987661
H387	H	0.712981	-0.233184	1.021100
H388	H	0.765494	-0.264819	0.992665
C389	C	0.760462	-0.155342	0.928272
C390	C	0.737863	-0.151971	0.969341
H391	H	0.764464	-0.103558	0.916971
H392	H	0.743367	-0.185329	0.907542
H393	H	0.788889	-0.179425	0.932447
H394	H	0.709434	-0.127898	0.965165
H395	H	0.754953	-0.121979	0.990070
H396	H	0.121619	-0.237999	0.135924
O397	O	0.592709	-0.479454	1.049273
C398	C	0.602522	-0.558076	1.037830
H399	H	0.619792	-0.559719	1.003772
H400	H	0.625615	-0.584647	1.064248
C401	C	0.537507	-0.603824	1.077483
C402	C	0.558715	-0.605843	1.035650
H403	H	0.510486	-0.633291	1.076140
H404	H	0.530897	-0.550856	1.085194
H405	H	0.556756	-0.625965	1.099494
H406	H	0.539468	-0.583693	1.013641
H407	H	0.565321	-0.658809	1.027935
O408	O	0.592733	-0.479413	0.956791
C409	C	0.618296	-0.530395	0.929678
H410	H	0.652343	-0.502586	0.922644
H411	H	0.623231	-0.588839	0.947777
C412	C	0.551746	-0.578855	0.893751
C413	C	0.593562	-0.544697	0.885109
H414	H	0.536488	-0.587681	0.866260
H415	H	0.534523	-0.544510	0.912020
H416	H	0.555864	-0.627555	0.908835
H417	H	0.589443	-0.495993	0.870031
H418	H	0.610784	-0.579034	0.866837
H419	H	0.262377	-0.237960	0.135914
H420	H	0.730169	-0.238124	0.603938
H421	H	0.701480	-0.288401	1.045634
H422	H	0.568391	-0.521985	0.603944
H423	H	0.597126	-0.471669	0.388123
H424	H	0.730182	-0.238064	0.744684
H425	H	0.730187	-0.238036	0.829802
H426	H	0.568432	-0.521917	0.829808
