data_functionalizedCrystal
_audit_creation_method	'MofGen! by Chris Wilmer'
_symmetry_space_group_name_H-M	'P1'
_symmetry_Int_Tables_number	1
_symmetry_cell_setting	triclinic
loop_
_symmetry_equiv_pos_as_xyz
  x,y,z
_cell_length_a	16.120530
_cell_length_b	18.050589
_cell_length_c	16.120256
_cell_angle_alpha	92.877403
_cell_angle_beta	90.128265
_cell_angle_gamma	87.123928
loop_
_atom_site_label
_atom_site_type_symbol
_atom_site_fract_x
_atom_site_fract_y
_atom_site_fract_z
Zn1	Zn	1.247404	-0.376262	-0.534589
Zn2	Zn	1.580737	-0.042929	-0.201256
Zn3	Zn	1.914071	0.290404	0.132077
Zn4	Zn	1.254344	-0.494483	-0.395538
Zn5	Zn	1.587677	-0.161150	-0.062205
Zn6	Zn	1.921010	0.172183	0.271128
Zn7	Zn	1.115396	-0.363709	-0.388506
Zn8	Zn	1.448729	-0.030376	-0.055173
Zn9	Zn	1.782062	0.302958	0.278161
Zn10	Zn	1.108300	-0.493803	-0.527508
Zn11	Zn	1.441633	-0.160470	-0.194175
Zn12	Zn	1.774967	0.172864	0.139159
O13	O	1.181361	-0.432065	-0.461535
O14	O	1.514694	-0.098731	-0.128202
O15	O	1.848027	0.234602	0.205131
O16	O	1.364690	-0.397483	-0.522050
O17	O	1.698024	-0.064150	-0.188717
O18	O	2.031357	0.269184	0.144616
O19	O	1.241786	-0.472167	-0.278239
O20	O	1.575119	-0.138834	0.055094
O21	O	1.908452	0.194500	0.388428
O22	O	1.132972	-0.261454	-0.407905
O23	O	1.466306	0.071880	-0.074571
O24	O	1.799639	0.405213	0.258762
O25	O	1.369789	-0.484340	-0.419890
O26	O	1.703122	-0.151006	-0.086557
O27	O	2.036455	0.182327	0.246776
O28	O	1.229958	-0.270677	-0.515232
O29	O	1.563292	0.062657	-0.181898
O30	O	1.896625	0.395990	0.151435
O31	O	1.139701	-0.376088	-0.273073
O32	O	1.473035	-0.042754	0.060261
O33	O	1.806368	0.290579	0.393594
O34	O	0.998089	-0.375428	-0.401038
O35	O	1.331422	-0.042095	-0.067705
O36	O	1.664755	0.291239	0.265628
O37	O	1.120879	-0.483180	-0.644814
O38	O	1.454212	-0.149847	-0.311480
O39	O	1.787545	0.183487	0.021853
O40	O	0.992875	-0.471007	-0.503162
O41	O	1.326209	-0.137674	-0.169829
O42	O	1.659542	0.195659	0.163504
O43	O	1.223078	-0.396823	-0.650016
O44	O	1.556411	-0.063490	-0.316683
O45	O	1.889744	0.269843	0.016650
O46	O	1.234905	-0.598314	-0.413024
O47	O	1.568239	-0.264981	-0.079690
O48	O	1.901572	0.068353	0.253643
O49	O	1.127608	-0.597814	-0.509981
O50	O	1.460941	-0.264481	-0.176648
O51	O	1.794274	0.068853	0.156685
C52	C	0.965310	-0.421782	-0.450569
C53	C	1.298643	-0.088449	-0.117236
C54	C	1.631976	0.244884	0.216097
C55	C	0.872881	-0.417402	-0.445898
C56	C	1.206214	-0.084069	-0.112564
C57	C	1.539548	0.249265	0.220769
C58	C	0.703652	-0.409388	-0.437376
C59	C	1.036986	-0.076055	-0.104043
C60	C	1.370319	0.257278	0.229291
C61	C	0.659907	-0.454798	-0.485756
C62	C	0.993240	-0.121465	-0.152422
C63	C	1.326573	0.211869	0.180911
C64	C	0.565742	-0.450339	-0.481014
C65	C	0.899075	-0.117006	-0.147681
C66	C	1.232409	0.216328	0.185653
C67	C	0.797826	-0.413846	-0.442116
C68	C	1.131159	-0.080513	-0.108783
C69	C	1.464492	0.252820	0.224550
C70	C	1.181261	-0.625011	-0.461516
C71	C	1.514594	-0.291678	-0.128183
C72	C	1.847928	0.041655	0.205150
C73	C	1.181293	-0.707560	-0.461540
C74	C	1.514626	-0.374226	-0.128207
C75	C	1.847960	-0.040893	0.205127
C76	C	1.123000	-0.906767	-0.514249
C77	C	1.456334	-0.573434	-0.180916
C78	C	1.789667	-0.240100	0.152418
C79	C	1.106577	-0.951987	-0.437343
C80	C	1.439911	-0.618654	-0.104010
C81	C	1.773244	-0.285320	0.229324
C82	C	1.181374	-0.858694	-0.461555
C83	C	1.514708	-0.525361	-0.128222
C84	C	1.848041	-0.192028	0.205112
C85	C	1.197838	-0.960558	-0.538472
C86	C	1.531171	-0.627225	-0.205139
C87	C	1.864504	-0.293892	0.128195
C88	C	1.181451	-1.004684	-0.461576
C89	C	1.514784	-0.671350	-0.128243
C90	C	1.848117	-0.338017	0.205091
C91	C	1.164914	-0.902823	-0.384607
C92	C	1.498247	-0.569490	-0.051273
C93	C	1.831580	-0.236157	0.282060
C94	C	1.256206	-0.911394	-0.485789
C95	C	1.589540	-0.578061	-0.152455
C96	C	1.922873	-0.244728	0.180878
C97	C	1.239815	-0.956591	-0.408832
C98	C	1.573148	-0.623258	-0.075498
C99	C	1.906482	-0.289924	0.257835
C100	C	1.181328	-0.774593	-0.461544
C101	C	1.514661	-0.441260	-0.128211
C102	C	1.847995	-0.107927	0.205123
C103	C	1.181498	-1.088783	-0.461579
C104	C	1.514831	-0.755449	-0.128245
C105	C	1.848164	-0.422116	0.205088
C106	C	1.398256	-0.442388	-0.472545
C107	C	1.731589	-0.109054	-0.139211
C108	C	2.064922	0.224279	0.194122
C109	C	1.490683	-0.446787	-0.477236
C110	C	1.824016	-0.113453	-0.143903
C111	C	2.157350	0.219880	0.189431
C112	C	1.170413	-0.441326	-0.678431
C113	C	1.503746	-0.107993	-0.345098
C114	C	1.837079	0.225341	-0.011764
C115	C	1.165747	-0.445273	-0.770859
C116	C	1.499080	-0.111940	-0.437526
C117	C	1.832414	0.221394	-0.104192
C118	C	1.181483	-0.238366	-0.461574
C119	C	1.514816	0.094967	-0.128240
C120	C	1.848149	0.428301	0.205093
C121	C	1.181535	-0.155823	-0.461590
C122	C	1.514868	0.177510	-0.128257
C123	C	1.848201	0.510843	0.205077
C124	C	1.205689	-0.411464	-0.983841
C125	C	1.539022	-0.078130	-0.650508
C126	C	1.872356	0.255203	-0.317174
C127	C	1.157201	-0.452447	-0.940079
C128	C	1.490535	-0.119113	-0.606746
C129	C	1.823868	0.214220	-0.273413
C130	C	1.161958	-0.448454	-0.845916
C131	C	1.495291	-0.115121	-0.512583
C132	C	1.828624	0.218213	-0.179250
C133	C	1.200934	-0.415455	-1.078013
C134	C	1.534267	-0.082122	-0.744679
C135	C	1.867601	0.251211	-0.411346
C136	C	1.192314	-0.422788	-0.245486
C137	C	1.525648	-0.089454	0.087847
C138	C	1.858981	0.243879	0.421181
C139	C	1.197141	-0.418639	-0.153067
C140	C	1.530474	-0.085306	0.180267
C141	C	1.863808	0.248027	0.513600
H142	H	1.073570	-0.884892	-0.558741
H143	H	1.406903	-0.551559	-0.225407
H144	H	1.740236	-0.218226	0.107926
H145	H	1.112113	-0.490527	-0.973333
H146	H	1.445446	-0.157194	-0.639999
H147	H	1.778780	0.176139	-0.306666
O148	O	1.031184	-0.973565	-0.412874
O149	O	1.364517	-0.640231	-0.079541
O150	O	1.697850	-0.306898	0.253792
C151	C	0.946987	-1.076041	-0.384852
C152	C	1.280320	-0.742708	-0.051519
C153	C	1.613653	-0.409375	0.281815
C154	C	1.032416	-1.051710	-0.412547
C155	C	1.365750	-0.718377	-0.079214
C156	C	1.699083	-0.385043	0.254120
H157	H	0.947949	-1.139224	-0.384595
H158	H	1.281283	-0.805890	-0.051262
H159	H	1.614616	-0.472557	0.282072
H160	H	0.932480	-1.051375	-0.319700
H161	H	1.265814	-0.718042	0.013633
H162	H	1.599147	-0.384708	0.346967
H163	H	0.897261	-1.055532	-0.429819
H164	H	1.230594	-0.722199	-0.096486
H165	H	1.563927	-0.388865	0.236847
H166	H	1.082197	-1.072212	-0.367639
H167	H	1.415531	-0.738879	-0.034305
H168	H	1.748864	-0.405546	0.299028
H169	H	1.046851	-1.076368	-0.477716
H170	H	1.380184	-0.743035	-0.144383
H171	H	1.713518	-0.409702	0.188950
H172	H	1.250770	-0.373382	-0.950590
H173	H	1.584103	-0.040049	-0.617256
H174	H	1.917437	0.293285	-0.283923
H175	H	1.150945	-0.877689	-0.319546
H176	H	1.484279	-0.544355	0.013787
H177	H	1.817612	-0.211022	0.347121
H178	H	1.319438	-0.893402	-0.506303
H179	H	1.652771	-0.560069	-0.172970
H180	H	1.986104	-0.226736	0.160363
O181	O	0.699721	-0.505155	-0.539344
O182	O	1.033054	-0.171822	-0.206011
O183	O	1.366388	0.161512	0.127323
C184	C	0.831239	-0.555517	-0.593044
C185	C	1.164572	-0.222184	-0.259710
C186	C	1.497906	0.111150	0.073623
C187	C	0.786252	-0.498467	-0.532309
C188	C	1.119585	-0.165134	-0.198976
C189	C	1.452918	0.168199	0.134357
H190	H	0.901206	-0.550119	-0.587389
H191	H	1.234539	-0.216786	-0.254056
H192	H	1.567872	0.116548	0.079277
H193	H	0.814992	-0.613978	-0.577483
H194	H	1.148326	-0.280645	-0.244150
H195	H	1.481659	0.052688	0.089184
H196	H	0.810812	-0.544653	-0.659271
H197	H	1.144145	-0.211320	-0.325938
H198	H	1.477479	0.122013	0.007395
H199	H	0.806654	-0.509262	-0.466061
H200	H	1.139987	-0.175929	-0.132727
H201	H	1.473321	0.157405	0.200606
H202	H	0.802499	-0.440025	-0.547942
H203	H	1.135832	-0.106692	-0.214608
H204	H	1.469165	0.226642	0.118725
H205	H	0.670386	-0.367167	-0.392399
H206	H	1.003719	-0.033833	-0.059065
H207	H	1.337053	0.299500	0.274268
H208	H	1.289216	-0.978322	-0.364225
H209	H	1.622549	-0.644989	-0.030892
H210	H	1.955882	-0.311655	0.302442
H211	H	1.211732	-0.985778	-0.603511
H212	H	1.545066	-0.652445	-0.270178
H213	H	1.878399	-0.319112	0.063155
