data_functionalizedCrystal
_audit_creation_method	'MofGen! by Chris Wilmer'
_symmetry_space_group_name_H-M	'P1'
_symmetry_Int_Tables_number	1
_symmetry_cell_setting	triclinic
loop_
_symmetry_equiv_pos_as_xyz
  x,y,z
_cell_length_a	10.654545
_cell_length_b	23.532357
_cell_length_c	9.730223
_cell_angle_alpha	89.990081
_cell_angle_beta	89.997167
_cell_angle_gamma	83.655685
loop_
_atom_site_label
_atom_site_type_symbol
_atom_site_fract_x
_atom_site_fract_y
_atom_site_fract_z
O1	O	1.665277	0.079974	-0.114295
O2	O	1.299553	0.087598	-0.114302
O3	O	1.493476	0.000924	-0.114270
O4	O	1.471354	0.166648	-0.114327
O5	O	1.493464	0.000922	0.114310
O6	O	1.299541	0.087595	0.114278
O7	O	1.665265	0.079972	0.114285
Zn8	Zn	1.482401	0.083783	0.150573
Zn9	Zn	1.482417	0.083786	-0.150591
O10	O	1.471342	0.166645	0.114253
C11	C	1.252767	0.087037	-0.000013
C12	C	1.113377	0.085364	-0.000015
C13	C	1.047891	0.084575	0.124585
C14	C	0.916922	0.082994	0.124586
C15	C	0.916936	0.082993	-0.124624
C16	C	1.047904	0.084570	-0.124624
C17	C	1.492917	-0.020297	0.000024
C18	C	1.491253	-0.083527	0.000037
C19	C	1.480815	-0.475605	-0.124636
C20	C	1.479234	-0.535014	-0.124644
O21	O	1.478379	-0.565735	-0.230611
N22	N	1.478443	-0.564732	-0.000047
C23	C	1.479221	-0.535036	0.124566
O24	O	1.478402	-0.565768	0.230545
C25	C	1.480793	-0.475627	0.124573
C26	C	1.481597	-0.445913	-0.000033
C27	C	1.481618	-0.445891	-0.249232
C28	C	1.483201	-0.386485	-0.249223
C29	C	1.483983	-0.356794	-0.124620
C30	C	1.483181	-0.386507	-0.000024
C31	C	1.481562	-0.445931	0.249184
C32	C	1.483134	-0.386518	0.249180
C33	C	1.483937	-0.356804	0.124575
C34	C	1.485546	-0.297410	0.124588
N35	N	1.486337	-0.267693	-0.000010
C36	C	1.485555	-0.297384	-0.124613
C37	C	1.475916	-0.659799	0.124543
C38	C	1.474353	-0.719208	0.124538
C39	C	1.474364	-0.719182	-0.124673
C40	C	1.475936	-0.659773	-0.124666
C41	C	1.476707	-0.630081	-0.000054
C42	C	1.488882	-0.172629	-0.124586
C43	C	1.490472	-0.113218	-0.124567
C44	C	1.490454	-0.113249	0.124643
C45	C	1.488872	-0.172655	0.124625
C46	C	1.488082	-0.202343	-0.000001
O47	O	1.486397	-0.266652	0.230500
O48	O	1.486358	-0.266644	-0.230574
C49	C	1.712051	0.080532	-0.000007
C50	C	1.851441	0.082205	-0.000015
C51	C	1.471901	0.187867	-0.000044
C52	C	1.473565	0.251096	-0.000066
N53	N	1.482399	0.083781	0.356110
N54	N	1.482429	0.083784	-0.356127
C55	C	1.568297	0.045418	0.428050
C56	C	1.568309	0.045418	0.571933
C57	C	1.396522	0.122149	0.571923
C58	C	1.396505	0.122145	0.428042
H59	H	0.863609	0.082352	0.226048
H60	H	1.638253	0.014179	0.630503
C61	C	1.119917	0.085446	0.261649
C62	C	1.086996	0.134592	0.364425
C63	C	1.159020	0.135462	0.501492
C64	C	1.263965	0.087185	0.535782
C65	C	1.296892	0.038035	0.433003
C66	C	1.224868	0.037165	0.295936
H67	H	1.009304	0.170333	0.339044
H68	H	1.134645	0.171846	0.577576
H69	H	1.317282	0.087828	0.637247
H70	H	1.374584	0.002294	0.458384
H71	H	1.249243	0.000781	0.219853
H72	H	0.863612	0.082347	-0.226077
H73	H	1.326591	0.153385	0.630505
C74	C	1.302012	0.164347	0.348895
C75	C	1.207585	0.206572	0.428009
C76	C	1.113094	0.248770	0.348861
C77	C	1.113031	0.248743	0.190598
C78	C	1.207462	0.206516	0.111475
C79	C	1.301953	0.164318	0.190624
H80	H	1.207628	0.206594	0.545173
H81	H	1.043190	0.280029	0.407434
H82	H	1.043083	0.279980	0.132008
H83	H	1.207419	0.206495	-0.005688
H84	H	1.371857	0.133060	0.132051
C85	C	1.662768	0.003214	0.348923
C86	C	1.758505	0.025866	0.249979
C87	C	1.852977	-0.016341	0.170858
C88	C	1.851711	-0.081201	0.190680
C89	C	1.755971	-0.103856	0.289628
C90	C	1.661499	-0.061649	0.368750
H91	H	1.759445	0.073881	0.235302
H92	H	1.923850	0.000430	0.097610
H93	H	1.921645	-0.112445	0.132109
H94	H	1.755031	-0.151872	0.304306
H95	H	1.590626	-0.078420	0.441998
H96	H	1.473723	-0.743367	-0.226132
C97	C	1.476809	-0.627090	-0.261733
C98	C	1.368830	-0.580207	-0.296013
C99	C	1.369699	-0.547528	-0.433087
C100	C	1.478546	-0.561731	-0.535880
C101	C	1.586532	-0.608616	-0.501603
C102	C	1.585664	-0.641295	-0.364529
H103	H	1.288248	-0.569691	-0.219917
H104	H	1.289760	-0.512820	-0.458461
H105	H	1.479189	-0.537540	-0.637350
H106	H	1.667114	-0.619132	-0.577699
H107	H	1.665603	-0.676003	-0.339155
H108	H	1.483851	-0.362297	-0.350690
C109	C	1.488023	-0.205281	-0.261673
C110	C	1.597314	-0.203140	-0.364450
C111	C	1.596464	-0.235793	-0.501535
C112	C	1.486324	-0.270586	-0.535842
C113	C	1.377026	-0.272728	-0.433062
C114	C	1.377875	-0.240076	-0.295977
H115	H	1.678853	-0.177382	-0.339056
H116	H	1.677375	-0.234206	-0.577619
H117	H	1.485696	-0.294758	-0.637320
H118	H	1.295486	-0.298486	-0.458456
H119	H	1.296964	-0.241662	-0.219893
H120	H	1.101225	0.085211	-0.226094
H121	H	1.491096	-0.089064	0.226092
C122	C	1.473494	-0.751888	0.261610
C123	C	1.364655	-0.737681	0.364410
C124	C	1.363793	-0.770357	0.501488
C125	C	1.471770	-0.817241	0.535766
C126	C	1.580618	-0.831450	0.432963
C127	C	1.581480	-0.798773	0.295885
H128	H	1.284716	-0.702973	0.339038
H129	H	1.283216	-0.759838	0.577590
H130	H	1.471132	-0.841430	0.637239
H131	H	1.660556	-0.866158	0.458335
H132	H	1.662057	-0.809292	0.219783
H133	H	1.480977	-0.470059	-0.350704
H134	H	1.491129	-0.089028	-0.226040
H135	H	1.476548	-0.635628	0.226024
H136	H	1.480910	-0.470114	0.350652
H137	H	1.483743	-0.362346	0.350657
H138	H	1.488229	-0.196849	0.226089
