data_functionalizedCrystal
_audit_creation_method	'MofGen! by Chris Wilmer'
_symmetry_space_group_name_H-M	'P1'
_symmetry_Int_Tables_number	1
_symmetry_cell_setting	triclinic
loop_
_symmetry_equiv_pos_as_xyz
  x,y,z
_cell_length_a	6.817900
_cell_length_b	16.255699
_cell_length_c	19.453030
_cell_angle_alpha	95.850427
_cell_angle_beta	101.707737
_cell_angle_gamma	103.489404
loop_
_atom_site_label
_atom_site_type_symbol
_atom_site_fract_x
_atom_site_fract_y
_atom_site_fract_z
V1	V	-4.006840	-0.117971	-0.219233
V2	V	-3.506840	0.382029	0.280767
O3	O	-3.994723	0.004762	-0.214820
O4	O	-3.494723	0.504762	0.285180
O5	O	-3.958503	-0.233045	-0.217965
O6	O	-3.458503	0.266955	0.282035
O7	O	-3.949747	-0.116554	-0.314743
O8	O	-3.449747	0.383446	0.185257
O9	O	-4.003540	-0.112535	-0.117372
O10	O	-3.503540	0.387465	0.382628
V11	V	-4.491587	-0.103244	-0.207022
V12	V	-3.991587	0.396756	0.292978
O13	O	-4.265415	-0.150277	-0.246020
O14	O	-3.765415	0.349723	0.253980
O15	O	-4.683209	-0.070938	-0.180235
O16	O	-4.183209	0.429062	0.319765
O17	O	-4.316717	0.011830	-0.208291
O18	O	-3.816717	0.511830	0.291709
O19	O	-4.621101	-0.225978	-0.211435
O20	O	-4.121101	0.274022	0.288565
O21	O	-4.612284	-0.108680	-0.308884
O22	O	-4.112284	0.391320	0.191116
O23	O	-4.325473	-0.104661	-0.111512
O24	O	-3.825473	0.395339	0.388488
C25	C	-3.803800	-0.261086	-0.214566
C26	C	-3.303800	0.238914	0.285434
C27	C	-3.845508	-0.355163	-0.214165
C28	C	-3.345508	0.144837	0.285835
C29	C	-3.792630	-0.112489	-0.338016
C30	C	-3.292630	0.387511	0.161984
C31	C	-3.827234	-0.112092	-0.416097
C32	C	-3.327234	0.387908	0.083903
C33	C	-3.756504	-0.577971	-0.209573
C34	C	-3.256504	-0.077971	0.290427
C35	C	-3.845290	-0.625362	-0.152972
C36	C	-3.345290	-0.125362	0.347028
C37	C	-3.921971	-0.527414	-0.213465
C38	C	-3.421971	-0.027414	0.286535
C39	C	-3.907525	-0.647653	-0.269359
C40	C	-3.407525	-0.147653	0.230641
C41	C	-3.995820	-0.693801	-0.212792
C42	C	-3.495820	-0.193801	0.287208
C43	C	-4.010183	-0.573557	-0.156822
C44	C	-3.510183	-0.073557	0.343178
C45	C	-4.072416	-0.595852	-0.273260
C46	C	-3.572416	-0.095852	0.226740
C47	C	-4.161322	-0.643219	-0.216648
C48	C	-3.661322	-0.143219	0.283352
C49	C	-3.879424	-0.431562	-0.213852
C50	C	-3.379424	0.068438	0.286148
C51	C	-4.038379	-0.789650	-0.212400
C52	C	-3.538379	-0.289650	0.287600
C53	C	-3.882769	-0.189447	-0.462956
C54	C	-3.382769	0.310553	0.037044
C55	C	-3.915306	-0.189083	-0.536324
C56	C	-3.415306	0.310917	-0.036324
C57	C	-3.892266	-0.111358	-0.562828
C58	C	-3.392266	0.388642	-0.062828
C59	C	-3.836734	-0.033993	-0.515959
C60	C	-3.336734	0.466007	-0.015959
C61	C	-3.804218	-0.034359	-0.442593
C62	C	-3.304218	0.465641	0.057407
N63	N	-3.800557	-0.050419	-0.668201
N64	N	-3.300557	0.449581	-0.168201
N65	N	-3.831444	-0.050076	-0.737895
N66	N	-3.331444	0.449924	-0.237895
C67	C	-3.990237	-0.110249	-0.783873
C68	C	-3.490237	0.389751	-0.283873
N69	N	-4.116957	-0.170790	-0.757524
N70	N	-3.616957	0.329210	-0.257524
N71	N	-4.086059	-0.171136	-0.687823
N72	N	-3.586059	0.328864	-0.187823
C73	C	-3.927521	-0.110952	-0.642379
C74	C	-3.427521	0.389048	-0.142379
C75	C	-4.081058	-0.187215	-0.910286
C76	C	-3.581058	0.312785	-0.410286
C77	C	-4.113607	-0.186848	-0.983655
C78	C	-3.613607	0.313152	-0.483655
C79	C	-4.035012	-0.031755	-0.963288
C80	C	-3.535012	0.468245	-0.463288
C81	C	-4.002485	-0.032124	-0.889921
C82	C	-3.502485	0.467876	-0.389921
C83	C	-4.025501	-0.109857	-0.863425
C84	C	-3.525501	0.390143	-0.363425
C85	C	-4.134762	0.039866	-0.211688
C86	C	-3.634762	0.539866	0.288312
C87	C	-4.072293	0.133942	-0.212093
C88	C	-3.572293	0.633942	0.287907
C89	C	-4.145932	-0.108729	-0.088236
C90	C	-3.645932	0.391271	0.411764
C91	C	-4.090567	-0.109122	-0.010154
C92	C	-3.590567	0.390878	0.489846
H93	H	-3.584955	-0.549455	-0.206513
H94	H	-3.084955	-0.049455	0.293487
Cl95	Cl	-3.807778	0.063719	-0.549277
Cl96	Cl	-3.307778	0.563719	-0.049277
H97	H	-3.749710	-0.638764	-0.102111
H98	H	-3.249710	-0.138764	0.397889
H99	H	-4.167920	-0.582429	-0.324121
H100	H	-3.667920	-0.082429	0.175879
Cl101	Cl	-4.076448	-0.523909	-0.083306
Cl102	Cl	-3.576448	-0.023909	0.416694
Cl103	Cl	-4.183445	-0.284105	-1.042566
Cl104	Cl	-3.683445	0.215895	-0.542566
H105	H	-3.957253	0.030867	-0.851767
H106	H	-3.457253	0.530867	-0.351767
Cl107	Cl	-4.109995	-0.284933	-0.876973
Cl108	Cl	-3.609995	0.215067	-0.376973
Cl109	Cl	-4.426202	-0.686987	-0.221241
Cl110	Cl	-3.926202	-0.186987	0.278759
Cl111	Cl	-3.841096	-0.697445	-0.342774
Cl112	Cl	-3.341096	-0.197445	0.157226
Cl113	Cl	-3.985126	-0.286337	-0.595243
Cl114	Cl	-3.485126	0.213663	-0.095243
Cl115	Cl	-3.911737	-0.287168	-0.429651
Cl116	Cl	-3.411737	0.212832	0.070349
Cl117	Cl	-4.006073	0.065957	-0.996600
Cl118	Cl	-3.506073	0.565957	-0.496600
Cl119	Cl	-3.734371	0.062896	-0.383681
Cl120	Cl	-3.234371	0.562896	0.116319
