data_functionalizedCrystal
_audit_creation_method	'MofGen! by Chris Wilmer'
_symmetry_space_group_name_H-M	'P1'
_symmetry_Int_Tables_number	1
_symmetry_cell_setting	triclinic
loop_
_symmetry_equiv_pos_as_xyz
  x,y,z
_cell_length_a	15.298068
_cell_length_b	16.959454
_cell_length_c	15.296721
_cell_angle_alpha	99.648373
_cell_angle_beta	88.354701
_cell_angle_gamma	99.680351
loop_
_atom_site_label
_atom_site_type_symbol
_atom_site_fract_x
_atom_site_fract_y
_atom_site_fract_z
Zn1	Zn	1.253388	-0.235143	-0.727378
Zn2	Zn	1.753388	0.264857	-0.227378
Zn3	Zn	1.278653	-0.341301	-0.580916
Zn4	Zn	1.778653	0.158699	-0.080916
Zn5	Zn	1.132267	-0.227462	-0.555545
Zn6	Zn	1.632267	0.272538	-0.055545
Zn7	Zn	1.106884	-0.385613	-0.701942
Zn8	Zn	1.606884	0.114387	-0.201942
O9	O	1.192798	-0.297380	-0.641445
O10	O	1.692798	0.202620	-0.141445
O11	O	1.379315	-0.233894	-0.729213
O12	O	1.879315	0.266106	-0.229213
O13	O	1.280431	-0.304440	-0.454987
O14	O	1.780431	0.195560	0.045013
O15	O	1.148383	-0.117867	-0.578366
O16	O	1.648383	0.382133	-0.078366
O17	O	1.397877	-0.311888	-0.621607
O18	O	1.897877	0.188112	-0.121607
O19	O	1.237370	-0.123510	-0.704612
O20	O	1.737370	0.376490	-0.204612
O21	O	1.172882	-0.220804	-0.436347
O22	O	1.672882	0.279196	0.063653
O23	O	1.006325	-0.263772	-0.553701
O24	O	1.506325	0.236228	-0.053701
O25	O	1.105122	-0.387412	-0.827879
O26	O	1.605122	0.112588	-0.327879
O27	O	0.987676	-0.379964	-0.661259
O28	O	1.487676	0.120036	-0.161259
O29	O	1.212757	-0.276862	-0.846567
O30	O	1.712757	0.223138	-0.346567
O31	O	1.255819	-0.457793	-0.596943
O32	O	1.755819	0.042207	-0.096943
O33	O	1.129621	-0.490349	-0.685860
O34	O	1.629621	0.009651	-0.185860
C35	C	0.965218	-0.325844	-0.601967
C36	C	1.465218	0.174156	-0.101967
C37	C	0.867854	-0.338044	-0.585099
C38	C	1.367854	0.161956	-0.085099
C39	C	0.554686	-0.210384	-0.762005
C40	C	1.054686	0.289616	-0.262005
C41	C	0.646163	-0.198925	-0.777859
C42	C	1.146163	0.301075	-0.277859
C43	C	0.701590	-0.233703	-0.729670
C44	C	1.201590	0.266297	-0.229670
C45	C	0.665532	-0.279943	-0.665626
C46	C	1.165532	0.220057	-0.165626
C47	C	0.574045	-0.291409	-0.649776
C48	C	1.074045	0.208591	-0.149776
C49	C	0.720949	-0.314728	-0.617440
C50	C	1.220949	0.185272	-0.117440
C51	C	0.684891	-0.360968	-0.553396
C52	C	1.184891	0.139032	-0.053396
C53	C	0.593413	-0.372431	-0.537548
C54	C	1.093413	0.127569	-0.037548
C55	C	0.537986	-0.337653	-0.585737
C56	C	1.037986	0.162347	-0.085737
C57	C	0.812436	-0.303263	-0.633290
C58	C	1.312436	0.196737	-0.133290
C59	C	0.831795	-0.384288	-0.521061
C60	C	1.331795	0.115712	-0.021061
C61	C	0.740318	-0.395747	-0.505207
C62	C	1.240318	0.104253	-0.005207
C63	C	1.192727	-0.502752	-0.641418
C64	C	1.692727	-0.002752	-0.141418
C65	C	1.192772	-0.590607	-0.641449
C66	C	1.692772	-0.090607	-0.141449
C67	C	1.127169	-0.979049	-0.687753
C68	C	1.627169	-0.479049	-0.187753
C69	C	1.258656	-0.945093	-0.595269
C70	C	1.758656	-0.445093	-0.095269
C71	C	1.258627	-0.862549	-0.595256
C72	C	1.758627	-0.362549	-0.095256
C73	C	1.192867	-0.838252	-0.641490
C74	C	1.692867	-0.338252	-0.141490
C75	C	1.127136	-0.896498	-0.687738
C76	C	1.627136	-0.396498	-0.187738
C77	C	1.324350	-0.804297	-0.549001
C78	C	1.824350	-0.304297	-0.049001
C79	C	1.324323	-0.721747	-0.548985
C80	C	1.824323	-0.221747	-0.048985
C81	C	1.258567	-0.697449	-0.595226
C82	C	1.758567	-0.197449	-0.095226
C83	C	1.192834	-0.755701	-0.641476
C84	C	1.692834	-0.255701	-0.141476
C85	C	1.127075	-0.731404	-0.687711
C86	C	1.627075	-0.231404	-0.187711
C87	C	1.061345	-0.789655	-0.733967
C88	C	1.561345	-0.289655	-0.233967
C89	C	1.061380	-0.872200	-0.733979
C90	C	1.561380	-0.372200	-0.233979
C91	C	1.258532	-0.614904	-0.595214
C92	C	1.758532	-0.114904	-0.095214
C93	C	1.127042	-0.648853	-0.687697
C94	C	1.627042	-0.148853	-0.187697
C95	C	1.421267	-0.268805	-0.681078
C96	C	1.921267	0.231195	-0.181078
C97	C	1.518627	-0.256628	-0.697967
C98	C	2.018627	0.243372	-0.197967
C99	C	1.153290	-0.337937	-0.869891
C100	C	1.653290	0.162063	-0.369891
C101	C	1.136454	-0.355220	-0.967241
C102	C	1.636454	0.144780	-0.467241
C103	C	1.192890	-0.091205	-0.641496
C104	C	1.692890	0.408795	-0.141496
C105	C	1.192929	-0.003346	-0.641518
C106	C	1.692929	0.496654	-0.141518
C107	C	1.072500	-0.420897	-1.003243
C108	C	1.572500	0.079103	-0.503243
C109	C	1.056683	-0.437140	-1.094708
C110	C	1.556683	0.062860	-0.594708
C111	C	1.104813	-0.387703	-1.150179
C112	C	1.604813	0.112297	-0.650179
C113	C	1.168763	-0.322022	-1.114177
C114	C	1.668763	0.177978	-0.614177
C115	C	1.184587	-0.305781	-1.022704
C116	C	1.684587	0.194219	-0.522704
C117	C	1.216899	-0.272588	-1.169641
C118	C	1.716899	0.227412	-0.669641
C119	C	1.280850	-0.206906	-1.133638
C120	C	1.780850	0.293094	-0.633638
C121	C	1.296670	-0.190668	-1.042173
C122	C	1.796670	0.309332	-0.542173
C123	C	1.248540	-0.240104	-0.986702
C124	C	1.748540	0.259896	-0.486702
C125	C	1.201076	-0.288829	-1.261114
C126	C	1.701076	0.211171	-0.761114
C127	C	1.313162	-0.173713	-1.280575
C128	C	1.813162	0.326287	-0.780575
C129	C	1.328980	-0.157470	-1.189110
C130	C	1.828980	0.342530	-0.689110
C131	C	1.232203	-0.256917	-0.413897
C132	C	1.732203	0.243083	0.086103
C133	C	1.249209	-0.239390	-0.316577
C134	C	1.749209	0.260610	0.183423
H135	H	0.675515	-0.161279	-0.830006
H136	H	1.175515	0.338721	-0.330006
N137	N	1.329567	-0.971294	-0.545387
N138	N	1.829567	-0.471294	-0.045387
H139	H	1.319610	-1.032425	-0.552408
H140	H	1.819610	-0.532425	-0.052408
H141	H	1.389747	-0.951430	-0.569911
H142	H	1.889747	-0.451430	-0.069911
H143	H	1.073495	-0.629078	-0.725351
H144	H	1.573495	-0.129078	-0.225351
H145	H	1.149007	-0.342307	-1.290418
H146	H	1.649007	0.157693	-0.790418
H147	H	1.377844	-0.674324	-0.511322
H148	H	1.877844	-0.174324	-0.011322
H149	H	1.377883	-0.824086	-0.511352
H150	H	1.877883	-0.324086	-0.011352
N151	N	0.990488	-0.935024	-0.783861
N152	N	1.490488	-0.435024	-0.283861
H153	H	1.000485	-0.991002	-0.776848
H154	H	1.500485	-0.491002	-0.276848
H155	H	0.930304	-0.926033	-0.759323
H156	H	1.430304	-0.426033	-0.259323
N157	N	1.329421	-0.552085	-0.545330
N158	N	1.829421	-0.052085	-0.045330
H159	H	1.363813	-0.519053	-0.587986
H160	H	1.863813	-0.019053	-0.087986
H161	H	1.300805	-0.515161	-0.498540
H162	H	1.800805	-0.015161	0.001460
N163	N	1.397969	-0.086645	-1.150273
N164	N	1.897969	0.413355	-0.650273
H165	H	1.368964	-0.047725	-1.106148
H166	H	1.868964	0.452275	-0.606148
H167	H	1.445078	-0.107042	-1.119411
H168	H	1.945078	0.392958	-0.619411
H169	H	0.776075	-0.224367	-0.742579
H170	H	1.276075	0.275633	-0.242579
H171	H	0.876924	-0.412612	-0.481826
H172	H	1.376924	0.087388	0.018174
N173	N	0.851319	-0.253394	-0.702364
N174	N	1.351319	0.246606	-0.202364
H175	H	0.917682	-0.251409	-0.705099
H176	H	1.417682	0.248591	-0.205099
H177	H	0.824519	-0.278899	-0.762118
H178	H	1.324519	0.221101	-0.262118
N179	N	1.365084	-0.120390	-1.340394
N180	N	1.865084	0.379610	-0.840394
H181	H	1.345355	-0.140642	-1.403801
H182	H	1.845355	0.359358	-0.903801
H183	H	1.354246	-0.062801	-1.322056
H184	H	1.854246	0.437199	-0.822056
N185	N	1.087757	-0.405209	-1.248832
N186	N	1.587757	0.094791	-0.748832
H187	H	1.100022	-0.461331	-1.273650
H188	H	1.600022	0.038669	-0.773650
H189	H	1.023863	-0.402060	-1.260368
H190	H	1.523863	0.097940	-0.760368
N191	N	0.494907	-0.172884	-0.813981
N192	N	0.994907	0.327116	-0.313981
H193	H	0.431483	-0.187167	-0.794223
H194	H	0.931483	0.312833	-0.294223
H195	H	0.513239	-0.112007	-0.803232
H196	H	1.013239	0.387993	-0.303232
H197	H	1.004616	-0.490619	-1.124015
H198	H	1.504616	0.009381	-0.624015
N199	N	1.365637	-0.119822	-1.003341
N200	N	1.865637	0.380178	-0.503341
H201	H	1.368356	-0.117034	-0.936980
H202	H	1.868356	0.382966	-0.436980
H203	H	1.425427	-0.127132	-1.030177
H204	H	1.925427	0.372868	-0.530177
H205	H	1.073656	-1.026480	-0.725416
H206	H	1.573656	-0.526480	-0.225416
N207	N	1.020597	-0.474217	-0.943420
N208	N	1.520597	0.025783	-0.443420
H209	H	1.062746	-0.499656	-0.911640
H210	H	1.562746	0.000344	-0.411640
H211	H	0.986589	-0.440384	-0.898485
H212	H	1.486589	0.059616	-0.398485
N213	N	0.439318	-0.349998	-0.568637
N214	N	0.939318	0.150002	-0.068637
H215	H	0.406900	-0.378029	-0.624874
H216	H	0.906900	0.121971	-0.124874
H217	H	0.424953	-0.384546	-0.520729
H218	H	0.924953	0.115454	-0.020729
N219	N	0.554517	-0.422311	-0.468481
N220	N	1.054517	0.077689	0.031519
H221	H	0.603508	-0.442603	-0.440357
H222	H	1.103508	0.057397	0.059643
H223	H	0.523558	-0.387649	-0.421436
H224	H	1.023558	0.112351	0.078564
N225	N	0.701414	-0.445616	-0.436133
N226	N	1.201414	0.054384	0.063867
H227	H	0.657313	-0.493358	-0.465081
H228	H	1.157313	0.006642	0.034919
H229	H	0.750452	-0.465854	-0.408026
H230	H	1.250452	0.034146	0.091974
H231	H	1.261410	-0.226879	-0.912221
H232	H	1.761410	0.273121	-0.412221
H233	H	1.007800	-0.769862	-0.771607
H234	H	1.507800	-0.269862	-0.271607
