data_functionalizedCrystal
_audit_creation_method	'MofGen! by Chris Wilmer'
_symmetry_space_group_name_H-M	'P1'
_symmetry_Int_Tables_number	1
_symmetry_cell_setting	triclinic
loop_
_symmetry_equiv_pos_as_xyz
  x,y,z
_cell_length_a	13.635800
_cell_length_b	11.353959
_cell_length_c	17.078481
_cell_angle_alpha	73.297790
_cell_angle_beta	99.306161
_cell_angle_gamma	72.473377
loop_
_atom_site_label
_atom_site_type_symbol
_atom_site_fract_x
_atom_site_fract_y
_atom_site_fract_z
V1	V	2.007579	-0.180568	0.272305
O2	O	1.983138	0.008991	0.241411
O3	O	2.000985	-0.358339	0.295170
O4	O	1.972815	-0.177653	0.379785
O5	O	2.011503	-0.172945	0.156210
V6	V	2.248481	-0.157911	0.255415
O7	O	2.140095	-0.230269	0.309354
O8	O	2.341063	-0.108211	0.218366
O9	O	2.143471	0.019859	0.232550
O10	O	2.331620	-0.347471	0.286309
O11	O	2.303255	-0.165534	0.371510
O12	O	2.171641	-0.160826	0.147935
V13	V	2.507579	-0.180568	0.272305
O14	O	2.483138	0.008991	0.241411
O15	O	2.500985	-0.358339	0.295170
O16	O	2.472815	-0.177653	0.379785
O17	O	2.511503	-0.172945	0.156210
V18	V	2.748481	-0.157911	0.255415
O19	O	2.640095	-0.230269	0.309354
O20	O	2.841063	-0.108211	0.218366
O21	O	2.643471	0.019859	0.232550
O22	O	2.831620	-0.347471	0.286309
O23	O	2.803255	-0.165534	0.371510
O24	O	2.671641	-0.160826	0.147935
C25	C	1.928110	-0.401680	0.297255
C26	C	1.963292	-0.547008	0.316666
C27	C	1.964694	-0.594144	0.253836
C28	C	2.001056	-0.744349	0.273897
C29	C	1.892176	-0.171195	0.405189
C30	C	1.904511	-0.169988	0.493217
C31	C	2.048018	0.063193	0.230464
C32	C	2.002455	0.208521	0.211058
C33	C	2.083952	-0.167288	0.122528
C34	C	2.061236	-0.168489	0.034498
C35	C	2.428110	-0.401680	0.297255
C36	C	2.463292	-0.547008	0.316666
C37	C	2.392176	-0.171195	0.405189
C38	C	2.404511	-0.169988	0.493217
C39	C	2.001619	-0.175947	0.539516
C40	C	2.013202	-0.174812	0.622227
C41	C	1.927680	-0.167727	0.658640
C42	C	1.830564	-0.161764	0.612334
C43	C	1.818979	-0.162890	0.529622
C44	C	1.952534	-0.163652	0.905480
C45	C	1.964128	-0.162530	0.988199
C46	C	2.146766	-0.175576	0.998086
C47	C	2.135174	-0.176709	0.915374
C48	C	2.038058	-0.170739	0.869074
N49	N	1.939520	-0.166571	0.743185
N50	N	2.026217	-0.171886	0.784528
C51	C	2.548018	0.063193	0.230464
C52	C	2.502455	0.208521	0.211058
C53	C	2.583952	-0.167288	0.122528
C54	C	2.561236	-0.168489	0.034498
C55	C	2.571158	-0.621917	0.330666
C56	C	2.604231	-0.758473	0.348918
C57	C	2.529436	-0.820116	0.353164
C58	C	2.421562	-0.745197	0.339165
C59	C	2.388491	-0.608646	0.320919
C60	C	2.501623	-0.175934	0.539499
C61	C	2.513223	-0.174783	0.622208
C62	C	2.427712	-0.167694	0.658634
C63	C	2.330591	-0.161744	0.612344
C64	C	2.318990	-0.162886	0.529635
C65	C	2.567083	0.283429	0.197061
C66	C	2.524281	0.419983	0.178813
C67	C	2.416853	0.481626	0.174569
C68	C	2.352220	0.406709	0.188566
C69	C	2.395020	0.270158	0.206807
C70	C	2.464513	-0.175562	-0.001910
C71	C	2.443150	-0.176675	-0.084626
C72	C	2.518513	-0.170724	-0.130931
C73	C	2.615243	-0.163646	-0.094518
C74	C	2.636602	-0.162524	-0.011806
H75	H	2.026778	-0.815191	0.342545
H76	H	1.938980	-0.523299	0.185194
H77	H	2.092274	-0.179656	0.659919
N78	N	1.968399	-0.697659	0.120124
H79	H	1.947253	-0.603657	0.118681
H80	H	1.905479	-0.708817	0.087117
H81	H	2.437172	-0.166766	0.725982
H82	H	2.676597	-0.158797	-0.132233
N83	N	2.593857	-0.183551	0.500218
H84	H	2.571785	-0.183370	0.440797
H85	H	2.656713	-0.267598	0.535783
N86	N	2.617985	-0.181227	0.672127
H87	H	2.612369	-0.179423	0.730050
H88	H	2.634899	-0.102875	0.640867
H89	H	2.654560	0.233258	0.200514
N90	N	2.338822	-0.184325	-0.123877
H91	H	2.353681	-0.266485	-0.139029
H92	H	2.298602	-0.103616	-0.176888
H93	H	2.239910	-0.158047	0.491959
H94	H	2.260972	-0.155974	0.642016
N95	N	1.997377	-0.640837	0.407596
H96	H	2.018528	-0.734839	0.409038
H97	H	1.936075	-0.620640	0.433976
H98	H	1.894479	-0.156757	1.017843
N99	N	2.594005	0.500767	0.163732
H100	H	2.668556	0.440985	0.169203
H101	H	2.596822	0.545071	0.207111
H102	H	2.264748	0.456919	0.185106
H103	H	2.382015	0.592816	0.159714
H104	H	2.342387	0.209176	0.218210
N105	N	2.093864	-0.183598	0.500247
H106	H	2.157138	-0.187198	0.542130
H107	H	2.072093	-0.102942	0.447195
N108	N	2.720567	-0.839238	0.363944
H109	H	2.730177	-0.935096	0.376133
H110	H	2.764947	-0.830923	0.414022
N111	N	2.227415	-0.184345	0.876100
H112	H	2.290691	-0.187943	0.917981
H113	H	2.205637	-0.103685	0.823049
N114	N	2.251507	-0.182010	1.048022
H115	H	2.245873	-0.180220	1.105945
H116	H	2.268411	-0.103643	1.016773
H117	H	2.403135	-0.180408	0.035781
H118	H	2.501114	-0.171654	-0.198276
N119	N	2.740927	-0.154892	0.027458
H120	H	2.785421	-0.151294	-0.014432
H121	H	2.781099	-0.235552	0.080507
H122	H	2.360672	-0.795408	0.342624
H123	H	2.300655	-0.547663	0.309517
H124	H	1.760929	-0.155988	0.641986
N125	N	1.847792	-0.157208	0.855547
H126	H	1.795377	-0.152553	0.891169
H127	H	1.859942	-0.238795	0.839958
H128	H	1.739897	-0.158005	0.491919
H129	H	2.556379	-0.931306	0.368021
N130	N	2.651840	-0.555449	0.326090
H131	H	2.725188	-0.623641	0.337735
H132	H	2.652317	-0.511716	0.369890
