data_functionalizedCrystal
_audit_creation_method	'MofGen! by Chris Wilmer'
_symmetry_space_group_name_H-M	'P1'
_symmetry_Int_Tables_number	1
_symmetry_cell_setting	triclinic
loop_
_symmetry_equiv_pos_as_xyz
  x,y,z
_cell_length_a	12.759401
_cell_length_b	29.839131
_cell_length_c	12.759393
_cell_angle_alpha	89.963820
_cell_angle_beta	89.979541
_cell_angle_gamma	90.042945
loop_
_atom_site_label
_atom_site_type_symbol
_atom_site_fract_x
_atom_site_fract_y
_atom_site_fract_z
Zn1	Zn	1.606066	-0.178816	-0.593974
Zn2	Zn	2.106066	0.321184	-0.093974
Zn3	Zn	1.605877	-0.253952	-0.418275
Zn4	Zn	2.105877	0.246048	0.081725
Zn5	Zn	1.430367	-0.178839	-0.418309
Zn6	Zn	1.930367	0.321161	0.081691
Zn7	Zn	1.430275	-0.253922	-0.593912
Zn8	Zn	1.930275	0.246078	-0.093912
O9	O	1.518146	-0.216382	-0.506117
O10	O	2.018146	0.283618	-0.006117
O11	O	1.753062	-0.188786	-0.570679
O12	O	2.253062	0.311214	-0.070679
O13	O	1.582554	-0.244011	-0.271258
O14	O	2.082554	0.255989	0.228742
O15	O	1.453791	-0.115969	-0.441652
O16	O	1.953791	0.384031	0.058348
O17	O	1.752923	-0.243989	-0.441593
O18	O	2.252923	0.256011	0.058407
O19	O	1.582877	-0.115952	-0.570712
O20	O	2.082877	0.384048	-0.070712
O21	O	1.453607	-0.188826	-0.271283
O22	O	1.953607	0.311174	0.228717
O23	O	1.283333	-0.188796	-0.441592
O24	O	1.783333	0.311204	0.058408
O25	O	1.453635	-0.243936	-0.740941
O26	O	1.953635	0.256064	-0.240941
O27	O	1.283266	-0.243959	-0.570606
O28	O	1.783266	0.256041	-0.070606
O29	O	1.582788	-0.188757	-0.740987
O30	O	2.082788	0.311243	-0.240987
O31	O	1.582465	-0.316816	-0.441533
O32	O	2.082465	0.183184	0.058467
O33	O	1.453451	-0.316793	-0.570573
O34	O	1.953451	0.183207	-0.070573
C35	C	1.245179	-0.216377	-0.506097
C36	C	1.745179	0.283623	-0.006097
C37	C	1.128402	-0.216385	-0.506113
C38	C	1.628402	0.283615	-0.006113
C39	C	1.073533	-0.245152	-0.573185
C40	C	1.573533	0.254848	-0.073185
C41	C	0.963809	-0.245154	-0.573206
C42	C	1.463809	0.254846	-0.073206
C43	C	0.963833	-0.187621	-0.439073
C44	C	1.463833	0.312379	0.060927
C45	C	1.073555	-0.187617	-0.439058
C46	C	1.573555	0.312383	0.060942
C47	C	1.517957	-0.333105	-0.506065
C48	C	2.017957	0.166895	-0.006065
C49	C	1.517971	-0.383039	-0.506078
C50	C	2.017971	0.116961	-0.006078
C51	C	1.585446	-0.692682	-0.439024
C52	C	2.085446	-0.192682	0.060976
C53	C	1.585576	-0.880355	-0.439065
C54	C	2.085576	-0.380355	0.060935
O55	O	1.642794	-0.904619	-0.382014
O56	O	2.142794	-0.404619	0.117986
N57	N	1.518364	-0.903824	-0.506197
N58	N	2.018364	-0.403824	-0.006197
C59	C	1.451120	-0.880373	-0.573327
C60	C	1.951120	-0.380373	-0.073327
O61	O	1.393963	-0.904641	-0.630435
O62	O	1.893963	-0.404641	-0.130435
C63	C	1.450997	-0.692701	-0.573291
C64	C	1.950997	-0.192701	-0.073291
C65	C	1.518205	-0.669234	-0.506148
C66	C	2.018205	-0.169234	-0.006148
C67	C	1.652650	-0.669215	-0.371888
C68	C	2.152650	-0.169215	0.128112
C69	C	1.652613	-0.622299	-0.371874
C70	C	2.152613	-0.122299	0.128126
C71	C	1.585372	-0.598851	-0.438997
C72	C	2.085372	-0.098851	0.061003
C73	C	1.518168	-0.622318	-0.506134
C74	C	2.018168	-0.122318	-0.006134
C75	C	1.383759	-0.669250	-0.640427
C76	C	1.883759	-0.169250	-0.140427
C77	C	1.383736	-0.622329	-0.640413
C78	C	1.883736	-0.122329	-0.140413
C79	C	1.450944	-0.598862	-0.573270
C80	C	1.950944	-0.098862	-0.073270
C81	C	1.450890	-0.551954	-0.573244
C82	C	1.950890	-0.051954	-0.073244
N83	N	1.518101	-0.528485	-0.506113
N84	N	2.018101	-0.028485	-0.006113
C85	C	1.585342	-0.551933	-0.438989
C86	C	2.085342	-0.051933	0.061011
C87	C	1.451188	-0.978903	-0.573340
C88	C	1.951188	-0.478903	-0.073340
C89	C	1.451218	-1.025821	-0.573348
C90	C	1.951218	-0.525821	-0.073348
C91	C	1.585675	-1.025800	-0.439087
C92	C	2.085675	-0.525800	0.060913
C93	C	1.585639	-0.978881	-0.439075
C94	C	2.085639	-0.478881	0.060925
C95	C	1.518400	-0.955434	-0.506209
C96	C	2.018400	-0.455434	-0.006209
C97	C	1.585259	-0.453407	-0.438965
C98	C	2.085259	0.046593	0.061035
C99	C	1.585212	-0.406488	-0.438955
C100	C	2.085212	0.093512	0.061045
C101	C	1.450760	-0.406513	-0.573219
C102	C	1.950760	0.093487	-0.073219
C103	C	1.450801	-0.453429	-0.573226
C104	C	1.950801	0.046571	-0.073226
C105	C	1.518059	-0.476875	-0.506096
C106	C	2.018059	0.023125	-0.006096
O107	O	1.393709	-0.527661	-0.630274
O108	O	1.893709	-0.027661	-0.130274
O109	O	1.642507	-0.527656	-0.381907
O110	O	2.142507	-0.027656	0.118093
C111	C	1.585483	-0.739597	-0.439038
C112	C	2.085483	-0.239597	0.060962
C113	C	1.518279	-0.763064	-0.506175
C114	C	2.018279	-0.263064	-0.006175
C115	C	1.451038	-0.739616	-0.573298
C116	C	1.951038	-0.239616	-0.073298
C117	C	1.518309	-0.809982	-0.506183
C118	C	2.018309	-0.309982	-0.006183
C119	C	1.585550	-0.833431	-0.439060
C120	C	2.085550	-0.333431	0.060940
C121	C	1.652761	-0.809961	-0.371928
C122	C	2.152761	-0.309961	0.128072
C123	C	1.652724	-0.763046	-0.371915
C124	C	2.152724	-0.263046	0.128085
C125	C	1.383827	-0.763086	-0.640430
C126	C	1.883827	-0.263086	-0.140430
C127	C	1.383869	-0.810001	-0.640437
C128	C	1.883869	-0.310001	-0.140437
C129	C	1.451110	-0.833450	-0.573314
C130	C	1.951110	-0.333450	-0.073314
C131	C	1.792179	-0.216388	-0.506139
C132	C	2.292179	0.283612	-0.006139
C133	C	1.908956	-0.216391	-0.506148
C134	C	2.408956	0.283609	-0.006148
C135	C	1.518223	-0.216341	-0.780151
C136	C	2.018223	0.283659	-0.280151
C137	C	1.518255	-0.216323	-0.896928
C138	C	2.018255	0.283677	-0.396928
C139	C	1.518365	-0.099204	-0.506193
C140	C	2.018365	0.400796	-0.006193
C141	C	1.518459	-0.049270	-0.506225
C142	C	2.018459	0.450730	-0.006225
C143	C	1.585425	-0.245024	-1.061512
C144	C	2.085425	0.254976	-0.561512
C145	C	1.585400	-0.245046	-0.951788
C146	C	2.085400	0.254954	-0.451788
C147	C	1.451124	-0.187580	-0.951797
C148	C	1.951124	0.312420	-0.451797
C149	C	1.451145	-0.187561	-1.061519
C150	C	1.951145	0.312439	-0.561519
C151	C	1.518131	-0.216392	-0.233150
C152	C	2.018131	0.283608	0.266850
C153	C	1.518302	-0.216283	-0.116374
C154	C	2.018302	0.283717	0.383626
H155	H	0.919164	-0.164199	-0.384478
H156	H	1.419164	0.335801	0.115522
H157	H	1.707342	-0.603195	-0.317203
H158	H	2.207342	-0.103195	0.182797
Br159	Br	1.360021	-0.148561	-1.135982
Br160	Br	1.860021	0.351439	-0.635982
Br161	Br	1.359987	-1.057664	-0.664459
Br162	Br	1.859987	-0.557664	-0.164459
Br163	Br	1.147965	-0.284194	-0.664189
Br164	Br	1.647965	0.215806	-0.164189
H165	H	1.640029	-0.472491	-0.384304
H166	H	2.140029	0.027509	0.115696
H167	H	0.919139	-0.268578	-0.627824
H168	H	1.419139	0.231422	-0.127824
Br169	Br	1.148028	-0.148569	-0.348035
Br170	Br	1.648028	0.351431	0.151965
H171	H	1.707411	-0.688301	-0.317227
H172	H	2.207411	-0.188301	0.182773
H173	H	1.396449	-0.164195	-0.907121
H174	H	1.896449	0.335805	-0.407121
H175	H	1.639941	-0.387382	-0.384275
H176	H	2.139941	0.112618	0.115725
H177	H	1.640425	-1.044900	-0.384433
H178	H	2.140425	-0.544900	0.115567
Br179	Br	1.676853	-0.947038	-0.347948
Br180	Br	2.176853	-0.447038	0.152052
Br181	Br	1.359925	-0.947089	-0.664460
Br182	Br	1.859925	-0.447089	-0.164460
Br183	Br	1.359564	-0.485278	-0.664324
Br184	Br	1.859564	0.014722	-0.164324
H185	H	1.329025	-0.688349	-0.695097
H186	H	1.829025	-0.188349	-0.195097
Br187	Br	1.359512	-0.374681	-0.664315
Br188	Br	1.859512	0.125319	-0.164315
Br189	Br	1.292481	-0.590510	-0.731534
Br190	Br	1.792481	-0.090510	-0.231534
H191	H	1.707452	-0.743942	-0.317241
H192	H	2.207452	-0.243942	0.182759
Br193	Br	1.676496	-0.284056	-0.877336
Br194	Br	2.176496	0.215944	-0.377336
H195	H	1.707508	-0.829061	-0.317271
H196	H	2.207508	-0.329061	0.182729
Br197	Br	1.292645	-0.841844	-0.731566
Br198	Br	1.792645	-0.341844	-0.231566
H199	H	1.329072	-0.743998	-0.695091
H200	H	1.829072	-0.243998	-0.195091
H201	H	1.640108	-0.268412	-1.106171
H202	H	2.140108	0.231588	-0.606171
