data_functionalizedCrystal
_audit_creation_method	'MofGen! by Chris Wilmer'
_symmetry_space_group_name_H-M	'P1'
_symmetry_Int_Tables_number	1
_symmetry_cell_setting	triclinic
loop_
_symmetry_equiv_pos_as_xyz
  x,y,z
_cell_length_a	13.033291
_cell_length_b	13.034570
_cell_length_c	11.169409
_cell_angle_alpha	82.847055
_cell_angle_beta	97.211342
_cell_angle_gamma	90.908316
loop_
_atom_site_label
_atom_site_type_symbol
_atom_site_fract_x
_atom_site_fract_y
_atom_site_fract_z
Zn1	Zn	1.624450	-0.209778	0.946605
Zn2	Zn	2.124450	0.290222	1.446605
Zn3	Zn	1.646176	-0.381772	0.774211
Zn4	Zn	2.146176	0.118228	1.274211
Zn5	Zn	1.452450	-0.231659	0.723995
Zn6	Zn	1.952450	0.268341	1.223995
Zn7	Zn	1.474259	-0.403494	0.952900
Zn8	Zn	1.974259	0.096506	1.452900
O9	O	1.549334	-0.306676	0.849428
O10	O	2.049334	0.193324	1.349428
O11	O	1.771262	-0.214345	0.942118
O12	O	2.271262	0.285655	1.442118
O13	O	1.620443	-0.361926	0.599605
O14	O	2.120443	0.138074	1.099605
O15	O	1.457046	-0.084863	0.729875
O16	O	1.957046	0.415137	1.229875
O17	O	1.787224	-0.340709	0.815461
O18	O	2.287224	0.159291	1.315461
O19	O	1.583413	-0.068787	0.893426
O20	O	2.083413	0.431213	1.393426
O21	O	1.478113	-0.251639	0.562711
O22	O	1.978113	0.248361	1.062711
O23	O	1.311412	-0.272702	0.735978
O24	O	1.811412	0.227298	1.235978
O25	O	1.494217	-0.377731	1.120010
O26	O	1.994217	0.122269	1.620010
O27	O	1.327436	-0.398948	0.904154
O28	O	1.827436	0.101052	1.404154
O29	O	1.604561	-0.235408	1.115386
O30	O	2.104561	0.264592	1.615386
O31	O	1.641591	-0.528547	0.821564
O32	O	2.141591	-0.028547	1.321564
O33	O	1.515284	-0.544507	0.952846
O34	O	2.015284	-0.044507	1.452846
C35	C	1.282105	-0.340557	0.815301
C36	C	1.782105	0.159443	1.315301
C37	C	1.167786	-0.355077	0.800733
C38	C	1.667786	0.144923	1.300733
C39	C	0.990781	-0.314121	0.841987
C40	C	1.490781	0.185879	1.341987
C41	C	1.108935	-0.299117	0.857043
C42	C	1.608935	0.200883	1.357043
C43	C	1.583190	-0.573833	0.893367
C44	C	2.083190	-0.073833	1.393367
C45	C	1.597768	-0.688112	0.912216
C46	C	2.097768	-0.188112	1.412216
C47	C	1.556864	-0.865202	0.859122
C48	C	2.056864	-0.365202	1.359122
C49	C	1.541797	-0.747088	0.839647
C50	C	2.041797	-0.247088	1.339647
C51	C	1.817606	-0.272663	0.883689
C52	C	2.317606	0.227337	1.383689
C53	C	1.931928	-0.258169	0.898289
C54	C	2.431928	0.241831	1.398289
C55	C	1.549398	-0.306552	1.162462
C56	C	2.049398	0.193448	1.662462
C57	C	1.549426	-0.306499	1.295858
C58	C	2.049426	0.193501	1.795858
C59	C	1.515373	-0.038472	0.805347
C60	C	2.015373	0.461528	1.305347
C61	C	1.500901	0.075821	0.786562
C62	C	2.000901	0.575821	1.286562
C63	C	1.549319	-0.306718	0.537607
C64	C	2.049319	0.193282	1.037607
C65	C	1.549454	-0.306456	0.404189
C66	C	2.049454	0.193544	0.904189
H67	H	0.953693	-0.373127	0.782634
H68	H	1.453693	0.126873	1.282634
C69	C	1.117695	-0.434806	0.720551
C70	C	1.617695	0.065194	1.220551
N71	N	1.079966	-0.494858	0.660161
N72	N	1.579966	0.005142	1.160161
C73	C	1.461994	-0.697181	0.736237
C74	C	1.961994	-0.197181	1.236237
N75	N	1.401886	-0.659588	0.658353
N76	N	1.901886	-0.159588	1.158353
C77	C	1.421103	-0.874267	0.683159
C78	C	1.921103	-0.374267	1.183159
N79	N	1.360995	-0.836675	0.605274
N80	N	1.860995	-0.336675	1.105274
H81	H	1.615935	-0.902151	0.935657
H82	H	2.115935	-0.402151	1.435657
C83	C	0.982026	-0.178444	0.978466
C84	C	1.482026	0.321556	1.478466
N85	N	1.019758	-0.118394	1.038858
N86	N	1.519758	0.381606	1.538858
C87	C	1.159029	-0.219388	0.937224
C88	C	1.659029	0.280612	1.437224
N89	N	1.196761	-0.159338	0.997616
N90	N	1.696761	0.340662	1.497616
C91	C	1.677570	-0.738018	1.015627
C92	C	2.177570	-0.238018	1.515627
N93	N	1.737675	-0.775608	1.093517
N94	N	2.237675	-0.275608	1.593517
