data_functionalizedCrystal
_audit_creation_method	'MofGen! by Chris Wilmer'
_symmetry_space_group_name_H-M	'P1'
_symmetry_Int_Tables_number	1
_symmetry_cell_setting	triclinic
loop_
_symmetry_equiv_pos_as_xyz
  x,y,z
_cell_length_a	18.215407
_cell_length_b	13.897448
_cell_length_c	18.215399
_cell_angle_alpha	90.026328
_cell_angle_beta	90.019833
_cell_angle_gamma	90.018140
loop_
_atom_site_label
_atom_site_type_symbol
_atom_site_fract_x
_atom_site_fract_y
_atom_site_fract_z
Zn1	Zn	1.125109	-0.384013	0.416124
Zn2	Zn	1.458442	-0.050680	0.749458
Zn3	Zn	1.791775	0.282653	1.082791
Zn4	Zn	1.125033	-0.545323	0.293061
Zn5	Zn	1.458366	-0.211990	0.626395
Zn6	Zn	1.791699	0.121344	0.959728
Zn7	Zn	1.002041	-0.384045	0.293072
Zn8	Zn	1.335375	-0.050711	0.626405
Zn9	Zn	1.668708	0.282622	0.959738
Zn10	Zn	1.002023	-0.545269	0.416086
Zn11	Zn	1.335356	-0.211936	0.749420
Zn12	Zn	1.668689	0.121397	1.082753
O13	O	1.063551	-0.464663	0.354586
O14	O	1.396885	-0.131329	0.687919
O15	O	1.730218	0.202004	1.021253
O16	O	1.228083	-0.405421	0.399811
O17	O	1.561416	-0.072087	0.733145
O18	O	1.894750	0.261246	1.066478
O19	O	1.108693	-0.523965	0.190078
O20	O	1.442027	-0.190631	0.523412
O21	O	1.775360	0.142702	0.856745
O22	O	1.018406	-0.249059	0.309415
O23	O	1.351739	0.084274	0.642748
O24	O	1.685073	0.417608	0.976082
O25	O	1.228027	-0.523934	0.309398
O26	O	1.561360	-0.190601	0.642731
O27	O	1.894694	0.142733	0.976064
O28	O	1.108823	-0.249036	0.399821
O29	O	1.442157	0.084298	0.733154
O30	O	1.775490	0.417631	1.066488
O31	O	1.018332	-0.405474	0.190086
O32	O	1.351666	-0.072141	0.523419
O33	O	1.684999	0.261192	0.856753
O34	O	0.899055	-0.405422	0.309378
O35	O	1.232388	-0.072089	0.642711
O36	O	1.565721	0.261244	0.976045
O37	O	1.018374	-0.523843	0.519076
O38	O	1.351708	-0.190509	0.852409
O39	O	1.685041	0.142824	1.185742
O40	O	0.899041	-0.523873	0.399757
O41	O	1.232374	-0.190540	0.733090
O42	O	1.565708	0.142793	1.066423
O43	O	1.108805	-0.405369	0.519103
O44	O	1.442138	-0.072035	0.852437
O45	O	1.775472	0.261298	1.185770
O46	O	1.108675	-0.680297	0.309361
O47	O	1.442009	-0.346964	0.642694
O48	O	1.775342	-0.013631	0.976027
O49	O	1.018300	-0.680258	0.399747
O50	O	1.351634	-0.346925	0.733080
O51	O	1.684967	-0.013591	1.066413
C52	C	0.872345	-0.464646	0.354565
C53	C	1.205678	-0.131313	0.687898
C54	C	1.539012	0.202021	1.021231
C55	C	0.790546	-0.464662	0.354573
C56	C	1.123879	-0.131329	0.687906
C57	C	1.457213	0.202004	1.021240
C58	C	1.063498	-0.715277	0.354565
C59	C	1.396831	-0.381944	0.687898
C60	C	1.730164	-0.048610	1.021231
C61	C	1.063542	-0.822491	0.354580
C62	C	1.396875	-0.489157	0.687913
C63	C	1.730209	-0.155824	1.021247
C64	C	0.602364	-0.526437	0.401574
C65	C	0.935698	-0.193103	0.734907
C66	C	1.269031	0.140230	1.068241
C67	C	0.525506	-0.526440	0.401583
C68	C	0.858839	-0.193106	0.734917
C69	C	1.192172	0.140227	1.068250
C70	C	0.525490	-0.402906	0.307614
C71	C	0.858824	-0.069573	0.640947
C72	C	1.192157	0.263761	0.974280
C73	C	0.602348	-0.402899	0.307609
C74	C	0.935681	-0.069566	0.640942
C75	C	1.269014	0.263768	0.974275
C76	C	0.640783	-0.464670	0.354588
C77	C	0.974116	-0.131336	0.687921
C78	C	1.307449	0.201997	1.021255
C79	C	0.487067	-0.464680	0.354602
C80	C	0.820400	-0.131346	0.687935
C81	C	1.153733	0.201987	1.021269
C82	C	0.403733	-0.464683	0.354612
C83	C	0.737066	-0.131349	0.687945
C84	C	1.070400	0.201984	1.021278
C85	C	0.724122	-0.464666	0.354579
C86	C	1.057455	-0.131332	0.687913
C87	C	1.390788	0.202001	1.021246
C88	C	1.063619	-1.018786	0.354626
C89	C	1.396953	-0.685453	0.687960
C90	C	1.730286	-0.352119	1.021293
C91	C	1.063574	-0.909553	0.354603
C92	C	1.396908	-0.576220	0.687936
C93	C	1.730241	-0.242887	1.021269
C94	C	1.255504	-0.464680	0.354607
C95	C	1.588838	-0.131346	0.687941
C96	C	1.922171	0.201987	1.021274
C97	C	1.337303	-0.464687	0.354617
C98	C	1.670636	-0.131354	0.687950
C99	C	2.003970	0.201979	1.021283
C100	C	1.063596	-0.464596	0.546539
C101	C	1.396929	-0.131263	0.879872
C102	C	1.730263	0.202071	1.213206
C103	C	1.063615	-0.464568	0.628338
C104	C	1.396949	-0.131234	0.961671
C105	C	1.730282	0.202099	1.295004
C106	C	1.063625	-0.213070	0.354623
C107	C	1.396959	0.120264	0.687957
C108	C	1.730292	0.453597	1.021290
C109	C	1.063657	-0.105856	0.354639
C110	C	1.396990	0.227478	0.687973
C111	C	1.730323	0.560811	1.021306
C112	C	1.063549	-0.464659	0.163380
C113	C	1.396882	-0.131326	0.496713
C114	C	1.730216	0.202007	0.830046
C115	C	1.063672	-0.464416	0.081581
C116	C	1.397006	-0.131082	0.414914
C117	C	1.730339	0.202251	0.748248
C118	C	1.110720	-0.402821	0.816547
C119	C	1.444053	-0.069487	1.149881
C120	C	1.777386	0.263846	1.483214
C121	C	1.110728	-0.402792	0.893406
C122	C	1.444062	-0.069459	1.226740
C123	C	1.777395	0.263874	1.560073
C124	C	1.016563	-0.526166	0.893366
C125	C	1.349896	-0.192832	1.226699
C126	C	1.683230	0.140501	1.560033
C127	C	1.016551	-0.526188	0.816509
C128	C	1.349884	-0.192855	1.149842
C129	C	1.683218	0.140478	1.483175
C130	C	1.063634	-0.464517	0.778101
C131	C	1.396967	-0.131184	1.111435
C132	C	1.730300	0.202150	1.444768
C133	C	1.063654	-0.464466	0.931818
C134	C	1.396988	-0.131133	1.265151
C135	C	1.730321	0.202200	1.598484
C136	C	1.063663	-0.464436	1.015151
C137	C	1.396997	-0.131103	1.348485
C138	C	1.730330	0.202230	1.681818
C139	C	1.063624	-0.464546	0.694762
C140	C	1.396957	-0.131212	1.028096
C141	C	1.730290	0.202121	1.361429
H142	H	0.633656	-0.576732	0.439829
H143	H	0.966989	-0.243399	0.773163
H144	H	1.300323	0.089935	1.106496
O145	O	0.970834	-0.586035	0.779043
O146	O	1.304167	-0.252702	1.112377
O147	O	1.637500	0.080632	1.445710
C148	C	0.929117	-0.640781	0.660619
C149	C	1.262451	-0.307447	0.993953
C150	C	1.595784	0.025886	1.327286
C151	C	0.980916	-0.572948	0.702957
C152	C	1.314249	-0.239615	1.036290
C153	C	1.647583	0.093719	1.369623
H154	H	0.937262	-0.630238	0.599096
H155	H	1.270595	-0.296905	0.932429
H156	H	1.603929	0.036429	1.265762
H157	H	0.869766	-0.623834	0.675666
H158	H	1.203099	-0.290501	1.009000
H159	H	1.536433	0.042833	1.342333
H160	H	0.942014	-0.718546	0.675760
H161	H	1.275347	-0.385213	1.009094
H162	H	1.608680	-0.051879	1.342427
H163	H	0.968086	-0.495160	0.687838
H164	H	1.301420	-0.161826	1.021171
H165	H	1.634753	0.171507	1.354505
H166	H	1.040252	-0.589977	0.687906
H167	H	1.373585	-0.256644	1.021239
H168	H	1.706919	0.076689	1.354573
H169	H	1.149055	-0.352601	0.785279
H170	H	1.482388	-0.019268	1.118612
H171	H	1.815722	0.314065	1.451945
H172	H	0.633629	-0.352595	0.269347
H173	H	0.966962	-0.019261	0.602680
H174	H	1.300295	0.314072	0.936013
H175	H	1.149069	-0.352551	0.924706
H176	H	1.482403	-0.019218	1.258039
H177	H	1.815736	0.314115	1.591372
H178	H	0.494229	-0.576735	0.439845
H179	H	0.827562	-0.243402	0.773179
H180	H	1.160895	0.089932	1.106512
H181	H	0.494187	-0.352616	0.269364
H182	H	0.827520	-0.019283	0.602697
H183	H	1.160854	0.314051	0.936030
H184	H	0.978232	-0.576378	0.924647
H185	H	1.311565	-0.243045	1.257980
H186	H	1.644898	0.090288	1.591313
