data_functionalizedCrystal
_audit_creation_method	'MofGen! by Chris Wilmer'
_symmetry_space_group_name_H-M	'P1'
_symmetry_Int_Tables_number	1
_symmetry_cell_setting	triclinic
loop_
_symmetry_equiv_pos_as_xyz
  x,y,z
_cell_length_a	11.792254
_cell_length_b	11.792241
_cell_length_c	9.130313
_cell_angle_alpha	89.995332
_cell_angle_beta	89.996532
_cell_angle_gamma	84.196007
loop_
_atom_site_label
_atom_site_type_symbol
_atom_site_fract_x
_atom_site_fract_y
_atom_site_fract_z
O1	O	1.506899	0.155636	-0.121799
O2	O	1.840232	0.488969	0.211535
O3	O	2.173565	0.822303	0.544868
O4	O	1.176559	0.171654	-0.121802
O5	O	1.509893	0.504987	0.211531
O6	O	1.843226	0.838321	0.544865
O7	O	1.349745	-0.001525	-0.121790
O8	O	1.683079	0.331808	0.211543
O9	O	2.016412	0.665142	0.544877
O10	O	1.333713	0.328815	-0.121811
O11	O	1.667046	0.662149	0.211523
O12	O	2.000379	0.995482	0.544856
O13	O	1.349734	-0.001530	0.121809
O14	O	1.683067	0.331803	0.455142
O15	O	2.016400	0.665137	0.788476
O16	O	1.176548	0.171649	0.121797
O17	O	1.509881	0.504982	0.455130
O18	O	1.843214	0.838316	0.788464
O19	O	1.506887	0.155631	0.121800
O20	O	1.840220	0.488964	0.455133
O21	O	2.173553	0.822298	0.788467
Cu22	Cu	1.341716	0.163640	0.144041
Cu23	Cu	1.675049	0.496973	0.477374
Cu24	Cu	2.008383	0.830306	0.810708
Cu25	Cu	1.341730	0.163646	-0.144043
Cu26	Cu	1.675063	0.496979	0.189290
Cu27	Cu	2.008397	0.830312	0.522624
O28	O	1.333701	0.328810	0.121788
O29	O	1.667034	0.662143	0.455121
O30	O	2.000367	0.995477	0.788455
C31	C	1.134263	0.170642	-0.000003
C32	C	1.467596	0.503976	0.333330
C33	C	1.800929	0.837309	0.666664
C34	C	1.008250	0.167622	-0.000004
C35	C	1.341583	0.500956	0.333329
C36	C	1.674916	0.834289	0.666663
C37	C	1.348732	-0.043819	0.000009
C38	C	1.682066	0.289515	0.333342
C39	C	2.015399	0.622848	0.666676
C40	C	1.345718	-0.169832	0.000007
C41	C	1.679051	0.163501	0.333341
C42	C	2.012385	0.496834	0.666674
C43	C	0.905913	0.165168	-0.000010
C44	C	1.239247	0.498502	0.333323
C45	C	1.572580	0.831835	0.666657
C46	C	0.777527	0.162100	-0.000011
C47	C	1.110860	0.495433	0.333323
C48	C	1.444193	0.828767	0.666656
C49	C	1.340175	-0.400545	-0.000017
C50	C	1.673508	-0.067212	0.333316
C51	C	2.006842	0.266122	0.666650
C52	C	1.343255	-0.272160	-0.000004
C53	C	1.676588	0.061174	0.333330
C54	C	2.009921	0.394507	0.666663
C55	C	1.549183	0.156643	-0.000002
C56	C	1.882517	0.489976	0.333331
C57	C	2.215850	0.823309	0.666664
C58	C	1.675196	0.159663	-0.000011
C59	C	2.008530	0.492996	0.333323
C60	C	2.341863	0.826329	0.666656
C61	C	1.334714	0.371104	-0.000014
C62	C	1.668047	0.704437	0.333319
C63	C	2.001380	1.037770	0.666653
C64	C	1.337728	0.497118	-0.000022
C65	C	1.671061	0.830451	0.333311
C66	C	2.004395	1.163784	0.666644
N67	N	1.341714	0.163635	0.346664
N68	N	1.675048	0.496968	0.679997
N69	N	2.008381	0.830301	1.013330
N70	N	1.341741	0.163641	-0.346666
N71	N	1.675074	0.496975	-0.013332
N72	N	2.008407	0.830308	0.320001
C73	C	1.418427	0.086983	0.423321
C74	C	1.751760	0.420317	0.756654
C75	C	2.085094	0.753650	1.089987
C76	C	1.418438	0.086984	0.576658
C77	C	1.751771	0.420317	0.909991
C78	C	2.085105	0.753650	1.243324
C79	C	1.265020	0.240296	0.576667
C80	C	1.598353	0.573630	0.910000
C81	C	1.931686	0.906963	1.243333
C82	C	1.265004	0.240290	0.423333
C83	C	1.598338	0.573623	0.756666
C84	C	1.931671	0.906956	1.089999
H85	H	1.480888	0.024564	0.360901
H86	H	1.814221	0.357898	0.694234
H87	H	2.147554	0.691231	1.027567
H88	H	1.202566	0.302709	0.639106
H89	H	1.535899	0.636042	0.972439
H90	H	1.869232	0.969376	1.305772
Cl91	Cl	1.514878	-0.009384	0.673022
Cl92	Cl	1.848212	0.323949	1.006356
Cl93	Cl	2.181545	0.657282	1.339689
H94	H	1.202530	0.302709	0.360914
H95	H	1.535863	0.636042	0.694247
H96	H	1.869197	0.969376	1.027581
