data_functionalizedCrystal
_audit_creation_method	'MofGen! by Chris Wilmer'
_symmetry_space_group_name_H-M	'P1'
_symmetry_Int_Tables_number	1
_symmetry_cell_setting	triclinic
loop_
_symmetry_equiv_pos_as_xyz
  x,y,z
_cell_length_a	15.944551
_cell_length_b	10.723024
_cell_length_c	15.021413
_cell_angle_alpha	89.995329
_cell_angle_beta	90.009504
_cell_angle_gamma	96.016696
loop_
_atom_site_label
_atom_site_type_symbol
_atom_site_fract_x
_atom_site_fract_y
_atom_site_fract_z
O1	O	0.117815	-1.655700	0.074028
O2	O	0.129091	-1.292405	0.074032
O3	O	0.001235	-1.483974	0.074022
O4	O	0.245671	-1.464132	0.074038
O5	O	0.001222	-1.483957	-0.074042
O6	O	0.129078	-1.292389	-0.074033
O7	O	0.117801	-1.655683	-0.074036
Zn8	Zn	0.123437	-1.474033	-0.097543
Zn9	Zn	0.123455	-1.474055	0.097538
O10	O	0.245658	-1.464115	-0.074026
C11	C	-0.030070	-1.483141	-0.000010
C12	C	-0.123331	-1.480672	-0.000011
C13	C	0.128264	-1.245908	-0.000000
C14	C	0.125809	-1.107384	0.000001
C15	C	0.118629	-1.702181	-0.000002
C16	C	0.121084	-1.840704	0.000003
C17	C	-0.338901	-1.356026	0.000003
C18	C	-0.399593	-1.413899	-0.073003
C19	C	-0.294082	-1.476205	-0.000004
C20	C	-0.399564	-1.413944	0.072977
C21	C	-0.459020	-1.471880	0.000007
C22	C	-0.353546	-1.534110	-0.073069
C23	C	-0.353510	-1.534139	0.072976
C24	C	-0.414184	-1.592099	-0.000047
C25	C	-0.199066	-1.478692	-0.000011
C26	C	-0.554035	-1.469402	0.000007
C27	C	0.276963	-1.464947	0.000008
C28	C	0.370223	-1.467417	0.000014
N29	N	0.123425	-1.474027	-0.230680
C30	C	0.197350	-1.031498	0.000006
C31	C	0.194814	-0.888327	0.000007
C32	C	0.063827	-1.561945	-0.529676
C33	C	0.139642	-1.587181	-0.470304
C34	C	0.123451	-1.474057	-0.587717
C35	C	0.047625	-1.448866	-0.470347
C36	C	0.123434	-1.474046	-0.412293
C37	C	0.199304	-1.499349	-0.529652
C38	C	0.107238	-1.360984	-0.529700
C39	C	0.183107	-1.386172	-0.470355
C40	C	0.123459	-1.474067	-0.688774
C41	C	0.123434	-1.474035	-0.311238
N42	N	0.123461	-1.474071	0.230676
H43	H	-0.306164	-1.256273	-0.000069
H44	H	-0.333271	-1.584891	-0.134857
H45	H	-0.419926	-1.363105	0.134702
H46	H	0.153354	-1.682798	-0.444215
H47	H	-0.419998	-1.363062	-0.134722
H48	H	0.260477	-1.072523	0.000005
H49	H	0.059835	-0.905903	0.000004
H50	H	0.256060	-0.823120	0.000015
H51	H	0.062682	-1.066360	0.000020
H52	H	0.013469	-1.636324	-0.555721
H53	H	0.263437	-1.520754	-0.555594
H54	H	0.233577	-1.311840	-0.444473
H55	H	0.093502	-1.265396	-0.555808
H56	H	-0.446772	-1.691940	-0.000089
H57	H	-0.333083	-1.584932	0.134698
H58	H	-0.016492	-1.427563	-0.444295
