data_functionalizedCrystal
_audit_creation_method	'MofGen! by Chris Wilmer'
_symmetry_space_group_name_H-M	'P1'
_symmetry_Int_Tables_number	1
_symmetry_cell_setting	triclinic
loop_
_symmetry_equiv_pos_as_xyz
  x,y,z
_cell_length_a	16.959455
_cell_length_b	16.625545
_cell_length_c	16.959447
_cell_angle_alpha	89.970073
_cell_angle_beta	89.985678
_cell_angle_gamma	90.022505
loop_
_atom_site_label
_atom_site_type_symbol
_atom_site_fract_x
_atom_site_fract_y
_atom_site_fract_z
Zn1	Zn	1.208354	-0.321051	-0.446911
Zn2	Zn	1.541687	0.012282	-0.113578
Zn3	Zn	1.875020	0.345615	0.219756
Zn4	Zn	1.208263	-0.455899	-0.314733
Zn5	Zn	1.541597	-0.122565	0.018600
Zn6	Zn	1.874930	0.210768	0.351933
Zn7	Zn	1.076182	-0.321077	-0.314748
Zn8	Zn	1.409515	0.012257	0.018585
Zn9	Zn	1.742849	0.345590	0.351918
Zn10	Zn	1.076134	-0.455839	-0.446872
Zn11	Zn	1.409467	-0.122505	-0.113538
Zn12	Zn	1.742801	0.210828	0.219795
O13	O	1.142233	-0.388466	-0.380816
O14	O	1.475567	-0.055133	-0.047483
O15	O	1.808900	0.278200	0.285851
O16	O	1.318953	-0.338954	-0.429387
O17	O	1.652286	-0.005621	-0.096054
O18	O	1.985619	0.327713	0.237279
O19	O	1.190725	-0.438050	-0.204124
O20	O	1.524058	-0.104717	0.129209
O21	O	1.857392	0.228616	0.462542
O22	O	1.093773	-0.208241	-0.332303
O23	O	1.427106	0.125092	0.001031
O24	O	1.760439	0.458426	0.334364
O25	O	1.318886	-0.438026	-0.332277
O26	O	1.652220	-0.104692	0.001056
O27	O	1.985553	0.228641	0.334390
O28	O	1.190879	-0.208222	-0.429402
O29	O	1.524212	0.125111	-0.096069
O30	O	1.857545	0.458444	0.237265
O31	O	1.093685	-0.338997	-0.204135
O32	O	1.427019	-0.005664	0.129198
O33	O	1.760352	0.327670	0.462531
O34	O	0.965565	-0.338939	-0.332265
O35	O	1.298898	-0.005605	0.001069
O36	O	1.632232	0.327728	0.334402
O37	O	1.093691	-0.437923	-0.557488
O38	O	1.427024	-0.104590	-0.224155
O39	O	1.760358	0.228744	0.109179
O40	O	0.965530	-0.437947	-0.429335
O41	O	1.298863	-0.104614	-0.096002
O42	O	1.632196	0.228719	0.237331
O43	O	1.190832	-0.338895	-0.557517
O44	O	1.524165	-0.005562	-0.224183
O45	O	1.857499	0.327771	0.109150
O46	O	1.190678	-0.568723	-0.332239
O47	O	1.524012	-0.235390	0.001094
O48	O	1.857345	0.097943	0.334428
O49	O	1.093604	-0.568679	-0.429321
O50	O	1.426937	-0.235346	-0.095987
O51	O	1.760270	0.097988	0.237346
C52	C	0.936867	-0.388440	-0.380798
C53	C	1.270200	-0.055106	-0.047465
C54	C	1.603534	0.278227	0.285869
C55	C	0.849010	-0.388448	-0.380809
C56	C	1.182344	-0.055114	-0.047476
C57	C	1.515677	0.278219	0.285858
C58	C	0.477529	-0.336870	-0.330377
C59	C	0.810862	-0.003537	0.002956
C60	C	1.144195	0.329796	0.336290
C61	C	0.477541	-0.440129	-0.431300
C62	C	0.810874	-0.106796	-0.097967
C63	C	1.144208	0.226538	0.235366
C64	C	0.560087	-0.440117	-0.431295
C65	C	0.893420	-0.106784	-0.097962
C66	C	1.226753	0.226549	0.235371
C67	C	0.601358	-0.388482	-0.380830
C68	C	0.934691	-0.055149	-0.047496
C69	C	1.268024	0.278184	0.285837
C70	C	0.560082	-0.336859	-0.330369
C71	C	0.893416	-0.003525	0.002964
C72	C	1.226749	0.329808	0.336298
C73	C	0.601368	-0.491746	-0.481750
C74	C	0.934701	-0.158412	-0.148416
C75	C	1.268035	0.174921	0.184917
C76	C	0.683919	-0.491737	-0.481746
C77	C	1.017252	-0.158404	-0.148413
C78	C	1.350586	0.174930	0.184920
C79	C	0.725191	-0.440097	-0.431284
C80	C	1.058525	-0.106764	-0.097951
C81	C	1.391858	0.226570	0.235383
C82	C	0.683911	-0.388471	-0.380822
C83	C	1.017244	-0.055137	-0.047488
C84	C	1.350578	0.278196	0.285845
C85	C	0.725182	-0.336836	-0.330356
C86	C	1.058515	-0.003502	0.002977
C87	C	1.391848	0.329831	0.336311
C88	C	0.683903	-0.285205	-0.279897
C89	C	1.017236	0.048129	0.053436
C90	C	1.350570	0.381462	0.386770
C91	C	0.601355	-0.285219	-0.279907
C92	C	0.934688	0.048114	0.053427
C93	C	1.268021	0.381448	0.386760
C94	C	0.807740	-0.440083	-0.431275
C95	C	1.141073	-0.106750	-0.097941
C96	C	1.474406	0.226584	0.235392
C97	C	0.807735	-0.336824	-0.330348
C98	C	1.141069	-0.003491	0.002985
C99	C	1.474402	0.329842	0.336319
C100	C	1.142147	-0.597957	-0.380791
C101	C	1.475481	-0.264624	-0.047458
C102	C	1.808814	0.068709	0.285876
C103	C	1.142183	-0.687578	-0.380807
C104	C	1.475516	-0.354245	-0.047474
C105	C	1.808850	-0.020912	0.285860
C106	C	1.142214	-0.760361	-0.380823
C107	C	1.475547	-0.427027	-0.047489
C108	C	1.808880	-0.093694	0.285844
C109	C	1.142260	-0.851669	-0.380840
C110	C	1.475593	-0.518336	-0.047507
C111	C	1.808926	-0.185003	0.285827
C112	C	1.142301	-0.924446	-0.380850
C113	C	1.475634	-0.591112	-0.047517
C114	C	1.808967	-0.257779	0.285817
C115	C	1.142346	-1.015760	-0.380866
C116	C	1.475679	-0.682427	-0.047533
C117	C	1.809013	-0.349093	0.285800
C118	C	1.348402	-0.388494	-0.380835
C119	C	1.681735	-0.055160	-0.047501
C120	C	2.015068	0.278173	0.285832
C121	C	1.436258	-0.388505	-0.380843
C122	C	1.769591	-0.055172	-0.047509
C123	C	2.102925	0.278161	0.285824
C124	C	1.142266	-0.388400	-0.586984
C125	C	1.475600	-0.055066	-0.253651
C126	C	1.808933	0.278267	0.079682
C127	C	1.142280	-0.388371	-0.674841
C128	C	1.475614	-0.055038	-0.341508
C129	C	1.808947	0.278295	-0.008174
C130	C	1.142341	-0.178157	-0.380858
C131	C	1.475674	0.155176	-0.047525
C132	C	1.809008	0.488509	0.285808
C133	C	1.142387	-0.088536	-0.380876
C134	C	1.475720	0.244797	-0.047543
C135	C	1.809054	0.578130	0.285790
C136	C	1.091798	-0.439845	-1.046304
C137	C	1.425131	-0.106512	-0.712971
C138	C	1.758464	0.226821	-0.379638
C139	C	1.192952	-0.336727	-1.046329
C140	C	1.526285	-0.003394	-0.712996
C141	C	1.859618	0.329940	-0.379663
C142	C	1.192931	-0.336744	-0.963783
C143	C	1.526264	-0.003411	-0.630450
C144	C	1.859597	0.329922	-0.297117
C145	C	1.142343	-0.388313	-0.922494
C146	C	1.475677	-0.054980	-0.589161
C147	C	1.809010	0.278353	-0.255827
C148	C	1.091777	-0.439866	-0.963751
C149	C	1.425110	-0.106532	-0.630417
C150	C	1.758443	0.226801	-0.297084
C151	C	1.243502	-0.285199	-0.922521
C152	C	1.576835	0.048135	-0.589187
C153	C	1.910168	0.381468	-0.255854
C154	C	1.243483	-0.285214	-0.839970
C155	C	1.576817	0.048119	-0.506636
C156	C	1.910150	0.381452	-0.173303
C157	C	1.192891	-0.336780	-0.798679
C158	C	1.526225	-0.003447	-0.465345
C159	C	1.859558	0.329886	-0.132012
C160	C	1.142322	-0.388334	-0.839941
C161	C	1.475656	-0.055000	-0.506607
C162	C	1.808989	0.278333	-0.173274
C163	C	1.091735	-0.439903	-0.798651
C164	C	1.425068	-0.106570	-0.465318
C165	C	1.758401	0.226764	-0.131985
C166	C	1.041161	-0.491453	-0.839911
C167	C	1.374494	-0.158120	-0.506578
C168	C	1.707828	0.175214	-0.173245
C169	C	1.041185	-0.491431	-0.922460
C170	C	1.374518	-0.158098	-0.589127
C171	C	1.707851	0.175235	-0.255793
C172	C	1.192868	-0.336802	-0.716130
C173	C	1.526201	-0.003469	-0.382797
C174	C	1.859534	0.329865	-0.049464
C175	C	1.091714	-0.439923	-0.716098
C176	C	1.425047	-0.106590	-0.382764
C177	C	1.758381	0.226743	-0.049431
C178	C	1.142246	-0.388475	-0.175450
C179	C	1.475579	-0.055141	0.157884
C180	C	1.808913	0.278192	0.491217
C181	C	1.142385	-0.388276	-0.087594
C182	C	1.475719	-0.054943	0.245740
C183	C	1.809052	0.278391	0.579073
H184	H	0.841332	-0.294771	-0.289257
H185	H	1.174665	0.038562	0.044076
H186	H	1.507999	0.371895	0.377410
H187	H	0.443916	-0.294831	-0.289297
H188	H	0.777249	0.038502	0.044037
H189	H	1.110583	0.371835	0.377370
H190	H	1.000013	-0.533403	-0.956061
H191	H	1.333346	-0.200070	-0.622728
H192	H	1.666680	0.133263	-0.289395
H193	H	0.567760	-0.533790	-0.522831
H194	H	0.901093	-0.200457	-0.189497
H195	H	1.234426	0.132877	0.143836
C196	C	0.432146	-0.496922	-0.486808
C197	C	0.765479	-0.163589	-0.153475
C198	C	1.098812	0.169744	0.179859
H199	H	0.377071	-0.489532	-0.479588
H200	H	0.710404	-0.156199	-0.146255
H201	H	1.043737	0.177134	0.187078
H202	H	0.445657	-0.551082	-0.475150
H203	H	0.778991	-0.217748	-0.141817
H204	H	1.112324	0.115585	0.191516
H205	H	0.445693	-0.485178	-0.539938
H206	H	0.779026	-0.151845	-0.206605
H207	H	1.112360	0.181489	0.126728
C208	C	1.299132	-0.228468	-0.967938
C209	C	1.632465	0.104865	-0.634605
C210	C	1.965799	0.438199	-0.301271
H211	H	1.291890	-0.235830	-1.023010
H212	H	1.625224	0.097503	-0.689677
H213	H	1.958557	0.430837	-0.356343
H214	H	1.352236	-0.240268	-0.954417
H215	H	1.685569	0.093065	-0.621083
H216	H	2.018903	0.426399	-0.287750
H217	H	1.287575	-0.174295	-0.954418
H218	H	1.620908	0.159038	-0.621084
H219	H	1.954242	0.492372	-0.287751
H220	H	0.717521	-0.533777	-0.522834
H221	H	1.050855	-0.200444	-0.189500
H222	H	1.384188	0.132889	0.143833
H223	H	0.841345	-0.482122	-0.472355
H224	H	1.174679	-0.148789	-0.139022
H225	H	1.508012	0.184544	0.194312
H226	H	1.050620	-0.481814	-1.079902
H227	H	1.383953	-0.148480	-0.746569
H228	H	1.717286	0.184853	-0.413235
H229	H	1.234046	-0.294833	-0.682540
H230	H	1.567379	0.038500	-0.349207
H231	H	1.900713	0.371834	-0.015873
C232	C	1.036078	-0.496662	-0.670686
C233	C	1.369411	-0.163329	-0.337352
C234	C	1.702744	0.170004	-0.004019
H235	H	1.005971	-0.527365	-0.707083
H236	H	1.339305	-0.194031	-0.373750
H237	H	1.672638	0.139302	-0.040416
H238	H	1.001644	-0.465834	-0.638482
H239	H	1.334977	-0.132501	-0.305149
H240	H	1.668311	0.200832	0.028184
H241	H	1.066304	-0.531808	-0.638484
H242	H	1.399637	-0.198475	-0.305150
H243	H	1.732970	0.134859	0.028183
H244	H	0.717516	-0.243167	-0.238805
H245	H	1.050850	0.090166	0.094529
H246	H	1.384183	0.423500	0.427862
H247	H	0.999976	-0.533444	-0.806283
H248	H	1.333310	-0.200111	-0.472950
H249	H	1.666643	0.133222	-0.139616
H250	H	0.567738	-0.243185	-0.238825
H251	H	0.901071	0.090149	0.094509
H252	H	1.234405	0.423482	0.427842
H253	H	1.234142	-0.294746	-1.079952
H254	H	1.567475	0.038587	-0.746619
H255	H	1.900809	0.371920	-0.413285
H256	H	1.284663	-0.243239	-0.806382
H257	H	1.617996	0.090095	-0.473049
H258	H	1.951330	0.423428	-0.139716
