data_functionalizedCrystal
_audit_creation_method	'MofGen! by Chris Wilmer'
_symmetry_space_group_name_H-M	'P1'
_symmetry_Int_Tables_number	1
_symmetry_cell_setting	triclinic
loop_
_symmetry_equiv_pos_as_xyz
  x,y,z
_cell_length_a	12.837943
_cell_length_b	15.944493
_cell_length_c	11.295501
_cell_angle_alpha	94.593393
_cell_angle_beta	94.169432
_cell_angle_gamma	89.151992
loop_
_atom_site_label
_atom_site_type_symbol
_atom_site_fract_x
_atom_site_fract_y
_atom_site_fract_z
O1	O	1.381637	0.223906	0.098972
O2	O	1.881637	0.723906	0.598972
O3	O	1.079834	0.213120	0.098981
O4	O	1.579834	0.713120	0.598981
O5	O	1.239009	0.096897	0.098986
O6	O	1.739009	0.596897	0.598986
O7	O	1.222462	0.340129	0.098967
O8	O	1.722462	0.840129	0.598967
O9	O	1.226540	0.085802	-0.099063
O10	O	1.726540	0.585802	0.400937
O11	O	1.067365	0.202024	-0.099069
O12	O	1.567365	0.702024	0.400931
O13	O	1.369168	0.212811	-0.099077
O14	O	1.869168	0.712811	0.400923
Cu15	Cu	1.217128	0.206404	-0.117157
Cu16	Cu	1.717128	0.706404	0.382843
Cu17	Cu	1.231874	0.219526	0.117060
Cu18	Cu	1.731874	0.719526	0.617060
O19	O	1.209993	0.329033	-0.099083
O20	O	1.709993	0.829033	0.400917
C21	C	1.034980	0.203928	-0.000043
C22	C	1.534980	0.703928	0.499957
C23	C	0.919905	0.193060	-0.000039
C24	C	1.419905	0.693060	0.499961
C25	C	1.232099	0.060001	-0.000034
C26	C	1.732099	0.560001	0.499966
C27	C	1.230072	-0.033409	-0.000018
C28	C	1.730072	0.466591	0.499982
C29	C	0.678920	0.323712	-0.000066
C30	C	1.178920	0.823712	0.499934
C31	C	0.570797	0.313505	-0.000063
C32	C	1.070797	0.813505	0.499937
C33	C	0.595531	0.162439	-0.000039
C34	C	1.095531	0.662439	0.499961
C35	C	0.703655	0.172646	-0.000041
C36	C	1.203655	0.672646	0.499959
C37	C	0.745345	0.253285	-0.000053
C38	C	1.245345	0.753285	0.499947
C39	C	0.853472	0.263493	-0.000048
C40	C	1.353472	0.763493	0.499952
C41	C	0.878204	0.112427	-0.000032
C42	C	1.378204	0.612427	0.499968
C43	C	0.770080	0.102219	-0.000029
C44	C	1.270080	0.602219	0.499971
C45	C	1.323765	-0.261675	-0.000044
C46	C	1.823765	0.238325	0.499956
C47	C	1.279387	-0.310814	0.097606
C48	C	1.779387	0.189186	0.597606
C49	C	1.226315	-0.204431	-0.000033
C50	C	1.726315	0.295569	0.499967
C51	C	1.267071	-0.321732	-0.097655
C52	C	1.767071	0.178268	0.402345
C53	C	1.222692	-0.369632	-0.000052
C54	C	1.722692	0.130368	0.499948
C55	C	1.181968	-0.252336	0.097697
C56	C	1.681968	0.247664	0.597697
C57	C	1.169661	-0.263253	-0.097652
C58	C	1.669661	0.236747	0.402348
C59	C	1.125213	-0.312364	0.000022
C60	C	1.625213	0.187636	0.500022
C61	C	1.228404	-0.109264	-0.000021
C62	C	1.728404	0.390736	0.499979
C63	C	1.220595	-0.464797	-0.000056
C64	C	1.720595	0.035203	0.499944
C65	C	1.414023	0.222003	-0.000051
C66	C	1.914023	0.722003	0.499949
C67	C	1.529098	0.232871	-0.000048
C68	C	2.029098	0.732871	0.499952
C69	C	1.216904	0.365930	-0.000061
C70	C	1.716904	0.865930	0.499939
C71	C	1.218931	0.459340	-0.000068
C72	C	1.718931	0.959340	0.499932
N73	N	1.206764	0.197175	-0.281892
N74	N	1.706764	0.697175	0.218108
C75	C	1.316843	0.295224	-0.531193
C76	C	1.816843	0.795224	-0.031193
C77	C	1.309019	0.288244	-0.655856
C78	C	1.809019	0.788244	-0.155856
C79	C	1.183297	0.176230	-0.655882
C80	C	1.683297	0.676230	-0.155882
C81	C	1.191121	0.183211	-0.531220
C82	C	1.691121	0.683211	-0.031220
C83	C	1.257895	0.242711	-0.468879
C84	C	1.757895	0.742711	0.031121
C85	C	1.265714	0.249695	-0.344214
C86	C	1.765714	0.749695	0.155786
C87	C	1.139998	0.137677	-0.344243
C88	C	1.639998	0.637677	0.155757
C89	C	1.132174	0.130697	-0.468906
C90	C	1.632174	0.630697	0.031094
N91	N	1.242247	0.228749	0.281795
N92	N	1.742247	0.728749	0.781795
H93	H	0.887414	0.329153	-0.000060
H94	H	1.387414	0.829153	0.499940
H95	H	1.091993	0.094921	-0.293494
H96	H	1.591993	0.594921	0.206506
O97	O	1.337729	0.313871	-0.276977
O98	O	1.837729	0.813871	0.223023
H99	H	1.333260	0.309912	-0.179821
H100	H	1.833260	0.809912	0.320179
O101	O	0.723899	0.410681	-0.000081
O102	O	1.223899	0.910681	0.499919
H103	H	0.659543	0.457940	-0.000095
H104	H	1.159543	0.957940	0.499905
O105	O	1.111286	0.112056	-0.723132
O106	O	1.611286	0.612056	-0.223132
H107	H	1.052004	0.144662	-0.779941
H108	H	1.552004	0.644662	-0.279941
O109	O	0.949846	0.036457	-0.000025
O110	O	1.449846	0.536457	0.499975
H111	H	1.032036	0.057099	-0.000035
H112	H	1.532036	0.557099	0.499965
O113	O	1.314710	-0.361810	-0.207016
O114	O	1.814710	0.138190	0.292984
H115	H	1.397075	-0.341558	-0.206803
H116	H	1.897075	0.158442	0.293197
H117	H	0.516716	0.370854	-0.000077
H118	H	1.016716	0.870854	0.499923
O119	O	1.434952	-0.232051	0.000080
O120	O	1.934952	0.267949	0.500080
H121	H	1.480280	-0.250961	0.081265
H122	H	1.980280	0.249039	0.581265
H123	H	0.736119	0.036564	-0.000033
H124	H	1.236119	0.536564	0.499967
O125	O	0.550557	0.075467	-0.000044
O126	O	1.050557	0.575467	0.499956
H127	H	0.464212	0.080205	-0.000046
H128	H	0.964212	0.580205	0.499954
O129	O	1.340779	-0.338690	0.206948
O130	O	1.840779	0.161310	0.706948
H131	H	1.423127	-0.318484	0.206745
H132	H	1.923127	0.181516	0.706745
H133	H	1.146040	-0.222176	0.180341
H134	H	1.646040	0.277824	0.680341
H135	H	1.041210	-0.334547	0.000078
H136	H	1.541210	0.165453	0.500078
H137	H	1.123344	-0.242207	-0.180209
H138	H	1.623344	0.257793	0.319791
H139	H	1.371203	0.343679	-0.480435
H140	H	1.871203	0.843679	0.019565
O141	O	1.372592	0.344886	-0.723072
O142	O	1.872592	0.844886	-0.223072
H143	H	1.420329	0.387434	-0.658775
H144	H	1.920329	0.887434	-0.158775
O145	O	1.060149	0.066528	-0.536145
O146	O	1.560149	0.566528	-0.036145
H147	H	1.064605	0.070499	-0.633300
H148	H	1.564605	0.570499	-0.133300
