data_functionalizedCrystal
_audit_creation_method	'MofGen! by Chris Wilmer'
_symmetry_space_group_name_H-M	'P1'
_symmetry_Int_Tables_number	1
_symmetry_cell_setting	triclinic
loop_
_symmetry_equiv_pos_as_xyz
  x,y,z
_cell_length_a	16.992694
_cell_length_b	11.792241
_cell_length_c	16.053802
_cell_angle_alpha	92.583059
_cell_angle_beta	87.249047
_cell_angle_gamma	87.430819
loop_
_atom_site_label
_atom_site_type_symbol
_atom_site_fract_x
_atom_site_fract_y
_atom_site_fract_z
O1	O	1.044699	0.236280	-0.069325
O2	O	0.816403	0.233637	-0.069350
O3	O	0.936091	0.070242	-0.069331
O4	O	0.925011	0.399675	-0.069344
O5	O	0.929503	0.079196	0.069527
O6	O	0.809815	0.242591	0.069508
O7	O	1.038111	0.245234	0.069533
Zn8	Zn	0.922917	0.245334	0.091567
Zn9	Zn	0.931597	0.233537	-0.091384
O10	O	0.918423	0.408630	0.069514
C11	C	0.783882	0.234716	0.000076
C12	C	0.696796	0.224578	0.000067
C13	C	0.646971	0.322395	0.000064
C14	C	0.565143	0.312864	0.000076
C15	C	0.533142	0.205513	0.000085
C16	C	0.582973	0.107688	0.000091
C17	C	0.664799	0.117221	0.000085
C18	C	0.289375	0.166002	0.000109
C19	C	0.207543	0.156476	0.000112
C20	C	0.189719	0.361652	0.000099
C21	C	0.271548	0.371176	0.000088
C22	C	0.321371	0.273351	0.000098
N23	N	0.449501	0.195767	0.000094
N24	N	0.405010	0.283098	0.000095
C25	C	0.932101	0.032371	0.000098
C26	C	0.930018	-0.093813	0.000097
C27	C	0.926188	-0.324840	0.000082
C28	C	0.928316	-0.196280	0.000090
C29	C	1.070632	0.244155	0.000105
C30	C	1.157719	0.254293	0.000109
C31	C	0.922413	0.446500	0.000084
C32	C	0.924497	0.572684	0.000079
N33	N	0.916999	0.253386	0.216427
N34	N	0.937521	0.225477	-0.216243
C35	C	0.967945	0.183889	0.260129
C36	C	0.963812	0.189532	0.347535
C37	C	0.908737	0.264679	0.391237
C38	C	0.857785	0.334179	0.347529
C39	C	0.861915	0.328529	0.260125
C40	C	0.890699	0.289327	0.652644
C41	C	0.886575	0.294974	0.740055
C42	C	0.992602	0.150325	0.740054
C43	C	0.996729	0.144687	0.652648
C44	C	0.945775	0.214182	0.608948
N45	N	0.904513	0.270452	0.480580
N46	N	0.949996	0.208403	0.519606
H47	H	0.329932	0.086345	0.000118
C48	C	0.805874	0.404979	0.212050
C49	C	0.745320	0.487682	0.260118
C50	C	0.689275	0.564131	0.212045
C51	C	0.693784	0.557877	0.115903
C52	C	0.754341	0.475171	0.067830
C53	C	0.810386	0.398722	0.115903
H54	H	0.741980	0.492315	0.331293
H55	H	0.644446	0.625356	0.247633
H56	H	0.652296	0.614469	0.080317
H57	H	0.757681	0.470538	-0.003345
H58	H	0.855215	0.337498	0.080315
C59	C	0.547772	-0.010399	0.000103
C60	C	0.562963	-0.089067	0.072214
C61	C	0.527764	-0.207156	0.072225
C62	C	0.477374	-0.246578	0.000124
C63	C	0.462182	-0.167909	-0.071993
C64	C	0.497381	-0.049819	-0.072003
H65	H	0.600266	-0.059885	0.125593
H66	H	0.539011	-0.265392	0.125611
H67	H	0.451318	-0.333995	0.000131
H68	H	0.424878	-0.197090	-0.125371
H69	H	0.486133	0.008416	-0.125389
C70	C	0.825985	0.377639	0.788126
C71	C	0.737225	0.366770	0.776128
C72	C	0.676639	0.449433	0.824197
C73	C	0.704812	0.542964	0.884266
C74	C	0.793576	0.553837	0.896267
C75	C	0.854162	0.471174	0.848197
H76	H	0.716365	0.297529	0.731659
H77	H	0.610930	0.441384	0.815313
H78	H	0.659963	0.604156	0.919850
H79	H	0.814436	0.623078	0.940735
H80	H	0.919872	0.479223	0.857081
H81	H	0.673020	0.409812	0.000056
H82	H	0.524579	0.392517	0.000072
H83	H	0.297597	0.458591	0.000071
H84	H	0.705366	0.037567	0.000087
H85	H	1.012796	0.122701	0.224552
H86	H	1.005296	0.132942	0.383116
H87	H	0.149145	0.441295	0.000092
H88	H	1.034085	0.093744	0.775643
C89	C	0.172336	0.038385	0.000127
C90	C	0.115114	0.008288	0.072234
C91	C	0.079904	-0.109794	0.072247
C92	C	0.101916	-0.197778	0.000151
C93	C	0.159140	-0.167683	-0.071962
C94	C	0.194350	-0.049602	-0.071974
H95	H	0.098818	0.073422	0.125609
H96	H	0.037543	-0.132071	0.125630
H97	H	0.075851	-0.285190	0.000160
H98	H	0.175437	-0.232817	-0.125336
H99	H	0.236712	-0.027324	-0.125358
C100	C	1.057308	0.062021	0.604572
C101	C	1.113352	-0.014434	0.652635
C102	C	1.173933	-0.097096	0.604556
C103	C	1.178470	-0.103302	0.508415
C104	C	1.122425	-0.026844	0.460346
C105	C	1.061844	0.055818	0.508425
H106	H	1.109995	-0.009842	0.723810
H107	H	1.215421	-0.153695	0.640140
H108	H	1.223316	-0.164493	0.472824
H109	H	1.125782	-0.031436	0.389172
H110	H	1.020356	0.112417	0.472841
H111	H	0.849212	0.345915	0.617070
H112	H	0.812938	0.395361	0.383117
