data_functionalizedCrystal
_audit_creation_method	'MofGen! by Chris Wilmer'
_symmetry_space_group_name_H-M	'P1'
_symmetry_Int_Tables_number	1
_symmetry_cell_setting	triclinic
loop_
_symmetry_equiv_pos_as_xyz
  x,y,z
_cell_length_a	10.967926
_cell_length_b	10.654550
_cell_length_c	9.130313
_cell_angle_alpha	90.004369
_cell_angle_beta	102.125724
_cell_angle_gamma	95.399557
loop_
_atom_site_label
_atom_site_type_symbol
_atom_site_fract_x
_atom_site_fract_y
_atom_site_fract_z
O1	O	1.657184	-0.176135	0.296485
O2	O	1.294040	-0.192999	0.204822
O3	O	1.483961	-0.001826	0.252770
O4	O	1.467263	-0.367307	0.248537
O5	O	1.483948	-0.001821	0.496366
O6	O	1.294027	-0.192993	0.448418
O7	O	1.657171	-0.176129	0.540080
Cu8	Cu	1.475598	-0.184561	0.516491
Cu9	Cu	1.475613	-0.184567	0.228411
O10	O	1.467250	-0.367302	0.492132
C11	C	1.247535	-0.191769	0.314883
C12	C	1.108982	-0.188099	0.279911
N13	N	1.475596	-0.184555	0.719113
C14	C	1.482729	0.044974	0.374258
C15	C	1.479060	0.184417	0.373330
C16	C	1.047204	-0.186460	0.390508
C17	C	0.904003	-0.182667	0.354366
C18	C	1.703676	-0.177359	0.430016
C19	C	1.842229	-0.181028	0.464979
C20	C	1.468482	-0.414102	0.370642
C21	C	1.472151	-0.553545	0.371560
C22	C	1.590883	0.263921	0.401555
C23	C	1.587429	0.394941	0.400665
C24	C	1.360320	0.366941	0.343329
C25	C	1.363775	0.235924	0.344208
N26	N	1.475625	-0.184563	0.025792
C27	C	1.559722	-0.099940	0.817004
C28	C	1.559734	-0.099940	0.970344
C29	C	1.391490	-0.269182	0.927888
C30	C	1.391473	-0.269175	0.774550
H31	H	1.100331	-0.187858	0.511953
H32	H	1.628218	-0.031036	0.771872
C33	C	1.717693	0.207260	0.433572
C34	C	1.810893	0.236841	0.583587
C35	C	1.937706	0.180186	0.615600
C36	C	1.971319	0.093949	0.497598
C37	C	1.878116	0.064364	0.347572
C38	C	1.751303	0.121019	0.315559
H39	H	1.786012	0.300683	0.670949
H40	H	2.006700	0.202087	0.726660
H41	H	2.065193	0.052009	0.521296
H42	H	1.902997	0.000522	0.260211
H43	H	1.682309	0.099118	0.204500
C44	C	1.710437	0.482394	0.431719
C45	C	1.804576	0.475944	0.581986
C46	C	1.927590	0.563397	0.613039
C47	C	1.956465	0.657299	0.493824
C48	C	1.862324	0.663752	0.343546
C49	C	1.739309	0.576300	0.312494
H50	H	1.783203	0.406429	0.670245
H51	H	1.997280	0.558619	0.724285
H52	H	2.047528	0.722036	0.516811
H53	H	1.883696	0.733267	0.255287
H54	H	1.669620	0.581077	0.201248
C55	C	1.298967	-0.362271	0.988872
C56	C	1.299051	-0.362362	1.157555
C57	C	1.206528	-0.455457	1.218533
C58	C	1.113922	-0.548460	1.110829
C59	C	1.113834	-0.548372	0.942136
C60	C	1.206357	-0.455277	0.881158
H61	H	1.367608	-0.293513	1.237293
H62	H	1.206594	-0.455522	1.343411
H63	H	1.045431	-0.617375	1.155969
H64	H	1.045278	-0.617222	0.862398
H65	H	1.206291	-0.455213	0.756279
H66	H	0.895348	-0.182429	0.586433
H67	H	1.266458	0.408895	0.319622
H68	H	1.628235	-0.031037	1.050044
C69	C	1.037227	-0.186202	0.115840
C70	C	1.068237	-0.077809	0.014095
C71	C	0.996486	-0.075912	-0.149980
C72	C	0.893724	-0.182407	-0.212309
C73	C	0.862709	-0.290809	-0.110561
C74	C	0.934461	-0.292706	0.053513
H75	H	1.144312	0.001033	0.060233
H76	H	1.019446	0.004335	-0.225299
H77	H	0.840609	-0.181003	-0.333766
H78	H	0.786634	-0.369650	-0.156700
H79	H	0.911500	-0.372952	0.128832
C80	C	1.240763	0.148457	0.313160
C81	C	1.211904	0.054541	0.432370
C82	C	1.088899	-0.032925	0.401317
C83	C	0.994753	-0.026476	0.251055
C84	C	1.023609	0.067443	0.131835
C85	C	1.146614	0.154910	0.162888
H86	H	1.281599	0.049764	0.543611
H87	H	1.067539	-0.102451	0.489571
H88	H	0.903697	-0.091224	0.228068
H89	H	0.953914	0.072221	0.020594
H90	H	1.167975	0.224436	0.074634
H91	H	0.850883	-0.181259	0.232913
H92	H	1.322962	-0.338079	0.694839
