data_functionalizedCrystal
_audit_creation_method	'MofGen! by Chris Wilmer'
_symmetry_space_group_name_H-M	'P1'
_symmetry_Int_Tables_number	1
_symmetry_cell_setting	triclinic
loop_
_symmetry_equiv_pos_as_xyz
  x,y,z
_cell_length_a	10.654550
_cell_length_b	14.971482
_cell_length_c	13.448316
_cell_angle_alpha	89.993798
_cell_angle_beta	89.994587
_cell_angle_gamma	84.048756
loop_
_atom_site_label
_atom_site_type_symbol
_atom_site_fract_x
_atom_site_fract_y
_atom_site_fract_z
O1	O	0.163637	1.187840	-0.082676
O2	O	0.663637	1.687840	0.417324
O3	O	0.183240	0.927546	-0.082681
O4	O	0.683240	1.427546	0.417319
O5	O	-0.009365	1.063678	-0.082675
O6	O	0.490635	1.563678	0.417325
O7	O	0.356242	1.051708	-0.082682
O8	O	0.856242	1.551708	0.417318
O9	O	-0.009377	1.063660	0.082709
O10	O	0.490623	1.563660	0.582709
O11	O	0.183228	0.927529	0.082703
O12	O	0.683228	1.427529	0.582703
O13	O	0.163625	1.187823	0.082707
O14	O	0.663625	1.687823	0.582707
Cu15	Cu	0.173426	1.057674	0.097806
Cu16	Cu	0.673426	1.557674	0.597806
Cu17	Cu	0.173440	1.057694	-0.097780
Cu18	Cu	0.673440	1.557694	0.402220
O19	O	0.356230	1.051691	0.082701
O20	O	0.856230	1.551691	0.582701
C21	C	0.182359	0.894208	0.000010
C22	C	0.682359	1.394208	0.500010
C23	C	0.179734	0.794896	0.000009
C24	C	0.679734	1.294896	0.500009
C25	C	0.178491	0.748235	0.090160
C26	C	0.678491	1.248235	0.590160
C27	C	0.176005	0.654923	0.090162
C28	C	0.676005	1.154923	0.590162
C29	C	0.174770	0.608273	0.000010
C30	C	0.674770	1.108273	0.500010
C31	C	0.176009	0.654941	-0.090149
C32	C	0.676009	1.154941	0.409851
C33	C	0.178487	0.748252	-0.090149
C34	C	0.678487	1.248252	0.409851
C35	C	0.170849	0.460451	-0.090142
C36	C	0.670849	0.960451	0.409858
C37	C	0.168374	0.367133	-0.090143
C38	C	0.668374	0.867133	0.409857
C39	C	0.168367	0.367122	0.090168
C40	C	0.668367	0.867122	0.590168
C41	C	0.170845	0.460433	0.090168
C42	C	0.670845	0.960433	0.590168
C43	C	0.172086	0.507094	0.000009
C44	C	0.672086	1.007094	0.500009
C45	C	-0.056159	1.062790	0.000016
C46	C	0.443841	1.562790	0.500016
C47	C	-0.195574	1.060161	0.000012
C48	C	0.304426	1.560161	0.500012
C49	C	-0.275921	1.140313	0.000017
C50	C	0.224079	1.640313	0.500017
C51	C	-0.406916	1.137837	0.000010
C52	C	0.093084	1.637837	0.500010
C53	C	-0.377203	0.975050	-0.000002
C54	C	0.122797	1.475050	0.499998
C55	C	-0.246211	0.977526	-0.000002
C56	C	0.253789	1.477526	0.499998
C57	C	-0.293077	1.234297	0.000028
C58	C	0.206923	1.734297	0.500028
C59	C	-0.424071	1.231821	0.000021
C60	C	0.075929	1.731821	0.500021
C61	C	0.403025	1.052578	0.000008
C62	C	0.903025	1.552578	0.500008
C63	C	0.542440	1.055208	0.000005
C64	C	1.042440	1.555208	0.500005
C65	C	0.164507	1.221161	0.000014
C66	C	0.664507	1.721161	0.500014
C67	C	0.167132	1.320472	0.000009
C68	C	0.667132	1.820472	0.500009
N69	N	0.173415	1.057666	0.235370
N70	N	0.673415	1.557666	0.735370
N71	N	0.173440	1.057709	-0.235344
N72	N	0.673440	1.557709	0.264656
C73	C	0.088165	1.117964	0.287413
C74	C	0.588165	1.617964	0.787413
C75	C	0.088163	1.117970	0.391517
C76	C	0.588163	1.617970	0.891517
C77	C	0.173420	1.057681	0.443575
C78	C	0.673420	1.557681	0.943575
C79	C	0.258674	0.997376	0.391525
C80	C	0.758674	1.497376	0.891525
C81	C	0.258669	0.997367	0.287423
C82	C	0.758669	1.497367	0.787423
C83	C	0.258683	0.997401	0.608505
C84	C	0.758683	1.497401	1.108505
C85	C	0.258691	0.997411	0.712613
C86	C	0.758691	1.497411	1.212613
C87	C	0.088178	1.118004	0.712598
C88	C	0.588178	1.618004	1.212598
C89	C	0.088172	1.117995	0.608497
C90	C	0.588172	1.617995	1.108497
C91	C	0.173428	1.057691	0.556454
C92	C	0.673428	1.557691	1.056454
H93	H	0.167357	0.329126	0.163579
H94	H	0.667357	0.829126	0.663579
H95	H	0.328088	0.948283	0.433916
H96	H	0.828088	1.448283	0.933916
Cl97	Cl	0.166819	0.308488	-0.203478
Cl98	Cl	0.666819	0.808488	0.296522
H99	H	0.018744	1.167062	0.245034
H100	H	0.518744	1.667062	0.745034
H101	H	0.018745	1.167068	0.433890
H102	H	0.518745	1.667068	0.933890
H103	H	-0.470014	1.260232	-0.071387
H104	H	0.029986	1.760232	0.428613
H105	H	-0.180796	0.912259	-0.000019
H106	H	0.319204	1.412259	0.499981
H107	H	-0.418448	0.907771	-0.000014
H108	H	0.081552	1.407771	0.499986
H109	H	-0.257777	1.264217	0.071438
H110	H	0.242223	1.764217	0.571438
H111	H	0.328087	0.948265	0.245051
H112	H	0.828087	1.448265	0.745051
Cl113	Cl	0.174411	0.596299	-0.203483
Cl114	Cl	0.674411	1.096299	0.296517
Cl115	Cl	-0.248342	1.291061	-0.106820
Cl116	Cl	0.251658	1.791061	0.393180
Cl117	Cl	-0.018998	1.193814	0.778027
Cl118	Cl	0.481002	1.693814	1.278027
Cl119	Cl	-0.489150	1.286478	0.106876
Cl120	Cl	0.010850	1.786478	0.606876
Cl121	Cl	0.172411	0.519077	0.203503
Cl122	Cl	0.672411	1.019077	0.703503
H123	H	0.018756	1.167091	0.566111
H124	H	0.518756	1.667091	1.066111
H125	H	0.171860	0.498439	-0.163560
H126	H	0.671860	0.998439	0.336440
H127	H	0.328104	0.948292	0.566135
H128	H	0.828104	1.448292	1.066135
Cl129	Cl	0.180043	0.806912	-0.203488
Cl130	Cl	0.680043	1.306912	0.296512
H131	H	0.179507	0.786210	0.163573
H132	H	0.679507	1.286210	0.663573
Cl133	Cl	0.174466	0.596266	0.203501
Cl134	Cl	0.674466	1.096266	0.703501
Cl135	Cl	0.365873	0.921614	0.778050
Cl136	Cl	0.865873	1.421614	1.278050
