data_functionalizedCrystal
_audit_creation_method	'MofGen! by Chris Wilmer'
_symmetry_space_group_name_H-M	'P1'
_symmetry_Int_Tables_number	1
_symmetry_cell_setting	triclinic
loop_
_symmetry_equiv_pos_as_xyz
  x,y,z
_cell_length_a	13.339070
_cell_length_b	14.044220
_cell_length_c	12.376457
_cell_angle_alpha	102.319698
_cell_angle_beta	75.589755
_cell_angle_gamma	104.409086
loop_
_atom_site_label
_atom_site_type_symbol
_atom_site_fract_x
_atom_site_fract_y
_atom_site_fract_z
O1	O	1.404410	0.473359	-0.094060
O2	O	1.104116	0.409471	-0.094052
O3	O	1.249753	0.302247	-0.094045
O4	O	1.258772	0.580583	-0.094067
O5	O	1.213353	0.329006	0.093966
O6	O	1.067716	0.436230	0.093959
O7	O	1.368010	0.500118	0.093950
Zn8	Zn	1.212084	0.472423	0.123805
Zn9	Zn	1.260042	0.437166	-0.123907
O10	O	1.222373	0.607343	0.093943
C11	C	1.047253	0.412059	-0.000045
C12	C	0.932047	0.379891	-0.000042
C13	C	0.589833	0.630012	-0.000080
C14	C	0.698075	0.660238	-0.000087
C15	C	0.756573	0.590154	-0.000075
C16	C	0.706819	0.489838	-0.000057
C17	C	0.598569	0.459608	-0.000059
C18	C	0.765309	0.419750	-0.000054
C19	C	0.715555	0.319434	-0.000037
C20	C	0.607315	0.289209	-0.000038
C21	C	0.548816	0.359293	-0.000049
C22	C	0.873559	0.449980	-0.000053
C23	C	0.882295	0.279576	-0.000032
C24	C	0.774053	0.249350	-0.000025
C25	C	1.227607	0.279274	-0.000039
C26	C	1.215836	0.170953	-0.000037
C27	C	1.194321	-0.027370	-0.000053
C28	C	1.277803	-0.063049	-0.000059
C29	C	1.265831	-0.173403	-0.000068
C30	C	1.206291	0.082993	-0.000044
C31	C	1.424874	0.497530	-0.000059
C32	C	1.540081	0.529697	-0.000070
C33	C	1.244519	0.630315	-0.000065
C34	C	1.256291	0.738635	-0.000074
N35	N	1.179361	0.496486	0.292862
N36	N	1.292772	0.413098	-0.292964
C37	C	1.368731	0.357221	0.647856
C38	C	1.391627	0.340378	0.529517
C39	C	1.338563	0.379403	0.470347
C40	C	1.262597	0.435275	0.529528
C41	C	1.239704	0.452127	0.647878
C42	C	1.209536	0.474309	0.470370
C43	C	1.133571	0.530180	0.529551
C44	C	1.110681	0.547029	0.647889
C45	C	1.163746	0.508003	0.707059
C46	C	1.232429	0.457457	0.352020
C47	C	1.103403	0.552362	0.352042
C48	C	1.080506	0.569206	0.470381
H49	H	0.738578	0.741913	-0.000110
O50	O	1.373856	-0.000691	-0.000247
C51	C	1.446867	-0.031265	-0.097601
H52	H	1.402430	-0.076747	-0.165670
H53	H	1.502712	0.037082	-0.130270
H54	H	1.494497	-0.078851	-0.075587
O55	O	1.098398	-0.089922	0.000005
C56	C	1.107654	-0.187772	-0.000030
H57	H	1.179526	-0.185092	0.035552
H58	H	1.033324	-0.227235	0.054563
H59	H	1.117594	-0.230115	-0.090228
H60	H	1.060194	0.584143	0.303867
O61	O	0.921973	0.547412	0.000083
C62	C	0.965448	0.583869	0.097467
H63	H	0.979174	0.519049	0.129944
H64	H	1.043956	0.638068	0.075560
H65	H	0.908371	0.623972	0.165644
H66	H	1.294281	0.411966	0.303845
H67	H	0.542196	0.687062	-0.000099
O68	O	1.360891	0.362907	0.355394
C69	C	1.439335	0.305245	0.315847
H70	H	1.439008	0.261887	0.384051
H71	H	1.422267	0.250902	0.236688
H72	H	1.520159	0.356319	0.294822
H73	H	1.453478	0.294889	0.481336
H74	H	1.411935	0.325458	0.696039
O75	O	1.141335	0.524244	0.822017
C76	C	1.033536	0.484242	0.861577
H77	H	1.002603	0.423599	0.793387
H78	H	1.024278	0.450999	0.940747
H79	H	0.986559	0.545778	0.882587
H80	H	1.048834	0.592532	0.696075
H81	H	0.844709	0.614769	-0.000084
O82	O	0.443703	0.329792	-0.000198
C83	C	0.428788	0.259121	-0.097581
H84	H	0.500001	0.222166	-0.130043
H85	H	0.354275	0.200134	-0.075679
H86	H	0.420026	0.297916	-0.165768
O87	O	0.559133	0.191713	-0.000179
C88	C	0.607082	0.133411	-0.097558
H89	H	0.690718	0.174965	-0.130023
H90	H	0.610545	0.059621	-0.075648
H91	H	0.558758	0.118502	-0.165744
O92	O	0.725864	0.151856	-0.000168
C93	C	0.773806	0.093551	-0.097549
H94	H	0.857445	0.135097	-0.130014
H95	H	0.777259	0.019756	-0.075642
H96	H	0.725482	0.078650	-0.165734
O97	O	0.939255	0.211624	0.000030
C98	C	1.045467	0.259812	0.000002
H99	H	1.049599	0.342228	0.035592
H100	H	1.078830	0.224656	0.054590
H101	H	1.093859	0.251517	-0.090196
O102	O	1.006641	0.623356	0.528002
C103	C	0.924773	0.564247	0.596455
H104	H	0.955768	0.501671	0.614172
H105	H	0.895940	0.612295	0.679679
H106	H	0.856411	0.530978	0.550869
