data_functionalizedCrystal
_audit_creation_method	'MofGen! by Chris Wilmer'
_symmetry_space_group_name_H-M	'P1'
_symmetry_Int_Tables_number	1
_symmetry_cell_setting	triclinic
loop_
_symmetry_equiv_pos_as_xyz
  x,y,z
_cell_length_a	12.759401
_cell_length_b	16.959454
_cell_length_c	12.759393
_cell_angle_alpha	90.030714
_cell_angle_beta	90.018496
_cell_angle_gamma	90.020236
loop_
_atom_site_label
_atom_site_type_symbol
_atom_site_fract_x
_atom_site_fract_y
_atom_site_fract_z
Zn1	Zn	1.606216	-0.314632	0.593988
Zn2	Zn	2.106216	0.185368	1.093988
Zn3	Zn	1.606094	-0.446833	0.418310
Zn4	Zn	2.106094	0.053167	0.918310
Zn5	Zn	1.430518	-0.314673	0.418327
Zn6	Zn	1.930518	0.185327	0.918327
Zn7	Zn	1.430490	-0.446772	0.593952
Zn8	Zn	1.930490	0.053228	1.093952
O9	O	1.518330	-0.380727	0.506144
O10	O	2.018330	0.119273	1.006144
O11	O	1.753221	-0.332177	0.570692
O12	O	2.253221	0.167823	1.070692
O13	O	1.582764	-0.429345	0.271291
O14	O	2.082764	0.070655	0.771291
O15	O	1.453888	-0.204057	0.441651
O16	O	1.953888	0.295943	0.941651
O17	O	1.753131	-0.429304	0.441622
O18	O	2.253131	0.070696	0.941622
O19	O	1.582972	-0.204026	0.570708
O20	O	2.082972	0.295974	1.070708
O21	O	1.453769	-0.332247	0.271304
O22	O	1.953769	0.167753	0.771304
O23	O	1.283493	-0.332188	0.441616
O24	O	1.783493	0.167812	0.941616
O25	O	1.453840	-0.429201	0.740978
O26	O	1.953840	0.070799	1.240978
O27	O	1.283473	-0.429241	0.570647
O28	O	1.783473	0.070759	1.070647
O29	O	1.582945	-0.332118	0.741004
O30	O	2.082945	0.167882	1.241004
O31	O	1.582737	-0.557436	0.441588
O32	O	2.082737	-0.057436	0.941588
O33	O	1.453722	-0.557391	0.570631
O34	O	1.953722	-0.057391	1.070631
C35	C	1.245362	-0.380713	0.506130
C36	C	1.745362	0.119287	1.006130
C37	C	1.128586	-0.380726	0.506149
C38	C	1.628586	0.119274	1.006149
C39	C	1.518242	-0.586094	0.506126
C40	C	2.018242	-0.086094	1.006126
C41	C	1.518300	-0.673950	0.506154
C42	C	2.018300	-0.173950	1.006154
C43	C	1.073740	-0.431342	0.573224
C44	C	1.573740	0.068658	1.073224
C45	C	0.964016	-0.431352	0.573235
C46	C	1.464016	0.068648	1.073235
C47	C	0.963992	-0.330127	0.439087
C48	C	1.463992	0.169873	0.939087
C49	C	1.073714	-0.330114	0.439082
C50	C	1.573714	0.169886	0.939082
C51	C	1.073753	-0.489786	0.650670
C52	C	1.573753	0.010214	1.150670
C53	C	0.964029	-0.489796	0.650681
C54	C	1.464029	0.010204	1.150681
C55	C	1.451249	-1.045433	0.573330
C56	C	1.951249	-0.545433	1.073330
C57	C	1.585703	-1.045419	0.439066
C58	C	2.085703	-0.545419	0.939066
C59	C	1.585666	-0.962873	0.439056
C60	C	2.085666	-0.462873	0.939056
C61	C	1.518419	-0.921603	0.506183
C62	C	2.018419	-0.421603	1.006183
C63	C	1.451208	-0.962879	0.573320
C64	C	1.951208	-0.462879	1.073320
C65	C	1.652869	-0.921591	0.371913
C66	C	2.152869	-0.421591	0.871913
C67	C	1.652834	-0.839040	0.371900
C68	C	2.152834	-0.339040	0.871900
C69	C	1.585591	-0.797769	0.439033
C70	C	2.085591	-0.297769	0.939033
C71	C	1.518378	-0.839050	0.506173
C72	C	2.018378	-0.339050	1.006173
C73	C	1.451130	-0.797780	0.573300
C74	C	1.951130	-0.297780	1.073300
C75	C	1.383922	-0.839059	0.640447
C76	C	1.883922	-0.339059	1.140447
C77	C	1.383965	-0.921607	0.640453
C78	C	1.883965	-0.421607	1.140453
C79	C	1.585548	-0.715220	0.439027
C80	C	2.085548	-0.215220	0.939027
C81	C	1.451089	-0.715226	0.573291
C82	C	1.951089	-0.215226	1.073291
C83	C	1.792363	-0.380743	0.506159
C84	C	2.292363	0.119257	1.006159
C85	C	1.909140	-0.380749	0.506165
C86	C	2.409140	0.119251	1.006165
C87	C	1.518403	-0.380648	0.780178
C88	C	2.018403	0.119352	1.280178
C89	C	1.518435	-0.380614	0.896954
C90	C	2.018435	0.119386	1.396954
C91	C	1.518447	-0.174559	0.506185
C92	C	2.018447	0.325441	1.006185
C93	C	1.518496	-0.086703	0.506203
C94	C	2.018496	0.413297	1.006203
C95	C	1.518317	-0.380750	0.233177
C96	C	2.018317	0.119250	0.733177
C97	C	1.518489	-0.380561	0.116401
C98	C	2.018489	0.119439	0.616401
C99	C	1.585669	-0.330058	0.951832
C100	C	2.085669	0.169942	1.451832
C101	C	1.585694	-0.330029	1.061556
C102	C	2.085694	0.169971	1.561556
C103	C	1.451247	-0.431119	1.061516
C104	C	1.951247	0.068881	1.561516
C105	C	1.451218	-0.431143	0.951793
C106	C	1.951218	0.068857	1.451793
C107	C	1.663294	-0.271696	0.951856
C108	C	2.163294	0.228304	1.451856
C109	C	1.663319	-0.271668	1.061580
C110	C	2.163319	0.228332	1.561580
H111	H	1.118365	-0.288892	0.384470
H112	H	1.618365	0.211108	0.884470
H113	H	1.103564	-0.473461	0.732076
H114	H	1.603564	0.026539	1.232076
Br115	Br	0.889518	-0.261440	0.348076
Br116	Br	1.389518	0.238560	0.848076
Br117	Br	1.130445	-0.586685	0.601971
Br118	Br	1.630445	-0.086685	1.101971
H119	H	1.329246	-0.955225	0.695119
H120	H	1.829246	-0.455225	1.195119
H121	H	1.707559	-0.805436	0.317227
H122	H	2.207559	-0.305436	0.817227
Br123	Br	1.360027	-0.499691	1.135946
Br124	Br	1.860027	0.000309	1.635946
H125	H	1.740563	-0.293641	0.917820
H126	H	2.240563	0.206359	1.417820
H127	H	1.640447	-1.079026	0.384408
H128	H	2.140447	-0.579026	0.884408
H129	H	1.641533	-0.210482	0.922099
H130	H	2.141533	0.289518	1.422099
H131	H	1.396533	-1.079046	0.628001
H132	H	1.896533	-0.579046	1.128001
H133	H	0.930034	-0.467945	0.728033
H134	H	1.430034	0.032055	1.228033
H135	H	1.329164	-0.805447	0.695097
H136	H	1.829164	-0.305447	1.195097
H137	H	0.934226	-0.550999	0.628750
H138	H	1.434226	-0.050999	1.128750
H139	H	1.707610	-0.955199	0.317254
H140	H	2.207610	-0.455199	0.817254
Br141	Br	1.676736	-0.659201	0.347893
Br142	Br	2.176736	-0.159201	0.847893
H143	H	1.396466	-0.472308	0.907116
H144	H	1.896466	0.027692	1.407116
Br145	Br	1.614636	-0.174778	1.118339
Br146	Br	2.114636	0.325222	1.618339
H147	H	1.744687	-0.288063	1.091359
H148	H	2.244687	0.211937	1.591359
H149	H	1.396332	-0.681629	0.627958
H150	H	1.896332	-0.181629	1.127958
