data_functionalizedCrystal
_audit_creation_method	'MofGen! by Chris Wilmer'
_symmetry_space_group_name_H-M	'P1'
_symmetry_Int_Tables_number	1
_symmetry_cell_setting	triclinic
loop_
_symmetry_equiv_pos_as_xyz
  x,y,z
_cell_length_a	12.837943
_cell_length_b	15.995350
_cell_length_c	11.892095
_cell_angle_alpha	93.891441
_cell_angle_beta	85.689438
_cell_angle_gamma	89.160657
loop_
_atom_site_label
_atom_site_type_symbol
_atom_site_fract_x
_atom_site_fract_y
_atom_site_fract_z
O1	O	1.382080	0.212847	-0.093972
O2	O	1.080275	0.202094	-0.093979
O3	O	1.239427	0.086241	-0.093975
O4	O	1.222927	0.328700	-0.093977
O5	O	1.226157	0.095884	0.094032
O6	O	1.067005	0.211737	0.094028
O7	O	1.368810	0.222490	0.094035
Zn8	Zn	1.215800	0.218644	0.123881
Zn9	Zn	1.233284	0.205939	-0.123826
O10	O	1.209657	0.338343	0.094030
C11	C	1.035019	0.203283	0.000023
C12	C	0.919942	0.192449	0.000020
C13	C	0.678983	0.322688	0.000035
C14	C	0.570857	0.312513	0.000033
C15	C	0.595563	0.161925	0.000023
C16	C	0.703688	0.172100	0.000025
C17	C	0.745394	0.252484	0.000029
C18	C	0.853523	0.262658	0.000023
C19	C	0.878225	0.112072	0.000020
C20	C	0.770100	0.101896	0.000018
C21	C	1.232110	0.059813	0.000027
C22	C	1.230066	-0.033301	0.000020
C23	C	1.222721	-0.371634	0.000024
C24	C	1.109405	-0.333265	-0.000400
C25	C	1.111421	-0.236390	0.000023
C26	C	1.226364	-0.203783	0.000021
C27	C	1.274693	-0.234893	0.107382
C28	C	1.271839	-0.331752	0.107472
C29	C	1.289271	-0.342889	-0.106327
C30	C	1.289344	-0.246018	-0.107746
C31	C	1.228429	-0.108921	0.000024
C32	C	1.220659	-0.466496	0.000029
C33	C	1.414066	0.221301	0.000030
C34	C	1.529143	0.232134	0.000025
C35	C	1.216974	0.364770	0.000026
C36	C	1.219020	0.457884	0.000025
N37	N	1.203876	0.227315	0.292935
N38	N	1.245217	0.197262	-0.292880
C39	C	1.328193	0.136877	0.529587
C40	C	1.319865	0.142945	0.647928
C41	C	1.178889	0.245514	0.647962
C42	C	1.187216	0.239446	0.529621
C43	C	1.261872	0.185127	0.470437
C44	C	1.270204	0.179064	0.352093
C45	C	1.129223	0.281628	0.352129
C46	C	1.120896	0.287696	0.470471
H47	H	1.072907	-0.215422	-0.076937
C48	C	1.391656	-0.005055	0.493088
C49	C	1.410254	0.077185	0.464506
H50	H	1.442316	-0.041903	0.452899
H51	H	1.396205	-0.008353	0.572020
H52	H	1.323837	-0.020688	0.473709
H53	H	1.478071	0.092820	0.483892
H54	H	1.405715	0.080485	0.385556
C55	C	1.332994	0.037618	0.781000
C56	C	1.392767	0.089908	0.712948
H57	H	1.378004	0.004870	0.821134
H58	H	1.287355	0.070837	0.833181
H59	H	1.293097	0.001675	0.734829
H60	H	1.432658	0.125856	0.759119
H61	H	1.438424	0.056686	0.660760
C62	C	0.805381	-0.045931	0.000001
C63	C	0.724252	0.013541	0.000009
H64	H	0.777076	-0.100478	-0.000001
H65	H	0.851663	-0.042186	-0.065556
H66	H	0.842416	-0.035467	0.065569
H67	H	0.687222	0.003081	-0.065563
H68	H	0.677952	0.009794	0.065573
C69	C	0.938880	0.324337	0.506956
C70	C	1.038836	0.347397	0.535537
H71	H	0.888221	0.361193	0.547130
H72	H	0.934354	0.327637	0.428021
H73	H	0.926271	0.268544	0.526352
H74	H	1.051447	0.403189	0.516133
H75	H	1.043365	0.344105	0.614489
H76	H	1.225408	-0.349189	0.187727
H77	H	1.257956	-0.370559	-0.187700
C78	C	0.779434	0.426446	0.096680
C79	C	0.724837	0.411041	0.000034
H80	H	0.807745	0.480990	0.096673
H81	H	0.733138	0.422714	0.162229
H82	H	0.834459	0.386085	0.096670
H83	H	0.669807	0.451398	0.000048
H84	H	0.771136	0.414780	-0.065532
C85	C	1.020968	0.031199	-0.096638
C86	C	0.951228	0.034896	0.000012
H87	H	1.066039	-0.016443	-0.096642
H88	H	0.982894	0.026999	-0.162184
H89	H	1.061280	0.080529	-0.096622
H90	H	0.910910	-0.014432	-0.000009
H91	H	0.989306	0.039088	0.065575
H92	H	1.075223	0.320919	0.303956
H93	H	1.069536	-0.359360	-0.077391
C94	C	0.996870	0.282133	0.684457
C95	C	1.096822	0.305203	0.713039
H96	H	0.946205	0.318978	0.724642
H97	H	0.992340	0.285442	0.605524
H98	H	0.984275	0.226335	0.703840
H99	H	1.109420	0.360999	0.693648
H100	H	1.101356	0.301902	0.791990
C101	C	0.523331	0.432774	-0.096615
C102	C	0.497855	0.389681	0.000031
H103	H	0.478257	0.480413	-0.096617
H104	H	0.593687	0.450335	-0.096603
H105	H	0.515310	0.396800	-0.162171
H106	H	0.505884	0.425653	0.065587
H107	H	0.427482	0.372121	0.000029
C108	C	0.967596	0.356515	-0.096624
C109	C	0.899367	0.351015	0.000025
H110	H	0.995889	0.411066	-0.096622
H111	H	1.022622	0.316169	-0.096620
H112	H	0.930542	0.346053	-0.162178
H113	H	0.936423	0.361471	0.065579
H114	H	0.844332	0.391373	0.000031
H115	H	1.058900	-0.352531	0.076159
C116	C	0.440774	0.079474	0.000036
C117	C	0.549705	0.073573	0.000029
H118	H	0.412467	0.024927	0.000035
H119	H	0.413369	0.112103	0.065594
H120	H	0.422614	0.105381	-0.065531
H121	H	0.567866	0.047672	0.065600
H122	H	0.577120	0.040931	-0.065537
H123	H	1.354712	-0.357110	0.112342
H124	H	1.358857	-0.213825	0.111373
C125	C	1.002230	-0.262587	0.166322
C126	C	1.044371	-0.198193	0.104103
H127	H	0.960843	-0.239003	0.230585
H128	H	0.959991	-0.296620	0.120345
H129	H	1.057280	-0.295800	0.190248
H130	H	0.989320	-0.164983	0.080170
H131	H	1.086612	-0.164145	0.150088
C132	C	1.171956	-0.258586	0.279030
C133	C	1.214663	-0.195241	0.215246
H134	H	1.134897	-0.234107	0.345621
H135	H	1.125513	-0.290492	0.235597
H136	H	1.226499	-0.294111	0.299145
H137	H	1.160119	-0.159720	0.195123
H138	H	1.261109	-0.163321	0.258687
C139	C	1.246133	-0.131804	-0.217868
C140	C	1.241814	-0.219058	-0.214971
H141	H	1.216793	-0.115158	-0.284067
H142	H	1.207704	-0.106067	-0.152972
H143	H	1.316835	-0.115014	-0.218551
H144	H	1.171110	-0.235848	-0.214280
H145	H	1.280241	-0.244804	-0.279885
H146	H	1.372891	-0.368019	-0.107050
C147	C	1.418834	-0.159880	-0.024778
C148	C	1.403123	-0.216710	-0.116502
H149	H	1.489082	-0.141793	-0.030176
H150	H	1.372876	-0.112894	-0.025691
H151	H	1.405215	-0.186420	0.043738
H152	H	1.416734	-0.190168	-0.185019
H153	H	1.449096	-0.263705	-0.115600
H154	H	1.330995	0.134837	0.303907
