data_functionalizedCrystal
_audit_creation_method	'MofGen! by Chris Wilmer'
_symmetry_space_group_name_H-M	'P1'
_symmetry_Int_Tables_number	1
_symmetry_cell_setting	triclinic
loop_
_symmetry_equiv_pos_as_xyz
  x,y,z
_cell_length_a	25.639242
_cell_length_b	25.639239
_cell_length_c	12.759387
_cell_angle_alpha	89.963582
_cell_angle_beta	89.968918
_cell_angle_gamma	90.033587
loop_
_atom_site_label
_atom_site_type_symbol
_atom_site_fract_x
_atom_site_fract_y
_atom_site_fract_z
Zn1	Zn	0.799274	-0.208194	-0.594260
Zn2	Zn	0.799183	-0.295640	-0.418563
Zn3	Zn	0.711836	-0.208213	-0.418565
Zn4	Zn	0.711796	-0.295593	-0.594170
O5	O	0.755522	-0.251910	-0.506390
O6	O	0.872427	-0.219806	-0.570991
O7	O	0.787575	-0.284070	-0.271542
O8	O	0.723490	-0.135045	-0.441909
O9	O	0.872360	-0.284052	-0.441907
O10	O	0.787730	-0.135031	-0.570992
O11	O	0.723402	-0.219838	-0.271543
O12	O	0.638665	-0.219792	-0.441822
O13	O	0.723421	-0.283972	-0.741203
O14	O	0.638636	-0.283989	-0.570839
O15	O	0.787691	-0.219760	-0.741270
O16	O	0.787536	-0.368799	-0.441820
O17	O	0.723333	-0.368764	-0.570837
C18	C	0.619680	-0.251888	-0.506321
C19	C	0.561566	-0.251891	-0.506317
C20	C	0.310379	-0.218426	-0.439327
C21	C	0.364983	-0.218422	-0.439314
O22	O	0.393225	-0.189938	-0.382297
N23	N	0.392292	-0.251897	-0.506370
C24	C	0.364993	-0.285377	-0.573451
O25	O	0.393235	-0.313850	-0.630487
C26	C	0.310390	-0.285379	-0.573469
C27	C	0.283084	-0.251904	-0.506401
C28	C	0.283073	-0.184954	-0.372265
C29	C	0.228472	-0.184960	-0.372277
C30	C	0.201178	-0.218438	-0.439351
C31	C	0.228484	-0.251910	-0.506413
C32	C	0.283092	-0.318855	-0.640555
C33	C	0.228485	-0.318853	-0.640568
C34	C	0.201179	-0.285379	-0.573500
C35	C	0.146588	-0.285393	-0.573499
N36	N	0.119280	-0.251917	-0.506443
C37	C	0.146574	-0.218439	-0.439369
C38	C	0.479664	-0.285370	-0.573410
C39	C	0.534266	-0.285371	-0.573388
C40	C	0.534252	-0.218415	-0.439251
C41	C	0.479649	-0.218417	-0.439269
C42	C	0.452355	-0.251894	-0.506354
C43	C	0.031909	-0.218454	-0.439399
C44	C	-0.022696	-0.218464	-0.439414
C45	C	-0.022678	-0.285418	-0.573554
C46	C	0.031923	-0.285410	-0.573536
C47	C	0.059215	-0.251924	-0.506455
O48	O	0.118311	-0.313861	-0.630490
O49	O	0.118326	-0.189966	-0.382353
C50	C	0.755434	-0.387753	-0.506342
C51	C	0.755444	-0.445867	-0.506356
C52	C	0.789040	-0.806235	-0.439325
C53	C	0.789060	-0.860839	-0.439339
O54	O	0.817533	-0.889081	-0.382294
N55	N	0.755614	-0.888149	-0.506459
C56	C	0.722149	-0.860851	-0.573578
O57	O	0.693703	-0.889094	-0.630671
C58	C	0.722132	-0.806248	-0.573568
C59	C	0.755577	-0.778941	-0.506436
C60	C	0.822482	-0.778928	-0.372199
C61	C	0.822461	-0.724328	-0.372184
C62	C	0.788998	-0.697034	-0.439294
C63	C	0.755555	-0.724341	-0.506421
C64	C	0.688670	-0.778952	-0.640691
C65	C	0.688656	-0.724344	-0.640676
C66	C	0.722101	-0.697038	-0.573544
C67	C	0.722071	-0.642447	-0.573516
N68	N	0.755517	-0.615137	-0.506396
C69	C	0.788981	-0.642431	-0.439285
C70	C	0.722189	-0.975522	-0.573594
C71	C	0.722203	-1.030124	-0.573599
C72	C	0.789115	-1.030109	-0.439361
C73	C	0.789098	-0.975505	-0.439352
C74	C	0.755635	-0.948212	-0.506473
C75	C	0.788934	-0.527766	-0.439257
C76	C	0.788908	-0.473160	-0.439245
C77	C	0.721998	-0.473181	-0.573486
C78	C	0.722021	-0.527781	-0.573495
C79	C	0.755493	-0.555072	-0.506377
O80	O	0.693614	-0.614170	-0.630535
O81	O	0.817427	-0.614181	-0.382211
C82	C	0.891895	-0.251932	-0.506459
C83	C	0.950009	-0.251942	-0.506489
C84	C	0.755562	-0.251859	-0.780423
C85	C	0.755579	-0.251837	-0.897200
C86	C	0.755625	-0.115537	-0.506461
C87	C	0.755668	-0.057423	-0.506491
C88	C	0.822508	-0.184978	-0.897289
C89	C	0.855979	-0.151541	-0.952194
C90	C	0.855992	-0.151522	-1.061916
C91	C	0.822528	-0.184942	-1.116735
C92	C	0.789056	-0.218380	-1.061830
C93	C	0.789048	-0.218396	-0.952105
C94	C	0.722126	-0.285235	-1.061741
C95	C	0.722115	-0.285258	-0.952019
C96	C	0.688662	-0.318656	-1.116560
C97	C	0.655192	-0.352096	-1.061655
C98	C	0.655181	-0.352114	-0.951926
C99	C	0.688643	-0.318695	-0.897114
C100	C	0.755513	-0.251923	-0.233422
C101	C	0.755597	-0.251798	-0.116646
H102	H	0.054124	-0.191184	-0.384781
H103	H	0.556486	-0.191154	-0.384638
Cl104	Cl	0.568587	-0.327462	-0.657690
H105	H	0.883224	-0.124330	-0.907548
H106	H	0.816143	-0.450929	-0.384574
H107	H	0.849735	-0.801145	-0.317549
Cl108	Cl	0.688634	-0.318717	-0.759177
Cl109	Cl	0.831144	-0.941182	-0.354955
Cl110	Cl	0.445357	-0.327464	-0.657745
Cl111	Cl	0.317406	-0.360939	-0.724877
Cl112	Cl	0.194176	-0.360941	-0.724911
Cl113	Cl	0.445327	-0.176332	-0.354954
H114	H	0.206245	-0.157701	-0.317664
Cl115	Cl	0.831012	-0.562066	-0.354878
H116	H	0.661433	-0.801175	-0.695352
H117	H	0.054157	-0.312672	-0.628140
Cl118	Cl	-0.057001	-0.327509	-0.657858
H119	H	0.849696	-0.702098	-0.317522
Cl120	Cl	0.831183	-1.064431	-0.354991
Cl121	Cl	0.680150	-1.064446	-0.657985
H122	H	0.694790	-0.550016	-0.628163
Cl123	Cl	0.317377	-0.142861	-0.287933
H124	H	0.694935	-0.953303	-0.628249
Cl125	Cl	0.646586	-0.690037	-0.725065
Cl126	Cl	0.679935	-0.438859	-0.657855
H127	H	0.822505	-0.184995	-0.807948
Cl128	Cl	0.613096	-0.394150	-0.882912
Cl129	Cl	0.898063	-0.109478	-1.130942
Cl130	Cl	0.822541	-0.184913	-1.254672
H131	H	-0.044926	-0.191205	-0.384797
Cl132	Cl	0.688678	-0.318632	-1.254497
H133	H	0.627946	-0.379302	-1.106297
