data_functionalizedCrystal
_audit_creation_method	'MofGen! by Chris Wilmer'
_symmetry_space_group_name_H-M	'P1'
_symmetry_Int_Tables_number	1
_symmetry_cell_setting	triclinic
loop_
_symmetry_equiv_pos_as_xyz
  x,y,z
_cell_length_a	10.723022
_cell_length_b	9.198806
_cell_length_c	19.288865
_cell_angle_alpha	90.008409
_cell_angle_beta	83.801737
_cell_angle_gamma	90.003648
loop_
_atom_site_label
_atom_site_type_symbol
_atom_site_fract_x
_atom_site_fract_y
_atom_site_fract_z
O1	O	1.655143	0.120902	0.097410
O2	O	2.155143	0.620902	0.597410
O3	O	1.291795	0.120908	0.106736
O4	O	1.791795	0.620908	0.606736
O5	O	1.483968	0.120876	0.001011
O6	O	1.983968	0.620876	0.501011
O7	O	1.462970	0.120934	0.203135
O8	O	1.962970	0.620934	0.703135
O9	O	1.483953	-0.120909	0.001011
O10	O	1.983953	0.379091	0.501011
O11	O	1.291780	-0.120877	0.106736
O12	O	1.791780	0.379123	0.606736
O13	O	1.655128	-0.120883	0.097410
O14	O	2.155128	0.379117	0.597410
Cu15	Cu	1.473452	-0.142957	0.102073
Cu16	Cu	1.973452	0.357043	0.602073
Cu17	Cu	1.473470	0.142982	0.102073
Cu18	Cu	1.973470	0.642982	0.602073
O19	O	1.462955	-0.120851	0.203135
O20	O	1.962955	0.379149	0.703135
C21	C	1.245302	0.000016	0.106057
C22	C	1.745302	0.500016	0.606057
C23	C	1.106790	0.000018	0.104028
C24	C	1.606790	0.500018	0.604028
N25	N	1.473449	-0.344071	0.102072
N26	N	1.973449	0.155929	0.602072
C27	C	0.887413	0.000037	0.161086
C28	C	1.387413	0.500037	0.661086
C29	C	1.030572	0.000036	0.163186
C30	C	1.530572	0.500036	0.663186
C31	C	1.554141	-0.416281	0.057486
C32	C	2.054141	0.083719	0.557486
C33	C	1.554161	-0.583694	0.057483
C34	C	2.054161	-0.083694	0.557483
C35	C	1.701621	0.000012	0.098089
C36	C	2.201621	0.500012	0.598089
C37	C	1.840133	0.000020	0.100118
C38	C	2.340133	0.500020	0.600118
C39	C	1.483285	-0.000021	-0.024870
C40	C	1.983285	0.499979	0.475130
C41	C	1.481257	-0.000034	-0.101987
C42	C	1.981257	0.499966	0.398013
N43	N	1.473484	0.344096	0.102068
N44	N	1.973484	0.844096	0.602068
C45	C	1.594015	-0.000043	-0.145950
C46	C	2.094015	0.499957	0.354050
C47	C	1.592110	-0.000020	-0.218409
C48	C	2.092110	0.499980	0.281591
C49	C	1.477439	-0.000017	-0.246902
C50	C	1.977439	0.499983	0.253098
C51	C	1.364666	0.000001	-0.202930
C52	C	1.864666	0.500001	0.297070
C53	C	1.366575	-0.000008	-0.130472
C54	C	1.866575	0.499992	0.369528
C55	C	1.387290	-0.084707	-0.355776
C56	C	1.887290	0.415293	0.144224
C57	C	1.385386	-0.084708	-0.428233
C58	C	1.885386	0.415292	0.071767
C59	C	1.471548	0.000016	-0.470386
C60	C	1.971548	0.500016	0.029614
C61	C	1.559635	0.084721	-0.440075
C62	C	2.059635	0.584721	0.059925
C63	C	1.561543	0.084713	-0.367617
C64	C	2.061543	0.584713	0.132383
C65	C	1.475357	-0.000007	-0.325470
C66	C	1.975357	0.499993	0.174530
C67	C	1.582248	0.000034	-0.592919
C68	C	2.082248	0.500034	-0.092919
C69	C	1.580338	0.000066	-0.665379
C70	C	2.080338	0.500066	-0.165379
C71	C	1.352891	0.000072	-0.649898
C72	C	1.852891	0.500072	-0.149898
C73	C	1.354804	0.000054	-0.577439
C74	C	1.854804	0.500054	-0.077439
C75	C	1.469486	0.000028	-0.548954
C76	C	1.969486	0.500028	-0.048954
C77	C	1.463638	0.000049	0.229016
C78	C	1.963638	0.500049	0.729016
C79	C	1.465666	0.000071	0.306133
C80	C	1.965666	0.500071	0.806133
H81	H	0.821908	0.000061	0.211729
H82	H	1.321908	0.500061	0.711729
Cl83	Cl	1.366799	-0.439964	0.161004
Cl84	Cl	1.866799	0.060036	0.661004
H85	H	1.071288	0.000042	0.215386
H86	H	1.571288	0.500042	0.715386
H87	H	1.687398	-0.000059	-0.122762
H88	H	2.187398	0.499941	0.377238
Cl89	Cl	1.208732	0.000084	-0.685711
Cl90	Cl	1.708732	0.500084	-0.185711
Cl91	Cl	1.726416	-0.000007	-0.557105
Cl92	Cl	2.226416	0.499993	-0.057105
Cl93	Cl	1.043945	-0.000016	0.023427
Cl94	Cl	1.543945	0.499984	0.523427
H95	H	1.623207	-0.354167	0.019312
H96	H	2.123207	0.145833	0.519312
Cl97	Cl	1.667959	0.191241	-0.493060
Cl98	Cl	2.167959	0.691241	0.006940
Cl99	Cl	1.366821	-0.560045	0.161012
Cl100	Cl	1.866821	-0.060045	0.661012
H101	H	1.672163	0.000066	-0.701174
H102	H	2.172163	0.500066	-0.201174
Cl103	Cl	1.660832	-0.679562	-0.001451
Cl104	Cl	2.160832	-0.179562	0.498549
Cl105	Cl	0.941259	0.000008	0.021925
Cl106	Cl	1.441259	0.500008	0.521925
H107	H	1.683934	-0.000021	-0.254211
H108	H	2.183934	0.499979	0.245789
Cl109	Cl	1.213042	0.000059	-0.522168
Cl110	Cl	1.713042	0.500059	-0.022168
H111	H	1.633265	0.153686	-0.342941
H112	H	2.133265	0.653686	0.157059
H113	H	1.313655	-0.153671	-0.452906
H114	H	1.813655	0.346329	0.047094
H115	H	1.317123	-0.153707	-0.321460
H116	H	1.817123	0.346293	0.178540
H117	H	1.271300	0.000006	-0.226134
H118	H	1.771300	0.500006	0.273866
Cl119	Cl	1.224809	0.000003	-0.075201
Cl120	Cl	1.724809	0.500003	0.424799
