data_functionalizedCrystal
_audit_creation_method	'MofGen! by Chris Wilmer'
_symmetry_space_group_name_H-M	'P1'
_symmetry_Int_Tables_number	1
_symmetry_cell_setting	triclinic
loop_
_symmetry_equiv_pos_as_xyz
  x,y,z
_cell_length_a	6.817900
_cell_length_b	14.858329
_cell_length_c	19.453114
_cell_angle_alpha	95.589746
_cell_angle_beta	101.709288
_cell_angle_gamma	104.519616
loop_
_atom_site_label
_atom_site_type_symbol
_atom_site_fract_x
_atom_site_fract_y
_atom_site_fract_z
V1	V	-4.012059	-0.129640	-0.219201
O2	O	-3.994530	0.005233	-0.214822
O3	O	-3.968795	-0.256095	-0.217900
O4	O	-3.954911	-0.128083	-0.314711
O5	O	-4.008510	-0.123665	-0.117340
V6	V	-4.496155	-0.113456	-0.206993
O7	O	-4.272060	-0.165141	-0.245979
O8	O	-4.686351	-0.077955	-0.180215
O9	O	-4.316212	0.013000	-0.208294
O10	O	-4.631080	-0.248328	-0.211372
O11	O	-4.617100	-0.119430	-0.308854
O12	O	-4.330097	-0.115012	-0.111483
C13	C	-3.815328	-0.286909	-0.214493
C14	C	-3.861183	-0.390291	-0.214066
C15	C	-3.898417	-0.474247	-0.213712
C16	C	-3.945148	-0.579575	-0.213272
C17	C	-3.982409	-0.663525	-0.212922
C18	C	-4.029143	-0.768860	-0.212481
C19	C	-3.797617	-0.123615	-0.337985
C20	C	-3.832209	-0.123179	-0.416066
C21	C	-4.030433	-0.127642	-0.456330
C22	C	-4.062936	-0.127232	-0.529697
C23	C	-3.897215	-0.122378	-0.562798
C24	C	-3.698961	-0.117909	-0.522524
C25	C	-3.666458	-0.118309	-0.449158
N26	N	-3.839466	-0.171491	-0.681664
N27	N	-3.870356	-0.171113	-0.751358
C28	C	-3.995132	-0.121169	-0.783844
N29	N	-4.087888	-0.071630	-0.744005
N30	N	-4.057003	-0.072012	-0.674304
C31	C	-3.932438	-0.121942	-0.642350
C32	C	-4.228611	-0.125187	-0.903660
C33	C	-4.261105	-0.124771	-0.977027
C34	C	-3.897129	-0.115457	-0.969854
C35	C	-3.864636	-0.115863	-0.896488
C36	C	-4.030387	-0.120733	-0.863396
C37	C	-4.133021	0.043809	-0.211699
C38	C	-4.066404	0.147190	-0.212131
C39	C	-4.150733	-0.119483	-0.088206
C40	C	-4.095379	-0.119915	-0.010123
H41	H	-4.224361	-0.130871	-0.562487
O42	O	-4.453820	-0.129147	-1.016041
C43	C	-4.593119	-0.133505	-0.971094
H44	H	-4.531437	-0.162027	-0.921277
H45	H	-4.608028	-0.059987	-0.955448
C46	C	-4.884221	-0.164020	-1.071615
C47	C	-4.808472	-0.199058	-1.010430
H48	H	-5.017064	-0.204452	-1.095879
H49	H	-4.790374	-0.161080	-1.101897
H50	H	-4.896629	-0.102755	-1.058567
H51	H	-4.796041	-0.260316	-1.023479
H52	H	-4.902323	-0.202009	-0.980151
H53	H	-3.762190	-0.111496	-0.996803
H54	H	-4.363574	-0.129148	-0.876715
H55	H	-3.703227	-0.112239	-0.863705
H56	H	-4.165402	-0.131603	-0.429392
H57	H	-3.564030	-0.113953	-0.549479
O58	O	-3.473881	-0.113847	-0.409985
C59	C	-3.403594	-0.032872	-0.357651
H60	H	-3.488203	0.021225	-0.375041
H61	H	-3.437108	-0.052747	-0.305207
C62	C	-3.063333	-0.057093	-0.326475
C63	C	-3.167239	0.009354	-0.347838
H64	H	-2.917537	-0.031047	-0.320419
H65	H	-3.110687	-0.111649	-0.361732
H66	H	-3.091283	-0.073649	-0.282774
H67	H	-3.139309	0.025900	-0.391542
H68	H	-3.119874	0.063914	-0.312588
