data_functionalizedCrystal
_audit_creation_method	'MofGen! by Chris Wilmer'
_symmetry_space_group_name_H-M	'P1'
_symmetry_Int_Tables_number	1
_symmetry_cell_setting	triclinic
loop_
_symmetry_equiv_pos_as_xyz
  x,y,z
_cell_length_a	17.699077
_cell_length_b	12.811415
_cell_length_c	16.776229
_cell_angle_alpha	84.562504
_cell_angle_beta	89.993415
_cell_angle_gamma	83.663755
loop_
_atom_site_label
_atom_site_type_symbol
_atom_site_fract_x
_atom_site_fract_y
_atom_site_fract_z
O1	O	1.004676	0.132702	-0.075869
O2	O	0.784374	0.149977	-0.077121
O3	O	0.900067	-0.011468	-0.065445
O4	O	0.888984	0.294147	-0.087545
O5	O	0.900051	-0.011477	0.067132
O6	O	0.784359	0.149968	0.055456
O7	O	1.004661	0.132692	0.056708
Zn8	Zn	0.894507	0.141328	0.077132
Zn9	Zn	0.894528	0.141341	-0.097545
O10	O	0.888968	0.294137	0.045032
C11	C	0.756167	0.149355	-0.010789
C12	C	0.672140	0.147501	-0.010656
C13	C	0.632660	0.146622	0.061676
C14	C	0.553710	0.144863	0.061804
C15	C	0.514240	0.143991	-0.010401
C16	C	0.553726	0.144867	-0.082739
C17	C	0.632675	0.146618	-0.082865
C18	C	0.235331	0.137804	-0.082229
C19	C	0.156375	0.136055	-0.082097
C20	C	0.156365	0.136049	0.062440
C21	C	0.235315	0.137800	0.062313
C22	C	0.274794	0.138670	-0.010023
C23	C	0.360401	0.140575	-0.010161
C24	C	0.428634	0.142094	-0.010265
C25	C	0.899438	-0.050575	0.003669
C26	C	0.897577	-0.167089	0.012089
C27	C	0.894084	-0.386009	-0.116641
C28	C	0.892335	-0.495484	-0.108733
C29	C	0.892327	-0.495515	0.035812
C30	C	0.894075	-0.386040	0.027904
C31	C	0.894955	-0.331291	-0.048325
C32	C	0.896708	-0.221815	-0.056232
C33	C	0.896694	-0.221848	0.088312
C34	C	0.894946	-0.331323	0.096220
C35	C	1.032868	0.133315	-0.009626
C36	C	1.116895	0.135169	-0.009764
C37	C	0.889597	0.333245	-0.024084
C38	C	0.891458	0.449759	-0.032509
N39	N	0.894499	0.141319	0.196343
N40	N	0.894542	0.141343	-0.216756
C41	C	0.945743	0.069860	0.243229
C42	C	0.945747	0.069859	0.326681
C43	C	0.894510	0.141323	0.363246
C44	C	0.843260	0.212785	0.316355
C45	C	0.843253	0.212780	0.232905
C46	C	0.843288	0.212805	0.652901
C47	C	0.843301	0.212807	0.736357
C48	C	0.945782	0.069885	0.746677
C49	C	0.945775	0.069880	0.663227
C50	C	0.894523	0.141338	0.616343
C51	C	0.894518	0.141336	0.525855
C52	C	0.894518	0.141330	0.453732
H53	H	0.124241	0.135344	-0.140899
H54	H	0.267447	0.138515	0.121110
H55	H	0.521571	0.144130	0.120705
H56	H	0.521584	0.144149	-0.141529
H57	H	0.801538	0.270968	0.346131
H58	H	0.801574	0.271003	0.766126
H59	H	0.664818	0.147336	-0.141765
H60	H	0.267465	0.138509	-0.141130
Cl61	Cl	1.010163	-0.019981	0.197270
Cl62	Cl	0.106730	0.134949	0.153379
H63	H	0.894227	-0.375914	0.158283
H64	H	0.897406	-0.177285	0.143940
Cl65	Cl	0.891198	-0.564357	0.131633
H66	H	0.897427	-0.177240	-0.118301
Cl67	Cl	1.010169	-0.019977	0.385624
H68	H	0.987499	0.011691	0.633458
Cl69	Cl	0.778826	0.302614	0.173964
H70	H	0.987512	0.011697	0.784859
H71	H	0.801558	0.270991	0.614734
Cl72	Cl	0.682271	0.147725	0.152453
Cl73	Cl	0.891238	-0.564268	-0.194620
Cl74	Cl	0.895201	-0.317179	-0.212467
