data_functionalizedCrystal
_audit_creation_method	'MofGen! by Chris Wilmer'
_symmetry_space_group_name_H-M	'P1'
_symmetry_Int_Tables_number	1
_symmetry_cell_setting	triclinic
loop_
_symmetry_equiv_pos_as_xyz
  x,y,z
_cell_length_a	10.723024
_cell_length_b	10.723024
_cell_length_c	9.198806
_cell_angle_alpha	89.997988
_cell_angle_beta	89.996352
_cell_angle_gamma	84.467869
loop_
_atom_site_label
_atom_site_type_symbol
_atom_site_fract_x
_atom_site_fract_y
_atom_site_fract_z
O1	O	1.657188	0.175024	-0.120879
O2	O	1.294035	0.191778	-0.120884
O3	O	1.483988	0.001825	-0.120876
O4	O	1.467235	0.364977	-0.120887
O5	O	1.483973	0.001824	0.120909
O6	O	1.294020	0.191777	0.120901
O7	O	1.657173	0.175024	0.120906
Cu8	Cu	1.475595	0.183401	0.142981
Cu9	Cu	1.475613	0.183401	-0.142958
O10	O	1.467220	0.364977	0.120898
C11	C	1.482762	-0.044675	0.000015
C12	C	1.479114	-0.183229	0.000010
C13	C	1.247528	0.190558	0.000008
C14	C	1.108974	0.186911	0.000007
C15	C	1.585401	-0.258212	0.000009
C16	C	1.581634	-0.401415	0.000004
C17	C	1.033991	0.293198	0.000002
C18	C	0.890788	0.289431	0.000001
C19	C	1.703680	0.176243	0.000011
C20	C	1.842234	0.179891	0.000003
C21	C	1.468447	0.411477	0.000004
C22	C	1.472094	0.550031	-0.000000
N23	N	1.475592	0.183399	0.344095
N24	N	1.475626	0.183393	-0.344072
C25	C	1.555347	0.103292	0.416295
C26	C	1.555367	0.103288	0.583707
H27	H	1.672624	-0.465848	0.000010
O28	O	1.394022	0.265264	0.417972
C29	C	1.227583	0.432547	0.402278
C30	C	1.319877	0.339882	0.318437
H31	H	1.167630	0.492918	0.321841
H32	H	1.164597	0.378290	0.473511
H33	H	1.282266	0.495095	0.473569
H34	H	1.265295	0.277311	0.247067
H35	H	1.382862	0.394217	0.247296
O36	O	1.059034	0.075049	-0.000250
C37	C	0.927941	-0.060407	-0.125467
C38	C	0.984433	0.066310	-0.125373
H39	H	0.867593	-0.067503	-0.226603
H40	H	1.006619	-0.139899	-0.125559
H41	H	0.867718	-0.067594	-0.024234
H42	H	1.044643	0.073619	-0.226589
H43	H	0.905695	0.145740	-0.125205
H44	H	1.385328	-0.225051	-0.000001
H45	H	1.623611	0.034707	0.354171
O46	O	1.083810	0.405123	0.000257
C47	C	1.100059	0.600275	0.125468
C48	C	1.043587	0.473548	0.125377
H49	H	1.067539	0.655644	0.226600
H50	H	1.206671	0.583456	0.125564
H51	H	1.067703	0.655581	0.024231
H52	H	1.075846	0.418176	0.226595
H53	H	0.936981	0.490456	0.125204
H54	H	1.623653	0.034709	0.645796
H55	H	1.407345	0.251984	0.593848
O56	O	1.363565	-0.373067	-0.000258
C57	C	1.235862	-0.209748	-0.125474
C58	C	1.358803	-0.296798	-0.125378
H59	H	1.231983	-0.148043	-0.226606
H60	H	1.152754	-0.268523	-0.125573
H61	H	1.231874	-0.148169	-0.024238
H62	H	1.362913	-0.358393	-0.226597
H63	H	1.441853	-0.237948	-0.125203
O64	O	0.813982	0.398023	-0.000262
C65	C	0.750214	0.591068	-0.125487
C66	C	0.837250	0.468118	-0.125387
H67	H	0.769013	0.647787	-0.226624
H68	H	0.648391	0.568762	-0.125584
H69	H	0.768864	0.647718	-0.024255
H70	H	0.818711	0.411409	-0.226601
H71	H	0.939044	0.490512	-0.125215
O72	O	1.697372	-0.208481	0.000200
C73	C	1.892457	-0.192103	0.125497
C74	C	1.765703	-0.248522	0.125449
H75	H	1.947728	-0.224432	0.226765
H76	H	1.947905	-0.224523	0.024377
H77	H	1.875534	-0.085499	0.125426
H78	H	1.782512	-0.355128	0.125571
H79	H	1.710297	-0.216003	0.226559
H80	H	0.906659	0.088896	-0.000003
