data_functionalizedCrystal
_audit_creation_method	'MofGen! by Chris Wilmer'
_symmetry_space_group_name_H-M	'P1'
_symmetry_Int_Tables_number	1
_symmetry_cell_setting	triclinic
loop_
_symmetry_equiv_pos_as_xyz
  x,y,z
_cell_length_a	13.339070
_cell_length_b	13.262508
_cell_length_c	11.892095
_cell_angle_alpha	109.778227
_cell_angle_beta	85.042766
_cell_angle_gamma	99.430496
loop_
_atom_site_label
_atom_site_type_symbol
_atom_site_fract_x
_atom_site_fract_y
_atom_site_fract_z
O1	O	1.339757	0.530370	0.069032
O2	O	1.046421	0.460112	0.047436
O3	O	1.203736	0.342195	0.011183
O4	O	1.182442	0.648287	0.105284
O5	O	1.190619	0.352006	0.202207
O6	O	1.033305	0.469922	0.238459
O7	O	1.326640	0.540181	0.260055
Zn8	Zn	1.177890	0.506609	0.279587
Zn9	Zn	1.195171	0.493683	0.027905
O10	O	1.169326	0.658097	0.296308
C11	C	1.002375	0.453149	0.139299
C12	C	0.890673	0.417773	0.128425
C13	C	1.197190	0.307124	0.094402
C14	C	1.197215	0.188002	0.057774
C15	C	1.168681	-0.126405	0.371045
C16	C	1.168650	-0.014486	0.405460
C17	C	1.175791	0.036142	0.318541
C18	C	1.182964	-0.025162	0.197202
C19	C	1.182988	-0.137093	0.162783
C20	C	1.190098	0.025454	0.110279
C21	C	1.197271	-0.035850	-0.011060
C22	C	1.197295	-0.147770	-0.045473
C23	C	1.190153	-0.198398	0.041445
C24	C	1.190074	0.137386	0.144698
C25	C	1.204380	0.126698	-0.063564
C26	C	1.204412	0.014778	-0.097979
C27	C	0.521216	0.692837	0.212969
C28	C	0.626165	0.726077	0.223184
C29	C	0.692297	0.649004	0.199495
C30	C	0.653470	0.538685	0.165590
C31	C	0.548511	0.505440	0.155365
C32	C	0.719592	0.461608	0.141891
C33	C	0.680765	0.351288	0.107986
C34	C	0.575816	0.318049	0.097764
C35	C	0.509684	0.395123	0.121452
C36	C	0.824551	0.494852	0.152116
C37	C	0.851846	0.307455	0.094512
C38	C	0.746897	0.274215	0.084297
C39	C	1.370687	0.547144	0.168189
C40	C	1.482389	0.582519	0.179056
C41	C	1.175871	0.693169	0.213086
C42	C	1.175847	0.812290	0.249707
N43	N	1.166103	0.515432	0.451353
N44	N	1.206966	0.484854	-0.143864
C45	C	1.288984	0.423398	0.659706
C46	C	1.280752	0.429575	0.779947
C47	C	1.141405	0.533957	0.812076
C48	C	1.149636	0.527780	0.691835
C49	C	1.223429	0.472500	0.615654
C50	C	1.231665	0.466330	0.495413
C51	C	1.092313	0.570705	0.527543
C52	C	1.084082	0.576882	0.647784
H53	H	1.184225	0.187287	0.243493
H54	H	1.038937	0.610691	0.491664
H55	H	0.715269	0.184390	0.056681
H56	H	0.777751	0.676075	0.207812
H57	H	1.023998	0.621887	0.709823
H58	H	1.190184	-0.289531	0.013431
H59	H	1.081318	0.578956	0.874115
H60	H	0.467364	0.755577	0.232243
H61	H	0.657771	0.815899	0.250781
H62	H	1.210188	0.167917	-0.134341
H63	H	0.905691	0.244695	0.075217
H64	H	1.210251	-0.035151	-0.196775
H65	H	1.175764	0.127272	0.346570
H66	H	1.203126	-0.197682	-0.144276
H67	H	0.424224	0.368063	0.113137
H68	H	0.544207	0.228220	0.070143
H69	H	1.291753	0.421321	0.433387
H70	H	1.162820	0.035421	0.504255
H71	H	1.162860	-0.167638	0.441800
H72	H	0.856153	0.584675	0.179727
H73	H	1.349075	0.378396	0.597680
H74	H	1.334132	0.389590	0.815808
