data_functionalizedCrystal
_audit_creation_method	'MofGen! by Chris Wilmer'
_symmetry_space_group_name_H-M	'P1'
_symmetry_Int_Tables_number	1
_symmetry_cell_setting	triclinic
loop_
_symmetry_equiv_pos_as_xyz
  x,y,z
_cell_length_a	12.996460
_cell_length_b	14.519709
_cell_length_c	14.519709
_cell_angle_alpha	83.680145
_cell_angle_beta	89.998766
_cell_angle_gamma	89.999398
loop_
_atom_site_label
_atom_site_type_symbol
_atom_site_fract_x
_atom_site_fract_y
_atom_site_fract_z
O1	O	0.085435	-1.223870	-0.120885
O2	O	0.335435	-0.973870	0.129115
O3	O	0.585435	-0.723870	0.379115
O4	O	0.835435	-0.473870	0.629115
O5	O	0.085467	-0.955394	-0.135121
O6	O	0.335467	-0.705394	0.114879
O7	O	0.585467	-0.455394	0.364879
O8	O	0.835467	-0.205394	0.614879
O9	O	0.085441	-1.096750	0.006235
O10	O	0.335441	-0.846750	0.256235
O11	O	0.585441	-0.596750	0.506235
O12	O	0.835441	-0.346750	0.756235
O13	O	0.085461	-1.082514	-0.262242
O14	O	0.335461	-0.832514	-0.012242
O15	O	0.585461	-0.582514	0.237758
O16	O	0.835461	-0.332514	0.487758
O17	O	-0.085693	-1.096732	0.006227
O18	O	0.164307	-0.846732	0.256227
O19	O	0.414307	-0.596732	0.506227
O20	O	0.664307	-0.346732	0.756227
O21	O	-0.085667	-0.955375	-0.135130
O22	O	0.164333	-0.705375	0.114870
O23	O	0.414333	-0.455375	0.364870
O24	O	0.664333	-0.205375	0.614870
O25	O	-0.085699	-1.223852	-0.120893
O26	O	0.164301	-0.973852	0.129107
O27	O	0.414301	-0.723852	0.379107
O28	O	0.664301	-0.473852	0.629107
Cu29	Cu	-0.101309	-1.089612	-0.128012
Cu30	Cu	0.148691	-0.839612	0.121988
Cu31	Cu	0.398691	-0.589612	0.371988
Cu32	Cu	0.648691	-0.339612	0.621988
Cu33	Cu	0.101077	-1.089634	-0.128002
Cu34	Cu	0.351077	-0.839634	0.121998
Cu35	Cu	0.601077	-0.589634	0.371998
Cu36	Cu	0.851077	-0.339634	0.621998
O37	O	-0.085673	-1.082496	-0.262250
O38	O	0.164327	-0.832496	-0.012250
O39	O	0.414327	-0.582496	0.237750
O40	O	0.664327	-0.332496	0.487750
C41	C	-0.000096	-0.921025	-0.134462
C42	C	0.249904	-0.671025	0.115538
C43	C	0.499904	-0.421025	0.365538
C44	C	0.749904	-0.171025	0.615538
C45	C	-0.000084	-0.818643	-0.132474
C46	C	0.249916	-0.568643	0.117526
C47	C	0.499916	-0.318643	0.367526
C48	C	0.749916	-0.068643	0.617526
N49	N	-0.243656	-1.089604	-0.128018
N50	N	0.006344	-0.839604	0.121982
N51	N	0.256344	-0.589604	0.371982
N52	N	0.506344	-0.339604	0.621982
C53	C	-0.336762	-1.089608	-0.128021
C54	C	-0.086762	-0.839608	0.121979
C55	C	0.163238	-0.589608	0.371979
C56	C	0.413238	-0.339608	0.621979
C57	C	-0.453567	-1.089616	-0.128015
C58	C	-0.203567	-0.839616	0.121985
C59	C	0.046433	-0.589616	0.371985
C60	C	0.296433	-0.339616	0.621985
C61	C	-0.546665	-1.089628	-0.128004
C62	C	-0.296665	-0.839628	0.121996
C63	C	-0.046665	-0.589628	0.371996
C64	C	0.203335	-0.339628	0.621996
C65	C	-0.663478	-1.089638	-0.127999
C66	C	-0.413478	-0.839638	0.122001
C67	C	-0.163478	-0.589638	0.372001
C68	C	0.086522	-0.339638	0.622001
C69	C	-0.000126	-1.096078	0.040591
C70	C	0.249874	-0.846078	0.290591
C71	C	0.499874	-0.596078	0.540591
C72	C	0.749874	-0.346078	0.790591
C73	C	-0.000126	-1.094090	0.142972
C74	C	0.249874	-0.844090	0.392972
C75	C	0.499874	-0.594090	0.642972
C76	C	0.749874	-0.344090	0.892972
N77	N	0.243424	-1.089649	-0.127989
N78	N	0.493424	-0.839649	0.122011
N79	N	0.743424	-0.589649	0.372011
N80	N	0.993424	-0.339649	0.622011
C81	C	-0.000134	-1.258221	-0.121553
C82	C	0.249866	-1.008221	0.128447
C83	C	0.499866	-0.758221	0.378447
C84	C	0.749866	-0.508221	0.628447
C85	C	-0.000139	-1.360602	-0.123541
C86	C	0.249861	-1.110602	0.126459
C87	C	0.499861	-0.860602	0.376459
C88	C	0.749861	-0.610602	0.626459
C89	C	-0.000132	-0.443748	-0.125154
C90	C	0.249868	-0.193748	0.124846
C91	C	0.499868	0.056252	0.374846
C92	C	0.749868	0.306252	0.624846
C93	C	-0.000118	-0.548056	-0.127187
C94	C	0.249882	-0.298056	0.122813
C95	C	0.499882	-0.048056	0.372813
C96	C	0.749882	0.201944	0.622813
C97	C	-0.000107	-0.631192	-0.128814
C98	C	0.249893	-0.381192	0.121186
C99	C	0.499893	-0.131192	0.371186
C100	C	0.749893	0.118808	0.621186
C101	C	-0.000095	-0.735507	-0.130847
C102	C	0.249905	-0.485507	0.119153
C103	C	0.499905	-0.235507	0.369153
C104	C	0.749905	0.014493	0.619153
C105	C	-0.000103	-1.083168	-0.296606
C106	C	0.249897	-0.833168	-0.046606
C107	C	0.499897	-0.583168	0.203394
C108	C	0.749897	-0.333168	0.453394
C109	C	-0.000096	-1.085156	-0.398987
C110	C	0.249904	-0.835156	-0.148987
C111	C	0.499904	-0.585156	0.101013
C112	C	0.749904	-0.335156	0.351013
C113	C	-0.000099	-1.086770	0.517868
C114	C	0.249901	-0.836770	0.767868
C115	C	0.499901	-0.586770	1.017868
C116	C	0.749901	-0.336770	1.267868
C117	C	-0.000107	-1.088803	0.413560
C118	C	0.249893	-0.838803	0.663560
C119	C	0.499893	-0.588803	0.913560
C120	C	0.749893	-0.338803	1.163560
C121	C	-0.000114	-1.090430	0.330423
C122	C	0.249886	-0.840430	0.580423
C123	C	0.499886	-0.590430	0.830423
C124	C	0.749886	-0.340430	1.080423
C125	C	-0.000120	-1.092463	0.226109
C126	C	0.249880	-0.842463	0.476109
C127	C	0.499880	-0.592463	0.726109
C128	C	0.749880	-0.342463	0.976109
