data_functionalizedCrystal
_audit_creation_method	'MofGen! by Chris Wilmer'
_symmetry_space_group_name_H-M	'P1'
_symmetry_Int_Tables_number	1
_symmetry_cell_setting	triclinic
loop_
_symmetry_equiv_pos_as_xyz
  x,y,z
_cell_length_a	12.784890
_cell_length_b	19.188940
_cell_length_c	11.295483
_cell_angle_alpha	94.080861
_cell_angle_beta	86.328828
_cell_angle_gamma	78.127636
loop_
_atom_site_label
_atom_site_type_symbol
_atom_site_fract_x
_atom_site_fract_y
_atom_site_fract_z
O1	O	1.417479	-0.000767	-0.098988
O2	O	1.917479	0.499233	0.401012
O3	O	1.107886	0.029143	-0.098999
O4	O	1.607886	0.529143	0.401001
O5	O	1.271611	-0.087991	-0.098984
O6	O	1.771611	0.412009	0.401016
O7	O	1.253754	0.116367	-0.099003
O8	O	1.753754	0.616367	0.400997
O9	O	1.257231	-0.077717	0.099065
O10	O	1.757231	0.422283	0.599065
O11	O	1.093506	0.039416	0.099051
O12	O	1.593506	0.539416	0.599051
O13	O	1.403099	0.009507	0.099061
O14	O	1.903099	0.509507	0.599061
Cu15	Cu	1.246989	0.025400	0.117139
Cu16	Cu	1.746989	0.525400	0.617139
Cu17	Cu	1.263996	0.013250	-0.117077
Cu18	Cu	1.763996	0.513250	0.382923
O19	O	1.239374	0.126640	0.099046
O20	O	1.739374	0.626640	0.599046
C21	C	1.061088	0.036225	0.000024
C22	C	1.561088	0.536225	0.500024
C23	C	0.943068	0.042013	0.000021
C24	C	1.443068	0.542013	0.500021
C25	C	0.763758	0.114555	0.000012
C26	C	1.263758	0.614555	0.500012
C27	C	0.874648	0.109121	0.000013
C28	C	1.374648	0.609121	0.500013
C29	C	0.900590	-0.019666	0.000024
C30	C	1.400590	0.480334	0.500024
C31	C	0.789700	-0.014232	0.000024
C32	C	1.289700	0.485768	0.500024
C33	C	0.721288	0.052881	0.000020
C34	C	1.221288	0.552881	0.500020
C35	C	0.610395	0.058315	0.000028
C36	C	1.110395	0.558315	0.500028
C37	C	0.636340	-0.070472	0.000031
C38	C	1.136340	0.429528	0.500031
C39	C	0.747230	-0.075906	0.000031
C40	C	1.247230	0.424094	0.500031
C41	C	1.263841	-0.108831	0.000040
C42	C	1.763841	0.391169	0.500040
C43	C	1.262100	-0.186233	0.000040
C44	C	1.762100	0.313767	0.500040
C45	C	1.241876	-0.733166	0.107968
C46	C	1.741876	-0.233166	0.607968
C47	C	1.243500	-0.660437	0.107975
C48	C	1.743500	-0.160437	0.607975
C49	C	1.252156	-0.629665	0.000019
C50	C	1.752156	-0.129665	0.500019
C51	C	1.259161	-0.671626	-0.107951
C52	C	1.759161	-0.171626	0.392049
C53	C	1.257526	-0.744352	-0.107954
C54	C	1.757526	-0.244352	0.392046
N55	N	1.321057	-0.528512	-0.080332
N56	N	1.821057	-0.028512	0.419668
N57	N	1.322611	-0.459425	-0.080321
N58	N	1.822611	0.040575	0.419679
C59	C	1.257079	-0.410545	0.000024
C60	C	1.757079	0.089455	0.500024
N61	N	1.189946	-0.433363	0.080375
N62	N	1.689946	0.066637	0.580375
N63	N	1.188396	-0.502457	0.080368
N64	N	1.688396	-0.002457	0.580368
C65	C	1.253929	-0.550806	0.000011
C66	C	1.753929	-0.050806	0.500011
C67	C	1.251828	-0.289731	0.107994
C68	C	1.751828	0.210269	0.607994
C69	C	1.253446	-0.217000	0.107996
C70	C	1.753446	0.283000	0.607996
C71	C	1.269117	-0.228192	-0.107932
C72	C	1.769117	0.271808	0.392068
C73	C	1.267489	-0.300920	-0.107931
C74	C	1.767489	0.199080	0.392069
C75	C	1.258849	-0.331686	0.000035
C76	C	1.758849	0.168314	0.500035
C77	C	1.449897	0.002424	0.000035
C78	C	1.949897	0.502424	0.500035
C79	C	1.567918	-0.003364	0.000031
C80	C	2.067918	0.496636	0.500031
C81	C	1.247144	0.147480	0.000019
C82	C	1.747144	0.647480	0.500019
C83	C	1.248886	0.224882	0.000012
C84	C	1.748886	0.724882	0.500012
N85	N	1.235036	0.033944	0.281875
N86	N	1.735036	0.533944	0.781875
N87	N	1.275958	0.004699	-0.281812
N88	N	1.775958	0.504699	0.218188
C89	C	1.362006	-0.056848	0.531176
C90	C	1.862006	0.443152	1.031176
C91	C	1.352980	-0.050387	0.655838
C92	C	1.852980	0.449613	1.155838
C93	C	1.207954	0.053326	0.655865
C94	C	1.707954	0.553326	1.155865
C95	C	1.216980	0.046864	0.531203
C96	C	1.716980	0.546864	1.031203
C97	C	1.294009	-0.008224	0.468862
C98	C	1.794009	0.491776	0.968862
C99	C	1.303040	-0.014682	0.344197
C100	C	1.803040	0.485318	0.844197
C101	C	1.158009	0.089027	0.344226
C102	C	1.658009	0.589027	0.844226
C103	C	1.148983	0.095488	0.468889
C104	C	1.648983	0.595488	0.968889
H105	H	0.956311	-0.074306	0.000019
H106	H	1.456311	0.425694	0.500019
H107	H	1.273204	-0.335079	-0.195841
H108	H	1.773204	0.164921	0.304159
O109	O	1.235949	-0.615182	0.224422
O110	O	1.735949	-0.115182	0.724422
H111	H	1.238535	-0.559442	0.206283
H112	H	1.738535	-0.059442	0.706283
O113	O	1.268496	-0.638437	-0.224387
O114	O	1.768496	-0.138437	0.275613
H115	H	1.199483	-0.644450	-0.276146
H116	H	1.699483	-0.144450	0.223854
H117	H	1.263233	-0.778509	-0.195868
H118	H	1.763233	-0.278509	0.304132
O119	O	1.084655	0.141474	0.277020
O120	O	1.584655	0.641474	0.777020
H121	H	1.103864	0.127725	0.179860
H122	H	1.603864	0.627725	0.679860
O123	O	1.124877	0.112739	0.723112
O124	O	1.624877	0.612739	1.223112
H125	H	1.130031	0.109062	0.820266
H126	H	1.630031	0.609062	1.320266
O127	O	0.821017	-0.148288	0.000051
O128	O	1.321017	0.351712	0.500051
H129	H	0.905261	-0.141707	0.000061
H130	H	1.405261	0.358293	0.500061
O131	O	0.590537	-0.136999	0.000034
O132	O	1.090537	0.363001	0.500034
H133	H	0.501935	-0.121949	0.000027
H134	H	1.001935	0.378051	0.500027
H135	H	1.244784	-0.314781	0.195907
H136	H	1.744784	0.185219	0.695907
O137	O	1.232543	-0.766344	0.224417
O138	O	1.732543	-0.266344	0.724417
H139	H	1.303874	-0.809828	0.229587
H140	H	1.803874	-0.309828	0.729587
H141	H	1.365763	-0.059536	0.293440
H142	H	1.865763	0.440464	0.793440
O143	O	1.445082	-0.116260	0.463924
O144	O	1.945082	0.383740	0.963924
H145	H	1.490847	-0.148989	0.528199
H146	H	1.990847	0.351011	1.028199
O147	O	1.245896	-0.171747	0.224439
O148	O	1.745896	0.328253	0.724439
H149	H	1.239628	-0.205365	0.299509
H150	H	1.739628	0.294635	0.799509
O151	O	1.065917	0.154907	0.536138
O152	O	1.565917	0.654907	1.036138
H153	H	1.020151	0.187633	0.471860
H154	H	1.520151	0.687633	0.971860
O155	O	0.689970	0.186939	0.000019
O156	O	1.189970	0.686939	0.500019
H157	H	0.632979	0.196679	0.080749
H158	H	1.132979	0.696679	0.580749
H159	H	1.408348	-0.089982	0.706571
H160	H	1.908348	0.410018	1.206571
O161	O	1.278454	-0.195015	-0.224376
O162	O	1.778454	0.304985	0.275624
H163	H	1.278419	-0.137396	-0.206239
H164	H	1.778419	0.362604	0.293761
H165	H	0.909222	0.159342	0.000009
H166	H	1.409222	0.659342	0.500009
O167	O	0.536601	0.130696	0.000018
O168	O	1.036601	0.630696	0.500018
H169	H	0.584769	0.172667	-0.000001
H170	H	1.084769	0.672667	0.499999
