data_functionalizedCrystal
_audit_creation_method	'MofGen! by Chris Wilmer'
_symmetry_space_group_name_H-M	'P1'
_symmetry_Int_Tables_number	1
_symmetry_cell_setting	triclinic
loop_
_symmetry_equiv_pos_as_xyz
  x,y,z
_cell_length_a	12.759401
_cell_length_b	21.295417
_cell_length_c	12.759393
_cell_angle_alpha	89.963587
_cell_angle_beta	89.980804
_cell_angle_gamma	90.030129
loop_
_atom_site_label
_atom_site_type_symbol
_atom_site_fract_x
_atom_site_fract_y
_atom_site_fract_z
Zn1	Zn	1.606152	-0.250576	-0.593937
Zn2	Zn	2.106152	0.249424	-0.093937
Zn3	Zn	1.605998	-0.355856	-0.418237
Zn4	Zn	2.105998	0.144144	0.081763
Zn5	Zn	1.430452	-0.250606	-0.418276
Zn6	Zn	1.930452	0.249394	0.081724
Zn7	Zn	1.430396	-0.355812	-0.593878
Zn8	Zn	1.930396	0.144188	-0.093878
O9	O	1.518250	-0.303212	-0.506082
O10	O	2.018250	0.196788	-0.006082
O11	O	1.753153	-0.264547	-0.570638
O12	O	2.253153	0.235453	-0.070638
O13	O	1.582671	-0.341926	-0.271221
O14	O	2.082671	0.158074	0.228779
O15	O	1.453846	-0.162512	-0.441619
O16	O	1.953846	0.337488	0.058381
O17	O	1.753040	-0.341897	-0.441552
O18	O	2.253040	0.158103	0.058448
O19	O	1.582932	-0.162490	-0.570676
O20	O	2.082932	0.337510	-0.070676
O21	O	1.453698	-0.264599	-0.271250
O22	O	1.953698	0.235401	0.228750
O23	O	1.283424	-0.264556	-0.441562
O24	O	1.783424	0.235444	0.058438
O25	O	1.453752	-0.341820	-0.740907
O26	O	1.953752	0.158180	-0.240907
O27	O	1.283383	-0.341850	-0.570576
O28	O	1.783383	0.158150	-0.070576
O29	O	1.582878	-0.264504	-0.740950
O30	O	2.082878	0.235496	-0.240950
O31	O	1.582617	-0.443940	-0.441495
O32	O	2.082617	0.056060	0.058505
O33	O	1.453603	-0.443907	-0.570538
O34	O	1.953603	0.056093	-0.070538
C35	C	1.245282	-0.303202	-0.506067
C36	C	1.745282	0.196798	-0.006067
C37	C	1.128506	-0.303212	-0.506086
C38	C	1.628506	0.196788	-0.006086
C39	C	1.073703	-0.263009	-0.573404
C40	C	1.573703	0.236991	-0.073404
C41	C	0.963979	-0.263015	-0.573411
C42	C	1.463979	0.236985	-0.073411
C43	C	0.963870	-0.343433	-0.438778
C44	C	1.463870	0.156567	0.061222
C45	C	1.073592	-0.343423	-0.438766
C46	C	1.573592	0.156577	0.061234
C47	C	1.518116	-0.466764	-0.506029
C48	C	2.018116	0.033236	-0.006029
C49	C	1.518155	-0.536732	-0.506041
C50	C	2.018155	-0.036732	-0.006041
C51	C	1.585331	-0.569530	-0.573289
C52	C	2.085331	-0.069530	-0.073289
C53	C	1.585368	-0.635272	-0.573315
C54	C	2.085368	-0.135272	-0.073315
C55	C	1.518240	-0.668215	-0.506074
C56	C	2.018240	-0.168215	-0.006074
C57	C	1.451050	-0.635409	-0.438821
C58	C	1.951050	-0.135409	0.061179
C59	C	1.451008	-0.569668	-0.438805
C60	C	1.951008	-0.069668	0.061195
N61	N	1.510300	-0.771482	-0.414128
N62	N	2.010300	-0.271482	0.085872
N63	N	1.510347	-0.833934	-0.414146
N64	N	2.010347	-0.333934	0.085854
C65	C	1.518363	-0.866289	-0.506122
C66	C	2.018363	-0.366289	-0.006122
N67	N	1.526351	-0.833834	-0.598079
N68	N	2.026351	-0.333834	-0.098079
N69	N	1.526310	-0.771377	-0.598059
N70	N	2.026310	-0.271377	-0.098059
C71	C	1.518278	-0.739500	-0.506085
C72	C	2.018278	-0.239500	-0.006085
C73	C	1.585583	-0.970373	-0.573404
C74	C	2.085583	-0.470373	-0.073404
C75	C	1.585613	-1.036116	-0.573431
C76	C	2.085613	-0.536116	-0.073431
C77	C	1.451300	-1.036251	-0.438928
C78	C	1.951300	-0.536251	0.061072
C79	C	1.451265	-0.970509	-0.438910
C80	C	1.951265	-0.470509	0.061090
C81	C	1.518412	-0.937574	-0.506146
C82	C	2.018412	-0.437574	-0.006146
C83	C	1.792283	-0.303224	-0.506097
C84	C	2.292283	0.196776	-0.006097
C85	C	1.909060	-0.303229	-0.506104
C86	C	2.409060	0.196771	-0.006104
C87	C	1.518326	-0.303154	-0.780115
C88	C	2.018326	0.196846	-0.280115
C89	C	1.518359	-0.303129	-0.896892
C90	C	2.018359	0.196871	-0.396892
C91	C	1.518413	-0.139022	-0.506158
C92	C	2.018413	0.360978	-0.006158
C93	C	1.518482	-0.069054	-0.506191
C94	C	2.018482	0.430946	-0.006191
C95	C	1.585543	-0.343346	-1.061475
C96	C	2.085543	0.156654	-0.561475
C97	C	1.585517	-0.343376	-0.951751
C98	C	2.085517	0.156624	-0.451751
C99	C	1.451214	-0.262854	-0.951764
C100	C	1.951214	0.237146	-0.451764
C101	C	1.451235	-0.262828	-1.061486
C102	C	1.951235	0.237172	-0.561486
C103	C	1.518234	-0.303225	-0.233115
C104	C	2.018234	0.196775	0.266885
C105	C	1.518405	-0.303073	-0.116338
C106	C	2.018405	0.196927	0.383662
H107	H	1.118213	-0.376162	-0.383942
H108	H	1.618213	0.123838	0.116058
N109	N	0.907791	-0.384518	-0.370024
N110	N	1.407791	0.115482	0.129976
N111	N	0.956739	-0.420412	-0.309923
N112	N	1.456739	0.079588	0.190077
H113	H	0.917136	-0.449431	-0.261365
H114	H	1.417136	0.050569	0.238635
H115	H	1.640187	-0.376171	-0.907085
H116	H	2.140187	0.123829	-0.407085
H117	H	1.396303	-0.542963	-0.384042
H118	H	1.896303	-0.042963	0.115958
H119	H	1.640236	-0.376117	-1.106133
H120	H	2.140236	0.123883	-0.606133
N121	N	0.907983	-0.221951	-0.642165
N122	N	1.407983	0.278049	-0.142165
N123	N	0.846768	-0.181815	-0.605331
N124	N	1.346768	0.318185	-0.105331
H125	H	0.807218	-0.152811	-0.653889
H126	H	1.307218	0.347189	-0.153889
N127	N	1.382632	-0.937007	-0.370223
N128	N	1.882632	-0.437007	0.129777
N129	N	1.285689	-0.944405	-0.377118
N130	N	1.785689	-0.444405	0.122882
H131	H	1.237207	-0.920746	-0.328608
H132	H	1.737207	-0.420746	0.171392
N133	N	1.382610	-0.221751	-0.895714
N134	N	1.882610	0.278249	-0.395714
N135	N	1.382599	-0.221779	-0.797749
N136	N	1.882599	0.278221	-0.297749
H137	H	1.334147	-0.192748	-0.758164
H138	H	1.834147	0.307252	-0.258164
H139	H	1.396558	-0.230031	-1.106157
H140	H	1.896558	0.269969	-0.606157
H141	H	1.118411	-0.230264	-0.628217
H142	H	1.618411	0.269736	-0.128217
N143	N	1.654174	-0.936735	-0.642087
N144	N	2.154174	-0.436735	-0.142087
N145	N	1.714144	-0.966030	-0.702134
N146	N	2.214144	-0.466030	-0.202134
H147	H	1.762589	-0.942276	-0.750643
H148	H	2.262589	-0.442276	-0.250643
N149	N	1.653924	-0.535898	-0.641974
N150	N	2.153924	-0.035898	-0.141974
N151	N	1.713899	-0.565195	-0.702015
N152	N	2.213899	-0.065195	-0.202015
H153	H	1.762343	-0.541442	-0.750526
H154	H	2.262343	-0.041442	-0.250526
H155	H	1.640316	-1.062819	-0.628198
H156	H	2.140316	-0.562819	-0.128198
N157	N	1.653996	-0.668774	-0.642018
N158	N	2.153996	-0.168774	-0.142018
N159	N	1.713940	-0.639360	-0.702045
N160	N	2.213940	-0.139360	-0.202045
H161	H	1.762410	-0.663019	-0.750566
H162	H	2.262410	-0.163019	-0.250566
H163	H	1.396391	-0.662234	-0.384076
H164	H	1.896391	-0.162234	0.115924
H165	H	1.396636	-1.063072	-0.384186
H166	H	1.896636	-0.563072	0.115814
