data_functionalizedCrystal
_audit_creation_method	'MofGen! by Chris Wilmer'
_symmetry_space_group_name_H-M	'P1'
_symmetry_Int_Tables_number	1
_symmetry_cell_setting	triclinic
loop_
_symmetry_equiv_pos_as_xyz
  x,y,z
_cell_length_a	13.032831
_cell_length_b	18.050590
_cell_length_c	18.050582
_cell_angle_alpha	89.975956
_cell_angle_beta	82.813639
_cell_angle_gamma	82.822949
loop_
_atom_site_label
_atom_site_type_symbol
_atom_site_fract_x
_atom_site_fract_y
_atom_site_fract_z
Zn1	Zn	1.597626	-0.440124	-0.563836
Zn2	Zn	1.597527	-0.564300	-0.439635
Zn3	Zn	1.422880	-0.424340	-0.423917
Zn4	Zn	1.422839	-0.548476	-0.548046
O5	O	1.510218	-0.494310	-0.493859
O6	O	1.743852	-0.469824	-0.560546
O7	O	1.574335	-0.545750	-0.333623
O8	O	1.446119	-0.322515	-0.442508
O9	O	1.743779	-0.561055	-0.469296
O10	O	1.574504	-0.334111	-0.545305
O11	O	1.446023	-0.442923	-0.322075
O12	O	1.276635	-0.427579	-0.427197
O13	O	1.446049	-0.534086	-0.654068
O14	O	1.276605	-0.518781	-0.518394
O15	O	1.574464	-0.454480	-0.665668
O16	O	1.574296	-0.666120	-0.453986
O17	O	1.445953	-0.654494	-0.533635
C18	C	1.238702	-0.469751	-0.469377
C19	C	1.122546	-0.459263	-0.458922
C20	C	1.070773	-0.499784	-0.499315
C21	C	0.950720	-0.488945	-0.488510
C22	C	1.510137	-0.687255	-0.493822
C23	C	1.510199	-0.769806	-0.493839
C24	C	1.580137	-0.975565	-0.450608
C25	C	1.605658	-1.027210	-0.520688
C26	C	1.510258	-0.920942	-0.493874
C27	C	1.484843	-1.016388	-0.423835
C28	C	1.510317	-1.066932	-0.493902
C29	C	1.535828	-0.971504	-0.563994
C30	C	1.414969	-0.960674	-0.467091
C31	C	1.440454	-1.012293	-0.537214
C32	C	1.510227	-0.836841	-0.493858
C33	C	1.510349	-1.151032	-0.493927
C34	C	1.782794	-0.518965	-0.518436
C35	C	1.898950	-0.529472	-0.528909
C36	C	1.510263	-0.494279	-0.687568
C37	C	1.510282	-0.494265	-0.770116
C38	C	1.510327	-0.300614	-0.493914
C39	C	1.510373	-0.218073	-0.493938
C40	C	1.440515	-0.537480	-1.012639
C41	C	1.414973	-0.467434	-0.960951
C42	C	1.510371	-0.494164	-1.067244
C43	C	1.535820	-0.564252	-0.971842
C44	C	1.510325	-0.494217	-0.921255
C45	C	1.484779	-0.424077	-1.016639
C46	C	1.605671	-0.520945	-1.027539
C47	C	1.580164	-0.450855	-0.975876
C48	C	1.510394	-0.494134	-1.151345
C49	C	1.510301	-0.494239	-0.837156
C50	C	1.510233	-0.494293	-0.300908
C51	C	1.510416	-0.494115	-0.218379
H52	H	1.077992	-0.416543	-0.416343
H53	H	0.906170	-0.446222	-0.445928
O54	O	1.362254	-0.585916	-1.034284
H55	H	1.363484	-0.585896	-1.095880
O56	O	1.658429	-0.953924	-0.402201
H57	H	1.737492	-0.980813	-0.424622
O58	O	1.712428	-1.065550	-0.550724
H59	H	1.770273	-1.051017	-0.514709
H60	H	1.557268	-0.951794	-0.623279
H61	H	1.115327	-0.542498	-0.541900
O62	O	1.362205	-1.033751	-0.585751
H63	H	1.383571	-1.015750	-0.643844
H64	H	1.463143	-0.364802	-1.036296
O65	O	1.658389	-0.402302	-0.954401
H66	H	1.718026	-0.436663	-0.925936
O67	O	1.456210	-1.042466	-0.345325
H68	H	1.384132	-1.069757	-0.342751
H69	H	1.334384	-0.931717	-0.444404
O70	O	1.564363	-0.642733	-0.945667
H71	H	1.642936	-0.665241	-0.973379
O72	O	1.308196	-0.437471	-0.922566
H73	H	1.254816	-0.423025	-0.965177
O74	O	0.957944	-0.586058	-0.585324
H75	H	1.042981	-0.585695	-0.584958
O76	O	1.712399	-0.550955	-1.065961
H77	H	1.733362	-0.609152	-1.048114
