data_functionalizedCrystal
_audit_creation_method	'MofGen! by Chris Wilmer'
_symmetry_space_group_name_H-M	'P1'
_symmetry_Int_Tables_number	1
_symmetry_cell_setting	triclinic
loop_
_symmetry_equiv_pos_as_xyz
  x,y,z
_cell_length_a	10.685976
_cell_length_b	16.625546
_cell_length_c	10.685986
_cell_angle_alpha	85.585629
_cell_angle_beta	98.366972
_cell_angle_gamma	85.659501
loop_
_atom_site_label
_atom_site_type_symbol
_atom_site_fract_x
_atom_site_fract_y
_atom_site_fract_z
Zn1	Zn	1.885443	-0.385319	-0.568496
Zn2	Zn	2.385443	0.114681	-0.068496
Zn3	Zn	1.901546	-0.531374	-0.356239
Zn4	Zn	2.401546	-0.031374	0.143761
Zn5	Zn	1.689443	-0.385381	-0.372577
Zn6	Zn	2.189443	0.114619	0.127423
Zn7	Zn	1.673148	-0.508929	-0.584745
Zn8	Zn	2.173148	-0.008929	-0.084745
O9	O	1.787395	-0.452751	-0.470514
O10	O	2.287395	0.047249	0.029486
O11	O	2.065191	-0.414061	-0.526702
O12	O	2.565191	0.085939	-0.026702
O13	O	1.886969	-0.521427	-0.180783
O14	O	2.386969	-0.021427	0.319217
O15	O	1.715523	-0.272542	-0.398603
O16	O	2.215523	0.227458	0.101397
O17	O	2.077022	-0.521367	-0.370758
O18	O	2.577022	-0.021367	0.129242
O19	O	1.859523	-0.272497	-0.542544
O20	O	2.359523	0.227503	-0.042544
O21	O	1.731138	-0.414166	-0.192786
O22	O	2.231138	0.085834	0.307214
O23	O	1.509670	-0.392402	-0.414359
O24	O	2.009670	0.107598	0.085641
O25	O	1.687751	-0.483113	-0.760213
O26	O	2.187751	0.016887	-0.260213
O27	O	1.497698	-0.483173	-0.570238
O28	O	1.997698	0.016827	-0.070238
O29	O	1.843723	-0.392297	-0.748275
O30	O	2.343723	0.107703	-0.248275
O31	O	1.871169	-0.641227	-0.386514
O32	O	2.371169	-0.141227	0.113486
O33	O	1.703366	-0.624737	-0.554396
O34	O	2.203366	-0.124737	-0.054396
C35	C	1.457631	-0.435359	-0.495835
C36	C	1.957631	0.064641	0.004165
C37	C	1.316554	-0.427937	-0.506698
C38	C	1.816554	0.072063	-0.006698
C39	C	1.787279	-0.662238	-0.470470
C40	C	2.287279	-0.162238	0.029530
C41	C	1.787342	-0.751862	-0.470485
C42	C	2.287342	-0.251862	0.029515
C43	C	1.787554	-1.080042	-0.470600
C44	C	2.287554	-0.580042	0.029400
C45	C	1.787490	-0.988732	-0.470572
C46	C	2.287490	-0.488732	0.029428
C47	C	1.787447	-0.915955	-0.470542
C48	C	2.287447	-0.415955	0.029458
C49	C	1.787386	-0.824639	-0.470515
C50	C	2.287386	-0.324639	0.029485
C51	C	2.118447	-0.470211	-0.445095
C52	C	2.618447	0.029789	0.054905
C53	C	2.259521	-0.477651	-0.434263
C54	C	2.759521	0.022349	0.065737
C55	C	1.762123	-0.435194	-0.801587
C56	C	2.262123	0.064806	-0.301587
C57	C	1.751353	-0.427713	-0.942671
C58	C	2.251353	0.072287	-0.442671
C59	C	1.787544	-0.242446	-0.470584
C60	C	2.287544	0.257554	0.029416
C61	C	1.787608	-0.152826	-0.470613
C62	C	2.287608	0.347174	0.029387
C63	C	1.812642	-0.470185	-0.140724
C64	C	2.312642	0.029815	0.359276
C65	C	1.823657	-0.477452	0.000378
C66	C	2.323657	0.022548	0.500378
H67	H	1.681213	-0.379403	-1.001853
H68	H	2.181213	0.120597	-0.501853
N69	N	1.238281	-0.364035	-0.599868
N70	N	1.738281	0.135965	-0.099868
H71	H	1.145215	-0.367611	-0.594688
H72	H	1.645215	0.132389	-0.094688
H73	H	1.262898	-0.308671	-0.578514
H74	H	1.762898	0.191329	-0.078514
N75	N	1.337800	-0.541564	-0.341101
N76	N	1.837800	-0.041564	0.158899
H77	H	1.430866	-0.537990	-0.346280
H78	H	1.930866	-0.037990	0.153720
H79	H	1.321594	-0.532526	-0.252245
H80	H	1.821594	-0.032526	0.247755
H81	H	1.893803	-0.525753	-0.940446
H82	H	2.393803	-0.025753	-0.440446
