data_functionalizedCrystal
_audit_creation_method	'MofGen! by Chris Wilmer'
_symmetry_space_group_name_H-M	'P1'
_symmetry_Int_Tables_number	1
_symmetry_cell_setting	triclinic
loop_
_symmetry_equiv_pos_as_xyz
  x,y,z
_cell_length_a	19.121102
_cell_length_b	18.050589
_cell_length_c	18.050583
_cell_angle_alpha	90.031910
_cell_angle_beta	87.544925
_cell_angle_gamma	92.417299
loop_
_atom_site_label
_atom_site_type_symbol
_atom_site_fract_x
_atom_site_fract_y
_atom_site_fract_z
Zn1	Zn	1.073680	0.344109	-0.468311
Zn2	Zn	1.573680	0.844109	0.031689
Zn3	Zn	1.073594	0.468318	-0.344126
Zn4	Zn	1.573594	0.968318	0.155874
Zn5	Zn	0.956237	0.338845	-0.338843
Zn6	Zn	1.456237	0.838845	0.161157
Zn7	Zn	0.956191	0.462954	-0.462985
Zn8	Zn	1.456191	0.962954	0.037015
O9	O	1.014926	0.403557	-0.403566
O10	O	1.514926	0.903557	0.096434
O11	O	1.171953	0.365034	-0.456277
O12	O	1.671953	0.865034	0.043723
O13	O	1.058009	0.451185	-0.239500
O14	O	1.558009	0.951185	0.260500
O15	O	0.971872	0.235621	-0.356035
O16	O	1.471872	0.735621	0.143965
O17	O	1.171889	0.456289	-0.365039
O18	O	1.671889	0.956289	0.134961
O19	O	1.058157	0.239489	-0.451154
O20	O	1.558157	0.739489	0.048846
O21	O	0.971788	0.356062	-0.235619
O22	O	1.471788	0.856062	0.264381
O23	O	0.857947	0.350860	-0.350871
O24	O	1.357947	0.850860	0.149129
O25	O	0.971792	0.447147	-0.567617
O26	O	1.471792	0.947147	-0.067617
O27	O	0.857913	0.442043	-0.442077
O28	O	1.357913	0.942043	0.057923
O29	O	1.058112	0.359832	-0.571529
O30	O	1.558112	0.859832	-0.071529
O31	O	1.057964	0.571529	-0.359875
O32	O	1.557964	1.071529	0.140125
O33	O	0.971708	0.567588	-0.447200
O34	O	1.471708	1.067588	0.052800
C35	C	0.832446	0.395299	-0.395324
C36	C	1.332446	0.895299	0.104676
C37	C	0.754381	0.391784	-0.391815
C38	C	1.254381	0.891784	0.108185
C39	C	1.014841	0.596505	-0.403550
C40	C	1.514841	1.096505	0.096450
C41	C	1.014869	0.679052	-0.403571
C42	C	1.514869	1.179052	0.096429
C43	C	1.014957	0.403479	-0.597273
C44	C	1.514957	0.903479	-0.097273
C45	C	1.014970	0.403446	-0.679820
C46	C	1.514970	0.903446	-0.179820
C47	C	0.717706	0.437679	-0.437578
C48	C	1.217706	0.937679	0.062422
C49	C	0.644355	0.434366	-0.434285
C50	C	1.144355	0.934366	0.065715
C51	C	0.607680	0.385163	-0.385224
C52	C	1.107680	0.885163	0.114776
C53	C	0.644360	0.339264	-0.339459
C54	C	1.144360	0.839264	0.160541
C55	C	0.717710	0.342573	-0.342757
C56	C	1.217710	0.842573	0.157243
C57	C	0.386212	0.372790	-0.372900
C58	C	0.886212	0.872790	0.127100
C59	C	0.312858	0.369486	-0.369604
C60	C	0.812858	0.869486	0.130396
C61	C	0.312857	0.464588	-0.464432
C62	C	0.812857	0.964588	0.035568
C63	C	0.386208	0.467895	-0.467722
C64	C	0.886208	0.967895	0.032278
C65	C	0.422882	0.421993	-0.421959
C66	C	0.922882	0.921993	0.078041
C67	C	0.532704	0.381778	-0.381855
C68	C	1.032704	0.881778	0.118145
C69	C	0.497857	0.425375	-0.425332
C70	C	0.997857	0.925375	0.074668
C71	C	1.198117	0.411847	-0.411841
C72	C	1.698117	0.911847	0.088159
C73	C	1.276183	0.415380	-0.415368
C74	C	1.776183	0.915380	0.084632
C75	C	1.015030	0.209856	-0.403599
C76	C	1.515030	0.709856	0.096401
C77	C	1.015074	0.127312	-0.403614
C78	C	1.515074	0.627312	0.096386
C79	C	0.968009	0.876389	-0.451043
C80	C	1.468009	1.376389	0.048957
C81	C	0.950892	0.925066	-0.382504
C82	C	1.450892	1.425066	0.117496
C83	C	1.014938	0.830185	-0.403584
C84	C	1.514938	1.330185	0.096416
C85	C	1.032089	0.928592	-0.472131
C86	C	1.532089	1.428592	0.027869
C87	C	1.015003	0.976173	-0.403602
C88	C	1.515003	1.476173	0.096398
C89	C	0.997787	0.877774	-0.335008
C90	C	1.497787	1.377774	0.164992
C91	C	1.079014	0.881297	-0.424682
C92	C	1.579014	1.381297	0.075318
C93	C	1.061921	0.929953	-0.356098
C94	C	1.561921	1.429953	0.143902
C95	C	1.014898	0.746085	-0.403574
C96	C	1.514898	1.246085	0.096426
C97	C	1.015043	1.060272	-0.403604
C98	C	1.515043	1.560272	0.096396
C99	C	1.061957	0.355942	-0.881400
C100	C	1.561957	0.855942	-0.381400
C101	C	0.997900	0.334872	-0.927908
C102	C	1.497900	0.834872	-0.427908
C103	C	1.014998	0.403434	-0.830951
C104	C	1.514998	0.903434	-0.330951
C105	C	1.079081	0.424458	-0.931527
C106	C	1.579081	0.924458	-0.431527
C107	C	1.015031	0.403422	-0.976938
C108	C	1.515031	0.903422	-0.476938
C109	C	0.950907	0.382328	-0.876370
C110	C	1.450907	0.882328	-0.376370
C111	C	1.032131	0.471947	-0.879987
C112	C	1.532131	0.971947	-0.379987
C113	C	0.968030	0.450901	-0.926470
C114	C	1.468030	0.950901	-0.426470
C115	C	1.014980	0.403439	-0.746852
C116	C	1.514980	0.903439	-0.246852
C117	C	1.015042	0.403416	-1.061035
C118	C	1.515042	0.903416	-0.561035
C119	C	1.014935	0.403582	-0.210614
C120	C	1.514935	0.903582	0.289386
C121	C	1.015058	0.403413	-0.128075
C122	C	1.515058	0.903413	0.371925
H123	H	0.614497	0.471739	-0.471550
H124	H	1.114497	0.971739	0.028450
H125	H	0.983419	0.276926	-0.948982
H126	H	1.483419	0.776926	-0.448982
H127	H	0.928286	0.491057	-0.946190
H128	H	1.428286	0.991057	-0.446190
H129	H	0.502836	0.341718	-0.341909
H130	H	1.002836	0.841718	0.158091
N131	N	1.114523	0.960846	-0.302884
N132	N	1.614523	1.460846	0.197116
H133	H	1.151038	0.993252	-0.330846
H134	H	1.651038	1.493252	0.169154
H135	H	1.137938	0.918654	-0.278513
H136	H	1.637938	1.418654	0.221487
N137	N	0.915366	0.845307	-0.504116
N138	N	1.415366	1.345307	-0.004116
H139	H	0.940218	0.815580	-0.543853
H140	H	1.440218	1.315580	-0.043853
H141	H	0.891200	0.887381	-0.527805
H142	H	1.391200	1.387381	-0.027805
H143	H	0.416064	0.507964	-0.507670
H144	H	0.916064	1.007964	-0.007670
H145	H	1.046570	0.950888	-0.530094
H146	H	1.546570	1.450888	-0.030094
N147	N	1.114476	0.302713	-0.855077
N148	N	1.614476	0.802713	-0.355077
H149	H	1.162752	0.318069	-0.875988
H150	H	1.662752	0.818069	-0.375988
H151	H	1.101392	0.250981	-0.872487
H152	H	1.601392	0.750981	-0.372487
N153	N	0.273302	0.316436	-0.316663
N154	N	0.773302	0.816436	0.183337
H155	H	0.221270	0.321319	-0.321508
H156	H	0.721270	0.821319	0.178492
H157	H	0.286115	0.328536	-0.264190
H158	H	0.786115	0.828536	0.235810
H159	H	1.046631	0.529878	-0.858899
H160	H	1.546631	1.029878	-0.358899
H161	H	1.133261	0.442244	-0.955662
H162	H	1.633261	0.942244	-0.455662
H163	H	0.896711	0.364473	-0.852327
H164	H	1.396711	0.864473	-0.352327
H165	H	0.282990	0.501957	-0.501690
H166	H	0.782990	1.001957	-0.001690
N167	N	0.757259	0.490753	-0.490489
N168	N	1.257259	0.990753	0.009511
H169	H	0.722893	0.519323	-0.518980
H170	H	1.222893	1.019323	-0.018980
H171	H	0.787718	0.461938	-0.526278
H172	H	1.287718	0.961938	-0.026278
N173	N	1.150735	0.855681	-0.448334
N174	N	1.650735	1.355681	0.051666
H175	H	1.163625	0.874151	-0.500142
H176	H	1.663625	1.374151	-0.000142
H177	H	1.150236	0.799714	-0.447631
H178	H	1.650236	1.299714	0.052369
H179	H	0.416063	0.335419	-0.335631
H180	H	0.916063	0.835419	0.164369
N181	N	0.537411	0.478449	-0.478240
N182	N	1.037411	0.978449	0.021760
H183	H	0.503050	0.507026	-0.506731
H184	H	1.003050	1.007026	-0.006731
H185	H	0.567870	0.449634	-0.514029
H186	H	1.067870	0.949634	-0.014029
N187	N	0.604808	0.286207	-0.286529
N188	N	1.104808	0.786207	0.213471
H189	H	0.552776	0.291081	-0.291375
H190	H	1.052776	0.791081	0.208625
H191	H	0.617617	0.298301	-0.234053
H192	H	1.117617	0.798301	0.265947
N193	N	0.757270	0.293068	-0.293403
N194	N	1.257270	0.793068	0.206597
H195	H	0.722908	0.261395	-0.261823
H196	H	1.222908	0.761395	0.238177
H197	H	0.787682	0.324626	-0.260350
H198	H	1.287682	0.824626	0.239650
H199	H	0.983244	0.855564	-0.277026
H200	H	1.483244	1.355564	0.222974
N201	N	0.879154	0.950652	-0.358860
N202	N	1.379154	1.450652	0.141140
H203	H	0.843711	0.931113	-0.394731
H204	H	1.343711	1.431113	0.105269
H205	H	0.879885	1.006630	-0.358563
H206	H	1.379885	1.506630	0.141437
