data_functionalizedCrystal
_audit_creation_method	'MofGen! by Chris Wilmer'
_symmetry_space_group_name_H-M	'P1'
_symmetry_Int_Tables_number	1
_symmetry_cell_setting	triclinic
loop_
_symmetry_equiv_pos_as_xyz
  x,y,z
_cell_length_a	17.638686
_cell_length_b	17.637651
_cell_length_c	19.805399
_cell_angle_alpha	78.757390
_cell_angle_beta	78.788639
_cell_angle_gamma	87.823829
loop_
_atom_site_label
_atom_site_type_symbol
_atom_site_fract_x
_atom_site_fract_y
_atom_site_fract_z
Zn1	Zn	1.099824	-0.537552	-0.479607
Zn2	Zn	1.074078	-0.664553	-0.339965
Zn3	Zn	0.972835	-0.511852	-0.348944
Zn4	Zn	0.947156	-0.638802	-0.435644
O5	O	1.023473	-0.588190	-0.401040
O6	O	1.202672	-0.575932	-0.475725
O7	O	1.060620	-0.644318	-0.246431
O8	O	1.011202	-0.408982	-0.388433
O9	O	1.183756	-0.669239	-0.373130
O10	O	1.104500	-0.427864	-0.484431
O11	O	0.986237	-0.532129	-0.253027
O12	O	0.863165	-0.507160	-0.345803
O13	O	0.967436	-0.625350	-0.536201
O14	O	0.844299	-0.600430	-0.409501
O15	O	1.079600	-0.550962	-0.568501
O16	O	1.035720	-0.767416	-0.330501
O17	O	0.942471	-0.748497	-0.400795
C18	C	0.826179	-0.548212	-0.373856
C19	C	0.741773	-0.531128	-0.362239
C20	C	0.415084	-0.718144	-0.489429
C21	C	0.335772	-0.702084	-0.478498
C22	C	0.355415	-0.604811	-0.412334
C23	C	0.434729	-0.620866	-0.423257
C24	C	0.464558	-0.677532	-0.461806
C25	C	0.484203	-0.580254	-0.395634
C26	C	0.563511	-0.596305	-0.406560
C27	C	0.593346	-0.652967	-0.445109
C28	C	0.543866	-0.693583	-0.472732
C29	C	0.454374	-0.523584	-0.357090
C30	C	0.503847	-0.482972	-0.329467
C31	C	0.583156	-0.499026	-0.340388
C32	C	0.612991	-0.555689	-0.378937
C33	C	0.632636	-0.458411	-0.312765
C34	C	0.711944	-0.474461	-0.323690
C35	C	0.692299	-0.571739	-0.389862
C36	C	0.983536	-0.785518	-0.359921
C37	C	0.966520	-0.869950	-0.342362
C38	C	1.153235	-1.196455	-0.534713
C39	C	1.137222	-1.275787	-0.518199
C40	C	1.040135	-1.256246	-0.418162
C41	C	1.056143	-1.176911	-0.434666
C42	C	1.112693	-1.147022	-0.492943
C43	C	1.015601	-1.127478	-0.392895
C44	C	1.031604	-1.048150	-0.409400
C45	C	1.088151	-1.018255	-0.467675
C46	C	1.128697	-1.067694	-0.509448
C47	C	0.959047	-1.157368	-0.334621
C48	C	0.918504	-1.107935	-0.292850
C49	C	0.934512	-1.028606	-0.309352
C50	C	0.991058	-0.998711	-0.367628
C51	C	0.893965	-0.979167	-0.267580
C52	C	0.909969	-0.899839	-0.284085
C53	C	1.007062	-0.919383	-0.384132
C54	C	1.221537	-0.628324	-0.428330
C55	C	1.305941	-0.645427	-0.439959
C56	C	1.023526	-0.588151	-0.577598
C57	C	1.023548	-0.588134	-0.652837
C58	C	1.063588	-0.390095	-0.442337
C59	C	1.080682	-0.305679	-0.459936
C60	C	1.081954	-0.549398	-0.705002
C61	C	1.081966	-0.549378	-0.775696
C62	C	1.023575	-0.588098	-0.794224
C63	C	0.965163	-0.626835	-0.742053
C64	C	0.965148	-0.626851	-0.671361
C65	C	0.965220	-0.626773	-1.027147
C66	C	0.965241	-0.626757	-1.097846
C67	C	1.082038	-0.549300	-1.131482
C68	C	1.082023	-0.549316	-1.060790
C69	C	1.023610	-0.588049	-1.008626
C70	C	1.023596	-0.588069	-0.931972
C71	C	1.023590	-0.588083	-0.870876
C72	C	1.023476	-0.588183	-0.225186
C73	C	1.023644	-0.588016	-0.150012
H74	H	0.295493	-0.735156	-0.500998
C75	C	0.447899	-0.780482	-0.531833
N76	N	0.472616	-0.827431	-0.563773
C77	C	0.367131	-0.505934	-0.345067
N78	N	0.301418	-0.492644	-0.336009
H79	H	0.872459	-1.132281	-0.245402
C80	C	0.766368	-0.429789	-0.293301
N81	N	0.807360	-0.396139	-0.270411
C82	C	0.471027	-0.420641	-0.287064
N83	N	0.446307	-0.373693	-0.255124
H84	H	1.170230	-1.316032	-0.552227
C85	C	1.069269	-0.886501	-0.448241
N86	N	1.116119	-0.861733	-0.496528
H87	H	0.917688	-0.658288	-1.112926
H88	H	0.917582	-0.658384	-0.628888
H89	H	0.847917	-1.003513	-0.220134
H90	H	0.608339	-0.412268	-0.281384
C91	C	1.146287	-0.506681	-1.188870
N92	N	1.194678	-0.474581	-1.232094
C93	C	0.900962	-0.669378	-0.969776
N94	N	0.852558	-0.701469	-0.926560
C95	C	0.900926	-0.669419	-0.762437
N96	N	0.852541	-0.701494	-0.777789
C97	C	0.725114	-0.634077	-0.432266
N98	N	0.749831	-0.681026	-0.464206
C99	C	1.190905	-1.034813	-0.573557
N100	N	1.237754	-1.010045	-0.621844
H101	H	0.568152	-0.739730	-0.504118
H102	H	1.101180	-0.953661	-0.481112
C103	C	0.977979	-1.289142	-0.354023
N104	N	0.931181	-1.313923	-0.305698
C105	C	1.146189	-0.506801	-0.684629
N106	N	1.194571	-0.474712	-0.669287
C107	C	1.215443	-1.163574	-0.598822
N108	N	1.262293	-1.138806	-0.647109
H109	H	0.331118	-0.558671	-0.380950
H110	H	0.946011	-1.221961	-0.321190
C111	C	1.146218	-0.506767	-0.833075
N112	N	1.194616	-0.474670	-0.876293
C113	C	0.865378	-0.845461	-0.238129
N114	N	0.831791	-0.804503	-0.203514
C115	C	1.146255	-0.506716	-1.040415
N116	N	1.194634	-0.474626	-1.025070
H117	H	0.657925	-0.666030	-0.454008
