data_functionalizedCrystal
_audit_creation_method	'MofGen! by Chris Wilmer'
_symmetry_space_group_name_H-M	'P1'
_symmetry_Int_Tables_number	1
_symmetry_cell_setting	triclinic
loop_
_symmetry_equiv_pos_as_xyz
  x,y,z
_cell_length_a	12.827893
_cell_length_b	17.637651
_cell_length_c	12.827885
_cell_angle_alpha	101.249202
_cell_angle_beta	90.019272
_cell_angle_gamma	101.219302
loop_
_atom_site_label
_atom_site_type_symbol
_atom_site_fract_x
_atom_site_fract_y
_atom_site_fract_z
Zn1	Zn	1.513560	-0.314727	0.506621
Zn2	Zn	1.478114	-0.446962	0.296492
Zn3	Zn	1.338791	-0.314766	0.331884
Zn4	Zn	1.303462	-0.446904	0.471207
O5	O	1.408482	-0.380840	0.401551
O6	O	1.655092	-0.332276	0.478755
O7	O	1.459584	-0.429467	0.154939
O8	O	1.391593	-0.204119	0.384695
O9	O	1.629050	-0.429429	0.324375
O10	O	1.519995	-0.204091	0.513074
O11	O	1.357223	-0.332343	0.180942
O12	O	1.187871	-0.332286	0.350357
O13	O	1.331381	-0.429330	0.622152
O14	O	1.161915	-0.429367	0.452717
O15	O	1.485739	-0.332220	0.648170
O16	O	1.425327	-0.557596	0.290036
O17	O	1.297011	-0.557553	0.418399
C18	C	1.136976	-0.380825	0.401535
C19	C	1.020819	-0.380838	0.401548
C20	C	0.981898	-0.332849	0.478016
C21	C	0.861844	-0.332861	0.478031
C22	C	1.353518	-0.586263	0.346557
C23	C	1.330099	-0.674144	0.323065
C24	C	1.587067	-0.962804	0.580345
C25	C	1.565029	-1.045381	0.558253
C26	C	1.431413	-1.045518	0.424443
C27	C	1.453443	-0.962939	0.446521
C28	C	1.531271	-0.921588	0.524474
C29	C	1.397647	-0.921724	0.390649
C30	C	1.419672	-0.839152	0.412729
C31	C	1.497494	-0.797795	0.490681
C32	C	1.553296	-0.839017	0.546554
C33	C	1.319815	-0.963076	0.312702
C34	C	1.264018	-0.921861	0.256831
C35	C	1.286049	-0.839287	0.278905
C36	C	1.363870	-0.797931	0.356856
C37	C	1.230247	-0.798066	0.223032
C38	C	1.252272	-0.715494	0.245112
C39	C	1.385896	-0.715359	0.378936
C40	C	1.681048	-0.380855	0.401567
C41	C	1.797199	-0.380861	0.401574
C42	C	1.408573	-0.380764	0.674141
C43	C	1.408612	-0.380731	0.790303
C44	C	1.463689	-0.174615	0.456783
C45	C	1.487215	-0.086734	0.480319
C46	C	1.408466	-0.380858	0.130036
C47	C	1.408689	-0.380668	0.013934
C48	C	1.485003	-0.332669	0.854965
C49	C	1.485045	-0.332634	0.975025
H50	H	0.830712	-0.421953	0.336108
Br51	Br	1.158388	-0.977987	0.151052
H52	H	1.368043	-1.079197	0.360977
H53	H	1.166873	-0.831747	0.159570
Br54	Br	1.290094	-1.075139	0.282564
Br55	Br	1.299680	-0.449264	0.921344
Br56	Br	1.593938	-0.264100	0.799108
H57	H	1.650450	-0.929134	0.643815
H58	H	0.828323	-0.291778	0.543502
H59	H	1.037456	-0.291752	0.543470
H60	H	1.343237	-0.421849	0.823829
H61	H	0.965263	-0.421931	0.336090
Br62	Br	1.527020	-0.685733	0.521017
H63	H	1.449278	-0.681690	0.442406
Br64	Br	1.658937	-0.782890	0.652332
Br65	Br	1.176550	-0.659554	0.169285
Br66	Br	1.640766	-1.101315	0.634083
Br67	Br	1.594064	-0.264054	1.067617
