data_functionalizedCrystal
_audit_creation_method	'MofGen! by Chris Wilmer'
_symmetry_space_group_name_H-M	'P1'
_symmetry_Int_Tables_number	1
_symmetry_cell_setting	triclinic
loop_
_symmetry_equiv_pos_as_xyz
  x,y,z
_cell_length_a	27.732048
_cell_length_b	12.376774
_cell_length_c	13.339070
_cell_angle_alpha	99.012290
_cell_angle_beta	99.135975
_cell_angle_gamma	102.741174
loop_
_atom_site_label
_atom_site_type_symbol
_atom_site_fract_x
_atom_site_fract_y
_atom_site_fract_z
O1	O	0.668012	0.093847	0.137236
O2	O	0.529737	0.093881	0.155506
O3	O	0.583004	0.093864	-0.000644
O4	O	0.614744	0.093864	0.293386
O5	O	0.561872	-0.094136	-0.034942
O6	O	0.508604	-0.094119	0.121209
O7	O	0.646879	-0.094153	0.102939
Zn8	Zn	0.574387	-0.123985	0.106628
Zn9	Zn	0.602229	0.123713	0.151817
O10	O	0.593612	-0.094136	0.259089
C11	C	0.501111	-0.000115	0.137975
C12	C	0.447299	-0.000102	0.136823
N13	N	0.555388	-0.293032	0.075788
C14	C	0.567077	-0.000133	-0.055398
C15	C	0.551097	-0.000124	-0.167448
C16	C	0.120183	-0.000151	0.221819
C17	C	-0.082068	-0.000161	0.217534
O18	O	-0.102626	-0.000211	0.295256
N19	N	-0.113940	-0.000159	0.124945
C20	C	-0.095248	-0.000162	0.033420
O21	O	-0.126999	-0.000172	-0.045433
C22	C	0.107001	-0.000160	0.037705
C23	C	0.138872	-0.000151	0.130301
C24	C	0.152053	-0.000143	0.314408
C25	C	0.202614	-0.000135	0.315479
C26	C	0.221303	-0.000134	0.223962
C27	C	0.189433	-0.000142	0.131373
C28	C	0.125692	-0.000171	-0.053821
C29	C	0.176257	-0.000173	-0.052742
C30	C	0.208129	-0.000164	0.039855
C31	C	0.258682	-0.000133	0.040927
N32	N	0.290555	-0.000135	0.133515
C33	C	0.271865	-0.000136	0.225033
C34	C	-0.201430	-0.000161	0.031177
C35	C	-0.251992	-0.000159	0.030106
C36	C	-0.238809	-0.000161	0.214220
C37	C	-0.188245	-0.000154	0.215292
C38	C	-0.169558	-0.000163	0.123766
C39	C	0.378045	-0.000116	0.227276
C40	C	0.428609	-0.000103	0.228340
C41	C	0.415421	-0.000107	0.044226
C42	C	0.364862	-0.000115	0.043162
C43	C	0.346175	-0.000123	0.134695
O44	O	0.279273	-0.000096	-0.036756
O45	O	0.303621	-0.000151	0.303869
C46	C	0.069623	-0.000160	0.220747
C47	C	0.037752	-0.000168	0.128159
C48	C	0.056442	-0.000167	0.036641
C49	C	-0.012810	-0.000166	0.127087
C50	C	-0.031499	-0.000167	0.218605
C51	C	0.000373	-0.000170	0.311194
C52	C	0.050933	-0.000161	0.312265
C53	C	0.024569	-0.000165	-0.055947
C54	C	-0.025990	-0.000172	-0.057011
C55	C	-0.044680	-0.000173	0.034506
C56	C	0.675505	-0.000154	0.120470
C57	C	0.729318	-0.000160	0.121624
C58	C	0.511270	-0.352191	0.004184
C59	C	0.497966	-0.470524	-0.017402
C60	C	0.528781	-0.529708	0.032609
C61	C	0.572902	-0.470549	0.104209
C62	C	0.586205	-0.352206	0.125802
C63	C	0.603717	-0.529723	0.154228
C64	C	0.647837	-0.470564	0.225828
C65	C	0.661138	-0.352231	0.247417
C66	C	0.630323	-0.293047	0.197407
C67	C	0.590414	-0.648066	0.132634
C68	C	0.665349	-0.648081	0.254253
C69	C	0.678652	-0.529748	0.275838
N70	N	0.621231	0.292760	0.182649
C71	C	0.675355	-0.000155	-0.534189
C72	C	0.690371	-0.000169	-0.428914
C73	C	0.655553	-0.000157	-0.363542
C74	C	0.605718	-0.000132	-0.403456
C75	C	0.590701	-0.000127	-0.508744
C76	C	0.570899	-0.000130	-0.338097
C77	C	0.521064	-0.000105	-0.378011
C78	C	0.506049	-0.000099	-0.483288
C79	C	0.540866	-0.000110	-0.548660
C80	C	0.585916	-0.000135	-0.232810
C81	C	0.501262	-0.000107	-0.207364
C82	C	0.486247	-0.000093	-0.312639
C83	C	0.609539	-0.000137	0.313843
C84	C	0.625521	-0.000138	0.425895
H85	H	0.454558	-0.000095	0.303747
H86	H	0.445670	-0.000073	-0.345153
O87	O	-0.258976	-0.000171	0.312926
H88	H	-0.228323	-0.000171	0.377498
O89	O	-0.060361	-0.000189	-0.156896
H90	H	-0.075106	0.076433	-0.147833
H91	H	0.362836	-0.000127	0.301810
H92	H	0.626492	-0.000156	-0.200322
O93	O	0.236983	-0.000159	0.415345
H94	H	0.215483	-0.000179	0.478790
O95	O	0.712902	-0.000174	-0.604697
H96	H	0.727460	-0.076815	-0.604578
H97	H	0.338912	-0.000106	-0.032234
H98	H	0.472910	-0.000104	-0.154139
O99	O	0.044725	-0.000162	-0.154660
H100	H	0.014064	-0.000156	-0.219213
H101	H	0.517947	-0.626060	0.015029
H102	H	0.528643	-0.000094	-0.634384
O103	O	0.671746	-0.000174	-0.249995
H104	H	0.666047	0.076454	-0.202759
H105	H	0.730946	-0.000191	-0.396424
O106	O	0.452297	-0.000091	-0.526346
H107	H	0.443496	0.076543	-0.486066
O108	O	0.131899	-0.000146	0.413123
H109	H	0.153376	0.076487	0.471439
O110	O	-0.153873	-0.000166	0.315157
H111	H	-0.175370	-0.000176	0.378608
H112	H	0.076879	-0.000155	0.387666
O113	O	0.708723	-0.288424	0.324650
H114	H	0.698928	-0.234516	0.389078
O115	O	-0.286366	-0.000166	-0.069764
H116	H	-0.264871	-0.000181	-0.133219
O117	O	0.450394	-0.534303	-0.094666
H118	H	0.417329	-0.511578	-0.068036
H119	H	-0.186221	-0.000168	-0.043358
O120	O	0.091323	-0.000185	-0.153694
H121	H	0.059362	-0.076811	-0.172558
H122	H	0.191469	-0.000181	-0.127275
H123	H	-0.014852	-0.000166	0.385711
O124	O	0.435582	-0.000122	-0.054484
H125	H	0.476093	-0.000134	-0.038177
H126	H	0.486184	-0.303992	-0.036522
H127	H	0.554490	-0.696222	0.074338
H128	H	0.641155	-0.196691	0.214973
O129	O	0.726235	-0.465939	0.353076
H130	H	0.730303	-0.373711	0.359692
H131	H	0.690439	-0.696268	0.294981
