data_functionalizedCrystal
_audit_creation_method	'MofGen! by Chris Wilmer'
_symmetry_space_group_name_H-M	'P1'
_symmetry_Int_Tables_number	1
_symmetry_cell_setting	triclinic
loop_
_symmetry_equiv_pos_as_xyz
  x,y,z
_cell_length_a	12.827893
_cell_length_b	13.897447
_cell_length_c	12.827885
_cell_angle_alpha	89.968996
_cell_angle_beta	89.980919
_cell_angle_gamma	90.019501
loop_
_atom_site_label
_atom_site_type_symbol
_atom_site_fract_x
_atom_site_fract_y
_atom_site_fract_z
Zn1	Zn	1.597640	-0.383969	-0.590835
Zn2	Zn	1.930973	-0.050636	-0.257501
Zn3	Zn	2.264306	0.282698	0.075832
Zn4	Zn	1.597521	-0.545295	-0.416091
Zn5	Zn	1.930854	-0.211962	-0.082758
Zn6	Zn	2.264188	0.121371	0.250576
Zn7	Zn	1.422881	-0.384016	-0.416109
Zn8	Zn	1.756214	-0.050683	-0.082775
Zn9	Zn	2.089548	0.282651	0.250558
Zn10	Zn	1.422854	-0.545224	-0.590792
Zn11	Zn	1.756187	-0.211890	-0.257458
Zn12	Zn	2.089520	0.121443	0.075875
O13	O	1.510224	-0.464626	-0.503456
O14	O	1.843557	-0.131293	-0.170123
O15	O	2.176890	0.202041	0.163210
O16	O	1.743860	-0.405380	-0.567665
O17	O	2.077193	-0.072046	-0.234332
O18	O	2.410527	0.261287	0.099002
O19	O	1.574316	-0.523951	-0.269857
O20	O	1.907650	-0.190618	0.063476
O21	O	2.240983	0.142716	0.396809
O22	O	1.446124	-0.249028	-0.439312
O23	O	1.779457	0.084305	-0.105978
O24	O	2.112791	0.417639	0.227355
O25	O	1.743773	-0.523905	-0.439282
O26	O	2.077106	-0.190572	-0.105948
O27	O	2.410439	0.142761	0.227385
O28	O	1.574518	-0.248994	-0.567682
O29	O	1.907852	0.084340	-0.234349
O30	O	2.241185	0.417673	0.098985
O31	O	1.446009	-0.405460	-0.269870
O32	O	1.779342	-0.072126	0.063463
O33	O	2.112676	0.261207	0.396796
O34	O	1.276641	-0.405390	-0.439270
O35	O	1.609975	-0.072057	-0.105937
O36	O	1.943308	0.261277	0.227396
O37	O	1.446077	-0.523783	-0.737033
O38	O	1.779411	-0.190450	-0.403700
O39	O	2.112744	0.142884	-0.070367
O40	O	1.276621	-0.523829	-0.567609
O41	O	1.609955	-0.190495	-0.234276
O42	O	1.943288	0.142838	0.099058
O43	O	1.574492	-0.405310	-0.737065
O44	O	1.907825	-0.071977	-0.403732
O45	O	2.241159	0.261357	-0.070398
O46	O	1.574290	-0.680267	-0.439240
O47	O	1.907623	-0.346934	-0.105907
O48	O	2.240957	-0.013601	0.227426
O49	O	1.445963	-0.680215	-0.567592
O50	O	1.779296	-0.346881	-0.234259
O51	O	2.112629	-0.013548	0.099075
C52	C	1.238714	-0.464607	-0.503437
C53	C	1.572047	-0.131274	-0.170104
C54	C	1.905381	0.202059	0.163229
C55	C	1.122561	-0.464623	-0.503454
C56	C	1.455894	-0.131289	-0.170121
C57	C	1.789227	0.202044	0.163213
C58	C	1.070733	-0.523183	-0.439842
C59	C	1.404067	-0.189849	-0.106508
C60	C	1.737400	0.143484	0.226825
C61	C	0.950683	-0.523200	-0.439857
C62	C	1.284016	-0.189867	-0.106524
C63	C	1.617350	0.143467	0.226809
C64	C	1.510139	-0.715240	-0.503432
C65	C	1.843472	-0.381907	-0.170099
C66	C	2.176805	-0.048574	0.163234
C67	C	1.510198	-0.822454	-0.503457
C68	C	1.843531	-0.489121	-0.170124
C69	C	2.176865	-0.155788	0.163210
C70	C	1.510249	-0.909524	-0.503481
C71	C	1.843582	-0.576191	-0.170147
C72	C	2.176915	-0.242857	0.163186
C73	C	1.510322	-1.018756	-0.503508
C74	C	1.843655	-0.685423	-0.170174
C75	C	2.176989	-0.352090	0.163159
C76	C	1.782794	-0.464645	-0.503476
C77	C	2.116127	-0.131312	-0.170143
C78	C	2.449461	0.202021	0.163190
C79	C	1.898947	-0.464654	-0.503485
C80	C	2.232280	-0.131320	-0.170151
C81	C	2.565614	0.202013	0.163182
C82	C	1.510295	-0.464533	-0.776027
C83	C	1.843628	-0.131200	-0.442693
C84	C	2.176962	0.202133	-0.109360
C85	C	1.510325	-0.464494	-0.892180
C86	C	1.843659	-0.131161	-0.558847
C87	C	2.176992	0.202173	-0.225513
C88	C	1.510338	-0.213033	-0.503504
C89	C	1.843671	0.120300	-0.170170
C90	C	2.177004	0.453634	0.163163
C91	C	1.510386	-0.105819	-0.503524
C92	C	1.843719	0.227514	-0.170190
C93	C	2.177053	0.560848	0.163143
C94	C	1.573876	-0.405858	-0.943980
C95	C	1.907209	-0.072525	-0.610647
C96	C	2.240542	0.260809	-0.277314
C97	C	1.573908	-0.405816	-1.064031
C98	C	1.907242	-0.072483	-0.730697
C99	C	2.240575	0.260851	-0.397364
C100	C	1.510213	-0.464649	-0.231947
C101	C	1.843546	-0.131315	0.101387
C102	C	2.176880	0.202018	0.434720
C103	C	1.510385	-0.464416	-0.115794
C104	C	1.843719	-0.131083	0.217539
C105	C	2.177052	0.202250	0.550873
H106	H	0.943511	-0.414511	-0.557944
H107	H	1.276844	-0.081178	-0.224610
H108	H	1.610177	0.252155	0.108723
H109	H	1.455935	-0.514656	-0.936709
H110	H	1.789268	-0.181323	-0.603375
H111	H	2.122602	0.152010	-0.270042
Br112	Br	1.664493	-0.322205	-0.869774
Br113	Br	1.997826	0.011128	-0.536441
Br114	Br	2.331160	0.344461	-0.203108
H115	H	1.628320	-0.355619	-1.108578
H116	H	1.961653	-0.022286	-0.775244
H117	H	2.294986	0.311048	-0.441911
H118	H	1.115238	-0.573309	-0.385373
H119	H	1.448572	-0.239975	-0.052039
H120	H	1.781905	0.093358	0.281294
H121	H	1.455978	-0.514623	-1.071254
H122	H	1.789312	-0.181289	-0.737920
H123	H	2.122645	0.152044	-0.404587
Br124	Br	1.048394	-0.381084	-0.594260
Br125	Br	1.381727	-0.047751	-0.260927
Br126	Br	1.715060	0.285583	0.072407
Br127	Br	0.876404	-0.606760	-0.349071
Br128	Br	1.209737	-0.273426	-0.015738
Br129	Br	1.543070	0.059907	0.317596
