data_functionalizedCrystal
_audit_creation_method	'MofGen! by Chris Wilmer'
_symmetry_space_group_name_H-M	'P1'
_symmetry_Int_Tables_number	1
_symmetry_cell_setting	triclinic
loop_
_symmetry_equiv_pos_as_xyz
  x,y,z
_cell_length_a	13.635800
_cell_length_b	19.361309
_cell_length_c	21.457153
_cell_angle_alpha	78.109357
_cell_angle_beta	63.174847
_cell_angle_gamma	81.489652
loop_
_atom_site_label
_atom_site_type_symbol
_atom_site_fract_x
_atom_site_fract_y
_atom_site_fract_z
V1	V	-1.930473	-0.218192	0.097409
O2	O	-1.888806	-0.213697	-0.003927
O3	O	-1.942385	-0.217028	0.192422
O4	O	-1.853877	-0.313204	0.096242
O5	O	-1.977926	-0.116856	0.092918
V6	V	-2.174396	-0.206032	0.085249
O7	O	-2.056358	-0.244867	0.124084
O8	O	-2.273609	-0.179357	0.058575
O9	O	-2.050881	-0.207196	-0.009763
O10	O	-2.274762	-0.210526	0.186586
O11	O	-2.185641	-0.307368	0.089740
O12	O	-2.139388	-0.111020	0.086417
C13	C	-1.875366	-0.213671	0.215573
C14	C	-1.925399	-0.213352	0.293249
V15	V	-1.430473	-0.218192	0.097409
O16	O	-1.388806	-0.213697	-0.003927
O17	O	-1.442385	-0.217028	0.192422
O18	O	-1.353877	-0.313204	0.096242
O19	O	-1.477926	-0.116856	0.092918
V20	V	-1.674396	-0.206032	0.085249
O21	O	-1.556358	-0.244867	0.124084
O22	O	-1.773609	-0.179357	0.058575
O23	O	-1.550881	-0.207196	-0.009763
O24	O	-1.774762	-0.210526	0.186586
O25	O	-1.685641	-0.307368	0.089740
O26	O	-1.639388	-0.111020	0.086417
C27	C	-2.039382	-0.216706	0.333301
C28	C	-2.086407	-0.216418	0.406288
C29	C	-2.019447	-0.212770	0.439220
C30	C	-1.905454	-0.209418	0.399163
C31	C	-1.858430	-0.209712	0.326179
C32	C	-1.762465	-0.336351	0.092885
C33	C	-1.740721	-0.414026	0.092559
C34	C	-1.820920	-0.454084	0.095914
C35	C	-1.800490	-0.527068	0.095608
C36	C	-1.699864	-0.559992	0.091961
C37	C	-1.619652	-0.519923	0.088602
C38	C	-1.640081	-0.446940	0.088902
C39	C	-1.622949	-0.679434	0.129954
C40	C	-1.602527	-0.752417	0.129659
C41	C	-1.636849	-0.785095	0.091035
C42	C	-1.691618	-0.744785	0.052715
C43	C	-1.712047	-0.671802	0.053014
C44	C	-1.677702	-0.639129	0.091636
C45	C	-1.694901	-0.904291	0.094056
C46	C	-1.674463	-0.977275	0.093746
C47	C	-1.493628	-0.970130	0.086747
C48	C	-1.514063	-0.897146	0.087051
C49	C	-1.614703	-0.864232	0.090709
C50	C	-1.949573	-0.210551	-0.032911
C51	C	-1.889157	-0.210874	-0.110586
C52	C	-1.562474	-0.087869	0.089776
C53	C	-1.573837	-0.010194	0.090098
C54	C	-1.540655	-0.209693	-0.673839
C55	C	-1.597432	-0.209395	-0.600855
C56	C	-1.538945	-0.212741	-0.560787
C57	C	-1.423671	-0.216405	-0.593707
C58	C	-1.366898	-0.216710	-0.666689
C59	C	-1.563197	-0.173792	-0.448978
C60	C	-1.619973	-0.173482	-0.375998
C61	C	-1.714049	-0.211802	-0.335685
C62	C	-1.751358	-0.250423	-0.368363
C63	C	-1.694585	-0.250728	-0.441345
C64	C	-1.600497	-0.212411	-0.481650
C65	C	-1.890874	-0.207820	-0.223635
C66	C	-1.947648	-0.207526	-0.150649
C67	C	-1.773884	-0.214529	-0.143503
C68	C	-1.717113	-0.214830	-0.216487
C69	C	-1.775615	-0.211472	-0.256550
C70	C	-1.375366	-0.213671	0.215573
C71	C	-1.425399	-0.213352	0.293249
C72	C	-2.062474	-0.087869	0.089776
C73	C	-2.073837	-0.010194	0.090098
C74	C	-1.262465	-0.336351	0.092885
C75	C	-1.240721	-0.414026	0.092559
C76	C	-1.449573	-0.210551	-0.032911
C77	C	-1.389157	-0.210874	-0.110586
C78	C	-1.992219	0.022720	0.093743
C79	C	-2.002875	0.095705	0.094038
C80	C	-2.095154	0.135774	0.090692
C81	C	-2.176776	0.102856	0.087045
C82	C	-2.166115	0.029873	0.086745
C83	C	-1.320926	-0.454076	0.095902
C84	C	-1.300504	-0.527058	0.095587
C85	C	-1.199878	-0.559990	0.091934
C86	C	-1.119666	-0.519934	0.088588
C87	C	-1.140086	-0.446952	0.088899
C88	C	-1.447666	-0.207522	-0.150637
C89	C	-1.390912	-0.207814	-0.223624
C90	C	-1.275648	-0.211463	-0.256556
C91	C	-1.217135	-0.214813	-0.216499
C92	C	-1.273890	-0.214516	-0.143515
H93	H	-2.093922	-0.219672	0.306496
H94	H	-2.103827	0.195199	0.090945
H95	H	-2.232585	0.003080	0.083781
H96	H	-1.486588	-0.142590	-0.481795
H97	H	-1.365830	-0.559662	0.098314
Br98	Br	-1.957500	-0.409418	0.100875
Br99	Br	-1.457500	-0.409400	0.100861
Br100	Br	-1.194464	-0.219066	-0.089168
H101	H	-1.828060	-0.281535	-0.335560
H102	H	-1.917074	-0.009896	0.096467
Br103	Br	-1.753867	-0.204431	-0.556178
Br104	Br	-1.172183	-0.659039	0.091514
Br105	Br	-1.892095	0.140362	0.098993
H106	H	-1.557941	-0.785233	0.160866
Br107	Br	-2.241112	-0.220965	0.460635
Br108	Br	-0.983113	-0.564639	0.083640
Br109	Br	-1.783314	-1.031643	0.098295
Br110	Br	-2.083284	-0.212373	0.538273
Br111	Br	-1.060704	-0.219759	-0.261206
Br112	Br	-1.344294	-0.220954	-0.539330
Br113	Br	-2.302010	0.157245	0.082512
Br114	Br	-1.031226	-0.392608	0.084370
H115	H	-1.850945	-0.206449	0.425988
Br116	Br	-1.738217	-0.789126	0.000299
Br117	Br	-1.604098	-0.202571	-0.105960
H118	H	-1.438574	-0.205087	-0.256228
H119	H	-1.765616	-0.206977	0.293573
Br120	Br	-1.909333	-0.581444	0.100153
H121	H	-1.776846	-0.877491	0.097032
Br122	Br	-1.576338	-0.635089	0.182364
H123	H	-1.229448	-0.211704	-0.315985
H124	H	-1.448760	-0.864531	0.084327
Br125	Br	-1.786373	-0.617096	0.001013
Br126	Br	-1.357053	-1.014801	0.081781
Br127	Br	-1.483085	-0.564602	0.083648
Br128	Br	-1.210467	-0.221677	-0.711358
Br129	Br	-1.531231	-0.392570	0.084350
H130	H	-1.588297	-0.206963	-0.706453
H131	H	-1.724966	-0.282175	-0.467948
H132	H	-1.938509	-0.205085	-0.256256
Br133	Br	-1.694501	-0.219083	-0.089131
Br134	Br	-1.560685	-0.219792	-0.261157
Br135	Br	-2.104078	-0.202569	-0.105980
H136	H	-1.589593	-0.142030	-0.349399
