data_functionalizedCrystal
_audit_creation_method	'MofGen! by Chris Wilmer'
_symmetry_space_group_name_H-M	'P1'
_symmetry_Int_Tables_number	1
_symmetry_cell_setting	triclinic
loop_
_symmetry_equiv_pos_as_xyz
  x,y,z
_cell_length_a	14.560438
_cell_length_b	14.560438
_cell_length_c	14.560438
_cell_angle_alpha	59.996693
_cell_angle_beta	90.002385
_cell_angle_gamma	60.002811
loop_
_atom_site_label
_atom_site_type_symbol
_atom_site_fract_x
_atom_site_fract_y
_atom_site_fract_z
Zr1	Zr	0.884757	1.005331	-0.120576
O2	O	0.738109	1.196939	-0.267240
O3	O	0.929712	0.813723	-0.075608
O4	O	0.929708	1.005334	-0.267224
O5	O	0.738116	1.005325	0.075518
O6	O	1.080846	1.005337	-0.267222
O7	O	0.738112	1.005328	-0.075623
O8	O	1.080853	0.662579	0.075545
O9	O	0.738110	1.348083	-0.267249
O10	O	1.061678	0.892536	-0.056438
O11	O	0.948888	0.892532	0.056355
O12	O	0.948884	1.118130	-0.169249
O13	O	0.836094	1.118126	-0.056456
Zr14	Zr	1.125811	1.005331	0.120480
Zr15	Zr	1.125805	1.005335	-0.120573
Zr16	Zr	0.884763	1.005327	0.120476
Zr17	Zr	0.884759	1.246388	-0.120592
Zr18	Zr	1.125809	0.764274	0.120495
O19	O	1.080857	1.196939	0.075511
O20	O	1.080848	1.196945	-0.267234
O21	O	0.738117	1.196933	0.075505
O22	O	1.272460	0.813723	0.267143
O23	O	1.272451	0.813729	-0.075602
O24	O	0.929720	0.813717	0.267137
O25	O	1.272452	1.005337	-0.075615
O26	O	1.080860	1.005328	0.267127
O27	O	0.929722	1.005325	0.267125
O28	O	1.272456	1.005334	0.075526
O29	O	0.929711	1.348086	-0.267246
O30	O	1.080857	0.662576	0.267149
O31	O	1.272458	0.662579	0.267153
O32	O	1.272454	0.662582	0.075548
O33	O	0.738115	1.348080	-0.075645
O34	O	0.929716	1.348083	-0.075642
O35	O	1.061684	0.892532	0.169152
O36	O	1.174474	0.892536	0.056359
O37	O	1.061680	1.118130	-0.056452
O38	O	0.948890	1.118126	0.056341
C39	C	1.005282	0.703805	-0.000029
C40	C	1.005281	0.601470	-0.000022
C41	C	0.922014	0.636684	-0.083306
C42	C	0.922019	0.540545	-0.083335
C43	C	1.088563	0.373978	0.083214
C44	C	1.088562	0.470117	0.083237
C45	C	0.703770	1.005326	-0.000053
C46	C	0.601439	1.005324	-0.000055
C47	C	0.612237	0.887569	0.058831
C48	C	0.516082	0.887575	0.058841
C49	C	0.398333	1.123102	-0.058930
C50	C	0.494487	1.123095	-0.058933
C51	C	0.719189	0.769798	0.117708
C52	C	0.729992	0.652033	0.176598
C53	C	0.633837	0.652039	0.176608
C54	C	0.526879	0.769810	0.117729
C55	C	1.306798	1.005336	-0.000044
C56	C	1.409130	1.005338	-0.000042
C57	C	1.005276	1.005336	-0.301568
C58	C	1.005274	1.005338	-0.403901
C59	C	1.005286	1.306856	-0.000068
C60	C	1.005287	1.409191	-0.000074
C61	C	0.946398	1.123093	-0.510863
C62	C	0.946411	1.123087	-0.607012
C63	C	1.064178	0.887560	-0.489222
C64	C	1.064170	0.887567	-0.393076
C65	C	1.005292	1.005326	0.301471
C66	C	1.005294	1.005324	0.403804
C67	C	1.306796	0.703811	-0.000024
C68	C	1.409127	0.601477	-0.000016
C69	C	1.005290	0.703800	0.301490
C70	C	1.005291	0.601464	0.403830
C71	C	1.306804	0.703806	0.301495
C72	C	1.409137	0.601471	0.403836
C73	C	0.703764	1.306856	-0.301592
C74	C	0.601431	1.409191	-0.403933
C75	C	0.703772	1.306851	-0.000073
C76	C	0.601442	1.409185	-0.000081
C77	C	1.005279	1.306862	-0.301587
C78	C	1.005277	1.409198	-0.403927
C79	C	1.398327	0.553398	-0.058888
C80	C	1.494481	0.457253	-0.058884
C81	C	1.612232	0.457271	0.058873
C82	C	1.516079	0.553421	0.058862
C83	C	1.064169	0.553384	0.510788
C84	C	1.064158	0.457237	0.606943
C85	C	0.946390	0.457254	0.489168
C86	C	0.946395	0.553406	0.393016
C87	C	1.516088	0.553393	0.393043
C88	C	1.612237	0.457247	0.489207
C89	C	1.494470	0.457260	0.606955
C90	C	1.398323	0.553411	0.510792
H91	H	0.854195	0.743635	-0.151095
Cl92	Cl	1.263859	0.613863	0.524363
H93	H	0.817082	0.556148	0.224543
H94	H	1.156366	0.267021	0.151002
H95	H	0.485690	1.218982	-0.106861
H96	H	1.112128	0.791675	-0.480423
H97	H	0.642639	0.556149	0.224568
Cl98	Cl	0.872363	0.613861	0.258543
H99	H	0.797490	0.769780	0.117705
H100	H	0.898470	1.218976	-0.694103
Cl101	Cl	0.817335	0.584823	-0.188041
Cl102	Cl	0.263876	1.271146	-0.132948
Cl103	Cl	1.138190	0.739519	-0.258598
H104	H	1.485679	0.418117	0.694048
H105	H	1.311245	0.592535	-0.106842
H106	H	0.448588	0.769806	0.117748
Cl107	Cl	1.138207	0.613799	0.524386
Cl108	Cl	1.193253	0.425844	0.187942
H109	H	1.524899	0.592523	0.305958
H110	H	1.485677	0.418114	-0.106826
Cl111	Cl	1.746688	0.396844	0.132893
Cl112	Cl	1.529658	0.613873	0.132873
H113	H	1.699320	0.418107	0.480411
H114	H	0.898440	1.218990	-0.519684
H115	H	1.112101	0.418096	0.694030
Cl116	Cl	0.872357	0.396828	0.475584
