data_functionalizedCrystal
_audit_creation_method	'MofGen! by Chris Wilmer'
_symmetry_space_group_name_H-M	'P1'
_symmetry_Int_Tables_number	1
_symmetry_cell_setting	triclinic
loop_
_symmetry_equiv_pos_as_xyz
  x,y,z
_cell_length_a	16.109301
_cell_length_b	10.654550
_cell_length_c	14.586319
_cell_angle_alpha	89.997374
_cell_angle_beta	89.999213
_cell_angle_gamma	83.973192
loop_
_atom_site_label
_atom_site_type_symbol
_atom_site_fract_x
_atom_site_fract_y
_atom_site_fract_z
O1	O	1.104091	0.161419	-0.076180
O2	O	0.862148	0.181507	-0.076194
O3	O	0.988682	-0.011352	-0.076183
O4	O	0.977557	0.354278	-0.076191
O5	O	0.988673	-0.011354	0.076297
O6	O	0.862139	0.181504	0.076287
O7	O	1.104082	0.161416	0.076301
Cu8	Cu	0.983110	0.171460	0.090216
Cu9	Cu	0.983120	0.171463	-0.090110
O10	O	0.977548	0.354275	0.076290
C11	C	0.831164	0.180692	0.000044
C12	C	0.738854	0.178253	0.000039
C13	C	0.517228	0.287019	0.000047
C14	C	0.430494	0.284717	0.000053
C15	C	0.449008	0.055896	0.000054
C16	C	0.535741	0.058199	0.000055
C17	C	0.569848	0.173764	0.000047
C18	C	0.396382	0.169159	0.000052
C19	C	0.302341	0.166662	0.000058
C20	C	0.663895	0.176262	0.000042
C21	C	0.987861	-0.058140	0.000056
C22	C	0.985417	-0.197550	0.000053
C23	C	1.059918	-0.278046	0.000060
C24	C	1.057616	-0.409036	0.000053
C25	C	0.906306	-0.379020	0.000036
C26	C	0.908608	-0.248033	0.000036
C27	C	1.136726	-0.227564	0.000076
C28	C	1.211233	-0.308061	0.000084
C29	C	1.208932	-0.439051	0.000078
C30	C	1.132123	-0.489543	0.000063
C31	C	1.135066	0.162231	0.000060
C32	C	1.227376	0.164671	0.000060
C33	C	0.978369	0.401063	0.000049
C34	C	0.980813	0.540473	0.000046
N35	N	0.983108	0.171457	0.217048
N36	N	0.983128	0.171457	-0.216942
C37	C	1.039156	0.086088	0.452059
C38	C	1.039159	0.086084	0.548041
C39	C	0.927074	0.256830	0.548040
C40	C	0.927068	0.256826	0.452061
C41	C	0.983114	0.171456	0.404073
C42	C	0.983122	0.171457	0.596034
C43	C	0.983124	0.171455	0.700101
C44	C	0.983111	0.171457	0.299999
H45	H	0.421227	-0.038193	0.000066
C46	C	0.593626	-0.066386	0.000050
H47	H	0.560892	-0.135542	0.000041
H48	H	0.627846	-0.070247	0.053223
H49	H	0.627844	-0.070234	-0.053131
H50	H	1.084792	0.016568	0.587109
H51	H	1.138609	-0.120907	0.000084
C52	C	0.865421	0.350739	0.399272
H53	H	0.832051	0.401595	0.441597
H54	H	0.830552	0.305547	0.361835
H55	H	0.895633	0.403029	0.361826
C56	C	0.865436	0.350740	0.600830
H57	H	0.873471	0.338527	0.664865
H58	H	0.809870	0.337083	0.585109
H59	H	0.874955	0.434560	0.585092
H60	H	1.269599	-0.504589	0.000075
H61	H	1.273768	-0.266942	0.000073
H62	H	0.387654	0.376940	0.000056
C63	C	0.821825	-0.434559	0.000031
H64	H	0.831125	-0.524100	0.000041
H65	H	0.791117	-0.406927	-0.053143
H66	H	0.791118	-0.406928	0.053210
C67	C	0.554749	0.414130	0.000046
H68	H	0.613940	0.399286	0.000037
H69	H	0.536731	0.460758	0.053219
H70	H	0.536730	0.460762	-0.053134
C71	C	1.129593	-0.633629	0.000051
H72	H	1.184964	-0.674342	0.000060
H73	H	1.101134	-0.657712	-0.053125
H74	H	1.101129	-0.657724	0.053229
C75	C	1.100802	-0.007812	0.399271
H76	H	1.092781	0.004419	0.335236
H77	H	1.091297	-0.091632	0.415003
H78	H	1.156367	0.005866	0.415000
H79	H	0.847943	-0.182490	0.000031
