data_functionalizedCrystal
_audit_creation_method	'MofGen! by Chris Wilmer'
_symmetry_space_group_name_H-M	'P1'
_symmetry_Int_Tables_number	1
_symmetry_cell_setting	triclinic
loop_
_symmetry_equiv_pos_as_xyz
  x,y,z
_cell_length_a	12.837943
_cell_length_b	11.892095
_cell_length_c	10.723024
_cell_angle_alpha	93.927454
_cell_angle_beta	90.351595
_cell_angle_gamma	94.310562
loop_
_atom_site_label
_atom_site_type_symbol
_atom_site_fract_x
_atom_site_fract_y
_atom_site_fract_z
O1	O	1.384338	0.093978	-0.317471
O2	O	1.082419	0.093985	-0.301433
O3	O	1.240342	0.093977	-0.128633
O4	O	1.226414	0.093986	-0.490272
O5	O	1.227175	-0.094030	-0.143016
O6	O	1.069251	-0.094022	-0.315816
O7	O	1.371170	-0.094029	-0.331854
Zn8	Zn	1.218120	-0.123876	-0.326119
Zn9	Zn	1.235469	0.123831	-0.307168
O10	O	1.213247	-0.094021	-0.504655
C11	C	1.037176	-0.000018	-0.303206
C12	C	0.921984	-0.000015	-0.287048
N13	N	1.206287	-0.292929	-0.339052
C14	C	0.682406	-0.000027	-0.481305
C15	C	0.574172	-0.000025	-0.466128
C16	C	0.597280	-0.000018	-0.241519
C17	C	0.705514	-0.000020	-0.256696
C18	C	0.748073	-0.000023	-0.376592
C19	C	0.856309	-0.000016	-0.391767
C20	C	0.879414	-0.000017	-0.167160
C21	C	0.771181	-0.000016	-0.151984
C22	C	1.329645	-0.529583	-0.204159
C23	C	1.321382	-0.647925	-0.213209
C24	C	1.181493	-0.647956	-0.366196
C25	C	1.189757	-0.529614	-0.357145
C26	C	1.263836	-0.470432	-0.276126
C27	C	1.272103	-0.352089	-0.267083
C28	C	1.132211	-0.352122	-0.420062
C29	C	1.123947	-0.470463	-0.429112
C30	C	1.416413	-0.000024	-0.330081
C31	C	1.531605	-0.000019	-0.346239
C32	C	1.232745	-0.000025	-0.089214
C33	C	1.229712	-0.000021	0.049670
N34	N	1.247309	0.292885	-0.294226
C35	C	1.220844	-0.000017	-0.544073
C36	C	1.223877	-0.000013	-0.682956
C37	C	1.318078	-0.000022	0.115055
C38	C	1.314946	-0.000017	0.258599
H39	H	0.717058	-0.000027	-0.578929
H40	H	0.932893	-0.000006	-0.081895
H41	H	1.396050	-0.000030	0.064764
H42	H	1.390594	-0.000023	0.314815
H43	H	1.151741	-0.000012	0.099961
H44	H	1.389970	-0.481396	-0.138199
H45	H	1.148224	-0.000021	0.260835
O46	O	0.897829	0.000032	-0.508137
C47	C	1.007439	0.000007	-0.499086
H48	H	1.034645	0.035605	-0.401925
H49	H	1.045014	0.054588	-0.572406
H50	H	1.031292	-0.090189	-0.515611
O51	O	0.510232	-0.000072	-0.567715
C52	C	0.405576	-0.000039	-0.528613
H53	H	0.398229	-0.035632	-0.432748
H54	H	0.353240	-0.054620	-0.598742
H55	H	0.380633	0.090159	-0.522733
H56	H	1.078627	-0.303948	-0.478666
H57	H	0.736513	-0.000027	-0.054368
H58	H	0.562603	-0.000110	-0.143912
H59	H	1.332425	-0.303903	-0.201116
H60	H	1.374969	-0.696082	-0.154605
H61	H	1.121173	-0.696157	-0.432151
H62	H	1.063631	-0.518663	-0.495074
