data_functionalizedCrystal
_audit_creation_method	'MofGen! by Chris Wilmer'
_symmetry_space_group_name_H-M	'P1'
_symmetry_Int_Tables_number	1
_symmetry_cell_setting	triclinic
loop_
_symmetry_equiv_pos_as_xyz
  x,y,z
_cell_length_a	16.120484
_cell_length_b	19.077220
_cell_length_c	19.076919
_cell_angle_alpha	89.883202
_cell_angle_beta	84.953390
_cell_angle_gamma	84.671930
loop_
_atom_site_label
_atom_site_type_symbol
_atom_site_fract_x
_atom_site_fract_y
_atom_site_fract_z
Zn1	Zn	-0.303917	-1.044775	0.453071
Zn2	Zn	-0.438068	-1.043449	0.341061
Zn3	Zn	-0.303473	-0.932010	0.330825
Zn4	Zn	-0.449231	-0.920772	0.454248
O5	O	-0.373672	-0.985252	0.394801
O6	O	-0.317227	-1.143132	0.442004
O7	O	-0.415357	-1.032815	0.241174
O8	O	-0.186389	-0.952227	0.342265
O9	O	-0.415787	-1.142158	0.359711
O10	O	-0.186715	-1.035075	0.432079
O11	O	-0.316470	-0.950941	0.233653
O12	O	-0.327294	-0.831986	0.343405
O13	O	-0.434812	-0.933073	0.552621
O14	O	-0.434381	-0.823730	0.434084
O15	O	-0.328050	-1.024177	0.551757
O16	O	-0.556692	-1.021917	0.360852
O17	O	-0.564893	-0.931787	0.444010
C18	C	-0.382001	-0.802309	0.387762
C19	C	-0.385585	-0.724044	0.384768
C20	C	-0.411261	-0.283440	0.363331
C21	C	-0.407888	-0.356978	0.366138
C22	C	-0.354978	-0.394250	0.410465
C23	C	-0.305431	-0.357980	0.451981
C24	C	-0.308800	-0.284442	0.449169
C25	C	-0.339407	-0.614237	0.423473
C26	C	-0.336044	-0.687779	0.426283
C27	C	-0.438500	-0.686773	0.340439
C28	C	-0.441868	-0.613234	0.337634
C29	C	-0.392317	-0.576970	0.379148
N30	N	-0.351532	-0.469418	0.413337
N31	N	-0.395760	-0.501804	0.376271
C32	C	-0.591166	-0.975507	0.403685
C33	C	-0.684209	-0.971402	0.407512
C34	C	-0.854559	-0.963911	0.414513
C35	C	-0.891939	-1.006718	0.375106
C36	C	-0.986728	-1.002550	0.379001
C37	C	-0.759762	-0.968078	0.410618
C38	C	-0.155329	-0.995052	0.385899
C39	C	-0.062284	-0.999229	0.382105
C40	C	-0.382726	-0.977519	0.578451
C41	C	-0.386584	-0.974224	0.656711
C42	C	-0.365304	-0.168909	0.401860
C43	C	-0.361719	-0.247174	0.404845
C44	C	-0.364592	-0.992997	0.211865
C45	C	-0.360492	-0.996439	0.133601
C46	C	-0.332814	-1.020107	0.693030
C47	C	-0.336436	-1.017003	0.766563
C48	C	-0.393833	-0.968018	0.803778
C49	C	-0.447605	-0.922131	0.767454
C50	C	-0.443978	-0.925232	0.693922
C51	C	-0.410637	-0.953653	1.023745
C52	C	-0.414261	-0.950556	1.097282
C53	C	-0.303091	-1.045428	1.096386
C54	C	-0.299473	-1.048528	1.022852
C55	C	-0.353242	-1.002638	0.986535
N56	N	-0.397539	-0.964845	0.878941
N57	N	-0.349531	-1.005808	0.911373
H58	H	-0.448229	-0.386502	0.332331
O59	O	-0.284712	-0.724092	0.469325
C60	C	-0.292354	-0.796775	0.462891
H61	H	-0.355315	-0.804896	0.442766
H62	H	-0.239835	-0.821435	0.424229
C63	C	-0.209267	-0.821912	0.559996
C64	C	-0.286600	-0.831887	0.535283
H65	H	-0.205714	-0.843572	0.604649
H66	H	-0.204115	-0.772944	0.564329
H67	H	-0.165510	-0.842462	0.527771
H68	H	-0.330355	-0.811329	0.567504
H69	H	-0.291759	-0.880851	0.530957
O70	O	-0.291192	-0.578990	0.463698
C71	C	-0.237036	-0.540534	0.419856
H72	H	-0.228004	-0.565251	0.365039
H73	H	-0.265345	-0.483748	0.416319
C74	C	-0.162929	-0.511486	0.518116
C75	C	-0.151831	-0.541849	0.450792
H76	H	-0.110372	-0.512294	0.537200
H77	H	-0.199417	-0.537393	0.547655
H78	H	-0.186523	-0.464167	0.515160
H79	H	-0.128248	-0.589169	0.453750
H80	H	-0.115337	-0.515950	0.421254
H81	H	-0.893744	-0.924134	0.451173
H82	H	-0.461003	-0.910665	1.127581
O83	O	-0.493278	-0.577141	0.294509
C84	C	-0.536297	-0.624919	0.258480
H85	H	-0.499488	-0.678973	0.256695
H86	H	-0.600833	-0.628818	0.287069
C87	C	-0.591044	-0.532434	0.185106
C88	C	-0.545831	-0.598823	0.182909
H89	H	-0.596928	-0.516336	0.138492
H90	H	-0.562064	-0.500245	0.209381
H91	H	-0.644818	-0.535693	0.208934
H92	H	-0.492054	-0.595562	0.159090
H93	H	-0.574802	-0.631011	0.158628
H94	H	-0.454431	-0.916296	0.994185
H95	H	-0.262347	-0.388332	0.488069
O96	O	-0.276984	-1.067713	0.656989
C97	C	-0.230316	-1.107555	0.704817
H98	H	-0.231317	-1.076632	0.756003
H99	H	-0.258921	-1.159326	0.715950
C100	C	-0.138114	-1.160892	0.610013
C101	C	-0.139338	-1.122910	0.672879
H102	H	-0.081996	-1.170367	0.590311
H103	H	-0.169557	-1.134052	0.577790
H104	H	-0.161956	-1.204030	0.619299
H105	H	-0.115506	-1.079769	0.663591
H106	H	-0.107890	-1.149743	0.705100
O107	O	-0.845071	-1.054110	0.331375
C108	C	-0.759492	-1.047779	0.337176
H109	H	-0.751317	-0.992963	0.357633
H110	H	-0.734556	-1.089012	0.375301
C111	C	-0.720776	-1.126541	0.239251
C112	C	-0.710735	-1.059212	0.264371
H113	H	-0.690699	-1.133596	0.194343
H114	H	-0.778432	-1.130809	0.235344
H115	H	-0.699997	-1.160894	0.271028
H116	H	-0.731524	-1.024861	0.232598
H117	H	-0.653081	-1.054939	0.268271
H118	H	-0.292653	-1.054367	0.796130
O119	O	-0.243640	-1.096131	0.986811
C120	C	-0.196971	-1.135976	1.034636
H121	H	-0.197968	-1.105055	1.085823
H122	H	-0.225578	-1.187746	1.045768
C123	C	-0.104776	-1.189312	0.939827
C124	C	-0.105995	-1.151332	1.002694
H125	H	-0.048659	-1.198788	0.920123
H126	H	-0.136219	-1.162470	0.907606
H127	H	-0.128620	-1.232450	0.949112
H128	H	-0.082161	-1.108192	0.993406
H129	H	-0.074545	-1.178168	1.034913
O130	O	-0.250893	-1.089926	1.131772
C131	C	-0.266412	-1.076699	1.204655
H132	H	-0.296799	-1.020707	1.213722
H133	H	-0.310115	-1.115585	1.228950
C134	C	-0.145957	-1.154130	1.228064
C135	C	-0.183273	-1.085356	1.239201
H136	H	-0.094674	-1.159473	1.249375
H137	H	-0.135502	-1.163043	1.178962
H138	H	-0.182384	-1.186527	1.248310
H139	H	-0.146850	-1.052961	1.218947
H140	H	-0.193719	-1.076438	1.288301
H141	H	-0.478841	-0.716307	0.306640
H142	H	-0.494336	-0.882244	0.797760
O143	O	-0.496306	-0.880640	0.658752
C144	C	-0.547735	-0.836732	0.707364
H145	H	-0.551897	-0.863228	0.761012
H146	H	-0.519911	-0.784296	0.711868
C147	C	-0.630767	-0.791266	0.616018
C148	C	-0.635884	-0.823812	0.681909
H149	H	-0.685141	-0.783293	0.600316
H150	H	-0.596117	-0.820845	0.583267
H151	H	-0.607577	-0.747573	0.619780
H152	H	-0.659065	-0.867508	0.678144
H153	H	-0.670541	-0.794239	0.714659
H154	H	-0.454350	-0.253098	0.327239
H155	H	-0.268455	-0.254916	0.482973
