data_functionalizedCrystal
_audit_creation_method	'MofGen! by Chris Wilmer'
_symmetry_space_group_name_H-M	'P1'
_symmetry_Int_Tables_number	1
_symmetry_cell_setting	triclinic
loop_
_symmetry_equiv_pos_as_xyz
  x,y,z
_cell_length_a	18.050590
_cell_length_b	29.839131
_cell_length_c	18.050582
_cell_angle_alpha	89.966870
_cell_angle_beta	90.000767
_cell_angle_gamma	90.024397
loop_
_atom_site_label
_atom_site_type_symbol
_atom_site_fract_x
_atom_site_fract_y
_atom_site_fract_z
Zn1	Zn	1.135256	-0.179012	-0.419547
Zn2	Zn	1.135152	-0.254134	-0.295334
Zn3	Zn	1.011075	-0.179005	-0.295405
Zn4	Zn	1.011008	-0.254101	-0.419517
O5	O	1.073123	-0.216563	-0.357451
O6	O	1.239167	-0.188994	-0.403053
O7	O	1.118677	-0.244179	-0.191419
O8	O	1.027620	-0.116138	-0.311915
O9	O	1.239090	-0.244186	-0.311794
O10	O	1.118855	-0.116144	-0.403122
O11	O	1.027519	-0.188981	-0.191471
O12	O	0.907142	-0.188950	-0.311886
O13	O	1.027506	-0.244130	-0.523445
O14	O	0.907093	-0.244123	-0.403070
O15	O	1.118790	-0.188962	-0.523468
O16	O	1.118612	-0.316997	-0.311765
O17	O	1.027404	-0.316973	-0.403001
C18	C	0.880171	-0.216532	-0.357483
C19	C	0.797625	-0.216530	-0.357514
C20	C	0.598169	-0.246619	-0.406982
C21	C	0.548784	-0.205656	-0.425270
C22	C	0.646495	-0.216555	-0.357478
C23	C	0.548798	-0.257541	-0.339189
C24	C	0.500510	-0.216583	-0.357444
C25	C	0.598197	-0.175570	-0.375801
C26	C	0.598215	-0.227483	-0.289689
C27	C	0.548852	-0.186492	-0.307951
C28	C	0.730593	-0.216540	-0.357499
C29	C	0.416413	-0.216594	-0.357423
C30	C	1.073010	-0.333286	-0.357388
C31	C	1.073029	-0.383220	-0.357386
C32	C	1.120619	-0.692831	-0.405010
C33	C	1.120699	-0.880504	-0.405054
O34	O	1.161051	-0.904742	-0.445499
N35	N	1.073249	-0.904005	-0.357533
C36	C	1.025772	-0.880585	-0.310001
O37	O	0.985409	-0.904880	-0.269588
C38	C	1.025688	-0.692912	-0.309961
C39	C	1.073147	-0.669414	-0.357480
C40	C	1.168073	-0.669333	-0.452525
C41	C	1.168055	-0.622417	-0.452511
C42	C	1.120583	-0.599000	-0.404981
C43	C	1.073129	-0.622499	-0.357465
C44	C	0.978208	-0.669493	-0.262433
C45	C	0.978190	-0.622572	-0.262428
C46	C	1.025648	-0.599074	-0.309947
C47	C	1.025639	-0.552166	-0.309920
N48	N	1.073089	-0.528665	-0.357442
C49	C	1.120561	-0.552082	-0.404972
C50	C	1.025820	-0.979115	-0.310024
C51	C	1.025842	-1.026033	-0.310033
C52	C	1.120769	-1.025949	-0.405088
C53	C	1.120750	-0.979031	-0.405075
C54	C	1.073270	-0.955614	-0.357546
C55	C	1.120521	-0.453557	-0.404937
C56	C	1.120501	-0.406637	-0.404916
C57	C	1.025572	-0.406725	-0.309865
C58	C	1.025594	-0.453640	-0.309883
C59	C	1.073071	-0.477055	-0.357425
O60	O	0.985303	-0.527900	-0.269503
O61	O	1.160907	-0.527779	-0.445391
C62	C	1.120636	-0.739747	-0.405024
C63	C	1.073182	-0.763245	-0.357509
C64	C	1.025710	-0.739828	-0.309978
C65	C	1.073204	-0.810163	-0.357518
C66	C	1.120676	-0.833580	-0.405048
C67	C	1.168126	-0.810079	-0.452569
C68	C	1.168108	-0.763164	-0.452554
C69	C	0.978260	-0.763329	-0.262457
C70	C	0.978282	-0.810244	-0.262475
C71	C	1.025754	-0.833661	-0.310005
C72	C	1.266828	-0.216594	-0.357419
C73	C	1.349374	-0.216607	-0.357406
C74	C	1.073152	-0.216543	-0.551156
C75	C	1.073164	-0.216535	-0.633702
C76	C	1.073257	-0.099385	-0.357530
C77	C	1.073314	-0.049450	-0.357564
C78	C	1.023562	-0.246494	-0.833141
C79	C	1.091315	-0.257483	-0.882510
C80	C	1.073201	-0.216500	-0.784833
C81	C	1.005485	-0.205498	-0.882545
C82	C	1.073230	-0.216468	-0.930818
C83	C	1.140990	-0.227511	-0.833115
C84	C	1.055114	-0.175507	-0.833145
C85	C	1.122914	-0.186481	-0.882492
C86	C	1.073183	-0.216520	-0.700734
C87	C	1.073256	-0.216448	-1.014915
C88	C	1.073137	-0.216550	-0.164499
C89	C	1.073268	-0.216432	-0.081953
H90	H	0.527095	-0.292191	-0.323737
Br91	Br	0.913822	-0.731556	-0.197950
Br92	Br	1.184916	-0.374749	-0.469408
H93	H	1.039779	-0.140864	-0.811445
H94	H	0.948207	-0.196207	-0.904258
Br95	Br	1.236485	-0.243068	-0.797084
Br96	Br	0.961150	-0.374935	-0.245362
H97	H	0.619826	-0.271999	-0.448893
Br98	Br	1.192978	-0.144181	-0.918387
H99	H	1.106631	-0.292136	-0.904195
H100	H	0.527072	-0.196422	-0.482583
H101	H	0.619805	-0.140910	-0.391320
H102	H	0.527335	-0.161050	-0.266072
H103	H	0.619944	-0.236730	-0.232392
H104	H	1.159176	-0.472615	-0.443656
H105	H	0.939637	-0.829373	-0.223772
Br106	Br	0.961373	-0.947343	-0.245518
H107	H	1.206730	-0.688394	-0.491235
Br108	Br	1.232462	-0.590534	-0.517010
Br109	Br	1.185160	-0.947145	-0.469567
H110	H	0.987204	-1.045161	-0.271331
Br111	Br	1.185195	-1.057739	-0.469592
H112	H	0.981623	-0.271892	-0.811472
Br113	Br	0.913748	-0.590795	-0.197922
H114	H	0.939562	-0.688617	-0.223737
H115	H	1.206782	-0.829154	-0.491267
Br116	Br	1.232520	-0.731280	-0.517048
Br117	Br	0.961198	-0.485532	-0.245381
