data_functionalizedCrystal
_audit_creation_method	'MofGen! by Chris Wilmer'
_symmetry_space_group_name_H-M	'P1'
_symmetry_Int_Tables_number	1
_symmetry_cell_setting	triclinic
loop_
_symmetry_equiv_pos_as_xyz
  x,y,z
_cell_length_a	16.120484
_cell_length_b	12.759395
_cell_length_c	12.759387
_cell_angle_alpha	89.979491
_cell_angle_beta	87.136424
_cell_angle_gamma	87.073025
loop_
_atom_site_label
_atom_site_type_symbol
_atom_site_fract_x
_atom_site_fract_y
_atom_site_fract_z
Zn1	Zn	-0.331828	-1.584987	0.615167
Zn2	Zn	0.168172	-1.084987	1.115167
Zn3	Zn	-0.471265	-1.575935	0.448379
Zn4	Zn	0.028735	-1.075935	0.948379
Zn5	Zn	-0.331874	-1.409282	0.439506
Zn6	Zn	0.168126	-0.909282	0.939506
Zn7	Zn	-0.471205	-1.400339	0.624015
Zn8	Zn	0.028795	-0.900339	1.124015
O9	O	-0.401543	-1.492636	0.531767
O10	O	0.098457	-0.992636	1.031767
O11	O	-0.350331	-1.730807	0.593052
O12	O	0.149669	-1.230807	1.093052
O13	O	-0.452818	-1.553783	0.300184
O14	O	0.047182	-1.053783	0.800184
O15	O	-0.215202	-1.440121	0.455392
O16	O	0.284798	-0.940121	0.955392
O17	O	-0.452774	-1.724157	0.470514
O18	O	0.047226	-1.224157	0.970514
O19	O	-0.215169	-1.569211	0.584449
O20	O	0.284831	-1.069211	1.084449
O21	O	-0.350408	-1.431344	0.293665
O22	O	0.149592	-0.931344	0.793665
O23	O	-0.350350	-1.261075	0.463971
O24	O	0.149650	-0.761075	0.963971
O25	O	-0.452673	-1.424878	0.769859
O26	O	0.047327	-0.924878	1.269859
O27	O	-0.452717	-1.254504	0.599529
O28	O	0.047283	-0.754504	1.099529
O29	O	-0.350273	-1.560539	0.763359
O30	O	0.149727	-1.060539	1.263359
O31	O	-0.587922	-1.545111	0.479094
O32	O	-0.087922	-1.045111	0.979094
O33	O	-0.587879	-1.416101	0.608132
O34	O	-0.087879	-0.916101	1.108132
C35	C	-0.618150	-1.478681	0.545559
C36	C	-0.118150	-0.978681	1.045559
C37	C	-0.710816	-1.472808	0.551495
C38	C	-0.210816	-0.972808	1.051495
C39	C	-0.401533	-1.219669	0.531748
C40	C	0.098467	-0.719669	1.031748
C41	C	-0.401549	-1.102891	0.531766
C42	C	0.098451	-0.602891	1.031766
C43	C	-0.401461	-1.492720	0.805795
C44	C	0.098539	-0.992720	1.305795
C45	C	-0.401426	-1.492756	0.922570
C46	C	0.098574	-0.992756	1.422570
C47	C	-0.880477	-1.462090	0.562353
C48	C	-0.380477	-0.962090	1.062353
C49	C	-0.921768	-1.523370	0.501198
C50	C	-0.421768	-1.023370	1.001198
C51	C	-1.016173	-1.517406	0.507239
C52	C	-0.516173	-1.017406	1.007239
C53	C	-0.786063	-1.468052	0.556313
C54	C	-0.286063	-0.968052	1.056313
C55	C	-0.184090	-1.506673	0.517944
C56	C	0.315910	-1.006673	1.017944
C57	C	-0.091424	-1.512655	0.512053
C58	C	0.408576	-1.012655	1.012053
C59	C	-0.401554	-1.766669	0.531786
C60	C	0.098446	-1.266669	1.031786
C61	C	-0.401558	-1.883445	0.531794
C62	C	0.098442	-1.383445	1.031794
C63	C	-0.508315	-1.096077	0.672716
C64	C	-0.008315	-0.596077	1.172716
C65	C	-0.561705	-1.037808	0.743194
C66	C	-0.061705	-0.537808	1.243194
C67	C	-0.561715	-0.928086	0.743207
C68	C	-0.061715	-0.428086	1.243207
C69	C	-0.508328	-0.876630	0.672737
C70	C	-0.008328	-0.376630	1.172737
C71	C	-0.454938	-0.934899	0.602259
C72	C	0.045062	-0.434899	1.102259
C73	C	-0.454935	-1.044623	0.602251
C74	C	0.045065	-0.544623	1.102251
C75	C	-0.348169	-0.941713	0.461316
C76	C	0.151831	-0.441713	0.961316
C77	C	-0.348161	-1.051436	0.461296
C78	C	0.151839	-0.551436	0.961296
C79	C	-0.294781	-0.890258	0.390846
C80	C	0.205219	-0.390258	0.890846
C81	C	-0.241394	-0.948526	0.320361
C82	C	0.258606	-0.448526	0.820361
C83	C	-0.241387	-1.058255	0.320350
C84	C	0.258613	-0.558255	0.820350
C85	C	-0.294771	-1.109704	0.390818
C86	C	0.205229	-0.609704	0.890818
C87	C	-0.401564	-1.492616	0.258801
C88	C	0.098436	-0.992616	0.758801
C89	C	-0.401364	-1.492798	0.142012
C90	C	0.098636	-0.992798	0.642012
C91	C	-0.294805	-1.634028	0.915821
C92	C	0.205195	-1.134028	1.415821
C93	C	-0.241481	-1.704680	0.967306
C94	C	0.258519	-1.204680	1.467306
C95	C	-0.241451	-1.704707	1.077026
C96	C	0.258549	-1.204707	1.577026
C97	C	-0.294748	-1.634074	1.135263
C98	C	0.205252	-1.134074	1.635263
C99	C	-0.348071	-1.563422	1.083777
C100	C	0.151929	-1.063422	1.583777
C101	C	-0.348098	-1.563404	0.974055
C102	C	0.151902	-1.063404	1.474055
C103	C	-0.454688	-1.422147	1.090526
C104	C	0.045312	-0.922147	1.590526
C105	C	-0.454723	-1.422123	0.980807
C106	C	0.045277	-0.922123	1.480807
C107	C	-0.507985	-1.351514	1.148763
C108	C	-0.007985	-0.851514	1.648763
C109	C	-0.561313	-1.280866	1.097278
C110	C	-0.061313	-0.780866	1.597278
C111	C	-0.561342	-1.280842	0.987551
C112	C	-0.061342	-0.780842	1.487551
C113	C	-0.508047	-1.351472	0.929321
C114	C	-0.008047	-0.851472	1.429321
H115	H	-0.886218	-1.580310	0.444303
H116	H	-0.386218	-1.080310	0.944303
C117	C	-0.294786	-0.769561	0.390873
C118	C	0.205214	-0.269561	0.890873
N119	N	-0.294788	-0.678650	0.390892
N120	N	0.205212	-0.178650	0.890892
H121	H	-0.604699	-1.223356	1.144702
H122	H	-0.104699	-0.723356	1.644702
C123	C	-0.294774	-1.230401	0.390806
C124	C	0.205226	-0.730401	0.890806
N125	N	-0.294778	-1.321311	0.390800
N126	N	0.205222	-0.821311	0.890800
H127	H	-0.294832	-1.634022	0.826481
H128	H	0.205168	-1.134022	1.326481
C129	C	-0.928502	-1.385159	0.639199
C130	C	-0.428502	-0.885159	1.139199
N131	N	-0.964683	-1.327210	0.697073
N132	N	-0.464683	-0.827210	1.197073
C133	C	-0.508310	-1.216774	0.672706
C134	C	-0.008310	-0.716774	1.172706
N135	N	-0.508305	-1.307684	0.672704
N136	N	-0.008305	-0.807684	1.172704
C137	C	-0.182856	-1.782372	0.903238
C138	C	0.317144	-1.282372	1.403238
N139	N	-0.138699	-1.840888	0.854984
N140	N	0.361301	-1.340888	1.354984
C141	C	-0.182673	-0.891918	0.242855
C142	C	0.317327	-0.391918	0.742855
N143	N	-0.138444	-0.849277	0.184475
N144	N	0.361556	-0.349277	0.684475
H145	H	-0.198025	-1.762231	1.118945
H146	H	0.301975	-1.262231	1.618945
H147	H	-0.605170	-1.079716	0.800571
H148	H	-0.105170	-0.579716	1.300571
H149	H	-0.605185	-0.880644	0.800602
H150	H	-0.105185	-0.380644	1.300602
H151	H	-0.508334	-0.787289	0.672763
H152	H	-0.008334	-0.287289	1.172763
C153	C	-0.182653	-1.122342	0.242817
C154	C	0.317347	-0.622342	0.742817
N155	N	-0.138413	-1.170608	0.184416
N156	N	0.361587	-0.670608	0.684416
H157	H	-0.294711	-1.634094	1.224602
H158	H	0.205289	-1.134094	1.724602
H159	H	-0.604756	-1.223298	0.945638
H160	H	-0.104756	-0.723298	1.445638
H161	H	-0.508069	-1.351463	0.839981
H162	H	-0.008069	-0.851463	1.339981
H163	H	-0.507953	-1.351537	1.238102
H164	H	-0.007953	-0.851537	1.738102
