data_functionalizedCrystal
_audit_creation_method	'MofGen! by Chris Wilmer'
_symmetry_space_group_name_H-M	'P1'
_symmetry_Int_Tables_number	1
_symmetry_cell_setting	triclinic
loop_
_symmetry_equiv_pos_as_xyz
  x,y,z
_cell_length_a	17.699083
_cell_length_b	8.559649
_cell_length_c	16.776229
_cell_angle_alpha	89.994739
_cell_angle_beta	89.998886
_cell_angle_gamma	76.530840
loop_
_atom_site_label
_atom_site_type_symbol
_atom_site_fract_x
_atom_site_fract_y
_atom_site_fract_z
O1	O	0.992507	0.202110	-0.066174
O2	O	0.770623	0.228404	-0.066200
O3	O	0.901113	-0.017421	-0.066184
O4	O	0.862017	0.447935	-0.066190
O5	O	0.901098	-0.017436	0.066393
O6	O	0.770608	0.228389	0.066377
O7	O	0.992492	0.202095	0.066403
Zn8	Zn	0.881548	0.215240	0.087439
Zn9	Zn	0.881567	0.215259	-0.087236
O10	O	0.862002	0.447920	0.066387
C11	C	0.742473	0.227455	0.000085
C12	C	0.658616	0.224628	0.000075
C13	C	0.601734	0.368922	0.000074
C14	C	0.522943	0.366257	0.000084
C15	C	0.501037	0.219296	0.000090
C16	C	0.557926	0.074990	0.000094
C17	C	0.636715	0.077657	0.000090
C18	C	0.240179	0.064231	0.000114
C19	C	0.161383	0.061575	0.000116
C20	C	0.126407	0.352831	0.000108
C21	C	0.205196	0.355498	0.000104
C22	C	0.262078	0.211193	0.000112
C23	C	0.347512	0.214085	0.000102
C24	C	0.415605	0.216402	0.000094
C25	C	0.904069	-0.076970	0.000103
C26	C	0.912888	-0.254384	0.000100
C27	C	1.020643	0.203044	0.000116
C28	C	1.104499	0.205871	0.000120
C29	C	0.859047	0.507469	0.000098
C30	C	0.850227	0.684883	0.000096
N31	N	0.881540	0.215225	0.206650
N32	N	0.881581	0.215261	-0.206447
C33	C	0.939335	0.106418	0.248374
C34	C	0.939339	0.106417	0.331827
C35	C	0.881552	0.215231	0.373553
C36	C	0.823752	0.324043	0.331823
C37	C	0.823745	0.324036	0.248372
C38	C	0.823777	0.324075	0.668370
C39	C	0.823790	0.324077	0.751827
C40	C	0.939371	0.106456	0.751824
C41	C	0.939364	0.106448	0.668374
C42	C	0.881563	0.215254	0.626651
C43	C	0.881558	0.215252	0.536163
C44	C	0.881559	0.215242	0.464040
H45	H	0.683029	-0.039842	0.000091
O46	O	0.767571	0.429836	0.792238
C47	C	0.716561	0.525893	0.737519
H48	H	0.719511	0.460369	0.678036
H49	H	0.734224	0.644565	0.728633
C50	C	0.629371	0.639505	0.843161
C51	C	0.632989	0.559021	0.770104
H52	H	0.577820	0.659947	0.863261
H53	H	0.663738	0.574795	0.880027
H54	H	0.644094	0.738390	0.835745
H55	H	0.618276	0.460130	0.777522
H56	H	0.598617	0.623716	0.733240
H57	H	0.080083	0.470330	0.000106
H58	H	0.789834	-0.231386	0.000091
H59	H	0.776714	0.412671	0.634406
H60	H	0.286484	-0.053271	0.000122
O61	O	0.767668	0.429955	0.207874
C62	C	0.770759	0.588138	0.228266
H63	H	0.831318	0.588766	0.251199
H64	H	0.726078	0.635196	0.276708
C65	C	0.678309	0.695743	0.125961
C66	C	0.752691	0.696515	0.154121
H67	H	0.667160	0.762598	0.080226
H68	H	0.676224	0.589172	0.112224
H69	H	0.641084	0.734954	0.166336
H70	H	0.789915	0.657286	0.113750
H71	H	0.754782	0.803082	0.167849
O72	O	0.536515	-0.067630	0.000067
C73	C	0.454776	-0.039047	0.000088
H74	H	0.428982	0.085748	-0.025014
H75	H	0.433247	-0.046711	0.063693
C76	C	0.461094	-0.319323	-0.021068
C77	C	0.429413	-0.166053	-0.051905
H78	H	0.445448	-0.397669	-0.053136
H79	H	0.516163	-0.338582	-0.021079
H80	H	0.443150	-0.325687	0.031936
H81	H	0.447365	-0.159684	-0.104904
H82	H	0.374347	-0.146795	-0.051904
H83	H	0.143552	-0.058106	0.000123
H84	H	0.973285	-0.338124	0.000113
O85	O	0.995508	0.000560	0.207968
C86	C	1.046529	-0.095450	0.262695
H87	H	1.015604	-0.097165	0.322185
H88	H	1.099742	-0.043704	0.271560
C89	C	1.110137	-0.265803	0.157071
C90	C	1.072152	-0.267920	0.230136
H91	H	1.125946	-0.372189	0.136987
H92	H	1.075765	-0.201116	0.120200
H93	H	1.154477	-0.222673	0.164469
H94	H	1.027808	-0.311030	0.222736
H95	H	1.106517	-0.332618	0.267005
H96	H	0.986399	0.017817	0.365798
H97	H	0.986422	0.017847	0.634403
H98	H	0.986435	0.017855	0.785804
H99	H	0.619562	0.488595	0.000068
H100	H	0.776697	0.412637	0.365802
H101	H	0.476631	0.483756	0.000082
H102	H	0.223027	0.475168	0.000095
