data_functionalizedCrystal
_audit_creation_method	'MofGen! by Chris Wilmer'
_symmetry_space_group_name_H-M	'P1'
_symmetry_Int_Tables_number	1
_symmetry_cell_setting	triclinic
loop_
_symmetry_equiv_pos_as_xyz
  x,y,z
_cell_length_a	16.974800
_cell_length_b	11.792254
_cell_length_c	16.053802
_cell_angle_alpha	92.583162
_cell_angle_beta	91.074188
_cell_angle_gamma	83.793472
loop_
_atom_site_label
_atom_site_type_symbol
_atom_site_fract_x
_atom_site_fract_y
_atom_site_fract_z
O1	O	1.049700	0.144679	0.001523
O2	O	1.549700	0.644679	0.501523
O3	O	0.820313	0.162053	-0.013984
O4	O	1.320313	0.662053	0.486016
O5	O	0.940568	-0.011836	-0.005848
O6	O	1.440568	0.488164	0.494152
O7	O	0.929446	0.318567	-0.006612
O8	O	1.429446	0.818567	0.493388
O9	O	0.933948	-0.002304	0.132563
O10	O	1.433948	0.497696	0.632563
O11	O	0.813694	0.171585	0.124427
O12	O	1.313694	0.671585	0.624427
O13	O	1.043081	0.154210	0.139934
O14	O	1.543081	0.654210	0.639934
Zn15	Zn	0.927336	0.164411	0.154157
Zn16	Zn	1.427336	0.664411	0.654157
Zn17	Zn	0.936058	0.151852	-0.028206
Zn18	Zn	1.436058	0.651852	0.471794
O19	O	0.922826	0.328099	0.131799
O20	O	1.422826	0.828099	0.631799
C21	C	0.787637	0.165983	0.053237
C22	C	1.287637	0.665983	0.553237
C23	C	0.700134	0.163481	0.047322
C24	C	1.200134	0.663481	0.547322
C25	C	0.655421	0.167498	0.119992
C26	C	1.155421	0.667498	0.619992
C27	C	0.573203	0.165128	0.114437
C28	C	1.073203	0.665128	0.614437
C29	C	0.535700	0.158750	0.036210
C30	C	1.035700	0.658750	0.536210
C31	C	0.580419	0.154729	-0.036467
C32	C	1.080419	0.654729	0.463533
C33	C	0.662635	0.157090	-0.030910
C34	C	1.162635	0.657090	0.469090
C35	C	0.290196	0.151122	0.011502
C36	C	0.790196	0.651122	0.511502
C37	C	0.207974	0.148765	0.005951
C38	C	0.707974	0.648765	0.505951
C39	C	0.200764	0.159162	0.156855
C40	C	0.700764	0.659162	0.656855
C41	C	0.282982	0.161530	0.162404
C42	C	0.782982	0.661530	0.662404
C43	C	0.327694	0.157503	0.089728
C44	C	0.827694	0.657503	0.589728
N45	N	0.451660	0.156331	0.030529
N46	N	0.951660	0.656331	0.530529
N47	N	0.411733	0.159914	0.095409
N48	N	0.911733	0.659914	0.595409
C49	C	0.936557	-0.049357	0.063309
C50	C	1.436557	0.450643	0.563309
C51	C	0.934460	-0.175358	0.063167
C52	C	1.434460	0.324642	0.563167
C53	C	0.932757	-0.277684	0.063049
C54	C	1.432757	0.222316	0.563049
C55	C	0.930626	-0.406059	0.062897
C56	C	1.430626	0.093941	0.562897
C57	C	1.075757	0.150280	0.072712
C58	C	1.575757	0.650280	0.572712
C59	C	1.163261	0.152782	0.078622
C60	C	1.663261	0.652782	0.578622
C61	C	0.926837	0.365620	0.062639
C62	C	1.426837	0.865620	0.562639
C63	C	0.928934	0.491620	0.062776
C64	C	1.428934	0.991620	0.562776
N65	N	0.921390	0.172981	0.278615
N66	N	1.421390	0.672981	0.778615
N67	N	0.942010	0.143273	-0.152664
N68	N	1.442010	0.643273	0.347336
C69	C	0.972578	0.099018	0.325771
C70	C	1.472578	0.599018	0.825771
C71	C	0.968425	0.105023	0.412897
C72	C	1.468425	0.605023	0.912897
C73	C	0.913089	0.184999	0.452865
C74	C	1.413089	0.684999	0.952865
C75	C	0.861896	0.258966	0.405702
C76	C	1.361896	0.758966	0.905702
C77	C	0.866045	0.252954	0.318577
C78	C	1.366045	0.752954	0.818577
C79	C	0.894966	0.211228	0.713049
C80	C	1.394966	0.711228	1.213049
C81	C	0.890823	0.217237	0.800180
C82	C	1.390823	0.717237	1.300180
C83	C	0.997351	0.063292	0.807369
C84	C	1.497351	0.563292	1.307369
C85	C	1.001498	0.057292	0.720243
C86	C	1.501498	0.557292	1.220243
C87	C	0.950303	0.131254	0.673087
C88	C	1.450303	0.631254	1.173087
N89	N	0.908845	0.191142	0.541922
N90	N	1.408845	0.691142	1.041922
N91	N	0.954543	0.125105	0.584032
N92	N	1.454543	0.625105	1.084032
H93	H	0.164351	0.162439	0.216024
H94	H	0.664351	0.662439	0.716024
C95	C	0.661507	0.146598	-0.180629
C96	C	1.161507	0.646598	0.319371
C97	C	0.711786	0.152687	-0.110792
C98	C	1.211786	0.652687	0.389208
H99	H	0.691851	0.143885	-0.229945
H100	H	1.191851	0.643885	0.270055
H101	H	0.635021	0.079770	-0.179271
H102	H	1.135021	0.579770	0.320729
H103	H	0.623557	0.212023	-0.180039
H104	H	1.123557	0.712023	0.319961
H105	H	0.749732	0.087257	-0.111379
H106	H	1.249732	0.587257	0.388621
H107	H	0.738285	0.219522	-0.112151
H108	H	1.238285	0.719522	0.387849
C109	C	0.574333	0.175667	0.264154
C110	C	1.074333	0.675667	0.764154
C111	C	0.524054	0.169556	0.194319
C112	C	1.024054	0.669556	0.694319
H113	H	0.543988	0.178408	0.313471
H114	H	1.043988	0.678408	0.813471
H115	H	0.612277	0.110251	0.263578
H116	H	1.112277	0.610251	0.763578
H117	H	0.600823	0.242502	0.262780
H118	H	1.100823	0.742502	0.762780
H119	H	0.497569	0.102716	0.195690
H120	H	0.997569	0.602716	0.695690
H121	H	0.486096	0.234979	0.194896
H122	H	0.986096	0.734979	0.694896
H123	H	1.017641	0.033898	0.293236
H124	H	1.517641	0.533898	0.793236
C125	C	0.724465	0.326925	0.423356
C126	C	1.224465	0.826925	0.923356
C127	C	0.801066	0.346870	0.449636
C128	C	1.301066	0.846870	0.949636
H129	H	0.686912	0.381191	0.450484
H130	H	1.186912	0.881191	0.950484
H131	H	0.719613	0.333937	0.364727
H132	H	1.219613	0.833937	0.864727
H133	H	0.714917	0.252122	0.437050
H134	H	1.214917	0.752122	0.937050
H135	H	0.810616	0.421669	0.435936
H136	H	1.310616	0.921669	0.935936
H137	H	0.805921	0.339868	0.508278
H138	H	1.305921	0.839868	1.008278
H139	H	1.010106	0.044796	0.451292
H140	H	1.510106	0.544796	0.951292
C141	C	0.821885	0.447411	0.288660
C142	C	1.321885	0.947411	0.788660
C143	C	0.809783	0.334260	0.266737
C144	C	1.309783	0.834260	0.766737
H145	H	0.787151	0.497603	0.256652
H146	H	1.287151	0.997603	0.756652
H147	H	0.811492	0.462431	0.346260
H148	H	1.311492	0.962431	0.846260
H149	H	0.875219	0.458939	0.277922
H150	H	1.375219	0.958939	0.777922
H151	H	0.756450	0.322729	0.277481
H152	H	1.256450	0.822729	0.777481
H153	H	0.820170	0.319234	0.209124
H154	H	1.320170	0.819234	0.709124
H155	H	1.046558	-0.007831	0.687703
H156	H	1.546558	0.492169	1.187703
H157	H	0.685949	0.172702	0.183693
H158	H	1.185949	0.672702	0.683693
H159	H	1.039031	0.003074	0.845771
H160	H	1.539031	0.503074	1.345771
H161	H	0.845759	0.282367	0.832717
H162	H	1.345759	0.782367	1.332717
C163	C	0.850810	0.405686	0.683160
C164	C	1.350810	0.905686	1.183160
C165	C	0.838699	0.292541	0.661226
C166	C	1.338699	0.792541	1.161226
H167	H	0.816074	0.455889	0.651161
H168	H	1.316074	0.955889	1.151161
H169	H	0.840424	0.420696	0.740762
H170	H	1.340424	0.920696	1.240762
H171	H	0.904143	0.417211	0.672416
H172	H	1.404143	0.917211	1.172416
H173	H	0.785367	0.281014	0.671976
H174	H	1.285367	0.781014	1.171976
H175	H	0.849079	0.277527	0.603611
H176	H	1.349079	0.777527	1.103611
C177	C	0.267594	0.171563	0.311009
C178	C	0.767594	0.671563	0.811009
C179	C	0.324204	0.168539	0.248395
C180	C	0.824204	0.668539	0.748395
H181	H	0.293045	0.175887	0.364095
H182	H	0.793045	0.675887	0.864095
H183	H	0.229949	0.236546	0.305313
H184	H	0.729949	0.736546	0.805313
H185	H	0.241406	0.104293	0.306090
H186	H	0.741406	0.604293	0.806090
H187	H	0.350388	0.235813	0.253310
H188	H	0.850388	0.735813	0.753310
H189	H	0.361863	0.103549	0.254093
H190	H	0.861863	0.603549	0.754093
C191	C	0.223354	0.138723	-0.142661
C192	C	0.723354	0.638723	0.357339
C193	C	0.166747	0.141758	-0.080043
C194	C	0.666747	0.641758	0.419957
H195	H	0.197901	0.134397	-0.195746
H196	H	0.697901	0.634397	0.304254
H197	H	0.249548	0.205975	-0.137746
H198	H	0.749548	0.705975	0.362254
H199	H	0.260997	0.073723	-0.136965
H200	H	0.760997	0.573723	0.363035
H201	H	0.129107	0.206763	-0.085736
H202	H	0.629107	0.706763	0.414264
H203	H	0.140541	0.074498	-0.084961
H204	H	0.640541	0.574498	0.415039
C205	C	0.378386	0.245224	-0.070375
C206	C	0.878386	0.745224	0.429625
C207	C	0.339335	0.146709	-0.068385
C208	C	0.839335	0.646709	0.431615
H209	H	0.408726	0.242495	-0.119694
H210	H	0.908726	0.742495	0.380306
H211	H	0.340435	0.310633	-0.069793
H212	H	0.840435	0.810633	0.430207
H213	H	0.412491	0.249343	-0.022991
H214	H	0.912491	0.749343	0.477009
H215	H	0.305225	0.142594	-0.115765
H216	H	0.805225	0.642594	0.384235
H217	H	0.377290	0.081282	-0.068974
H218	H	0.877290	0.581282	0.431026
H219	H	0.549878	0.149527	-0.100161
H220	H	1.049878	0.649527	0.399839
