data_functionalizedCrystal
_audit_creation_method	'MofGen! by Chris Wilmer'
_symmetry_space_group_name_H-M	'P1'
_symmetry_Int_Tables_number	1
_symmetry_cell_setting	triclinic
loop_
_symmetry_equiv_pos_as_xyz
  x,y,z
_cell_length_a	19.121102
_cell_length_b	19.120786
_cell_length_c	19.120904
_cell_angle_alpha	90.133503
_cell_angle_beta	89.911827
_cell_angle_gamma	89.915559
loop_
_atom_site_label
_atom_site_type_symbol
_atom_site_fract_x
_atom_site_fract_y
_atom_site_fract_z
Zn1	Zn	1.040890	-0.342335	0.426845
Zn2	Zn	1.540890	0.157665	0.926845
Zn3	Zn	1.041233	-0.454595	0.304618
Zn4	Zn	1.541233	0.045405	0.804618
Zn5	Zn	0.929064	-0.332381	0.305071
Zn6	Zn	1.429064	0.167619	0.805071
Zn7	Zn	0.919063	-0.454124	0.416841
Zn8	Zn	1.419063	0.045876	0.916841
O9	O	0.982562	-0.395859	0.363344
O10	O	1.482562	0.104141	0.863344
O11	O	1.138863	-0.361590	0.414628
O12	O	1.638863	0.138410	0.914628
O13	O	1.030682	-0.434414	0.206750
O14	O	1.530682	0.065586	0.706750
O15	O	0.947940	-0.235771	0.325601
O16	O	1.447940	0.264229	0.825601
O17	O	1.139115	-0.444066	0.324828
O18	O	1.639115	0.055934	0.824828
O19	O	1.030098	-0.243084	0.415067
O20	O	1.530098	0.256916	0.915067
O21	O	0.948273	-0.344624	0.207082
O22	O	1.448273	0.155376	0.707082
O23	O	0.829810	-0.344168	0.315901
O24	O	1.329810	0.155832	0.815901
O25	O	0.930895	-0.443264	0.516097
O26	O	1.430895	0.056736	1.016097
O27	O	0.822462	-0.433612	0.398018
O28	O	1.322462	0.066388	0.898018
O29	O	1.020400	-0.361133	0.523446
O30	O	1.520400	0.138867	1.023446
O31	O	1.020985	-0.552463	0.315128
O32	O	1.520985	-0.052463	0.815128
O33	O	0.931227	-0.552118	0.397578
O34	O	1.431227	-0.052118	0.897578
C35	C	0.800745	-0.387759	0.355923
C36	C	1.300745	0.112241	0.855923
C37	C	0.722961	-0.384312	0.352765
C38	C	1.222961	0.115688	0.852765
C39	C	0.975076	-0.577684	0.355235
C40	C	1.475076	-0.077684	0.855235
C41	C	0.971937	-0.655474	0.351792
C42	C	1.471937	-0.155474	0.851792
C43	C	0.682611	-0.429326	0.393961
C44	C	1.182611	0.070674	0.893961
C45	C	0.609525	-0.426077	0.390997
C46	C	1.109525	0.073923	0.890997
C47	C	0.576790	-0.377818	0.346832
C48	C	1.076790	0.122182	0.846832
C49	C	0.617145	-0.332800	0.305634
C50	C	1.117145	0.167200	0.805634
C51	C	0.690230	-0.336045	0.308602
C52	C	1.190230	0.163955	0.808602
C53	C	0.356312	-0.365683	0.335738
C54	C	0.856312	0.134317	0.835738
C55	C	0.283222	-0.362442	0.332771
C56	C	0.783222	0.137558	0.832771
C57	C	0.275607	-0.455719	0.418136
C58	C	0.775607	0.044281	0.918136
C59	C	0.348693	-0.458963	0.421097
C60	C	0.848693	0.041037	0.921097
C61	C	0.389042	-0.413942	0.379902
C62	C	0.889042	0.086058	0.879902
C63	C	0.502085	-0.374498	0.343800
C64	C	1.002085	0.125502	0.843800
C65	C	0.463746	-0.417260	0.382938
C66	C	0.963746	0.082740	0.882938
C67	C	1.013202	-0.695766	0.396790
C68	C	1.513202	-0.195766	0.896790
C69	C	1.010249	-0.768858	0.393556
C70	C	1.510249	-0.268858	0.893556
C71	C	0.966034	-0.801655	0.345320
C72	C	1.466034	-0.301655	0.845320
C73	C	0.924764	-0.761357	0.300320
C74	C	1.424764	-0.261357	0.800320
C75	C	0.927714	-0.688267	0.303558
C76	C	1.427714	-0.188267	0.803558
C77	C	0.954987	-1.022152	0.333214
C78	C	1.454987	-0.522152	0.833214
C79	C	0.952042	-1.095247	0.329978
C80	C	1.452042	-0.595247	0.829978
C81	C	1.037525	-1.102743	0.423215
C82	C	1.537525	-0.602743	0.923215
C83	C	1.040474	-1.029652	0.426446
C84	C	1.540474	-0.529652	0.926446
C85	C	0.999202	-0.989360	0.381449
C86	C	1.499202	-0.489360	0.881449
C87	C	0.963016	-0.876366	0.342011
C88	C	1.463016	-0.376366	0.842011
C89	C	1.002216	-0.914650	0.384761
C90	C	1.502216	-0.414650	0.884761
C91	C	1.165090	-0.403991	0.370793
C92	C	1.665090	0.096009	0.870793
C93	C	1.242873	-0.407456	0.373968
C94	C	1.742873	0.092544	0.873968
C95	C	0.974494	-0.403257	0.545873
C96	C	1.474494	0.096743	1.045873
C97	C	0.971055	-0.406409	0.623656
C98	C	1.471055	0.093591	1.123656
C99	C	0.990096	-0.213325	0.371500
C100	C	1.490096	0.286675	0.871500
C101	C	0.993307	-0.135540	0.374976
C102	C	1.493307	0.364460	0.874976
C103	C	0.990642	-0.388441	0.181528
C104	C	1.490642	0.111559	0.681528
C105	C	0.994224	-0.385098	0.103760
C106	C	1.494224	0.114902	0.603760
C107	C	1.016038	-0.365131	0.664026
C108	C	1.516038	0.134869	1.164026
C109	C	1.012799	-0.368090	0.737112
C110	C	1.512799	0.131910	1.237112
C111	C	0.964579	-0.412331	0.769826
C112	C	1.464579	0.087669	1.269826
C113	C	0.919592	-0.453611	0.729450
C114	C	1.419592	0.046389	1.229450
C115	C	0.922828	-0.450648	0.656366
C116	C	1.422828	0.049352	1.156366
C117	C	0.952473	-0.423414	0.990300
C118	C	1.452473	0.076586	1.490300
C119	C	0.949242	-0.426376	1.063390
C120	C	1.449242	0.073624	1.563390
C121	C	1.042448	-0.340853	1.071046
C122	C	1.542448	0.159147	1.571046
C123	C	1.045683	-0.337897	0.997961
C124	C	1.545683	0.162103	1.497961
C125	C	1.000693	-0.379174	0.957592
C126	C	1.500693	0.120826	1.457592
C127	C	0.961269	-0.415359	0.844530
C128	C	1.461269	0.084641	1.344530
C129	C	1.004001	-0.376143	0.882888
C130	C	1.504001	0.123857	1.382888
H131	H	0.576675	-0.462733	0.424543
H132	H	1.076675	0.037267	0.924543
C133	C	0.539503	-0.315461	0.208619
C134	C	1.039503	0.184539	0.708619
C135	C	0.581164	-0.279750	0.257089
C136	C	1.081164	0.220250	0.757089
H137	H	0.517295	-0.282708	0.178647
H138	H	1.017295	0.217292	0.678647
H139	H	0.505016	-0.341799	0.232730
H140	H	1.005016	0.158201	0.732730
H141	H	0.567950	-0.346084	0.181601
H142	H	1.067950	0.153916	0.681601
H143	H	0.552717	-0.249130	0.284110
H144	H	1.052717	0.250870	0.784110
H145	H	0.615656	-0.253399	0.232976
H146	H	1.115656	0.246601	0.732976
H147	H	0.921382	-0.989352	0.296574
H148	H	1.421382	-0.489352	0.796574
C149	C	0.333821	-0.550834	0.505183
C150	C	0.833821	-0.050834	1.005183
C151	C	0.384673	-0.512010	0.469647
C152	C	0.884673	-0.012010	0.969647
H153	H	0.356036	-0.583581	0.535157
H154	H	0.856036	-0.083581	1.035157
H155	H	0.305561	-0.575050	0.472300
H156	H	0.805561	-0.075050	0.972300
H157	H	0.305388	-0.520199	0.532202
H158	H	0.805388	-0.020199	1.032202
H159	H	0.413103	-0.542644	0.442623
H160	H	0.913103	-0.042644	0.942623
H161	H	0.412945	-0.487792	0.502534
H162	H	0.912945	0.012208	1.002534
C163	C	1.056008	-0.247236	0.648217
C164	C	1.556008	0.252764	1.148217
C165	C	1.069041	-0.316497	0.628071
C166	C	1.569041	0.183503	1.128071
H167	H	1.088727	-0.217210	0.626018
H168	H	1.588727	0.282790	1.126018
H169	H	1.060519	-0.243100	0.697515
H170	H	1.560519	0.256900	1.197515
H171	H	1.009940	-0.234424	0.634770
H172	H	1.509940	0.265576	1.134770
H173	H	1.115107	-0.329310	0.641523
H174	H	1.615107	0.170690	1.141523
H175	H	1.064535	-0.320636	0.578762
H176	H	1.564535	0.179364	1.078762
H177	H	0.709258	-0.468626	0.429923
H178	H	1.209258	0.031374	0.929923
C179	C	0.160192	-0.492159	0.451496
C180	C	0.660192	0.007841	0.951496
C181	C	0.231254	-0.505198	0.463423
C182	C	0.731254	-0.005198	0.963423
H183	H	0.132812	-0.522703	0.479462
H184	H	0.632812	-0.022703	0.979462
H185	H	0.149868	-0.499894	0.403527
H186	H	0.649868	0.000106	0.903527
H187	H	0.149702	-0.445038	0.463424
H188	H	0.649702	0.054962	0.963424
H189	H	0.241745	-0.552317	0.451490
H190	H	0.741745	-0.052317	0.951490
H191	H	0.241583	-0.497468	0.511403
H192	H	0.741583	0.002532	1.011403
C193	C	0.298087	-0.270554	0.248696
C194	C	0.798087	0.229446	0.748696
C195	C	0.247239	-0.309388	0.284225
C196	C	0.747239	0.190612	0.784225
H197	H	0.275871	-0.237801	0.218730
H198	H	0.775871	0.262199	0.718730
H199	H	0.326521	-0.301177	0.221675
H200	H	0.826521	0.198823	0.721675
H201	H	0.326348	-0.246337	0.281588
H202	H	0.826348	0.253663	0.781588
H203	H	0.218981	-0.333609	0.251333
H204	H	0.718981	0.166391	0.751333
H205	H	0.218793	-0.278761	0.311247
H206	H	0.718793	0.221239	0.811247
C207	C	0.902343	-0.550647	0.807030
C208	C	1.402343	-0.050647	1.307030
C209	C	0.866588	-0.502243	0.765407
C210	C	1.366588	-0.002243	1.265407
H211	H	0.869620	-0.580673	0.829223
H212	H	1.369620	-0.080673	1.329223
H213	H	0.928664	-0.526487	0.841530
H214	H	1.428664	-0.026487	1.341530
H215	H	0.932988	-0.577615	0.778560
H216	H	1.432988	-0.077615	1.278560
H217	H	0.835947	-0.475271	0.793877
H218	H	1.335947	0.024729	1.293877
H219	H	0.840255	-0.526405	0.730902
H220	H	1.340255	-0.026405	1.230902
H221	H	0.909974	-0.462404	1.090023
H222	H	1.409974	0.037596	1.590023
H223	H	0.922012	-0.451384	0.871174
H224	H	1.422012	0.048616	1.371174
H225	H	0.475424	-0.335207	0.307839
H226	H	0.975424	0.164793	0.807839
H227	H	1.084950	-0.301873	0.971331
H228	H	1.584950	0.198127	1.471331
C229	C	0.442786	-0.274789	0.333706
C230	C	0.942786	0.225211	0.833706
C231	C	0.400661	-0.316202	0.290453
C232	C	0.900661	0.183798	0.790453
H233	H	0.470164	-0.244239	0.305746
H234	H	0.970164	0.255761	0.805746
H235	H	0.472737	-0.303993	0.360428
H236	H	0.972737	0.196007	0.860428
H237	H	0.414022	-0.248041	0.364270
H238	H	0.914022	0.251959	0.864270
H239	H	0.429425	-0.342954	0.259893
H240	H	0.929425	0.157046	0.759893
H241	H	0.370706	-0.286994	0.263719
H242	H	0.870706	0.213006	0.763719
H243	H	0.886192	-0.484254	0.623497
H244	H	1.386192	0.015746	1.123497
C245	C	0.878819	-0.861621	0.250169
C246	C	1.378819	-0.361621	0.750169
C247	C	0.914418	-0.912419	0.288988
C248	C	1.414418	-0.412419	0.788988
H249	H	0.848813	-0.883882	0.217440
H250	H	1.348813	-0.383882	0.717440
H251	H	0.911663	-0.833373	0.225933
H252	H	1.411663	-0.333373	0.725933
H253	H	0.851828	-0.833165	0.280810
H254	H	1.351828	-0.333165	0.780810
H255	H	0.941413	-0.940871	0.258348
H256	H	1.441413	-0.440871	0.758348
H257	H	0.881570	-0.940679	0.313225
H258	H	1.381570	-0.440679	0.813225
C259	C	0.811659	-0.659225	0.265532
C260	C	1.311659	-0.159225	0.765532
C261	C	0.882354	-0.643974	0.254095
C262	C	1.382354	-0.143974	0.754095
H263	H	0.783655	-0.631883	0.234994
H264	H	1.283655	-0.131883	0.734994
H265	H	0.799794	-0.648687	0.312650
H266	H	1.299794	-0.148687	0.812650
H267	H	0.803585	-0.707450	0.256697
H268	H	1.303585	-0.207450	0.756697
H269	H	0.890429	-0.595750	0.262936
H270	H	1.390429	-0.095750	0.762936
H271	H	0.894224	-0.654507	0.206966
H272	H	1.394224	-0.154507	0.706966
C273	C	0.690421	-0.243530	0.223914
C274	C	1.190421	0.256470	0.723914
C275	C	0.734586	-0.286571	0.263311
C276	C	1.234586	0.213429	0.763311
H277	H	0.717806	-0.212989	0.195951
H278	H	1.217806	0.287011	0.695951
H279	H	0.661675	-0.216778	0.254481
H280	H	1.161675	0.283222	0.754481
H281	H	0.661840	-0.271635	0.194584
H282	H	1.161840	0.228365	0.694584
H283	H	0.763164	-0.258465	0.292645
H284	H	1.263164	0.241535	0.792645
H285	H	0.763344	-0.313324	0.232741
H286	H	1.263344	0.186676	0.732741
H287	H	0.490402	-0.456549	0.418900
H288	H	0.990402	0.043451	0.918900
C289	C	1.097392	-0.710525	0.488633
C290	C	1.597392	-0.210525	0.988633
C291	C	1.061800	-0.659719	0.449816
C292	C	1.561800	-0.159719	0.949816
H293	H	1.127389	-0.688271	0.521374
H294	H	1.627389	-0.188271	1.021374
H295	H	1.124384	-0.738974	0.457998
H296	H	1.624384	-0.238974	0.957998
H297	H	1.064537	-0.738779	0.512861
H298	H	1.564537	-0.238779	1.012861
H299	H	1.094655	-0.631469	0.425584
H300	H	1.594655	-0.131469	0.925584
H301	H	1.034807	-0.631259	0.480456
H302	H	1.534807	-0.131259	0.980456
C303	C	1.012437	-0.855245	0.484461
C304	C	1.512437	-0.355245	0.984461
C305	C	1.055616	-0.813141	0.443018
C306	C	1.555616	-0.313141	0.943018
H307	H	1.040449	-0.882578	0.515002
H308	H	1.540449	-0.382578	1.015002
H309	H	0.985690	-0.885241	0.455278
H310	H	1.485690	-0.385241	0.955278
H311	H	0.981896	-0.826468	0.511220
H312	H	1.481896	-0.326468	1.011220
H313	H	1.086154	-0.841918	0.416256
H314	H	1.586154	-0.341918	0.916256
H315	H	1.082375	-0.783142	0.472206
H316	H	1.582375	-0.283142	0.972206
C317	C	0.861579	-0.425598	0.903837
C318	C	1.361579	0.074402	1.403837
C319	C	0.903025	-0.468783	0.945925
C320	C	1.403025	0.031217	1.445925
H321	H	0.831049	-0.453609	0.876440
H322	H	1.331049	0.046391	1.376440
H323	H	0.890761	-0.398830	0.873902
H324	H	1.390761	0.101170	1.373902
H325	H	0.834810	-0.395076	0.932627
H326	H	1.334810	0.104924	1.432627
H327	H	0.929799	-0.499302	0.917135
H328	H	1.429799	0.000698	1.417135
H329	H	0.873840	-0.495563	0.975863
H330	H	1.373840	0.004437	1.475863
C331	C	1.021245	-0.279113	0.805304
C332	C	1.521245	0.220887	1.305304
C333	C	1.057002	-0.327512	0.846931
C334	C	1.557002	0.172488	1.346931
H335	H	1.053968	-0.249095	0.783099
H336	H	1.553968	0.250905	1.283099
H337	H	0.990609	-0.252141	0.833768
H338	H	1.490609	0.247859	1.333768
H339	H	0.994916	-0.303282	0.770806
H340	H	1.494916	0.196718	1.270806
H341	H	1.083326	-0.303344	0.881432
H342	H	1.583326	0.196656	1.381432
H343	H	1.087650	-0.354488	0.818466
H344	H	1.587650	0.145512	1.318466
H345	H	1.079075	-0.307247	1.103923
H346	H	1.579075	0.192753	1.603923
C347	C	1.124677	-1.044406	0.518281
C348	C	1.624677	-0.544406	1.018281
C349	C	1.089079	-0.993603	0.479467
C350	C	1.589079	-0.493603	0.979467
H351	H	1.154683	-1.022149	0.551013
H352	H	1.654683	-0.522149	1.051013
H353	H	1.151661	-1.072859	0.487642
H354	H	1.651661	-0.572859	0.987642
H355	H	1.091826	-1.072656	0.542519
H356	H	1.591826	-0.572656	1.042519
H357	H	1.121929	-0.965356	0.455224
H358	H	1.621929	-0.465356	0.955224
H359	H	1.062093	-0.965138	0.510109
H360	H	1.562093	-0.465138	1.010109
C361	C	1.070957	-1.218113	0.459658
C362	C	1.570957	-0.718113	0.959658
C363	C	1.082883	-1.147034	0.472681
C364	C	1.582883	-0.647034	0.972681
H365	H	1.098956	-1.245455	0.490202
H366	H	1.598956	-0.745455	0.990202
H367	H	1.082836	-1.228649	0.412543
H368	H	1.582836	-0.728649	0.912543
H369	H	1.022992	-1.228443	0.467409
H370	H	1.522992	-0.728443	0.967409
H371	H	1.130848	-1.136703	0.464925
H372	H	1.630848	-0.636703	0.964925
H373	H	1.071009	-1.136494	0.519807
H374	H	1.571009	-0.636494	1.019807
H375	H	0.916033	-1.121948	0.290698
H376	H	1.416033	-0.621948	0.790698
H377	H	0.888761	-0.788066	0.261048
H378	H	1.388761	-0.288066	0.761048
H379	H	1.038213	-0.887945	0.424037
H380	H	1.538213	-0.387945	0.924037
H381	H	1.049430	-0.334479	0.769978
H382	H	1.549430	0.165521	1.269978
