data_functionalizedCrystal
_audit_creation_method	'MofGen! by Chris Wilmer'
_symmetry_space_group_name_H-M	'P1'
_symmetry_Int_Tables_number	1
_symmetry_cell_setting	triclinic
loop_
_symmetry_equiv_pos_as_xyz
  x,y,z
_cell_length_a	15.944551
_cell_length_b	27.731996
_cell_length_c	14.421503
_cell_angle_alpha	89.998301
_cell_angle_beta	89.996859
_cell_angle_gamma	83.060063
loop_
_atom_site_label
_atom_site_type_symbol
_atom_site_fract_x
_atom_site_fract_y
_atom_site_fract_z
O1	O	1.113694	0.062335	-0.077027
O2	O	1.447027	0.395669	0.256306
O3	O	1.780360	0.729002	0.589639
O4	O	0.869041	0.070021	-0.077052
O5	O	1.202375	0.403355	0.256281
O6	O	1.535708	0.736688	0.589615
O7	O	0.998989	-0.004187	-0.077019
O8	O	1.332322	0.329146	0.256314
O9	O	1.665655	0.662479	0.589648
O10	O	0.983746	0.136544	-0.077061
O11	O	1.317080	0.469877	0.256273
O12	O	1.650413	0.803210	0.589606
O13	O	0.998967	-0.004176	0.077204
O14	O	1.332300	0.329157	0.410538
O15	O	1.665634	0.662490	0.743871
O16	O	0.869020	0.070032	0.077171
O17	O	1.202353	0.403366	0.410505
O18	O	1.535686	0.736699	0.743838
O19	O	1.113672	0.062346	0.077196
O20	O	1.447006	0.395680	0.410529
O21	O	1.780339	0.729013	0.743863
Cu22	Cu	0.991344	0.066190	0.091265
Cu23	Cu	1.324677	0.399524	0.424599
Cu24	Cu	1.658011	0.732857	0.757932
Cu25	Cu	0.991369	0.066177	-0.091122
Cu26	Cu	1.324703	0.399511	0.242212
Cu27	Cu	1.658036	0.732844	0.575545
O28	O	0.983725	0.136555	0.077163
O29	O	1.317058	0.469888	0.410496
O30	O	1.650391	0.803222	0.743830
C31	C	0.837741	0.069708	0.000057
C32	C	1.171074	0.403041	0.333390
C33	C	1.504407	0.736374	0.666723
C34	C	0.744508	0.068751	0.000048
C35	C	1.077841	0.402085	0.333382
C36	C	1.411174	0.735418	0.666715
C37	C	0.998665	-0.022190	0.000096
C38	C	1.331998	0.311143	0.333429
C39	C	1.665331	0.644476	0.666763
C40	C	0.997722	-0.075851	0.000105
C41	C	1.331055	0.257483	0.333439
C42	C	1.664388	0.590816	0.666772
C43	C	0.530298	0.020467	0.000081
C44	C	0.863631	0.353800	0.333414
C45	C	1.196965	0.687133	0.666747
C46	C	0.468988	0.042883	-0.075966
C47	C	0.802321	0.376216	0.257367
C48	C	1.135655	0.709550	0.590700
C49	C	0.573805	0.067021	0.000060
C50	C	0.907138	0.400354	0.333393
C51	C	1.240472	0.733687	0.666726
C52	C	0.468989	0.042905	0.076086
C53	C	0.802322	0.376238	0.409419
C54	C	1.135655	0.709572	0.742753
C55	C	0.408915	0.065346	0.000075
C56	C	0.742248	0.398679	0.333408
C57	C	1.075581	0.732012	0.666742
C58	C	0.513723	0.089450	-0.076050
C59	C	0.847056	0.422783	0.257283
C60	C	1.180390	0.756116	0.590617
C61	C	0.513730	0.089465	0.076071
C62	C	0.847063	0.422798	0.409404
C63	C	1.180397	0.756132	0.742737
C64	C	0.452437	0.111915	0.000005
C65	C	0.785771	0.445248	0.333338
C66	C	1.119104	0.778582	0.666672
C67	C	0.668794	0.067984	0.000050
C68	C	1.002128	0.401318	0.333384
C69	C	1.335461	0.734651	0.666717
C70	C	0.313926	0.064385	0.000078
C71	C	0.647260	0.397719	0.333411
C72	C	0.980593	0.731052	0.666744
C73	C	0.991800	-0.408599	-0.084008
C74	C	1.325133	-0.075265	0.249326
C75	C	1.658466	0.258068	0.582659
C76	C	0.988218	-0.610273	-0.084024
C77	C	1.321552	-0.276939	0.249309
C78	C	1.654885	0.056394	0.582642
O79	O	0.987729	-0.636350	-0.155521
O80	O	1.321063	-0.303017	0.177812
O81	O	1.654396	0.030316	0.511146
N82	N	0.987762	-0.635486	0.000042
N83	N	1.321095	-0.302152	0.333375
N84	N	1.654429	0.031181	0.666709
C85	C	0.988195	-0.610277	0.084118
C86	C	1.321529	-0.276943	0.417452
C87	C	1.654862	0.056390	0.750785
O88	O	0.987716	-0.636349	0.155622
O89	O	1.321049	-0.303015	0.488955
O90	O	1.654383	0.030318	0.822288
C91	C	0.991771	-0.408603	0.084134
C92	C	1.325104	-0.075270	0.417467
C93	C	1.658437	0.258063	0.750801
C94	C	0.992236	-0.383394	0.000062
C95	C	1.325569	-0.050060	0.333396
C96	C	1.658902	0.283273	0.666729
C97	C	0.992264	-0.383389	-0.168073
C98	C	1.325597	-0.050056	0.165261
C99	C	1.658931	0.283278	0.498594
C100	C	0.993164	-0.332974	-0.168068
C101	C	1.326497	0.000359	0.165266
C102	C	1.659830	0.333693	0.498599
C103	C	0.993600	-0.307769	-0.083998
C104	C	1.326933	0.025565	0.249336
C105	C	1.660266	0.358898	0.582669
C106	C	0.993135	-0.332979	0.000067
C107	C	1.326469	0.000355	0.333401
C108	C	1.659802	0.333688	0.666734
C109	C	0.992198	-0.383395	0.168210
C110	C	1.325531	-0.050062	0.501543
C111	C	1.658864	0.283272	0.834876
C112	C	0.993089	-0.332973	0.168206
C113	C	1.326423	0.000360	0.501539
C114	C	1.659756	0.333693	0.834873
C115	C	0.993555	-0.307764	0.084134
C116	C	1.326888	0.025570	0.417468
C117	C	1.660221	0.358903	0.750801
C118	C	0.994471	-0.257358	0.084142
C119	C	1.327804	0.075975	0.417476
C120	C	1.661138	0.409308	0.750809
N121	N	0.994928	-0.232145	0.000076
N122	N	1.328261	0.101188	0.333409
N123	N	1.661594	0.434521	0.666743
C124	C	0.994492	-0.257350	-0.083994
C125	C	1.327825	0.075983	0.249339
C126	C	1.661159	0.409316	0.582673
C127	C	0.986320	-0.716158	0.084104
C128	C	1.319653	-0.382825	0.417438
C129	C	1.652987	-0.049492	0.750771
C130	C	0.985428	-0.766576	0.084101
C131	C	1.318761	-0.433243	0.417434
C132	C	1.652094	-0.099910	0.750767
C133	C	0.985449	-0.766569	-0.084043
C134	C	1.318783	-0.433235	0.249291
C135	C	1.652116	-0.099902	0.582624
C136	C	0.986348	-0.716150	-0.084038
C137	C	1.319681	-0.382817	0.249295
C138	C	1.653014	-0.049483	0.582629
C139	C	0.986776	-0.690945	0.000038
C140	C	1.320110	-0.357612	0.333371
C141	C	1.653443	-0.024279	0.666705
C142	C	0.996382	-0.151475	-0.083977
C143	C	1.329716	0.181858	0.249356
C144	C	1.663049	0.515191	0.582689
C145	C	0.997286	-0.101056	-0.083965
C146	C	1.330619	0.232277	0.249369
C147	C	1.663953	0.565611	0.582702
C148	C	0.997260	-0.101068	0.084178
C149	C	1.330593	0.232266	0.417511
C150	C	1.663926	0.565599	0.750845
C151	C	0.996361	-0.151483	0.084166
C152	C	1.329694	0.181850	0.417499
C153	C	1.663027	0.515184	0.750833
C154	C	0.995919	-0.176685	0.000081
C155	C	1.329253	0.156648	0.333414
C156	C	1.662586	0.489981	0.666748
O157	O	0.994951	-0.231249	0.155601
O158	O	1.328285	0.102085	0.488935
O159	O	1.661618	0.435418	0.822268
O160	O	0.994952	-0.231268	-0.155487
O161	O	1.328286	0.102065	0.177847
O162	O	1.661619	0.435398	0.511180
C163	C	0.990900	-0.459014	-0.084013
C164	C	1.324233	-0.125681	0.249321
C165	C	1.657567	0.207653	0.582654
C166	C	0.990436	-0.484224	0.000052
C167	C	1.323769	-0.150890	0.333386
C168	C	1.657102	0.182443	0.666719
C169	C	0.990872	-0.459019	0.084122
C170	C	1.324205	-0.125685	0.417456
C171	C	1.657538	0.207648	0.750789
C172	C	0.989544	-0.534642	0.000048
C173	C	1.322877	-0.201309	0.333382
C174	C	1.656210	0.132025	0.666715
C175	C	0.989108	-0.559847	-0.084022
C176	C	1.322441	-0.226514	0.249312
C177	C	1.655774	0.106820	0.582645
C178	C	0.989564	-0.534634	-0.168088
C179	C	1.322898	-0.201301	0.165245
C180	C	1.656231	0.132033	0.498579
C181	C	0.990464	-0.484219	-0.168083
C182	C	1.323797	-0.150886	0.165250
C183	C	1.657131	0.182448	0.498584
C184	C	0.990415	-0.484232	0.168189
C185	C	1.323748	-0.150898	0.501522
C186	C	1.657082	0.182435	0.834855
C187	C	0.989516	-0.534647	0.168177
C188	C	1.322849	-0.201314	0.501510
C189	C	1.656183	0.132020	0.834843
C190	C	0.989080	-0.559852	0.084107
C191	C	1.322414	-0.226519	0.417440
C192	C	1.655747	0.106815	0.750773
C193	C	1.144973	0.062660	0.000085
C194	C	1.478306	0.395993	0.333418
C195	C	1.811639	0.729327	0.666752
C196	C	1.238206	0.063616	0.000087
C197	C	1.571539	0.396950	0.333421
C198	C	1.904873	0.730283	0.666754
C199	C	0.984049	0.154558	0.000046
C200	C	1.317382	0.487891	0.333379
C201	C	1.650715	0.821225	0.666713
C202	C	0.984992	0.208218	0.000031
C203	C	1.318325	0.541552	0.333364
C204	C	1.651658	0.874885	0.666697
N205	N	0.991332	0.066199	0.219547
N206	N	1.324666	0.399533	0.552880
N207	N	1.657999	0.732866	0.886213
N208	N	0.991388	0.066165	-0.219403
N209	N	1.324721	0.399498	0.113931
N210	N	1.658055	0.732831	0.447264
C211	C	0.931234	0.100498	0.469185
C212	C	1.264568	0.433831	0.802518
C213	C	1.597901	0.767165	1.135852
C214	C	1.007008	0.109882	0.530992
C215	C	1.340342	0.443216	0.864325
C216	C	1.673675	0.776549	1.197659
C217	C	0.991353	0.066188	0.408708
C218	C	1.324686	0.399521	0.742042
C219	C	1.658020	0.732854	1.075375
C220	C	0.915598	0.056815	0.530995
C221	C	1.248931	0.390148	0.864328
C222	C	1.582265	0.723481	1.197662
C223	C	0.991366	0.066178	0.591430
C224	C	1.324699	0.399511	0.924763
C225	C	1.658033	0.732844	1.258096
C226	C	1.067165	0.075594	0.469154
C227	C	1.400498	0.408927	0.802488
C228	C	1.733832	0.742260	1.135821
C229	C	0.975705	0.022507	0.469152
C230	C	1.309038	0.355841	0.802485
C231	C	1.642372	0.689174	1.135819
C232	C	1.051534	0.031873	0.530931
C233	C	1.384868	0.365206	0.864264
C234	C	1.718201	0.698540	1.197598
C235	C	0.991344	0.066195	0.303447
C236	C	1.324677	0.399528	0.636780
C237	C	1.658011	0.732861	0.970114
C238	C	0.991383	0.066170	0.696689
C239	C	1.324717	0.399504	1.030022
C240	C	1.658050	0.732837	1.363355
H241	H	0.564149	-0.018169	-0.000002
H242	H	0.897482	0.315164	0.333331
H243	H	1.230815	0.648497	0.666665
F244	F	0.831855	0.046457	0.566503
F245	F	1.165188	0.379791	0.899836
F246	F	1.498522	0.713124	1.233169
H247	H	1.102435	0.002852	0.557872
H248	H	1.435769	0.336185	0.891205
H249	H	1.769102	0.669519	1.224538
F250	F	0.443060	0.017142	-0.159988
F251	F	0.776394	0.350475	0.173345
F252	F	1.109727	0.683808	0.506679
F253	F	0.958359	-0.025755	0.433617
F254	F	1.291692	0.307579	0.766951
F255	F	1.625026	0.640912	1.100284
F256	F	0.539512	0.115161	-0.160177
F257	F	0.872845	0.448494	0.173157
F258	F	1.206178	0.781828	0.506490
H259	H	0.418760	0.150591	-0.000049
H260	H	0.752094	0.483924	0.333285
H261	H	1.085427	0.817258	0.666618
F262	F	0.986841	-0.689324	-0.173518
F263	F	1.320174	-0.355991	0.159816
F264	F	1.653508	-0.022658	0.493149
F265	F	0.991699	-0.410214	0.257692
F266	F	1.325033	-0.076881	0.591025
F267	F	1.658366	0.256453	0.924359
F268	F	0.995881	-0.178315	0.173644
F269	F	1.329214	0.155018	0.506977
F270	F	1.662548	0.488352	0.840311
H271	H	0.533589	0.109144	0.140355
H272	H	0.866922	0.442477	0.473688
H273	H	1.200255	0.775810	0.807021
H274	H	1.131249	0.083561	0.442105
H275	H	1.464582	0.416895	0.775438
H276	H	1.797915	0.750228	1.108771
H277	H	0.449158	0.023210	0.140376
H278	H	0.782491	0.356544	0.473709
H279	H	1.115824	0.689877	0.807042
H280	H	1.020256	0.146817	0.558155
H281	H	1.353589	0.480151	0.891488
H282	H	1.686923	0.813484	1.224822
H283	H	0.997667	-0.080533	-0.152429
H284	H	1.331000	0.252801	0.180904
H285	H	1.664333	0.586134	0.514238
F286	F	0.997725	-0.074234	0.173647
F287	F	1.331059	0.259099	0.506980
F288	F	1.664392	0.592433	0.840313
F289	F	0.989105	-0.561469	-0.257562
F290	F	1.322438	-0.228135	0.075772
F291	F	1.655772	0.105198	0.409105
F292	F	0.995913	-0.178290	-0.173470
F293	F	1.329246	0.155043	0.159863
F294	F	1.662579	0.488376	0.493197
H295	H	0.993539	-0.312452	-0.236528
H296	H	1.326873	0.020881	0.096805
H297	H	1.660206	0.354214	0.430139
H298	H	0.991906	-0.403905	-0.236537
H299	H	1.325239	-0.070572	0.096797
H300	H	1.658573	0.262761	0.430130
F301	F	0.984983	-0.793402	-0.173517
F302	F	1.318316	-0.460069	0.159817
F303	F	1.651650	-0.126735	0.493150
H304	H	0.985062	-0.787099	0.152560
H305	H	1.318395	-0.453766	0.485894
H306	H	1.651728	-0.120432	0.819227
F307	F	0.990958	-0.457395	-0.257564
F308	F	1.324292	-0.124062	0.075769
F309	F	1.657625	0.209272	0.409102
F310	F	0.986772	-0.689339	0.173595
F311	F	1.320105	-0.356006	0.506929
F312	F	1.653439	-0.022672	0.840262
F313	F	0.993545	-0.306151	0.257694
F314	F	1.326879	0.027182	0.591027
F315	F	1.660212	0.360515	0.924361
F316	F	0.989027	-0.561472	0.257664
F317	F	1.322360	-0.228139	0.590998
F318	F	1.655693	0.105195	0.924331
H319	H	0.990771	-0.463715	0.236650
H320	H	1.324104	-0.130381	0.569983
H321	H	1.657438	0.202952	0.903317
F322	F	0.864850	0.138452	0.433745
F323	F	1.198183	0.471785	0.767078
F324	F	1.531516	0.805118	1.100411
