data_functionalizedCrystal
_audit_creation_method	'MofGen! by Chris Wilmer'
_symmetry_space_group_name_H-M	'P1'
_symmetry_Int_Tables_number	1
_symmetry_cell_setting	triclinic
loop_
_symmetry_equiv_pos_as_xyz
  x,y,z
_cell_length_a	10.654550
_cell_length_b	16.992695
_cell_length_c	9.730223
_cell_angle_alpha	89.995280
_cell_angle_beta	89.999957
_cell_angle_gamma	87.576577
loop_
_atom_site_label
_atom_site_type_symbol
_atom_site_fract_x
_atom_site_fract_y
_atom_site_fract_z
O1	O	1.677361	0.110190	-0.114188
O2	O	1.312790	0.120688	-0.114214
O3	O	1.493614	0.001288	-0.114190
O4	O	1.496537	0.229590	-0.114212
O5	O	1.493601	0.001285	0.114390
O6	O	1.312777	0.120685	0.114366
O7	O	1.677349	0.110187	0.114391
Zn8	Zn	1.495061	0.115435	0.150671
Zn9	Zn	1.495078	0.115439	-0.150493
O10	O	1.496525	0.229586	0.114368
C11	C	1.265919	0.119916	0.000073
C12	C	1.126277	0.117609	0.000064
C13	C	1.052866	0.187910	0.000061
C14	C	0.921658	0.185738	0.000085
C15	C	0.937282	0.042959	0.000109
C16	C	1.068488	0.045132	0.000095
C17	C	1.489848	-0.027946	0.000099
C18	C	1.478628	-0.115051	0.000098
C19	C	1.586879	-0.164703	0.000107
C20	C	1.576330	-0.246547	0.000093
C21	C	1.457529	-0.278738	0.000080
C22	C	1.349270	-0.229080	0.000067
C23	C	1.359820	-0.147237	0.000071
C24	C	1.413802	-0.522573	0.000058
C25	C	1.403260	-0.604422	0.000059
C26	C	1.630321	-0.621884	0.000082
C27	C	1.640861	-0.540039	0.000094
C28	C	1.532602	-0.490388	0.000074
N29	N	1.446743	-0.362395	0.000071
N30	N	1.543389	-0.406733	0.000074
C31	C	1.724220	0.110959	0.000102
C32	C	1.863862	0.113265	0.000102
C33	C	1.500291	0.258821	0.000075
C34	C	1.511510	0.345926	0.000068
N35	N	1.495059	0.115432	0.356207
N36	N	1.495089	0.115437	-0.356030
C37	C	1.575159	0.062584	0.428144
C38	C	1.575171	0.062584	0.572026
C39	C	1.414980	0.168287	0.572024
C40	C	1.414962	0.168282	0.428144
H41	H	0.890215	-0.016050	0.000142
C42	C	1.149245	-0.032203	0.000091
H43	H	1.096039	-0.075679	0.000091
H44	H	1.200762	-0.034323	0.079796
H45	H	1.200744	-0.034319	-0.079636
C46	C	1.663286	0.004455	0.651151
H47	H	1.710989	-0.027015	0.587697
H48	H	1.614826	-0.028468	0.707293
H49	H	1.718428	0.032990	0.707262
H50	H	1.349770	0.211318	0.630609
H51	H	1.718458	-0.662318	0.000096
H52	H	1.737601	-0.513836	0.000105
C53	C	1.717561	-0.129301	0.000121
H54	H	1.780519	-0.170596	0.000112
H55	H	1.726396	-0.097741	0.079833
H56	H	1.726400	-0.097734	-0.079599
H57	H	1.664480	-0.286971	0.000104
H58	H	1.640376	0.019549	0.369576
H59	H	1.349729	0.211317	0.369569
C60	C	0.840906	0.263067	0.000075
H61	H	0.754487	0.251396	0.000102
H62	H	0.859190	0.292753	-0.079645
H63	H	0.859210	0.292755	0.079787
C64	C	1.116430	0.267631	0.000041
H65	H	1.053912	0.309188	0.000056
H66	H	1.167282	0.271450	-0.079674
H67	H	1.167293	0.271445	0.079757
H68	H	1.325649	-0.482157	0.000042
C69	C	1.272573	-0.639830	0.000021
H70	H	1.209608	-0.598539	-0.000008
H71	H	1.263720	-0.671400	0.079727
H72	H	1.263764	-0.671389	-0.079705
H73	H	1.252539	-0.255296	0.000048
C74	C	1.240749	-0.092617	0.000061
H75	H	1.264046	-0.039265	0.000050
H76	H	1.192361	-0.102443	0.079764
H77	H	1.192385	-0.102439	-0.079668
