data_functionalizedCrystal
_audit_creation_method	'MofGen! by Chris Wilmer'
_symmetry_space_group_name_H-M	'P1'
_symmetry_Int_Tables_number	1
_symmetry_cell_setting	triclinic
loop_
_symmetry_equiv_pos_as_xyz
  x,y,z
_cell_length_a	12.759399
_cell_length_b	12.759401
_cell_length_c	12.759393
_cell_angle_alpha	89.980911
_cell_angle_beta	89.970311
_cell_angle_gamma	90.015597
loop_
_atom_site_label
_atom_site_type_symbol
_atom_site_fract_x
_atom_site_fract_y
_atom_site_fract_z
Zn1	Zn	-0.418205	1.606256	-0.593991
Zn2	Zn	-0.593922	1.606146	-0.418316
Zn3	Zn	-0.418259	1.430556	-0.418331
Zn4	Zn	-0.593843	1.430545	-0.593957
O5	O	-0.506057	1.518376	-0.506149
O6	O	-0.441525	1.753263	-0.570695
O7	O	-0.570676	1.582813	-0.271296
O8	O	-0.271230	1.453914	-0.441653
O9	O	-0.570624	1.753182	-0.441627
O10	O	-0.271191	1.583000	-0.570710
O11	O	-0.441616	1.453808	-0.271308
O12	O	-0.441539	1.283534	-0.441620
O13	O	-0.570489	1.453894	-0.740983
O14	O	-0.570541	1.283525	-0.570652
O15	O	-0.441448	1.582989	-0.741008
O16	O	-0.740933	1.582802	-0.441594
O17	O	-0.740875	1.453788	-0.570637
C18	C	-0.506038	1.245408	-0.506134
C19	C	-0.506055	1.128632	-0.506153
C20	C	-0.779025	1.518310	-0.506133
C21	C	-0.895801	1.518378	-0.506162
C22	C	-0.573334	1.073793	-0.573229
C23	C	-0.573347	0.964069	-0.573240
C24	C	-0.438800	0.964032	-0.439091
C25	C	-0.438782	1.073755	-0.439086
C26	C	-0.640606	1.128670	-0.640296
C27	C	-0.707891	1.073831	-0.707377
C28	C	-0.707904	0.964107	-0.707388
C29	C	-0.640633	0.909222	-0.640319
C30	C	-1.060496	1.451327	-0.438944
C31	C	-0.950772	1.451258	-0.438925
C32	C	-0.950560	1.585564	-0.573429
C33	C	-1.060282	1.585628	-0.573452
C34	C	-1.115462	1.384211	-0.371695
C35	C	-1.060711	1.317022	-0.304429
C36	C	-0.950987	1.316953	-0.304410
C37	C	-0.896014	1.384071	-0.371658
C38	C	-0.232024	1.518471	-0.506187
C39	C	-0.115247	1.518511	-0.506204
C40	C	-0.505954	1.518452	-0.780182
C41	C	-0.505910	1.518485	-0.896959
C42	C	-0.506078	1.792409	-0.506164
C43	C	-0.506086	1.909186	-0.506170
C44	C	-0.438668	1.585731	-1.061567
C45	C	-0.438709	1.585711	-0.951843
C46	C	-0.573082	1.451282	-0.951805
C47	C	-0.573046	1.451308	-1.061527
C48	C	-0.506085	1.518360	-0.233181
C49	C	-0.505833	1.518531	-0.116405
H50	H	-0.640605	1.218013	-0.640293
Br51	Br	-0.640641	0.760309	-0.640348
H52	H	-1.204804	1.384262	-0.371701
Br53	Br	-0.347510	0.889546	-0.348074
Br54	Br	-0.347472	1.148186	-0.348056
Br55	Br	-0.347557	1.676920	-0.877423
Br56	Br	-0.347447	1.676957	-1.136041
H57	H	-0.905794	1.640211	-0.628178
H58	H	-0.627803	1.396550	-0.907110
H59	H	-0.762654	1.118525	-0.761988
Br60	Br	-0.799205	0.889684	-0.798435
Br61	Br	-0.876683	1.225756	-0.213138
Br62	Br	-0.664216	1.360112	-1.135958
Br63	Br	-1.134594	1.676808	-0.664733
H64	H	-1.105477	1.262370	-0.249685
H65	H	-0.806669	1.384007	-0.371640
