data_functionalizedCrystal
_audit_creation_method	'MofGen! by Chris Wilmer'
_symmetry_space_group_name_H-M	'P1'
_symmetry_Int_Tables_number	1
_symmetry_cell_setting	triclinic
loop_
_symmetry_equiv_pos_as_xyz
  x,y,z
_cell_length_a	23.532407
_cell_length_b	23.532407
_cell_length_c	9.798715
_cell_angle_alpha	90.007792
_cell_angle_beta	89.998337
_cell_angle_gamma	82.848678
loop_
_atom_site_label
_atom_site_type_symbol
_atom_site_fract_x
_atom_site_fract_y
_atom_site_fract_z
O1	O	0.755259	0.069134	0.113334
O2	O	0.589396	0.079137	0.113376
O3	O	0.677329	-0.008797	0.113329
O4	O	0.667326	0.157067	0.113382
O5	O	0.677322	-0.008797	-0.113653
O6	O	0.589389	0.079137	-0.113606
O7	O	0.755252	0.069133	-0.113648
Zn8	Zn	0.672320	0.074135	-0.149665
Zn9	Zn	0.672328	0.074135	0.149394
O10	O	0.667319	0.157067	-0.113600
C11	C	0.568176	0.078882	-0.000110
C12	C	0.504959	0.078116	-0.000095
C13	C	0.105856	0.125350	-0.000142
C14	C	0.046456	0.124638	-0.000150
O15	O	0.009711	0.168424	-0.000186
N16	N	0.023830	0.072362	-0.000164
C17	C	0.060607	0.020794	-0.000184
O18	O	0.035908	-0.023737	-0.000198
C19	C	0.120006	0.021506	-0.000185
C20	C	0.142629	0.073785	-0.000157
C21	C	0.128479	0.177625	-0.000115
C22	C	0.187876	0.178336	-0.000104
C23	C	0.224649	0.126772	-0.000119
C24	C	0.202025	0.074497	-0.000146
C25	C	0.156783	-0.030062	-0.000215
C26	C	0.216185	-0.029345	-0.000217
C27	C	0.238808	0.022934	-0.000189
C28	C	0.298194	0.023643	-0.000150
N29	N	0.320820	0.075920	-0.000136
C30	C	0.284048	0.127484	-0.000121
C31	C	-0.064135	0.019302	-0.000184
C32	C	-0.123533	0.018589	-0.000173
C33	C	-0.137680	0.122434	-0.000142
C34	C	-0.078281	0.123146	-0.000143
C35	C	-0.041509	0.071578	-0.000170
C36	C	0.408784	0.128974	-0.000096
C37	C	0.468186	0.129680	-0.000079
C38	C	0.482329	0.025836	-0.000118
C39	C	0.422932	0.025129	-0.000127
C40	C	0.386160	0.076702	-0.000121
O41	O	0.334974	-0.020119	-0.000120
O42	O	0.308755	0.172007	-0.000124
C43	C	0.677071	-0.030013	-0.000165
C44	C	0.676305	-0.093230	-0.000176
C45	C	0.723539	-0.492333	-0.000113
C46	C	0.722827	-0.551733	-0.000102
O47	O	0.766613	-0.588478	-0.000063
N48	N	0.670551	-0.574359	-0.000090
C49	C	0.618983	-0.537582	-0.000074
O50	O	0.574452	-0.562281	-0.000062
C51	C	0.619695	-0.478182	-0.000075
C52	C	0.671974	-0.455560	-0.000101
C53	C	0.775814	-0.469710	-0.000137
C54	C	0.776525	-0.410313	-0.000150
C55	C	0.724961	-0.373540	-0.000139
C56	C	0.672685	-0.396164	-0.000114
C57	C	0.568127	-0.441406	-0.000050
C58	C	0.568844	-0.382004	-0.000050
C59	C	0.621123	-0.359381	-0.000076
C60	C	0.621832	-0.299995	-0.000116
N61	N	0.674109	-0.277368	-0.000128
C62	C	0.725673	-0.314141	-0.000140
C63	C	0.617491	-0.662324	-0.000070
C64	C	0.616778	-0.721722	-0.000079
C65	C	0.720623	-0.735869	-0.000105
C66	C	0.721335	-0.676470	-0.000105
C67	C	0.669767	-0.639698	-0.000083
C68	C	0.727163	-0.189405	-0.000168
C69	C	0.727869	-0.130003	-0.000187
C70	C	0.624025	-0.115860	-0.000155
C71	C	0.623318	-0.175257	-0.000143
C72	C	0.674891	-0.212029	-0.000145
O73	O	0.578070	-0.263215	-0.000150
O74	O	0.770196	-0.289433	-0.000134
C75	C	0.776472	0.069388	-0.000159
C76	C	0.839689	0.070154	-0.000165
C77	C	0.667577	0.178283	-0.000103
C78	C	0.668343	0.241500	-0.000084
N79	N	0.672318	0.074134	-0.353765
C80	C	0.709241	0.037053	-0.421562
C81	C	0.709250	0.037051	-0.578724
N82	N	0.672335	0.074131	0.353493
H83	H	0.486602	0.172255	-0.000055
H84	H	-0.059867	0.165717	-0.000128
F85	F	0.631016	0.115632	-0.570313
H86	H	0.580748	-0.193677	-0.000160
H87	H	0.819097	-0.391900	-0.000166
F88	F	0.775503	-0.775016	-0.000110
F89	F	0.631005	0.115626	-0.429971
H90	H	0.740844	0.005306	-0.363256
H91	H	0.582043	-0.085909	-0.000150
H92	H	0.378851	0.170970	-0.000095
F93	F	0.089351	0.232512	-0.000098
F94	F	0.211944	0.233980	-0.000080
H95	H	0.770443	-0.111587	-0.000212
H96	H	-0.167632	0.164421	-0.000135
H97	H	-0.141947	-0.023982	-0.000174
H98	H	-0.034198	-0.022693	-0.000194
F99	F	0.830701	-0.508838	-0.000149
F100	F	0.132720	-0.085706	-0.000225
H101	H	0.246123	-0.071339	-0.000240
F102	F	0.398854	-0.030513	-0.000158
H103	H	0.740864	0.005306	-0.637026
F104	F	0.521475	-0.029040	-0.000136
H105	H	0.574207	-0.740136	-0.000082
F106	F	0.782053	-0.228531	-0.000170
F107	F	0.776978	-0.652399	-0.000133
F108	F	0.562602	-0.623192	-0.000059
H109	H	0.525555	-0.459814	-0.000020
H110	H	0.526850	-0.352066	-0.000029
