data_functionalizedCrystal
_audit_creation_method	'MofGen! by Chris Wilmer'
_symmetry_space_group_name_H-M	'P1'
_symmetry_Int_Tables_number	1
_symmetry_cell_setting	triclinic
loop_
_symmetry_equiv_pos_as_xyz
  x,y,z
_cell_length_a	15.297476
_cell_length_b	15.298852
_cell_length_c	19.805399
_cell_angle_alpha	99.696252
_cell_angle_beta	99.683761
_cell_angle_gamma	69.212574
loop_
_atom_site_label
_atom_site_type_symbol
_atom_site_fract_x
_atom_site_fract_y
_atom_site_fract_z
Zn1	Zn	1.486050	-0.616709	0.495334
Zn2	Zn	1.986050	-0.116709	0.995334
Zn3	Zn	1.512885	-0.772217	0.365455
Zn4	Zn	2.012885	-0.272217	0.865455
Zn5	Zn	1.330521	-0.589779	0.365494
Zn6	Zn	1.830521	-0.089779	0.865494
Zn7	Zn	1.357410	-0.745224	0.461953
Zn8	Zn	1.857410	-0.245224	0.961953
O9	O	1.421716	-0.680982	0.422059
O10	O	1.921716	-0.180982	0.922059
O11	O	1.619766	-0.659905	0.492059
O12	O	2.119766	-0.159905	0.992059
O13	O	1.488672	-0.748043	0.270737
O14	O	1.988672	-0.248043	0.770737
O15	O	1.328668	-0.463217	0.396704
O16	O	1.828668	0.036783	0.896704
O17	O	1.639482	-0.774156	0.396638
O18	O	2.139482	-0.274156	0.896638
O19	O	1.442934	-0.483002	0.492097
O20	O	1.942934	0.016998	0.992097
O21	O	1.354689	-0.614007	0.270766
O22	O	1.854689	-0.114007	0.770766
O23	O	1.203931	-0.587832	0.364336
O24	O	1.703931	-0.087832	0.864336
O25	O	1.374497	-0.728150	0.561104
O26	O	1.874497	-0.228150	1.061104
O27	O	1.223687	-0.702037	0.435203
O28	O	1.723687	-0.202037	0.935203
O29	O	1.469008	-0.633730	0.585629
O30	O	1.969008	-0.133730	1.085629
O31	O	1.514745	-0.898772	0.364269
O32	O	2.014745	-0.398772	0.864269
O33	O	1.400519	-0.878940	0.435165
O34	O	1.900519	-0.378940	0.935165
C35	C	1.180061	-0.639084	0.396152
C36	C	1.680061	-0.139084	0.896152
C37	C	1.076684	-0.621182	0.385082
C38	C	1.576684	-0.121182	0.885082
C39	C	1.017791	-0.553209	0.343061
C40	C	1.517791	-0.053209	0.843061
C41	C	0.920663	-0.536387	0.332659
C42	C	1.420663	-0.036387	0.832659
C43	C	0.882416	-0.587531	0.364282
C44	C	1.382416	-0.087531	0.864282
C45	C	0.941308	-0.655500	0.406307
C46	C	1.441308	-0.155500	0.906307
C47	C	1.038447	-0.672329	0.416706
C48	C	1.538447	-0.172329	0.916706
C49	C	0.903072	-0.706651	0.437926
C50	C	1.403072	-0.206651	0.937926
C51	C	0.961964	-0.774621	0.479952
C52	C	1.461964	-0.274621	0.979952
C53	C	1.059093	-0.791446	0.490349
C54	C	1.559093	-0.291446	0.990349
C55	C	1.097340	-0.740302	0.458726
C56	C	1.597340	-0.240302	0.958726
C57	C	0.805933	-0.689822	0.427528
C58	C	1.305933	-0.189822	0.927528
C59	C	0.826589	-0.808943	0.501172
C60	C	1.326589	-0.308943	1.001172
C61	C	0.923718	-0.825765	0.511574
C62	C	1.423718	-0.325765	1.011574
C63	C	1.463487	-0.922602	0.396108
C64	C	1.963487	-0.422602	0.896108
C65	C	1.481442	-1.025983	0.385038
C66	C	1.981442	-0.525983	0.885038
C67	C	1.293999	-1.276192	0.501309
C68	C	1.793999	-0.776192	1.001309
C69	C	1.277132	-1.179061	0.511715
C70	C	1.777132	-0.679061	1.011715
C71	C	1.328208	-1.140786	0.480047
C72	C	1.828208	-0.640786	0.980047
C73	C	1.396154	-1.199653	0.437971
C74	C	1.896154	-0.699653	0.937971
C75	C	1.413028	-1.296795	0.427568
C76	C	1.913028	-0.796795	0.927568
C77	C	1.447237	-1.161389	0.406305
C78	C	1.947237	-0.661389	0.906305
C79	C	1.515183	-1.220256	0.364229
C80	C	2.015183	-0.720256	0.864229
C81	C	1.532054	-1.317387	0.353828
C82	C	2.032054	-0.817387	0.853828
C83	C	1.480978	-1.355662	0.385497
C84	C	1.980978	-0.855662	0.885497
C85	C	1.430363	-1.064248	0.416708
C86	C	1.930363	-0.564248	0.916708
C87	C	1.549392	-1.084850	0.342967
C88	C	2.049392	-0.584850	0.842967
C89	C	1.566259	-1.181982	0.332561
C90	C	2.066259	-0.681982	0.832561
C91	C	1.664316	-0.723045	0.448068
C92	C	2.164316	-0.223045	0.948068
C93	C	1.767697	-0.740970	0.459151
C94	C	2.267697	-0.240970	0.959151
C95	C	1.421758	-0.680933	0.598614
C96	C	1.921758	-0.180933	1.098614
C97	C	1.421776	-0.680912	0.673851
C98	C	1.921776	-0.180912	1.173851
C99	C	1.379808	-0.438423	0.448129
C100	C	1.879808	0.061577	0.948129
C101	C	1.361949	-0.335059	0.459238
C102	C	1.861949	0.164941	0.959238
C103	C	1.421716	-0.680974	0.246204
C104	C	1.921716	-0.180974	0.746204
C105	C	1.421833	-0.680764	0.171015
C106	C	1.921833	-0.180764	0.671015
C107	C	1.470989	-0.631745	0.721967
C108	C	1.970989	-0.131745	1.221967
C109	C	1.470994	-0.631720	0.792659
C110	C	1.970994	-0.131720	1.292659
C111	C	1.421791	-0.680867	0.815234
C112	C	1.921791	-0.180867	1.315234
C113	C	1.372572	-0.730036	0.767112
C114	C	1.872572	-0.230036	1.267112
C115	C	1.372563	-0.730055	0.696421
C116	C	1.872563	-0.230055	1.196421
C117	C	1.372610	-0.729958	1.052200
C118	C	1.872610	-0.229958	1.552200
C119	C	1.372626	-0.729937	1.122897
C120	C	1.872626	-0.229937	1.622897
C121	C	1.471041	-0.631623	1.148439
C122	C	1.971041	-0.131623	1.648439
C123	C	1.471031	-0.631642	1.077748
C124	C	1.971031	-0.131642	1.577748
C125	C	1.421809	-0.680806	1.029632
C126	C	1.921809	-0.180806	1.529632
C127	C	1.421803	-0.680831	0.952979
C128	C	1.921803	-0.180831	1.452979
C129	C	1.421802	-0.680848	0.891885
C130	C	1.921802	-0.180848	1.391885
H131	H	0.971681	-0.881107	0.545792
H132	H	1.471681	-0.381107	1.045792
Cl133	Cl	1.617484	-1.391391	0.300943
Cl134	Cl	2.117484	-0.891391	0.800943
H135	H	1.511059	-0.591726	0.703593
H136	H	2.011059	-0.091726	1.203593
H137	H	1.511101	-0.591625	1.059372
H138	H	2.011101	-0.091625	1.559372
Cl139	Cl	1.310713	-0.791818	0.795492
Cl140	Cl	1.810713	-0.291818	1.295492
H141	H	1.494702	-1.434752	0.377022
H142	H	1.994702	-0.934752	0.877022
H143	H	1.590984	-1.053689	0.317181
H144	H	2.090984	-0.553689	0.817181
H145	H	1.332546	-0.770006	1.013032
H146	H	1.832546	-0.270006	1.513032
Cl147	Cl	1.219447	-0.761434	0.471812
Cl148	Cl	1.719447	-0.261434	0.971812
Cl149	Cl	1.344946	-0.990256	0.469601
Cl150	Cl	1.844946	-0.490256	0.969601
H151	H	1.511070	-0.591686	0.831833
H152	H	2.011070	-0.091686	1.331833
H153	H	0.795450	-0.850589	0.526921
H154	H	1.295450	-0.350589	1.026921
Cl155	Cl	1.307086	-1.018691	0.493200
Cl156	Cl	1.807086	-0.518691	0.993200
H157	H	1.332478	-0.770080	0.657245
H158	H	1.832478	-0.270080	1.157245
H159	H	1.511117	-0.591587	1.187623
H160	H	2.011117	-0.091587	1.687623
Cl161	Cl	1.651678	-1.255996	0.279670
Cl162	Cl	2.151678	-0.755996	0.779670
H163	H	0.803329	-0.573829	0.355810
H164	H	1.303329	-0.073829	0.855810
Cl165	Cl	0.846634	-0.450939	0.279834
Cl166	Cl	1.346634	0.049061	0.779834
Cl167	Cl	0.731910	-0.604377	0.374698
Cl168	Cl	1.231910	-0.104377	0.874698
H169	H	1.332555	-0.769960	1.141274
H170	H	1.832555	-0.269960	1.641274
H171	H	1.221812	-1.131135	0.545974
H172	H	1.721812	-0.631135	1.045974
H173	H	1.107043	-0.846800	0.524562
H174	H	1.607043	-0.346800	1.024562
Cl175	Cl	1.065878	-0.488928	0.303308
Cl176	Cl	1.565878	0.011072	0.803308
H177	H	1.252426	-1.307365	0.527093
H178	H	1.752426	-0.807365	1.027093
