data_functionalizedCrystal
_audit_creation_method	'MofGen! by Chris Wilmer'
_symmetry_space_group_name_H-M	'P1'
_symmetry_Int_Tables_number	1
_symmetry_cell_setting	triclinic
loop_
_symmetry_equiv_pos_as_xyz
  x,y,z
_cell_length_a	30.700809
_cell_length_b	30.711276
_cell_length_c	30.700862
_cell_angle_alpha	59.998386
_cell_angle_beta	89.999414
_cell_angle_gamma	60.000191
loop_
_atom_site_label
_atom_site_type_symbol
_atom_site_fract_x
_atom_site_fract_y
_atom_site_fract_z
O1	O	-0.371254	-0.311651	0.012944
O2	O	-0.307913	-0.222487	-0.012907
O3	O	-0.307911	-0.311650	0.076286
O4	O	-0.371257	-0.222488	-0.076249
O5	O	-0.235466	-0.384070	0.076286
O6	O	-0.235468	-0.294907	-0.012907
O7	O	-0.298809	-0.384071	0.012944
Zn8	Zn	-0.255636	-0.350987	0.000018
Zn9	Zn	-0.351086	-0.255571	0.000019
O10	O	-0.298812	-0.294908	-0.076249
C11	C	-0.234796	-0.137097	-0.018777
C12	C	-0.261674	-0.083360	-0.015076
C13	C	-0.182374	-0.163176	-0.019143
C14	C	-0.234798	-0.215942	-0.018783
C15	C	-0.261678	-0.246507	-0.015089
C16	C	-0.182376	-0.241901	-0.019150
C17	C	-0.155920	-0.215947	-0.018777
C18	C	-0.098463	-0.246515	-0.015075
C19	C	-0.261132	-0.163172	-0.019150
C20	C	-0.574961	-0.535511	0.039265
C21	C	-0.548506	-0.588283	0.039634
C22	C	-0.496086	-0.535509	0.039262
C23	C	-0.469751	-0.588281	0.039632
C24	C	-0.496085	-0.614360	0.039265
C25	C	-0.548507	-0.509552	0.039632
C26	C	-0.765169	-0.393516	0.024987
C27	C	-0.819034	-0.364488	0.020950
C28	C	-0.846055	-0.389406	0.018925
C29	C	-0.904462	-0.357927	0.014538
C30	C	-0.819206	-0.443357	0.020941
C31	C	-0.765344	-0.472385	0.024984
C32	C	-0.738325	-0.447463	0.027007
C33	C	-0.447920	-0.790230	0.024988
C34	C	-0.423094	-0.840041	0.020951
C35	C	-0.371150	-0.865027	0.018921
C36	C	-0.344230	-0.919028	0.014536
C37	C	-0.344030	-0.840201	0.020935
C38	C	-0.368852	-0.790399	0.024981
C39	C	-0.420803	-0.765414	0.027004
C40	C	-0.447922	-0.393510	0.024977
C41	C	-0.423099	-0.364475	0.020931
C42	C	-0.371152	-0.389391	0.018903
C43	C	-0.344235	-0.357911	0.014513
C44	C	-0.344034	-0.443338	0.020916
C45	C	-0.368860	-0.472368	0.024960
C46	C	-0.420804	-0.447452	0.026995
C47	C	-0.679920	-0.478941	0.031387
C48	C	-0.633366	-0.504032	0.034880
C49	C	-0.469171	-0.504029	0.034875
C50	C	-0.447717	-0.478936	0.031380
C51	C	-0.469170	-0.668361	0.034880
C52	C	-0.447716	-0.711408	0.031386
C53	C	-0.496432	-0.071057	-0.503890
C54	C	-0.548853	-0.018285	-0.530226
C55	C	-0.496432	-0.071056	-0.425015
C56	C	-0.548854	-0.018284	-0.451470
C57	C	-0.575308	0.007793	-0.503892
C58	C	-0.470097	-0.097014	-0.451469
C59	C	-0.368666	-0.213054	-0.552051
C60	C	-0.343664	-0.242084	-0.576877
C61	C	-0.370616	-0.217167	-0.628824
C62	C	-0.343513	-0.248647	-0.655741
C63	C	-0.422570	-0.163216	-0.655945
C64	C	-0.447565	-0.134187	-0.631122
C65	C	-0.420611	-0.159108	-0.579173
C66	C	-0.765518	0.183662	-0.631659
C67	C	-0.819384	0.233473	-0.656662
C68	C	-0.846408	0.258459	-0.629712
C69	C	-0.904813	0.312461	-0.656813
C70	C	-0.819559	0.233635	-0.577758
C71	C	-0.765694	0.183833	-0.552761
C72	C	-0.738677	0.158847	-0.579717
C73	C	-0.368668	-0.213052	-0.234803
C74	C	-0.343669	-0.242086	-0.180935
C75	C	-0.370621	-0.217169	-0.153914
C76	C	-0.343519	-0.248648	-0.095506
C77	C	-0.422573	-0.163222	-0.180762
C78	C	-0.447570	-0.134193	-0.234627
C79	C	-0.420610	-0.159111	-0.261646
C80	C	-0.447720	-0.127629	-0.552258
C81	C	-0.469327	-0.102536	-0.530805
C82	C	-0.469328	-0.102535	-0.366609
C83	C	-0.447721	-0.127627	-0.320054
C84	C	-0.633714	0.061794	-0.530997
C85	C	-0.680269	0.104841	-0.552605
O86	O	0.076277	-0.384081	0.012960
O87	O	-0.076257	-0.294916	-0.012894
O88	O	0.012931	-0.384083	0.076300
O89	O	-0.012910	-0.294914	-0.076234
O90	O	0.012933	-0.311666	0.076306
O91	O	-0.076254	-0.222499	-0.012888
O92	O	0.076280	-0.311664	0.012966
Zn93	Zn	0.000013	-0.255584	0.000040
Zn94	Zn	0.000010	-0.350996	0.000032
O95	O	-0.012908	-0.222497	-0.076228
O96	O	-0.298805	0.063292	0.012964
O97	O	-0.235462	-0.063346	-0.012888
O98	O	-0.235465	-0.063353	0.076305
O99	O	-0.298803	0.063300	-0.076229
O100	O	-0.307912	-0.063350	0.076299
O101	O	-0.307909	-0.063342	-0.012895
O102	O	-0.371252	0.063295	0.012958
Zn103	Zn	-0.351083	-0.000023	0.000031
Zn104	Zn	-0.255631	-0.000027	0.000039
O105	O	-0.371250	0.063303	-0.076236
O106	O	-1.076607	0.456783	-0.692421
O107	O	-0.924074	0.330140	-0.629074
O108	O	-1.013262	0.330138	-0.629073
O109	O	-0.987418	0.456785	-0.692422
O110	O	-1.013261	0.330136	-0.701518
O111	O	-0.924072	0.330138	-0.701518
O112	O	-1.076605	0.456781	-0.764865
Zn113	Zn	-1.000338	0.393459	-0.744694
Zn114	Zn	-1.000340	0.393461	-0.649245
O115	O	-0.987417	0.456783	-0.764866
O116	O	-0.307911	-0.311650	-0.764507
O117	O	-0.371254	-0.222491	-0.701165
O118	O	-0.371252	-0.311652	-0.701162
O119	O	-0.307912	-0.222489	-0.764510
O120	O	-0.298806	-0.384074	-0.628716
O121	O	-0.298807	-0.294912	-0.628719
O122	O	-0.235464	-0.384072	-0.692061
Zn123	Zn	-0.255634	-0.350991	-0.648887
Zn124	Zn	-0.351085	-0.255572	-0.744338
O125	O	-0.235466	-0.294910	-0.692064
C126	C	-0.155920	-0.469469	0.234827
C127	C	-0.098464	-0.523208	0.261706
C128	C	-0.182375	-0.443392	0.261162
C129	C	-0.234797	-0.390619	0.155950
C130	C	-0.261676	-0.360052	0.098494
C131	C	-0.261132	-0.364662	0.182405
C132	C	-0.234797	-0.390620	0.234826
C133	C	-0.261675	-0.360052	0.261704
C134	C	-0.182375	-0.443391	0.182406
C135	C	0.018810	-0.390643	0.234846
C136	C	0.015111	-0.360079	0.261727
C137	C	0.019176	-0.443414	0.261179
C138	C	0.018812	-0.390637	0.155967
C139	C	0.015115	-0.360067	0.098511
C140	C	0.019178	-0.443408	0.182420
C141	C	0.018807	-0.469488	0.234841
C142	C	0.015106	-0.523226	0.261717
C143	C	0.019180	-0.364683	0.182425
C144	C	-0.234799	-0.215977	0.234834
C145	C	-0.261678	-0.246545	0.261708
C146	C	-0.182376	-0.241940	0.261172
C147	C	-0.234798	-0.137119	0.155964
C148	C	-0.261676	-0.083372	0.098509
C149	C	-0.182375	-0.163202	0.182421
C150	C	-0.155921	-0.215981	0.234841
C151	C	-0.098464	-0.246554	0.261721
C152	C	-0.261134	-0.163198	0.182415
C153	C	-0.039199	0.007461	-0.503869
C154	C	-0.039568	-0.018614	-0.530207
C155	C	-0.039203	-0.071390	-0.424995
C156	C	-0.039572	-0.097344	-0.451452
C157	C	-0.039201	-0.071385	-0.503874
C158	C	-0.039570	-0.018618	-0.451448
C159	C	-0.024912	0.183325	-0.552025
C160	C	-0.020873	0.233135	-0.576849
C161	C	-0.018844	0.258123	-0.628796
C162	C	-0.014454	0.312124	-0.655711
C163	C	-0.020859	0.233301	-0.655918
C164	C	-0.024906	0.183500	-0.631097
C165	C	-0.026932	0.158512	-0.579148
C166	C	-0.024920	-0.133799	-0.631644
C167	C	-0.020882	-0.162650	-0.656647
C168	C	-0.018855	-0.216605	-0.629699
C169	C	-0.014470	-0.247897	-0.656801
C170	C	-0.020872	-0.241704	-0.577746
C171	C	-0.024919	-0.212847	-0.552747
C172	C	-0.026939	-0.158893	-0.579702
C173	C	-0.024929	-0.133823	-0.234783
C174	C	-0.020887	-0.162684	-0.180915
C175	C	-0.018862	-0.216639	-0.153896
C176	C	-0.014477	-0.247936	-0.095488
C177	C	-0.020875	-0.241733	-0.180745
C178	C	-0.024915	-0.212872	-0.234610
C179	C	-0.026947	-0.158912	-0.261627
C180	C	-0.031316	0.104507	-0.552235
C181	C	-0.034811	0.061462	-0.530782
C182	C	-0.034820	-0.102682	-0.366590
C183	C	-0.031328	-0.127624	-0.320035
C184	C	-0.034816	-0.102672	-0.530980
C185	C	-0.031322	-0.127610	-0.552588
O186	O	-0.012940	-0.294936	0.371303
O187	O	0.012923	-0.384099	0.307961
O188	O	-0.076273	-0.294935	0.307950
O189	O	0.076257	-0.384100	0.371315
O190	O	-0.076265	-0.222515	0.235508
O191	O	0.012932	-0.311679	0.235520
O192	O	-0.012931	-0.222517	0.298862
Zn193	Zn	0.000002	-0.255600	0.255689
Zn194	Zn	-0.000010	-0.351016	0.351134
O195	O	0.076266	-0.311681	0.298873
C196	C	-0.574962	0.464558	-0.503864
C197	C	-0.548506	0.490518	-0.530195
C198	C	-0.496085	0.385697	-0.424987
C199	C	-0.469749	0.411776	-0.451438
C200	C	-0.496084	0.464555	-0.503857
C201	C	-0.548507	0.411779	-0.451444
C202	C	-0.765173	0.526994	-0.552039
C203	C	-0.819039	0.555852	-0.576867
C204	C	-0.846061	0.609814	-0.628812
C205	C	-0.904469	0.641114	-0.655732
C206	C	-0.819211	0.634913	-0.655928
C207	C	-0.765348	0.606050	-0.631102
C208	C	-0.738329	0.552088	-0.579155
C209	C	-0.447916	0.606561	-0.631604
C210	C	-0.423088	0.635592	-0.656601
C211	C	-0.371143	0.610674	-0.629648
C212	C	-0.344222	0.642150	-0.656742
C213	C	-0.344023	0.556716	-0.577696
C214	C	-0.368845	0.527681	-0.552704
C215	C	-0.420798	0.552613	-0.579664
C216	C	-0.447920	0.209802	-0.234786
C217	C	-0.423096	0.159988	-0.180919
C218	C	-0.371148	0.134996	-0.153895
C219	C	-0.344230	0.080987	-0.095489
C220	C	-0.344029	0.159823	-0.180737
C221	C	-0.368856	0.209637	-0.234602
C222	C	-0.420801	0.234620	-0.261624
C223	C	-0.679923	0.520797	-0.552238
C224	C	-0.633367	0.495853	-0.530781
C225	C	-0.469169	0.331687	-0.366583
C226	C	-0.447714	0.288634	-0.320030
C227	C	-0.469167	0.496035	-0.530956
C228	C	-0.447712	0.521128	-0.552558
H229	H	-0.426680	-0.610102	0.040221
H230	H	0.019779	-0.465234	0.161179
C231	C	-0.025378	-0.259026	0.108069
C232	C	0.019983	-0.307359	0.153751
H233	H	-0.024882	-0.223638	0.090369
H234	H	-0.025533	-0.270830	0.084806
H235	H	-0.056480	-0.249825	0.118053
H236	H	0.051086	-0.316563	0.143767
H237	H	0.020143	-0.295553	0.177019
H238	H	0.019760	-0.465234	0.304248
C239	C	-0.014700	-0.321064	-0.098104
C240	C	-0.018663	-0.301033	-0.151051
H241	H	-0.013340	-0.357668	-0.079777
H242	H	0.016823	-0.329080	-0.081132
H243	H	-0.044899	-0.290031	-0.097497
H244	H	0.011538	-0.332064	-0.151658
H245	H	-0.050189	-0.293020	-0.168028
C246	C	-0.322259	-0.133414	0.108057
C247	C	-0.319276	-0.133737	0.153740
H248	H	-0.358152	-0.115232	0.090357
H249	H	-0.310300	-0.110308	0.084794
H250	H	-0.300354	-0.174487	0.118041
H251	H	-0.341178	-0.092664	0.143755
H252	H	-0.331242	-0.156843	0.177007
H253	H	-0.304205	-0.141343	-0.019747
C254	C	-0.181955	-0.490433	0.139031
C255	C	-0.153686	-0.472859	0.153743
H256	H	-0.164239	-0.508622	0.121338
H257	H	-0.183768	-0.519379	0.170019
H258	H	-0.217026	-0.455212	0.115752
H259	H	-0.118616	-0.508081	0.177026
H260	H	-0.151867	-0.443911	0.122751
C261	C	-0.014684	-0.171788	-0.729999
C262	C	-0.018659	-0.135067	-0.713748
H263	H	-0.013314	-0.154756	-0.765252
H264	H	0.016836	-0.212265	-0.706542
H265	H	-0.044884	-0.173237	-0.729233
H266	H	0.011543	-0.133622	-0.714511
H267	H	-0.050183	-0.094580	-0.737212
C268	C	-0.813807	0.228295	-0.732135
C269	C	-0.848896	0.260748	-0.713760
H270	H	-0.832029	0.245130	-0.767384
H271	H	-0.784631	0.231556	-0.732098
H272	H	-0.800971	0.186191	-0.709390
H273	H	-0.861729	0.302851	-0.736504
H274	H	-0.878081	0.257493	-0.713802
C275	C	-0.181988	-0.073203	0.139057
C276	C	-0.153698	-0.133741	0.153762
H277	H	-0.164280	-0.055019	0.121370
H278	H	-0.217051	-0.050105	0.115779
H279	H	-0.183809	-0.073430	0.170052
H280	H	-0.151880	-0.133513	0.122767
H281	H	-0.118625	-0.156845	0.177041
C282	C	-0.108024	-0.347601	0.322297
C283	C	-0.153703	-0.299272	0.319314
H284	H	-0.090322	-0.382992	0.358191
H285	H	-0.118008	-0.356796	0.300397
H286	H	-0.084758	-0.335794	0.310333
H287	H	-0.176971	-0.311078	0.331275
H288	H	-0.143720	-0.290077	0.341222
H289	H	-0.490217	0.230142	-0.256784
C290	C	-0.628864	-0.583710	0.040699
C291	C	-0.577169	-0.617761	0.040454
H292	H	-0.646556	-0.601911	0.041208
H293	H	-0.627043	-0.583485	0.071464
H294	H	-0.648056	-0.542642	0.009586
H295	H	-0.557976	-0.658827	0.071570
H296	H	-0.578988	-0.617992	0.009687
C297	C	-0.040643	-0.172038	-0.371097
C298	C	-0.040395	-0.154654	-0.422792
H299	H	-0.041160	-0.207411	-0.353409
H300	H	-0.009533	-0.181264	-0.351903
H301	H	-0.071410	-0.139230	-0.372921
H302	H	-0.009626	-0.187460	-0.420968
H303	H	-0.071508	-0.145431	-0.441991
H304	H	-0.040120	0.003178	-0.430195
C305	C	-0.021316	-0.081642	-0.186497
C306	C	-0.018678	-0.135098	-0.151406
H307	H	-0.019959	-0.064609	-0.168279
H308	H	0.007968	-0.091538	-0.199323
H309	H	-0.053753	-0.052522	-0.215682
H310	H	0.013761	-0.164220	-0.122223
H311	H	-0.047965	-0.125204	-0.138571
C312	C	-0.040535	0.062722	-0.605958
C313	C	-0.040321	0.010819	-0.588337
H314	H	-0.040984	0.080879	-0.641838
H315	H	-0.071319	0.091691	-0.603963
H316	H	-0.009441	0.050792	-0.584027
H317	H	-0.071417	0.022750	-0.610265
H318	H	-0.009534	-0.018155	-0.590336
H319	H	-0.301723	0.536422	-0.555753
H320	H	-0.161137	-0.141349	-0.019737
H321	H	-0.026581	-0.089888	-0.256777
H322	H	-0.026563	0.162985	-0.509727
C323	C	-0.351557	-0.320896	0.182002
C324	C	-0.319274	-0.307333	0.153723
H325	H	-0.387448	-0.285501	0.164294
H326	H	-0.349524	-0.353685	0.183815
H327	H	-0.339595	-0.332690	0.217074
H328	H	-0.331234	-0.295543	0.118652
H329	H	-0.321310	-0.274533	0.151904
C330	C	-0.021280	0.227959	-0.496197
C331	C	-0.018650	0.260411	-0.547034
H332	H	-0.019903	0.244796	-0.477789
H333	H	-0.053716	0.231217	-0.499500
H334	H	0.008003	0.185855	-0.476820
H335	H	-0.047936	0.302514	-0.566412
H336	H	0.013790	0.257158	-0.543733
C337	C	-0.014643	0.309716	-0.729073
C338	C	-0.018624	0.260763	-0.713013
H339	H	-0.013258	0.326664	-0.764321
H340	H	-0.044842	0.340521	-0.728247
H341	H	0.016877	0.295157	-0.705548
H342	H	-0.050146	0.275323	-0.736537
H343	H	0.011579	0.229952	-0.713844
H344	H	-0.161134	-0.465220	0.304234
C345	C	-0.024482	0.188662	-0.711742
C346	C	-0.027118	0.156216	-0.660907
H347	H	-0.025843	0.171813	-0.730143
H348	H	-0.053764	0.230759	-0.731124
H349	H	0.007956	0.185408	-0.708434
H350	H	-0.059558	0.159474	-0.664215
H351	H	0.002167	0.114108	-0.641520
H352	H	-0.569749	-0.467085	0.040220
C353	C	-0.024531	-0.058550	-0.712152
C354	C	-0.027149	-0.074488	-0.661274
H355	H	-0.025910	-0.021933	-0.730443
H356	H	0.007904	-0.090958	-0.708920
H357	H	-0.053816	-0.051940	-0.731602
H358	H	0.002139	-0.081103	-0.641823
H359	H	-0.059588	-0.042073	-0.664504
H360	H	-0.026556	-0.233307	-0.256467
H361	H	-0.019230	-0.285631	-0.555806
C362	C	-0.024502	-0.293886	-0.477265
C363	C	-0.027134	-0.240435	-0.495643
H364	H	-0.025865	-0.310920	-0.442009
H365	H	-0.053785	-0.283985	-0.499996
H366	H	0.007936	-0.323008	-0.477317
H367	H	-0.059574	-0.211311	-0.495595
H368	H	0.002152	-0.250334	-0.472905
H369	H	-0.161139	-0.284365	-0.019743
C370	C	-0.503742	-0.289441	0.021355
C371	C	-0.452908	-0.305177	0.018716
H372	H	-0.522142	-0.252836	0.019992
H373	H	-0.523124	-0.282892	-0.007926
H374	H	-0.500432	-0.321922	0.053795
H375	H	-0.456217	-0.272698	-0.013726
H376	H	-0.433521	-0.311723	0.048000
H377	H	-0.426677	0.389946	-0.430194
H378	H	-0.569746	0.532985	-0.573266
H379	H	-0.569753	0.389964	-0.430206
H380	H	-0.490220	-0.373215	0.026628
C381	C	-0.503740	0.165149	-0.186510
C382	C	-0.452905	0.132700	-0.151416
H383	H	-0.522141	0.148299	-0.168296
H384	H	-0.523121	0.207245	-0.199335
H385	H	-0.500433	0.161901	-0.215696
H386	H	-0.456213	0.135952	-0.122232
H387	H	-0.433520	0.090594	-0.138583
H388	H	-0.743179	0.483055	-0.509743
H389	H	-0.840896	0.535415	-0.554785
C390	C	-0.549258	0.028746	-0.408093
C391	C	-0.577539	0.011188	-0.422810
H392	H	-0.566972	0.046946	-0.390406
H393	H	-0.514195	-0.006477	-0.384812
H394	H	-0.547434	0.057687	-0.439083
H395	H	-0.579359	-0.017757	-0.391819
H396	H	-0.612611	0.046416	-0.446091
H397	H	-0.841216	0.678847	-0.698222
C398	C	-0.770928	0.687098	-0.711739
C399	C	-0.735838	0.633639	-0.660905
H400	H	-0.752710	0.704132	-0.730136
H401	H	-0.783757	0.677206	-0.731127
H402	H	-0.800111	0.716216	-0.708429
H403	H	-0.706657	0.604519	-0.664215
H404	H	-0.723002	0.643529	-0.641513
H405	H	-0.490215	0.626864	-0.653559
C406	C	-0.503746	0.710660	-0.732073
C407	C	-0.452904	0.694909	-0.713695
H408	H	-0.522155	0.747285	-0.767319
H409	H	-0.500449	0.678202	-0.732045
H410	H	-0.523116	0.717186	-0.709324
H411	H	-0.433533	0.688379	-0.736442
H412	H	-0.456199	0.727374	-0.713727
C413	C	-0.288201	0.452633	-0.477218
C414	C	-0.339038	0.468378	-0.495602
H415	H	-0.269802	0.416024	-0.441964
H416	H	-0.268821	0.446086	-0.499949
H417	H	-0.291506	0.485108	-0.477266
H418	H	-0.335734	0.435904	-0.495559
H419	H	-0.358423	0.474922	-0.472865
C420	C	-0.288205	0.204466	-0.229015
C421	C	-0.339044	0.236921	-0.264107
H422	H	-0.269800	0.221308	-0.247233
H423	H	-0.291506	0.207713	-0.199833
H424	H	-0.268829	0.162365	-0.216189
H425	H	-0.358422	0.279022	-0.276930
H426	H	-0.335746	0.233680	-0.293299
C427	C	-0.292395	-0.577290	0.071696
C428	C	-0.339050	-0.531670	0.027182
H429	H	-0.273994	-0.613902	0.073069
H430	H	-0.270180	-0.563567	0.068993
H431	H	-0.301374	-0.585348	0.103217
H432	H	-0.330071	-0.523609	-0.004339
H433	H	-0.361270	-0.545396	0.029881
H434	H	-0.346709	-0.233340	-0.256801
H435	H	-0.301729	0.139473	-0.158731
H436	H	-0.840890	-0.320560	0.019306
C437	C	-0.760492	-0.306464	-0.019224
C438	C	-0.735475	-0.366125	0.027232
H439	H	-0.742161	-0.289556	-0.017831
H440	H	-0.759864	-0.307906	-0.049424
H441	H	-0.796415	-0.281466	-0.021917
H442	H	-0.699553	-0.391125	0.029923
H443	H	-0.736098	-0.364687	0.057440
C444	C	-0.901855	-0.433873	0.014740
C445	C	-0.848907	-0.470745	0.018715
H446	H	-0.920190	-0.450782	0.013362
H447	H	-0.902469	-0.432428	0.044938
H448	H	-0.918818	-0.393404	-0.016783
H449	H	-0.831943	-0.511213	0.050240
H450	H	-0.848291	-0.472196	-0.011486
C451	C	-0.623190	0.011500	-0.591389
C452	C	-0.577506	0.011172	-0.588375
H453	H	-0.640873	0.029687	-0.627289
H454	H	-0.613214	-0.029565	-0.569493
H455	H	-0.646469	0.034612	-0.579437
H456	H	-0.554225	-0.011944	-0.600324
H457	H	-0.587482	0.052245	-0.610279
H458	H	-0.427024	-0.139478	-0.430231
H459	H	-0.743487	-0.516312	0.026628
H460	H	-0.346713	-0.233351	-0.509753
C461	C	-0.539675	-0.741341	-0.019242
C462	C	-0.505019	-0.762775	0.027220
H463	H	-0.574923	-0.724394	-0.017863
H464	H	-0.538845	-0.710535	-0.049439
H465	H	-0.528762	-0.774563	-0.021930
H466	H	-0.515929	-0.729553	0.029906
H467	H	-0.505851	-0.793584	0.057424
C468	C	-0.424325	-0.929387	0.061902
C469	C	-0.452903	-0.867325	0.018733
H470	H	-0.442730	-0.946229	0.060533
H471	H	-0.389840	-0.951389	0.060114
H472	H	-0.421030	-0.932632	0.094336
H473	H	-0.456194	-0.864081	-0.013701
H474	H	-0.487397	-0.845318	0.020517
C475	C	-0.253525	-0.929740	0.061876
C476	C	-0.286931	-0.867667	0.018709
H477	H	-0.218275	-0.946696	0.060497
H478	H	-0.253510	-0.932980	0.094308
H479	H	-0.266130	-0.951643	0.060092
H480	H	-0.274328	-0.845764	0.020496
H481	H	-0.286943	-0.864423	-0.013731
C482	C	-0.325830	-0.741771	-0.019288
C483	C	-0.339043	-0.763112	0.027189
H484	H	-0.307430	-0.724921	-0.017927
H485	H	-0.303613	-0.775010	-0.021978
H486	H	-0.357490	-0.710900	-0.049478
H487	H	-0.307382	-0.793986	0.057379
H488	H	-0.361260	-0.729869	0.029885
C489	C	-0.270860	-0.433871	0.014729
C490	C	-0.286929	-0.470736	0.018698
H491	H	-0.235606	-0.450790	0.013365
H492	H	-0.294369	-0.393407	-0.016792
H493	H	-0.271701	-0.432423	0.044930
H494	H	-0.286093	-0.472181	-0.011505
H495	H	-0.263414	-0.511211	0.050223
H496	H	-0.301369	-0.286012	-0.159078
H497	H	-0.841561	0.253985	-0.555818
C498	C	-0.682863	0.107268	-0.628390
C499	C	-0.735812	0.156220	-0.661298
H500	H	-0.664523	0.090329	-0.646688
H501	H	-0.665910	0.121819	-0.619418
H502	H	-0.682246	0.076451	-0.596749
H503	H	-0.736429	0.187039	-0.692938
H504	H	-0.752769	0.141670	-0.670278
C505	C	-0.268178	-0.317116	-0.496234
C506	C	-0.286557	-0.301377	-0.547069
H507	H	-0.232922	-0.353721	-0.477833
H508	H	-0.268235	-0.284639	-0.499540
H509	H	-0.290909	-0.323672	-0.476849
H510	H	-0.263828	-0.294816	-0.566455
H511	H	-0.286497	-0.333861	-0.543765
H512	H	-0.444508	-0.142931	-0.698242
H513	H	-0.743837	0.163627	-0.510462
C514	C	-0.505793	-0.029264	-0.707590
C515	C	-0.504667	-0.074886	-0.660932
H516	H	-0.541047	0.007344	-0.725993
H517	H	-0.482339	-0.021202	-0.698617
H518	H	-0.494765	-0.042991	-0.729806
H519	H	-0.515692	-0.061161	-0.638713
H520	H	-0.528129	-0.082948	-0.669904
C521	C	-0.523049	-0.059148	-0.229050
C522	C	-0.504671	-0.074892	-0.264139
H523	H	-0.558300	-0.022536	-0.247271
H524	H	-0.523004	-0.091618	-0.199870
H525	H	-0.500310	-0.052604	-0.216219
H526	H	-0.527408	-0.081440	-0.276967
H527	H	-0.504720	-0.042415	-0.293328
H528	H	-0.444519	-0.142934	-0.158758
