data_functionalizedCrystal
_audit_creation_method	'MofGen! by Chris Wilmer'
_symmetry_space_group_name_H-M	'P1'
_symmetry_Int_Tables_number	1
_symmetry_cell_setting	triclinic
loop_
_symmetry_equiv_pos_as_xyz
  x,y,z
_cell_length_a	10.654562
_cell_length_b	15.944551
_cell_length_c	9.130313
_cell_angle_alpha	89.997799
_cell_angle_beta	89.996930
_cell_angle_gamma	83.994421
loop_
_atom_site_label
_atom_site_type_symbol
_atom_site_fract_x
_atom_site_fract_y
_atom_site_fract_z
O1	O	1.666298	0.118023	-0.121899
O2	O	1.300676	0.129252	-0.121881
O3	O	1.493471	0.001421	-0.121878
O4	O	1.473503	0.245855	-0.121903
O5	O	1.493469	0.001425	0.121721
O6	O	1.300674	0.129256	0.121718
O7	O	1.666295	0.118027	0.121700
Cu8	Cu	1.483484	0.123642	0.143951
Cu9	Cu	1.483487	0.123638	-0.144133
O10	O	1.473500	0.245858	0.121696
C11	C	1.253888	0.128427	-0.000079
C12	C	1.114477	0.125954	-0.000072
C13	C	1.048960	0.124802	0.132702
C14	C	0.917968	0.122485	0.132678
C15	C	0.918021	0.122475	-0.132907
C16	C	1.049012	0.124786	-0.132881
C17	C	1.114426	0.125970	0.265511
C18	C	1.048908	0.124819	0.398296
C19	C	0.917916	0.122502	0.398272
C20	C	0.852441	0.121335	0.265463
C21	C	1.492641	-0.029876	-0.000078
C22	C	1.490156	-0.123136	-0.000077
C23	C	1.364712	-0.338723	-0.000091
C24	C	1.422963	-0.399400	0.120015
C25	C	1.485660	-0.293888	-0.000088
C26	C	1.422993	-0.399386	-0.120154
C27	C	1.481308	-0.458826	-0.000105
C28	C	1.543944	-0.353337	0.120117
C29	C	1.543958	-0.353317	-0.120160
C30	C	1.602296	-0.413976	-0.000024
C31	C	1.488163	-0.198872	-0.000077
C32	C	1.478814	-0.553842	-0.000105
C33	C	1.713084	0.118852	-0.000105
C34	C	1.852494	0.121325	-0.000122
N35	N	1.483491	0.123644	0.346574
C36	C	1.474330	0.277155	-0.000107
C37	C	1.476816	0.370416	-0.000118
N38	N	1.483490	0.123629	-0.346755
C39	C	1.568883	0.067060	0.423227
C40	C	1.568879	0.067050	0.576564
C41	C	1.398089	0.180216	0.576580
C42	C	1.398088	0.180221	0.423246
C43	C	1.654287	0.010483	0.346555
C44	C	1.739686	-0.046105	0.423209
C45	C	1.739683	-0.046115	0.576546
C46	C	1.654280	0.010463	0.653229
H47	H	0.745779	0.119446	0.265454
C48	C	1.766883	-0.160269	0.250823
C49	C	1.833526	-0.108330	0.338956
H50	H	1.824811	-0.198691	0.198817
H51	H	1.714595	-0.190778	0.310662
H52	H	1.716060	-0.126559	0.183202
H53	H	1.884342	-0.142039	0.406585
H54	H	1.885836	-0.077818	0.279113
C55	C	1.717692	-0.285542	0.215013
C56	C	1.612939	-0.325953	0.257349
H57	H	1.760276	-0.268631	0.299736
H58	H	1.773429	-0.323256	0.158884
H59	H	1.690407	-0.237323	0.157726
H60	H	1.640226	-0.374175	0.314628
H61	H	1.557192	-0.288237	0.313502
H62	H	1.809209	-0.092197	0.638956
C63	C	1.316178	0.057194	0.193273
C64	C	1.258415	0.128507	0.265544
H65	H	1.405070	0.058764	0.193288
H66	H	1.296094	0.007790	0.242329
H67	H	1.286559	0.056674	0.095179
H68	H	1.288028	0.129024	0.363642
H69	H	1.278510	0.177925	0.216491
C70	C	1.249684	0.128380	0.516263
C71	C	1.120874	0.126099	0.544275
H72	H	1.294106	0.129175	0.606388
H73	H	1.280720	0.079866	0.461724
H74	H	1.261581	0.177657	0.461697
H75	H	1.108975	0.076819	0.598832
H76	H	1.089827	0.174619	0.598836
H77	H	0.864577	0.121558	0.506392
C78	C	0.717239	0.118938	-0.250866
C79	C	0.846051	0.121204	-0.278883
H80	H	0.672810	0.118161	-0.340989
H81	H	0.705328	0.069667	-0.196317
H82	H	0.686217	0.167458	-0.196309
H83	H	0.877075	0.072680	-0.333432
H84	H	0.857969	0.170480	-0.333455
H85	H	1.654276	0.010444	0.778086
H86	H	1.102356	0.125728	-0.240998
C87	C	1.229263	0.292071	0.561201
C88	C	1.304221	0.242405	0.660866
H89	H	1.171309	0.330461	0.613238
H90	H	1.281530	0.322617	0.501398
H91	H	1.184099	0.256816	0.501393
H92	H	1.349393	0.277660	0.720667
H93	H	1.251948	0.211857	0.720694
H94	H	1.264320	-0.305999	0.000034
H95	H	1.328553	0.226296	0.360834
H96	H	1.371805	-0.419804	0.221560
C97	C	1.801709	-0.433607	-0.124527
C98	C	1.737953	-0.457928	0.000055
H99	H	1.885462	-0.460732	-0.124465
H100	H	1.758965	-0.449389	-0.209887
H101	H	1.803954	-0.374207	-0.123704
H102	H	1.735699	-0.517328	-0.000773
H103	H	1.780708	-0.442153	0.085437
C104	C	1.549439	-0.348724	-0.382900
C105	C	1.612957	-0.325730	-0.257245
H106	H	1.592026	-0.331685	-0.467536
H107	H	1.547703	-0.408156	-0.384372
H108	H	1.465515	-0.321911	-0.382017
H109	H	1.696879	-0.352548	-0.258122
H110	H	1.614707	-0.266287	-0.255772
C111	C	1.229537	-0.388548	-0.256979
C112	C	1.353918	-0.426904	-0.257233
H113	H	1.186893	-0.405530	-0.341606
H114	H	1.187401	-0.405097	-0.171700
H115	H	1.229968	-0.329001	-0.257482
H116	H	1.353488	-0.486451	-0.256718
H117	H	1.396065	-0.410360	-0.342534
C118	C	1.772610	0.028182	0.126909
C119	C	1.654296	0.010489	0.178006
H120	H	1.772617	0.028182	0.022855
H121	H	1.789772	0.081972	0.161598
H122	H	1.835680	-0.013618	0.161603
H123	H	1.591227	0.052293	0.143320
H124	H	1.637120	-0.043308	0.143302
