data_functionalizedCrystal
_audit_creation_method	'MofGen! by Chris Wilmer'
_symmetry_space_group_name_H-M	'P1'
_symmetry_Int_Tables_number	1
_symmetry_cell_setting	triclinic
loop_
_symmetry_equiv_pos_as_xyz
  x,y,z
_cell_length_a	14.044220
_cell_length_b	14.971486
_cell_length_c	14.048226
_cell_angle_alpha	89.993360
_cell_angle_beta	89.998644
_cell_angle_gamma	88.401503
loop_
_atom_site_label
_atom_site_type_symbol
_atom_site_fract_x
_atom_site_fract_y
_atom_site_fract_z
O1	O	1.257954	0.215664	-0.079060
O2	O	0.981976	0.207881	-0.079084
O3	O	1.127361	0.082155	-0.079065
O4	O	1.112568	0.341390	-0.079080
O5	O	1.127344	0.082146	0.079256
O6	O	0.981958	0.207872	0.079237
O7	O	1.257936	0.215654	0.079261
Zn8	Zn	1.119944	0.211762	0.104386
Zn9	Zn	1.119967	0.211774	-0.104209
O10	O	1.112550	0.341380	0.079241
C11	C	1.126691	0.048774	0.000095
C12	C	1.124708	-0.050680	0.000094
C13	C	0.946648	0.204470	0.000073
C14	C	0.841411	0.194309	0.000064
C15	C	1.210119	-0.101176	0.000102
C16	C	1.208250	-0.194623	0.000093
C17	C	1.120970	-0.237571	0.000082
C18	C	1.035554	-0.187067	0.000071
C19	C	1.037423	-0.093623	0.000074
C20	C	1.031663	-0.381836	0.000067
C21	C	1.029793	-0.475288	0.000066
C22	C	1.202490	-0.482837	0.000086
C23	C	1.204360	-0.389392	0.000089
C24	C	1.118942	-0.338895	0.000080
C25	C	0.648729	0.175732	0.000084
C26	C	0.591177	0.247799	0.000084
C27	C	0.483962	0.237463	0.000095
C28	C	0.755954	0.186067	0.000073
C29	C	1.293263	0.219065	0.000101
C30	C	1.398500	0.229227	0.000104
C31	C	1.113220	0.374762	0.000079
C32	C	1.115203	0.474215	0.000074
N33	N	1.119935	0.211753	0.246746
N34	N	1.119984	0.211776	-0.246570
C35	C	1.184333	0.156108	0.296573
C36	C	1.184339	0.156108	0.396231
C37	C	1.119952	0.211758	0.446060
C38	C	1.055548	0.267406	0.396226
C39	C	1.055538	0.267400	0.296570
C40	C	1.055575	0.267414	0.603941
C41	C	1.055587	0.267421	0.703603
C42	C	1.184377	0.156122	0.703601
C43	C	1.184366	0.156117	0.603945
C44	C	1.119963	0.211766	0.554118
H45	H	1.281192	-0.066215	0.000117
H46	H	0.617481	0.106277	0.000093
C47	C	1.302209	-0.250166	0.000117
N48	N	1.372982	-0.292000	0.000140
H49	H	1.272040	-0.523957	0.000090
H50	H	1.236799	0.110807	0.563374
H51	H	0.964489	-0.222043	0.000056
H52	H	1.275430	-0.354427	0.000105
C53	C	0.633392	0.341639	0.000062
N54	N	0.665193	0.412317	0.000039
C55	C	1.255164	0.094887	0.241770
N56	N	1.308514	0.048770	0.200495
C57	C	1.255158	0.094871	0.451036
N58	N	1.308494	0.048735	0.492314
H59	H	1.236815	0.110811	0.744176
H60	H	0.958722	-0.510253	0.000072
C61	C	0.937699	-0.326292	0.000061
N62	N	0.866926	-0.284455	0.000064
H63	H	1.003155	0.312736	0.744169
H64	H	1.003128	0.312726	0.563375
H65	H	1.003118	0.312714	0.436803
C66	C	0.984703	0.328622	0.241762
N67	N	0.931349	0.374736	0.200481
H68	H	0.967873	-0.052509	0.000067
