data_functionalizedCrystal
_audit_creation_method	'MofGen! by Chris Wilmer'
_symmetry_space_group_name_H-M	'P1'
_symmetry_Int_Tables_number	1
_symmetry_cell_setting	triclinic
loop_
_symmetry_equiv_pos_as_xyz
  x,y,z
_cell_length_a	17.699083
_cell_length_b	16.109301
_cell_length_c	14.586319
_cell_angle_alpha	90.005214
_cell_angle_beta	90.002525
_cell_angle_gamma	96.627752
loop_
_atom_site_label
_atom_site_type_symbol
_atom_site_fract_x
_atom_site_fract_y
_atom_site_fract_z
O1	O	1.004225	-0.105136	-0.076115
O2	O	0.783866	-0.118815	-0.076145
O3	O	0.900099	0.009065	-0.076120
O4	O	0.887992	-0.233017	-0.076140
O5	O	0.900091	0.009067	0.076361
O6	O	0.783858	-0.118813	0.076336
O7	O	1.004217	-0.105135	0.076366
Cu8	Cu	0.894037	-0.111974	0.090274
Cu9	Cu	0.894046	-0.111976	-0.090053
O10	O	0.887984	-0.233015	0.076341
C11	C	0.755664	-0.118324	0.000091
C12	C	0.671644	-0.116854	0.000080
N13	N	0.894035	-0.111972	0.217105
C14	C	0.899604	0.040040	0.000121
C15	C	0.898134	0.132333	0.000122
C16	C	0.623130	-0.191917	0.000074
C17	C	0.544185	-0.190531	0.000086
C18	C	0.513755	-0.114080	0.000098
C19	C	0.562275	-0.039011	0.000106
C20	C	0.641219	-0.040398	0.000101
C21	C	0.243904	-0.033414	0.000130
C22	C	0.164954	-0.032032	0.000132
C23	C	0.146870	-0.183546	0.000115
C24	C	0.225814	-0.184934	0.000109
C25	C	0.274327	-0.109865	0.000123
C26	C	0.359928	-0.111369	0.000112
C27	C	0.428155	-0.112575	0.000102
C28	C	1.032419	-0.105626	0.000127
C29	C	1.116439	-0.107096	0.000133
C30	C	0.888478	-0.263990	0.000098
C31	C	0.889949	-0.356283	0.000091
C32	C	0.963686	0.354719	0.000117
C33	C	0.962298	0.441437	0.000109
C34	C	0.824392	0.421325	0.000093
C35	C	0.825780	0.334608	0.000095
C36	C	0.895429	0.301308	0.000111
C37	C	0.892654	0.474742	0.000102
C38	C	0.891149	0.568766	0.000094
C39	C	0.896934	0.207278	0.000118
N40	N	0.894053	-0.111972	-0.216884
C41	C	0.945520	-0.055365	0.452123
C42	C	0.945523	-0.055363	0.548104
C43	C	0.842563	-0.168581	0.548091
C44	C	0.842558	-0.168578	0.452112
C45	C	0.894041	-0.111971	0.404130
C46	C	0.894048	-0.111972	0.596091
C47	C	0.894050	-0.111970	0.700158
C48	C	0.894038	-0.111972	0.300056
H49	H	0.647900	-0.254172	0.000064
F50	F	1.037812	0.319281	0.000133
F51	F	0.492556	-0.270424	0.000076
F52	F	0.529887	0.042354	0.000125
F53	F	0.787760	-0.228826	0.401030
F54	F	0.295525	0.046481	0.000144
F55	F	0.753128	0.277761	0.000082
H56	H	0.987440	-0.009271	0.413059
H57	H	0.987441	-0.009268	0.587177
H58	H	1.017880	0.484921	0.000112
H59	H	0.250585	-0.247188	0.000096
F60	F	0.095233	-0.263442	0.000104
H61	H	0.140182	0.030227	0.000143
F62	F	0.692851	0.039495	0.000111
H63	H	0.767686	0.448449	0.000082
H64	H	0.800648	-0.214670	0.587167
