data_functionalizedCrystal
_audit_creation_method	'MofGen! by Chris Wilmer'
_symmetry_space_group_name_H-M	'P1'
_symmetry_Int_Tables_number	1
_symmetry_cell_setting	triclinic
loop_
_symmetry_equiv_pos_as_xyz
  x,y,z
_cell_length_a	35.277404
_cell_length_b	35.283087
_cell_length_c	35.277682
_cell_angle_alpha	89.995669
_cell_angle_beta	59.996689
_cell_angle_gamma	119.985052
loop_
_atom_site_label
_atom_site_type_symbol
_atom_site_fract_x
_atom_site_fract_y
_atom_site_fract_z
O1	O	0.334408	-0.259998	-0.011275
O2	O	0.256776	-0.204883	0.011225
O3	O	0.334394	-0.204889	-0.066397
O4	O	0.256791	-0.259992	0.066347
O5	O	0.271363	-0.267914	-0.066397
O6	O	0.193745	-0.267908	0.011225
O7	O	0.271377	-0.323023	-0.011274
Zn8	Zn	0.222554	-0.305472	-0.000025
Zn9	Zn	0.305600	-0.222434	-0.000025
O10	O	0.193760	-0.323017	0.066347
C11	C	0.062157	-0.095984	0.034109
C12	C	0.084740	-0.050377	0.034429
C13	C	-0.006486	-0.095986	0.034107
C14	C	0.016201	-0.050380	0.034427
C15	C	0.062135	-0.027363	0.034107
C16	C	0.016223	-0.118897	0.034429
C17	C	0.116537	-0.207137	0.021687
C18	C	0.141664	-0.228887	0.018175
C19	C	0.188628	-0.205438	0.016412
C20	C	0.215880	-0.229016	0.012595
C21	C	0.210461	-0.160238	0.018165
C22	C	0.185331	-0.138493	0.021683
C23	C	0.138367	-0.161945	0.023444
C24	C	0.185698	0.138119	0.021678
C25	C	0.210955	0.184982	0.018164
C26	C	0.189260	0.208491	0.016396
C27	C	0.216644	0.259304	0.012579
C28	C	0.142300	0.185132	0.018149
C29	C	0.117039	0.138270	0.021672
C30	C	0.138746	0.114766	0.023433
C31	C	-0.159555	-0.207145	0.021677
C32	C	-0.202907	-0.228896	0.018156
C33	C	-0.224666	-0.205449	0.016391
C34	C	-0.271670	-0.229029	0.012571
C35	C	-0.203069	-0.160251	0.018142
C36	C	-0.159717	-0.138502	0.021661
C37	C	-0.137966	-0.161956	0.023432
C38	C	0.111123	-0.138361	0.027255
C39	C	0.089405	-0.119564	0.030294
C40	C	-0.053490	-0.119568	0.030289
C41	C	-0.090958	-0.138367	0.027248
C42	C	0.089523	0.023449	0.030290
C43	C	0.111354	0.063952	0.027248
O44	O	-0.397308	-0.260006	0.066329
O45	O	-0.287068	-0.204907	-0.066416
O46	O	-0.287072	-0.204899	0.011205
O47	O	-0.397304	-0.260014	-0.011291
O48	O	-0.287050	-0.267924	0.011207
O49	O	-0.287046	-0.267933	-0.066413
O50	O	-0.397286	-0.323032	0.066331
Zn51	Zn	-0.342163	-0.305489	-0.000041
Zn52	Zn	-0.342192	-0.222450	-0.000044
O53	O	-0.397282	-0.323040	-0.011289
C54	C	0.466195	-0.095993	-0.438555
C55	C	0.512124	-0.050389	-0.461473
C56	C	0.466195	-0.095993	-0.369912
C57	C	0.512124	-0.050389	-0.392934
C58	C	0.534820	-0.027374	-0.438554
C59	C	0.443603	-0.118903	-0.392935
C60	C	0.342608	-0.207142	-0.480471
C61	C	0.317342	-0.228891	-0.502076
C62	C	0.339028	-0.205444	-0.547284
C63	C	0.311630	-0.229021	-0.570709
C64	C	0.385984	-0.160246	-0.570885
C65	C	0.411249	-0.138503	-0.549282
C66	C	0.389560	-0.161952	-0.504073
C67	C	0.687882	0.138101	-0.549741
C68	C	0.731233	0.184962	-0.571498
C69	C	0.752979	0.208471	-0.548044
C70	C	0.799977	0.259282	-0.571627
C71	C	0.731374	0.185114	-0.502831
C72	C	0.688030	0.138253	-0.481078
C73	C	0.666285	0.114750	-0.504538
C74	C	0.342608	-0.207142	-0.204380
C75	C	0.317338	-0.228890	-0.157501
C76	C	0.339024	-0.205442	-0.133986
C77	C	0.311625	-0.229020	-0.083156
C78	C	0.385975	-0.160247	-0.157349
C79	C	0.411241	-0.138501	-0.204226
C80	C	0.389556	-0.161954	-0.227740
C81	C	0.416958	-0.138369	-0.480649
C82	C	0.438797	-0.119572	-0.461978
C83	C	0.438797	-0.119572	-0.319084
C84	C	0.416958	-0.138369	-0.278569
C85	C	0.581818	0.023436	-0.462141
C86	C	0.619282	0.063937	-0.480944
C87	C	0.456816	-0.364453	-0.023593
C88	C	0.503593	-0.341071	-0.020375
C89	C	0.434126	-0.410059	-0.023914
C90	C	0.388173	-0.364449	-0.023589
C91	C	0.361556	-0.341063	-0.020368
C92	C	0.365587	-0.410055	-0.023911
C93	C	0.388191	-0.433073	-0.023592
C94	C	0.361593	-0.483059	-0.020374
C95	C	0.434108	-0.341540	-0.023911
C96	C	0.340104	-0.523443	-0.017773
C97	C	0.541384	-0.322181	-0.017775
C98	C	0.340052	-0.322169	-0.017764
C99	C	0.313146	-0.574106	-0.014511
C100	C	0.588794	-0.298482	-0.014513
C101	C	0.313075	-0.298466	-0.014499
O102	O	0.271446	0.408761	-0.011289
O103	O	0.193868	0.276059	0.011207
O104	O	0.271467	0.353648	-0.066414
O105	O	0.193848	0.331171	0.066331
O106	O	0.334513	0.353649	-0.066411
O107	O	0.256915	0.276060	0.011209
O108	O	0.334493	0.408762	-0.011287
Zn109	Zn	0.305714	0.342411	-0.000038
Zn110	Zn	0.222647	0.342409	-0.000041
O111	O	0.256895	0.331173	0.066334
O112	O	0.925578	0.408735	-0.602607
O113	O	0.815362	0.276036	-0.547486
O114	O	0.815343	0.353633	-0.547481
O115	O	0.925598	0.331138	-0.602612
O116	O	0.815344	0.353635	-0.610528
O117	O	0.815364	0.276038	-0.610533
O118	O	0.925580	0.408737	-0.665654
Zn119	Zn	0.870472	0.342387	-0.648104
Zn120	Zn	0.870470	0.342385	-0.565036
O121	O	0.925600	0.331140	-0.665659
O122	O	0.256787	-0.259996	-0.665362
O123	O	0.334393	-0.204889	-0.610240
O124	O	0.256774	-0.204885	-0.610235
O125	O	0.334406	-0.260000	-0.665367
O126	O	0.193745	-0.267909	-0.547189
O127	O	0.271364	-0.267913	-0.547193
O128	O	0.193757	-0.323020	-0.602315
Zn129	Zn	0.222553	-0.305473	-0.564744
Zn130	Zn	0.305597	-0.222436	-0.647811
O131	O	0.271376	-0.323024	-0.602320
C132	C	0.071406	-0.433053	0.293205
C133	C	0.024636	-0.483038	0.316595
C134	C	0.094101	-0.410039	0.316124
C135	C	0.140031	-0.364434	0.224563
C136	C	0.166636	-0.341050	0.174561
C137	C	0.162623	-0.341524	0.247586
C138	C	0.140031	-0.364434	0.293206
C139	C	0.166635	-0.341052	0.316598
C140	C	0.094102	-0.410038	0.247585
C141	C	0.188129	-0.322161	0.335496
C142	C	-0.013149	-0.523421	0.335492
C143	C	0.188131	-0.322159	0.134164
C144	C	0.215093	-0.298462	0.359204
C145	C	-0.060552	-0.574083	0.359199
C146	C	0.215097	-0.298459	0.083485
C147	C	-0.611839	-0.364442	0.293190
C148	C	-0.638461	-0.341058	0.316581
C149	C	-0.634422	-0.410046	0.316109
C150	C	-0.543191	-0.364444	0.224547
C151	C	-0.496413	-0.341062	0.174545
C152	C	-0.565878	-0.410048	0.247570
C153	C	-0.611814	-0.433061	0.293190
C154	C	-0.638408	-0.483046	0.316582
C155	C	-0.565903	-0.341532	0.247569
C156	C	-0.659894	-0.523429	0.335480
C157	C	-0.659968	-0.322167	0.335478
C158	C	-0.458622	-0.322172	0.134148
C159	C	-0.686848	-0.574090	0.359189
C160	C	-0.686950	-0.298466	0.359186
C161	C	-0.411210	-0.298473	0.083468
C162	C	0.140118	0.318911	0.293187
C163	C	0.166727	0.322134	0.316579
C164	C	0.094178	0.318595	0.316103
C165	C	0.140117	0.318899	0.224545
C166	C	0.166725	0.322107	0.174544
C167	C	0.094177	0.318583	0.247565
C168	C	0.071476	0.318912	0.293184
C169	C	0.024694	0.322135	0.316573
C170	C	0.162714	0.318582	0.247568
C171	C	-0.013100	0.324740	0.335468
C172	C	0.188226	0.324738	0.335477
C173	C	0.188223	0.324701	0.134148
C174	C	-0.060516	0.328007	0.359173
C175	C	0.215196	0.328005	0.359186
C176	C	0.215192	0.327953	0.083470
C177	C	0.062158	-0.027700	-0.438575
C178	C	0.084766	-0.050715	-0.461493
C179	C	-0.006465	-0.096317	-0.369931
C180	C	0.016247	-0.119229	-0.392953
C181	C	0.062183	-0.096319	-0.438574
C182	C	0.016222	-0.050713	-0.392955
C183	C	0.116445	0.137776	-0.480494
C184	C	0.141549	0.184637	-0.502100
C185	C	0.188515	0.208143	-0.547308
C186	C	0.215743	0.258955	-0.570734
C187	C	0.210374	0.184785	-0.570909
C188	C	0.185266	0.137926	-0.549305
C189	C	0.138299	0.114422	-0.504095
C190	C	0.185823	-0.138225	-0.549760
C191	C	0.211104	-0.159823	-0.571518
C192	C	0.189431	-0.205013	-0.548063
C193	C	0.216841	-0.228433	-0.571646
C194	C	0.142468	-0.228605	-0.502850
C195	C	0.117183	-0.207010	-0.481097
C196	C	0.138868	-0.161815	-0.504557
C197	C	-0.159566	-0.138212	-0.204399
C198	C	-0.202921	-0.159807	-0.157520
C199	C	-0.224659	-0.204998	-0.134003
C200	C	-0.271665	-0.228414	-0.083173
C201	C	-0.203037	-0.228591	-0.157366
C202	C	-0.159682	-0.206995	-0.204244
C203	C	-0.137953	-0.161805	-0.227758
C204	C	0.111080	0.063612	-0.480671
C205	C	0.089382	0.023111	-0.461999
C206	C	-0.053472	-0.119731	-0.319103
C207	C	-0.090942	-0.138394	-0.278588
C208	C	0.089598	-0.119736	-0.462161
C209	C	0.111450	-0.138401	-0.480964
O210	O	-0.743074	-0.723923	0.389751
O211	O	-0.665498	-0.591224	0.334623
O212	O	-0.743091	-0.668821	0.334623
O213	O	-0.665481	-0.646325	0.389751
O214	O	-0.806141	-0.668818	0.397669
O215	O	-0.728548	-0.591221	0.397669
O216	O	-0.806125	-0.723919	0.452797
Zn217	Zn	-0.777347	-0.657569	0.435243
Zn218	Zn	-0.694275	-0.657574	0.352177
O219	O	-0.728532	-0.646322	0.452797
C220	C	0.534675	0.376467	-0.438560
C221	C	0.511973	0.376782	-0.461479
C222	C	0.466034	0.376479	-0.369921
C223	C	0.443435	0.376794	-0.392944
C224	C	0.466032	0.376465	-0.438563
C225	C	0.511974	0.376796	-0.392941
C226	C	0.687782	0.364039	-0.480468
C227	C	0.731146	0.360523	-0.502071
C228	C	0.752897	0.358751	-0.547277
C229	C	0.799909	0.354930	-0.570700
C230	C	0.731285	0.360499	-0.570880
C231	C	0.687929	0.364021	-0.549279
C232	C	0.666178	0.365791	-0.504071
C233	C	0.411689	0.364017	-0.549750
C234	C	0.386570	0.360499	-0.571508
C235	C	0.339600	0.358737	-0.548056
C236	C	0.312356	0.354916	-0.571640
C237	C	0.317752	0.360499	-0.502844
C238	C	0.342875	0.364025	-0.481090
C239	C	0.389846	0.365781	-0.504548
C240	C	0.411697	0.364088	-0.204391
C241	C	0.386576	0.360578	-0.157513
C242	C	0.339606	0.358818	-0.133999
C243	C	0.312364	0.355010	-0.083171
C244	C	0.317757	0.360564	-0.157364
C245	C	0.342878	0.364072	-0.204240
C246	C	0.389852	0.365837	-0.227751
C247	C	0.619162	0.369605	-0.480650
C248	C	0.581687	0.372648	-0.461981
C249	C	0.438796	0.372673	-0.319094
C250	C	0.417086	0.369641	-0.278580
C251	C	0.438793	0.372644	-0.462151
C252	C	0.417081	0.369600	-0.480954
H253	H	-0.220487	-0.265697	0.016728
H254	H	-0.671385	-0.428520	0.353593
C255	C	-0.540251	-0.290911	0.222600
N256	N	-0.520928	-0.252784	0.203793
C257	C	0.068439	-0.435001	0.366762
N258	N	0.049112	-0.453802	0.404901
H259	H	0.199689	0.318074	0.229084
C260	C	0.068516	0.317891	0.222590
N261	N	0.049191	0.317373	0.203779
H262	H	-0.141846	-0.226245	0.023118
H263	H	0.404368	0.359153	-0.138492
C264	C	0.209310	0.112236	-0.575267
N265	N	0.227423	0.092886	-0.594822
C266	C	0.212550	-0.290903	0.222616
N267	N	0.250154	-0.252776	0.203811
C268	C	0.537786	-0.025427	-0.512111
N269	N	0.557114	-0.006626	-0.550250
H270	H	0.121699	-0.031902	0.034950
C271	C	0.068513	0.317910	0.366739
N272	N	0.049183	0.317395	0.404877
H273	H	0.449470	-0.101701	-0.223245
H274	H	0.406636	-0.156369	-0.374448
C275	C	-0.009404	-0.169849	-0.367982
N276	N	-0.028723	-0.207975	-0.349174
H277	H	0.748819	0.203976	-0.608309
C278	C	0.068442	-0.435000	0.222614
N279	N	0.049115	-0.453800	0.203806
C280	C	0.462896	-0.088788	-0.575244
N281	N	0.501796	-0.051342	-0.594798
H282	H	0.078203	0.118643	-0.443683
C283	C	0.266104	0.358592	-0.477057
N284	N	0.227206	0.357163	-0.457637
H285	H	0.749085	0.204255	-0.483736
H286	H	-0.546868	-0.428524	0.229085
H287	H	0.453132	-0.428537	-0.024431
C288	C	0.134703	-0.025754	-0.512131
N289	N	0.172316	-0.006953	-0.550269
C290	C	0.463367	0.366025	-0.230252
N291	N	0.502283	0.367483	-0.249731
C292	C	0.537644	0.377477	-0.512118
N293	N	0.556980	0.378002	-0.550259
H294	H	0.078804	0.119253	0.023101
H295	H	0.124817	-0.265403	-0.483755
C296	C	0.754910	0.358593	-0.476105
N297	N	0.772807	0.357137	-0.456544
C298	C	-0.009454	-0.025749	-0.367984
N299	N	-0.028794	-0.006947	-0.349176
H300	H	0.078298	-0.226236	0.023121
C301	C	0.318841	0.365961	-0.431360
N302	N	0.300736	0.367416	-0.393901
C303	C	-0.226703	-0.133852	-0.131824
N304	N	-0.244616	-0.114303	-0.112472
H305	H	0.325083	0.365491	-0.223259
C306	C	0.459762	-0.290918	-0.024605
N307	N	0.479083	-0.252791	-0.025128
C308	C	-0.135660	-0.088501	-0.230262
N309	N	-0.117651	-0.051058	-0.249742
H310	H	0.123749	0.203651	-0.482881
C311	C	0.262034	0.210643	-0.620636
N312	N	0.300946	0.230119	-0.658092
H313	H	0.530975	0.377314	-0.374458
C314	C	0.209671	-0.088515	-0.575571
N315	N	0.227631	-0.051075	-0.595010
C316	C	0.262762	-0.133868	-0.621247
N317	N	0.301673	-0.114317	-0.658704
C318	C	0.065528	-0.232963	-0.431365
N319	N	0.026622	-0.252511	-0.393906
C320	C	0.117649	-0.278602	0.016241
N321	N	0.099562	-0.316047	0.014782
C322	C	-0.135967	-0.088787	0.023592
N323	N	-0.118080	-0.051341	0.025047
H324	H	-0.142081	-0.226208	-0.223263
H325	H	0.248697	-0.141150	0.016733
H326	H	0.249189	0.203997	0.016736
H327	H	-0.220741	-0.265391	-0.138217
C328	C	0.393495	0.377496	-0.367973
N329	N	0.355882	0.378025	-0.349165
C330	C	0.663863	0.365990	-0.430742
N331	N	0.645846	0.367459	-0.393288
C332	C	0.755210	0.358546	-0.620603
N333	N	0.773229	0.357072	-0.658055
C334	C	-0.009417	-0.169514	0.035110
N335	N	-0.028726	-0.207637	0.035619
C336	C	0.537784	-0.025426	-0.367962
N337	N	0.557111	-0.006625	-0.349155
C338	C	0.664156	0.365939	-0.575241
N339	N	0.646247	0.367380	-0.594794
H340	H	0.449934	0.365449	-0.568854
H341	H	-0.220790	-0.141160	0.016706
H342	H	0.279508	0.359128	-0.138215
H343	H	-0.002809	-0.031905	0.034945
C344	C	0.209581	0.112270	0.023610
N345	N	0.227570	0.092800	0.025061
C346	C	0.209350	-0.088776	0.023610
N347	N	0.227443	-0.051327	0.025058
C348	C	0.118428	0.210989	0.016212
N349	N	0.100449	0.230466	0.014752
H350	H	0.670444	0.119239	-0.444267
H351	H	0.404361	0.359063	-0.608318
H352	H	0.279104	-0.265686	-0.138480
C353	C	0.315653	-0.435015	-0.024608
N354	N	0.278045	-0.453814	-0.025135
C355	C	0.318748	-0.232940	-0.230243
N356	N	0.300777	-0.252369	-0.249723
H357	H	0.324944	-0.226240	-0.443661
H358	H	0.403638	-0.141160	-0.607693
C359	C	0.663968	0.112249	-0.575549
N360	N	0.645953	0.092776	-0.594985
C361	C	0.265690	-0.278603	-0.476111
N362	N	0.226784	-0.316046	-0.456552
H363	H	0.403630	-0.141153	-0.138198
