data_functionalizedCrystal
_audit_creation_method	'MofGen! by Chris Wilmer'
_symmetry_space_group_name_H-M	'P1'
_symmetry_Int_Tables_number	1
_symmetry_cell_setting	triclinic
loop_
_symmetry_equiv_pos_as_xyz
  x,y,z
_cell_length_a	13.262402
_cell_length_b	14.853567
_cell_length_c	11.804783
_cell_angle_alpha	103.275500
_cell_angle_beta	61.250540
_cell_angle_gamma	95.946495
loop_
_atom_site_label
_atom_site_type_symbol
_atom_site_fract_x
_atom_site_fract_y
_atom_site_fract_z
O1	O	1.464569	-0.183348	-0.375318
O2	O	1.138843	-0.179149	-0.269819
O3	O	1.310409	-0.050508	-0.325402
O4	O	1.293002	-0.311989	-0.319736
O5	O	1.350752	-0.085315	-0.536505
O6	O	1.179186	-0.213956	-0.480923
O7	O	1.504912	-0.218155	-0.586422
Cu8	Cu	1.345732	-0.219234	-0.552948
Cu9	Cu	1.298022	-0.178071	-0.303293
O10	O	1.333345	-0.346796	-0.530840
C11	C	1.117329	-0.193586	-0.361870
C12	C	0.993120	-0.184734	-0.321641
C13	C	0.912774	-0.161600	-0.187665
C14	C	0.796072	-0.153293	-0.149869
C15	C	0.759707	-0.168111	-0.246046
C16	C	0.840054	-0.191238	-0.380025
C17	C	0.956766	-0.199554	-0.417824
C18	C	0.803698	-0.206064	-0.476205
C19	C	0.884046	-0.229192	-0.610184
C20	C	1.000746	-0.237505	-0.647977
C21	C	1.037112	-0.222687	-0.551800
C22	C	0.686987	-0.197749	-0.438406
C23	C	0.730979	-0.235702	-0.668565
C24	C	0.847680	-0.244010	-0.706361
C25	C	1.313962	-0.363025	-0.425539
C26	C	1.316322	-0.463239	-0.426293
C27	C	1.428231	-0.882040	-0.462582
C28	C	1.224409	-0.891919	-0.396565
C29	C	1.222186	-0.797759	-0.395834
C30	C	1.322986	-0.745735	-0.428478
C31	C	1.426011	-0.787872	-0.461855
C32	C	1.119165	-0.755618	-0.362471
C33	C	1.116937	-0.661453	-0.361739
C34	C	1.217738	-0.609426	-0.394375
C35	C	1.320766	-0.651567	-0.427752
C36	C	1.421567	-0.599543	-0.460396
C37	C	1.524595	-0.641682	-0.493764
C38	C	1.526811	-0.735844	-0.494491
C39	C	1.215521	-0.515263	-0.393648
C40	C	1.419347	-0.505375	-0.459669
C41	C	1.526425	-0.203718	-0.494368
C42	C	1.650633	-0.212569	-0.534589
C43	C	1.329793	-0.034279	-0.430699
C44	C	1.327430	0.065936	-0.429937
N45	N	1.379297	-0.248185	-0.728544
C46	C	1.183825	-0.079580	-1.039273
C47	C	1.158412	-0.057671	-0.906392
C48	C	1.213631	-0.105298	-0.861923
C49	C	1.294268	-0.174837	-0.950349
C50	C	1.319690	-0.196743	-1.083245
C51	C	1.349496	-0.222461	-0.905895
C52	C	1.430133	-0.292000	-0.994321
C53	C	1.455551	-0.313903	-1.127204
C54	C	1.400332	-0.266276	-1.171672
C55	C	1.324073	-0.200555	-0.772999
C56	C	1.459939	-0.317718	-0.816971
C57	C	1.485352	-0.339627	-0.949852
N58	N	1.264466	-0.149112	-0.127700
H59	H	0.701371	-0.247771	-0.746881
H60	H	0.664682	-0.161345	-0.215264
O61	O	1.115698	-0.948032	-0.361368
H62	H	1.043689	-0.902912	-0.338047
H63	H	1.033045	-0.627152	-0.334566
O64	O	0.709421	-0.128304	-0.005377
H65	H	0.754315	-0.119373	0.055150
O66	O	1.519496	-0.369095	-0.769018
H67	H	1.579849	-0.421120	-0.852833
H68	H	1.521220	-0.370518	-1.199201
H69	H	0.621578	-0.178919	-0.329319
O70	O	1.539352	-0.927477	-0.498566
H71	H	1.561695	-0.984317	-0.586523
H72	H	1.131641	-0.480961	-0.366500
H73	H	0.942395	-0.149545	-0.109372
H74	H	1.092760	-0.001050	-0.834405
O75	O	0.934340	-0.268967	-0.850865
H76	H	1.021597	-0.272266	-0.860982
H77	H	1.258417	-0.143937	-0.701014
H78	H	1.037100	-0.797983	-0.335898
O79	O	1.186129	-0.081692	-0.718571
H80	H	1.151917	-0.143798	-0.674681
O81	O	1.528074	-0.449269	-0.494894
H82	H	1.560933	-0.450796	-0.424826
O83	O	1.162982	-0.231665	-0.592554
H84	H	1.194138	-0.164825	-0.556042
H85	H	1.138882	-0.040804	-1.075496
H86	H	1.421015	-0.284114	-1.279872
O87	O	1.087392	-0.262472	-0.792485
H88	H	1.151506	-0.206336	-0.818440
O89	O	1.633318	-0.585570	-0.528981
H90	H	1.614457	-0.513015	-0.522867
O91	O	1.637929	-0.781291	-0.530483
H92	H	1.660263	-0.838126	-0.618445
O93	O	1.572343	-0.414615	-1.045234
H94	H	1.580748	-0.421834	-1.145110
