data_functionalizedCrystal
_audit_creation_method	'MofGen! by Chris Wilmer'
_symmetry_space_group_name_H-M	'P1'
_symmetry_Int_Tables_number	1
_symmetry_cell_setting	triclinic
loop_
_symmetry_equiv_pos_as_xyz
  x,y,z
_cell_length_a	14.971486
_cell_length_b	19.188930
_cell_length_c	14.048226
_cell_angle_alpha	89.988446
_cell_angle_beta	89.998499
_cell_angle_gamma	83.379455
loop_
_atom_site_label
_atom_site_type_symbol
_atom_site_fract_x
_atom_site_fract_y
_atom_site_fract_z
O1	O	1.186466	0.090988	-0.079062
O2	O	0.926009	0.101884	-0.079090
O3	O	1.063754	-0.005196	-0.079057
O4	O	1.048721	0.198067	-0.079095
O5	O	1.063737	-0.005202	0.079265
O6	O	0.925992	0.101878	0.079232
O7	O	1.186450	0.090982	0.079259
Zn8	Zn	1.056218	0.096429	0.104382
Zn9	Zn	1.056240	0.096437	-0.104213
O10	O	1.048705	0.198061	0.079226
C11	C	0.892678	0.101393	0.000068
C12	C	0.793389	0.099933	0.000058
C13	C	0.735831	0.162839	0.000048
C14	C	0.642539	0.161463	0.000062
C15	C	0.606806	0.097180	0.000080
C16	C	0.664371	0.034269	0.000094
C17	C	0.757662	0.035646	0.000086
C18	C	0.469924	0.031403	0.000108
C19	C	0.376627	0.030026	0.000113
C20	C	0.354801	0.157221	0.000083
C21	C	0.448092	0.158598	0.000076
C22	C	0.505650	0.095686	0.000088
C23	C	1.063259	-0.031211	0.000107
C24	C	1.061797	-0.108721	0.000115
C25	C	1.142622	-0.153384	0.000128
C26	C	1.141249	-0.226213	0.000112
C27	C	1.059047	-0.254374	0.000103
C28	C	0.978212	-0.209700	0.000085
C29	C	0.979587	-0.136874	0.000091
N30	N	0.996208	-0.362583	0.053976
N31	N	0.994907	-0.431766	0.053973
C32	C	1.054899	-0.473796	0.000084
N33	N	1.116254	-0.444031	-0.053790
N34	N	1.117558	-0.374842	-0.053782
C35	C	1.057547	-0.333341	0.000096
C36	C	1.134240	-0.597429	0.000078
C37	C	1.132864	-0.670258	0.000057
C38	C	0.969825	-0.653744	0.000039
C39	C	0.971203	-0.580916	0.000051
C40	C	1.053413	-0.552763	0.000075
C41	C	1.219780	0.091472	0.000100
C42	C	1.319070	0.092932	0.000103
C43	C	1.049200	0.224077	0.000061
C44	C	1.050661	0.301586	0.000046
N45	N	1.056210	0.096422	0.246743
N46	N	1.056256	0.096437	-0.246573
C47	C	1.117223	0.049027	0.296576
C48	C	1.117229	0.049027	0.396233
C49	C	1.056226	0.096426	0.446057
C50	C	0.995207	0.143823	0.396217
C51	C	0.995197	0.143819	0.296561
C52	C	0.995233	0.143828	0.603931
C53	C	0.995243	0.143833	0.703594
C54	C	1.117264	0.049035	0.703603
C55	C	1.117255	0.049032	0.603948
C56	C	1.056236	0.096430	0.554115
H57	H	0.307932	0.208445	0.000078
H58	H	1.209564	-0.130467	0.000144
O59	O	0.342063	-0.032478	0.000176
C60	C	0.373551	-0.158493	0.000153
C61	C	0.412814	-0.087756	0.000108
H62	H	0.430733	-0.203204	0.000078
H63	H	0.330451	-0.162362	0.066427
H64	H	0.330390	-0.162276	-0.066087
H65	H	0.456015	-0.083925	0.066303
H66	H	0.455862	-0.083917	-0.066210
H67	H	0.945567	0.182429	0.744155
H68	H	0.516786	-0.019826	0.000119
H69	H	0.945542	0.182423	0.563361
O70	O	0.629768	-0.028219	-0.000017
C71	C	0.619836	-0.137330	-0.082048
C72	C	0.659098	-0.066593	-0.082025
H73	H	0.643518	-0.168369	-0.148354
H74	H	0.643587	-0.168473	-0.015831
H75	H	0.543273	-0.127491	-0.082002
H76	H	0.735661	-0.076368	-0.082104
H77	H	0.635277	-0.035473	-0.148236
O78	O	0.935911	0.189769	0.444719
C79	C	0.813682	0.204475	0.557208
C80	C	0.880796	0.152362	0.502357
H81	H	0.769092	0.174252	0.603806
H82	H	0.852116	0.239398	0.603909
H83	H	0.770110	0.238364	0.504454
H84	H	0.924385	0.118428	0.555042
H85	H	0.842308	0.117489	0.455642
H86	H	0.945513	0.182413	0.255988
O87	O	0.586588	0.222550	0.000211
C88	C	0.468551	0.294797	0.082181
C89	C	0.531881	0.225596	0.082144
H90	H	0.424291	0.297276	0.148407
H91	H	0.510066	0.341008	0.082218
H92	H	0.424369	0.297317	0.015895
H93	H	0.576076	0.223008	0.148418
H94	H	0.490312	0.179418	0.082057
H95	H	0.902894	-0.676672	0.000027
O96	O	1.176502	0.002895	0.751898
C97	C	1.229383	-0.118440	0.782457
C98	C	1.162258	-0.066269	0.727685
H99	H	1.217877	-0.174370	0.762916
H100	H	1.300998	-0.109300	0.762828
H101	H	1.218928	-0.110266	0.862237
H102	H	1.172631	-0.074412	0.647892
H103	H	1.090667	-0.075423	0.747393
H104	H	0.804525	-0.015579	0.000094
H105	H	0.905387	-0.544550	0.000046
O106	O	0.770389	0.225346	0.000071
C107	C	0.738884	0.351360	-0.000009
C108	C	0.699632	0.280619	-0.000017
H109	H	0.681695	0.396066	-0.000101
H110	H	0.781985	0.355230	0.066259
H111	H	0.782041	0.355150	-0.066256
H112	H	0.656434	0.276781	0.066185
H113	H	0.656582	0.276778	-0.066329
H114	H	1.201180	-0.574506	0.000094
O115	O	1.176394	0.002873	0.248246
C116	C	1.229295	-0.118479	0.217906
C117	C	1.162221	-0.066275	0.272664
H118	H	1.217872	-0.174397	0.237643
H119	H	1.218832	-0.110423	0.138102
H120	H	1.300889	-0.109258	0.237487
H121	H	1.090600	-0.075465	0.253163
H122	H	1.172762	-0.074343	0.352455
O123	O	0.482691	0.221087	-0.000075
C124	C	0.492607	0.330202	-0.082161
C125	C	0.453352	0.259463	-0.082098
H126	H	0.468917	0.361243	-0.148479
H127	H	0.468859	0.361342	-0.015955
H128	H	0.569170	0.320368	-0.082121
H129	H	0.376788	0.269234	-0.082171
H130	H	0.477171	0.228346	-0.148297
O131	O	1.219823	-0.269539	0.000003
C132	C	1.358739	-0.305963	-0.082014
C133	C	1.269799	-0.256847	-0.081998
H134	H	1.399161	-0.295729	-0.148315
H135	H	1.399257	-0.295720	-0.015791
H136	H	1.343608	-0.362844	-0.081973
H137	H	1.284849	-0.199949	-0.082072
H138	H	1.229307	-0.267151	-0.148215
O139	O	0.898417	-0.237135	-0.000049
C140	C	0.802235	-0.309730	-0.082117
C141	C	0.892645	-0.278721	-0.082066
H142	H	0.797530	-0.343347	-0.148430
H143	H	0.797492	-0.343469	-0.015907
H144	H	0.744716	-0.265283	-0.082079
H145	H	0.950216	-0.323123	-0.082138
H146	H	0.897309	-0.244964	-0.148270
O147	O	1.176380	0.002919	0.444678
C148	C	1.195833	-0.092387	0.557253
C149	C	1.128742	-0.040217	0.502437
H150	H	1.157344	-0.127266	0.603980
H151	H	1.239421	-0.126308	0.504562
H152	H	1.240412	-0.062167	0.603851
H153	H	1.084104	-0.070380	0.455838
H154	H	1.085217	-0.006296	0.555179
O155	O	1.176418	0.003014	0.555395
C156	C	1.298266	-0.011953	0.442463
C157	C	1.231450	0.040289	0.497477
H158	H	1.342763	0.018163	0.395608
H159	H	1.341959	-0.045929	0.495025
H160	H	1.259490	-0.046776	0.395977
H161	H	1.270153	0.075158	0.543965
H162	H	1.187758	0.074216	0.444864
H163	H	1.198683	-0.706623	0.000063
H164	H	0.913768	-0.100507	0.000080
