data_functionalizedCrystal
_audit_creation_method	'MofGen! by Chris Wilmer'
_symmetry_space_group_name_H-M	'P1'
_symmetry_Int_Tables_number	1
_symmetry_cell_setting	triclinic
loop_
_symmetry_equiv_pos_as_xyz
  x,y,z
_cell_length_a	21.395362
_cell_length_b	18.101397
_cell_length_c	21.395356
_cell_angle_alpha	89.968599
_cell_angle_beta	90.035770
_cell_angle_gamma	89.959012
loop_
_atom_site_label
_atom_site_type_symbol
_atom_site_fract_x
_atom_site_fract_y
_atom_site_fract_z
Zn1	Zn	0.957833	0.294550	0.354560
Zn2	Zn	1.457833	0.794550	0.854560
Zn3	Zn	0.957761	0.418388	0.249772
Zn4	Zn	1.457761	0.918388	0.749772
Zn5	Zn	0.853063	0.294599	0.249762
Zn6	Zn	1.353063	0.794599	0.749762
Zn7	Zn	0.853028	0.418388	0.354477
Zn8	Zn	1.353028	0.918388	0.854477
O9	O	0.905421	0.356481	0.302143
O10	O	1.405421	0.856481	0.802143
O11	O	1.045502	0.310956	0.340699
O12	O	1.545502	0.810956	0.840699
O13	O	0.943857	0.401988	0.162093
O14	O	1.443857	0.901988	0.662093
O15	O	0.867006	0.190960	0.263694
O16	O	1.367006	0.690960	0.763694
O17	O	1.045448	0.401940	0.263712
O18	O	1.545448	0.901940	0.763712
O19	O	0.943980	0.190923	0.340689
O20	O	1.443980	0.690923	0.840689
O21	O	0.866936	0.311041	0.162085
O22	O	1.366936	0.811041	0.662085
O23	O	0.765381	0.311041	0.263613
O24	O	1.265381	0.811041	0.763613
O25	O	0.866946	0.401940	0.442166
O26	O	1.366946	0.901940	0.942166
O27	O	0.765354	0.401988	0.340547
O28	O	1.265354	0.901988	0.840547
O29	O	0.943946	0.310956	0.442227
O30	O	1.443946	0.810956	0.942227
O31	O	0.943823	0.522021	0.263631
O32	O	1.443823	1.022021	0.763631
O33	O	0.866876	0.522021	0.340557
O34	O	1.366876	1.022021	0.840557
C35	C	0.742634	0.356521	0.302070
C36	C	1.242634	0.856521	0.802070
C37	C	0.672992	0.356555	0.302054
C38	C	1.172992	0.856555	0.802054
C39	C	0.640282	0.403974	0.342053
C40	C	1.140282	0.903974	0.842053
C41	C	0.574847	0.403956	0.342081
C42	C	1.074847	0.903956	0.842081
C43	C	0.542124	0.356527	0.302099
C44	C	1.042124	0.856527	0.802099
C45	C	0.574842	0.309098	0.262096
C46	C	1.074842	0.809098	0.762096
C47	C	0.640276	0.309113	0.262074
C48	C	1.140276	0.809113	0.762074
C49	C	0.438407	0.350569	0.245694
C50	C	0.938407	0.850569	0.745694
C51	C	0.372974	0.350560	0.245715
C52	C	0.872974	0.850560	0.745715
C53	C	0.340303	0.356478	0.302168
C54	C	0.840303	0.856478	0.802168
C55	C	0.373074	0.362421	0.358601
C56	C	0.873074	0.862421	0.858601
C57	C	0.438508	0.362436	0.358579
C58	C	0.938508	0.862436	0.858579
C59	C	0.471172	0.356505	0.302119
C60	C	0.971172	0.856505	0.802119
C61	C	0.236641	0.403880	0.342201
C62	C	0.736641	0.903880	0.842201
C63	C	0.171204	0.403857	0.342230
C64	C	0.671204	0.903857	0.842230
C65	C	0.171201	0.309003	0.262239
C66	C	0.671201	0.809003	0.762239
C67	C	0.236636	0.309023	0.262216
C68	C	0.736636	0.809023	0.762216
C69	C	0.269352	0.356465	0.302196
C70	C	0.769352	0.856465	0.802196
C71	C	0.905354	0.548892	0.302100
C72	C	1.405354	1.048892	0.802100
C73	C	0.905383	0.631206	0.302103
C74	C	1.405383	1.131206	0.802103
C75	C	0.905443	0.930297	0.302141
C76	C	1.405443	1.430297	0.802141
C77	C	0.953723	0.898941	0.253613
C78	C	1.453723	1.398941	0.753613
C79	C	0.953896	0.813322	0.253744
C80	C	1.453896	1.313322	0.753744
C81	C	0.905413	0.781914	0.302121
C82	C	1.405413	1.281914	0.802121
C83	C	0.923307	0.812921	0.368168
C84	C	1.423307	1.312921	0.868168
C85	C	0.923675	0.898565	0.367898
C86	C	1.423675	1.398565	0.867898
C87	C	0.839142	0.898826	0.285195
C88	C	1.339142	1.398826	0.785195
C89	C	0.839476	0.813177	0.283727
C90	C	1.339476	1.313177	0.783727
C91	C	0.905395	0.698055	0.302114
C92	C	1.405395	1.198055	0.802114
C93	C	0.905462	1.014156	0.302152
C94	C	1.405462	1.514156	0.802152
C95	C	1.068845	0.356443	0.302216
C96	C	1.568845	0.856443	0.802216
C97	C	1.138486	0.356426	0.302247
C98	C	1.638486	0.856426	0.802247
C99	C	0.905450	0.356442	0.465566
C100	C	1.405450	0.856442	0.965566
C101	C	0.905462	0.356426	0.535208
C102	C	1.405462	0.856426	1.035208
C103	C	0.905488	1.163319	0.302183
C104	C	1.405488	1.663319	0.802183
C105	C	0.905473	1.081005	0.302159
C106	C	1.405473	1.581005	0.802159
C107	C	0.905429	0.356467	0.139355
C108	C	1.405429	0.856467	0.639355
C109	C	0.905538	0.356275	0.069715
C110	C	1.405538	0.856275	0.569715
C111	C	0.945585	0.403627	1.037009
C112	C	1.445585	0.903627	1.537009
C113	C	0.945574	0.403650	0.971573
C114	C	1.445574	0.903650	1.471573
C115	C	0.905522	0.356308	0.938846
C116	C	1.405522	0.856308	1.438846
C117	C	0.865467	0.308953	0.971560
C118	C	1.365467	0.808953	1.471560
C119	C	0.865475	0.308936	1.036994
C120	C	1.365475	0.808936	1.536994
C121	C	0.900591	0.289615	0.835195
C122	C	1.400591	0.789615	1.335195
C123	C	0.900587	0.289630	0.769762
C124	C	1.400587	0.789630	1.269762
C125	C	0.905494	0.356361	0.737025
C126	C	1.405494	0.856361	1.237025
C127	C	0.910417	0.423078	0.769730
C128	C	1.410417	0.923078	1.269730
C129	C	0.910425	0.423061	0.835164
C130	C	1.410425	0.923061	1.335164
C131	C	0.905509	0.356322	0.867894
C132	C	1.405509	0.856322	1.367894
C133	C	0.945531	0.403743	0.633367
C134	C	1.445531	0.903743	1.133367
C135	C	0.945516	0.403767	0.567930
C136	C	1.445516	0.903767	1.067930
C137	C	0.865411	0.309063	0.567918
C138	C	1.365411	0.809063	1.067918
C139	C	0.865424	0.309045	0.633353
C140	C	1.365424	0.809045	1.133353
C141	C	0.905487	0.356384	0.666074
C142	C	1.405487	0.856384	1.166074
H143	H	0.548195	0.270480	0.229543
H144	H	1.048195	0.770480	0.729543
C145	C	0.676259	0.256954	0.218069
C146	C	1.176259	0.756954	0.718069
H147	H	0.647402	0.228705	0.194258
H148	H	1.147402	0.728705	0.694258
H149	H	0.701836	0.224733	0.242079
H150	H	1.201836	0.724733	0.742079
H151	H	0.701734	0.285252	0.190712
H152	H	1.201734	0.785252	0.690712
C153	C	0.788268	0.784310	0.327977
C154	C	1.288268	1.284310	0.827977
H155	H	0.806514	0.752677	0.358388
H156	H	1.306514	1.252677	0.858388
H157	H	0.758042	0.757617	0.304589
H158	H	1.258042	1.257617	0.804589
H159	H	0.768665	0.824831	0.348266
H160	H	1.268665	1.324831	0.848266
C161	C	0.821365	0.256967	0.669335
C162	C	1.321365	0.756967	1.169335
H163	H	0.827099	0.263745	0.712992
H164	H	1.327099	0.763745	1.212992
H165	H	0.830541	0.207204	0.658636
H166	H	1.330541	0.707204	1.158636
H167	H	0.779264	0.267839	0.658581
H168	H	1.279264	0.767839	1.158581
C169	C	0.474556	0.368969	0.420647
C170	C	0.974556	0.868969	0.920647
H171	H	0.518204	0.368136	0.412546
H172	H	1.018204	0.868136	0.912546
H173	H	0.463892	0.328726	0.447074
H174	H	0.963892	0.828726	0.947074
H175	H	0.463819	0.414090	0.440611
H176	H	0.963819	0.914090	0.940611
H177	H	0.346297	0.345725	0.199764
H178	H	0.846297	0.845725	0.699764
H179	H	0.832855	0.270408	0.944909
H180	H	1.332855	0.770408	1.444909
C181	C	0.989596	0.455813	0.669362
C182	C	1.489596	0.955813	1.169362
H183	H	1.013441	0.484026	0.640509
H184	H	1.513441	0.984026	1.140509
H185	H	1.016910	0.427466	0.694906
H186	H	1.516910	0.927466	1.194906
H187	H	0.965618	0.488084	0.694870
H188	H	1.465618	0.988084	1.194870
C189	C	0.821425	0.256841	1.072972
C190	C	1.321425	0.756841	1.572972
H191	H	0.797571	0.228646	1.044112
H192	H	1.297571	0.728646	1.544112
H193	H	0.794119	0.285169	1.098480
H194	H	1.294119	0.785169	1.598480
H195	H	0.845415	0.224557	1.098515
H196	H	1.345415	0.724557	1.598515
C197	C	0.337145	0.368929	0.420702
C198	C	0.837145	0.868929	0.920702
H199	H	0.293482	0.368061	0.412637
H200	H	0.793482	0.868061	0.912637
H201	H	0.347852	0.414048	0.440662
H202	H	0.847852	0.914048	0.940662
H203	H	0.347929	0.328683	0.447117
H204	H	0.847929	0.828683	0.947117
C205	C	0.538855	0.456120	0.386079
C206	C	1.038855	0.956120	0.886079
H207	H	0.495199	0.449313	0.380368
H208	H	0.995199	0.949313	0.880368
H209	H	0.549531	0.505865	0.376823
H210	H	1.049531	1.005865	0.876823
H211	H	0.549624	0.445352	0.428194
H212	H	1.049624	0.945352	0.928194
H213	H	0.465002	0.345746	0.199720
H214	H	0.965002	0.845746	0.699720
H215	H	0.942702	0.792361	0.204772
H216	H	1.442702	1.292361	0.704772
C217	C	0.790566	0.926116	0.333003
C218	C	1.290566	1.426116	0.833003
H219	H	0.810556	0.956554	0.363138
H220	H	1.310556	1.456554	0.863138
H221	H	0.772090	0.884876	0.353298
H222	H	1.272090	1.384876	0.853298
H223	H	0.759097	0.953738	0.312085
H224	H	1.259097	1.453738	0.812085
H225	H	0.972137	0.918470	0.382250
H226	H	1.472137	1.418470	0.882250
H227	H	0.978124	0.442334	0.541302
H228	H	1.478124	0.942334	1.041302
C229	C	0.938846	0.926927	0.187269
C230	C	1.438846	1.426927	0.687269
H231	H	0.903054	0.957978	0.188566
H232	H	1.403054	1.457978	0.688566
H233	H	0.930844	0.886035	0.160639
H234	H	1.430844	1.386035	0.660639
H235	H	0.973480	0.954077	0.171679
H236	H	1.473480	1.454077	0.671679
H237	H	1.002566	0.920394	0.264698
H238	H	1.502566	1.420394	0.764698
C239	C	0.895176	0.216246	0.733793
C240	C	1.395176	0.716246	1.233793
H241	H	0.892244	0.176502	0.762660
H242	H	1.392244	0.676502	1.262660
H243	H	0.931084	0.209730	0.708289
H244	H	1.431084	0.709730	1.208289
H245	H	0.858851	0.217228	0.708248
H246	H	1.358851	0.717228	1.208248
H247	H	0.666915	0.442604	0.374609
H248	H	1.166915	0.942604	0.874609
C249	C	0.272631	0.456055	0.386183
C250	C	0.772631	0.956055	0.886183
H251	H	0.243775	0.484286	0.410017
H252	H	0.743775	0.984286	0.910017
H253	H	0.298108	0.488292	0.362156
H254	H	0.798108	0.988292	0.862156
H255	H	0.298205	0.427769	0.413519
H256	H	0.798205	0.927769	0.913519
C257	C	0.895196	0.216206	0.871199
C258	C	1.395196	0.716206	1.371199
H259	H	0.892273	0.176476	0.842352
H260	H	1.392273	0.676476	1.342352
H261	H	0.858882	0.217167	0.896708
H262	H	1.358882	0.717167	1.396708
H263	H	0.931116	0.209684	0.896743
H264	H	1.431116	0.709684	1.396743
C265	C	0.878242	0.926588	0.418416
C266	C	1.378242	1.426588	0.918416
H267	H	0.859646	0.885628	0.439016
H268	H	1.359646	1.385628	0.939016
H269	H	0.846577	0.955805	0.399444
H270	H	1.346577	1.455805	0.899444
H271	H	0.900485	0.955610	0.447966
H272	H	1.400485	1.455610	0.947966
C273	C	1.020241	0.785540	0.268903
C274	C	1.520241	1.285540	0.768903
H275	H	1.020575	0.733057	0.269030
H276	H	1.520575	1.233057	0.769030
H277	H	1.032502	0.803244	0.308856
H278	H	1.532502	1.303244	0.808856
H279	H	1.048580	0.803170	0.238164
H280	H	1.548580	1.303170	0.738164
C281	C	0.135222	0.456031	0.386223
C282	C	0.635222	0.956031	0.886223
H283	H	0.164081	0.484293	0.410022
H284	H	0.664081	0.984293	0.910022
H285	H	0.109741	0.427753	0.413583
H286	H	0.609741	0.927753	0.913583
H287	H	0.109653	0.488249	0.362198
H288	H	0.609653	0.988249	0.862198
H289	H	0.832799	0.270519	0.541272
H290	H	1.332799	0.770519	1.041272
H291	H	0.144559	0.270382	0.229687
H292	H	0.644559	0.770382	0.729687
H293	H	0.263269	0.270413	0.229641
H294	H	0.763269	0.770413	0.729641
H295	H	0.889220	0.792575	0.405301
H296	H	1.389220	1.292575	0.905301
C297	C	0.988049	0.783857	0.387887
C298	C	1.488049	1.283857	0.887887
H299	H	1.004261	0.752837	0.355963
H300	H	1.504261	1.252837	0.855963
H301	H	0.984280	0.756475	0.425583
H302	H	1.484280	1.256475	0.925583
H303	H	1.015554	0.824338	0.394266
H304	H	1.515554	1.324338	0.894266
C305	C	0.817147	0.928081	0.221254
C306	C	1.317147	1.428081	0.721254
H307	H	0.848198	0.959764	0.204293
H308	H	1.348198	1.459764	0.704293
H309	H	0.779259	0.954799	0.226319
H310	H	1.279259	1.454799	0.726319
H311	H	0.810431	0.887723	0.193696
H312	H	1.310431	1.387723	0.693696
C313	C	0.821242	0.785806	0.218069
C314	C	1.321242	1.285806	0.718069
H315	H	0.853672	0.755450	0.201930
H316	H	1.353672	1.255450	0.701930
H317	H	0.815160	0.826995	0.191209
H318	H	1.315160	1.326995	0.691209
H319	H	0.783647	0.758070	0.220565
H320	H	1.283647	1.258070	0.720565
C321	C	0.989648	0.455700	1.073001
C322	C	1.489648	0.955700	1.573001
H323	H	0.983922	0.448906	1.116656
H324	H	1.483922	0.948906	1.616656
H325	H	0.980461	0.505464	1.062257
H326	H	1.480461	1.005464	1.562257
H327	H	1.031750	0.444844	1.062301
H328	H	1.531750	0.944844	1.562301
C329	C	0.989629	0.455739	0.935589
C330	C	1.489629	0.955739	1.435589
H331	H	1.013491	0.483926	0.964448
H332	H	1.513491	0.983926	1.464448
H333	H	0.965647	0.488019	0.910041
H334	H	1.465647	0.988019	1.410041
H335	H	1.016936	0.427399	0.910086
H336	H	1.516936	0.927399	1.410086
C337	C	0.915836	0.496441	0.871139
C338	C	1.415836	0.996441	1.371139
H339	H	0.915142	0.486870	0.914797
H340	H	1.415142	0.986870	1.414797
H341	H	0.881740	0.527607	0.860392
H342	H	1.381740	1.027607	1.360392
H343	H	0.953973	0.520111	0.860430
H344	H	1.453973	1.020111	1.360430
C345	C	0.915810	0.496486	0.733728
C346	C	1.415810	0.996486	1.233728
H347	H	0.915092	0.486945	0.690075
H348	H	1.415092	0.986945	1.190075
H349	H	0.953945	0.520155	0.744462
H350	H	1.453945	1.020155	1.244462
H351	H	0.881711	0.527641	0.744430
H352	H	1.381711	1.027641	1.244430
