data_functionalizedCrystal
_audit_creation_method	'MofGen! by Chris Wilmer'
_symmetry_space_group_name_H-M	'P1'
_symmetry_Int_Tables_number	1
_symmetry_cell_setting	triclinic
loop_
_symmetry_equiv_pos_as_xyz
  x,y,z
_cell_length_a	23.532407
_cell_length_b	23.532407
_cell_length_c	13.101018
_cell_angle_alpha	93.329207
_cell_angle_beta	86.664201
_cell_angle_gamma	82.848713
loop_
_atom_site_label
_atom_site_type_symbol
_atom_site_fract_x
_atom_site_fract_y
_atom_site_fract_z
O1	O	0.758410	0.065980	-0.085104
O2	O	1.091743	0.399314	0.248229
O3	O	1.425077	0.732647	0.581562
O4	O	0.592548	0.075982	-0.085137
O5	O	0.925881	0.409316	0.248196
O6	O	1.259214	0.742649	0.581530
O7	O	0.680479	-0.011949	-0.085091
O8	O	1.013813	0.321384	0.248242
O9	O	1.347146	0.654717	0.581576
O10	O	0.670478	0.153912	-0.085150
O11	O	1.003812	0.487245	0.248183
O12	O	1.337145	0.820578	0.581516
O13	O	0.674163	-0.005635	0.085336
O14	O	1.007496	0.327699	0.418669
O15	O	1.340830	0.661032	0.752003
O16	O	0.586231	0.082297	0.085290
O17	O	0.919565	0.415630	0.418623
O18	O	1.252898	0.748963	0.751957
O19	O	0.752094	0.072295	0.085323
O20	O	1.085427	0.405628	0.418656
O21	O	1.418760	0.738961	0.751989
Zn22	Zn	0.668160	0.078298	0.112365
Zn23	Zn	1.001493	0.411632	0.445699
Zn24	Zn	1.334826	0.744965	0.779032
Zn25	Zn	0.676482	0.069979	-0.112180
Zn26	Zn	1.009815	0.403312	0.221154
Zn27	Zn	1.343148	0.736645	0.554487
O28	O	0.664162	0.160226	0.085277
O29	O	0.997495	0.493560	0.418610
O30	O	1.330829	0.826893	0.751943
C31	C	0.677066	-0.030008	0.000128
C32	C	1.010400	0.303325	0.333461
C33	C	1.343733	0.636659	0.666794
C34	C	0.676300	-0.093224	0.000143
C35	C	1.009633	0.240109	0.333476
C36	C	1.342966	0.573442	0.666810
C37	C	0.568174	0.078885	0.000073
C38	C	0.901507	0.412218	0.333406
C39	C	1.234840	0.745551	0.666739
C40	C	0.504957	0.078118	0.000062
C41	C	0.838290	0.411452	0.333395
C42	C	1.171624	0.744785	0.666728
C43	C	0.621107	-0.359395	0.000068
C44	C	0.954440	-0.026061	0.333402
C45	C	1.287774	0.307272	0.666735
C46	C	0.621818	-0.299994	0.000076
C47	C	0.955152	0.033339	0.333410
C48	C	1.288485	0.366673	0.666743
O49	O	0.578034	-0.263251	0.000035
O50	O	0.911367	0.070082	0.333369
O51	O	1.244701	0.403416	0.666702
N52	N	0.674094	-0.277367	0.000098
N53	N	1.007427	0.055966	0.333432
N54	N	1.340760	0.389300	0.666765
C55	C	0.725662	-0.314144	0.000102
C56	C	1.058995	0.019189	0.333435
C57	C	1.392328	0.352522	0.666769
O58	O	0.770192	-0.289444	0.000121
O59	O	1.103525	0.043889	0.333454
O60	O	1.436858	0.377223	0.666787
C61	C	0.724950	-0.373544	0.000087
C62	C	1.058284	-0.040211	0.333420
C63	C	1.391617	0.293123	0.666753
C64	C	0.672671	-0.396167	0.000075
C65	C	1.006004	-0.062834	0.333408
C66	C	1.339338	0.270499	0.666742
C67	C	0.568832	-0.382018	0.000055
C68	C	0.902165	-0.048685	0.333389
C69	C	1.235499	0.284648	0.666722
C70	C	0.568121	-0.441415	0.000049
C71	C	0.901454	-0.108081	0.333383
C72	C	1.234788	0.225252	0.666716
C73	C	0.619685	-0.478187	0.000056
C74	C	0.953018	-0.144854	0.333389
C75	C	1.286352	0.188479	0.666723
C76	C	0.671960	-0.455564	0.000069
C77	C	1.005293	-0.122230	0.333402
C78	C	1.338627	0.211103	0.666736
C79	C	0.776518	-0.410321	0.000083
C80	C	1.109851	-0.076987	0.333416
C81	C	1.443185	0.256346	0.666750
C82	C	0.775802	-0.469724	0.000067
C83	C	1.109135	-0.136390	0.333400
C84	C	1.442469	0.196943	0.666734
C85	C	0.723523	-0.492347	0.000055
C86	C	1.056856	-0.159014	0.333389
C87	C	1.390190	0.174320	0.666722
C88	C	0.722813	-0.551733	0.000070
C89	C	1.056146	-0.218399	0.333403
C90	C	1.389480	0.114934	0.666736
N91	N	0.670538	-0.574360	0.000048
N92	N	1.003871	-0.241026	0.333381
N93	N	1.337204	0.092307	0.666714
C94	C	0.618974	-0.537587	0.000041
C95	C	0.952307	-0.204254	0.333374
C96	C	1.285640	0.129080	0.666707
C97	C	0.727152	-0.189401	0.000133
C98	C	1.060485	0.143933	0.333466
C99	C	1.393819	0.477266	0.666799
C100	C	0.727864	-0.130002	0.000155
C101	C	1.061197	0.203331	0.333489
C102	C	1.394531	0.536665	0.666822
C103	C	0.624020	-0.115856	0.000128
C104	C	0.957353	0.217478	0.333461
C105	C	1.290687	0.550811	0.666794
C106	C	0.623309	-0.175255	0.000112
C107	C	0.956642	0.158078	0.333446
C108	C	1.289975	0.491411	0.666779
C109	C	0.674877	-0.212028	0.000110
C110	C	1.008210	0.121306	0.333444
C111	C	1.341543	0.454639	0.666777
C112	C	0.617484	-0.662324	0.000029
C113	C	0.950818	-0.328991	0.333362
C114	C	1.284151	0.004342	0.666695
C115	C	0.616778	-0.721726	0.000027
C116	C	0.950111	-0.388393	0.333360
C117	C	1.283445	-0.055060	0.666694
C118	C	0.720622	-0.735868	0.000049
C119	C	1.053955	-0.402534	0.333383
C120	C	1.387288	-0.069201	0.666716
C121	C	0.721328	-0.676470	0.000057
C122	C	1.054662	-0.343137	0.333390
C123	C	1.387995	-0.009804	0.666723
C124	C	0.669755	-0.639700	0.000043
C125	C	1.003088	-0.306366	0.333376
C126	C	1.336422	0.026967	0.666710
O127	O	0.766575	-0.588510	0.000106
O128	O	1.099908	-0.255177	0.333440
O129	O	1.433241	0.078156	0.666773
O130	O	0.574452	-0.562296	0.000009
O131	O	0.907785	-0.228963	0.333342
O132	O	1.241118	0.104371	0.666675
C133	C	0.105853	0.125353	0.000091
C134	C	0.439186	0.458686	0.333424
C135	C	0.772520	0.792020	0.666758
C136	C	0.046452	0.124642	0.000098
C137	C	0.379786	0.457975	0.333431
C138	C	0.713119	0.791308	0.666764
O139	O	0.009707	0.168428	0.000119
O140	O	0.343040	0.501762	0.333453
O141	O	0.676374	0.835095	0.666786
N142	N	0.023826	0.072366	0.000115
N143	N	0.357159	0.405699	0.333448
N144	N	0.690492	0.739033	0.666781
C145	C	0.060602	0.020799	0.000136
C146	C	0.393936	0.354132	0.333469
C147	C	0.727269	0.687465	0.666802
O148	O	0.035902	-0.023731	0.000152
O149	O	0.369235	0.309602	0.333485
O150	O	0.702569	0.642935	0.666818
C151	C	0.120001	0.021511	0.000136
C152	C	0.453335	0.354844	0.333470
C153	C	0.786668	0.688177	0.666803
C154	C	0.142625	0.073789	0.000109
C155	C	0.475958	0.407123	0.333442
C156	C	0.809292	0.740456	0.666776
C157	C	0.128477	0.177627	0.000065
C158	C	0.461810	0.510961	0.333398
C159	C	0.795144	0.844294	0.666732
C160	C	0.187874	0.178338	0.000056
C161	C	0.521207	0.511672	0.333390
C162	C	0.854540	0.845005	0.666723
C163	C	0.224646	0.126775	0.000074
C164	C	0.557979	0.460108	0.333408
C165	C	0.891313	0.793441	0.666741
C166	C	0.202022	0.074500	0.000101
C167	C	0.535355	0.407834	0.333434
C168	C	0.868688	0.741167	0.666767
C169	C	0.156777	-0.030056	0.000165
C170	C	0.490110	0.303277	0.333498
C171	C	0.823443	0.636611	0.666831
C172	C	0.216179	-0.029339	0.000166
C173	C	0.549513	0.303994	0.333500
C174	C	0.882846	0.637327	0.666833
C175	C	0.238803	0.022939	0.000139
C176	C	0.572136	0.356273	0.333472
C177	C	0.905470	0.689606	0.666806
C178	C	0.298190	0.023648	0.000110
C179	C	0.631524	0.356981	0.333443
C180	C	0.964857	0.690314	0.666777
N181	N	0.320817	0.075923	0.000093
N182	N	0.654150	0.409257	0.333426
N183	N	0.987484	0.742590	0.666760
C184	C	0.284045	0.127487	0.000075
C185	C	0.617378	0.460820	0.333408
C186	C	0.950712	0.794153	0.666742
C187	C	-0.064140	0.019307	0.000136
C188	C	0.269193	0.352640	0.333469
C189	C	0.602527	0.685974	0.666802
C190	C	-0.123538	0.018594	0.000128
C191	C	0.209796	0.351928	0.333461
C192	C	0.543129	0.685261	0.666794
C193	C	-0.137684	0.122438	0.000092
C194	C	0.195650	0.455771	0.333425
C195	C	0.528983	0.789104	0.666758
C196	C	-0.078285	0.123150	0.000092
C197	C	0.255049	0.456483	0.333426
C198	C	0.588382	0.789816	0.666759
C199	C	-0.041513	0.071583	0.000119
C200	C	0.291820	0.404916	0.333452
C201	C	0.625153	0.738250	0.666785
C202	C	0.408782	0.128976	0.000057
C203	C	0.742116	0.462309	0.333390
C204	C	1.075449	0.795642	0.666723
C205	C	0.468185	0.129682	0.000044
C206	C	0.801518	0.463015	0.333377
C207	C	1.134851	0.796349	0.666710
C208	C	0.482325	0.025839	0.000085
C209	C	0.815659	0.359172	0.333419
C210	C	1.148992	0.692506	0.666752
C211	C	0.422928	0.025132	0.000093
C212	C	0.756262	0.358466	0.333426
C213	C	1.089595	0.691799	0.666759
C214	C	0.386157	0.076705	0.000082
C215	C	0.719491	0.410039	0.333415
C216	C	1.052824	0.743372	0.666748
O217	O	0.334970	-0.020116	0.000093
O218	O	0.668303	0.313217	0.333426
O219	O	1.001637	0.646551	0.666759
O220	O	0.308753	0.172010	0.000073
O221	O	0.642086	0.505343	0.333406
O222	O	0.975420	0.838676	0.666739
C223	C	0.776468	0.069392	0.000111
C224	C	1.109801	0.402726	0.333444
C225	C	1.443134	0.736059	0.666777
C226	C	0.839685	0.070158	0.000115
C227	C	1.173018	0.403492	0.333448
C228	C	1.506351	0.736825	0.666782
C229	C	0.667575	0.178285	0.000056
C230	C	1.000909	0.511618	0.333389
C231	C	1.334242	0.844952	0.666722
C232	C	0.668342	0.241501	0.000034
C233	C	1.001675	0.574834	0.333367
C234	C	1.335009	0.908168	0.666700
N235	N	0.662484	0.083976	0.265611
N236	N	0.995818	0.417309	0.598945
N237	N	1.329151	0.750643	0.932278
N238	N	0.682161	0.064297	-0.265426
N239	N	1.015495	0.397630	0.067908
N240	N	1.348828	0.730963	0.401241
C241	C	0.689880	0.056570	0.525535
C242	C	1.023213	0.389903	0.858869
C243	C	1.356547	0.723236	1.192202
C244	C	0.654768	0.091701	0.474644
C245	C	0.988101	0.425034	0.807977
C246	C	1.321434	0.758367	1.141311
C247	C	0.659062	0.087402	0.358327
C248	C	0.992396	0.420735	0.691661
C249	C	1.325729	0.754068	1.024994
C250	C	0.685586	0.060868	0.641862
C251	C	1.018919	0.394202	0.975196
C252	C	1.352253	0.727535	1.308529
H253	H	0.574204	-0.740142	0.000022
H254	H	0.907537	-0.406809	0.333355
H255	H	1.240871	-0.073475	0.666689
N256	N	-0.147939	-0.037790	0.000145
N257	N	0.185394	0.295543	0.333478
N258	N	0.518728	0.628877	0.666812
H259	H	-0.132171	-0.062706	-0.063024
H260	H	0.201162	0.270628	0.270309
H261	H	0.534496	0.603961	0.603642
H262	H	-0.136838	-0.057976	0.063372
H263	H	0.196495	0.275358	0.396706
H264	H	0.529829	0.608691	0.730039
N265	N	0.733976	0.012456	0.467559
N266	N	1.067310	0.345789	0.800893
N267	N	1.400643	0.679122	1.134226
H268	H	0.726947	-0.027248	0.486179
H269	H	1.060281	0.306085	0.819512
H270	H	1.393614	0.639418	1.152845
H271	H	0.730817	0.015646	0.391500
H272	H	1.064150	0.348979	0.724833
H273	H	1.397483	0.682312	1.058166
H274	H	0.621482	0.125007	0.518432
H275	H	0.954815	0.458340	0.851765
H276	H	1.288149	0.791673	1.185098
N277	N	0.561861	-0.622670	0.000013
N278	N	0.895194	-0.289336	0.333346
N279	N	1.228528	0.043997	0.666679
H280	H	0.528641	-0.646023	0.000005
H281	H	0.861975	-0.312689	0.333339
H282	H	1.195308	0.020644	0.666672
H283	H	0.557550	-0.595385	0.063196
H284	H	0.890883	-0.262052	0.396529
H285	H	1.224217	0.071282	0.729862
H286	H	0.138368	-0.072627	0.000188
H287	H	0.471701	0.260707	0.333521
H288	H	0.805034	0.594040	0.666855
N289	N	0.369122	0.184595	0.000036
N290	N	0.702455	0.517928	0.333370
N291	N	1.035788	0.851262	0.666703
H292	H	0.341826	0.188958	0.063216
H293	H	0.675159	0.522291	0.396549
H294	H	1.008492	0.855624	0.729883
H295	H	0.392510	0.217785	-0.000022
H296	H	0.725844	0.551119	0.333311
H297	H	1.059177	0.884452	0.666645
N298	N	0.255839	-0.084959	0.000201
N299	N	0.589173	0.248374	0.333535
N300	N	0.922506	0.581708	0.666868
H301	H	0.232490	-0.118181	0.000220
H302	H	0.565823	0.215152	0.333553
H303	H	0.899156	0.548486	0.666887
H304	H	0.283130	-0.089272	-0.062979
H305	H	0.616463	0.244062	0.270355
H306	H	0.949797	0.577395	0.603688
H307	H	0.769147	-0.219338	0.000138
H308	H	1.102481	0.113995	0.333472
H309	H	1.435814	0.447329	0.666805
N310	N	0.398517	-0.031249	0.000112
N311	N	0.731850	0.302084	0.333446
N312	N	1.065183	0.635418	0.666779
H313	H	0.414278	-0.056167	-0.063058
H314	H	0.747612	0.277167	0.270275
H315	H	1.080945	0.610500	0.603608
H316	H	0.409617	-0.051436	0.063338
H317	H	0.742951	0.281898	0.396672
H318	H	1.076284	0.615231	0.730005
N319	N	0.521992	-0.029774	0.000105
N320	N	0.855326	0.303559	0.333438
N321	N	1.188659	0.636893	0.666772
H322	H	0.563053	-0.021386	0.000102
H323	H	0.896386	0.311948	0.333435
H324	H	1.229719	0.645281	0.666769
H325	H	0.512362	-0.050226	0.063299
H326	H	0.845696	0.283107	0.396632
H327	H	1.179029	0.616440	0.729965
H328	H	0.817796	-0.499662	0.000060
H329	H	1.151130	-0.166329	0.333393
H330	H	1.484463	0.167005	0.666727
N331	N	0.777714	-0.652068	0.000092
N332	N	1.111047	-0.318735	0.333425
N333	N	1.444381	0.014599	0.666758
H334	H	0.777979	-0.625408	0.063275
H335	H	1.111313	-0.292075	0.396608
H336	H	1.444646	0.041259	0.729942
H337	H	0.810236	-0.684414	0.000066
H338	H	1.143569	-0.351081	0.333399
H339	H	1.476903	-0.017748	0.666732
H340	H	0.580738	-0.193670	0.000107
H341	H	0.914071	0.139663	0.333440
H342	H	1.247405	0.472996	0.666774
H343	H	0.525550	-0.459829	0.000031
H344	H	0.858884	-0.126496	0.333364
H345	H	1.192217	0.206838	0.666698
N346	N	-0.053892	0.179539	0.000073
N347	N	0.279441	0.512872	0.333406
N348	N	0.612775	0.846205	0.666739
H349	H	-0.031903	0.184493	0.063251
H350	H	0.301430	0.517827	0.396584
H351	H	0.634764	0.851160	0.729917
H352	H	-0.027251	0.179776	-0.063146
H353	H	0.306082	0.513110	0.270187
H354	H	0.639416	0.846443	0.603521
N355	N	0.513212	-0.342362	0.000046
N356	N	0.846545	-0.009028	0.333379
N357	N	1.179879	0.324305	0.666712
H358	H	0.479994	-0.365716	0.000035
H359	H	0.813327	-0.032383	0.333368
H360	H	1.146660	0.300950	0.666701
H361	H	0.508901	-0.315080	0.063233
H362	H	0.842234	0.018253	0.396566
H363	H	1.175567	0.351586	0.729900
N364	N	0.832909	-0.385937	0.000092
N365	N	1.166243	-0.052603	0.333426
N366	N	1.499576	0.280730	0.666759
H367	H	0.857818	-0.401705	-0.063088
H368	H	1.191151	-0.068371	0.270246
H369	H	1.524484	0.264962	0.603579
H370	H	0.825501	-0.342729	0.000137
H371	H	1.158834	-0.009396	0.333470
H372	H	1.492168	0.323938	0.666804
N373	N	0.568404	-0.076187	0.000102
N374	N	0.901738	0.257147	0.333435
N375	N	1.235071	0.590480	0.666769
H376	H	0.535176	-0.099528	0.000087
H377	H	0.868509	0.233805	0.333420
H378	H	1.201843	0.567139	0.666754
H379	H	0.564096	-0.048901	0.063283
H380	H	0.897429	0.284433	0.396616
H381	H	1.230763	0.617766	0.729950
N382	N	0.784249	-0.105604	0.000190
N383	N	1.117583	0.227730	0.333523
N384	N	1.450916	0.561063	0.666857
H385	H	0.816804	-0.137917	0.000195
H386	H	1.150137	0.195416	0.333528
H387	H	1.483471	0.528749	0.666862
H388	H	0.789153	-0.083599	-0.062985
H389	H	1.122486	0.249735	0.270348
H390	H	1.455820	0.583068	0.603682
H391	H	0.762603	-0.765818	0.000060
H392	H	1.095937	-0.432485	0.333393
H393	H	1.429270	-0.099152	0.666726
H394	H	0.486601	0.172255	0.000021
H395	H	0.819935	0.505589	0.333354
H396	H	1.153268	0.838922	0.666688
H397	H	0.206288	0.220909	0.000034
H398	H	0.539621	0.554242	0.333367
H399	H	0.872955	0.887576	0.666700
N400	N	0.088819	0.233249	0.000104
N401	N	0.422152	0.566583	0.333437
N402	N	0.755485	0.899916	0.666771
H403	H	0.112173	0.266468	0.000106
H404	H	0.445506	0.599802	0.333440
H405	H	0.778839	0.933135	0.666773
H406	H	0.066189	0.232900	-0.063060
H407	H	0.399523	0.566233	0.270273
H408	H	0.732856	0.899566	0.603606
N409	N	-0.177338	0.178065	0.000094
N410	N	0.155996	0.511398	0.333427
N411	N	0.489329	0.844732	0.666761
H412	H	-0.199967	0.177757	-0.063076
H413	H	0.133366	0.511090	0.270257
H414	H	0.466700	0.844423	0.603591
H415	H	-0.204594	0.182392	0.063321
H416	H	0.128739	0.515725	0.396654
H417	H	0.462073	0.849059	0.729987
N418	N	-0.024481	-0.036315	0.000159
N419	N	0.308853	0.297018	0.333492
N420	N	0.642186	0.630352	0.666826
H421	H	-0.047833	-0.069536	0.000169
H422	H	0.285501	0.263798	0.333503
H423	H	0.618834	0.597131	0.666836
H424	H	0.002811	-0.040626	-0.063019
H425	H	0.336145	0.292707	0.270314
H426	H	0.669478	0.626041	0.603648
