data_functionalizedCrystal
_audit_creation_method	'MofGen! by Chris Wilmer'
_symmetry_space_group_name_H-M	'P1'
_symmetry_Int_Tables_number	1
_symmetry_cell_setting	triclinic
loop_
_symmetry_equiv_pos_as_xyz
  x,y,z
_cell_length_a	19.188933
_cell_length_b	12.837942
_cell_length_c	11.295483
_cell_angle_alpha	85.469583
_cell_angle_beta	85.909976
_cell_angle_gamma	91.012745
loop_
_atom_site_label
_atom_site_type_symbol
_atom_site_fract_x
_atom_site_fract_y
_atom_site_fract_z
O1	O	0.939254	-0.122391	-0.098984
O2	O	1.439254	0.377609	0.401016
O3	O	0.737138	-0.139805	-0.098995
O4	O	1.237138	0.360195	0.401005
O5	O	0.833714	0.019784	-0.098983
O6	O	1.333714	0.519784	0.401017
O7	O	0.842678	-0.281980	-0.098997
O8	O	1.342678	0.218020	0.401003
O9	O	0.825230	0.005789	0.099067
O10	O	1.325230	0.505789	0.599067
O11	O	0.728654	-0.153800	0.099054
O12	O	1.228654	0.346200	0.599054
O13	O	0.930770	-0.136386	0.099065
O14	O	1.430770	0.363614	0.599065
Cu15	Cu	0.828937	-0.146371	0.117143
Cu16	Cu	1.328937	0.353629	0.617143
Cu17	Cu	0.838970	-0.129820	-0.117073
Cu18	Cu	1.338970	0.370180	0.382927
O19	O	0.834194	-0.295975	0.099053
O20	O	1.334194	0.204025	0.599053
C21	C	0.706846	-0.146238	0.000028
C22	C	1.206846	0.353762	0.500028
C23	C	0.629226	-0.144544	0.000024
C24	C	1.129226	0.355456	0.500024
C25	C	0.079765	-0.124826	-0.107919
C26	C	0.579765	0.375174	0.392081
C27	C	0.152698	-0.126411	-0.107924
C28	C	0.652698	0.373589	0.392076
C29	C	0.184545	-0.134838	0.000032
C30	C	0.684545	0.365162	0.500032
C31	C	0.143454	-0.141653	0.108002
C32	C	0.643454	0.358347	0.608002
C33	C	0.070522	-0.140057	0.108003
C34	C	0.570522	0.359943	0.608003
N35	N	0.294340	-0.201992	0.080387
N36	N	0.794340	0.298008	0.580387
N37	N	0.363622	-0.203509	0.080378
N38	N	0.863622	0.296491	0.580378
C39	C	0.404284	-0.139644	0.000034
C40	C	0.904284	0.360356	0.500034
N41	N	0.373046	-0.074215	-0.080318
N42	N	0.873046	0.425785	0.419682
N43	N	0.303758	-0.072702	-0.080313
N44	N	0.803758	0.427298	0.419687
C45	C	0.263627	-0.136568	0.000043
C46	C	0.763627	0.363432	0.500043
C47	C	0.524449	-0.134540	-0.107933
C48	C	1.024449	0.365460	0.392067
C49	C	0.597384	-0.136119	-0.107933
C50	C	1.097384	0.363881	0.392067
C51	C	0.588137	-0.151371	0.107995
C52	C	1.088137	0.348629	0.607995
C53	C	0.515204	-0.149782	0.107992
C54	C	1.015204	0.350218	0.607992
C55	C	0.483365	-0.141371	0.000025
C56	C	0.983365	0.358629	0.500025
C57	C	0.826444	0.051393	0.000041
C58	C	1.326444	0.551393	0.500041
C59	C	0.817413	0.166430	0.000039
C60	C	1.317413	0.666430	0.500039
C61	C	0.961062	-0.129953	0.000039
C62	C	1.461062	0.370047	0.500039
C63	C	1.038682	-0.131646	0.000036
C64	C	1.538682	0.368354	0.500036
C65	C	0.841464	-0.327584	0.000026
C66	C	1.341464	0.172416	0.500026
C67	C	0.850495	-0.442620	0.000021
C68	C	1.350495	0.057380	0.500021
N69	N	0.821885	-0.158012	0.281879
N70	N	1.321885	0.341988	0.781879
C71	C	0.925982	0.407881	0.000020
C72	C	1.425982	0.907881	0.500020
C73	C	0.917500	0.515968	0.000018
C74	C	1.417500	1.015968	0.500018
C75	C	0.791968	0.490695	0.000023
C76	C	1.291968	0.990695	0.500023
C77	C	0.800450	0.382608	0.000026
C78	C	1.300450	0.882608	0.500026
C79	C	0.867459	0.341205	0.000026
C80	C	1.367459	0.841205	0.500026
C81	C	0.875940	0.233114	0.000037
C82	C	1.375940	0.733114	0.500037
C83	C	0.750409	0.207844	0.000034
C84	C	1.250409	0.707844	0.500034
C85	C	0.741927	0.315932	0.000031
C86	C	1.241927	0.815932	0.500031
N87	N	0.846027	-0.118171	-0.281809
N88	N	1.346027	0.381829	0.218191
C89	C	0.896786	-0.034317	0.531178
C90	C	1.396786	0.465683	1.031178
C91	C	0.891462	-0.043121	0.655841
C92	C	1.391462	0.456879	1.155841
C93	C	0.805911	-0.184419	0.655870
C94	C	1.305911	0.315581	1.155870
C95	C	0.811235	-0.175615	0.531207
C96	C	1.311235	0.324385	1.031207
C97	C	0.856675	-0.100562	0.468865
C98	C	1.356675	0.399438	0.968865
C99	C	0.862001	-0.091764	0.344200
C100	C	1.362001	0.408236	0.844200
C101	C	0.776447	-0.233056	0.344231
C102	C	1.276447	0.266944	0.844231
C103	C	0.771123	-0.241860	0.468894
C104	C	1.271123	0.258140	0.968894
H105	H	0.037072	-0.145615	0.195916
H106	H	0.537072	0.354385	0.695916
H107	H	0.186154	-0.120863	-0.195837
H108	H	0.686154	0.379137	0.304163
C109	C	0.718266	0.536249	-0.000001
C110	C	1.218266	1.036249	0.499999
H111	H	0.684624	0.481061	-0.000010
H112	H	1.184624	0.981061	0.499990
H113	H	0.709386	0.573024	0.069052
H114	H	1.209386	1.073024	0.569052
H115	H	0.715317	0.582756	-0.069085
H116	H	1.215317	1.082756	0.430915
H117	H	0.965155	0.570253	0.000009
H118	H	1.465155	1.070253	0.500009
H119	H	0.687371	0.349658	0.000027
H120	H	1.187371	0.849658	0.500027
C121	C	0.755931	-0.266965	0.724459
C122	C	1.255931	0.233035	1.224459
H123	H	0.758510	-0.262719	0.807628
H124	H	1.258510	0.237281	1.307628
H125	H	0.709471	-0.254446	0.704044
H126	H	1.209471	0.245554	1.204044
H127	H	0.768990	-0.334663	0.704034
H128	H	1.268990	0.165337	1.204034
H129	H	0.053846	-0.117973	-0.195835
H130	H	0.553846	0.382027	0.304165
C131	C	0.999685	0.362332	0.000030
C132	C	1.499685	0.862332	0.500030
H133	H	1.033326	0.417524	0.000023
H134	H	1.533326	0.917524	0.500023
H135	H	1.002643	0.315814	0.069095
H136	H	1.502643	0.815814	0.569095
H137	H	1.008563	0.325572	-0.069043
H138	H	1.508563	0.825572	0.430957
H139	H	0.734125	-0.302964	0.519667
H140	H	1.234125	0.197036	1.019667
H141	H	0.702755	0.153543	0.000048
H142	H	1.202755	0.653543	0.500048
H143	H	0.498524	-0.127688	-0.195847
H144	H	0.998524	0.372312	0.304153
H145	H	0.630833	-0.130557	-0.195847
H146	H	1.130833	0.369443	0.304153
C147	C	0.623157	-0.160638	0.226749
C148	C	1.123157	0.339362	0.726749
H149	H	0.588240	-0.164469	0.291046
H150	H	1.088240	0.335531	0.791046
H151	H	0.650112	-0.221994	0.231239
H152	H	1.150112	0.278006	0.731239
H153	H	0.652718	-0.101150	0.231235
H154	H	1.152718	0.398850	0.731235
H155	H	0.169388	-0.148512	0.195901
H156	H	0.669388	0.351488	0.695901
C157	C	0.935587	0.029745	0.724381
C158	C	1.435587	0.529745	1.224381
H159	H	0.963413	0.075697	0.669394
H160	H	1.463413	0.575697	1.169394
H161	H	0.905532	0.069355	0.773024
H162	H	1.405532	0.569355	1.273024
H163	H	0.965050	-0.010865	0.772999
H164	H	1.465050	0.489135	1.272999
C165	C	0.470011	-0.157301	0.226744
C166	C	0.970011	0.342699	0.726744
H167	H	0.499421	-0.162556	0.291041
H168	H	0.999421	0.337444	0.791041
H169	H	0.442672	-0.096581	0.231237
H170	H	0.942672	0.403419	0.731237
H171	H	0.440065	-0.217424	0.231228
H172	H	0.940065	0.282576	0.731228
H173	H	0.899002	-0.030655	0.293443
H174	H	1.399002	0.469345	0.793443
C175	C	0.946768	0.048231	0.462599
C176	C	1.446768	0.548231	0.962599
H177	H	0.969894	0.086426	0.517566
H178	H	1.469894	0.586426	1.017566
H179	H	0.980378	0.014493	0.413955
H180	H	1.480378	0.514493	0.913955
H181	H	0.920862	0.094716	0.413980
H182	H	1.420862	0.594716	0.913980
C183	C	0.949645	0.187571	0.000033
C184	C	1.449645	0.687571	0.500033
H185	H	0.983284	0.242767	0.000017
H186	H	1.483284	0.742767	0.500017
H187	H	0.952611	0.141055	0.069097
H188	H	1.452611	0.641055	0.569097
H189	H	0.958518	0.150810	-0.069040
H190	H	1.458518	0.650810	0.430960
C191	C	0.732331	-0.305940	0.275685
C192	C	1.232331	0.194060	0.775685
H193	H	0.742009	-0.289950	0.192511
H194	H	1.242009	0.210050	0.692511
H195	H	0.743648	-0.376513	0.296124
H196	H	1.243648	0.123487	0.796124
H197	H	0.684120	-0.296309	0.296121
H198	H	1.184120	0.203691	0.796121
