data_functionalizedCrystal
_audit_creation_method	'MofGen! by Chris Wilmer'
_symmetry_space_group_name_H-M	'P1'
_symmetry_Int_Tables_number	1
_symmetry_cell_setting	triclinic
loop_
_symmetry_equiv_pos_as_xyz
  x,y,z
_cell_length_a	29.839131
_cell_length_b	17.639123
_cell_length_c	17.640968
_cell_angle_alpha	109.671805
_cell_angle_beta	78.768609
_cell_angle_gamma	78.772560
loop_
_atom_site_label
_atom_site_type_symbol
_atom_site_fract_x
_atom_site_fract_y
_atom_site_fract_z
Zn1	Zn	0.059486	-1.354540	-0.721435
Zn2	Zn	0.559486	-0.854540	-0.221435
Zn3	Zn	-0.034706	-1.326507	-0.583560
Zn4	Zn	0.465294	-0.826507	-0.083560
Zn5	Zn	0.021402	-1.188790	-0.555673
Zn6	Zn	0.521402	-0.688790	-0.055673
Zn7	Zn	-0.034667	-1.216587	-0.693428
Zn8	Zn	0.465333	-0.716587	-0.193428
O9	O	0.002879	-1.271606	-0.638524
O10	O	0.502879	-0.771606	-0.138524
O11	O	0.062913	-1.466190	-0.726537
O12	O	0.562913	-0.966190	-0.226537
O13	O	-0.043218	-1.284873	-0.464508
O14	O	0.456782	-0.784873	0.035492
O15	O	0.089338	-1.210876	-0.577712
O16	O	0.589338	-0.710876	-0.077712
O17	O	-0.006289	-1.445594	-0.625241
O18	O	0.493711	-0.945594	-0.125241
O19	O	0.117318	-1.332651	-0.699497
O20	O	0.617318	-0.832651	-0.199497
O21	O	-0.001996	-1.183693	-0.444020
O22	O	0.498004	-0.683693	0.055980
O23	O	-0.001958	-1.077109	-0.550555
O24	O	0.498042	-0.577109	-0.050555
O25	O	-0.006222	-1.258252	-0.812496
O26	O	0.493778	-0.758252	-0.312496
O27	O	-0.043151	-1.097531	-0.651763
O28	O	0.456849	-0.597531	-0.151763
O29	O	0.062951	-1.359605	-0.833072
O30	O	0.562951	-0.859605	-0.333072
O31	O	-0.097585	-1.311827	-0.598084
O32	O	0.402415	-0.811827	-0.098084
O33	O	-0.097556	-1.231069	-0.678804
O34	O	0.402444	-0.731069	-0.178804
C35	C	-0.026683	-1.057406	-0.595095
C36	C	0.473317	-0.557406	-0.095095
C37	C	-0.039338	-0.965775	-0.576535
C38	C	0.460662	-0.465775	-0.076535
C39	C	-0.093168	-0.825884	-0.497560
C40	C	0.406832	-0.325884	0.002440
C41	C	-0.081272	-0.911988	-0.515006
C42	C	0.418728	-0.411988	-0.015006
C43	C	-0.009283	-0.933474	-0.620646
C44	C	0.490717	-0.433474	-0.120646
C45	C	-0.021174	-0.847371	-0.603212
C46	C	0.478826	-0.347371	-0.103212
C47	C	-0.063116	-0.793583	-0.541668
C48	C	0.436884	-0.293583	-0.041668
C49	C	0.008878	-0.815070	-0.647320
C50	C	0.508878	-0.315070	-0.147320
C51	C	-0.003011	-0.728974	-0.629884
C52	C	0.496989	-0.228974	-0.129884
C53	C	-0.044951	-0.675180	-0.568340
C54	C	0.455049	-0.175180	-0.068340
C55	C	-0.075005	-0.707487	-0.524232
C56	C	0.424995	-0.207487	-0.024232
C57	C	0.050822	-0.868859	-0.708860
C58	C	0.550822	-0.368859	-0.208860
C59	C	0.080873	-0.836557	-0.752968
C60	C	0.580873	-0.336557	-0.252968
C61	C	0.068983	-0.750461	-0.735536
C62	C	0.568983	-0.250461	-0.235536
C63	C	0.027043	-0.696667	-0.673993
C64	C	0.527043	-0.196667	-0.173993
C65	C	0.099037	-0.718154	-0.779645
C66	C	0.599037	-0.218154	-0.279645
C67	C	0.087149	-0.632058	-0.762209
C68	C	0.587149	-0.132058	-0.262209
C69	C	0.015155	-0.610571	-0.656557
C70	C	0.515155	-0.110571	-0.156557
C71	C	-0.113870	-1.271449	-0.638453
C72	C	0.386130	-0.771449	-0.138453
C73	C	-0.163801	-1.271462	-0.638466
C74	C	0.336199	-0.771462	-0.138466
C75	C	-0.473400	-1.313768	-0.596590
C76	C	0.026600	-0.813768	-0.096590
C77	C	-0.661055	-1.313876	-0.596642
C78	C	-0.161055	-0.813876	-0.096642
O79	O	-0.685302	-1.349721	-0.560983
O80	O	-0.185302	-0.849721	-0.060983
N81	N	-0.684531	-1.271789	-0.638621
N82	N	-0.184531	-0.771789	-0.138621
C83	C	-0.661090	-1.229677	-0.680594
C84	C	-0.161090	-0.729677	-0.180594
O85	O	-0.685362	-1.193890	-0.716308
O86	O	-0.185362	-0.693890	-0.216308
C87	C	-0.473435	-1.229574	-0.680546
C88	C	0.026565	-0.729574	-0.180546
C89	C	-0.449963	-1.271657	-0.638557
C90	C	0.050037	-0.771657	-0.138557
C91	C	-0.449927	-1.355847	-0.554605
C92	C	0.050073	-0.855847	-0.054605
C93	C	-0.403018	-1.355816	-0.554589
C94	C	0.096982	-0.855816	-0.054589
C95	C	-0.379580	-1.313705	-0.596557
C96	C	0.120420	-0.813705	-0.096557
C97	C	-0.403053	-1.271625	-0.638541
C98	C	0.096947	-0.771625	-0.138541
C99	C	-0.449994	-1.187468	-0.722524
C100	C	0.050006	-0.687468	-0.222524
C101	C	-0.403076	-1.187448	-0.722510
C102	C	0.096924	-0.687448	-0.222510
C103	C	-0.379604	-1.229530	-0.680521
C104	C	0.120396	-0.729530	-0.180521
C105	C	-0.332705	-1.229483	-0.680492
C106	C	0.167295	-0.729483	-0.180492
N107	N	-0.309229	-1.271570	-0.638513
N108	N	0.190771	-0.771570	-0.138513
C109	C	-0.332666	-1.313681	-0.596546
C110	C	0.167334	-0.813681	-0.096546
C111	C	-0.759612	-1.229733	-0.680615
C112	C	-0.259612	-0.729733	-0.180615
C113	C	-0.806526	-1.229757	-0.680626
C114	C	-0.306526	-0.729757	-0.180626
C115	C	-0.806487	-1.313957	-0.596675
C116	C	-0.306487	-0.813957	-0.096675
C117	C	-0.759573	-1.313928	-0.596660
C118	C	-0.259573	-0.813928	-0.096660
C119	C	-0.736135	-1.271819	-0.638636
C120	C	-0.236135	-0.771819	-0.138636
C121	C	-0.234152	-1.313611	-0.596513
C122	C	0.265848	-0.813611	-0.096513
C123	C	-0.187239	-1.313573	-0.596498
C124	C	0.312761	-0.813573	-0.096498
C125	C	-0.187281	-1.229377	-0.680452
C126	C	0.312719	-0.729377	-0.180452
C127	C	-0.234191	-1.229411	-0.680464
C128	C	0.265809	-0.729411	-0.180464
C129	C	-0.257625	-1.271534	-0.638494
C130	C	0.242375	-0.771534	-0.138494
O131	O	-0.308427	-1.193665	-0.716141
O132	O	0.191573	-0.693665	-0.216141
O133	O	-0.308382	-1.349479	-0.560853
O134	O	0.191618	-0.849479	-0.060853
C135	C	-0.520310	-1.313799	-0.596606
C136	C	-0.020310	-0.813799	-0.096606
C137	C	-0.543783	-1.271719	-0.638591
C138	C	-0.043783	-0.771719	-0.138591
C139	C	-0.520345	-1.229608	-0.680558
C140	C	-0.020345	-0.729608	-0.180558
C141	C	-0.590696	-1.271744	-0.638601
C142	C	-0.090696	-0.771744	-0.138601
C143	C	-0.614134	-1.313855	-0.596634
C144	C	-0.114134	-0.813855	-0.096634
C145	C	-0.590657	-1.355941	-0.554655
C146	C	-0.090657	-0.855941	-0.054655
C147	C	-0.543747	-1.355910	-0.554638
C148	C	-0.043747	-0.855910	-0.054638
C149	C	-0.543822	-1.187522	-0.722537
C150	C	-0.043822	-0.687522	-0.222537
C151	C	-0.590732	-1.187556	-0.722549
C152	C	-0.090732	-0.687556	-0.222549
C153	C	-0.614169	-1.229667	-0.680581
C154	C	-0.114169	-0.729667	-0.180581
C155	C	0.120089	-1.271790	-0.638618
C156	C	0.620089	-0.771790	-0.138618
C157	C	0.170037	-1.271868	-0.638658
C158	C	0.670037	-0.771868	-0.138658
C159	C	0.032617	-1.315156	-0.853530
C160	C	0.532617	-0.815156	-0.353530
C161	C	0.045290	-1.333714	-0.945153
C162	C	0.545290	-0.833714	-0.445153
C163	C	0.032557	-0.486640	-0.682114
C164	C	0.532557	0.013360	-0.182114
C165	C	0.045206	-0.578270	-0.700664
C166	C	0.545206	-0.078270	-0.200664
C167	C	-0.093106	-1.130936	-1.192929
C168	C	0.406894	-0.630936	-0.692929
C169	C	-0.081190	-1.148392	-1.279026
C170	C	0.418810	-0.648392	-0.779026
C171	C	-0.009166	-1.253922	-1.300440
C172	C	0.490834	-0.753922	-0.800440
C173	C	-0.021074	-1.236472	-1.214343
C174	C	0.478926	-0.736472	-0.714343
C175	C	-0.063045	-1.174979	-1.160594
C176	C	0.436955	-0.674979	-0.660594
C177	C	0.008986	-1.280515	-1.182007
C178	C	0.508986	-0.780515	-0.682007
C179	C	-0.002923	-1.263069	-1.095918
C180	C	0.497077	-0.763069	-0.595918
C181	C	-0.044893	-1.201581	-1.042164
C182	C	0.455107	-0.701581	-0.542164
C183	C	-0.074954	-1.157533	-1.074504
C184	C	0.425046	-0.657533	-0.574504
C185	C	0.050955	-1.342012	-1.235758
C186	C	0.550955	-0.842012	-0.735758
C187	C	0.081015	-1.386055	-1.203423
C188	C	0.581015	-0.886055	-0.703423
C189	C	0.069108	-1.368606	-1.117331
C190	C	0.569108	-0.868606	-0.617331
C191	C	0.027138	-1.307117	-1.063577
C192	C	0.527138	-0.807117	-0.563577
C193	C	0.099170	-1.412653	-1.084991
C194	C	0.599170	-0.912653	-0.584991
C195	C	0.087260	-1.395207	-0.998902
C196	C	0.587260	-0.895207	-0.498902
C197	C	0.015229	-1.289671	-0.977488
C198	C	0.515229	-0.789671	-0.477488
C199	C	-0.026705	-1.228273	-0.424364
C200	C	0.473295	-0.728273	0.075636
C201	C	-0.039229	-1.209874	-0.332775
C202	C	0.460771	-0.709874	0.167225
H203	H	-0.054624	-0.605074	-0.554133
H204	H	0.445376	-0.105074	-0.054133
H205	H	0.025006	-1.303992	-1.344214
H206	H	0.525006	-0.803992	-0.844214
H207	H	0.060501	-0.938962	-0.723051
H208	H	0.560501	-0.438962	-0.223051
F209	F	0.119253	-1.442085	-0.964486
F210	F	0.619253	-0.942085	-0.464486
F211	F	-0.615708	-1.142760	-0.767240
F212	F	-0.115708	-0.642760	-0.267240
F213	F	-0.518772	-1.400703	-0.509951
F214	F	-0.018772	-0.900703	-0.009951
F215	F	-0.378040	-1.400618	-0.509910
F216	F	0.121960	-0.900618	-0.009910
H217	H	0.133189	-0.761959	-0.829749
H218	H	0.633189	-0.261959	-0.329749
H219	H	0.060649	-1.356216	-1.305858
H220	H	0.560649	-0.856216	-0.805858
H221	H	0.115187	-1.436125	-1.247197
H222	H	0.615187	-0.936125	-0.747197
F223	F	-0.734596	-1.358717	-0.551971
F224	F	-0.234596	-0.858717	-0.051971
H225	H	-0.825577	-1.348246	-0.562504
H226	H	-0.325577	-0.848246	-0.062504
H227	H	-0.127274	-1.080842	-1.149159
H228	H	0.372726	-0.580842	-0.649159
F229	F	-0.119622	-1.092078	-1.017294
F230	F	0.380378	-0.592078	-0.517294
H231	H	-0.609749	-1.390227	-0.520481
H232	H	-0.109749	-0.890227	-0.020481
F233	F	0.143833	-1.478104	-1.142206
F234	F	0.643833	-0.978104	-0.642206
H235	H	-0.105747	-0.938282	-0.479083
H236	H	0.394253	-0.438282	0.020917
H237	H	0.024867	-0.977279	-0.670754
H238	H	0.524867	-0.477279	-0.170754
H239	H	-0.105672	-1.112522	-1.305348
H240	H	0.394328	-0.612522	-0.805348
F241	F	0.125510	-0.893810	-0.818465
F242	F	0.625510	-0.393810	-0.318465
H243	H	-0.253302	-1.195147	-0.714658
H244	H	0.246698	-0.695147	-0.214658
H245	H	-0.018940	-1.239578	-0.933718
H246	H	0.481060	-0.739578	-0.433718
H247	H	-0.054590	-1.187381	-0.972065
H248	H	0.445410	-0.687381	-0.472065
F249	F	-0.119652	-0.650240	-0.458746
F250	F	0.380348	-0.150240	0.041254
H251	H	-0.019002	-0.566775	-0.606448
H252	H	0.480998	-0.066775	-0.106448
F253	F	0.119134	-0.597677	-0.809150
F254	F	0.619134	-0.097677	-0.309150
F255	F	-0.137815	-0.768637	-0.432075
F256	F	0.362185	-0.268637	0.067925
H257	H	-0.168129	-1.347841	-0.562303
H258	H	0.331871	-0.847841	-0.062303
F259	F	-0.474864	-1.400673	-0.509935
F260	F	0.025136	-0.900673	-0.009935
F261	F	-0.259086	-1.358443	-0.551844
F262	F	0.240914	-0.858443	-0.051844
H263	H	-0.740532	-1.195441	-0.714798
H264	H	-0.240532	-0.695441	-0.214798
F265	F	-0.831504	-1.184956	-0.725304
F266	F	-0.331504	-0.684956	-0.225304
H267	H	-0.469098	-1.153195	-0.756710
H268	H	0.030902	-0.653195	-0.256710
H269	H	-0.383995	-1.153160	-0.756695
H270	H	0.116005	-0.653160	-0.256695
F271	F	-0.162328	-1.184565	-0.725117
F272	F	0.337672	-0.684565	-0.225117
H273	H	-0.524742	-1.153231	-0.756713
H274	H	-0.024742	-0.653231	-0.256713
