data_functionalizedCrystal
_audit_creation_method	'MofGen! by Chris Wilmer'
_symmetry_space_group_name_H-M	'P1'
_symmetry_Int_Tables_number	1
_symmetry_cell_setting	triclinic
loop_
_symmetry_equiv_pos_as_xyz
  x,y,z
_cell_length_a	14.519709
_cell_length_b	16.992695
_cell_length_c	16.053802
_cell_angle_alpha	92.741074
_cell_angle_beta	87.419624
_cell_angle_gamma	87.174184
loop_
_atom_site_label
_atom_site_type_symbol
_atom_site_fract_x
_atom_site_fract_y
_atom_site_fract_z
O1	O	1.234886	0.099504	-0.069320
O2	O	0.967279	0.111608	-0.069346
O3	O	1.100010	-0.008588	-0.069327
O4	O	1.102156	0.219700	-0.069340
O5	O	1.092702	-0.001999	0.069531
O6	O	0.959971	0.118197	0.069512
O7	O	1.227578	0.106092	0.069537
Zn8	Zn	1.092615	0.113191	0.091571
Zn9	Zn	1.102243	0.104510	-0.091380
O10	O	1.094848	0.226288	0.069518
C11	C	1.093596	-0.034510	0.000102
C12	C	1.085360	-0.121566	0.000101
C13	C	0.929225	0.114338	0.000080
C14	C	0.826723	0.112647	0.000070
C15	C	1.164820	-0.171694	0.000109
C16	C	1.157077	-0.253492	0.000101
C17	C	1.069873	-0.285160	0.000089
C18	C	0.990408	-0.235025	0.000079
C19	C	0.998152	-0.153229	0.000081
C20	C	1.037777	-0.528803	0.000075
C21	C	1.030038	-0.610605	0.000075
C22	C	1.196708	-0.629067	0.000095
C23	C	1.204444	-0.547269	0.000103
C24	C	1.124979	-0.497141	0.000088
N25	N	1.061956	-0.368770	0.000083
N26	N	1.132897	-0.413533	0.000088
C27	C	0.451379	0.106425	0.000108
C28	C	0.555811	0.108153	0.000097
C29	C	0.639048	0.109536	0.000088
C30	C	0.743487	0.111264	0.000079
C31	C	1.265632	0.103362	0.000110
C32	C	1.368135	0.105053	0.000114
C33	C	1.101262	0.252210	0.000088
C34	C	1.109498	0.339266	0.000083
N35	N	1.086050	0.119115	0.216431
N36	N	1.108814	0.098580	-0.216239
C37	C	1.142550	0.067989	0.260133
C38	C	1.137968	0.072141	0.347539
C39	C	1.076889	0.127422	0.391241
C40	C	1.020382	0.178549	0.347533
C41	C	1.024961	0.174393	0.260128
C42	C	1.056886	0.145552	0.652648
C43	C	1.052314	0.149705	0.740059
C44	C	1.169899	0.043295	0.740058
C45	C	1.174476	0.039147	0.652652
C46	C	1.117966	0.090272	0.608952
N47	N	1.072205	0.131668	0.480584
N48	N	1.122646	0.086022	0.519610
H49	H	1.235830	-0.145918	0.000123
H50	H	0.970645	0.223558	0.383120
H51	H	0.959022	-0.636384	0.000079
H52	H	1.275455	-0.521492	0.000112
C53	C	0.995498	0.201157	0.605360
C54	C	0.941050	0.250473	0.662343
C55	C	0.884495	0.301716	0.618809
H56	H	0.956729	0.171347	0.571271
H57	H	1.032843	0.232288	0.571270
H58	H	0.903709	0.219346	0.696419
H59	H	0.979795	0.280300	0.696434
H60	H	0.921840	0.332847	0.584719
H61	H	0.845732	0.271900	0.584722
H62	H	0.847552	0.335188	0.657465
H63	H	1.192291	0.022977	0.224556
H64	H	0.933447	-0.112414	0.000074
C65	C	0.951428	-0.474488	-0.000061
C66	C	0.903015	-0.492218	-0.071492
C67	C	0.823455	-0.442204	-0.071637
H68	H	0.968392	-0.421211	-0.000102
H69	H	0.913325	-0.481822	0.048335
H70	H	0.941110	-0.484877	-0.119875
H71	H	0.886028	-0.545486	-0.071465
H72	H	0.785352	-0.449538	-0.023241
H73	H	0.840427	-0.388930	-0.071676
H74	H	0.790592	-0.454232	-0.120098
H75	H	1.221781	-0.294304	0.000109
H76	H	1.261404	-0.669890	0.000106
C77	C	1.231082	-0.012303	0.787553
C78	C	1.175782	-0.058026	0.837728
C79	C	1.232110	-0.109264	0.881483
H80	H	1.269782	0.017508	0.821710
H81	H	1.268095	-0.045868	0.749036
H82	H	1.138784	-0.024466	0.876241
H83	H	1.137083	-0.087854	0.803592
H84	H	1.269123	-0.142828	0.842966
H85	H	1.270807	-0.079446	0.915636
H86	H	1.194597	-0.140298	0.915526
C87	C	0.895714	-0.269369	-0.000108
C88	C	0.851094	-0.247306	-0.071564
C89	C	0.763864	-0.278936	-0.071769
H90	H	0.860081	-0.249900	0.048254
H91	H	0.902445	-0.325269	-0.000152
H92	H	0.844358	-0.191418	-0.071513
H93	H	0.886699	-0.266774	-0.119938
H94	H	0.770595	-0.334836	-0.071812
H95	H	0.728240	-0.259465	-0.023404
H96	H	0.733582	-0.263977	-0.120254
C97	C	0.963577	0.229999	0.212828
C98	C	0.909124	0.279316	0.269806
C99	C	0.852571	0.330556	0.226264
H100	H	0.924812	0.200186	0.178738
H101	H	1.000924	0.261129	0.178739
H102	H	0.871781	0.248190	0.303880
H103	H	0.947865	0.309146	0.303897
H104	H	0.889918	0.361686	0.192175
H105	H	0.813812	0.300737	0.192176
H106	H	0.815624	0.364029	0.264917
H107	H	1.183974	0.030510	0.383121
C108	C	1.240815	-0.020957	0.605357
C109	C	1.289299	-0.064857	0.662339
C110	C	1.350412	-0.120237	0.618801
H111	H	1.283152	0.005613	0.571248
H112	H	1.207037	-0.055326	0.571289
H113	H	1.323075	-0.030492	0.696393
H114	H	1.246985	-0.091444	0.696450
H115	H	1.316634	-0.154606	0.584733
H116	H	1.392743	-0.093660	0.584693
H117	H	1.383309	-0.150035	0.657456
H118	H	1.002574	0.194725	0.775637
