data_functionalizedCrystal
_audit_creation_method	'MofGen! by Chris Wilmer'
_symmetry_space_group_name_H-M	'P1'
_symmetry_Int_Tables_number	1
_symmetry_cell_setting	triclinic
loop_
_symmetry_equiv_pos_as_xyz
  x,y,z
_cell_length_a	12.759401
_cell_length_b	18.050590
_cell_length_c	12.759393
_cell_angle_alpha	90.034679
_cell_angle_beta	90.020938
_cell_angle_gamma	90.020077
loop_
_atom_site_label
_atom_site_type_symbol
_atom_site_fract_x
_atom_site_fract_y
_atom_site_fract_z
Zn1	Zn	1.606238	-0.295593	0.593990
Zn2	Zn	1.606118	-0.419801	0.418297
Zn3	Zn	1.430537	-0.295633	0.418325
Zn4	Zn	1.430517	-0.419749	0.593934
O5	O	1.518352	-0.357694	0.506136
O6	O	1.753243	-0.312075	0.570695
O7	O	1.582784	-0.403368	0.271279
O8	O	1.453903	-0.191703	0.441662
O9	O	1.753155	-0.403330	0.441614
O10	O	1.582990	-0.191674	0.570722
O11	O	1.453786	-0.312142	0.271300
O12	O	1.283513	-0.312092	0.441608
O13	O	1.453869	-0.403241	0.740963
O14	O	1.283499	-0.403280	0.570628
O15	O	1.582971	-0.312025	0.741003
O16	O	1.582765	-0.523719	0.441561
O17	O	1.453752	-0.523681	0.570601
C18	C	1.245385	-0.357685	0.506115
C19	C	1.128608	-0.357699	0.506131
C20	C	1.073766	-0.405253	0.573206
C21	C	0.964042	-0.405256	0.573227
C22	C	0.964012	-0.310149	0.439089
C23	C	1.073734	-0.310143	0.439075
C24	C	0.814144	-0.431904	0.697085
C25	C	0.759298	-0.479469	0.764150
C26	C	0.794889	-0.551945	0.780090
C27	C	0.885324	-0.576870	0.728950
C28	C	0.940164	-0.529309	0.661877
C29	C	0.904575	-0.456822	0.645956
C30	C	1.223635	-0.283503	0.315215
C31	C	1.278477	-0.235944	0.248136
C32	C	1.242888	-0.163467	0.232185
C33	C	1.152450	-0.138545	0.283307
C34	C	1.097608	-0.186103	0.350386
C35	C	1.133204	-0.258579	0.366339
C36	C	1.518272	-0.550646	0.506094
C37	C	1.518333	-0.633192	0.506112
C38	C	1.588636	-0.832636	0.436038
C39	C	1.614306	-0.881961	0.531925
C40	C	1.518393	-0.784322	0.506154
C41	C	1.492831	-0.882079	0.410310
C42	C	1.518452	-0.930307	0.506186
C43	C	1.544111	-0.832560	0.602091
C44	C	1.422592	-0.832674	0.480411
C45	C	1.448224	-0.881976	0.576364
C46	C	1.518361	-0.700224	0.506134
C47	C	1.518484	-1.014404	0.506216
C48	C	1.792386	-0.357704	0.506158
C49	C	1.909162	-0.357708	0.506167
C50	C	1.518431	-0.357623	0.780170
C51	C	1.518465	-0.357592	0.896947
C52	C	1.518462	-0.163989	0.506201
C53	C	1.518509	-0.081443	0.506229
C54	C	1.518335	-0.357712	0.233169
C55	C	1.518505	-0.357533	0.116393
C56	C	1.585693	-0.310088	0.951831
C57	C	1.585711	-0.310056	1.061556
C58	C	1.451269	-0.405039	1.061500
C59	C	1.451247	-0.405067	0.951778
C60	C	1.623331	-0.222435	1.211543
C61	C	1.690576	-0.174938	1.266431
C62	C	1.793089	-0.163549	1.230841
C63	C	1.828380	-0.199670	1.140364
C64	C	1.761141	-0.247173	1.085481
C65	C	1.658612	-0.258547	1.121070
C66	C	1.413637	-0.492689	0.801789
C67	C	1.346403	-0.540196	0.746904
C68	C	1.243887	-0.551592	0.782492
C69	C	1.208601	-0.515485	0.872973
C70	C	1.275835	-0.467977	0.927858
C71	C	1.378350	-0.456580	0.892262
H72	H	1.013794	-0.549602	0.620239
H73	H	1.640423	-0.271430	0.907191
H74	H	1.287546	-0.124748	0.177554
C75	C	0.904562	-0.258567	0.366112
C76	C	0.931214	-0.274634	0.262118
C77	C	0.876482	-0.227127	0.194861
H78	H	0.831345	-0.265336	0.375584
H79	H	0.922591	-0.208668	0.381551
H80	H	0.913178	-0.324522	0.246685
H81	H	1.004421	-0.267861	0.252613
H82	H	0.894510	-0.177227	0.210299
H83	H	0.803267	-0.233899	0.204342
H84	H	0.894564	-0.238017	0.124294
H85	H	1.396545	-0.443693	1.106158
C86	C	1.722381	-0.910716	0.561160
C87	C	1.749626	-0.884522	0.660824
C88	C	1.849188	-0.910977	0.687777
H89	H	1.721598	-0.963336	0.561682
H90	H	1.772227	-0.893797	0.511317
H91	H	1.699793	-0.901446	0.710653
H92	H	1.750432	-0.831906	0.660327
H93	H	1.899034	-0.894057	0.637934
H94	H	1.848395	-0.963596	0.688294
H95	H	1.867691	-0.893202	0.755396
C96	C	1.133535	-0.456849	0.645903
C97	C	1.241364	-0.446682	0.631518
C98	C	1.296452	-0.494205	0.698462
H99	H	1.115718	-0.446086	0.716565
H100	H	1.115586	-0.506751	0.630394
H101	H	1.259306	-0.396791	0.647034
H102	H	1.259212	-0.457450	0.560869
H103	H	1.278502	-0.544108	0.682953
H104	H	1.278626	-0.483438	0.769120
H105	H	1.369619	-0.487318	0.688704
H106	H	1.565676	-0.810901	0.683228
H107	H	1.388847	-0.903504	0.635741
H108	H	1.341572	-0.811006	0.458589
H109	H	1.247096	-0.438577	1.001532
C110	C	0.923821	-0.655579	0.746427
C111	C	0.856455	-0.691890	0.816133
C112	C	0.891897	-0.764394	0.832271
H113	H	0.924826	-0.681355	0.681509
H114	H	0.992558	-0.654352	0.775029
H115	H	0.787736	-0.693121	0.787528
H116	H	0.855442	-0.666136	0.881063
H117	H	0.960634	-0.763167	0.860873
H118	H	0.892900	-0.790163	0.767348
H119	H	0.846200	-0.789038	0.879574
H120	H	1.125125	-0.524766	0.901952
H121	H	1.352116	-0.256243	0.206509
H122	H	0.750226	-0.590673	0.834698
C123	C	0.661201	-0.452464	0.819878
C124	C	0.676005	-0.457081	0.928412
C125	C	0.585657	-0.432223	0.979781
H126	H	0.647779	-0.402478	0.800922
H127	H	0.603291	-0.482469	0.800068
H128	H	0.733897	-0.427076	0.948215
H129	H	0.689413	-0.507061	0.947400
H130	H	0.527748	-0.462228	0.959971
H131	H	0.572243	-0.382238	0.960816
H132	H	0.595686	-0.435359	1.053426
H133	H	1.648059	-0.810971	0.376804
H134	H	1.189149	-0.590283	0.737800
H135	H	1.375146	-0.569604	0.673237
H136	H	1.497112	-0.483409	0.772799
H137	H	1.471186	-0.903830	0.329242
C138	C	0.999546	-0.158957	0.406038
C139	C	1.024837	-0.098143	0.469357
C140	C	0.934535	-0.073125	0.520649
H141	H	0.948706	-0.144566	0.355610
H142	H	0.971981	-0.197631	0.448328
H143	H	1.052386	-0.059477	0.427069
H144	H	1.075662	-0.112516	0.519804
H145	H	0.906971	-0.111799	0.562939
H146	H	0.883702	-0.058738	0.470213
H147	H	0.951684	-0.031865	0.563624
H148	H	1.847840	-0.124875	1.275539
C149	C	1.113999	-0.059816	0.265899
C150	C	1.181399	-0.023494	0.196236
C151	C	1.146021	0.049035	0.180180
H152	H	1.045275	-0.060974	0.237295
H153	H	1.113023	-0.034090	0.330872
H154	H	1.182365	-0.049213	0.131275
H155	H	1.250126	-0.022315	0.224821
H156	H	1.145044	0.074760	0.245153
H157	H	1.077297	0.047869	0.151579
H158	H	1.191751	0.073690	0.132920
H159	H	0.785164	-0.372885	0.684123
H160	H	1.252626	-0.342518	0.328207
H161	H	1.789875	-0.276584	1.011819
C162	C	1.939710	-0.187186	1.101868
C163	C	1.991033	-0.137840	1.169281
C164	C	2.093587	-0.126313	1.133840
H165	H	1.976225	-0.233030	1.100811
H166	H	1.937944	-0.166981	1.033153
H167	H	1.992804	-0.158047	1.237978
H168	H	1.954549	-0.091987	1.170346
H169	H	2.091821	-0.106108	1.065125
H170	H	2.130092	-0.172160	1.132785
H171	H	2.128420	-0.092825	1.179569
C172	C	1.652386	-0.135816	1.364783
C173	C	1.715107	-0.156576	1.449897
C174	C	1.679957	-0.120563	1.540519
H175	H	1.656667	-0.083727	1.355131
H176	H	1.581711	-0.149407	1.378183
H177	H	1.785765	-0.142980	1.436500
H178	H	1.710833	-0.208658	1.459582
H179	H	1.609282	-0.134153	1.553919
H180	H	1.684240	-0.068476	1.530857
H181	H	1.722502	-0.134648	1.598281
H182	H	1.539854	-0.231697	1.240524
