data_functionalizedCrystal
_audit_creation_method	'MofGen! by Chris Wilmer'
_symmetry_space_group_name_H-M	'P1'
_symmetry_Int_Tables_number	1
_symmetry_cell_setting	triclinic
loop_
_symmetry_equiv_pos_as_xyz
  x,y,z
_cell_length_a	11.892095
_cell_length_b	8.559649
_cell_length_c	8.559649
_cell_angle_alpha	69.778664
_cell_angle_beta	86.658664
_cell_angle_gamma	93.349364
loop_
_atom_site_label
_atom_site_type_symbol
_atom_site_fract_x
_atom_site_fract_y
_atom_site_fract_z
O1	O	-0.093986	-2.138525	0.066677
O2	O	-0.093990	-1.663040	-0.017104
O3	O	-0.093986	-1.942673	0.262529
O4	O	-0.093990	-1.858892	-0.212956
O5	O	0.094021	-1.919362	0.239246
O6	O	0.094017	-1.639729	-0.040387
O7	O	0.094021	-2.115213	0.043394
Zn8	Zn	0.123869	-1.873770	-0.002193
Zn9	Zn	-0.123838	-1.904484	0.028483
O10	O	0.094018	-1.835581	-0.236239
C11	C	0.000013	-1.591076	-0.035094
C12	C	0.000011	-1.411377	-0.053993
N13	N	0.292923	-1.852821	-0.023127
N14	N	-0.292892	-1.925447	0.049431
C15	C	0.529574	-2.071233	0.195190
C16	C	0.647916	-2.056600	0.180547
C17	C	0.647950	-1.808916	-0.067047
C18	C	0.529609	-1.823549	-0.052404
C19	C	0.470425	-1.954713	0.078717
C20	C	0.352081	-1.969352	0.093352
C21	C	0.352118	-1.721662	-0.154235
C22	C	0.470459	-1.707029	-0.168877
C23	C	0.000015	-1.937367	0.311197
C24	C	0.000009	-1.956267	0.490897
C25	C	0.000016	-2.187178	0.061385
C26	C	0.000010	-2.366878	0.080285
C27	C	0.000014	-1.840887	-0.284906
C28	C	0.000012	-1.821988	-0.464605
H29	H	0.303894	-2.076156	0.200113
H30	H	0.000004	-1.311989	-0.183420
F31	F	0.000005	-1.496771	0.249451
H32	H	0.000015	-1.692569	0.436016
F33	F	0.710863	-2.180614	0.304517
F34	F	0.466585	-2.210840	0.334725
H35	H	0.696154	-1.702116	-0.173794
F36	F	0.000024	-2.125439	0.620796
H37	H	0.518661	-1.600233	-0.275631
H38	H	0.303945	-1.626787	-0.249079
