data_functionalizedCrystal
_audit_creation_method	'MofGen! by Chris Wilmer'
_symmetry_space_group_name_H-M	'P1'
_symmetry_Int_Tables_number	1
_symmetry_cell_setting	triclinic
loop_
_symmetry_equiv_pos_as_xyz
  x,y,z
_cell_length_a	16.120490
_cell_length_b	16.120484
_cell_length_c	16.959455
_cell_angle_alpha	87.117977
_cell_angle_beta	92.897618
_cell_angle_gamma	90.164100
loop_
_atom_site_label
_atom_site_type_symbol
_atom_site_fract_x
_atom_site_fract_y
_atom_site_fract_z
Zn1	Zn	1.254303	-0.395802	0.526140
Zn2	Zn	1.754303	0.104198	1.026140
Zn3	Zn	1.247187	-0.534831	0.400296
Zn4	Zn	1.747187	-0.034831	0.900296
Zn5	Zn	1.115288	-0.388728	0.386963
Zn6	Zn	1.615288	0.111272	0.886963
Zn7	Zn	1.108155	-0.527746	0.525419
Zn8	Zn	1.608155	-0.027746	1.025419
O9	O	1.181233	-0.461777	0.459705
O10	O	1.681233	0.038223	0.959705
O11	O	1.369723	-0.420169	0.515328
O12	O	1.869723	0.079831	1.015328
O13	O	1.229698	-0.515454	0.287917
O14	O	1.729698	-0.015454	0.787917
O15	O	1.139692	-0.273302	0.400146
O16	O	1.639692	0.226698	0.900146
O17	O	1.364495	-0.522314	0.422871
O18	O	1.864495	-0.022314	0.922871
O19	O	1.241825	-0.278499	0.502399
O20	O	1.741825	0.221501	1.002399
O21	O	1.132792	-0.408113	0.278121
O22	O	1.632792	0.091887	0.778121
O23	O	0.997978	-0.401244	0.399448
O24	O	1.497978	0.098756	0.899448
O25	O	1.127535	-0.510239	0.636125
O26	O	1.627535	-0.010239	1.136125
O27	O	0.992738	-0.503380	0.501171
O28	O	1.492738	-0.003380	1.001171
O29	O	1.234909	-0.413300	0.636654
O30	O	1.734909	0.086700	1.136654
O31	O	1.222782	-0.650255	0.422173
O32	O	1.722782	-0.150255	0.922173
O33	O	1.120635	-0.645050	0.514100
O34	O	1.620635	-0.145050	1.014100
C35	C	0.965186	-0.450776	0.448785
C36	C	1.465186	0.049224	0.948785
C37	C	0.872759	-0.446090	0.444133
C38	C	1.372759	0.053910	0.944133
C39	C	0.659776	-0.486078	0.483835
C40	C	1.159776	0.013922	0.983835
C41	C	0.703538	-0.437542	0.435640
C42	C	1.203538	0.062458	0.935640
C43	C	0.797701	-0.442300	0.440367
C44	C	1.297701	0.057700	0.940367
C45	C	0.565605	-0.481321	0.479109
C46	C	1.065605	0.018679	0.979109
C47	C	1.170185	-0.677826	0.469524
C48	C	1.670185	-0.177826	0.969524
C49	C	1.165534	-0.770256	0.473755
C50	C	1.665534	-0.270256	0.973755
C51	C	1.157048	-0.939489	0.481496
C52	C	1.657048	-0.439489	0.981496
C53	C	1.205568	-0.983232	0.437934
C54	C	1.705568	-0.483232	0.937934
C55	C	1.200846	-1.077398	0.442241
C56	C	1.700846	-0.577398	0.942241
C57	C	1.161769	-0.845313	0.477189
C58	C	1.661769	-0.345313	0.977189
C59	C	1.398124	-0.472821	0.470667
C60	C	1.898124	0.027179	0.970667
C61	C	1.490550	-0.477527	0.475339
C62	C	1.990550	0.022473	0.975339
C63	C	1.181220	-0.461768	0.665872
C64	C	1.681220	0.038232	1.165872
C65	C	1.181214	-0.461765	0.753728
C66	C	1.681214	0.038235	1.253728
C67	C	1.192348	-0.244885	0.449866
C68	C	1.692348	0.255115	0.949866
C69	C	1.197084	-0.152459	0.445673
C70	C	1.697084	0.347541	0.945673
C71	C	1.125321	-0.512260	1.124932
C72	C	1.625321	-0.012260	1.624932
C73	C	1.237131	-0.411316	1.125478
C74	C	1.737131	0.088684	1.625478
C75	C	1.237128	-0.411309	1.042932
C76	C	1.737128	0.088691	1.542932
C77	C	1.181222	-0.461779	1.001382
C78	C	1.681222	0.038221	1.501382
C79	C	1.125318	-0.512256	1.042378
C80	C	1.625318	-0.012256	1.542378
C81	C	1.293036	-0.360839	1.001930
C82	C	1.793036	0.139161	1.501930
C83	C	1.293037	-0.360831	0.919378
C84	C	1.793037	0.139169	1.419378
C85	C	1.237126	-0.411297	0.877827
C86	C	1.737126	0.088703	1.377827
C87	C	1.181219	-0.461775	0.918828
C88	C	1.681219	0.038225	1.418828
C89	C	1.125313	-0.512245	0.877278
C90	C	1.625313	-0.012245	1.377278
C91	C	1.069402	-0.562720	0.918278
C92	C	1.569402	-0.062720	1.418278
C93	C	1.069408	-0.562722	1.000826
C94	C	1.569408	-0.062722	1.500826
C95	C	1.237121	-0.411295	0.795278
C96	C	1.737121	0.088705	1.295278
C97	C	1.125311	-0.512242	0.794724
C98	C	1.625311	-0.012242	1.294724
C99	C	1.181235	-0.461799	1.254339
C100	C	1.681235	0.038201	1.754339
C101	C	1.181227	-0.461790	1.166482
C102	C	1.681227	0.038210	1.666482
H103	H	1.250652	-0.949959	0.397405
H104	H	1.750652	-0.449959	0.897405
H105	H	1.079797	-0.553352	1.158317
H106	H	1.579797	-0.053352	1.658317
O107	O	1.353334	-0.306413	1.046747
O108	O	1.853334	0.193587	1.546747
H109	H	1.392217	-0.271323	1.004372
H110	H	1.892217	0.228677	1.504372
H111	H	1.023887	-0.603816	0.884437
H112	H	1.523887	-0.103816	1.384437
H113	H	1.079778	-0.553333	0.760899
H114	H	1.579778	-0.053333	1.260899
O115	O	1.009106	-0.617159	1.045044
O116	O	1.509106	-0.117159	1.545044
H117	H	1.018507	-0.608687	1.109426
H118	H	1.518507	-0.108687	1.609426
H119	H	1.282651	-0.370230	1.159313
H120	H	1.782651	0.129770	1.659313
O121	O	1.353333	-0.306391	0.875158
O122	O	1.853333	0.193609	1.375158
H123	H	1.392205	-0.271295	0.917919
H124	H	1.892205	0.228705	1.417919
O125	O	0.703809	-0.545853	0.543192
O126	O	1.203809	-0.045853	1.043192
H127	H	0.687931	-0.530863	0.603789
H128	H	1.187931	-0.030863	1.103789
H129	H	1.282645	-0.370202	0.761900
H130	H	1.782645	0.129798	1.261900
O131	O	1.097315	-0.983550	0.535165
O132	O	1.597315	-0.483550	1.035165
H133	H	1.102926	-1.051668	0.530153
H134	H	1.602926	-0.551668	1.030153
O135	O	0.659491	-0.377777	0.376274
O136	O	1.159491	0.122223	0.876274
H137	H	0.679418	-0.313353	0.387778
H138	H	1.179418	0.186647	0.887778
