data_functionalizedCrystal
_audit_creation_method	'MofGen! by Chris Wilmer'
_symmetry_space_group_name_H-M	'P1'
_symmetry_Int_Tables_number	1
_symmetry_cell_setting	triclinic
loop_
_symmetry_equiv_pos_as_xyz
  x,y,z
_cell_length_a	10.654550
_cell_length_b	10.540539
_cell_length_c	9.130313
_cell_angle_alpha	89.997616
_cell_angle_beta	89.999724
_cell_angle_gamma	84.505211
loop_
_atom_site_label
_atom_site_type_symbol
_atom_site_fract_x
_atom_site_fract_y
_atom_site_fract_z
O1	O	1.667902	0.178301	-0.121682
O2	O	2.167902	0.678301	0.378318
O3	O	1.302430	0.195288	-0.121709
O4	O	1.802430	0.695288	0.378291
O5	O	1.493504	0.002085	-0.121693
O6	O	1.993504	0.502085	0.378307
O7	O	1.476828	0.371504	-0.121698
O8	O	1.976828	0.871504	0.378302
O9	O	1.493491	0.002079	0.121906
O10	O	1.993491	0.502079	0.621906
O11	O	1.302416	0.195282	0.121890
O12	O	1.802416	0.695282	0.621890
O13	O	1.667889	0.178295	0.121916
O14	O	2.167889	0.678295	0.621916
Cu15	Cu	1.485152	0.186788	0.144146
Cu16	Cu	1.985152	0.686788	0.644146
Cu17	Cu	1.485167	0.186795	-0.143938
Cu18	Cu	1.985167	0.686795	0.356062
O19	O	1.476815	0.371498	0.121901
O20	O	1.976815	0.871498	0.621901
C21	C	1.255625	0.194038	0.000087
C22	C	1.755625	0.694038	0.500087
C23	C	1.116180	0.190306	0.000077
C24	C	1.616180	0.690306	0.500077
C25	C	1.036735	0.304061	0.000080
C26	C	1.536735	0.804061	0.500080
C27	C	0.905712	0.300547	0.000105
C28	C	1.405712	0.800547	0.500105
C29	C	0.933594	0.069513	0.000119
C30	C	1.433594	0.569513	0.500119
C31	C	1.064614	0.073029	0.000104
C32	C	1.564614	0.573029	0.500104
C33	C	1.492247	-0.045221	0.000104
C34	C	1.992247	0.454779	0.500104
C35	C	1.488505	-0.186167	0.000095
C36	C	1.988505	0.313833	0.500095
C37	C	1.345134	-0.369543	-0.000462
C38	C	1.845134	0.130457	0.499538
C39	C	1.348927	-0.222926	0.000087
C40	C	1.848927	0.277074	0.500087
C41	C	1.555669	-0.247852	0.139207
C42	C	2.055669	0.252148	0.639207
C43	C	1.550905	-0.394395	0.139324
C44	C	2.050905	0.105605	0.639324
C45	C	1.553759	-0.394908	-0.137693
C46	C	2.053759	0.105092	0.362307
C47	C	1.555045	-0.247926	-0.139532
C48	C	2.055045	0.252074	0.360468
C49	C	1.714694	0.179545	0.000117
C50	C	2.214694	0.679545	0.500117
C51	C	1.854139	0.183277	0.000118
C52	C	2.354139	0.683277	0.500118
C53	C	1.478072	0.418804	0.000101
C54	C	1.978072	0.918804	0.500101
C55	C	1.481813	0.559750	0.000099
C56	C	1.981813	1.059750	0.500099
N57	N	1.485150	0.186783	0.346768
N58	N	1.985150	0.686783	0.846768
N59	N	1.485179	0.186790	-0.346561
N60	N	1.985179	0.686790	0.153439
C61	C	1.569786	0.101269	0.423427
C62	C	2.069786	0.601269	0.923427
C63	C	1.569798	0.101269	0.576764
C64	C	2.069798	0.601269	1.076764
C65	C	1.400533	0.272308	0.576770
C66	C	1.900533	0.772308	1.076770
C67	C	1.400516	0.272301	0.423436
C68	C	1.900516	0.772301	0.923436
H69	H	0.891593	-0.025970	0.000150
H70	H	1.391593	0.474030	0.500150
F71	F	1.279850	-0.167208	-0.130255
F72	F	1.779850	0.332792	0.369745
F73	F	1.310425	0.363316	0.341844
F74	F	1.810425	0.863316	0.841844
H75	H	1.509003	-0.205238	0.242723
H76	H	2.009003	0.294762	0.742723
F77	F	1.091611	0.428878	0.000057
F78	F	1.591611	0.928878	0.500057
H79	H	1.508590	-0.426442	-0.243131
H80	H	2.008590	0.073558	0.256869
F81	F	1.149172	-0.048052	0.000111
F82	F	1.649172	0.451948	0.500111
H83	H	1.290216	-0.399733	0.098732
H84	H	1.790216	0.100267	0.598732
F85	F	1.659877	0.010251	0.658345
F86	F	2.159877	0.510251	1.158345
H87	H	1.505902	-0.207048	-0.242443
H88	H	2.005902	0.292952	0.257557
H89	H	1.331628	0.341937	0.639208
H90	H	1.831628	0.841937	1.139208
F91	F	1.688057	-0.216309	-0.150512
F92	F	2.188057	0.283691	0.349488
F93	F	1.682109	-0.457145	0.147597
F94	F	2.182109	0.042855	0.647597
H95	H	0.841032	0.393178	0.000111
H96	H	1.341032	0.893178	0.500111
H97	H	1.295697	-0.181153	0.099967
H98	H	1.795697	0.318847	0.599967
H99	H	1.290003	-0.398120	-0.100221
H100	H	1.790003	0.101880	0.399779
F101	F	1.659858	0.010249	0.341838
F102	F	2.159858	0.510249	0.841838
H103	H	1.501257	-0.422579	0.243306
H104	H	2.001257	0.077421	0.743306
F105	F	1.685533	-0.456684	-0.138910
F106	F	2.185533	0.043316	0.361090
F107	F	1.689648	-0.218685	0.145982
F108	F	2.189648	0.281315	0.645982
