data_functionalizedCrystal
_audit_creation_method	'MofGen! by Chris Wilmer'
_symmetry_space_group_name_H-M	'P1'
_symmetry_Int_Tables_number	1
_symmetry_cell_setting	triclinic
loop_
_symmetry_equiv_pos_as_xyz
  x,y,z
_cell_length_a	12.645331
_cell_length_b	12.594516
_cell_length_c	12.645323
_cell_angle_alpha	89.976054
_cell_angle_beta	89.977324
_cell_angle_gamma	90.015032
loop_
_atom_site_label
_atom_site_type_symbol
_atom_site_fract_x
_atom_site_fract_y
_atom_site_fract_z
Zn1	Zn	1.620743	-0.423763	-0.599453
Zn2	Zn	1.620630	-0.601766	-0.422196
Zn3	Zn	1.443458	-0.423799	-0.422197
Zn4	Zn	1.443445	-0.601696	-0.599411
O5	O	1.532069	-0.512756	-0.510814
O6	O	1.769076	-0.447389	-0.575956
O7	O	1.597086	-0.578202	-0.273849
O8	O	1.467028	-0.274848	-0.445729
O9	O	1.768992	-0.578167	-0.445726
O10	O	1.597279	-0.274822	-0.575958
O11	O	1.466918	-0.447451	-0.273850
O12	O	1.295109	-0.447383	-0.445688
O13	O	1.467006	-0.578049	-0.747764
O14	O	1.295099	-0.578084	-0.575887
O15	O	1.597266	-0.447322	-0.747795
O16	O	1.597073	-0.750702	-0.445686
O17	O	1.466896	-0.750651	-0.575885
C18	C	1.256639	-0.512731	-0.510784
C19	C	1.138809	-0.512745	-0.510796
C20	C	0.971216	-0.430143	-0.429340
C21	C	1.093776	-0.430357	-0.428981
C22	C	1.094292	-0.624870	-0.480283
C23	C	0.971694	-0.624419	-0.479727
C24	C	0.971659	-0.484290	-0.623079
C25	C	1.094265	-0.481785	-0.622456
C26	C	1.532000	-0.789297	-0.510804
C27	C	1.532067	-0.907602	-0.510835
C28	C	1.461256	-0.976866	-0.581601
C29	C	1.435425	-1.047727	-0.484868
C30	C	1.557995	-1.047540	-0.607584
C31	C	1.506184	-0.976905	-0.414051
C32	C	1.628799	-0.976712	-0.536833
C33	C	1.603004	-1.047541	-0.440033
C34	C	1.808574	-0.512782	-0.510846
C35	C	1.926404	-0.512793	-0.510859
C36	C	1.532147	-0.512674	-0.787320
C37	C	1.532180	-0.512639	-0.905150
C38	C	1.532168	-0.235135	-0.510848
C39	C	1.532210	-0.116830	-0.510862
C40	C	1.449981	-0.594491	-1.072695
C41	C	1.450196	-0.594897	-0.950135
C42	C	1.643881	-0.543081	-0.949670
C43	C	1.643430	-0.543595	-1.072269
C44	C	1.503736	-0.399885	-1.072346
C45	C	1.501244	-0.400561	-0.949740
C46	C	1.532052	-0.512761	-0.235385
C47	C	1.532224	-0.512496	-0.117555
H48	H	1.123874	-0.347212	-0.448106
C49	C	0.931404	-0.317478	-0.454894
N50	N	0.901409	-0.232615	-0.474142
H51	H	0.940369	-0.448774	-0.346669
C52	C	1.135674	-0.557185	-0.708900
N53	N	1.166861	-0.613987	-0.774006
H54	H	0.940760	-0.403956	-0.650830
H55	H	1.401267	-0.945833	-0.641358
C56	C	1.135696	-0.658083	-0.370637
N57	N	1.166877	-0.683093	-0.288047
C58	C	1.584663	-0.317357	-1.111537
N59	N	1.645621	-0.255205	-1.141059
H60	H	1.706802	-0.485249	-0.920534
C61	C	0.932993	-0.657061	-0.368893
N62	N	0.903849	-0.681642	-0.285408
C63	C	1.729036	-0.466436	-1.112365
N64	N	1.793520	-0.408328	-1.142560
C65	C	1.395606	-0.362403	-1.114084
N66	N	1.314158	-0.334184	-1.145520
H67	H	1.662947	-1.078377	-0.380132
H68	H	1.579868	-1.078568	-0.689393
C69	C	0.931645	-0.710432	-0.556435
N70	N	0.901484	-0.775220	-0.614206
H71	H	1.123463	-0.688096	-0.537794
C72	C	0.932507	-0.565611	-0.705137
N73	N	0.903010	-0.626864	-0.766934
C74	C	1.338297	-0.569157	-0.909465
N75	N	1.254009	-0.549774	-0.878838
H76	H	1.353687	-1.078944	-0.462901
C77	C	1.133566	-0.370309	-0.653535
N78	N	1.163170	-0.286343	-0.676939
H79	H	1.484217	-0.946006	-0.332220
C80	C	1.739190	-0.934521	-0.566581
N81	N	1.822334	-0.902734	-0.589003
C82	C	1.337744	-0.568998	-1.112502
N83	N	1.253205	-0.549794	-1.142492
C84	C	1.475149	-0.706574	-1.114315
N85	N	1.494114	-0.790995	-1.145659
H86	H	1.123054	-0.449196	-0.345821
H87	H	1.469003	-0.678380	-0.920822
H88	H	1.667577	-0.625916	-1.100881
C89	C	1.576242	-0.313659	-0.908351
N90	N	1.632733	-0.248206	-0.877171
C91	C	1.677061	-0.653132	-0.908222
N92	N	1.702045	-0.736025	-0.877005
C93	C	1.390214	-0.369519	-0.910384
N94	N	1.306594	-0.346132	-0.880720
