data_functionalizedCrystal
_audit_creation_method	'MofGen! by Chris Wilmer'
_symmetry_space_group_name_H-M	'P1'
_symmetry_Int_Tables_number	1
_symmetry_cell_setting	triclinic
loop_
_symmetry_equiv_pos_as_xyz
  x,y,z
_cell_length_a	14.853566
_cell_length_b	13.330367
_cell_length_c	9.065218
_cell_angle_alpha	89.997251
_cell_angle_beta	95.674850
_cell_angle_gamma	90.004705
loop_
_atom_site_label
_atom_site_type_symbol
_atom_site_fract_x
_atom_site_fract_y
_atom_site_fract_z
O1	O	1.197795	0.083353	-0.192606
O2	O	1.697795	0.583353	0.307394
O3	O	0.935505	0.083369	-0.215553
O4	O	1.435505	0.583369	0.284447
O5	O	1.072071	0.083359	0.010670
O6	O	1.572071	0.583359	0.510670
O7	O	1.061228	0.083363	-0.418830
O8	O	1.561228	0.583363	0.081170
O9	O	1.072051	-0.083488	0.010675
O10	O	1.572051	0.416512	0.510675
O11	O	0.935485	-0.083478	-0.215548
O12	O	1.435485	0.416522	0.284452
O13	O	1.197775	-0.083494	-0.192601
O14	O	1.697775	0.416506	0.307399
Cu15	Cu	1.066628	-0.098721	-0.204074
Cu16	Cu	1.566628	0.401279	0.295926
Cu17	Cu	1.066652	0.098596	-0.204080
Cu18	Cu	1.566652	0.598596	0.295920
O19	O	1.061208	-0.083484	-0.418825
O20	O	1.561208	0.416516	0.081175
C21	C	0.901899	-0.000052	-0.214511
C22	C	1.401899	0.499948	0.285489
C23	C	0.801792	-0.000046	-0.211397
C24	C	1.301792	0.499954	0.288603
C25	C	0.378520	0.090884	-0.198225
C26	C	0.878520	0.590884	0.301775
C27	C	0.378520	-0.091019	-0.198220
C28	C	0.878520	0.408981	0.301780
C29	C	0.472576	-0.091016	-0.201145
C30	C	0.972576	0.408984	0.298855
C31	C	0.519608	-0.000061	-0.202612
C32	C	1.019608	0.499939	0.297388
C33	C	0.472584	0.090890	-0.201155
C34	C	0.972584	0.590890	0.298845
C35	C	0.519605	-0.181965	-0.202618
C36	C	1.019605	0.318035	0.297382
C37	C	0.613666	-0.181966	-0.205545
C38	C	1.113666	0.318034	0.294455
C39	C	0.660701	-0.091010	-0.207002
C40	C	1.160701	0.408990	0.292998
C41	C	0.613672	-0.000055	-0.205542
C42	C	1.113672	0.499945	0.294458
C43	C	0.660704	0.090899	-0.207009
C44	C	1.160704	0.590899	0.292991
C45	C	0.613678	0.181856	-0.205539
C46	C	1.113678	0.681856	0.294461
C47	C	0.519619	0.181846	-0.202611
C48	C	1.019619	0.681846	0.297389
C49	C	0.754759	-0.091001	-0.209930
C50	C	1.254759	0.408999	0.290070
C51	C	0.754768	0.090905	-0.209939
C52	C	1.254768	0.590905	0.290061
N53	N	1.066618	-0.237502	-0.204069
N54	N	1.566618	0.262498	0.295931
C55	C	1.006177	-0.710120	-0.304213
C56	C	1.506177	-0.210120	0.195787
C57	C	1.127151	-0.710098	-0.103936
C58	C	1.627151	-0.210098	0.396064
C59	C	1.127140	-0.605079	-0.103932
C60	C	1.627140	-0.105079	0.396068
C61	C	1.066649	-0.552577	-0.204071
C62	C	1.566649	-0.052577	0.295929
C63	C	1.006167	-0.605092	-0.304214
C64	C	1.506167	-0.105092	0.195786
C65	C	1.187627	-0.552556	-0.003800
C66	C	1.687627	-0.052556	0.496200
C67	C	1.187620	-0.447531	-0.003793
C68	C	1.687620	0.052469	0.496207
C69	C	1.127123	-0.395026	-0.103926
C70	C	1.627123	0.104974	0.396074
C71	C	1.066638	-0.447548	-0.204072
C72	C	1.566638	0.052452	0.295928
C73	C	1.006147	-0.395046	-0.304211
C74	C	1.506147	0.104954	0.195789
C75	C	0.945657	-0.447566	-0.404351
C76	C	1.445657	0.052434	0.095649
C77	C	0.945670	-0.552588	-0.404347
C78	C	1.445670	-0.052588	0.095653
C79	C	1.127110	-0.290005	-0.103930
C80	C	1.627110	0.209995	0.396070
C81	C	1.006136	-0.290018	-0.304213
C82	C	1.506136	0.209982	0.195787
C83	C	1.231381	-0.000070	-0.193643
C84	C	1.731381	0.499930	0.306357
C85	C	1.331488	-0.000070	-0.196758
C86	C	1.831488	0.499930	0.303242
C87	C	1.071019	-0.000063	0.065639
C88	C	1.571019	0.499937	0.565639
C89	C	1.067903	-0.000058	0.229420
C90	C	1.567903	0.499942	0.729420
N91	N	1.066669	0.237377	-0.204074
N92	N	1.566669	0.737377	0.295926
C93	C	1.062260	-0.000060	-0.473793
C94	C	1.562260	0.499940	0.026207
C95	C	1.065376	-0.000058	-0.637574
C96	C	1.565376	0.499942	-0.137574
H97	H	0.651983	0.255911	-0.206744
H98	H	1.151983	0.755911	0.293256
F99	F	1.251995	-0.391642	0.102785
F100	F	1.751995	0.108358	0.602785
H101	H	1.176406	-0.752849	-0.022413
H102	H	1.676406	-0.252849	0.477587
F103	F	0.941799	-0.766014	-0.410780
F104	F	1.441799	-0.266014	0.089220
F105	F	0.881299	-0.608487	-0.510919
F106	F	1.381299	-0.108487	-0.010919
H107	H	0.793056	0.164973	-0.211129
H108	H	1.293056	0.664973	0.288871
F109	F	0.881284	-0.391678	-0.510932
F110	F	1.381284	0.108322	-0.010932
H111	H	1.236882	-0.595307	0.077723
H112	H	1.736882	-0.095307	0.577723
F113	F	1.191488	-0.234115	0.002631
F114	F	1.691488	0.265885	0.502631
H115	H	0.481322	0.255898	-0.201412
H116	H	0.981322	0.755898	0.298588
F117	F	0.328475	0.187682	-0.196625
F118	F	0.828475	0.687682	0.303375
F119	F	0.469544	-0.278758	-0.201073
F120	F	0.969544	0.221242	0.298927
F121	F	0.328461	-0.187813	-0.196674
F122	F	0.828461	0.312187	0.303326
H123	H	0.651948	-0.256028	-0.206739
H124	H	1.151948	0.243972	0.293261
H125	H	0.793043	-0.165056	-0.211141
H126	H	1.293043	0.334944	0.288859
H127	H	0.956873	-0.247276	-0.385753
H128	H	1.456873	0.252724	0.114247
