data_functionalizedCrystal
_audit_creation_method	'MofGen! by Chris Wilmer'
_symmetry_space_group_name_H-M	'P1'
_symmetry_Int_Tables_number	1
_symmetry_cell_setting	triclinic
loop_
_symmetry_equiv_pos_as_xyz
  x,y,z
_cell_length_a	19.077105
_cell_length_b	13.032721
_cell_length_c	19.077271
_cell_angle_alpha	80.848327
_cell_angle_beta	89.912562
_cell_angle_gamma	95.201395
loop_
_atom_site_label
_atom_site_type_symbol
_atom_site_fract_x
_atom_site_fract_y
_atom_site_fract_z
Zn1	Zn	1.013292	-0.505542	0.481843
Zn2	Zn	1.346625	-0.172209	0.815177
Zn3	Zn	1.679958	0.161124	1.148510
Zn4	Zn	1.003041	-0.673461	0.378098
Zn5	Zn	1.336374	-0.340127	0.711432
Zn6	Zn	1.669707	-0.006794	1.044765
Zn7	Zn	0.901779	-0.491502	0.358487
Zn8	Zn	1.235113	-0.158169	0.691820
Zn9	Zn	1.568446	0.175165	1.025154
Zn10	Zn	0.880894	-0.672874	0.490802
Zn11	Zn	1.214227	-0.339540	0.824135
Zn12	Zn	1.547560	-0.006207	1.157469
O13	O	0.949751	-0.585845	0.427308
O14	O	1.283085	-0.252511	0.760641
O15	O	1.616418	0.080822	1.093974
O16	O	1.109719	-0.533939	0.472540
O17	O	1.443053	-0.200606	0.805873
O18	O	1.776386	0.132728	1.139206
O19	O	0.994059	-0.643693	0.276705
O20	O	1.327392	-0.310360	0.610038
O21	O	1.660725	0.022973	0.943372
O22	O	0.929602	-0.347186	0.362894
O23	O	1.262936	-0.013852	0.696227
O24	O	1.596269	0.319481	1.029561
O25	O	1.102188	-0.657308	0.396319
O26	O	1.435521	-0.323974	0.729652
O27	O	1.768855	0.009359	1.062985
O28	O	1.011530	-0.357501	0.453523
O29	O	1.344863	-0.024168	0.786857
O30	O	1.678197	0.309166	1.120190
O31	O	0.919662	-0.510009	0.262297
O32	O	1.252996	-0.176676	0.595630
O33	O	1.586329	0.156658	0.928963
O34	O	0.801221	-0.509440	0.371581
O35	O	1.134555	-0.176106	0.704914
O36	O	1.467888	0.157227	1.038247
O37	O	0.894006	-0.656307	0.588405
O38	O	1.227339	-0.322974	0.921739
O39	O	1.560673	0.010360	1.255072
O40	O	0.785877	-0.642693	0.468792
O41	O	1.119210	-0.309359	0.802125
O42	O	1.452544	0.023974	1.135459
O43	O	0.991278	-0.533370	0.581824
O44	O	1.324612	-0.200036	0.915157
O45	O	1.657945	0.133297	1.248490
O46	O	0.973807	-0.819562	0.405005
O47	O	1.307140	-0.486229	0.738339
O48	O	1.640474	-0.152895	1.071672
O49	O	0.884066	-0.819131	0.487808
O50	O	1.217399	-0.485797	0.821141
O51	O	1.550733	-0.152464	1.154475
C52	C	0.768194	-0.574480	0.419031
C53	C	1.101527	-0.241146	0.752364
C54	C	1.434860	0.092187	1.085698
C55	C	0.690520	-0.569644	0.415509
C56	C	1.023853	-0.236310	0.748842
C57	C	1.357186	0.097023	1.082175
C58	C	0.646052	-0.636846	0.464404
C59	C	0.979385	-0.303513	0.797737
C60	C	1.312719	0.029821	1.131071
C61	C	0.573070	-0.632289	0.461097
C62	C	0.906403	-0.298955	0.794430
C63	C	1.239737	0.034378	1.127764
C64	C	0.544557	-0.560533	0.408891
C65	C	0.877890	-0.227200	0.742224
C66	C	1.211223	0.106134	1.075558
C67	C	0.589030	-0.493324	0.359993
C68	C	0.922364	-0.159990	0.693327
C69	C	1.255697	0.173343	1.026660
C70	C	0.662011	-0.497877	0.363304
C71	C	0.995345	-0.164543	0.696637
C72	C	1.328678	0.168790	1.029971
C73	C	0.327143	-0.539461	0.393572
C74	C	0.660477	-0.206128	0.726905
C75	C	0.993810	0.127206	1.060238
C76	C	0.254157	-0.534915	0.390263
C77	C	0.587490	-0.201582	0.723596
C78	C	0.920823	0.131752	1.056930
C79	C	0.238201	-0.673879	0.491368
C80	C	0.571534	-0.340546	0.824701
C81	C	0.904868	-0.007213	1.158035
C82	C	0.311184	-0.678430	0.494671
C83	C	0.644517	-0.345097	0.828005
C84	C	0.977851	-0.011764	1.161338
C85	C	0.355651	-0.611217	0.445776
C86	C	0.688985	-0.277884	0.779110
C87	C	1.022318	0.055450	1.112443
N88	N	0.469957	-0.555875	0.405508
N89	N	0.803291	-0.222542	0.738841
N90	N	1.136624	0.110791	1.072175
N91	N	0.430250	-0.615871	0.449163
N92	N	0.763583	-0.282537	0.782496
N93	N	1.096916	0.050796	1.115830
C94	C	0.925576	-0.857251	0.449523
C95	C	1.258909	-0.523918	0.782857
C96	C	1.592243	-0.190584	1.116190
C97	C	0.915297	-0.973365	0.459054
C98	C	1.248630	-0.640032	0.792387
C99	C	1.581963	-0.306698	1.125720
C100	C	0.955152	-1.025315	0.422367
C101	C	1.288485	-0.691982	0.755700
C102	C	1.621819	-0.358649	1.089034
C103	C	0.944529	-1.145325	0.432216
C104	C	1.277862	-0.811992	0.765550
C105	C	1.611195	-0.478659	1.098883
C106	C	1.132018	-0.597255	0.435617
C107	C	1.465351	-0.263922	0.768951
C108	C	1.798684	0.069412	1.102284
C109	C	1.209689	-0.602117	0.439158
C110	C	1.543022	-0.268784	0.772492
C111	C	1.876356	0.064549	1.105825
C112	C	0.941456	-0.596339	0.611446
C113	C	1.274789	-0.263006	0.944780
C114	C	1.608123	0.070328	1.278113
C115	C	0.937921	-0.600811	0.689915
C116	C	1.271254	-0.267478	1.023249
C117	C	1.604588	0.065856	1.356582
C118	C	0.974039	-0.313381	0.405022
C119	C	1.307373	0.019952	0.738355
C120	C	1.640706	0.353286	1.071688
C121	C	0.984389	-0.197273	0.395525
C122	C	1.317723	0.136060	0.728858
C123	C	1.651056	0.469394	1.062191
C124	C	0.986902	-0.538908	0.723355
C125	C	1.320235	-0.205575	1.056688
C126	C	1.653569	0.127759	1.390021
C127	C	0.983572	-0.543105	0.797084
C128	C	1.316906	-0.209772	1.130417
C129	C	1.650239	0.123561	1.463751
C130	C	0.931264	-0.609212	0.837373
C131	C	1.264597	-0.275879	1.170706
C132	C	1.597931	0.057455	1.504040
C133	C	0.882278	-0.671117	0.803929
C134	C	1.215611	-0.337784	1.137262
C135	C	1.548945	-0.004451	1.470595
C136	C	0.885605	-0.666914	0.730200
C137	C	1.218938	-0.333581	1.063533
C138	C	1.552272	-0.000247	1.396867
C139	C	0.915880	-0.628642	1.058245
C140	C	1.249213	-0.295309	1.391578
C141	C	1.582546	0.038024	1.724911
C142	C	0.912558	-0.632843	1.131978
C143	C	1.245891	-0.299510	1.465312
C144	C	1.579224	0.033823	1.798645
C145	C	1.013852	-0.504829	1.125128
C146	C	1.347185	-0.171496	1.458462
C147	C	1.680518	0.161837	1.791795
C148	C	1.017177	-0.500636	1.051399
C149	C	1.350510	-0.167303	1.384733
C150	C	1.683843	0.166030	1.718066
C151	C	0.968188	-0.562537	1.017961
C152	C	1.301522	-0.229204	1.351294
C153	C	1.634855	0.104129	1.684627
N154	N	0.927861	-0.613506	0.912736
N155	N	1.261194	-0.280173	1.246070
N156	N	1.594527	0.053160	1.579403
N157	N	0.971589	-0.558237	0.942598
N158	N	1.304923	-0.224904	1.275931
N159	N	1.638256	0.108430	1.609265
C160	C	0.958006	-0.575414	1.243887
C161	C	1.291340	-0.242081	1.577220
C162	C	1.624673	0.091253	1.910553
C163	C	0.961539	-0.570940	1.165418
C164	C	1.294872	-0.237607	1.498751
C165	C	1.628205	0.095726	1.832084
H166	H	0.536866	-0.687013	0.500912
H167	H	0.870200	-0.353680	0.834245
H168	H	1.203533	-0.020346	1.167579
H169	H	0.334393	-0.736864	0.537182
H170	H	0.667727	-0.403530	0.870515
H171	H	1.001060	-0.070197	1.203848
F172	F	0.676390	-0.713224	0.519966
F173	F	1.009724	-0.379891	0.853300
F174	F	1.343057	-0.046557	1.186633
F175	F	0.889649	-1.203311	0.482808
F176	F	1.222982	-0.869978	0.816142
F177	F	1.556315	-0.536645	1.149475
H178	H	0.839685	-0.724939	0.836737
H179	H	1.173018	-0.391606	1.170071
H180	H	1.506352	-0.058272	1.503404
H181	H	0.201988	-0.728599	0.531177
H182	H	0.535322	-0.395266	0.864510
H183	H	0.868655	-0.061932	1.197843
F184	F	1.039276	-1.139290	0.344940
F185	F	1.372610	-0.805957	0.678273
F186	F	1.705943	-0.472623	1.011606
F187	F	1.010036	-0.967326	0.371786
F188	F	1.343370	-0.633993	0.705119
F189	F	1.676703	-0.300660	1.038453
H190	H	0.873313	-1.017736	0.497757
H191	H	1.206646	-0.684402	0.831090
H192	H	1.539980	-0.351069	1.164423
H193	H	1.029499	-0.485080	0.690557
H194	H	1.362832	-0.151747	1.023890
H195	H	1.696166	0.181587	1.357223
H196	H	0.230945	-0.476471	0.347754
H197	H	0.564279	-0.143138	0.681087
H198	H	0.897612	0.190195	1.014421
H199	H	0.363340	-0.484739	0.353753
H200	H	0.696673	-0.151405	0.687086
H201	H	1.030007	0.181928	1.020419
H202	H	1.023459	-0.492700	0.824307
H203	H	1.356793	-0.159366	1.157640
H204	H	1.690126	0.173967	1.490974
F205	F	0.558683	-0.416949	0.304435
F206	F	0.892017	-0.083616	0.637769
F207	F	1.225350	0.249717	0.971102
F208	F	0.709338	-0.426349	0.311264
F209	F	1.042671	-0.093015	0.644598
F210	F	1.376004	0.240318	0.977931
H211	H	1.053734	-0.454431	1.152362
H212	H	1.387068	-0.121098	1.485695
H213	H	1.720401	0.212235	1.819029
H214	H	0.869959	-0.686678	1.164780
H215	H	1.203293	-0.353345	1.498114
H216	H	1.536626	-0.020011	1.831447
F217	F	1.072851	-0.430277	1.008526
F218	F	1.406184	-0.096944	1.341859
F219	F	1.739517	0.236390	1.675192
F220	F	0.863742	-0.694524	1.022666
F221	F	1.197075	-0.361190	1.356000
F222	F	1.530408	-0.027857	1.689333
H223	H	0.845713	-0.717311	0.702974
H224	H	1.179047	-0.383978	1.036307
H225	H	1.512380	-0.050644	1.369641
