data_functionalizedCrystal
_audit_creation_method	'MofGen! by Chris Wilmer'
_symmetry_space_group_name_H-M	'P1'
_symmetry_Int_Tables_number	1
_symmetry_cell_setting	triclinic
loop_
_symmetry_equiv_pos_as_xyz
  x,y,z
_cell_length_a	11.026607
_cell_length_b	19.188925
_cell_length_c	9.482900
_cell_angle_alpha	99.302789
_cell_angle_beta	78.636152
_cell_angle_gamma	95.864283
loop_
_atom_site_label
_atom_site_type_symbol
_atom_site_fract_x
_atom_site_fract_y
_atom_site_fract_z
O1	O	1.627563	0.283625	-0.120901
O2	O	2.127563	0.783625	0.379099
O3	O	1.274435	0.250355	-0.120902
O4	O	1.774435	0.750355	0.379098
O5	O	1.461191	0.166634	-0.120893
O6	O	1.961191	0.666634	0.379107
O7	O	1.440806	0.367347	-0.120910
O8	O	1.940806	0.867347	0.379090
O9	O	1.423256	0.183727	0.120897
O10	O	1.923256	0.683727	0.620897
O11	O	1.236500	0.267448	0.120889
O12	O	1.736500	0.767448	0.620889
O13	O	1.589628	0.300718	0.120890
O14	O	2.089628	0.800718	0.620890
Cu15	Cu	1.409600	0.285644	0.142967
Cu16	Cu	1.909600	0.785644	0.642967
Cu17	Cu	1.454463	0.265430	-0.142979
Cu18	Cu	1.954463	0.765430	0.357021
O19	O	1.402871	0.384440	0.120881
O20	O	1.902871	0.884440	0.620881
C21	C	1.210289	0.252764	-0.000007
C22	C	1.710289	0.752764	0.499993
C23	C	1.075673	0.234467	-0.000007
C24	C	1.575673	0.734467	0.499993
C25	C	1.441565	0.149086	0.000001
C26	C	1.941565	0.649086	0.500001
C27	C	1.439587	0.071328	-0.000002
C28	C	1.939587	0.571328	0.499998
C29	C	1.001598	0.284987	-0.000012
C30	C	1.501598	0.784987	0.499988
C31	C	0.862465	0.266078	-0.000013
C32	C	1.362465	0.766078	0.499987
C33	C	1.535927	-0.478167	-0.000038
C34	C	2.035927	0.021833	0.499962
C35	C	1.537795	-0.405105	-0.000025
C36	C	2.037795	0.094895	0.499975
C37	C	1.428211	-0.374136	-0.000026
C38	C	1.928211	0.125864	0.499974
C39	C	1.316746	-0.416234	-0.000003
C40	C	1.816746	0.083766	0.499997
C41	C	1.314879	-0.489293	-0.000001
C42	C	1.814879	0.010707	0.499999
N43	N	1.361789	-0.269384	-0.082325
N44	N	1.861789	0.230616	0.417675
N45	N	1.363571	-0.199980	-0.082330
N46	N	1.863571	0.300020	0.417670
C47	C	1.433829	-0.154011	-0.000027
C48	C	1.933829	0.345989	0.499973
N49	N	1.502259	-0.180068	0.082262
N50	N	2.002259	0.319932	0.582262
N51	N	1.500482	-0.249479	0.082260
N52	N	2.000482	0.250521	0.582260
C53	C	1.430223	-0.294916	-0.000027
C54	C	1.930223	0.205084	0.499973
C55	C	1.547310	-0.032699	-0.000026
C56	C	2.047310	0.467301	0.499974
C57	C	1.549172	0.040365	-0.000003
C58	C	2.049172	0.540365	0.499997
C59	C	1.328122	0.029233	0.000004
C60	C	1.828122	0.529233	0.500004
C61	C	1.326261	-0.043828	-0.000003
C62	C	1.826261	0.456172	0.499997
C63	C	1.435860	-0.074791	-0.000025
C64	C	1.935860	0.425209	0.499975
C65	C	1.653774	0.298309	-0.000009
C66	C	2.153774	0.798309	0.499991
C67	C	1.788392	0.316605	-0.000018
C68	C	2.288392	0.816605	0.499982
C69	C	1.422498	0.401988	-0.000017
C70	C	1.922498	0.901988	0.499983
C71	C	1.424478	0.479744	-0.000023
C72	C	1.924478	0.979744	0.499977
N73	N	1.378055	0.299862	0.344085
N74	N	1.878055	0.799862	0.844085
N75	N	1.486017	0.251207	-0.344098
N76	N	1.986017	0.751207	0.155902
C77	C	1.445150	0.269619	0.416288
C78	C	1.945150	0.769619	0.916288
C79	C	1.418913	0.281455	0.583704
C80	C	1.918913	0.781455	1.083704
H81	H	1.041183	0.342239	-0.000009
H82	H	1.541183	0.842239	0.499991
Br83	Br	1.163614	-0.546418	0.000020
Br84	Br	1.663614	-0.046418	0.500020
Br85	Br	1.290777	0.339215	0.687233
Br86	Br	1.790777	0.839215	1.187233
H87	H	1.562884	0.216546	0.593782
H88	H	2.062884	0.716546	1.093782
Br89	Br	1.009705	0.139043	0.000017
Br90	Br	1.509705	0.639043	0.500017
Br91	Br	1.168022	-0.374206	0.000010
Br92	Br	1.668022	0.125794	0.500010
Br93	Br	1.572964	0.211641	0.312753
Br94	Br	2.072964	0.711641	0.812753
Br95	Br	1.249925	0.357620	0.447620
Br96	Br	1.749925	0.857620	0.947620
Br97	Br	0.796502	0.170650	0.000011
Br98	Br	1.296502	0.670650	0.500011
H99	H	1.625170	-0.503371	-0.000048
H100	H	2.125170	-0.003371	0.499952
Br101	Br	0.854344	0.412038	0.000002
Br102	Br	1.354344	0.912038	0.500002
H103	H	1.628553	-0.370829	-0.000037
H104	H	2.128553	0.129171	0.499963
Br105	Br	1.175001	-0.100953	0.000008
Br106	Br	1.675001	0.399047	0.500008
H107	H	1.639930	0.074634	-0.000007
H108	H	2.139930	0.574634	0.499993
H109	H	1.636552	-0.057910	-0.000043
H110	H	2.136552	0.442090	0.499957
H111	H	1.238895	0.054448	0.000016
H112	H	1.738895	0.554448	0.500016
