data_functionalizedCrystal
_audit_creation_method	'MofGen! by Chris Wilmer'
_symmetry_space_group_name_H-M	'P1'
_symmetry_Int_Tables_number	1
_symmetry_cell_setting	triclinic
loop_
_symmetry_equiv_pos_as_xyz
  x,y,z
_cell_length_a	42.795324
_cell_length_b	42.779590
_cell_length_c	42.784893
_cell_angle_alpha	119.999958
_cell_angle_beta	90.000498
_cell_angle_gamma	59.987998
loop_
_atom_site_label
_atom_site_type_symbol
_atom_site_fract_x
_atom_site_fract_y
_atom_site_fract_z
O1	O	-0.214288	-0.275767	-0.009302
O2	O	-0.168865	-0.211747	0.009251
O3	O	-0.168848	-0.275766	-0.054754
O4	O	-0.214305	-0.211749	0.054703
O5	O	-0.220834	-0.223766	-0.054750
O6	O	-0.220851	-0.159748	0.009256
O7	O	-0.266274	-0.223767	-0.009298
Zn8	Zn	-0.251816	-0.183501	-0.000020
Zn9	Zn	-0.183323	-0.252013	-0.000027
O10	O	-0.266291	-0.159749	0.054707
C11	C	-0.079112	0.005332	0.028111
C12	C	-0.098001	-0.013389	0.028378
C13	C	-0.022515	-0.051278	0.028115
C14	C	-0.041490	-0.069913	0.028382
C15	C	-0.079101	-0.051276	0.028117
C16	C	-0.041502	-0.013390	0.028377
C17	C	-0.113690	0.131594	0.017853
C18	C	-0.131508	0.167354	0.014952
C19	C	-0.168778	0.185293	0.013497
C20	C	-0.188096	0.224062	0.010345
C21	C	-0.188230	0.167471	0.014946
C22	C	-0.170415	0.131717	0.017851
C23	C	-0.133143	0.113778	0.019304
C24	C	-0.170748	-0.096092	0.017875
C25	C	-0.188679	-0.116808	0.014980
C26	C	-0.169338	-0.155545	0.013527
C27	C	-0.188774	-0.178013	0.010383
C28	C	-0.132063	-0.173563	0.014974
C29	C	-0.114135	-0.152845	0.017876
C30	C	-0.133481	-0.114107	0.019324
C31	C	0.113950	-0.096099	0.017868
C32	C	0.152599	-0.116819	0.014967
C33	C	0.171992	-0.155557	0.013515
C34	C	0.213898	-0.178026	0.010367
C35	C	0.152736	-0.173573	0.014962
C36	C	0.114089	-0.152853	0.017862
C37	C	0.094697	-0.114113	0.019318
C38	C	-0.113826	0.075006	0.022451
C39	C	-0.098429	0.044102	0.024961
C40	C	0.019389	-0.073744	0.024969
C41	C	0.052791	-0.091650	0.022463
C42	C	-0.098540	-0.073741	0.024972
C43	C	-0.114037	-0.091646	0.022467
C44	C	-0.079020	-0.384495	-0.361620
C45	C	-0.041403	-0.422387	-0.380519
C46	C	-0.079020	-0.384496	-0.305021
C47	C	-0.041403	-0.422387	-0.324007
C48	C	-0.022420	-0.441111	-0.361624
C49	C	-0.097917	-0.365858	-0.324003
C50	C	-0.170704	-0.282540	-0.396173
C51	C	-0.188645	-0.261696	-0.413986
C52	C	-0.169305	-0.279587	-0.451262
C53	C	-0.188754	-0.256985	-0.470575
C54	C	-0.132024	-0.318325	-0.470726
C55	C	-0.114087	-0.339168	-0.452914
C56	C	-0.133429	-0.321274	-0.415636
C57	C	0.114068	-0.567387	-0.453312
C58	C	0.152719	-0.603152	-0.471255
C59	C	0.172111	-0.621093	-0.451918
C60	C	0.214020	-0.659866	-0.471366
C61	C	0.152845	-0.603268	-0.414636
C62	C	0.114193	-0.567510	-0.396697
C63	C	0.094807	-0.549569	-0.416039
C64	C	-0.170703	-0.282540	-0.168527
C65	C	-0.188643	-0.261694	-0.129872
C66	C	-0.169303	-0.279584	-0.110483
C67	C	-0.188752	-0.256982	-0.068571
C68	C	-0.132023	-0.318318	-0.129750
C69	C	-0.114085	-0.339162	-0.168404
C70	C	-0.133430	-0.321271	-0.187790
C71	C	-0.113975	-0.343877	-0.396325
C72	C	-0.098470	-0.361893	-0.380931
C73	C	-0.098470	-0.361893	-0.263110
C74	C	-0.113975	-0.343877	-0.229703
C75	C	0.019490	-0.479884	-0.381076
C76	C	0.052896	-0.510792	-0.396582
C77	C	-0.356010	-0.440874	-0.028197
C78	C	-0.393621	-0.422150	-0.028460
C79	C	-0.356026	-0.384258	-0.028191
C80	C	-0.393638	-0.365620	-0.028454
C81	C	-0.412610	-0.384259	-0.028192
C82	C	-0.337123	-0.422149	-0.028459
C83	C	-0.264318	-0.567153	-0.017962
C84	C	-0.246372	-0.602918	-0.015069
C85	C	-0.265702	-0.620859	-0.013616
C86	C	-0.246248	-0.659634	-0.010471
C87	C	-0.302978	-0.603035	-0.015061
C88	C	-0.320918	-0.567276	-0.017959
C89	C	-0.301587	-0.549335	-0.019410
C90	C	-0.549075	-0.339439	-0.017942
C91	C	-0.587723	-0.318722	-0.015043
C92	C	-0.607121	-0.279980	-0.013583
C93	C	-0.649026	-0.257510	-0.010435
C94	C	-0.587865	-0.261960	-0.015027
C95	C	-0.549217	-0.282680	-0.017933
C96	C	-0.529825	-0.321422	-0.019388
C97	C	-0.264384	-0.339434	-0.017940
C98	C	-0.246456	-0.318712	-0.015035
C99	C	-0.265802	-0.279970	-0.013577
C100	C	-0.246366	-0.257499	-0.010426
C101	C	-0.303076	-0.261951	-0.015020
C102	C	-0.321002	-0.282673	-0.017923
C103	C	-0.301651	-0.321417	-0.019386
C104	C	-0.321046	-0.510557	-0.022550
C105	C	-0.336555	-0.479648	-0.025054
C106	C	-0.336589	-0.361790	-0.025042
C107	C	-0.321094	-0.343882	-0.022533
C108	C	-0.454516	-0.361792	-0.025043
C109	C	-0.487918	-0.343885	-0.022535
O110	O	0.337150	-0.223779	-0.009306
O111	O	0.227709	-0.159761	0.009240
O112	O	0.291712	-0.223787	-0.054762
O113	O	0.273148	-0.159752	0.054696
O114	O	0.291723	-0.275780	-0.054757
O115	O	0.227720	-0.211754	0.009245
O116	O	0.337161	-0.275772	-0.009301
Zn117	Zn	0.282442	-0.252018	-0.000027
Zn118	Zn	0.282428	-0.183515	-0.000034
O119	O	0.273158	-0.211745	0.054701
O120	O	-0.266145	0.327673	-0.009342
O121	O	-0.220686	0.236755	0.009214
O122	O	-0.220680	0.236741	-0.054792
O123	O	-0.266150	0.327687	0.054665
O124	O	-0.168708	0.236740	-0.054793
O125	O	-0.168714	0.236754	0.009213
O126	O	-0.214173	0.327672	-0.009343
Zn127	Zn	-0.183192	0.282213	-0.000065
Zn128	Zn	-0.251667	0.282214	-0.000063
O129	O	-0.214178	0.327686	0.054663
O130	O	0.337289	-0.763491	-0.496919
O131	O	0.227839	-0.672559	-0.451462
O132	O	0.291823	-0.672558	-0.451460
O133	O	0.273306	-0.763492	-0.496921
O134	O	0.291824	-0.672559	-0.503445
O135	O	0.227841	-0.672560	-0.503447
O136	O	0.337290	-0.763492	-0.548904
Zn137	Zn	0.282566	-0.718026	-0.534429
Zn138	Zn	0.282564	-0.718025	-0.465937
O139	O	0.273307	-0.763493	-0.548906
O140	O	-0.214310	-0.211744	-0.548617
O141	O	-0.168849	-0.275765	-0.503172
O142	O	-0.168867	-0.211745	-0.503165
O143	O	-0.214291	-0.275764	-0.548624
O144	O	-0.220852	-0.159746	-0.451176
O145	O	-0.220833	-0.223766	-0.451183
O146	O	-0.266294	-0.159746	-0.496628
Zn147	Zn	-0.251818	-0.183500	-0.465651
Zn148	Zn	-0.183325	-0.252010	-0.534149
O149	O	-0.266276	-0.223766	-0.496635
C150	C	-0.412477	0.005353	0.361577
C151	C	-0.393494	-0.013370	0.380472
C152	C	-0.355877	-0.051262	0.304974
C153	C	-0.336979	-0.069900	0.323956
C154	C	-0.355877	-0.051261	0.361573
C155	C	-0.393493	-0.013371	0.323960
C156	C	-0.548964	0.131630	0.396146
C157	C	-0.587616	0.167395	0.413963
C158	C	-0.607006	0.185335	0.451239
C159	C	-0.648917	0.224109	0.470557
C160	C	-0.587740	0.167511	0.470699
C161	C	-0.549090	0.131753	0.452884
C162	C	-0.529702	0.113812	0.415606
C163	C	-0.321313	-0.096082	0.453249
C164	C	-0.303498	-0.116799	0.471188
C165	C	-0.266223	-0.155540	0.451847
C166	C	-0.246905	-0.178010	0.471291
C167	C	-0.246762	-0.173560	0.414565
C168	C	-0.264574	-0.152839	0.396630
C169	C	-0.301854	-0.114098	0.415976
C170	C	-0.321310	-0.096084	0.168484
C171	C	-0.303496	-0.116806	0.129829
C172	C	-0.266220	-0.155546	0.110436
C173	C	-0.246903	-0.178017	0.068524
C174	C	-0.246761	-0.173566	0.129699
C175	C	-0.264577	-0.152844	0.168353
C176	C	-0.301852	-0.114100	0.187743
C177	C	-0.487792	0.075035	0.396290
C178	C	-0.454386	0.044127	0.380893
C179	C	-0.336561	-0.073729	0.263063
C180	C	-0.321165	-0.091637	0.229656
C181	C	-0.336562	-0.073728	0.381020
C182	C	-0.321167	-0.091635	0.396523
C183	C	0.310622	-0.440908	-0.361624
C184	C	0.310882	-0.422188	-0.380524
C185	C	0.310612	-0.384291	-0.305026
C186	C	0.310872	-0.365658	-0.324013
C187	C	0.310610	-0.384299	-0.361629
C188	C	0.310883	-0.422180	-0.324007
C189	C	0.300402	-0.567174	-0.396174
C190	C	0.297512	-0.602937	-0.413986
C191	C	0.296060	-0.620881	-0.451262
C192	C	0.292920	-0.659653	-0.470575
C193	C	0.297502	-0.603061	-0.470726
C194	C	0.300397	-0.567304	-0.452916
C195	C	0.301847	-0.549361	-0.415638
C196	C	0.300354	-0.339495	-0.453317
C197	C	0.297452	-0.318782	-0.471260
C198	C	0.295989	-0.280043	-0.451923
C199	C	0.292838	-0.257577	-0.471372
C200	C	0.297432	-0.262020	-0.414643
C201	C	0.300340	-0.282736	-0.396703
C202	C	0.301799	-0.321475	-0.416044
C203	C	0.300361	-0.339454	-0.168533
C204	C	0.297457	-0.318730	-0.129878
C205	C	0.295995	-0.279991	-0.110491
C206	C	0.292844	-0.257517	-0.068578
C207	C	0.297435	-0.261976	-0.129758
C208	C	0.300338	-0.282700	-0.168411
C209	C	0.301805	-0.321443	-0.187797
C210	C	0.304982	-0.510586	-0.396327
C211	C	0.307483	-0.479679	-0.380934
C212	C	0.307462	-0.361820	-0.263116
C213	C	0.304953	-0.343910	-0.229709
C214	C	0.307459	-0.361837	-0.381081
C215	C	0.304948	-0.343934	-0.396587
C216	C	0.254260	-0.050989	0.361568
C217	C	0.253988	-0.013100	0.380462
C218	C	0.254259	-0.050997	0.304965
C219	C	0.253987	-0.013108	0.323946
C220	C	0.254249	0.005619	0.361562
C221	C	0.253998	-0.069630	0.323951
C222	C	0.264525	-0.152928	0.396140
C223	C	0.267427	-0.173767	0.413957
C224	C	0.268878	-0.155873	0.451233
C225	C	0.272031	-0.178470	0.470551
C226	C	0.267425	-0.117137	0.470691
C227	C	0.264519	-0.096299	0.452876
C228	C	0.263069	-0.114196	0.415598
C229	C	0.264471	0.131893	0.453234
C230	C	0.267361	0.167657	0.471172
C231	C	0.268813	0.185592	0.451830
C232	C	0.271952	0.224364	0.471273
C233	C	0.267370	0.167764	0.414549
C234	C	0.264473	0.132008	0.396615
C235	C	0.263026	0.114072	0.415962
C236	C	0.264520	-0.152961	0.168477
C237	C	0.267425	-0.173811	0.129822
C238	C	0.268875	-0.155925	0.110429
C239	C	0.272026	-0.178531	0.068517
C240	C	0.267424	-0.117193	0.129691
C241	C	0.264521	-0.096346	0.168344
C242	C	0.263065	-0.114232	0.187735
C243	C	0.259921	-0.091599	0.396282
C244	C	0.257411	-0.073586	0.380884
C245	C	0.257408	-0.073603	0.263055
C246	C	0.259918	-0.091622	0.229647
C247	C	0.257388	0.044391	0.381009
C248	C	0.259889	0.075297	0.396510
C249	C	-0.022478	-0.051362	-0.361660
C250	C	-0.041451	-0.070002	-0.380558
C251	C	-0.079081	0.005260	-0.305060
C252	C	-0.097967	-0.013466	-0.324043
C253	C	-0.079063	-0.051362	-0.361660
C254	C	-0.041468	-0.013467	-0.324044
C255	C	0.113988	-0.096187	-0.396223
C256	C	0.152637	-0.116906	-0.414038
C257	C	0.172033	-0.155651	-0.451314
C258	C	0.213941	-0.178123	-0.470630
C259	C	0.152778	-0.173673	-0.470775
C260	C	0.114131	-0.152950	-0.452962
C261	C	0.094736	-0.114205	-0.415684
C262	C	-0.113586	-0.153326	-0.453339
C263	C	-0.131390	-0.174172	-0.471279
C264	C	-0.168660	-0.156282	-0.451940
C265	C	-0.187965	-0.178882	-0.471386
C266	C	-0.188127	-0.117540	-0.414659
C267	C	-0.170327	-0.096692	-0.396722
C268	C	-0.133052	-0.114591	-0.416067
C269	C	-0.113673	0.131553	-0.168569
C270	C	-0.131493	0.167320	-0.129914
C271	C	-0.168765	0.185263	-0.110524
C272	C	-0.188088	0.224042	-0.068611
C273	C	-0.188214	0.167436	-0.129788
C274	C	-0.170392	0.131669	-0.168441
C275	C	-0.133122	0.113733	-0.187830
C276	C	0.052831	-0.091740	-0.396370
C277	C	0.019427	-0.073831	-0.380974
C278	C	-0.098402	0.044039	-0.263149
C279	C	-0.113803	0.074951	-0.229742
C280	C	-0.098365	-0.073966	-0.381109
C281	C	-0.113751	-0.091984	-0.396613
O282	O	0.273124	-0.159827	-0.496921
O283	O	0.291693	-0.223838	-0.451465
O284	O	0.227688	-0.159834	-0.451470
O285	O	0.337129	-0.223831	-0.496916
O286	O	0.227714	-0.211845	-0.503460
O287	O	0.291719	-0.275849	-0.503455
O288	O	0.273150	-0.211838	-0.548911
Zn289	Zn	0.282439	-0.252102	-0.534437
Zn290	Zn	0.282404	-0.183575	-0.465939
O291	O	0.337155	-0.275842	-0.548906
C292	C	-0.356042	0.615789	0.361531
C293	C	-0.393655	0.634429	0.380429
C294	C	-0.356024	0.559167	0.304931
C295	C	-0.393637	0.577893	0.323915
C296	C	-0.412627	0.615789	0.361531
C297	C	-0.337138	0.577893	0.323915
C298	C	-0.264400	0.660614	0.396093
C299	C	-0.246470	0.681333	0.413908
C300	C	-0.265818	0.720078	0.451184
C301	C	-0.246382	0.742551	0.470499
C302	C	-0.303094	0.738100	0.470645
C303	C	-0.321019	0.717377	0.452832
C304	C	-0.301670	0.678632	0.415554
C305	C	-0.549111	0.717753	0.453212
C306	C	-0.587760	0.738598	0.471152
C307	C	-0.607141	0.720708	0.451813
C308	C	-0.649046	0.743309	0.471259
C309	C	-0.587868	0.681966	0.414532
C310	C	-0.549219	0.661118	0.396595
C311	C	-0.529843	0.679018	0.415939
C312	C	-0.264327	0.432873	0.168440
C313	C	-0.246381	0.397107	0.129785
C314	C	-0.265711	0.379164	0.110395
C315	C	-0.246256	0.340385	0.068483
C316	C	-0.302986	0.396991	0.129660
C317	C	-0.320930	0.432757	0.168313
C318	C	-0.301595	0.450694	0.187701
C319	C	-0.321110	0.656167	0.396240
C320	C	-0.336605	0.638258	0.380845
C321	C	-0.336568	0.520388	0.263021
C322	C	-0.321057	0.489476	0.229614
C323	C	-0.454533	0.638393	0.380981
C324	C	-0.487936	0.656411	0.396485
H325	H	-0.116316	-0.205101	0.013796
C326	C	0.262920	-0.053739	0.189532
C327	C	0.227952	-0.010760	0.224826
C328	C	0.226351	0.031848	0.246013
C329	C	0.259719	0.031476	0.231907
C330	C	0.294690	-0.011504	0.196611
C331	C	0.296290	-0.054112	0.175424
H332	H	0.203249	-0.010484	0.235270
H333	H	0.200463	0.063664	0.272142
H334	H	0.258534	0.063017	0.247591
H335	H	0.319393	-0.011780	0.186167
H336	H	0.322178	-0.085929	0.149296
H337	H	0.263334	-0.064760	0.468721
H338	H	-0.351267	-0.552767	-0.019137
H339	H	-0.603398	-0.333395	-0.013865
H340	H	-0.533406	0.117245	0.468731
C341	C	-0.139669	-0.324666	-0.303405
C342	C	-0.149938	-0.281617	-0.297462
C343	C	-0.191688	-0.240426	-0.276863
C344	C	-0.223168	-0.242283	-0.262207
C345	C	-0.212899	-0.285333	-0.268149
C346	C	-0.171150	-0.326524	-0.288749
H347	H	-0.126634	-0.280241	-0.308312
H348	H	-0.199289	-0.208557	-0.272464
H349	H	-0.254073	-0.211790	-0.246958
H350	H	-0.236204	-0.286709	-0.257300
H351	H	-0.163549	-0.358393	-0.293148
C352	C	-0.362316	-0.053465	0.474531
C353	C	-0.371156	-0.012040	0.512473
C354	C	-0.412158	0.030575	0.533753
C355	C	-0.444321	0.031766	0.517091
C356	C	-0.435481	-0.009661	0.479147
C357	C	-0.394479	-0.052276	0.457867
H358	H	-0.347347	-0.012920	0.524809
H359	H	-0.418702	0.061242	0.561841
H360	H	-0.474673	0.063312	0.532843
H361	H	-0.459290	-0.008781	0.466811
H362	H	-0.387936	-0.082943	0.429778
H363	H	-0.306221	-0.437819	-0.028884
C364	C	-0.414213	0.556719	0.303327
C365	C	-0.428857	0.539883	0.319843
C366	C	-0.449432	0.518710	0.299256
C367	C	-0.455362	0.514372	0.262153
C368	C	-0.440717	0.531208	0.245635
C369	C	-0.420142	0.552382	0.266221
H370	H	-0.424468	0.543094	0.347311
H371	H	-0.460273	0.506246	0.311485
H372	H	-0.470593	0.498698	0.246913
H373	H	-0.445107	0.527997	0.218167
H374	H	-0.409301	0.564845	0.253993
H375	H	0.296277	-0.333458	-0.501613
H376	H	-0.083787	-0.167516	0.019056
H377	H	0.098456	-0.167625	-0.468809
C378	C	-0.110747	-0.338001	-0.108425
C379	C	-0.072816	-0.343361	-0.104951
C380	C	-0.051540	-0.363043	-0.083626
C381	C	-0.068196	-0.377363	-0.065775
C382	C	-0.106129	-0.372003	-0.069249
C383	C	-0.127405	-0.352321	-0.090573
H384	H	-0.060485	-0.332760	-0.118166
H385	H	-0.023459	-0.367011	-0.081055
H386	H	-0.052446	-0.391932	-0.049989
H387	H	-0.118460	-0.382604	-0.056034
H388	H	-0.155485	-0.348353	-0.093144
C389	C	-0.205379	0.377496	0.108595
C390	C	-0.197376	0.377163	0.073301
C391	C	-0.156373	0.357549	0.052111
C392	C	-0.123372	0.338269	0.066215
C393	C	-0.131375	0.338602	0.101511
C394	C	-0.172378	0.358215	0.122701
H395	H	-0.221806	0.391436	0.062858
H396	H	-0.150449	0.357303	0.025982
H397	H	-0.093019	0.323750	0.050529
H398	H	-0.106945	0.324329	0.111954
H399	H	-0.178302	0.358461	0.148829
C400	C	-0.414072	0.007812	0.303378
C401	C	-0.455533	0.049584	0.324259
C402	C	-0.476106	0.070773	0.303681
C403	C	-0.455219	0.050189	0.262223
C404	C	-0.413756	0.008415	0.241341
C405	C	-0.393183	-0.012774	0.261918
H406	H	-0.470997	0.064823	0.354950
H407	H	-0.506800	0.101697	0.319140
H408	H	-0.470449	0.065874	0.246990
H409	H	-0.398293	-0.006824	0.210649
H410	H	-0.362489	-0.043698	0.246459
H411	H	0.098510	-0.553001	-0.366344
C412	C	0.092907	-0.172669	0.019458
C413	C	0.114235	-0.215275	0.017864
C414	C	0.093054	-0.235092	0.019459
C415	C	0.050544	-0.212302	0.022649
C416	C	0.029213	-0.169693	0.024243
C417	C	0.050395	-0.149876	0.022647
H418	H	0.145706	-0.232148	0.015502
H419	H	0.108845	-0.266634	0.018279
H420	H	0.034864	-0.226971	0.023830
H421	H	-0.002257	-0.152820	0.026604
H422	H	0.034604	-0.118334	0.023827
H423	H	0.168528	-0.205116	0.013781
H424	H	-0.218995	-0.230151	-0.114185
H425	H	-0.319345	-0.102125	0.501541
H426	H	-0.408852	-0.437823	-0.028887
C427	C	-0.414252	0.675626	0.422181
C428	C	-0.451356	0.718666	0.432437
C429	C	-0.471953	0.759862	0.474187
C430	C	-0.455446	0.758018	0.505681
C431	C	-0.418340	0.714977	0.495426
C432	C	-0.397743	0.673780	0.453676
H433	H	-0.463577	0.720032	0.409123
H434	H	-0.499421	0.791724	0.481779
H435	H	-0.470694	0.788514	0.536587
H436	H	-0.406119	0.713611	0.518740
H437	H	-0.370275	0.641918	0.446084
C438	C	0.268963	0.187492	0.393272
C439	C	0.237982	0.236340	0.409939
C440	C	0.239577	0.256067	0.388661
C441	C	0.272154	0.226947	0.350715
C442	C	0.303137	0.178096	0.334046
C443	C	0.301542	0.158369	0.355325
H444	H	0.213865	0.257899	0.438030
H445	H	0.216641	0.292229	0.401000
H446	H	0.273335	0.241550	0.334964
H447	H	0.327255	0.156537	0.305955
H448	H	0.324478	0.122207	0.342985
H449	H	-0.128905	0.002286	0.028809
C450	C	0.269017	-0.097513	0.108363
C451	C	0.238038	-0.083192	0.090514
C452	C	0.239631	-0.063512	0.069188
C453	C	0.272201	-0.058153	0.065710
C454	C	0.303182	-0.072474	0.083559
C455	C	0.301590	-0.092154	0.104886
H456	H	0.213925	-0.087159	0.093088
H457	H	0.216696	-0.052911	0.055975
H458	H	0.273380	-0.043585	0.049923
H459	H	0.327295	-0.068507	0.080985
H460	H	0.324524	-0.102756	0.118099
C461	C	-0.324898	-0.096984	0.108640
C462	C	-0.338631	-0.049863	0.122745
C463	C	-0.360031	-0.030039	0.101557
C464	C	-0.367698	-0.057336	0.066263
C465	C	-0.353964	-0.104459	0.052156
C466	C	-0.332564	-0.124283	0.073344
H467	H	-0.332957	-0.029654	0.148874
H468	H	-0.370198	0.004845	0.112000
H469	H	-0.383539	-0.042661	0.050578
H470	H	-0.359638	-0.124668	0.026027
H471	H	-0.322397	-0.159167	0.062901
C472	C	-0.609198	-0.219347	-0.013426
C473	C	-0.644525	-0.176436	0.021547
C474	C	-0.665858	-0.133821	0.023150
C475	C	-0.651866	-0.134119	-0.010220
C476	C	-0.616537	-0.177032	-0.045195
C477	C	-0.595203	-0.219646	-0.046799
H478	H	-0.654885	-0.176214	0.046252
H479	H	-0.692011	-0.102054	0.049042
H480	H	-0.667658	-0.102573	-0.009033
H481	H	-0.606177	-0.177254	-0.069900
H482	H	-0.569051	-0.251414	-0.072690
H483	H	-0.318725	0.382379	0.113870
H484	H	0.168574	-0.205218	-0.501125
H485	H	-0.083734	-0.370708	-0.468764
H486	H	0.263337	-0.167528	0.184263
H487	H	-0.351352	-0.267998	-0.019098
C488	C	-0.295390	0.556720	0.303324
C489	C	-0.274525	0.577317	0.324196
C490	C	-0.232778	0.556144	0.303605
C491	C	-0.211896	0.514372	0.262141
C492	C	-0.232761	0.493773	0.241267
C493	C	-0.274508	0.514946	0.261858
H494	H	-0.289983	0.608241	0.354892
H495	H	-0.217333	0.571393	0.319057
H496	H	-0.180993	0.498699	0.246898
H497	H	-0.217303	0.462849	0.210571
H498	H	-0.289953	0.499697	0.246405
C499	C	0.173911	-0.622754	-0.512259
C500	C	0.159821	-0.642035	-0.545272
C501	C	0.181013	-0.661636	-0.586276
C502	C	0.216294	-0.661957	-0.594268
C503	C	0.230386	-0.642676	-0.561254
C504	C	0.209194	-0.623075	-0.520250
H505	H	0.133702	-0.641798	-0.539356
H506	H	0.170581	-0.675909	-0.610715
H507	H	0.231981	-0.676467	-0.624622
H508	H	0.256505	-0.642913	-0.567169
H509	H	0.219626	-0.608802	-0.495811
C510	C	-0.229649	-0.219086	-0.392576
C511	C	-0.238422	-0.177735	-0.354604
C512	C	-0.279426	-0.135123	-0.333193
C513	C	-0.311657	-0.133862	-0.349754
C514	C	-0.302886	-0.175215	-0.387728
C515	C	-0.261881	-0.217827	-0.409139
H516	H	-0.214561	-0.178666	-0.342342
H517	H	-0.285919	-0.104511	-0.305082
H518	H	-0.342011	-0.102319	-0.333904
H519	H	-0.326746	-0.174283	-0.399989
H520	H	-0.255388	-0.248439	-0.437250
C521	C	0.092741	-0.547658	-0.474588
C522	C	0.113929	-0.567264	-0.515594
C523	C	0.092601	-0.547533	-0.536868
C524	C	0.050087	-0.508196	-0.517136
C525	C	0.028897	-0.488587	-0.476128
C526	C	0.050224	-0.508318	-0.454854
H527	H	0.145403	-0.596386	-0.530203
H528	H	0.108287	-0.562048	-0.567225
H529	H	0.034299	-0.493589	-0.532884
H530	H	-0.002577	-0.459465	-0.461519
H531	H	0.034538	-0.493803	-0.424497
H532	H	0.098200	-0.064639	-0.365871
C533	C	-0.110100	0.186928	-0.108723
C534	C	-0.072132	0.157722	-0.105351
C535	C	-0.050739	0.177332	-0.084160
C536	C	-0.067315	0.226147	-0.066340
C537	C	-0.105285	0.255355	-0.069711
C538	C	-0.126678	0.235746	-0.090902
H539	H	-0.059860	0.121584	-0.118543
H540	H	-0.022631	0.155709	-0.081665
H541	H	-0.051479	0.240663	-0.050653
H542	H	-0.117557	0.291494	-0.056519
H543	H	-0.154786	0.257369	-0.093398
H544	H	0.168633	-0.617880	-0.398893
C545	C	-0.073080	-0.381771	-0.189597
C546	C	-0.051807	-0.401453	-0.168274
C547	C	-0.010802	-0.444063	-0.189468
C548	C	0.008930	-0.466991	-0.231985
C549	C	-0.012343	-0.447309	-0.253310
C550	C	-0.053349	-0.404699	-0.232116
H551	H	-0.066414	-0.384481	-0.136799
H552	H	0.004946	-0.458633	-0.173681
H553	H	0.039285	-0.498533	-0.247674
H554	H	0.002263	-0.464281	-0.284786
H555	H	-0.069097	-0.390129	-0.247903
C556	C	-0.139717	0.007705	-0.303456
C557	C	-0.160602	0.049472	-0.261991
C558	C	-0.202349	0.070642	-0.241406
C559	C	-0.223212	0.050046	-0.262287
C560	C	-0.202327	0.008278	-0.303755
C561	C	-0.160579	-0.012893	-0.324340
H562	H	-0.145158	0.064720	-0.246531
H563	H	-0.217810	0.101562	-0.210708
H564	H	-0.254116	0.065718	-0.247049
H565	H	-0.217771	-0.006971	-0.319215
H566	H	-0.145119	-0.043813	-0.355038
C567	C	-0.295226	-0.111088	0.303367
C568	C	-0.274352	-0.131675	0.324246
C569	C	-0.232600	-0.172861	0.303659
C570	C	-0.211722	-0.193461	0.262193
C571	C	-0.232596	-0.172874	0.241311
C572	C	-0.274348	-0.131687	0.261898
H573	H	-0.289807	-0.116426	0.354944
H574	H	-0.217148	-0.188101	0.319118
H575	H	-0.180815	-0.223949	0.246953
H576	H	-0.217141	-0.188123	0.210613
H577	H	-0.289801	-0.116448	0.246440
H578	H	-0.318829	-0.230404	-0.013832
H579	H	-0.026246	-0.100399	0.028812
H580	H	0.263297	0.117496	0.366262
H581	H	-0.533542	-0.268006	-0.019109
C582	C	0.295826	-0.219409	-0.393371
C583	C	0.326797	-0.218224	-0.410042
C584	C	0.325188	-0.175611	-0.388770
C585	C	0.292609	-0.134183	-0.350826
C586	C	0.261636	-0.135366	-0.334153
C587	C	0.263245	-0.177979	-0.355425
H588	H	0.350916	-0.248893	-0.438132
H589	H	0.348117	-0.174735	-0.401113
H590	H	0.291418	-0.102638	-0.335079
H591	H	0.237517	-0.104697	-0.306062
H592	H	0.240316	-0.178855	-0.343082
H593	H	-0.026164	-0.438056	-0.411427
H594	H	-0.603449	0.770142	0.501505
C595	C	-0.205471	0.661514	0.392500
C596	C	-0.196706	0.656112	0.354528
C597	C	-0.155707	0.636294	0.333119
C598	C	-0.123474	0.621877	0.349683
C599	C	-0.132239	0.627278	0.387657
C600	C	-0.173237	0.647097	0.409065
H601	H	-0.220568	0.666785	0.342265
H602	H	-0.149219	0.632295	0.305008
H603	H	-0.093124	0.607206	0.333835
H604	H	-0.108377	0.616605	0.399920
H605	H	-0.179725	0.651095	0.437176
H606	H	0.168275	-0.102147	0.013788
C607	C	-0.527743	-0.382055	-0.019546
C608	C	-0.548920	-0.401878	-0.017960
C609	C	-0.527586	-0.444491	-0.019562
C610	C	-0.485077	-0.467282	-0.022751
C611	C	-0.463898	-0.447459	-0.024337
C612	C	-0.485231	-0.404845	-0.022735
H613	H	-0.580390	-0.385006	-0.015599
H614	H	-0.543264	-0.459165	-0.018388
H615	H	-0.469284	-0.498827	-0.023937
H616	H	-0.432427	-0.464330	-0.026698
H617	H	-0.469553	-0.390171	-0.023909
H618	H	-0.186456	-0.267968	-0.184309
C619	C	0.311462	-0.443360	-0.422278
C620	C	0.278697	-0.416511	-0.432540
C621	C	0.279278	-0.437680	-0.474293
C622	C	0.312626	-0.485698	-0.505783
C623	C	0.345394	-0.512550	-0.495522
C624	C	0.344812	-0.491381	-0.453769
H625	H	0.254009	-0.380962	-0.409228
H626	H	0.255021	-0.417803	-0.481889
H627	H	0.313057	-0.501369	-0.536691
H628	H	0.370082	-0.548098	-0.518834
H629	H	0.369070	-0.511258	-0.446173
C630	C	0.311452	-0.443336	-0.303410
C631	C	0.311734	-0.485089	-0.324276
C632	C	0.312298	-0.506239	-0.303677
C633	C	0.312578	-0.485635	-0.262210
C634	C	0.312296	-0.443880	-0.241342
C635	C	0.311732	-0.422730	-0.261941
H636	H	0.311527	-0.500343	-0.354974
H637	H	0.312507	-0.537149	-0.319125
H638	H	0.312995	-0.501292	-0.246961
H639	H	0.312503	-0.428626	-0.210644
H640	H	0.311523	-0.391819	-0.246493
C641	C	-0.205759	-0.216172	0.393289
C642	C	-0.197820	-0.259084	0.385710
C643	C	-0.156817	-0.301698	0.364432
C644	C	-0.123753	-0.301400	0.350734
C645	C	-0.131690	-0.258487	0.358312
C646	C	-0.172693	-0.215873	0.379590
H647	H	-0.222297	-0.259306	0.395850
H648	H	-0.150941	-0.333465	0.358822
H649	H	-0.093400	-0.332946	0.334983
H650	H	-0.107213	-0.258265	0.348172
H651	H	-0.178569	-0.184105	0.385200
H652	H	0.168311	-0.102230	-0.398191
C653	C	-0.414235	-0.324429	-0.029025
C654	C	-0.393375	-0.303828	-0.029305
C655	C	-0.413973	-0.262639	-0.029875
C656	C	-0.455431	-0.242051	-0.030164
C657	C	-0.476293	-0.262652	-0.029884
C658	C	-0.455695	-0.303841	-0.029314
H659	H	-0.362683	-0.319069	-0.029090
H660	H	-0.398529	-0.247389	-0.030082
H661	H	-0.470678	-0.211561	-0.030586
H662	H	-0.506985	-0.247412	-0.030098
H663	H	-0.471140	-0.319091	-0.029107
C664	C	-0.072675	0.111819	-0.189896
C665	C	-0.051279	0.131422	-0.168707
C666	C	-0.010280	0.111685	-0.190036
C667	C	0.009322	0.072345	-0.232553
C668	C	-0.012075	0.052741	-0.253744
C669	C	-0.053073	0.072478	-0.232415
H670	H	-0.065789	0.160545	-0.137231
H671	H	0.005558	0.126197	-0.174348
H672	H	0.039671	0.057735	-0.248341
H673	H	0.002436	0.023617	-0.285219
H674	H	-0.068912	0.057965	-0.248103
C675	C	-0.205756	-0.216182	0.108371
C676	C	-0.197816	-0.259095	0.073044
C677	C	-0.156813	-0.301709	0.051717
C678	C	-0.123751	-0.301412	0.065719
C679	C	-0.131690	-0.258497	0.101048
C680	C	-0.172693	-0.215882	0.122375
H681	H	-0.222292	-0.259316	0.062677
H682	H	-0.150936	-0.333477	0.025564
H683	H	-0.093399	-0.332958	0.049932
H684	H	-0.107215	-0.258275	0.111415
H685	H	-0.178570	-0.184114	0.148528
H686	H	-0.026270	0.002282	0.028804
H687	H	-0.248726	-0.167512	0.366277
C688	C	0.253416	0.008064	0.422214
C689	C	0.220070	0.056078	0.453714
C690	C	0.219500	0.077236	0.495463
C691	C	0.252276	0.050379	0.505712
C692	C	0.285624	0.002362	0.474211
C693	C	0.286194	-0.018796	0.432462
H694	H	0.195805	0.075962	0.446128
H695	H	0.194813	0.112782	0.518782
H696	H	0.251854	0.066042	0.536617
H697	H	0.309889	-0.017521	0.481797
H698	H	0.310881	-0.054341	0.409143
C699	C	0.295872	-0.338545	-0.108685
C700	C	0.260908	-0.311241	-0.073390
C701	C	0.259326	-0.331058	-0.052197
C702	C	0.292708	-0.378179	-0.066298
C703	C	0.327675	-0.405486	-0.101594
C704	C	0.329257	-0.385669	-0.122788
H705	H	0.236194	-0.276357	-0.062950
H706	H	0.233441	-0.310844	-0.026068
H707	H	0.291537	-0.392849	-0.050610
H708	H	0.352388	-0.440370	-0.112035
H709	H	0.355142	-0.405883	-0.148916
H710	H	-0.533529	0.629574	0.366243
C711	C	-0.324374	0.780717	0.511646
C712	C	-0.338073	0.780426	0.544722
C713	C	-0.359355	0.823044	0.585725
C714	C	-0.366939	0.865953	0.593652
C715	C	-0.353240	0.866246	0.560576
C716	C	-0.331958	0.823628	0.519573
H717	H	-0.332459	0.748660	0.538855
H718	H	-0.369495	0.822827	0.610211
H719	H	-0.382693	0.897501	0.624005
H720	H	-0.358854	0.898011	0.566443
H721	H	-0.321817	0.823845	0.495087
C722	C	-0.243100	-0.382049	-0.019544
C723	C	-0.202103	-0.401868	-0.017952
C724	C	-0.180823	-0.444483	-0.019555
C725	C	-0.200539	-0.467278	-0.022751
C726	C	-0.241538	-0.447459	-0.024343
C727	C	-0.262819	-0.404845	-0.022740
H728	H	-0.187506	-0.384994	-0.015586
H729	H	-0.150472	-0.459154	-0.018376
H730	H	-0.184786	-0.498823	-0.023938
H731	H	-0.256136	-0.464333	-0.026709
H732	H	-0.293170	-0.390173	-0.023919
C733	C	0.311440	-0.324471	-0.303429
C734	C	0.311721	-0.303869	-0.261963
C735	C	0.312290	-0.262684	-0.241381
C736	C	0.312577	-0.242102	-0.262265
C737	C	0.312297	-0.262705	-0.303733
C738	C	0.311728	-0.303889	-0.324315
H739	H	0.311508	-0.319105	-0.246501
H740	H	0.312497	-0.247433	-0.210683
H741	H	0.312999	-0.211615	-0.247029
H742	H	0.312510	-0.247469	-0.319195
H743	H	0.311520	-0.319140	-0.355013
H744	H	0.296243	-0.230430	-0.113970
H745	H	-0.216107	-0.333385	-0.013858
C746	C	0.269019	-0.097455	0.511693
C747	C	0.303986	-0.124855	0.519623
C748	C	0.305579	-0.105171	0.560627
C749	C	0.272205	-0.058086	0.593701
C750	C	0.237235	-0.030682	0.585772
C751	C	0.235642	-0.050367	0.544768
H752	H	0.328694	-0.159713	0.495139
H753	H	0.331466	-0.125457	0.566496
H754	H	0.273384	-0.043514	0.624054
H755	H	0.212528	0.004175	0.610256
H756	H	0.209755	-0.030081	0.538899
C757	C	-0.324238	-0.622770	-0.013464
C758	C	-0.307562	-0.671618	-0.044446
C759	C	-0.328825	-0.691353	-0.042849
C760	C	-0.366763	-0.662240	-0.010269
C761	C	-0.383441	-0.613389	0.020716
C762	C	-0.362179	-0.593654	0.019119
H763	H	-0.279476	-0.693172	-0.068566
H764	H	-0.316478	-0.727516	-0.065786
H765	H	-0.382503	-0.676849	-0.009087
H766	H	-0.411528	-0.591835	0.044836
H767	H	-0.374525	-0.557492	0.042056
C768	C	0.253430	-0.110817	0.303364
C769	C	0.253150	-0.131410	0.324239
C770	C	0.252581	-0.172595	0.303651
C771	C	0.252292	-0.193185	0.262188
C772	C	0.252571	-0.172592	0.241311
C773	C	0.253140	-0.131407	0.261898
H774	H	0.253365	-0.116168	0.354934
H775	H	0.252375	-0.187839	0.319107
H776	H	0.251871	-0.223672	0.246948
H777	H	0.252357	-0.187834	0.210615
H778	H	0.253347	-0.116163	0.246443
C779	C	-0.072586	-0.173013	-0.474617
C780	C	-0.051173	-0.215623	-0.515621
C781	C	-0.010174	-0.235309	-0.536895
C782	C	0.009412	-0.212385	-0.517165
C783	C	-0.012001	-0.169772	-0.476159
C784	C	-0.053000	-0.150086	-0.454884
H785	H	-0.065672	-0.232595	-0.530229
H786	H	0.005677	-0.266854	-0.567251
H787	H	0.039762	-0.226957	-0.532914
H788	H	0.002498	-0.152800	-0.461551
H789	H	-0.068851	-0.118541	-0.424528
C790	C	-0.110751	-0.338003	-0.511727
C791	C	-0.097043	-0.385086	-0.544804
C792	C	-0.075768	-0.404765	-0.585807
C793	C	-0.068203	-0.377362	-0.593733
C794	C	-0.081912	-0.330276	-0.560655
C795	C	-0.103186	-0.310596	-0.519652
H796	H	-0.102643	-0.405374	-0.538938
H797	H	-0.065620	-0.439622	-0.610293
H798	H	-0.052454	-0.391930	-0.624086
H799	H	-0.076312	-0.309987	-0.566521
H800	H	-0.113335	-0.275740	-0.495166
H801	H	-0.351368	0.732053	0.468679
C802	C	0.295922	-0.622534	-0.392576
C803	C	0.260960	-0.622851	-0.384900
C804	C	0.259369	-0.642447	-0.363489
C805	C	0.292740	-0.661726	-0.349755
C806	C	0.327704	-0.661410	-0.357431
C807	C	0.329295	-0.641814	-0.378842
H808	H	0.236255	-0.608579	-0.395067
H809	H	0.233486	-0.642681	-0.357807
H810	H	0.291562	-0.676232	-0.333905
H811	H	0.352409	-0.675682	-0.347263
H812	H	0.355178	-0.641580	-0.384524
C813	C	-0.608807	0.186996	0.392557
C814	C	-0.594718	0.206276	0.378822
C815	C	-0.615910	0.225877	0.357416
C816	C	-0.651191	0.226197	0.349744
C817	C	-0.665282	0.206916	0.363480
C818	C	-0.644090	0.187315	0.384886
H819	H	-0.568599	0.206040	0.384501
H820	H	-0.605478	0.240150	0.347248
H821	H	-0.666878	0.240706	0.333898
H822	H	-0.691400	0.207152	0.357801
H823	H	-0.654521	0.173042	0.395054
C824	C	0.295905	-0.622798	-0.511727
C825	C	0.263327	-0.593684	-0.520560
C826	C	0.261730	-0.613420	-0.561562
C827	C	0.292711	-0.662270	-0.593731
C828	C	0.325291	-0.691386	-0.584899
C829	C	0.326888	-0.671650	-0.543897
H830	H	0.240391	-0.557520	-0.496745
H831	H	0.237612	-0.591866	-0.568100
H832	H	0.291528	-0.676879	-0.624084
H833	H	0.348227	-0.727550	-0.608714
H834	H	0.351007	-0.693205	-0.537359
H835	H	-0.248730	-0.167518	0.184034
H836	H	-0.115536	-0.205716	-0.501632
H837	H	-0.026162	-0.438052	-0.308764
H838	H	-0.218476	-0.102970	-0.398914
C839	C	0.269021	-0.216416	0.108635
C840	C	0.235648	-0.216037	0.122741
C841	C	0.237243	-0.258641	0.101554
C842	C	0.272210	-0.301623	0.066261
C843	C	0.305585	-0.302003	0.052153
C844	C	0.303991	-0.259399	0.073340
H845	H	0.209761	-0.184218	0.148868
H846	H	0.212536	-0.258359	0.111998
H847	H	0.273390	-0.333161	0.050577
H848	H	0.331473	-0.333822	0.026026
H849	H	0.328698	-0.259681	0.062896
H850	H	0.098163	-0.064556	0.019052
H851	H	-0.408734	0.002307	0.411383
C852	C	-0.609182	0.662282	0.393258
C853	C	-0.644502	0.689679	0.385680
C854	C	-0.665817	0.669996	0.364404
C855	C	-0.651812	0.622915	0.350708
C856	C	-0.616490	0.595514	0.358286
C857	C	-0.595175	0.615198	0.379561
H858	H	-0.654871	0.724534	0.395819
H859	H	-0.691965	0.690280	0.358795
H860	H	-0.667591	0.608344	0.334959
H861	H	-0.606121	0.560660	0.348147
H862	H	-0.569027	0.594914	0.385171
C863	C	0.269030	-0.216376	0.392552
C864	C	0.238057	-0.217631	0.409119
C865	C	0.239662	-0.260241	0.387713
C866	C	0.272238	-0.301596	0.349741
C867	C	0.303213	-0.300342	0.333173
C868	C	0.301608	-0.257732	0.354579
H869	H	0.213940	-0.187016	0.437229
H870	H	0.216732	-0.261169	0.399978
H871	H	0.273425	-0.333138	0.333896
H872	H	0.327330	-0.330957	0.305062
H873	H	0.324538	-0.256804	0.342313
H874	H	-0.186256	0.117211	0.019032
H875	H	0.263344	-0.167504	0.365788
H876	H	0.263292	0.117294	0.468989
H877	H	0.301572	-0.552800	-0.468766
C878	C	-0.229213	0.187170	-0.108462
C879	C	-0.262279	0.206539	-0.122466
C880	C	-0.303277	0.226271	-0.101141
C881	C	-0.311210	0.226635	-0.065813
C882	C	-0.278143	0.207266	-0.051807
C883	C	-0.237145	0.187534	-0.073131
H884	H	-0.256407	0.206270	-0.148619
H885	H	-0.327754	0.240610	-0.111509
H886	H	-0.341559	0.241242	-0.050027
H887	H	-0.284015	0.207535	-0.025653
H888	H	-0.212668	0.173195	-0.062763
H889	H	-0.351659	-0.064533	0.184271
H890	H	0.301516	-0.268060	-0.366350
H891	H	-0.083343	0.116992	0.019037
H892	H	0.301558	-0.371002	-0.184316
H893	H	0.268537	0.182168	0.501524
H894	H	-0.248573	-0.552549	-0.019145
C895	C	-0.609068	0.187245	0.511701
C896	C	-0.644383	0.187599	0.519629
C897	C	-0.665710	0.207332	0.560633
C898	C	-0.651723	0.226712	0.593707
C899	C	-0.616406	0.226359	0.585779
C900	C	-0.595079	0.206626	0.544776
H901	H	-0.654739	0.173252	0.495145
H902	H	-0.691854	0.207593	0.566501
H903	H	-0.667510	0.241320	0.624060
H904	H	-0.606050	0.240706	0.610264
H905	H	-0.568935	0.206365	0.538908
H906	H	0.301583	-0.552569	-0.365822
H907	H	-0.115667	0.181861	0.013772
H908	H	-0.218576	0.182082	0.013763
H909	H	-0.186503	-0.064551	0.019056
H910	H	0.301543	-0.371038	-0.469068
H911	H	-0.219028	-0.102135	0.013802
H912	H	-0.533181	0.117027	0.365794
H913	H	-0.186457	-0.267967	-0.365821
H914	H	0.301509	-0.268028	-0.184095
H915	H	-0.216024	-0.617426	-0.013890
H916	H	0.253560	0.002557	0.308701
H917	H	-0.026201	-0.100500	-0.411463
H918	H	-0.026235	0.002203	-0.308804
H919	H	-0.186180	-0.065148	-0.366370
H920	H	-0.533337	0.732328	0.468966
H921	H	-0.186231	0.117157	-0.184124
H922	H	-0.248582	0.447477	0.184224
H923	H	-0.248641	0.629066	0.365741
H924	H	-0.351280	0.447269	0.183996
