data_functionalizedCrystal
_audit_creation_method	'MofGen! by Chris Wilmer'
_symmetry_space_group_name_H-M	'P1'
_symmetry_Int_Tables_number	1
_symmetry_cell_setting	triclinic
loop_
_symmetry_equiv_pos_as_xyz
  x,y,z
_cell_length_a	23.532407
_cell_length_b	19.188933
_cell_length_c	18.266242
_cell_angle_alpha	89.992377
_cell_angle_beta	89.998826
_cell_angle_gamma	97.002877
loop_
_atom_site_label
_atom_site_type_symbol
_atom_site_fract_x
_atom_site_fract_y
_atom_site_fract_z
O1	O	-0.071107	0.925921	-0.060844
O2	O	0.428893	1.425921	0.439156
O3	O	-0.080677	0.722580	-0.060850
O4	O	0.419323	1.222580	0.439150
O5	O	0.007026	0.830382	-0.060856
O6	O	0.507026	1.330382	0.439144
O7	O	-0.158811	0.818119	-0.060838
O8	O	0.341189	1.318119	0.439162
O9	O	0.007031	0.830364	0.060906
O10	O	0.507031	1.330364	0.560906
O11	O	-0.080673	0.722562	0.060912
O12	O	0.419327	1.222562	0.560912
O13	O	-0.071103	0.925903	0.060917
O14	O	0.428897	1.425903	0.560917
Zn15	Zn	-0.075887	0.824230	0.080247
Zn16	Zn	0.424113	1.324230	0.580247
Zn17	Zn	-0.075893	0.824253	-0.080179
Zn18	Zn	0.424107	1.324253	0.419821
O19	O	-0.158806	0.818101	0.060924
O20	O	0.341194	1.318101	0.560924
C21	C	-0.080365	0.696561	0.000030
C22	C	0.419635	1.196561	0.500030
C23	C	-0.079434	0.619059	0.000028
C24	C	0.420566	1.119059	0.500028
C25	C	-0.072793	0.065835	-0.066338
C26	C	0.427207	0.565835	0.433662
C27	C	-0.073664	0.138656	-0.066340
C28	C	0.426336	0.638656	0.433660
C29	C	-0.074100	0.175062	0.000032
C30	C	0.425900	0.675062	0.500032
C31	C	-0.073650	0.138643	0.066412
C32	C	0.426350	0.638643	0.566412
C33	C	-0.072773	0.065824	0.066413
C34	C	0.427227	0.565824	0.566413
N35	N	-0.107882	0.283967	0.049440
N36	N	0.392118	0.783967	0.549440
N37	N	-0.108717	0.353142	0.049434
N38	N	0.391283	0.853142	0.549434
C39	C	-0.076741	0.394462	0.000034
C40	C	0.423259	0.894462	0.500034
N41	N	-0.043906	0.363993	-0.049373
N42	N	0.456094	0.863993	0.450627
N43	N	-0.043075	0.294812	-0.049370
N44	N	0.456925	0.794812	0.450630
C45	C	-0.075050	0.254022	0.000038
C46	C	0.424950	0.754022	0.500038
C47	C	-0.078132	0.509835	-0.066345
C48	C	0.421868	1.009835	0.433655
C49	C	-0.078999	0.582658	-0.066345
C50	C	0.421001	1.082658	0.433655
C51	C	-0.078991	0.582642	0.066409
C52	C	0.421009	1.082642	0.566409
C53	C	-0.078117	0.509821	0.066407
C54	C	0.421883	1.009821	0.566407
C55	C	-0.077691	0.473421	0.000028
C56	C	0.422309	0.973421	0.500028
C57	C	-0.180025	0.818422	0.000045
C58	C	0.319975	1.318422	0.500045
C59	C	-0.243244	0.819361	0.000052
C60	C	0.256756	1.319361	0.500052
C61	C	-0.642224	0.761455	0.000013
C62	C	-0.142224	1.261455	0.500013
C63	C	-0.701626	0.762327	0.000008
C64	C	-0.201626	1.262327	0.500008
O65	O	-0.738257	0.708647	-0.000020
O66	O	-0.238257	1.208647	0.499980
N67	N	-0.724389	0.826416	0.000011
N68	N	-0.224389	1.326416	0.500011
C69	C	-0.687746	0.889636	0.000011
C70	C	-0.187746	1.389636	0.500011
O71	O	-0.712562	0.944228	0.000012
O72	O	-0.212562	1.444228	0.500012
C73	C	-0.628345	0.888763	0.000011
C74	C	-0.128345	1.388763	0.500011
C75	C	-0.605586	0.824670	0.000016
C76	C	-0.105586	1.324670	0.500016
C77	C	-0.619465	0.697367	0.000017
C78	C	-0.119465	1.197367	0.500017
C79	C	-0.560067	0.696495	0.000024
C80	C	-0.060067	1.196495	0.500024
C81	C	-0.523428	0.759711	0.000026
C82	C	-0.023428	1.259711	0.500026
C83	C	-0.546188	0.823798	0.000022
C84	C	-0.046188	1.323798	0.500022
C85	C	-0.591703	0.951983	0.000006
C86	C	-0.091703	1.451983	0.500006
C87	C	-0.532299	0.951104	0.000005
C88	C	-0.032299	1.451104	0.500005
C89	C	-0.509540	0.887012	0.000010
C90	C	-0.009540	1.387012	0.500010
C91	C	-0.450152	0.886142	0.000031
C92	C	0.049848	1.386142	0.500031
N93	N	-0.427389	0.822054	0.000029
N94	N	0.072611	1.322054	0.500029
C95	C	-0.464027	0.758838	0.000026
C96	C	0.035973	1.258838	0.500026
C97	C	-0.812492	0.891464	0.000010
C98	C	-0.312492	1.391464	0.500010
C99	C	-0.871892	0.892338	0.000015
C100	C	-0.371892	1.392338	0.500015
C101	C	-0.885768	0.765029	0.000011
C102	C	-0.385768	1.265029	0.500011
C103	C	-0.826368	0.764156	0.000011
C104	C	-0.326368	1.264156	0.500011
C105	C	-0.789730	0.827376	0.000007
C106	C	-0.289730	1.327376	0.500007
C107	C	-0.339287	0.757012	0.000040
C108	C	0.160713	1.257012	0.500040
C109	C	-0.279883	0.756145	0.000050
C110	C	0.220117	1.256145	0.500050
C111	C	-0.266012	0.883454	0.000050
C112	C	0.233988	1.383454	0.500050
C113	C	-0.325410	0.884321	0.000045
C114	C	0.174590	1.384321	0.500045
C115	C	-0.362047	0.821094	0.000037
C116	C	0.137953	1.321094	0.500037
O117	O	-0.413487	0.939794	0.000056
O118	O	0.086513	1.439794	0.500056
O119	O	-0.439203	0.704254	0.000015
O120	O	0.060797	1.204254	0.500015
C121	C	0.028245	0.830061	0.000021
C122	C	0.528245	1.330061	0.500021
C123	C	0.091464	0.829122	0.000009
C124	C	0.591464	1.329122	0.500009
C125	C	-0.071415	0.951922	0.000036
C126	C	0.428585	1.451922	0.500036
C127	C	-0.072346	1.029424	0.000034
C128	C	0.427654	1.529424	0.500034
N129	N	-0.075883	0.824218	0.189734
N130	N	0.424117	1.324218	0.689734
N131	N	-0.075893	0.824270	-0.189666
N132	N	0.424107	1.324270	0.310334
C133	C	-0.037066	0.871969	0.228040
C134	C	0.462934	1.371969	0.728040
C135	C	-0.037064	0.871973	0.304685
C136	C	0.462936	1.371973	0.804685
C137	C	-0.075887	0.824234	0.343021
C138	C	0.424113	1.324234	0.843021
C139	C	-0.114706	0.776474	0.304706
C140	C	0.385294	1.276474	0.804706
C141	C	-0.114704	0.776467	0.228062
C142	C	0.385296	1.276467	0.728062
N143	N	-0.126302	0.814997	0.463359
N144	N	0.373698	1.314997	0.963359
N145	N	-0.126303	0.815009	0.536167
N146	N	0.373697	1.315009	1.036167
C147	C	-0.075895	0.824253	0.573943
C148	C	0.424105	1.324253	1.073943
N149	N	-0.025486	0.833500	0.536161
N150	N	0.474514	1.333500	1.036161
N151	N	-0.025486	0.833492	0.463347
N152	N	0.474514	1.333492	0.963347
C153	C	-0.075894	0.824237	0.426128
C154	C	0.424106	1.324237	0.926128
C155	C	-0.037073	0.872011	0.695357
C156	C	0.462927	1.372011	1.195357
C157	C	-0.037070	0.872011	0.772003
C158	C	0.462930	1.372011	1.272003
C159	C	-0.114717	0.776515	0.772022
C160	C	0.385283	1.276515	1.272022
C161	C	-0.114716	0.776513	0.695377
C162	C	0.385284	1.276513	1.195377
C163	C	-0.075894	0.824264	0.657049
C164	C	0.424106	1.324264	1.157049
H165	H	-0.074004	0.168289	0.120453
H166	H	0.425996	0.668289	0.620453
H167	H	-0.077756	0.480175	0.120454
H168	H	0.422244	0.980175	0.620454
H169	H	-0.005458	0.910893	0.803192
H170	H	0.494542	1.410893	1.303192
H171	H	-0.005454	0.910859	0.335880
H172	H	0.494546	1.410859	0.835880
H173	H	-0.146316	0.737603	0.335923
H174	H	0.353684	1.237603	0.835923
H175	H	-0.005461	0.910892	0.664149
H176	H	0.494539	1.410892	1.164149
H177	H	-0.072443	0.036203	-0.120389
H178	H	0.427557	0.536203	0.379611
H179	H	-0.072411	0.036178	0.120462
H180	H	0.427589	0.536178	0.620462
H181	H	-0.074031	0.168308	-0.120389
H182	H	0.425969	0.668308	0.379611
H183	H	-0.146314	0.737582	0.196873
H184	H	0.353686	1.237582	0.696873
H185	H	-0.236170	0.934923	0.000056
H186	H	0.263830	1.434923	0.500056
H187	H	-0.146326	0.737642	0.803235
H188	H	0.353674	1.237642	1.303235
H189	H	-0.649290	0.645886	0.000013
H190	H	-0.149290	1.145886	0.500013
H191	H	-0.146326	0.737632	0.664187
H192	H	0.353674	1.237632	1.164187
H193	H	-0.807842	0.711966	0.000018
H194	H	-0.307842	1.211966	0.500018
H195	H	-0.782664	0.942949	0.000012
H196	H	-0.282664	1.442949	0.500012
H197	H	-0.077782	0.480197	-0.120395
H198	H	0.422218	0.980197	0.379605
H199	H	-0.005454	0.910849	0.196836
H200	H	0.494546	1.410849	0.696836
H201	H	-0.261356	0.703951	0.000057
H202	H	0.238644	1.203951	0.500057
H203	H	-0.079359	0.612304	-0.120395
H204	H	0.420641	1.112304	0.379605
H205	H	-0.079344	0.612283	0.120451
H206	H	0.420656	1.112283	0.620451
H207	H	-0.369110	0.705526	0.000034
H208	H	0.130890	1.205526	0.500034
H209	H	-0.541542	0.644304	0.000021
H210	H	-0.041542	1.144304	0.500021
H211	H	-0.915611	0.713555	0.000010
H212	H	-0.415611	1.213555	0.500010
H213	H	-0.890417	0.944529	0.000023
H214	H	-0.390417	1.444529	0.500023
H215	H	-0.610223	1.004174	0.000001
H216	H	-0.110223	1.504174	0.500001
H217	H	-0.502470	1.002587	-0.000002
H218	H	-0.002470	1.502587	0.499998
H219	H	-0.343941	0.936511	0.000051
H220	H	0.156059	1.436511	0.500051
