data_functionalizedCrystal
_audit_creation_method	'MofGen! by Chris Wilmer'
_symmetry_space_group_name_H-M	'P1'
_symmetry_Int_Tables_number	1
_symmetry_cell_setting	triclinic
loop_
_symmetry_equiv_pos_as_xyz
  x,y,z
_cell_length_a	12.594517
_cell_length_b	12.594516
_cell_length_c	17.077396
_cell_angle_alpha	90.024821
_cell_angle_beta	90.012888
_cell_angle_gamma	90.011773
loop_
_atom_site_label
_atom_site_type_symbol
_atom_site_fract_x
_atom_site_fract_y
_atom_site_fract_z
Zn1	Zn	1.627283	-0.423743	0.443724
Zn2	Zn	1.627192	-0.601744	0.312467
Zn3	Zn	1.449292	-0.423780	0.312487
Zn4	Zn	1.449283	-0.601680	0.443705
O5	O	1.538262	-0.512737	0.378096
O6	O	1.776217	-0.447367	0.426312
O7	O	1.603558	-0.578179	0.202622
O8	O	1.472945	-0.274829	0.329913
O9	O	1.776150	-0.578143	0.329877
O10	O	1.603714	-0.274802	0.426332
O11	O	1.472856	-0.447429	0.202638
O12	O	1.300345	-0.447367	0.329894
O13	O	1.472929	-0.578034	0.553555
O14	O	1.300338	-0.578070	0.426300
O15	O	1.603706	-0.447305	0.553569
O16	O	1.603550	-0.750681	0.329859
O17	O	1.472840	-0.750634	0.426280
C18	C	1.261721	-0.512716	0.378098
C19	C	1.143416	-0.512733	0.378117
C20	C	1.003426	-0.583951	0.430455
C21	C	1.074201	-0.609853	0.358813
C22	C	1.074213	-0.486878	0.449751
C23	C	1.003405	-0.538720	0.306414
C24	C	1.003410	-0.415700	0.397400
C25	C	1.074153	-0.441565	0.325709
C26	C	1.538213	-0.789278	0.378082
C27	C	1.538289	-0.907583	0.378103
C28	C	1.609464	-0.976823	0.325715
C29	C	1.635473	-1.047525	0.397360
C30	C	1.512414	-1.047680	0.306503
C31	C	1.564347	-0.976727	0.449785
C32	C	1.441244	-0.976876	0.358880
C33	C	1.467215	-1.047546	0.430574
C34	C	1.815883	-0.512758	0.378094
C35	C	1.934189	-0.512767	0.378094
C36	C	1.538327	-0.512658	0.582840
C37	C	1.538354	-0.512625	0.670090
C38	C	1.538341	-0.235116	0.378127
C39	C	1.538374	-0.116811	0.378140
C40	C	1.538259	-0.512738	0.174148
C41	C	1.538438	-0.512472	0.086899
C42	C	1.606452	-0.444549	0.711089
C43	C	1.606465	-0.444513	0.793069
C44	C	1.538384	-0.512560	0.834050
C45	C	1.470279	-0.580640	0.793045
C46	C	1.470262	-0.580669	0.711066
C47	C	1.470322	-0.580576	0.963915
C48	C	1.470340	-0.580548	1.045900
C49	C	1.606525	-0.444420	1.045918
C50	C	1.606508	-0.444449	0.963939
C51	C	1.538403	-0.512530	0.922941
H52	H	1.105295	-0.691927	0.342488
Cl53	Cl	1.762241	-1.095418	0.422510
H54	H	1.661976	-0.388984	1.079303
Cl55	Cl	1.384741	-0.666083	1.097417
H56	H	1.414848	-0.635998	0.930537
Cl57	Cl	0.955594	-0.572656	0.212841
H58	H	1.586186	-0.945693	0.510403
Cl59	Cl	1.121790	-0.348592	0.257286
Cl60	Cl	1.692049	-0.359004	0.659579
Cl61	Cl	1.374341	-1.095194	0.499073
H62	H	1.414843	-0.636041	0.826418
H63	H	1.359161	-0.945817	0.342578
Cl64	Cl	0.955359	-0.289021	0.422637
Cl65	Cl	0.955474	-0.676980	0.498719
Cl66	Cl	1.122235	-0.453091	0.543294
H67	H	1.661919	-0.389081	0.826447
Cl68	Cl	1.702403	-0.928873	0.257377
Cl69	Cl	1.478570	-1.095800	0.212995
H70	H	1.661951	-0.389045	0.930575
Cl71	Cl	1.384646	-0.666251	0.659525
