data_functionalizedCrystal
_audit_creation_method	'MofGen! by Chris Wilmer'
_symmetry_space_group_name_H-M	'P1'
_symmetry_Int_Tables_number	1
_symmetry_cell_setting	triclinic
loop_
_symmetry_equiv_pos_as_xyz
  x,y,z
_cell_length_a	13.033293
_cell_length_b	18.050589
_cell_length_c	13.032268
_cell_angle_alpha	97.149417
_cell_angle_beta	89.079182
_cell_angle_gamma	97.198160
loop_
_atom_site_label
_atom_site_type_symbol
_atom_site_fract_x
_atom_site_fract_y
_atom_site_fract_z
Zn1	Zn	1.498401	-0.231056	-0.781488
Zn2	Zn	1.520116	-0.337783	-0.609517
Zn3	Zn	1.348263	-0.227134	-0.587664
Zn4	Zn	1.326359	-0.368742	-0.759558
O5	O	1.423285	-0.291179	-0.684557
O6	O	1.645204	-0.233898	-0.776999
O7	O	1.515574	-0.308507	-0.462710
O8	O	1.368258	-0.123726	-0.613406
O9	O	1.661157	-0.312310	-0.650653
O10	O	1.478564	-0.126607	-0.755808
O11	O	1.389314	-0.227214	-0.446654
O12	O	1.201435	-0.257234	-0.592142
O13	O	1.330926	-0.365076	-0.906376
O14	O	1.185343	-0.361273	-0.718432
O15	O	1.457325	-0.263919	-0.922488
O16	O	1.494335	-0.445819	-0.629389
O17	O	1.351982	-0.468564	-0.739623
C18	C	1.156072	-0.312188	-0.650537
C19	C	1.041754	-0.321197	-0.636007
C20	C	0.982881	-0.286496	-0.692140
C21	C	0.864727	-0.295806	-0.677124
C22	C	1.423163	-0.484139	-0.684524
C23	C	1.423200	-0.566684	-0.684556
C24	C	1.345859	-0.778523	-0.744486
C25	C	1.332713	-0.820398	-0.647460
C26	C	1.423300	-0.717808	-0.684582
C27	C	1.436495	-0.823013	-0.781626
C28	C	1.423393	-0.863788	-0.684616
C29	C	1.410111	-0.758594	-0.587500
C30	C	1.513927	-0.761207	-0.721735
C31	C	1.500825	-0.803050	-0.624649
C32	C	1.423243	-0.633713	-0.684564
C33	C	1.423450	-0.947880	-0.684624
C34	C	1.691541	-0.270088	-0.718710
C35	C	1.805856	-0.261100	-0.733264
C36	C	1.389260	-0.318388	-0.952789
C37	C	1.374761	-0.329983	-1.067094
C38	C	1.423432	-0.097465	-0.684616
C39	C	1.423495	-0.014916	-0.684641
C40	C	1.430836	-0.285102	-1.126026
C41	C	1.415852	-0.297085	-1.244166
C42	C	1.457236	-0.264017	-0.417375
C43	C	1.471935	-0.252197	-0.303097
H44	H	1.019951	-0.249893	-0.751310
H45	H	1.256115	-0.846254	-0.616062
H46	H	0.842920	-0.224493	-0.792437
H47	H	1.398897	-0.730640	-0.505411
H48	H	1.489934	-0.237804	-1.089017
Br49	Br	0.802959	-0.356807	-0.578480
Br50	Br	1.236589	-0.759889	-0.828770
H51	H	1.004684	-0.357795	-0.576832
H52	H	1.566362	-0.814081	-0.573937
Br53	Br	1.641559	-0.718123	-0.774137
Br54	Br	1.455035	-0.869768	-0.918388
Br55	Br	1.317328	-0.375916	-1.305832
Br56	Br	1.570464	-0.173369	-1.241435
Br57	Br	1.276241	-0.408811	-1.128764
