data_functionalizedCrystal
_audit_creation_method	'MofGen! by Chris Wilmer'
_symmetry_space_group_name_H-M	'P1'
_symmetry_Int_Tables_number	1
_symmetry_cell_setting	triclinic
loop_
_symmetry_equiv_pos_as_xyz
  x,y,z
_cell_length_a	25.639242
_cell_length_b	19.805407
_cell_length_c	19.805407
_cell_angle_alpha	90.007450
_cell_angle_beta	89.997981
_cell_angle_gamma	89.996499
loop_
_atom_site_label
_atom_site_type_symbol
_atom_site_fract_x
_atom_site_fract_y
_atom_site_fract_z
Zn1	Zn	0.208274	1.034762	0.382741
Zn2	Zn	0.708274	1.534762	0.882741
Zn3	Zn	0.295686	1.034737	0.269575
Zn4	Zn	0.795686	1.534737	0.769575
Zn5	Zn	0.208262	0.921597	0.269569
Zn6	Zn	0.708262	1.421597	0.769569
Zn7	Zn	0.295676	0.921580	0.382725
Zn8	Zn	0.795676	1.421580	0.882725
O9	O	0.251975	0.978169	0.326152
O10	O	0.751975	1.478169	0.826152
O11	O	0.219878	1.129475	0.367738
O12	O	0.719878	1.629475	0.867738
O13	O	0.284089	1.019725	0.174857
O14	O	0.784089	1.519725	0.674857
O15	O	0.135099	0.936626	0.284585
O16	O	0.635099	1.436626	0.784585
O17	O	0.284100	1.129457	0.284596
O18	O	0.784100	1.629457	0.784596
O19	O	0.135107	1.019768	0.367732
O20	O	0.635107	1.519768	0.867732
O21	O	0.219859	0.936602	0.174853
O22	O	0.719859	1.436602	0.674853
O23	O	0.219849	0.826878	0.284570
O24	O	0.719849	1.326878	0.784570
O25	O	0.284082	0.936597	0.477444
O26	O	0.784082	1.436597	0.977444
O27	O	0.284071	0.826865	0.367705
O28	O	0.784071	1.326865	0.867705
O29	O	0.219869	1.019751	0.477455
O30	O	0.719869	1.519751	0.977455
O31	O	0.368850	1.019709	0.284580
O32	O	0.868850	1.519709	0.784580
O33	O	0.368843	0.936573	0.367711
O34	O	0.868843	1.436573	0.867711
C35	C	0.251958	0.802313	0.326136
C36	C	0.751958	1.302313	0.826136
C37	C	0.251964	0.727081	0.326145
C38	C	0.751964	1.227081	0.826145
C39	C	0.115602	0.978201	0.326160
C40	C	0.615602	1.478201	0.826160
C41	C	0.057488	0.978215	0.326163
C42	C	0.557488	1.478215	0.826163
C43	C	0.218583	0.691747	0.369503
C44	C	0.718583	1.191747	0.869503
C45	C	0.218586	0.621058	0.369506
C46	C	0.718586	1.121058	0.869506
C47	C	0.251972	0.585705	0.326153
C48	C	0.751972	1.085705	0.826153
C49	C	0.285355	0.621044	0.282790
C50	C	0.785355	1.121044	0.782790
C51	C	0.285349	0.691731	0.282785
C52	C	0.785349	1.191731	0.782785
C53	C	0.285378	0.335971	0.282811
C54	C	0.785378	0.835971	0.782811
C55	C	0.285383	0.265279	0.282821
C56	C	0.785383	0.765279	0.782821
C57	C	0.218615	0.265298	0.369532
C58	C	0.718615	0.765298	0.869532
C59	C	0.218609	0.335985	0.369526
C60	C	0.718609	0.835985	0.869526
C61	C	0.251989	0.371318	0.326161
C62	C	0.751989	0.871318	0.826161
C63	C	0.251985	0.447966	0.326158
C64	C	0.751985	0.947966	0.826158
C65	C	0.251979	0.509058	0.326159
C66	C	0.751979	1.009058	0.826159
C67	C	-0.302886	0.934913	0.282890
C68	C	0.197114	1.434913	0.782890
C69	C	-0.357490	0.934912	0.282893
C70	C	0.142510	1.434912	0.782893
O71	O	-0.385735	0.898084	0.246097
O72	O	0.114265	1.398084	0.746097
N73	N	-0.384795	0.978202	0.326183
N74	N	0.115205	1.478202	0.826183
C75	C	-0.357493	1.021490	0.369476
C76	C	0.142507	1.521490	0.869476
O77	O	-0.385732	1.058311	0.406297
O78	O	0.114268	1.558311	0.906297
C79	C	-0.302890	1.021487	0.369476
C80	C	0.197110	1.521487	0.869476
C81	C	-0.275587	0.978200	0.326179
C82	C	0.224413	1.478200	0.826179
C83	C	-0.275583	0.891629	0.239598
C84	C	0.224417	1.391629	0.739598
C85	C	-0.220983	0.891630	0.239594
C86	C	0.279017	1.391630	0.739594
C87	C	-0.193684	0.934917	0.282882
C88	C	0.306316	1.434917	0.782882
C89	C	-0.220987	0.978201	0.326175
C90	C	0.279013	1.478201	0.826175
C91	C	-0.275589	1.064771	0.412772
C92	C	0.224411	1.564771	0.912772
C93	C	-0.220981	1.064764	0.412768
C94	C	0.279019	1.564764	0.912768
C95	C	-0.193679	1.021477	0.369472
C96	C	0.306321	1.521477	0.869472
C97	C	-0.139088	1.021490	0.369460
C98	C	0.360912	1.521490	0.869460
N99	N	-0.111783	0.978200	0.326171
N100	N	0.388217	1.478200	0.826171
C101	C	-0.139081	0.934914	0.282882
C102	C	0.360919	1.434914	0.782882
C103	C	-0.472164	1.021493	0.369474
C104	C	0.027836	1.521493	0.869474
C105	C	-0.526766	1.021500	0.369472
C106	C	-0.026766	1.521500	0.869472
C107	C	-0.526759	0.934921	0.282890
C108	C	-0.026759	1.434921	0.782890
C109	C	-0.472156	0.934918	0.282890
C110	C	0.027844	1.434918	0.782890
C111	C	-0.444858	0.978203	0.326185
C112	C	0.055142	1.478203	0.826185
C113	C	-0.024416	0.934921	0.282876
C114	C	0.475584	1.434921	0.782876
C115	C	0.030189	0.934929	0.282874
C116	C	0.530189	1.434929	0.782874
C117	C	0.030178	1.021505	0.369458
C118	C	0.530178	1.521505	0.869458
C119	C	-0.024423	1.021500	0.369458
C120	C	0.475577	1.521500	0.869458
C121	C	-0.051718	0.978203	0.326165
C122	C	0.448282	1.478203	0.826165
O123	O	-0.110808	1.058297	0.406239
O124	O	0.389192	1.558297	0.906239
O125	O	-0.110835	0.898093	0.246073
O126	O	0.389165	1.398093	0.746073
C127	C	0.387817	0.978155	0.326159
C128	C	0.887817	1.478155	0.826159
C129	C	0.445931	0.978211	0.326185
C130	C	0.945931	1.478211	0.826185
C131	C	0.251976	0.978175	0.502695
C132	C	0.751976	1.478175	1.002695
C133	C	0.251976	0.978177	0.577927
C134	C	0.751976	1.478177	1.077927
C135	C	0.251991	1.154711	0.326169
C136	C	0.751991	1.654711	0.826169
C137	C	0.251999	1.229943	0.326176
C138	C	0.751999	1.729943	0.826176
C139	C	0.218545	1.021470	0.613278
C140	C	0.718545	1.521470	1.113278
C141	C	0.218543	1.021465	0.683967
C142	C	0.718543	1.521465	1.183967
C143	C	0.251976	0.978169	0.719303
C144	C	0.751976	1.478169	1.219303
C145	C	0.285409	0.934871	0.683946
C146	C	0.785409	1.434871	1.183946
C147	C	0.285407	0.934874	0.613259
C148	C	0.785407	1.434874	1.113259
C149	C	0.285415	0.934858	0.969020
C150	C	0.785415	1.434858	1.469020
C151	C	0.285415	0.934859	1.039712
C152	C	0.785415	1.434859	1.539712
C153	C	0.218551	1.021448	1.039727
C154	C	0.718551	1.521448	1.539727
C155	C	0.218550	1.021451	0.969040
C156	C	0.718550	1.521451	1.469040
C157	C	0.251980	0.978151	0.933690
C158	C	0.751980	1.478151	1.433690
C159	C	0.251981	0.978157	0.857041
C160	C	0.751981	1.478157	1.357041
C161	C	0.251978	0.978166	0.795950
C162	C	0.751978	1.478166	1.295950
C163	C	0.251984	0.978156	1.150296
C164	C	0.751984	1.478156	1.650296
C165	C	0.251980	0.978149	1.075064
C166	C	0.751980	1.478149	1.575064
H167	H	0.191397	0.720526	0.404808
H168	H	0.691397	1.220526	0.904808
O169	O	0.317811	0.892749	0.578891
O170	O	0.817811	1.392749	1.078891
C171	C	0.324843	0.801390	0.499042
C172	C	0.824843	1.301390	0.999042
C173	C	0.288085	0.849047	0.537931
C174	C	0.788085	1.349047	1.037931
H175	H	0.300824	0.766055	0.465906
H176	H	0.800824	1.266055	0.965906
H177	H	0.348728	0.770399	0.536413
H178	H	0.848728	1.270399	1.036413
H179	H	0.352195	0.832473	0.465982
H180	H	0.852195	1.332473	0.965982
H181	H	0.260701	0.818016	0.570992
H182	H	0.760701	1.318016	1.070992
H183	H	0.264236	0.880040	0.500524
H184	H	0.764236	1.380040	1.000524
O185	O	0.186008	1.063421	0.718332
O186	O	0.686008	1.563421	1.218332
C187	C	0.115428	1.072535	0.798159
C188	C	0.615428	1.572535	1.298159
C189	C	0.152240	1.024944	0.759274
C190	C	0.652240	1.524944	1.259274
H191	H	0.088125	1.041446	0.831281
H192	H	0.588125	1.541446	1.331281
H193	H	0.091498	1.103465	0.760786
H194	H	0.591498	1.603465	1.260786
H195	H	0.139440	1.107936	0.831233
H196	H	0.639440	1.607936	1.331233
H197	H	0.128268	0.989502	0.726199
H198	H	0.628268	1.489502	1.226199
H199	H	0.176172	0.994061	0.796684
H200	H	0.676172	1.494061	1.296684
O201	O	0.186227	0.370431	0.411617
O202	O	0.686227	0.870431	0.911617
C203	C	0.156603	0.479336	0.450006
C204	C	0.656603	0.979336	0.950006
C205	C	0.193313	0.440412	0.402317
C206	C	0.693313	0.940412	0.902317
H207	H	0.162312	0.535922	0.442493
H208	H	0.662312	1.035922	0.942493
H209	H	0.165851	0.465501	0.504581
H210	H	0.665851	0.965501	1.004581
H211	H	0.114437	0.465392	0.438215
H212	H	0.614437	0.965392	0.938215
H213	H	0.235492	0.454335	0.414047
H214	H	0.735492	0.954335	0.914047
H215	H	0.184021	0.454250	0.347756
H216	H	0.684021	0.954250	0.847756
O217	O	-0.553363	0.892888	0.240906
O218	O	-0.053363	1.392888	0.740906
C219	C	-0.637486	0.854552	0.202524
C220	C	-0.137486	1.354552	0.702524
C221	C	-0.607421	0.902173	0.250112
C222	C	-0.107421	1.402173	0.750112
H223	H	-0.681198	0.862053	0.209941
H224	H	-0.181198	1.362053	0.709941
H225	H	-0.626789	0.799960	0.214409
H226	H	-0.126789	1.299960	0.714409
H227	H	-0.626724	0.866423	0.147952
H228	H	-0.126724	1.366423	0.647952
H229	H	-0.618168	0.890363	0.304700
H230	H	-0.118168	1.390363	0.804700
H231	H	-0.618121	0.956751	0.238170
H232	H	-0.118121	1.456751	0.738170
H233	H	0.191433	0.236521	0.404840
H234	H	0.691433	0.736521	0.904840
O235	O	-0.302077	1.106748	0.454931
O236	O	0.197923	1.606748	0.954931
C237	C	-0.318739	1.139626	0.570075
C238	C	0.181261	1.639626	1.070075
C239	C	-0.288720	1.092032	0.522403
C240	C	0.211280	1.592032	1.022403
H241	H	-0.307943	1.127754	0.624635
H242	H	0.192057	1.627754	1.124635
H243	H	-0.362463	1.132200	0.562710
H244	H	0.137537	1.632200	1.062710
H245	H	-0.308005	1.194197	0.558162
H246	H	0.191995	1.694197	1.058162
H247	H	-0.299410	1.037442	0.534286
H248	H	0.200590	1.537442	1.034286
H249	H	-0.245003	1.099516	0.529776
H250	H	0.254997	1.599516	1.029776
H251	H	0.312640	0.899600	1.068480
H252	H	0.812640	1.399600	1.568480
H253	H	0.312571	0.236496	0.247516
H254	H	0.812571	0.736496	0.747516
O255	O	0.186143	0.586840	0.411688
O256	O	0.686143	1.086840	0.911688
C257	C	0.119894	0.594318	0.497668
C258	C	0.619894	1.094318	0.997668
C259	C	0.156620	0.633154	0.449942
C260	C	0.656620	1.133154	0.949942
H261	H	0.096008	0.631746	0.528599
H262	H	0.596008	1.131746	1.028599
H263	H	0.143918	0.561249	0.533056
H264	H	0.643918	1.061249	1.033056
H265	H	0.092541	0.561201	0.466641
H266	H	0.592541	1.061201	0.966641
H267	H	0.183981	0.666308	0.480915
H268	H	0.683981	1.166308	0.980915
H269	H	0.132564	0.666181	0.414552
H270	H	0.632564	1.166181	0.914552
H271	H	-0.548992	1.056756	0.404720
H272	H	-0.048992	1.556756	0.904720
O273	O	0.317853	0.370183	0.240668
O274	O	0.817853	0.870183	0.740668
C275	C	0.384056	0.362698	0.154630
C276	C	0.884056	0.862698	0.654630
C277	C	0.347313	0.323865	0.202336
C278	C	0.847313	0.823865	0.702336
H279	H	0.407876	0.325267	0.123616
H280	H	0.907876	0.825267	0.623616
H281	H	0.411466	0.395784	0.185608
H282	H	0.911466	0.895784	0.685608
H283	H	0.359997	0.395798	0.119313
H284	H	0.859997	0.895798	0.619313
H285	H	0.371330	0.290728	0.237663
H286	H	0.871330	0.790728	0.737663
H287	H	0.319901	0.290822	0.171316
H288	H	0.819901	0.790822	0.671316
H289	H	-0.046653	1.056756	0.404707
H290	H	0.453347	1.556756	0.904707
O291	O	0.317770	0.586600	0.240740
O292	O	0.817770	1.086600	0.740740
C293	C	0.347350	0.477696	0.202290
C294	C	0.847350	0.977696	0.702290
C295	C	0.310621	0.516618	0.249957
C296	C	0.810621	1.016618	0.749957
H297	H	0.341575	0.421110	0.209715
H298	H	0.841575	0.921110	0.709715
H299	H	0.389534	0.491551	0.214088
H300	H	0.889534	0.991551	0.714088
H301	H	0.338107	0.491622	0.147738
H302	H	0.838107	0.991622	0.647738
H303	H	0.319817	0.502713	0.304525
H304	H	0.819817	1.002713	0.804525
H305	H	0.268448	0.502761	0.238101
H306	H	0.768448	1.002761	0.738101
H307	H	0.052414	1.056750	0.404701
H308	H	0.552414	1.556750	0.904701
O309	O	0.317827	0.725952	0.240648
O310	O	0.817827	1.225952	0.740648
C311	C	0.384034	0.718478	0.154613
C312	C	0.884034	1.218478	0.654613
C313	C	0.347289	0.679640	0.202313
C314	C	0.847289	1.179640	0.702313
H315	H	0.407855	0.681051	0.123597
H316	H	0.907855	1.181051	0.623597
H317	H	0.411442	0.751562	0.185597
H318	H	0.911442	1.251562	0.685597
H319	H	0.359975	0.751581	0.119298
H320	H	0.859975	1.251581	0.619298
H321	H	0.371305	0.646500	0.237638
H322	H	0.871305	1.146500	0.737638
H323	H	0.319879	0.646599	0.171287
H324	H	0.819879	1.146599	0.671287
O325	O	0.056629	0.892812	0.240794
O326	O	0.556629	1.392812	0.740794
C327	C	0.050863	0.806966	0.154889
C328	C	0.550863	1.306966	0.654889
C329	C	0.020858	0.854617	0.202518
C330	C	0.520858	1.354617	0.702518
H331	H	0.021955	0.776083	0.123921
H332	H	0.521955	1.276083	0.623921
H333	H	0.076415	0.771530	0.185925
H334	H	0.576415	1.271530	0.685925
H335	H	0.076439	0.838050	0.119526
H336	H	0.576439	1.338050	0.619526
H337	H	-0.004746	0.823588	0.237891
H338	H	0.495254	1.323588	0.737891
H339	H	-0.004661	0.890055	0.171440
H340	H	0.495339	1.390055	0.671440
H341	H	-0.046634	0.899664	0.247624
H342	H	0.453366	1.399664	0.747624
H343	H	-0.198759	1.100008	0.448031
H344	H	0.301241	1.600008	0.948031
O345	O	-0.445730	1.063612	0.411551
O346	O	0.054270	1.563612	0.911551
C347	C	-0.451511	1.149457	0.497457
C348	C	0.048489	1.649457	0.997457
C349	C	-0.481508	1.101805	0.449827
C350	C	0.018492	1.601805	0.949827
H351	H	-0.480424	1.180338	0.528426
H352	H	0.019576	1.680338	1.028426
H353	H	-0.425961	1.184894	0.466421
H354	H	0.074039	1.684894	0.966421
H355	H	-0.425933	1.118374	0.532820
H356	H	0.074067	1.618374	1.032820
H357	H	-0.507114	1.132833	0.414455
H358	H	-0.007114	1.632833	0.914455
H359	H	-0.507024	1.066365	0.480905
H360	H	-0.007024	1.566365	0.980905
O361	O	-0.302153	0.849672	0.197509
O362	O	0.197847	1.349672	0.697509
C363	C	-0.363761	0.840567	0.106082
C364	C	0.136239	1.340567	0.606082
C365	C	-0.333718	0.888157	0.153724
C366	C	0.166282	1.388157	0.653724
H367	H	-0.389280	0.871664	0.070661
H368	H	0.110720	1.371664	0.570661
H369	H	-0.389362	0.805182	0.137107
H370	H	0.110638	1.305182	0.637107
H371	H	-0.334850	0.809620	0.075176
H372	H	0.165150	1.309620	0.575176
H373	H	-0.362592	0.919149	0.184640
H374	H	0.137408	1.419149	0.684640
H375	H	-0.308109	0.923498	0.122660
H376	H	0.191891	1.423498	0.622660
H377	H	-0.198758	0.856380	0.204338
H378	H	0.301242	1.356380	0.704338
H379	H	-0.449930	0.899668	0.247634
H380	H	0.050070	1.399668	0.747634
H381	H	0.191322	1.056729	0.584513
H382	H	0.691322	1.556729	1.084513
H383	H	0.191327	1.056710	0.940273
H384	H	0.691327	1.556710	1.440273
O385	O	0.186088	1.063442	1.074172
O386	O	0.686088	1.563442	1.574172
C387	C	0.156471	1.101844	1.183075
C388	C	0.656471	1.601844	1.683075
C389	C	0.193251	1.054242	1.144154
C390	C	0.693251	1.554242	1.644154
H391	H	0.162258	1.094433	1.239662
H392	H	0.662258	1.594433	1.739662
H393	H	0.114300	1.089969	1.169224
H394	H	0.614300	1.589969	1.669224
H395	H	0.165654	1.156412	1.169145
H396	H	0.665654	1.656412	1.669145
H397	H	0.184116	0.999658	1.158062
H398	H	0.684116	1.499658	1.658062
H399	H	0.235412	1.066175	1.158007
H400	H	0.735412	1.566175	1.658007
O401	O	0.317930	0.892768	0.934791
O402	O	0.817930	1.392768	1.434791
C403	C	0.384211	0.806827	0.942242
C404	C	0.884211	1.306827	1.442242
C405	C	0.347426	0.854479	0.981093
C406	C	0.847426	1.354479	1.481093
H407	H	0.408059	0.775848	0.979660
H408	H	0.908059	1.275848	1.479660
H409	H	0.411592	0.837845	0.909160
H410	H	0.911592	1.337845	1.409160
H411	H	0.360182	0.771475	0.909136
H412	H	0.860182	1.271475	1.409136
H413	H	0.371412	0.889841	1.014236
H414	H	0.871412	1.389841	1.514236
H415	H	0.320043	0.823419	1.014133
H416	H	0.820043	1.323419	1.514133
H417	H	0.312628	0.899616	0.712722
H418	H	0.812628	1.399616	1.212722
