data_functionalizedCrystal
_audit_creation_method	'MofGen! by Chris Wilmer'
_symmetry_space_group_name_H-M	'P1'
_symmetry_Int_Tables_number	1
_symmetry_cell_setting	triclinic
loop_
_symmetry_equiv_pos_as_xyz
  x,y,z
_cell_length_a	13.101039
_cell_length_b	8.559649
_cell_length_c	8.559649
_cell_angle_alpha	69.778664
_cell_angle_beta	92.890182
_cell_angle_gamma	87.117232
loop_
_atom_site_label
_atom_site_type_symbol
_atom_site_fract_x
_atom_site_fract_y
_atom_site_fract_z
O1	O	0.085198	-2.136903	0.065082
O2	O	0.085203	-1.661418	-0.018699
O3	O	0.085198	-1.941051	0.260934
O4	O	0.085203	-1.857270	-0.214550
O5	O	-0.085232	-1.920984	0.240841
O6	O	-0.085227	-1.641351	-0.038791
O7	O	-0.085231	-2.116836	0.044989
Zn8	Zn	-0.112288	-1.875908	-0.000091
Zn9	Zn	0.112260	-1.902347	0.026382
O10	O	-0.085226	-1.837203	-0.234643
C11	C	-0.000011	-1.591076	-0.035094
C12	C	-0.000010	-1.411377	-0.053993
N13	N	-0.265537	-1.857876	-0.018156
C14	C	-0.000016	-1.937367	0.311197
C15	C	-0.000011	-1.956266	0.490896
C16	C	-0.474579	-1.833340	-0.042749
C17	C	-0.525456	-1.944922	0.069048
C18	C	-0.641775	-1.931271	0.055364
C19	C	-0.358250	-1.846990	-0.029068
N20	N	0.265508	-1.920393	0.044461
C21	C	-0.000015	-2.187178	0.061385
C22	C	-0.000010	-2.366878	0.080285
C23	C	-0.000011	-1.840888	-0.284906
C24	C	-0.000008	-1.821989	-0.464605
H25	H	-0.481656	-2.050704	0.175036
H26	H	-0.000016	-2.085685	0.590274
C27	C	-0.533736	-1.690418	-0.185896
H28	H	-0.486521	-1.622182	-0.254232
H29	H	-0.575602	-1.735752	-0.251029
H30	H	-0.575581	-1.625114	-0.140719
H31	H	-0.000015	-1.692560	0.436006
H32	H	-0.000003	-1.311989	-0.183420
C33	C	-0.000015	-1.501120	0.255123
H34	H	-0.000024	-1.608338	0.245316
H35	H	0.059415	-1.495931	0.320967
H36	H	-0.059457	-1.481930	0.306941
