data_functionalizedCrystal
_audit_creation_method	'MofGen! by Chris Wilmer'
_symmetry_space_group_name_H-M	'P1'
_symmetry_Int_Tables_number	1
_symmetry_cell_setting	triclinic
loop_
_symmetry_equiv_pos_as_xyz
  x,y,z
_cell_length_a	12.759399
_cell_length_b	14.908782
_cell_length_c	14.908308
_cell_angle_alpha	83.240320
_cell_angle_beta	86.730536
_cell_angle_gamma	86.722205
loop_
_atom_site_label
_atom_site_type_symbol
_atom_site_fract_x
_atom_site_fract_y
_atom_site_fract_z
Zn1	Zn	-0.538211	1.354259	0.431811
Zn2	Zn	-0.704326	1.362908	0.280462
Zn3	Zn	-0.519092	1.211633	0.289216
Zn4	Zn	-0.704268	1.202882	0.440523
O5	O	-0.616474	1.282921	0.360503
O6	O	-0.568272	1.482068	0.404426
O7	O	-0.671778	1.350124	0.154961
O8	O	-0.374611	1.230595	0.308149
O9	O	-0.690317	1.488422	0.293230
O10	O	-0.388658	1.335382	0.412913
O11	O	-0.535686	1.238982	0.161392
O12	O	-0.535630	1.083811	0.316596
O13	O	-0.690218	1.215680	0.566030
O14	O	-0.671678	1.077381	0.427761
O15	O	-0.568216	1.326896	0.559630
O16	O	-0.851336	1.341638	0.301677
O17	O	-0.851293	1.224067	0.419273
C18	C	-0.601574	1.047754	0.374074
C19	C	-0.595226	0.947148	0.379901
C20	C	-0.710187	0.764724	0.274887
C21	C	-0.704226	0.670195	0.280359
C22	C	-0.577349	0.663560	0.396323
C23	C	-0.583310	0.758089	0.390850
C24	C	-0.649730	0.808667	0.330129
C25	C	-0.655685	0.903198	0.324653
C26	C	-0.528814	0.896561	0.440620
C27	C	-0.522853	0.802033	0.446093
C28	C	-0.889437	1.282865	0.360489
C29	C	-1.006219	1.282922	0.360508
C30	C	-1.170807	1.344264	0.299361
C31	C	-1.061077	1.344207	0.299337
C32	C	-1.061094	1.221685	0.421700
C33	C	-1.170821	1.221739	0.421718
C34	C	-1.225661	1.405559	0.238192
C35	C	-1.170792	1.466795	0.176998
C36	C	-1.061063	1.466738	0.176975
C37	C	-1.006202	1.405444	0.238146
C38	C	-0.342449	1.283000	0.360536
C39	C	-0.225675	1.283034	0.360550
C40	C	-0.631343	1.269347	0.596590
C41	C	-0.637679	1.263563	0.697197
C42	C	-0.631434	1.519005	0.346880
C43	C	-0.637808	1.619610	0.341074
C44	C	-0.601591	1.296493	0.125331
C45	C	-0.594970	1.302453	0.024715
C46	C	-0.522520	1.368500	0.879584
C47	C	-0.528470	1.363069	0.974112
C48	C	-0.655522	1.247263	0.980784
C49	C	-0.649573	1.252695	0.886256
C50	C	-0.583070	1.313317	0.835659
C51	C	-0.577127	1.318753	0.741128
C52	C	-0.704173	1.202943	0.747802
C53	C	-0.710123	1.197511	0.842330
H54	H	-0.468779	0.760839	0.495532
O55	O	-0.720117	0.952470	0.265695
C56	C	-0.785586	1.101032	0.205911
C57	C	-0.712551	1.045347	0.272703
H58	H	-0.779511	1.176133	0.211567
H59	H	-0.761250	1.086697	0.134004
H60	H	-0.870134	1.081480	0.222760
H61	H	-0.627982	1.064866	0.255937
H62	H	-0.736977	1.059687	0.344591
H63	H	-1.215467	1.516694	0.127191
H64	H	-0.764262	0.805906	0.225440
H65	H	-0.753459	0.634420	0.235377
O66	O	-1.007647	1.162240	0.481088
C67	C	-0.838608	1.107829	0.535257
C68	C	-0.899005	1.175210	0.467962
H69	H	-0.750759	1.118278	0.524655
H70	H	-0.865657	1.119479	0.607364
H71	H	-0.854701	1.035793	0.523528
H72	H	-0.882941	1.247271	0.479608
H73	H	-0.871947	1.163481	0.395878
H74	H	-1.315008	1.405615	0.238205
O75	O	-0.763094	1.149289	0.705275
C76	C	-0.889679	1.033803	0.721874
C77	C	-0.823030	1.094525	0.770150
H78	H	-0.938138	0.989497	0.774305
H79	H	-0.944531	1.077837	0.675241
H80	H	-0.835641	0.989073	0.680329
H81	H	-0.876987	1.139264	0.811743
H82	H	-0.768168	1.050437	0.816730
H83	H	-0.523283	0.622363	0.445766
H84	H	-0.468377	1.417866	0.838387
O85	O	-1.223969	1.162231	0.481247
C86	C	-1.212412	1.040669	0.602582
C87	C	-1.152094	1.108030	0.535230
H88	H	-1.154325	0.996818	0.646232
H89	H	-1.269302	1.079445	0.647618
H90	H	-1.258268	0.995834	0.563708
H91	H	-1.106177	1.152883	0.574032
H92	H	-1.095266	1.069198	0.490195
H93	H	-0.522979	1.368115	0.699933
H94	H	-0.479581	0.932350	0.485599
H95	H	-1.016390	1.516592	0.127144
O96	O	-0.469617	1.416769	1.016637
C97	C	-0.342922	1.532166	1.000042
C98	C	-0.409538	1.471417	0.951768
H99	H	-0.294315	1.576350	0.947618
H100	H	-0.396889	1.577002	1.041532
H101	H	-0.288190	1.488064	1.046728
H102	H	-0.464278	1.515449	0.905037
H103	H	-0.355510	1.426574	0.910335
H104	H	-0.916851	1.405392	0.238112
O105	O	-0.720251	1.188427	1.029846
C106	C	-0.897997	1.142807	1.061366
C107	C	-0.824812	1.209485	1.005726
H108	H	-0.982553	1.159821	1.041899
H109	H	-0.873841	1.070881	1.046980
H110	H	-0.891777	1.148394	1.136467
H111	H	-0.830996	1.203979	0.930608
H112	H	-0.848989	1.281384	1.020188
H113	H	-0.764264	1.148153	0.883539
