data_functionalizedCrystal
_audit_creation_method	'MofGen! by Chris Wilmer'
_symmetry_space_group_name_H-M	'P1'
_symmetry_Int_Tables_number	1
_symmetry_cell_setting	triclinic
loop_
_symmetry_equiv_pos_as_xyz
  x,y,z
_cell_length_a	14.044220
_cell_length_b	15.538191
_cell_length_c	14.185569
_cell_angle_alpha	82.124202
_cell_angle_beta	75.620253
_cell_angle_gamma	109.769514
loop_
_atom_site_label
_atom_site_type_symbol
_atom_site_fract_x
_atom_site_fract_y
_atom_site_fract_z
O1	O	-0.271175	-1.205756	-0.083422
O2	O	-0.164802	-0.940435	-0.083425
O3	O	-0.354606	-1.069115	-0.083414
O4	O	-0.081371	-1.077076	-0.083433
O5	O	-0.410672	-1.107129	0.083424
O6	O	-0.220867	-0.978449	0.083413
O7	O	-0.327240	-1.243770	0.083415
Cu8	Cu	-0.279173	-1.114580	0.098648
Cu9	Cu	-0.212869	-1.069625	-0.098657
O10	O	-0.137436	-1.115089	0.083404
C11	C	-0.181705	-0.925281	-0.000006
C12	C	-0.148554	-0.823493	-0.000006
C13	C	-0.416754	-1.084636	0.000006
C14	C	-0.518402	-1.074236	0.000007
C15	C	-0.310336	-1.258923	-0.000005
C16	C	-0.343485	-1.360709	-0.000012
C17	C	-0.704517	-1.055220	-0.000008
C18	C	-0.787527	-1.128978	-0.000010
C19	C	-0.891087	-1.118398	-0.000018
C20	C	-0.600946	-1.065800	0.000000
C21	C	-0.075288	-1.099568	-0.000017
C22	C	0.026363	-1.109966	-0.000025
N23	N	-0.325810	-1.146206	0.237422
C24	C	-0.477901	-0.508030	0.000002
C25	C	-0.446726	-0.412383	-0.000001
C26	C	-0.271379	-0.404671	-0.000014
C27	C	-0.302540	-0.500321	-0.000006
C28	C	-0.405802	-0.551993	0.000001
C29	C	-0.230442	-0.544283	-0.000007
C30	C	-0.261599	-0.639923	-0.000004
C31	C	-0.364855	-0.691600	-0.000001
C32	C	-0.436960	-0.647632	0.000003
C33	C	-0.127178	-0.492608	-0.000020
C34	C	-0.055080	-0.536570	-0.000021
C35	C	-0.086239	-0.632213	-0.000012
C36	C	-0.189495	-0.683891	-0.000008
C37	C	-0.014135	-0.676181	-0.000016
C38	C	-0.045293	-0.771821	-0.000013
C39	C	-0.220653	-0.779531	-0.000005
N40	N	-0.166242	-1.038005	-0.237431
C41	C	-0.029261	-0.945085	0.605054
C42	C	-0.064584	-0.969048	0.710078
C43	C	-0.232618	-1.083023	0.710049
C44	C	-0.197311	-1.059066	0.605023
C45	C	-0.095631	-0.990097	0.552534
C46	C	-0.263681	-1.104079	0.552503
C47	C	-0.228374	-1.080128	0.447486
C48	C	-0.126697	-1.011163	0.394990
C49	C	-0.060324	-0.966146	0.447518
C50	C	-0.365358	-1.173053	0.604994
C51	C	-0.431728	-1.218065	0.552473
C52	C	-0.396424	-1.194109	0.447455
C53	C	-0.294747	-1.125145	0.394959
C54	C	-0.462797	-1.239127	0.394927
C55	C	-0.427490	-1.215175	0.289911
C56	C	-0.259440	-1.101193	0.289942
H57	H	-0.780793	-1.200055	-0.000077
H58	H	-0.711228	-0.984133	-0.000011
H59	H	-0.390217	-0.769473	-0.000012
O60	O	-0.092212	-0.987809	0.292976
C61	C	0.050642	-0.890848	0.142296
C62	C	0.011731	-0.917222	0.257823
H63	H	0.134675	-0.833762	0.113839
H64	H	0.051333	-0.955791	0.113706
H65	H	-0.005318	-0.863420	0.113814
H66	H	0.067656	-0.944630	0.286391
H67	H	0.011014	-0.852254	0.286345
O68	O	-0.320914	-0.829656	-0.000175
C69	C	-0.451307	-0.845799	-0.086566
C70	C	-0.337737	-0.788962	-0.086508
H71	H	-0.464952	-0.812909	-0.156349
H72	H	-0.461219	-0.921703	-0.086632
H73	H	-0.511860	-0.844828	-0.016709
H74	H	-0.277114	-0.789857	-0.156353
H75	H	-0.327914	-0.713086	-0.086390
H76	H	-0.521047	-0.689708	0.000015
H77	H	-0.505445	-0.376593	-0.000002
O78	O	-0.578236	-0.558085	-0.000036
C79	C	-0.748907	-0.555665	0.000035
C80	C	-0.635312	-0.498864	0.000058
H81	H	-0.795093	-0.507815	0.000132
H82	H	-0.744461	-0.584697	-0.069804
H83	H	-0.791288	-0.616564	0.069838
H84	H	-0.592867	-0.437924	-0.069699
H85	H	-0.639833	-0.469903	0.069943
O86	O	-0.171060	-0.354345	-0.000151
C87	C	-0.005039	-0.222233	-0.086618
C88	C	-0.118632	-0.279127	-0.086579
H89	H	0.037390	-0.161420	-0.156498
H90	H	-0.009487	-0.193097	-0.016846
H91	H	0.041101	-0.270115	-0.086566
H92	H	-0.164836	-0.231306	-0.086667
H93	H	-0.114106	-0.308275	-0.156345
O94	O	-0.096833	-0.399728	0.000112
C95	C	-0.033115	-0.280066	0.086568
C96	C	-0.067426	-0.385272	0.086531
H97	H	-0.009352	-0.268348	0.156441
H98	H	0.037712	-0.236441	0.016788
H99	H	-0.102385	-0.257533	0.086530
H100	H	0.001775	-0.407892	0.086604
H101	H	-0.138285	-0.428836	0.156304
H102	H	0.028997	-0.494485	-0.000031
O103	O	0.069559	-0.878093	0.554213
C104	C	0.232492	-0.767515	0.565313
C105	C	0.120620	-0.843375	0.623015
H106	H	0.273799	-0.739409	0.620914
H107	H	0.281543	-0.799657	0.516165
H108	H	0.224922	-0.707266	0.516130
H109	H	0.128090	-0.903647	0.672253
H110	H	0.071610	-0.811161	0.672100
O111	O	-0.530484	-1.285008	0.603620
C112	C	-0.659331	-1.372463	0.765390
C113	C	-0.547473	-1.296621	0.707594
H114	H	-0.673093	-1.381890	0.849462
H115	H	-0.722125	-1.349637	0.744822
H116	H	-0.665554	-1.442063	0.744659
H117	H	-0.541145	-1.226994	0.728294
H118	H	-0.484732	-1.319526	0.728167
O119	O	0.024876	-0.814402	-0.000143
C120	C	0.194232	-0.817437	-0.086609
C121	C	0.114872	-0.769113	-0.086570
H122	H	0.267003	-0.780853	-0.156488
H123	H	0.220218	-0.812612	-0.016836
H124	H	0.154181	-0.894675	-0.086559
H125	H	0.154851	-0.691858	-0.086655
H126	H	0.088889	-0.774013	-0.156337
O127	O	-0.561503	-1.306243	0.445872
C128	C	-0.680985	-1.468202	0.477907
C129	C	-0.569152	-1.392293	0.420172
H130	H	-0.687213	-1.537786	0.457134
H131	H	-0.694856	-1.477677	0.562000
H132	H	-0.743711	-1.445314	0.457275
H133	H	-0.506356	-1.415122	0.440720
H134	H	-0.555372	-1.382831	0.336094
H135	H	-0.481536	-1.251830	0.247148
O136	O	0.038496	-0.899154	0.396676
C137	C	0.201429	-0.788576	0.407776
C138	C	0.089557	-0.864436	0.465479
H139	H	0.242735	-0.760470	0.463378
H140	H	0.250480	-0.820718	0.358628
H141	H	0.193859	-0.728327	0.358593
H142	H	0.097027	-0.924708	0.514716
H143	H	0.040547	-0.832222	0.514563
H144	H	-0.394098	-1.192555	0.690505
H145	H	0.069944	-0.634094	-0.000031
H146	H	-0.176647	-1.045025	0.247203
H147	H	-0.010528	-0.932388	0.752835
H148	H	-0.315406	-1.139181	0.752797
