data_functionalizedCrystal
_audit_creation_method	'MofGen! by Chris Wilmer'
_symmetry_space_group_name_H-M	'P1'
_symmetry_Int_Tables_number	1
_symmetry_cell_setting	triclinic
loop_
_symmetry_equiv_pos_as_xyz
  x,y,z
_cell_length_a	8.497374
_cell_length_b	21.395361
_cell_length_c	21.395362
_cell_angle_alpha	89.953415
_cell_angle_beta	89.977046
_cell_angle_gamma	90.015691
loop_
_atom_site_label
_atom_site_type_symbol
_atom_site_fract_x
_atom_site_fract_y
_atom_site_fract_z
Zn1	Zn	0.892770	-0.249282	-0.957730
Zn2	Zn	1.392770	0.250718	-0.457730
Zn3	Zn	0.628940	-0.354031	-0.957670
Zn4	Zn	1.128940	0.145969	-0.457670
Zn5	Zn	0.628900	-0.249300	-0.852983
Zn6	Zn	1.128900	0.250700	-0.352983
Zn7	Zn	0.892573	-0.354054	-0.852914
Zn8	Zn	1.392573	0.145946	-0.352914
O9	O	0.760796	-0.301667	-0.905324
O10	O	1.260796	0.198333	-0.405324
O11	O	0.857872	-0.263159	-1.045400
O12	O	1.357872	0.236841	-0.545400
O13	O	0.408172	-0.340136	-0.943788
O14	O	0.908172	0.159864	-0.443788
O15	O	0.663969	-0.161620	-0.866931
O16	O	1.163969	0.338380	-0.366931
O17	O	0.664036	-0.340118	-1.045356
O18	O	1.164036	0.159882	-0.545356
O19	O	0.857833	-0.161606	-0.943888
O20	O	1.357833	0.338394	-0.443888
O21	O	0.408143	-0.263191	-0.866874
O22	O	0.908143	0.236809	-0.366874
O23	O	0.663778	-0.263214	-0.765296
O24	O	1.163778	0.236786	-0.265296
O25	O	1.113362	-0.340158	-0.866814
O26	O	1.613362	0.159842	-0.366814
O27	O	0.857497	-0.340176	-0.765245
O28	O	1.357497	0.159824	-0.265245
O29	O	1.113507	-0.263182	-0.943821
O30	O	1.613507	0.236818	-0.443821
O31	O	0.663845	-0.441712	-0.943721
O32	O	1.163845	0.058288	-0.443721
O33	O	0.857536	-0.441729	-0.866756
O34	O	1.357536	0.058271	-0.366756
C35	C	0.760708	-0.464454	-0.905241
C36	C	1.260708	0.035546	-0.405241
C37	C	0.760723	-0.534096	-0.905263
C38	C	1.260723	-0.034096	-0.405263
C39	C	0.760613	-0.301700	-0.742537
C40	C	1.260613	0.198300	-0.242537
C41	C	0.760572	-0.301729	-0.672895
C42	C	1.260572	0.198271	-0.172895
C43	C	0.659972	-0.566779	-0.945374
C44	C	1.159972	-0.066779	-0.445374
C45	C	0.660007	-0.632214	-0.945403
C46	C	1.160007	-0.132214	-0.445403
C47	C	0.760777	-0.664964	-0.905310
C48	C	1.260777	-0.164964	-0.405310
C49	C	0.861548	-0.632273	-0.865197
C50	C	1.361548	-0.132273	-0.365197
C51	C	0.861521	-0.566839	-0.865173
C52	C	1.361521	-0.066839	-0.365173
C53	C	0.773092	-0.768695	-0.848894
C54	C	1.273092	-0.268695	-0.348894
C55	C	0.773108	-0.834128	-0.848917
C56	C	1.273108	-0.334128	-0.348917
C57	C	0.760870	-0.866785	-0.905383
C58	C	1.260870	-0.366785	-0.405383
C59	C	0.748583	-0.834000	-0.961830
C60	C	1.248583	-0.334000	-0.461830
C61	C	0.748556	-0.768566	-0.961806
C62	C	1.248556	-0.268566	-0.461806
C63	C	0.760819	-0.735916	-0.905332
C64	C	1.260819	-0.235916	-0.405332
C65	C	0.660152	-0.970420	-0.945529
C66	C	1.160152	-0.470420	-0.445529
C67	C	0.660198	-1.035857	-0.945559
C68	C	1.160198	-0.535857	-0.445559
C69	C	0.861731	-1.035914	-0.865347
C70	C	1.361731	-0.535914	-0.365347
C71	C	0.861693	-0.970479	-0.865323
C72	C	1.361693	-0.470479	-0.365323
C73	C	0.760895	-0.937736	-0.905413
C74	C	1.260895	-0.437736	-0.405413
C75	C	1.172276	-0.301668	-0.905320
C76	C	1.672276	0.198332	-0.405320
C77	C	1.350920	-0.301674	-0.905321
C78	C	1.850920	0.198326	-0.405321
C79	C	0.760981	-0.301634	-1.068747
C80	C	1.260981	0.198366	-0.568747
C81	C	0.761059	-0.301620	-1.138389
C82	C	1.261059	0.198380	-0.638389
C83	C	0.760919	-0.138243	-0.905424
C84	C	1.260919	0.361757	-0.405424
C85	C	0.760971	-0.068602	-0.905467
C86	C	1.260971	0.431398	-0.405467
C87	C	0.861291	-0.341857	-0.640172
C88	C	1.361291	0.158143	-0.140172
C89	C	0.861361	-0.341841	-0.574737
C90	C	1.361361	0.158159	-0.074737
C91	C	0.760684	-0.301705	-0.542027
C92	C	1.260684	0.198295	-0.042027
C93	C	0.659959	-0.261570	-0.574758
C94	C	1.159959	0.238430	-0.074758
C95	C	0.659902	-0.261582	-0.640192
C96	C	1.159902	0.238418	-0.140192
C97	C	0.618664	-0.296652	-0.438323
C98	C	1.118664	0.203348	0.061677
C99	C	0.618717	-0.296644	-0.372890
C100	C	1.118717	0.203356	0.127110
C101	C	0.760859	-0.301664	-0.340206
C102	C	1.260859	0.198336	0.159794
C103	C	0.902951	-0.306705	-0.372964
C104	C	1.402951	0.193295	0.127036
C105	C	0.902895	-0.306717	-0.438398
C106	C	1.402895	0.193283	0.061602
C107	C	0.760735	-0.301687	-0.471075
C108	C	1.260735	0.198313	0.028925
C109	C	0.861662	-0.341777	-0.236531
C110	C	1.361662	0.158223	0.263469
C111	C	0.861735	-0.341757	-0.171094
C112	C	1.361735	0.158243	0.328906
C113	C	0.660318	-0.261489	-0.171117
C114	C	1.160318	0.238511	0.328883
C115	C	0.660260	-0.261506	-0.236552
C116	C	1.160260	0.238494	0.263448
C117	C	0.760929	-0.301653	-0.269255
C118	C	1.260929	0.198347	0.230745
H119	H	0.577900	-0.540122	-0.978019
H120	H	1.077900	-0.040122	-0.478019
H121	H	0.578080	-0.943760	-0.978175
H122	H	1.078080	-0.443760	-0.478175
H123	H	1.018591	-0.310820	-0.465066
H124	H	1.518591	0.189180	0.034934
Cl125	Cl	0.988426	-1.077079	-0.814949
Cl126	Cl	1.488426	-0.577079	-0.314949
H127	H	0.577964	-0.658830	-0.978069
H128	H	1.077964	-0.158830	-0.478069
Cl129	Cl	0.988238	-0.673443	-0.814797
Cl130	Cl	1.488238	-0.173443	-0.314797
Cl131	Cl	0.533401	-0.211110	-0.533638
Cl132	Cl	1.033401	0.288890	-0.033638
Cl133	Cl	0.733125	-0.727353	-1.032764
Cl134	Cl	1.233125	-0.227353	-0.532764
H135	H	0.503017	-0.292543	-0.346224
H136	H	1.003017	0.207457	0.153776
H137	H	0.943567	-0.540227	-0.832510
H138	H	1.443567	-0.040227	-0.332510
Cl139	Cl	1.081657	-0.313013	-0.331883
Cl140	Cl	1.581657	0.186987	0.168117
H141	H	0.578157	-1.062467	-0.978226
H142	H	1.078157	-0.562467	-0.478226
Cl143	Cl	0.733181	-0.875046	-1.032821
Cl144	Cl	1.233181	-0.375046	-0.532821
H145	H	0.943727	-0.943866	-0.832658
H146	H	1.443727	-0.443866	-0.332658
Cl147	Cl	0.988225	-0.392243	-0.277646
Cl148	Cl	1.488225	0.107757	0.222354
H149	H	0.783097	-0.860816	-0.802954
H150	H	1.283097	-0.360816	-0.302954
H151	H	0.943384	-0.374518	-0.548088
H152	H	1.443384	0.125482	-0.048088
H153	H	0.502907	-0.292561	-0.464929
H154	H	1.002907	0.207439	0.035071
Cl155	Cl	0.987854	-0.392325	-0.681281
Cl156	Cl	1.487854	0.107675	-0.181281
H157	H	0.577885	-0.228903	-0.666835
H158	H	1.077885	0.271097	-0.166835
H159	H	0.783064	-0.742113	-0.802908
H160	H	1.283064	-0.242113	-0.302908
H161	H	0.578235	-0.228833	-0.263195
H162	H	1.078235	0.271167	0.236805
Cl163	Cl	0.533761	-0.211028	-0.130002
Cl164	Cl	1.033761	0.288972	0.369998
H165	H	0.943762	-0.374433	-0.144452
H166	H	1.443762	0.125567	0.355548
