data_functionalizedCrystal
_audit_creation_method	'MofGen! by Chris Wilmer'
_symmetry_space_group_name_H-M	'P1'
_symmetry_Int_Tables_number	1
_symmetry_cell_setting	triclinic
loop_
_symmetry_equiv_pos_as_xyz
  x,y,z
_cell_length_a	27.732066
_cell_length_b	15.625429
_cell_length_c	14.749905
_cell_angle_alpha	121.744654
_cell_angle_beta	104.288371
_cell_angle_gamma	83.483468
loop_
_atom_site_label
_atom_site_type_symbol
_atom_site_fract_x
_atom_site_fract_y
_atom_site_fract_z
O1	O	-0.656284	-0.134844	-0.126576
O2	O	-0.516294	-0.152480	-0.132759
O3	O	-0.584243	-0.001632	-0.080224
O4	O	-0.588335	-0.285692	-0.179112
O5	O	-0.563957	0.035895	0.092507
O6	O	-0.496007	-0.114953	0.039972
O7	O	-0.635997	-0.097317	0.046155
Zn8	Zn	-0.562781	-0.100176	0.070488
Zn9	Zn	-0.589510	-0.149620	-0.157092
O10	O	-0.568048	-0.248165	-0.006381
C11	C	-0.488128	-0.133345	-0.046270
C12	C	-0.434425	-0.132227	-0.045898
C13	C	-0.572275	0.053461	0.018787
C14	C	-0.566831	0.161712	0.056464
C15	C	-0.052973	-0.035435	-0.012161
C16	C	-0.254822	-0.039570	-0.013618
O17	O	-0.282677	0.035534	0.012564
N18	N	-0.277993	-0.129019	-0.044761
C19	C	-0.250696	-0.217439	-0.075535
O20	O	-0.275034	-0.293613	-0.102046
C21	C	-0.048847	-0.213301	-0.074070
C22	C	-0.025681	-0.123849	-0.042935
C23	C	-0.029807	0.054010	0.018972
C24	C	0.020652	0.055042	0.019331
C25	C	0.047944	-0.033372	-0.011444
C26	C	0.024777	-0.122817	-0.042577
C27	C	-0.021551	-0.301718	-0.104836
C28	C	0.028914	-0.300675	-0.104464
C29	C	0.052080	-0.211223	-0.073330
C30	C	0.102528	-0.210199	-0.072993
N31	N	0.125698	-0.120751	-0.041850
C32	C	0.098406	-0.032337	-0.011076
C33	C	-0.356670	-0.219605	-0.076304
C34	C	-0.407133	-0.220640	-0.076672
C35	C	-0.411255	-0.042771	-0.014754
C36	C	-0.360793	-0.041738	-0.014393
C37	C	-0.333500	-0.130156	-0.045161
C38	C	0.204373	-0.030177	-0.010326
C39	C	0.254836	-0.029155	-0.009975
C40	C	0.258954	-0.207022	-0.071888
C41	C	0.208495	-0.208047	-0.072245
C42	C	0.181206	-0.119616	-0.041458
O43	O	0.130414	-0.285261	-0.099150
O44	O	0.122756	0.043831	0.015455
C45	C	-0.103432	-0.036467	-0.012519
C46	C	-0.126598	-0.125912	-0.043652
C47	C	-0.099306	-0.214326	-0.074427
C48	C	-0.177061	-0.126947	-0.044020
C49	C	-0.204353	-0.038533	-0.013246
C50	C	-0.181183	0.050915	0.017897
C51	C	-0.130724	0.051947	0.018255
C52	C	-0.122477	-0.303774	-0.105569
C53	C	-0.172936	-0.304799	-0.105926
C54	C	-0.200228	-0.216385	-0.075152
C55	C	-0.580017	-0.303258	-0.105394
C56	C	-0.585462	-0.411511	-0.143078
C57	C	0.335835	-0.116451	-0.040345
C58	C	0.282128	-0.117568	-0.040750
N59	N	-0.544543	-0.066432	0.225805
C60	C	-0.604200	0.415465	-0.290359
C61	C	-0.599078	0.517189	-0.254923
C62	C	-0.576963	0.558085	-0.066624
C63	C	-0.582085	0.456363	-0.102044
C64	C	-0.595703	0.385060	-0.213913
C65	C	-0.573588	0.425958	-0.025598
C66	C	-0.578707	0.324243	-0.061015
C67	C	-0.592323	0.252934	-0.172879
C68	C	-0.600822	0.283345	-0.249330
C69	C	-0.559967	0.497261	0.086270
C70	C	-0.551471	0.466856	0.162717
C71	C	-0.556593	0.365141	0.127300
C72	C	-0.570209	0.293832	0.015436
C73	C	-0.548094	0.334730	0.203751
C74	C	-0.553213	0.233015	0.168333
C75	C	-0.575328	0.192117	-0.019982
N76	N	-0.607751	-0.183357	-0.312407
C77	C	-0.493655	0.027748	0.409357
C78	C	-0.506419	0.004117	0.300621
C79	C	-0.569916	-0.113381	0.259704
C80	C	-0.557155	-0.089763	0.368437
C81	C	-0.519025	-0.019197	0.443256
C82	C	-0.582525	-0.136707	0.402336
C83	C	-0.569767	-0.113087	0.511062
C84	C	-0.531639	-0.042522	0.585888
C85	C	-0.506267	0.004424	0.551982
C86	C	-0.620658	-0.207268	0.327517
C87	C	-0.646028	-0.254213	0.361416
C88	C	-0.633268	-0.230598	0.470142
C89	C	-0.595140	-0.160033	0.544968
C90	C	-0.658640	-0.277543	0.504048
C91	C	-0.645882	-0.253923	0.612773
C92	C	-0.582382	-0.136412	0.653693
H93	H	0.273695	0.043691	0.015377
H94	H	0.182160	0.041832	0.014743
N95	N	-0.544544	0.201935	0.246403
N96	N	-0.549118	0.111116	0.214763
H97	H	-0.542995	0.089164	0.269900
H98	H	-0.341934	0.031101	0.010960
N99	N	-0.518597	-0.018407	0.696944
N100	N	-0.475452	-0.033268	0.736627
H101	H	-0.466240	-0.016238	0.815061
N102	N	-0.589245	0.119260	-0.134249
N103	N	-0.628222	0.067441	-0.171689
H104	H	-0.638050	0.015984	-0.252386
H105	H	-0.485756	0.042348	0.273027
H106	H	-0.611915	0.225286	-0.340424
N107	N	-0.543436	-0.064325	0.730145
N108	N	-0.532054	-0.043244	0.827218
H109	H	-0.504551	0.007667	0.881214
H110	H	0.039510	0.127884	0.044688
N111	N	-0.328789	-0.309920	-0.107720
N112	N	-0.291631	-0.313371	-0.041608
H113	H	-0.271942	-0.377157	-0.063794
N114	N	0.286842	-0.297323	-0.103296
N115	N	0.291138	-0.341152	-0.051240
H116	H	0.310837	-0.404926	-0.073413
N117	N	-0.607759	0.548264	-0.333003
N118	N	-0.603186	0.639082	-0.301371
H119	H	-0.609314	0.661030	-0.356512
N120	N	-0.057672	0.144341	0.050420
N121	N	-0.036971	0.224189	0.078216
H122	H	-0.056648	0.287991	0.100423
N123	N	-0.554736	0.601168	0.122479
N124	N	-0.513861	0.646199	0.177012
H125	H	-0.510168	0.719585	0.202590
N126	N	-0.563050	0.630934	0.047638
N127	N	-0.558479	0.721747	0.079249
H128	H	-0.548653	0.773197	0.159949
H129	H	-0.111867	0.124788	0.043608
H130	H	-0.433485	0.029218	0.010300
H131	H	-0.475213	0.061876	0.612902
N132	N	-0.454697	0.099818	0.485773
N133	N	-0.432042	0.141720	0.455493
H134	H	-0.404528	0.192615	0.509460
N135	N	-0.608866	-0.185451	0.183263
N136	N	-0.620255	-0.206530	0.086191
H137	H	-0.647763	-0.257431	0.032204
H138	H	-0.040405	-0.374561	-0.130193
H139	H	-0.631045	-0.226496	0.238987
N140	N	-0.618121	0.342637	-0.404634
N141	N	-0.625713	0.369796	-0.472884
H142	H	-0.635546	0.318363	-0.553588
H143	H	-0.689690	-0.334991	0.443117
H144	H	-0.666541	-0.292151	0.640373
N145	N	-0.430785	-0.312023	-0.108479
N146	N	-0.415218	-0.355628	-0.056351
H147	H	-0.431919	-0.420170	-0.078810
N148	N	0.056786	-0.391002	-0.135888
N149	N	0.036091	-0.470855	-0.163678
H150	H	0.055774	-0.534649	-0.185873
N151	N	0.184834	-0.299429	-0.104064
N152	N	0.209210	-0.378363	-0.131542
H153	H	0.192505	-0.442903	-0.154006
H154	H	-0.540381	0.524924	0.253800
H155	H	-0.537002	0.392798	0.294834
N156	N	-0.209072	0.141222	0.049343
N157	N	-0.229145	0.176292	0.128857
H158	H	-0.248845	0.240068	0.151071
N159	N	-0.196590	-0.396191	-0.137747
N160	N	-0.172210	-0.475120	-0.165220
H161	H	-0.188913	-0.539663	-0.187686
N162	N	-0.094609	-0.394100	-0.137005
N163	N	-0.115308	-0.473950	-0.164803
H164	H	-0.095629	-0.537751	-0.187011
H165	H	-0.677076	-0.311665	0.300485
H166	H	-0.596486	0.170111	-0.201715
