data_functionalizedCrystal
_audit_creation_method	'MofGen! by Chris Wilmer'
_symmetry_space_group_name_H-M	'P1'
_symmetry_Int_Tables_number	1
_symmetry_cell_setting	triclinic
loop_
_symmetry_equiv_pos_as_xyz
  x,y,z
_cell_length_a	29.839135
_cell_length_b	21.295418
_cell_length_c	21.295411
_cell_angle_alpha	90.017488
_cell_angle_beta	90.027776
_cell_angle_gamma	90.030917
loop_
_atom_site_label
_atom_site_type_symbol
_atom_site_fract_x
_atom_site_fract_y
_atom_site_fract_z
Zn1	Zn	0.686815	-0.250638	0.355984
Zn2	Zn	1.186815	0.249362	0.855984
Zn3	Zn	0.686748	-0.355890	0.250717
Zn4	Zn	1.186748	0.144110	0.750717
Zn5	Zn	0.611681	-0.250644	0.250723
Zn6	Zn	1.111681	0.249356	0.750723
Zn7	Zn	0.611662	-0.355878	0.355942
Zn8	Zn	1.111662	0.144122	0.855942
O9	O	0.649227	-0.303263	0.303341
O10	O	1.149227	0.196737	0.803341
O11	O	0.749673	-0.264603	0.342034
O12	O	1.249673	0.235397	0.842034
O13	O	0.676770	-0.341936	0.162628
O14	O	1.176770	0.158064	0.662628
O15	O	0.621684	-0.162553	0.264706
O16	O	1.121684	0.337447	0.764706
O17	O	0.749624	-0.341931	0.264695
O18	O	1.249624	0.158069	0.764695
O19	O	0.676884	-0.162550	0.342040
O20	O	1.176884	0.337450	0.842040
O21	O	0.621619	-0.264612	0.162633
O22	O	1.121619	0.235388	0.662633
O23	O	0.548812	-0.264600	0.264666
O24	O	1.048812	0.235400	0.764666
O25	O	0.621652	-0.341911	0.444037
O26	O	1.121652	0.158089	0.944037
O27	O	0.548798	-0.341916	0.341970
O28	O	1.048798	0.158084	0.841970
O29	O	0.676866	-0.264592	0.444068
O30	O	1.176866	0.235408	0.944068
O31	O	0.676752	-0.443978	0.264655
O32	O	1.176752	0.056022	0.764655
O33	O	0.621587	-0.443969	0.341964
O34	O	1.121587	0.056031	0.841964
C35	C	0.532504	-0.303258	0.303314
C36	C	1.032504	0.196742	0.803314
C37	C	0.482570	-0.303271	0.303318
C38	C	0.982570	0.196729	0.803318
C39	C	0.649172	-0.466814	0.303318
C40	C	1.149172	0.033186	0.803318
C41	C	0.649190	-0.536782	0.303330
C42	C	1.149190	-0.036782	0.803330
C43	C	0.678025	-1.036185	0.343690
C44	C	1.178025	-0.536185	0.843690
C45	C	0.678012	-0.970443	0.343680
C46	C	1.178012	-0.470443	0.843680
C47	C	0.649288	-0.937622	0.303381
C48	C	1.149288	-0.437622	0.803381
C49	C	0.620583	-0.970549	0.263076
C50	C	1.120583	-0.470549	0.763076
C51	C	0.620600	-1.036290	0.263083
C52	C	1.120600	-0.536290	0.763083
N53	N	0.609938	-0.834454	0.298487
N54	N	1.109938	-0.334454	0.798487
N55	N	0.609923	-0.772002	0.298484
N56	N	1.109923	-0.272002	0.798484
C57	C	0.649235	-0.739547	0.303357
C58	C	1.149235	-0.239547	0.803357
N59	N	0.688564	-0.771902	0.308245
N60	N	1.188564	-0.271902	0.808245
N61	N	0.688578	-0.834360	0.308251
N62	N	1.188578	-0.334360	0.808251
C63	C	0.649266	-0.866336	0.303369
C64	C	1.149266	-0.366336	0.803369
C65	C	0.677926	-0.635342	0.343645
C66	C	1.177926	-0.135342	0.843645
C67	C	0.677914	-0.569599	0.343630
C68	C	1.177914	-0.069599	0.843630
C69	C	0.620480	-0.569706	0.263030
C70	C	1.120480	-0.069706	0.763030
C71	C	0.620497	-0.635449	0.263041
C72	C	1.120497	-0.135449	0.763041
C73	C	0.649219	-0.668263	0.303352
C74	C	1.149219	-0.168263	0.803352
C75	C	0.172949	-0.263059	0.343671
C76	C	0.672949	0.236941	0.843671
C77	C	-0.014724	-0.263063	0.343689
C78	C	0.485276	0.236937	0.843689
O79	O	-0.038970	-0.228859	0.377969
O80	O	0.461030	0.271141	0.877969
N81	N	-0.038215	-0.303263	0.303364
N82	N	0.461785	0.196737	0.803364
C83	C	-0.014786	-0.343462	0.263030
C84	C	0.485214	0.156538	0.763030
O85	O	-0.039073	-0.377650	0.228727
O86	O	0.460927	0.122350	0.728727
C87	C	0.172887	-0.343454	0.263009
C88	C	0.672887	0.156546	0.763009
C89	C	0.196375	-0.303256	0.303341
C90	C	0.696375	0.196744	0.803341
C91	C	0.196438	-0.222864	0.383999
C92	C	0.696438	0.277136	0.883999
C93	C	0.243353	-0.222865	0.383997
C94	C	0.743353	0.277135	0.883997
C95	C	0.266780	-0.263062	0.343666
C96	C	0.766780	0.236938	0.843666
C97	C	0.243291	-0.303258	0.303338
C98	C	0.743291	0.196742	0.803338
C99	C	0.196316	-0.383649	0.222671
C100	C	0.696316	0.116351	0.722671
C101	C	0.243237	-0.383643	0.222669
C102	C	0.743237	0.116357	0.722669
C103	C	0.266726	-0.343445	0.263000
C104	C	0.766726	0.156555	0.763000
C105	C	0.313633	-0.343457	0.263005
C106	C	0.813633	0.156543	0.763005
N107	N	0.337124	-0.303257	0.303330
N108	N	0.837124	0.196743	0.803330
C109	C	0.313698	-0.263059	0.343660
C110	C	0.813698	0.236941	0.843660
C111	C	-0.113316	-0.343464	0.263044
C112	C	0.386684	0.156536	0.763044
C113	C	-0.160234	-0.343467	0.263050
C114	C	0.339766	0.156533	0.763050
C115	C	-0.160169	-0.263067	0.343709
C116	C	0.339831	0.236933	0.843709
C117	C	-0.113251	-0.263068	0.343706
C118	C	0.386749	0.236932	0.843706
C119	C	-0.089825	-0.303264	0.303369
C120	C	0.410175	0.196736	0.803369
C121	C	0.412223	-0.263067	0.343653
C122	C	0.912223	0.236933	0.843653
C123	C	0.459143	-0.263074	0.343648
C124	C	0.959143	0.236926	0.843648
C125	C	0.459074	-0.343471	0.262987
C126	C	0.959074	0.156529	0.762987
C127	C	0.412159	-0.343467	0.262994
C128	C	0.912159	0.156533	0.762994
C129	C	0.388735	-0.303259	0.303328
C130	C	0.888735	0.196741	0.803328
O131	O	0.337908	-0.377638	0.228738
O132	O	0.837908	0.122362	0.728738
O133	O	0.337993	-0.228867	0.377948
O134	O	0.837993	0.271133	0.877948
C135	C	0.126033	-0.263057	0.343674
C136	C	0.626033	0.236943	0.843674
C137	C	0.102545	-0.303253	0.303346
C138	C	0.602545	0.196747	0.803346
C139	C	0.125971	-0.343450	0.263015
C140	C	0.625971	0.156550	0.763015
C141	C	0.055627	-0.303255	0.303351
C142	C	0.555627	0.196745	0.803351
C143	C	0.032200	-0.263058	0.343682
C144	C	0.532200	0.236942	0.843682
C145	C	0.055691	-0.222858	0.384007
C146	C	0.555691	0.277142	0.884007
C147	C	0.102607	-0.222860	0.384004
C148	C	0.602607	0.277140	0.884004
C149	C	0.102480	-0.383650	0.222691
C150	C	0.602480	0.116350	0.722691
C151	C	0.055564	-0.383645	0.222697
C152	C	0.555564	0.116355	0.722697
C153	C	0.032138	-0.343448	0.263027
C154	C	0.532138	0.156552	0.763027
C155	C	0.766405	-0.303268	0.303369
C156	C	1.266405	0.196732	0.803369
C157	C	0.816339	-0.303270	0.303380
C158	C	1.316339	0.196730	0.803380
C159	C	0.649264	-0.303249	0.467532
C160	C	1.149264	0.196751	0.967532
C161	C	0.649280	-0.303244	0.537500
C162	C	1.149280	0.196756	1.037500
C163	C	0.649294	-0.139072	0.303378
C164	C	1.149294	0.360928	0.803378
C165	C	0.649322	-0.069104	0.303394
C166	C	1.149322	0.430896	0.803394
C167	C	0.649215	-0.303230	0.139790
C168	C	1.149215	0.196770	0.639790
C169	C	0.649287	-0.303059	0.069822
C170	C	1.149287	0.196941	0.569822
C171	C	0.678029	-0.262982	0.570383
C172	C	1.178029	0.237018	1.070383
C173	C	0.678028	-0.262954	0.636126
C174	C	1.178028	0.237046	1.136126
C175	C	0.649283	-0.303200	0.668982
C176	C	1.149283	0.196800	1.168982
C177	C	0.620529	-0.343465	0.636091
C178	C	1.120529	0.156535	1.136091
C179	C	0.620527	-0.343487	0.570350
C180	C	1.120527	0.156513	1.070350
N181	N	0.645819	-0.358268	0.772201
N182	N	1.145819	0.141732	1.272201
N183	N	0.645823	-0.358246	0.834653
N184	N	1.145823	0.141754	1.334653
C185	C	0.649286	-0.303136	0.867057
C186	C	1.149286	0.196864	1.367057
N187	N	0.652754	-0.248049	0.834651
N188	N	1.152754	0.251951	1.334651
N189	N	0.652752	-0.248072	0.772194
N190	N	1.152752	0.251928	1.272194
C191	C	0.649282	-0.303181	0.740268
C192	C	1.149282	0.196819	1.240268
C193	C	0.678036	-0.262842	0.971226
C194	C	1.178036	0.237158	1.471226
C195	C	0.678032	-0.262813	1.036970
C196	C	1.178032	0.237187	1.536970
C197	C	0.620535	-0.343330	1.036934
C198	C	1.120535	0.156670	1.536934
C199	C	0.620537	-0.343352	0.971191
C200	C	1.120537	0.156648	1.471191
C201	C	0.649289	-0.303109	0.938342
C202	C	1.149289	0.196891	1.438342
H203	H	0.701417	-1.062898	0.376510
H204	H	1.201417	-0.562898	0.876510
O205	O	0.589637	-1.071795	0.219618
O206	O	1.089637	-0.571795	0.719618
H207	H	0.609766	-1.101731	0.187621
H208	H	1.109766	-0.601731	0.687621
O209	O	0.589519	-0.386911	0.534872
O210	O	1.089519	0.113089	1.034872
H211	H	0.566677	-0.358735	0.504910
H212	H	1.066677	0.141265	1.004910
O213	O	0.589534	-0.670961	0.219585
O214	O	1.089534	-0.170961	0.719585
H215	H	0.569554	-0.637096	0.191564
H216	H	1.069554	-0.137096	0.691564
H217	H	0.701441	-0.230212	0.543641
H218	H	1.201441	0.269788	1.043641
O219	O	0.708882	-0.534097	0.387091
O220	O	1.208882	-0.034097	0.887091
H221	H	0.688759	-0.504149	0.419084
H222	H	1.188759	-0.004149	0.919084
H223	H	0.701310	-0.662061	0.376473
H224	H	1.201310	-0.162061	0.876473
O225	O	0.589529	-0.386733	1.072367
O226	O	1.089529	0.113267	1.572367
H227	H	0.569535	-0.414732	1.038452
H228	H	1.069535	0.085268	1.538452
O229	O	0.709040	-0.219533	0.671606
O230	O	1.209040	0.280467	1.171606
H231	H	0.729035	-0.191557	0.637718
H232	H	1.229035	0.308443	1.137718
O233	O	0.127742	-0.427011	0.179190
O234	O	0.627742	0.072989	0.679190
H235	H	0.149115	-0.398794	0.147205
H236	H	0.649115	0.101206	0.647205
O237	O	0.709042	-0.219436	0.935786
O238	O	1.209042	0.280564	1.435786
H239	H	0.701354	-0.170026	0.948389
H240	H	1.201354	0.329974	1.448389
O241	O	0.589524	-0.386873	0.671523
O242	O	1.089524	0.113127	1.171523
H243	H	0.594357	-0.380098	0.722763
H244	H	1.094357	0.119902	1.222763
H245	H	0.478266	-0.230339	0.376494
H246	H	0.978266	0.269661	0.876494
H247	H	0.701442	-0.230023	1.063743
H248	H	1.201442	0.269977	1.563743
H249	H	0.393033	-0.376206	0.230160
H250	H	0.893033	0.123794	0.730160
O251	O	0.589517	-0.386761	0.935717
O252	O	1.089517	0.113239	1.435717
H253	H	0.569525	-0.414738	0.969607
H254	H	1.069525	0.085262	1.469607
O255	O	0.708973	-0.934927	0.387144
O256	O	1.208973	-0.434927	0.887144
H257	H	0.688843	-0.904985	0.419132
H258	H	1.188843	-0.404985	0.919132
O259	O	0.386961	-0.219705	0.387159
O260	O	0.886961	0.280295	0.887159
H261	H	0.411183	-0.191763	0.415201
H262	H	0.911183	0.308237	0.915201
O263	O	0.589600	-0.935155	0.219610
O264	O	1.089600	-0.435155	0.719610
H265	H	0.594406	-0.883910	0.226380
H266	H	1.094406	-0.383910	0.726380
O267	O	-0.185563	-0.386828	0.219550
O268	O	0.314437	0.113172	0.719550
H269	H	-0.206937	-0.418906	0.247664
H270	H	0.293063	0.081094	0.747664
H271	H	0.597094	-0.542984	0.230215
H272	H	1.097094	-0.042984	0.730215
H273	H	0.262474	-0.190131	0.416838
H274	H	0.762474	0.309869	0.916838
O275	O	0.171174	-0.179506	0.427504
O276	O	0.671174	0.320494	0.927504
H277	H	0.195397	-0.151563	0.455543
H278	H	0.695397	0.348437	0.955543
O279	O	0.030234	-0.427001	0.179187
O280	O	0.530234	0.072999	0.679187
H281	H	0.039226	-0.476424	0.189885
H282	H	0.539226	0.023576	0.689885
O283	O	-0.087919	-0.219702	0.387198
O284	O	0.412081	0.280298	0.887198
H285	H	-0.096911	-0.230567	0.436585
H286	H	0.403089	0.269433	0.936585
O287	O	-0.185440	-0.219703	0.387204
O288	O	0.314560	0.280297	0.887204
H289	H	-0.222010	-0.226458	0.380423
H290	H	0.277990	0.273542	0.880423
O291	O	-0.088052	-0.386822	0.219536
O292	O	0.411948	0.113178	0.719536
H293	H	-0.112273	-0.414775	0.191504
H294	H	0.387727	0.085225	0.691504
O295	O	0.170988	-0.426997	0.179161
O296	O	0.670988	0.073003	0.679161
H297	H	0.195167	-0.454935	0.151112
H298	H	0.695167	0.045065	0.651112
O299	O	0.268504	-0.426999	0.179163
O300	O	0.768504	0.073001	0.679163
H301	H	0.244285	-0.454951	0.151125
H302	H	0.744285	0.045049	0.651125
H303	H	0.478157	-0.376200	0.230153
H304	H	0.978157	0.123800	0.730153
O305	O	0.127939	-0.179495	0.427496
O306	O	0.627939	0.320505	0.927496
H307	H	0.103761	-0.151542	0.455532
H308	H	0.603761	0.348458	0.955532
H309	H	0.036609	-0.190130	0.416847
H310	H	0.536609	0.309870	0.916847
