data_functionalizedCrystal
_audit_creation_method	'MofGen! by Chris Wilmer'
_symmetry_space_group_name_H-M	'P1'
_symmetry_Int_Tables_number	1
_symmetry_cell_setting	triclinic
loop_
_symmetry_equiv_pos_as_xyz
  x,y,z
_cell_length_a	19.188930
_cell_length_b	27.732048
_cell_length_c	17.666332
_cell_angle_alpha	89.988553
_cell_angle_beta	89.976766
_cell_angle_gamma	82.893716
loop_
_atom_site_label
_atom_site_type_symbol
_atom_site_fract_x
_atom_site_fract_y
_atom_site_fract_z
O1	O	0.925765	0.060348	-0.063200
O2	O	0.722402	0.068472	-0.063149
O3	O	0.830399	-0.005968	-0.063161
O4	O	0.817767	0.134787	-0.063187
O5	O	0.830380	-0.005971	0.062735
O6	O	0.722383	0.068468	0.062748
O7	O	0.925746	0.060344	0.062697
Cu8	Cu	0.824063	0.064406	0.074218
Cu9	Cu	0.824085	0.064410	-0.074670
O10	O	0.817748	0.134783	0.062710
C11	C	0.696383	0.068207	-0.000194
C12	C	0.618883	0.067417	-0.000174
C13	C	0.573681	0.111096	-0.000194
C14	C	0.500862	0.110354	-0.000202
C15	C	0.473249	0.065931	-0.000205
C16	C	0.518461	0.022246	-0.000181
C17	C	0.591278	0.022990	-0.000165
N18	N	0.365491	0.031976	-0.043078
N19	N	0.296317	0.031273	-0.043094
C20	C	0.253854	0.063689	-0.000251
N21	N	0.283177	0.096841	0.042600
N22	N	0.352357	0.097546	0.042613
C23	C	0.394291	0.065120	-0.000222
C24	C	0.129692	0.106566	-0.000279
C25	C	0.056872	0.105822	-0.000282
C26	C	0.074473	0.017714	-0.000269
C27	C	0.147292	0.018459	-0.000258
C28	C	0.174897	0.062886	-0.000267
C29	C	0.830125	-0.023977	-0.000211
C30	C	0.829326	-0.077635	-0.000204
C31	C	0.888119	-0.416270	-0.000258
C32	C	0.885157	-0.617939	-0.000268
O33	O	0.938918	-0.649030	-0.000314
N34	N	0.821118	-0.637258	-0.000251
C35	C	0.757816	-0.606157	-0.000237
O36	O	0.703280	-0.627217	-0.000231
C37	C	0.760780	-0.404489	-0.000233
C38	C	0.824822	-0.385173	-0.000242
C39	C	0.952156	-0.396953	-0.000268
C40	C	0.952896	-0.346539	-0.000261
C41	C	0.889599	-0.315441	-0.000245
C42	C	0.825562	-0.334759	-0.000235
C43	C	0.697478	-0.373389	-0.000224
C44	C	0.698225	-0.322969	-0.000225
C45	C	0.762267	-0.303653	-0.000234
C46	C	0.763005	-0.253247	-0.000212
N47	N	0.827043	-0.233928	-0.000229
C48	C	0.890340	-0.265025	-0.000245
C49	C	0.756265	-0.712036	-0.000238
C50	C	0.755524	-0.762452	-0.000238
C51	C	0.882865	-0.774231	-0.000270
C52	C	0.883605	-0.723813	-0.000265
C53	C	0.820303	-0.692716	-0.000254
C54	C	0.891889	-0.159151	-0.000231
C55	C	0.892623	-0.108732	-0.000221
C56	C	0.765283	-0.096958	-0.000193
C57	C	0.764549	-0.147373	-0.000198
C58	C	0.827857	-0.178468	-0.000220
O59	O	0.709272	-0.222127	-0.000174
O60	O	0.944868	-0.243956	-0.000268
C61	C	0.887379	-0.466684	-0.000265
C62	C	0.823342	-0.486001	-0.000255
C63	C	0.760045	-0.454904	-0.000238
C64	C	0.822601	-0.536418	-0.000254
C65	C	0.885898	-0.567515	-0.000271
C66	C	0.949936	-0.548195	-0.000288
C67	C	0.950676	-0.497781	-0.000281
C68	C	0.696007	-0.474223	-0.000222
C69	C	0.695272	-0.524638	-0.000227
C70	C	0.758569	-0.555735	-0.000244
C71	C	0.951765	0.060609	-0.000260
C72	C	1.029264	0.061399	-0.000285
C73	C	0.818023	0.152793	-0.000243
C74	C	0.818821	0.206450	-0.000254
N75	N	0.824052	0.064402	0.178937
N76	N	0.824101	0.064410	-0.179389
C77	C	0.871889	0.031456	0.218541
C78	C	0.871893	0.031454	0.297789
C79	C	0.824067	0.064406	0.337429
C80	C	0.776221	0.097354	0.297816
C81	C	0.776214	0.097352	0.218570
N82	N	0.814718	0.107196	0.461842
N83	N	0.814729	0.107196	0.537122
C84	C	0.824085	0.064412	0.576193
N85	N	0.833444	0.021627	0.537140
N86	N	0.833436	0.021628	0.461853
C87	C	0.824069	0.064411	0.423359
C88	C	0.871929	0.031462	0.701727
C89	C	0.871928	0.031459	0.780976
C90	C	0.776260	0.097363	0.781001
C91	C	0.776257	0.097361	0.701754
C92	C	0.824096	0.064411	0.662121
H93	H	0.051991	-0.018456	-0.000319
O94	O	0.191106	-0.024016	-0.000281
C95	C	0.151123	-0.063385	-0.000266
H96	H	0.096649	-0.051000	-0.024114
H97	H	0.178336	-0.093979	-0.036808
H98	H	0.146051	-0.077011	0.060133
O99	O	0.012990	0.148268	-0.000435
C100	C	0.025477	0.175252	-0.065634
H101	H	0.050665	0.149678	-0.111196
H102	H	-0.026390	0.194746	-0.087534
H103	H	0.062252	0.203151	-0.050895
O104	O	0.954899	-0.090049	-0.000266
C105	C	1.010605	-0.128311	-0.000266
H106	H	0.991411	-0.162518	-0.024100
H107	H	1.055355	-0.117860	-0.036828
H108	H	1.030095	-0.135495	0.060127
O109	O	1.015126	-0.327803	-0.000412
C110	C	1.053687	-0.343713	-0.065617
H111	H	1.016230	-0.354115	-0.111179
H112	H	1.083067	-0.313232	-0.087513
H113	H	1.092946	-0.376658	-0.050888
O114	O	0.600521	0.154241	-0.000342
C115	C	0.642159	0.157300	-0.065533
H116	H	0.625239	0.132068	-0.111094
H117	H	0.635202	0.196268	-0.087440
H118	H	0.699705	0.146038	-0.050779
H119	H	1.003703	-0.422268	-0.000284
H120	H	0.910840	0.004625	0.186275
O121	O	0.634534	-0.444000	-0.000337
C122	C	0.631158	-0.414464	-0.065524
H123	H	0.667073	-0.432987	-0.111111
H124	H	0.574856	-0.408685	-0.087393
H125	H	0.648812	-0.377836	-0.050781
O126	O	0.635163	-0.019455	-0.000286
C127	C	0.622743	-0.046439	-0.065478
H128	H	0.597599	-0.020867	-0.111058
H129	H	0.674633	-0.065931	-0.087354
H130	H	0.585956	-0.074340	-0.050738
O131	O	0.156549	0.149707	-0.000409
C132	C	0.198191	0.152774	-0.065594
H133	H	0.181262	0.127556	-0.111172
H134	H	0.191249	0.191747	-0.087480
H135	H	0.255734	0.141498	-0.050841
O136	O	0.729734	0.129391	0.819381
C137	C	0.687524	0.158481	0.767426
H138	H	0.686947	0.138663	0.710944
H139	H	0.631689	0.165951	0.790350
H140	H	0.709803	0.194351	0.758973
H141	H	0.910880	0.004630	0.669457
H142	H	0.943441	-0.184464	-0.000251
O143	O	0.636668	-0.292832	-0.000181
C144	C	0.579990	-0.320697	-0.000194
H145	H	0.598127	-0.358366	0.023635
H146	H	0.535665	-0.302018	0.036365
H147	H	0.560349	-0.324240	-0.060591
O148	O	0.729891	0.129391	0.663196
C149	C	0.766957	0.159155	0.617343
H150	H	0.821796	0.139807	0.605447
H151	H	0.737728	0.166855	0.561630
H152	H	0.771319	0.194872	0.647871
H153	H	0.935754	-0.708089	-0.000273
O154	O	0.944289	-0.804512	-0.000326
C155	C	0.929893	-0.853151	-0.000306
H156	H	0.875072	-0.854965	-0.024117
H157	H	0.970268	-0.876072	-0.036878
H158	H	0.932700	-0.867748	0.060090
O159	O	0.456870	0.152753	-0.000327
C160	C	0.414275	0.154958	-0.065551
H161	H	0.411025	0.116597	-0.087278
H162	H	0.359335	0.173077	-0.050908
H163	H	0.438021	0.176983	-0.111210
O164	O	1.011406	-0.578428	-0.000440
C165	C	1.014778	-0.607940	-0.065638
H166	H	0.978878	-0.589392	-0.111198
H167	H	1.071083	-0.613724	-0.087543
H168	H	0.997101	-0.644567	-0.050897
O169	O	0.491607	-0.020894	-0.000321
C170	C	0.450038	-0.023953	-0.065525
H171	H	0.467016	0.001271	-0.111097
H172	H	0.457006	-0.062923	-0.087405
H173	H	0.392478	-0.012681	-0.050800
H174	H	0.910848	0.004625	0.330041
H175	H	0.703375	-0.778175	-0.000217
H176	H	0.737259	0.124181	0.186323
O177	O	0.694706	-0.681900	-0.000187
C178	C	0.638033	-0.709770	-0.000189
H179	H	0.656178	-0.747438	0.023638
H180	H	0.593711	-0.691094	0.036378
H181	H	0.618383	-0.713315	-0.060582
H182	H	0.712400	-0.163101	-0.000170
O183	O	0.729736	0.129297	0.336403
C184	C	0.686941	0.103483	0.382264
H185	H	0.715162	0.065612	0.394134
H186	H	0.675683	0.123679	0.437989
H187	H	0.635373	0.100286	0.351755
H188	H	0.713749	-0.071630	-0.000177
O189	O	0.635286	-0.392170	-0.000089
C190	C	0.631025	-0.421000	0.065099
H191	H	0.667366	-0.409162	0.110674
H192	H	0.574697	-0.416360	0.086986
H193	H	0.647565	-0.460791	0.050350
H194	H	1.002826	-0.482059	-0.000289
H195	H	0.643117	-0.540360	-0.000213
O196	O	0.918468	-0.000564	0.819333
C197	C	0.960676	-0.029652	0.767355
H198	H	0.961241	-0.009835	0.710858
H199	H	1.016515	-0.037116	0.790225
H200	H	0.938404	-0.065525	0.758951
