data_functionalizedCrystal
_audit_creation_method	'MofGen! by Chris Wilmer'
_symmetry_space_group_name_H-M	'P1'
_symmetry_Int_Tables_number	1
_symmetry_cell_setting	triclinic
loop_
_symmetry_equiv_pos_as_xyz
  x,y,z
_cell_length_a	9.065218
_cell_length_b	23.532407
_cell_length_c	7.540329
_cell_angle_alpha	89.991770
_cell_angle_beta	89.996962
_cell_angle_gamma	83.932281
loop_
_atom_site_label
_atom_site_type_symbol
_atom_site_fract_x
_atom_site_fract_y
_atom_site_fract_z
O1	O	1.956284	0.083497	-0.147508
O2	O	1.526662	0.090346	-0.147513
O3	O	1.754428	0.004085	-0.147478
O4	O	1.728517	0.169758	-0.147543
O5	O	1.754415	0.004084	0.147487
O6	O	1.526648	0.090345	0.147453
O7	O	1.956270	0.083496	0.147457
Cu8	Cu	1.741458	0.086921	0.174387
Cu9	Cu	1.741474	0.086922	-0.174443
O10	O	1.728504	0.169757	0.147422
C11	C	1.471701	0.089687	-0.000030
C12	C	1.307955	0.087719	-0.000030
C13	C	1.753761	-0.017136	0.000009
C14	C	1.751778	-0.080368	0.000023
C15	C	1.874123	-0.478573	-0.000073
C16	C	1.872280	-0.537986	-0.000087
O17	O	1.985695	-0.573898	-0.000151
N18	N	1.736873	-0.561607	-0.000087
C19	C	1.603300	-0.525810	-0.000091
O20	O	1.487956	-0.551356	-0.000094
C21	C	1.605144	-0.466397	-0.000090
C22	C	1.740560	-0.442780	-0.000072
C23	C	2.009527	-0.454955	-0.000057
C24	C	2.011370	-0.395546	-0.000040
C25	C	1.877807	-0.359753	-0.000040
C26	C	1.742402	-0.383371	-0.000056
C27	C	1.471573	-0.430601	-0.000108
C28	C	1.473429	-0.371185	-0.000108
C29	C	1.608845	-0.347568	-0.000090
C30	C	1.610682	-0.288169	-0.000038
N31	N	1.746089	-0.264548	-0.000038
C32	C	1.879651	-0.300341	-0.000039
C33	C	1.599437	-0.650581	-0.000096
C34	C	1.597591	-0.709992	-0.000084
C35	C	1.866571	-0.722165	-0.000083
C36	C	1.868416	-0.662752	-0.000082
C37	C	1.734844	-0.626960	-0.000096
C38	C	1.883510	-0.175576	-0.000002
C39	C	1.885340	-0.116160	0.000022
C40	C	1.616360	-0.103993	0.000011
C41	C	1.614529	-0.163403	-0.000003
C42	C	1.748116	-0.199194	-0.000016
O43	O	1.497326	-0.252222	0.000019
O44	O	1.994976	-0.274786	-0.000059
C45	C	2.011231	0.084155	-0.000030
C46	C	2.174977	0.086123	-0.000041
C47	C	1.729170	0.190979	-0.000069
C48	C	1.731154	0.254210	-0.000094
N49	N	1.741458	0.086919	0.419736
N50	N	1.741486	0.086919	-0.419792
H51	H	1.992289	-0.204710	-0.000019
C52	C	2.011746	-0.760937	-0.000011
C53	C	2.130739	-0.727543	0.000037
C54	C	2.264486	-0.763240	0.000128
H55	H	2.016819	-0.784371	-0.102849
H56	H	2.016691	-0.784365	0.102886
H57	H	2.125797	-0.704124	-0.102849
H58	H	2.125715	-0.704109	0.102868
H59	H	2.269431	-0.786669	0.103025
H60	H	2.269544	-0.786673	-0.102712
H61	H	2.345239	-0.740588	0.000177
C62	C	1.454246	-0.611819	0.000007
C63	C	1.335281	-0.645227	0.000055
C64	C	1.201512	-0.609543	0.000171
H65	H	1.449153	-0.588371	-0.102822
H66	H	1.449284	-0.588403	0.102913
H67	H	1.340240	-0.668633	-0.102840
H68	H	1.340324	-0.668674	0.102877
H69	H	1.196550	-0.586128	0.103077
H70	H	1.196435	-0.586097	-0.102660
H71	H	1.120779	-0.632205	0.000220
H72	H	1.361303	-0.449820	-0.000133
C73	C	1.467619	-0.189128	-0.000284
C74	C	1.458730	-0.222878	-0.152032
C75	C	1.323427	-0.246586	-0.152357
H76	H	1.388209	-0.159361	-0.000365
H77	H	1.461291	-0.212094	0.102512
H78	H	1.465044	-0.199913	-0.254801
H79	H	1.538109	-0.252654	-0.151983
H80	H	1.317099	-0.269553	-0.049561
H81	H	1.244027	-0.216816	-0.152433
H82	H	1.317383	-0.269493	-0.255307
H83	H	1.364656	-0.342046	-0.000122
C84	C	1.471403	-0.065097	-0.000361
C85	C	1.464624	-0.030636	-0.152137
C86	C	1.331104	0.005198	-0.152567
H87	H	1.466383	-0.041618	0.102379
H88	H	1.390440	-0.087647	-0.000470
H89	H	1.545564	-0.008088	-0.152012
H90	H	1.469619	-0.054099	-0.254901
H91	H	1.250141	-0.017352	-0.152677
H92	H	1.326095	0.028673	-0.049821
H93	H	1.326480	0.028580	-0.255552
C94	C	2.154667	-0.493741	-0.000325
C95	C	2.236281	-0.482939	-0.152046
C96	C	2.370010	-0.518648	-0.152326
H97	H	2.134415	-0.532529	-0.000415
H98	H	2.210290	-0.486494	0.102489
H99	H	2.180670	-0.490191	-0.254834
H100	H	2.256573	-0.444158	-0.151988
H101	H	2.425632	-0.511401	-0.049511
H102	H	2.349742	-0.557433	-0.152411
H103	H	2.425407	-0.511320	-0.255257
H104	H	1.995617	-0.096935	0.000041
H105	H	2.121639	-0.376323	-0.000033
H106	H	1.978683	-0.643528	-0.000069
H107	H	1.487322	-0.729215	-0.000068
