data_functionalizedCrystal
_audit_creation_method	'MofGen! by Chris Wilmer'
_symmetry_space_group_name_H-M	'P1'
_symmetry_Int_Tables_number	1
_symmetry_cell_setting	triclinic
loop_
_symmetry_equiv_pos_as_xyz
  x,y,z
_cell_length_a	19.121102
_cell_length_b	16.625546
_cell_length_c	16.625539
_cell_angle_alpha	90.030397
_cell_angle_beta	87.540653
_cell_angle_gamma	92.423284
loop_
_atom_site_label
_atom_site_type_symbol
_atom_site_fract_x
_atom_site_fract_y
_atom_site_fract_z
Zn1	Zn	1.073748	0.373670	-0.508418
Zn2	Zn	1.073664	0.508509	-0.373576
Zn3	Zn	0.956295	0.367937	-0.367854
Zn4	Zn	0.956269	0.502702	-0.502624
O5	O	1.014994	0.438205	-0.438118
O6	O	1.172022	0.396387	-0.495351
O7	O	1.058070	0.489893	-0.259984
O8	O	0.971922	0.255867	-0.386530
O9	O	1.171960	0.495452	-0.396283
O10	O	1.058214	0.260080	-0.489802
O11	O	0.971840	0.386615	-0.255779
O12	O	0.858007	0.380984	-0.380912
O13	O	0.971878	0.485555	-0.616226
O14	O	0.857988	0.479995	-0.479927
O15	O	1.058189	0.390756	-0.620483
O16	O	1.058045	0.620569	-0.390665
O17	O	0.971796	0.616302	-0.485476
C18	C	0.832514	0.429238	-0.429170
C19	C	0.754447	0.425422	-0.425361
C20	C	1.014928	0.647692	-0.438081
C21	C	1.014964	0.737315	-0.438095
C22	C	1.015040	0.438147	-0.648429
C23	C	1.015059	0.438122	-0.738052
C24	C	0.717780	0.475256	-0.475042
C25	C	0.644429	0.471659	-0.471467
C26	C	0.607746	0.418232	-0.418206
C27	C	0.644418	0.368392	-0.368523
C28	C	0.717768	0.371985	-0.372102
C29	C	0.386276	0.404796	-0.404826
C30	C	0.312921	0.401208	-0.401249
C31	C	0.312937	0.504476	-0.504195
C32	C	0.386288	0.508067	-0.507766
C33	C	0.422954	0.458224	-0.458086
C34	C	0.532769	0.414556	-0.414549
C35	C	0.497929	0.461897	-0.461748
C36	C	1.198188	0.447207	-0.447102
C37	C	1.276254	0.451043	-0.450930
C38	C	1.015080	0.227900	-0.438174
C39	C	1.015117	0.138281	-0.438198
C40	C	1.015086	1.065497	-0.438185
C41	C	1.015050	0.974186	-0.438163
C42	C	1.015024	0.901409	-0.438140
C43	C	1.014989	0.810093	-0.438118
C44	C	1.015092	0.438033	-1.066229
C45	C	1.015081	0.438061	-0.974920
C46	C	1.015076	0.438078	-0.902143
C47	C	1.015064	0.438104	-0.810828
C48	C	1.014989	0.438206	-0.228627
C49	C	1.015106	0.438010	-0.139012
H50	H	0.614578	0.512241	-0.511922
H51	H	0.416150	0.551576	-0.551135
N52	N	0.537493	0.519527	-0.519185
H53	H	0.503137	0.550558	-0.550116
H54	H	0.567951	0.488247	-0.558045
N55	N	0.425817	0.351027	-0.351258
H56	H	0.391447	0.316635	-0.316978
H57	H	0.456235	0.385274	-0.315363
H58	H	0.283075	0.545054	-0.544643
H59	H	0.747622	0.331400	-0.331651
H60	H	0.614545	0.324886	-0.325160
H61	H	0.283056	0.357692	-0.357882
N62	N	0.493201	0.356943	-0.357094
H63	H	0.527557	0.325918	-0.326157
H64	H	0.462791	0.318180	-0.388498
H65	H	0.747642	0.518766	-0.518411
