data_functionalizedCrystal
_audit_creation_method	'MofGen! by Chris Wilmer'
_symmetry_space_group_name_H-M	'P1'
_symmetry_Int_Tables_number	1
_symmetry_cell_setting	triclinic
loop_
_symmetry_equiv_pos_as_xyz
  x,y,z
_cell_length_a	11.792241
_cell_length_b	17.038272
_cell_length_c	10.868271
_cell_angle_alpha	89.994627
_cell_angle_beta	89.999893
_cell_angle_gamma	87.652486
loop_
_atom_site_label
_atom_site_type_symbol
_atom_site_fract_x
_atom_site_fract_y
_atom_site_fract_z
O1	O	1.516303	0.107207	-0.102203
O2	O	2.016303	0.607207	0.397797
O3	O	1.186930	0.118256	-0.102232
O4	O	1.686930	0.618256	0.397768
O5	O	1.349659	-0.001093	-0.102208
O6	O	1.849659	0.498907	0.397792
O7	O	1.353574	0.226555	-0.102227
O8	O	1.853574	0.726555	0.397773
O9	O	1.349644	-0.001097	0.102436
O10	O	1.849644	0.498903	0.602436
O11	O	1.186915	0.118251	0.102412
O12	O	1.686915	0.618251	0.602412
O13	O	1.516288	0.107202	0.102441
O14	O	2.016288	0.607202	0.602441
Zn15	Zn	1.351599	0.112726	0.134919
Zn16	Zn	1.851599	0.612726	0.634919
Zn17	Zn	1.351618	0.112732	-0.134710
Zn18	Zn	1.851618	0.612732	0.365290
O19	O	1.353559	0.226551	0.102417
O20	O	1.853559	0.726551	0.602417
C21	C	1.144571	0.117559	0.000086
C22	C	1.644571	0.617559	0.500086
C23	C	1.018375	0.115482	0.000076
C24	C	1.518375	0.615482	0.500076
C25	C	0.787328	0.111662	0.000111
C26	C	1.287328	0.611662	0.500111
C27	C	0.915899	0.113785	0.000092
C28	C	1.415899	0.613785	0.500092
C29	C	1.346090	-0.030239	0.000114
C30	C	1.846090	0.469761	0.500114
C31	C	1.335466	-0.117079	0.000112
C32	C	1.835466	0.382921	0.500112
C33	C	1.433006	-0.166762	0.000122
C34	C	1.933006	0.333238	0.500122
C35	C	1.423017	-0.248357	0.000110
C36	C	1.923017	0.251643	0.500110
C37	C	1.315487	-0.280267	0.000096
C38	C	1.815487	0.219733	0.500096
C39	C	1.217940	-0.230577	0.000083
C40	C	1.717940	0.269423	0.500083
C41	C	1.227930	-0.148984	0.000086
C42	C	1.727930	0.351016	0.500086
C43	C	1.280194	-0.526181	0.000076
C44	C	1.780194	-0.026181	0.500076
C45	C	1.270211	-0.607780	0.000076
C46	C	1.770211	-0.107780	0.500076
C47	C	1.475289	-0.625554	0.000101
C48	C	1.975289	-0.125554	0.500101
C49	C	1.485270	-0.543958	0.000112
C50	C	1.985270	-0.043958	0.500112
C51	C	1.387723	-0.494276	0.000092
C52	C	1.887723	0.005724	0.500092
C53	C	1.305274	-0.363669	0.000087
C54	C	1.805274	0.136331	0.500087
C55	C	1.397937	-0.410875	0.000092
C56	C	1.897937	0.089125	0.500092
C57	C	1.558647	0.107899	0.000120
C58	C	2.058647	0.607899	0.500120
C59	C	1.684843	0.109976	0.000122
C60	C	2.184843	0.609976	0.500122
C61	C	1.357127	0.255697	0.000093
C62	C	1.857127	0.755697	0.500093
C63	C	1.367751	0.342537	0.000086
C64	C	1.867751	0.842537	0.500086
N65	N	1.351594	0.112721	0.318933
N66	N	1.851594	0.612721	0.818933
N67	N	1.351632	0.112731	-0.318724
N68	N	1.851632	0.612731	0.181276
C69	C	1.351612	0.112730	0.569939
C70	C	1.851612	0.612730	1.069939
C71	C	1.351599	0.112728	0.430261
C72	C	1.851599	0.612728	0.930261
H73	H	1.502445	-0.288806	0.000120
H74	H	2.002445	0.211194	0.500120
C75	C	1.601986	-0.509267	0.000371
C76	C	2.101986	-0.009267	0.500371
C77	C	1.613710	-0.462966	0.105674
C78	C	2.113710	0.037034	0.605674
C79	C	1.721218	-0.431003	0.105967
C80	C	2.221218	0.068997	0.605967
H81	H	1.610263	-0.477747	-0.070908
H82	H	2.110263	0.022253	0.429092
H83	H	1.658690	-0.550519	0.000440
H84	H	2.158690	-0.050519	0.500440
H85	H	1.557023	-0.421721	0.105594
H86	H	2.057023	0.078279	0.605594
H87	H	1.605455	-0.494469	0.176970
H88	H	2.105455	0.005531	0.676970
H89	H	1.777921	-0.472254	0.106035
H90	H	2.277921	0.027746	0.606035
H91	H	1.729485	-0.399486	0.034683
H92	H	2.229485	0.100514	0.534683
H93	H	1.729190	-0.399590	0.177419
H94	H	2.229190	0.100410	0.677419
H95	H	1.554706	-0.666014	0.000115
H96	H	2.054706	-0.166014	0.500115
H97	H	1.182643	-0.633757	0.000085
H98	H	1.682643	-0.133757	0.500085
C99	C	1.174153	-0.472378	0.000136
C100	C	1.674153	0.027622	0.500136
C101	C	1.077849	-0.517790	0.000166
C102	C	1.577849	-0.017790	0.500166
C103	C	0.980140	-0.468250	0.000243
C104	C	1.480140	0.031750	0.500243
H105	H	1.173622	-0.440155	-0.071206
H106	H	1.673622	0.059845	0.428794
H107	H	1.173721	-0.440196	0.071531
H108	H	1.673721	0.059804	0.571531
H109	H	1.078281	-0.549958	-0.071222
H110	H	1.578281	-0.049958	0.428778
H111	H	1.078342	-0.550011	0.071503
H112	H	1.578342	-0.050011	0.571503
H113	H	0.979708	-0.436069	0.071638
H114	H	1.479708	0.063931	0.571638
H115	H	0.979621	-0.436030	-0.071101
H116	H	1.479621	0.063970	0.428899
H117	H	0.914787	-0.499055	0.000274
H118	H	1.414787	0.000945	0.500274
H119	H	1.485487	-0.384890	0.000076
H120	H	1.985487	0.115110	0.500076
C121	C	1.101264	-0.265328	-0.000124
C122	C	1.601264	0.234672	0.499876
C123	C	1.089558	-0.311663	-0.105393
C124	C	1.589558	0.188337	0.394607
C125	C	0.982095	-0.343695	-0.105613
C126	C	1.482095	0.156305	0.394387
H127	H	1.044495	-0.224133	-0.000195
H128	H	1.544495	0.275867	0.499805
H129	H	1.093084	-0.296836	0.071203
H130	H	1.593084	0.203164	0.571203
H131	H	1.097726	-0.280157	-0.176702
H132	H	1.597726	0.219843	0.323298
H133	H	1.146301	-0.352870	-0.105345
H134	H	1.646301	0.147130	0.394655
H135	H	0.973916	-0.375202	-0.034286
H136	H	1.473916	0.124798	0.465714
H137	H	0.925336	-0.302495	-0.105680
H138	H	1.425336	0.197505	0.394320
H139	H	0.974143	-0.375142	-0.177031
H140	H	1.474143	0.124858	0.322969
H141	H	1.217723	-0.389660	0.000079
H142	H	1.717723	0.110340	0.500079
H143	H	1.148503	-0.108532	0.000078
H144	H	1.648503	0.391468	0.500078
H145	H	1.520568	-0.140788	0.000141
H146	H	2.020568	0.359212	0.500141
