data_functionalizedCrystal
_audit_creation_method	'MofGen! by Chris Wilmer'
_symmetry_space_group_name_H-M	'P1'
_symmetry_Int_Tables_number	1
_symmetry_cell_setting	triclinic
loop_
_symmetry_equiv_pos_as_xyz
  x,y,z
_cell_length_a	19.121063
_cell_length_b	21.395362
_cell_length_c	21.395355
_cell_angle_alpha	89.956060
_cell_angle_beta	87.579260
_cell_angle_gamma	87.514319
loop_
_atom_site_label
_atom_site_type_symbol
_atom_site_fract_x
_atom_site_fract_y
_atom_site_fract_z
Zn1	Zn	-0.279403	-0.947241	0.365205
Zn2	Zn	-0.396839	-0.942680	0.264891
Zn3	Zn	-0.279436	-0.842454	0.260407
Zn4	Zn	-0.396853	-0.837961	0.369596
O5	O	-0.338133	-0.892584	0.315025
O6	O	-0.294962	-1.034314	0.351936
O7	O	-0.381273	-0.929357	0.176618
O8	O	-0.181145	-0.860144	0.270595
O9	O	-0.381241	-1.030964	0.278236
O10	O	-0.181121	-0.937130	0.347589
O11	O	-0.295017	-0.855721	0.173324
O12	O	-0.295031	-0.754180	0.274853
O13	O	-0.381266	-0.852486	0.456691
O14	O	-0.381297	-0.750879	0.355073
O15	O	-0.294976	-0.932773	0.453465
O16	O	-0.495127	-0.925000	0.282494
O17	O	-0.495138	-0.848063	0.359420
C18	C	-0.338170	-0.729795	0.314953
C19	C	-0.338203	-0.660152	0.314938
C20	C	-0.520617	-0.885566	0.321934
C21	C	-0.598685	-0.882621	0.324911
C22	C	-0.338119	-0.892637	0.478447
C23	C	-0.338112	-0.892659	0.548089
C24	C	-0.635332	-0.921325	0.286291
C25	C	-0.708685	-0.918559	0.289094
C26	C	-0.745389	-0.877085	0.330515
C27	C	-0.708736	-0.838379	0.369139
C28	C	-0.635385	-0.841149	0.366338
C29	C	-0.966864	-0.866720	0.340976
C30	C	-1.040221	-0.863952	0.343772
C31	C	-1.040164	-0.944133	0.263728
C32	C	-0.966812	-0.946896	0.260928
C33	C	-0.930165	-0.908193	0.299555
C34	C	-0.820367	-0.874256	0.333380
C35	C	-0.855188	-0.911026	0.296692
C36	C	-0.154936	-0.899647	0.308102
C37	C	-0.076868	-0.902656	0.305152
C38	C	-0.338096	-1.056009	0.315097
C39	C	-0.338080	-1.125651	0.315127
C40	C	-0.383181	-0.625735	0.356651
C41	C	-0.383164	-0.560300	0.356679
C42	C	-0.338176	-0.529285	0.314982
C43	C	-0.293189	-0.563711	0.273266
C44	C	-0.293202	-0.629145	0.273244
C45	C	-0.332517	-0.425776	0.258362
C46	C	-0.332509	-0.360343	0.258383
C47	C	-0.338130	-0.327466	0.315049
C48	C	-0.343774	-0.360030	0.371698
C49	C	-0.343788	-0.425463	0.371676
C50	C	-0.338156	-0.458334	0.315001
C51	C	-0.383092	-0.222096	0.356795
C52	C	-0.383070	-0.156661	0.356824
C53	C	-0.293098	-0.160073	0.273405
C54	C	-0.293117	-0.225508	0.273383
C55	C	-0.338117	-0.256516	0.315077
C56	C	-0.338096	-0.892570	0.152236
C57	C	-0.337904	-0.892676	0.082588
C58	C	-0.293179	-0.934463	0.579123
C59	C	-0.293149	-0.934463	0.644557
C60	C	-0.338065	-0.892666	0.678955
C61	C	-0.383001	-0.850854	0.647913
C62	C	-0.383025	-0.850851	0.582480
C63	C	-0.401308	-0.885286	0.785023
C64	C	-0.401285	-0.885294	0.850455
C65	C	-0.337990	-0.892672	0.880773
C66	C	-0.274717	-0.900056	0.845651
C67	C	-0.274741	-0.900053	0.780218
C68	C	-0.338043	-0.892664	0.749907
C69	C	-0.293021	-0.934479	0.982759
C70	C	-0.292989	-0.934475	1.048194
C71	C	-0.382847	-0.850869	1.051549
C72	C	-0.382872	-0.850870	0.986115
C73	C	-0.337960	-0.892678	0.951723
H74	H	-0.605453	-0.955095	0.252559
F75	F	-0.816124	-0.955167	0.252614
F76	F	-0.430801	-0.806368	0.684523
H77	H	-0.419466	-0.816832	0.960847
F78	F	-0.468626	-0.877441	0.887828
F79	F	-0.245219	-0.978972	0.946154
H80	H	-1.070103	-0.830186	0.377512
H81	H	-0.419823	-0.650977	0.390603
F82	F	-0.430981	-0.255099	0.401172
H83	H	-0.256494	-0.253531	0.239412
F84	F	-0.927872	-0.825527	0.382085
H85	H	-1.070010	-0.975644	0.232282
H86	H	-0.327917	-0.333835	0.212256
H87	H	-0.327937	-0.452538	0.212214
F88	F	-0.747685	-0.959756	0.247991
H89	H	-0.605547	-0.809633	0.397787
F90	F	-0.927754	-0.991046	0.216850
F91	F	-0.747801	-0.794243	0.413225
F92	F	-0.349792	-0.460118	0.431963
F93	F	-0.859437	-0.830117	0.377461
F94	F	-0.245215	-0.127070	0.229031
F95	F	-0.431037	-0.523662	0.401077
F96	F	-0.349754	-0.325046	0.432012
H97	H	-0.419695	-0.128639	0.390795
H98	H	-0.256558	-0.538455	0.239317
F99	F	-0.245328	-0.665776	0.228846
H100	H	-0.223177	-0.906066	0.870335
F101	F	-0.245377	-0.978957	0.542525
F102	F	-0.468680	-0.877447	0.752762
F103	F	-0.245312	-0.978949	0.677592
H104	H	-0.223221	-0.906064	0.751624
F105	F	-0.245171	-0.978978	1.081223
F106	F	-0.430645	-0.806380	1.088153
F107	F	-0.430851	-0.806355	0.549450
