data_functionalizedCrystal
_audit_creation_method	'MofGen! by Chris Wilmer'
_symmetry_space_group_name_H-M	'P1'
_symmetry_Int_Tables_number	1
_symmetry_cell_setting	triclinic
loop_
_symmetry_equiv_pos_as_xyz
  x,y,z
_cell_length_a	17.699083
_cell_length_b	16.053802
_cell_length_c	17.699083
_cell_angle_alpha	87.440590
_cell_angle_beta	83.283015
_cell_angle_gamma	92.569971
loop_
_atom_site_label
_atom_site_type_symbol
_atom_site_fract_x
_atom_site_fract_y
_atom_site_fract_z
O1	O	1.007269	0.069313	0.092524
O2	O	1.340603	0.402647	0.425857
O3	O	1.673936	0.735980	0.759191
O4	O	0.786892	0.069341	0.104975
O5	O	1.120226	0.402674	0.438309
O6	O	1.453559	0.736008	0.771642
O7	O	0.903307	0.069319	-0.011439
O8	O	1.236640	0.402652	0.321894
O9	O	1.569973	0.735986	0.655227
O10	O	0.890855	0.069335	0.208938
O11	O	1.224188	0.402669	0.542272
O12	O	1.557522	0.736002	0.875605
O13	O	0.896899	-0.069539	-0.005058
O14	O	1.230232	0.263795	0.328276
O15	O	1.563566	0.597128	0.661609
O16	O	0.780484	-0.069517	0.111357
O17	O	1.113818	0.263817	0.444690
O18	O	1.447151	0.597150	0.778023
O19	O	1.000862	-0.069544	0.098905
O20	O	1.334195	0.263789	0.432239
O21	O	1.667528	0.597122	0.765572
Zn22	Zn	0.889656	-0.091577	0.106144
Zn23	Zn	1.222989	0.241756	0.439478
Zn24	Zn	1.556322	0.575090	0.772811
Zn25	Zn	0.898098	0.091374	0.097736
Zn26	Zn	1.231431	0.424707	0.431070
Zn27	Zn	1.564765	0.758041	0.764403
O28	O	0.884447	-0.069522	0.215320
O29	O	1.217781	0.263811	0.548653
O30	O	1.551114	0.597144	0.881987
C31	C	0.755492	-0.000084	0.107720
C32	C	1.088825	0.333249	0.441053
C33	C	1.422158	0.666582	0.774386
C34	C	0.671474	-0.000074	0.106380
C35	C	1.004807	0.333259	0.439714
C36	C	1.338141	0.666593	0.773047
N37	N	0.883899	-0.216436	0.111882
N38	N	1.217233	0.116897	0.445215
N39	N	1.550566	0.450230	0.778548
C40	C	0.622853	-0.000069	0.174714
C41	C	0.956187	0.333264	0.508047
C42	C	1.289520	0.666597	0.841380
C43	C	0.543909	-0.000080	0.173452
C44	C	0.877243	0.333253	0.506785
C45	C	1.210576	0.666586	0.840119
C46	C	0.513588	-0.000090	0.103856
C47	C	0.846921	0.333243	0.437189
C48	C	1.180255	0.666577	0.770523
C49	C	0.562215	-0.000097	0.035518
C50	C	0.895548	0.333236	0.368851
C51	C	1.228882	0.666569	0.702184
C52	C	0.641157	-0.000092	0.036780
C53	C	0.974490	0.333241	0.370114
C54	C	1.307824	0.666574	0.703447
C55	C	0.243851	-0.000118	0.030423
C56	C	0.577184	0.333215	0.363757
C57	C	0.910518	0.666548	0.697090
C58	C	0.164903	-0.000121	0.029166
C59	C	0.498236	0.333213	0.362499
C60	C	0.831569	0.666546	0.695832
C61	C	0.146603	-0.000106	0.167095
C62	C	0.479937	0.333227	0.500428
C63	C	0.813270	0.666560	0.833761
C64	C	0.225545	-0.000101	0.168358
C65	C	0.558879	0.333232	0.501691
C66	C	0.892212	0.666565	0.835024
C67	C	0.274165	-0.000113	0.100020
C68	C	0.607498	0.333220	0.433353
C69	C	0.940832	0.666554	0.766687
C70	C	0.359765	-0.000103	0.101389
C71	C	0.693098	0.333231	0.434722
C72	C	1.026431	0.666564	0.768056
C73	C	0.427990	-0.000094	0.102486
C74	C	0.761324	0.333239	0.435819
C75	C	1.094657	0.666572	0.769152
C76	C	0.933452	-0.260140	0.062365
C77	C	1.266785	0.073194	0.395698
C78	C	1.600119	0.406527	0.729032
C79	C	0.929432	-0.347546	0.066386
C80	C	1.262766	-0.014212	0.399719
C81	C	1.596099	0.319121	0.733052
C82	C	0.875864	-0.391247	0.119927
C83	C	1.209197	-0.057913	0.453261
C84	C	1.542530	0.275420	0.786594
C85	C	0.826306	-0.347537	0.169447
C86	C	1.159639	-0.014204	0.502780
C87	C	1.492972	0.319129	0.836113
C88	C	0.830322	-0.260133	0.165422
C89	C	1.163656	0.073200	0.498755
C90	C	1.496989	0.406534	0.832088
C91	C	0.858319	-0.652653	0.137487
C92	C	1.191652	-0.319320	0.470820
C93	C	1.524986	0.014014	0.804154
C94	C	0.854308	-0.740064	0.141510
C95	C	1.187641	-0.406730	0.474843
C96	C	1.520975	-0.073397	0.808176
C97	C	0.957434	-0.740066	0.038447
C98	C	1.290767	-0.406733	0.371781
C99	C	1.624101	-0.073399	0.705114
C100	C	0.961449	-0.652660	0.034430
C101	C	1.294782	-0.319326	0.367764
C102	C	1.628116	0.014007	0.701097
C103	C	0.911888	-0.608958	0.083947
C104	C	1.245222	-0.275625	0.417280
C105	C	1.578555	0.057709	0.750613
N106	N	0.871755	-0.480590	0.124040
N107	N	1.205089	-0.147256	0.457373
N108	N	1.538422	0.186077	0.790707
N109	N	0.915994	-0.519617	0.079830
N110	N	1.249327	-0.186283	0.413163
N111	N	1.582660	0.147050	0.746497
C112	C	1.032262	-0.000117	0.096161
C113	C	1.365596	0.333216	0.429494
C114	C	1.698929	0.666550	0.762828
C115	C	1.116280	-0.000122	0.097500
C116	C	1.449614	0.333211	0.430833
C117	C	1.782947	0.666545	0.764166
C118	C	0.899657	-0.000110	-0.036445
C119	C	1.232990	0.333223	0.296888
C120	C	1.566323	0.666557	0.630221
C121	C	0.898318	-0.000110	-0.120464
C122	C	1.231651	0.333223	0.212870
C123	C	1.564985	0.666557	0.546203
N124	N	0.903860	0.216233	0.091993
N125	N	1.237194	0.549566	0.425326
N126	N	1.570527	0.882900	0.758659
C127	C	0.966651	-0.000120	-0.169084
C128	C	1.299984	0.333214	0.164249
C129	C	1.633318	0.666547	0.497583
C130	C	0.965389	-0.000112	-0.248028
C131	C	1.298722	0.333221	0.085306
C132	C	1.632056	0.666554	0.418639
C133	C	0.895793	-0.000101	-0.278349
C134	C	1.229126	0.333232	0.054984
C135	C	1.562460	0.666566	0.388318
C136	C	0.827455	-0.000089	-0.229722
C137	C	1.160788	0.333245	0.103611
C138	C	1.494122	0.666578	0.436944
C139	C	0.828718	-0.000090	-0.150781
C140	C	1.162051	0.333243	0.182553
C141	C	1.495385	0.666576	0.515886
C142	C	0.822360	-0.000081	-0.548086
C143	C	1.155693	0.333252	-0.214752
C144	C	1.489027	0.666585	0.118581
C145	C	0.821102	-0.000082	-0.627034
C146	C	1.154436	0.333251	-0.293700
C147	C	1.487769	0.666584	0.039633
C148	C	0.959031	-0.000103	-0.645333
C149	C	1.292364	0.333230	-0.312000
C150	C	1.625698	0.666563	0.021334
C151	C	0.960294	-0.000105	-0.566391
C152	C	1.293627	0.333229	-0.233058
C153	C	1.626961	0.666562	0.100276
C154	C	0.891957	-0.000088	-0.517772
C155	C	1.225290	0.333245	-0.184438
C156	C	1.558623	0.666579	0.148895
C157	C	0.893326	-0.000095	-0.432172
C158	C	1.226659	0.333239	-0.098839
C159	C	1.559992	0.666572	0.234494
C160	C	0.894423	-0.000100	-0.363947
C161	C	1.227756	0.333233	-0.030613
C162	C	1.561089	0.666566	0.302720
C163	C	0.888097	-0.000092	0.240326
C164	C	1.221431	0.333242	0.573659
C165	C	1.554764	0.666575	0.906993
C166	C	0.889436	-0.000086	0.324344
C167	C	1.222770	0.333247	0.657677
C168	C	1.556103	0.666581	0.991011
H169	H	0.647534	-0.000061	0.231387
H170	H	0.980867	0.333273	0.564720
H171	H	1.314201	0.666606	0.898053
H172	H	0.770789	-0.000074	-0.254416
H173	H	1.104122	0.333259	0.078917
H174	H	1.437456	0.666592	0.412250
F175	F	0.769289	-0.394048	0.226427
F176	F	1.102622	-0.060715	0.559760
F177	F	1.435956	0.272619	0.893094
H178	H	1.014675	-0.000113	-0.684929
H179	H	1.348008	0.333221	-0.351596
H180	H	1.681342	0.666554	-0.018262
F181	F	0.747025	-0.000069	-0.659301
F182	F	1.080358	0.333264	-0.325968
F183	F	1.413692	0.666598	0.007365
H184	H	0.969781	-0.383128	0.026065
H185	H	1.303115	-0.049795	0.359398
H186	H	1.636448	0.283538	0.692731
H187	H	0.537521	-0.000117	-0.021148
H188	H	0.870854	0.333216	0.312185
H189	H	1.204187	0.666550	0.645518
F190	F	0.492167	-0.000071	0.246182
F191	F	0.825500	0.333262	0.579515
F192	F	1.158833	0.666595	0.912848
F193	F	0.990472	-0.213638	0.005381
F194	F	1.323805	0.119695	0.338715
F195	F	1.657138	0.453029	0.672048
H196	H	1.005069	-0.617080	-0.009168
H197	H	1.338402	-0.283747	0.324166
H198	H	1.671736	0.049587	0.657499
F199	F	0.777579	-0.213622	0.218123
F200	F	1.110912	0.119711	0.551456
F201	F	1.444246	0.453045	0.884789
F202	F	1.040725	-0.000140	-0.136821
F203	F	1.374059	0.333193	0.196512
F204	F	1.707392	0.666527	0.529845
F205	F	1.010175	-0.786582	-0.014250
F206	F	1.343508	-0.453248	0.319084
F207	F	1.676841	-0.119915	0.652417
H208	H	0.250228	-0.000090	0.225030
H209	H	0.583562	0.333244	0.558363
H210	H	0.916895	0.666577	0.891696
F211	F	0.755989	-0.000077	-0.099035
F212	F	1.089322	0.333256	0.234298
F213	F	1.422655	0.666589	0.567632
F214	F	1.038118	-0.000124	-0.299770
F215	F	1.371452	0.333209	0.033563
F216	F	1.704785	0.666543	0.366896
H217	H	0.680744	-0.000096	-0.018864
H218	H	1.014077	0.333238	0.314470
H219	H	1.347411	0.666571	0.647803
F220	F	1.034367	-0.000116	-0.534126
F221	F	1.367701	0.333217	-0.200792
F222	F	1.701034	0.666551	0.132541
F223	F	0.749629	-0.000061	-0.496351
F224	F	1.082962	0.333272	-0.163018
F225	F	1.416296	0.666605	0.170315
F226	F	0.094852	-0.000097	0.239827
F227	F	0.428185	0.333236	0.573160
F228	F	0.761519	0.666570	0.906493
H229	H	0.140219	-0.000130	-0.027511
H230	H	0.473552	0.333204	0.305822
H231	H	0.806886	0.666537	0.639156
F232	F	0.797290	-0.786568	0.198501
F233	F	1.130623	-0.453235	0.531835
F234	F	1.463956	-0.119902	0.865168
F235	F	0.805576	-0.606149	0.190188
F236	F	1.138909	-0.272816	0.523521
F237	F	1.472242	0.060517	0.856854
F238	F	0.295586	-0.000131	-0.042308
F239	F	0.628919	0.333203	0.291025
F240	F	0.962252	0.666536	0.624359
