data_functionalizedCrystal
_audit_creation_method	'MofGen! by Chris Wilmer'
_symmetry_space_group_name_H-M	'P1'
_symmetry_Int_Tables_number	1
_symmetry_cell_setting	triclinic
loop_
_symmetry_equiv_pos_as_xyz
  x,y,z
_cell_length_a	16.109302
_cell_length_b	16.109304
_cell_length_c	13.448316
_cell_angle_alpha	89.996206
_cell_angle_beta	89.991297
_cell_angle_gamma	83.462209
loop_
_atom_site_label
_atom_site_type_symbol
_atom_site_fract_x
_atom_site_fract_y
_atom_site_fract_z
O1	O	1.103135	0.106872	-0.082730
O2	O	1.436468	0.440205	0.250603
O3	O	1.769802	0.773539	0.583936
O4	O	0.861073	0.120171	-0.082722
O5	O	1.194407	0.453504	0.250612
O6	O	1.527740	0.786837	0.583945
O7	O	0.988753	-0.007510	-0.082727
O8	O	1.322086	0.325824	0.250607
O9	O	1.655419	0.659157	0.583940
O10	O	0.975456	0.234552	-0.082725
O11	O	1.308789	0.567885	0.250608
O12	O	1.642122	0.901219	0.583942
O13	O	0.988737	-0.007517	0.082657
O14	O	1.322070	0.325816	0.415990
O15	O	1.655403	0.659149	0.749324
O16	O	0.861057	0.120163	0.082662
O17	O	1.194391	0.453496	0.415996
O18	O	1.527724	0.786829	0.749329
O19	O	1.103119	0.106864	0.082654
O20	O	1.436452	0.440197	0.415987
O21	O	1.769786	0.773531	0.749320
Cu22	Cu	0.982087	0.113513	0.097759
Cu23	Cu	1.315420	0.446846	0.431092
Cu24	Cu	1.648753	0.780179	0.764425
Cu25	Cu	0.982106	0.113522	-0.097827
Cu26	Cu	1.315439	0.446855	0.235507
Cu27	Cu	1.648772	0.780189	0.568840
O28	O	0.975440	0.234544	0.082659
O29	O	1.308773	0.567877	0.415992
O30	O	1.642106	0.901211	0.749325
C31	C	0.830090	0.119628	-0.000029
C32	C	1.163424	0.452961	0.333305
C33	C	1.496757	0.786294	0.666638
C34	C	0.737795	0.118012	-0.000026
C35	C	1.071128	0.451346	0.333308
C36	C	1.404462	0.784679	0.666641
C37	C	0.988206	-0.038488	-0.000037
C38	C	1.321539	0.294845	0.333296
C39	C	1.654872	0.628178	0.666630
C40	C	0.986590	-0.130784	-0.000044
C41	C	1.319923	0.202550	0.333290
C42	C	1.653256	0.535883	0.666623
C43	C	0.525445	0.114273	0.090115
C44	C	0.858779	0.447606	0.423448
C45	C	1.192112	0.780940	0.756782
C46	C	0.438725	0.112746	0.090112
C47	C	0.772059	0.446080	0.423445
C48	C	1.105392	0.779413	0.756778
C49	C	0.438753	0.112759	-0.090199
C50	C	0.772087	0.446092	0.243134
C51	C	1.105420	0.779426	0.576468
C52	C	0.525473	0.114280	-0.090194
C53	C	0.858806	0.447613	0.243139
C54	C	1.192139	0.780946	0.576472
C55	C	0.568816	0.115041	-0.000034
C56	C	0.902149	0.448374	0.333299
C57	C	1.235483	0.781708	0.666632
C58	C	0.395377	0.111994	-0.000042
C59	C	0.728710	0.445327	0.333291
C60	C	1.062043	0.778660	0.666624
C61	C	0.301351	0.110338	-0.000047
C62	C	0.634684	0.443672	0.333287
C63	C	0.968017	0.777005	0.666620
C64	C	0.662848	0.116695	-0.000030
C65	C	0.996181	0.450028	0.333304
C66	C	1.329514	0.783362	0.666637
C67	C	0.982865	-0.343117	-0.090191
C68	C	1.316198	-0.009783	0.243143
C69	C	1.649531	0.323550	0.576476
C70	C	0.981339	-0.429837	-0.090190
C71	C	1.314672	-0.096503	0.243144
C72	C	1.648005	0.236830	0.576477
C73	C	0.981325	-0.429842	0.090121
C74	C	1.314659	-0.096509	0.423454
C75	C	1.647992	0.236824	0.756788
C76	C	0.982845	-0.343123	0.090119
C77	C	1.316179	-0.009790	0.423452
C78	C	1.649512	0.323544	0.756786
C79	C	0.983619	-0.299763	-0.000040
C80	C	1.316953	0.033570	0.333293
C81	C	1.650286	0.366904	0.666627
C82	C	0.980573	-0.473202	-0.000037
C83	C	1.313906	-0.139869	0.333296
C84	C	1.647240	0.193464	0.666630
C85	C	0.978918	-0.567228	-0.000035
C86	C	1.312252	-0.233895	0.333298
C87	C	1.645585	0.099438	0.666632
C88	C	0.985272	-0.205731	-0.000042
C89	C	1.318606	0.127602	0.333291
C90	C	1.651939	0.460936	0.666625
C91	C	1.134102	0.107407	-0.000041
C92	C	1.467435	0.440740	0.333292
C93	C	1.800769	0.774073	0.666625
C94	C	1.226397	0.109022	-0.000051
C95	C	1.559731	0.442355	0.333282
C96	C	1.893064	0.775689	0.666616
C97	C	0.975987	0.265523	-0.000033
C98	C	1.309320	0.598856	0.333300
C99	C	1.642653	0.932190	0.666633
C100	C	0.977603	0.357818	-0.000033
C101	C	1.310936	0.691151	0.333300
C102	C	1.644270	1.024485	0.666634
N103	N	0.982079	0.113506	0.235323
N104	N	1.315413	0.446839	0.568656
N105	N	1.648746	0.780172	0.901990
N106	N	0.982120	0.113522	-0.235391
N107	N	1.315453	0.446856	0.097942
N108	N	1.648786	0.780189	0.431276
C109	C	1.038633	0.056992	0.287361
C110	C	1.371967	0.390325	0.620695
C111	C	1.705300	0.723659	0.954028
C112	C	1.038639	0.056991	0.391464
C113	C	1.371972	0.390325	0.724798
C114	C	1.705305	0.723658	1.058131
C115	C	0.982093	0.113509	0.443528
C116	C	1.315426	0.446842	0.776861
C117	C	1.648760	0.780175	1.110194
C118	C	0.925533	0.170025	0.391482
C119	C	1.258867	0.503358	0.724816
C120	C	1.592200	0.836692	1.058149
C121	C	0.925525	0.170021	0.287381
C122	C	1.258858	0.503354	0.620714
C123	C	1.592191	0.836688	0.954048
C124	C	0.925556	0.170031	0.608462
C125	C	1.258890	0.503364	0.941796
C126	C	1.592223	0.836697	1.275129
C127	C	0.925566	0.170036	0.712571
C128	C	1.258899	0.503369	1.045904
C129	C	1.592232	0.836703	1.379237
C130	C	1.038670	0.057001	0.712546
C131	C	1.372003	0.390334	1.045879
C132	C	1.705337	0.723668	1.379212
C133	C	1.038662	0.056997	0.608444
C134	C	1.371995	0.390330	0.941778
C135	C	1.705328	0.723664	1.275111
C136	C	0.982103	0.113514	0.556406
C137	C	1.315436	0.446848	0.889740
C138	C	1.648769	0.780181	1.223073
H139	H	0.560733	0.114893	0.163529
H140	H	0.894066	0.448226	0.496863
H141	H	1.227400	0.781559	0.830196
F142	F	0.983641	-0.296979	0.186075
F143	F	1.316974	0.036354	0.519408
F144	F	1.650307	0.369688	0.852742
H145	H	1.084722	0.010982	0.754921
H146	H	1.418055	0.344316	1.088255
H147	H	1.751389	0.677649	1.421588
F148	F	0.392571	0.111930	0.186061
F149	F	0.725904	0.445263	0.519395
F150	F	1.059238	0.778596	0.852728
F151	F	0.392619	0.111932	-0.186148
F152	F	0.725953	0.445266	0.147185
F153	F	1.059286	0.778599	0.480519
H154	H	1.084683	0.010972	0.244978
H155	H	1.418016	0.344306	0.578311
H156	H	1.751349	0.677639	0.911645
F157	F	0.571634	0.115092	-0.186149
F158	F	0.904967	0.448425	0.147184
F159	F	1.238301	0.781758	0.480518
H160	H	0.983492	-0.307815	-0.163604
H161	H	1.316826	0.025518	0.169730
H162	H	1.650159	0.358851	0.503063
H163	H	0.980722	-0.465131	-0.163599
H164	H	1.314056	-0.131798	0.169734
H165	H	1.647389	0.201535	0.503067
F166	F	0.980501	-0.475996	0.186069
F167	F	1.313835	-0.142663	0.519402
F168	F	1.647168	0.190670	0.852735
F169	F	1.098828	-0.003157	0.446848
F170	F	1.432162	0.330176	0.780181
F171	F	1.765495	0.663509	1.113514
H172	H	1.084709	0.010980	0.566055
H173	H	1.418042	0.344314	0.899388
H174	H	1.751376	0.677647	1.232721
F175	F	0.865348	0.230172	0.446893
F176	F	1.198682	0.563506	0.780226
F177	F	1.532015	0.896839	1.113559
H178	H	0.879520	0.216057	0.754955
H179	H	1.212853	0.549391	1.088289
H180	H	1.546186	0.882724	1.421622
H181	H	0.879497	0.216051	0.566096
H182	H	1.212830	0.549384	0.899430
H183	H	1.546164	0.882717	1.232763
H184	H	0.879472	0.216039	0.245012
H185	H	1.212805	0.549372	0.578346
H186	H	1.546138	0.882706	0.911679
