data_functionalizedCrystal
_audit_creation_method	'MofGen! by Chris Wilmer'
_symmetry_space_group_name_H-M	'P1'
_symmetry_Int_Tables_number	1
_symmetry_cell_setting	triclinic
loop_
_symmetry_equiv_pos_as_xyz
  x,y,z
_cell_length_a	19.077105
_cell_length_b	12.594516
_cell_length_c	19.076919
_cell_angle_alpha	87.722761
_cell_angle_beta	89.923776
_cell_angle_gamma	87.712633
loop_
_atom_site_label
_atom_site_type_symbol
_atom_site_fract_x
_atom_site_fract_y
_atom_site_fract_z
Zn1	Zn	1.058319	-0.514930	0.440450
Zn2	Zn	1.558319	-0.014930	0.940450
Zn3	Zn	1.062975	-0.686069	0.322954
Zn4	Zn	1.562975	-0.186069	0.822954
Zn5	Zn	0.945535	-0.500672	0.318243
Zn6	Zn	1.445535	-0.000672	0.818243
Zn7	Zn	0.940797	-0.685427	0.435707
Zn8	Zn	1.440797	-0.185427	0.935707
O9	O	1.001907	-0.596775	0.379338
O10	O	1.501907	-0.096775	0.879338
O11	O	1.157269	-0.543868	0.428821
O12	O	1.657269	-0.043868	0.928821
O13	O	1.051328	-0.655777	0.223998
O14	O	1.551328	-0.155777	0.723998
O15	O	0.960531	-0.353620	0.334467
O16	O	1.460531	0.146380	0.834467
O17	O	1.160690	-0.669603	0.342497
O18	O	1.660690	-0.169603	0.842497
O19	O	1.043393	-0.364096	0.424253
O20	O	1.543393	0.135904	0.924253
O21	O	0.965046	-0.519567	0.220536
O22	O	1.465046	-0.019567	0.720536
O23	O	0.846574	-0.518944	0.329868
O24	O	1.346574	-0.018944	0.829868
O25	O	0.952455	-0.668509	0.534668
O26	O	1.452455	-0.168509	1.034668
O27	O	0.843093	-0.654683	0.416168
O28	O	1.343093	-0.154683	0.916168
O29	O	1.038798	-0.543246	0.538153
O30	O	1.538798	-0.043246	1.038153
O31	O	1.046733	-0.834927	0.337898
O32	O	1.546733	-0.334927	0.837898
O33	O	0.956969	-0.834455	0.420737
O34	O	1.456969	-0.334455	0.920737
C35	C	0.819337	-0.585197	0.371992
C36	C	1.319337	-0.085197	0.871992
C37	C	0.741233	-0.580271	0.368866
C38	C	1.241233	-0.080271	0.868866
C39	C	1.001861	-0.873312	0.379330
C40	C	1.501861	-0.373312	0.879330
C41	C	1.001905	-0.991622	0.379352
C42	C	1.501905	-0.491622	0.879352
C43	C	0.702747	-0.648728	0.412259
C44	C	1.202747	-0.148728	0.912259
C45	C	0.629360	-0.644085	0.409325
C46	C	1.129360	-0.144085	0.909325
C47	C	0.594459	-0.570991	0.362994
C48	C	1.094459	-0.070991	0.862994
C49	C	0.632949	-0.502527	0.319600
C50	C	1.132949	-0.002527	0.819600
C51	C	0.706335	-0.507165	0.322538
C52	C	1.206335	-0.007165	0.822538
C53	C	0.375169	-0.549525	0.349400
C54	C	0.875169	-0.049525	0.849400
C55	C	0.301778	-0.544895	0.346464
C56	C	0.801778	-0.044895	0.846464
C57	C	0.298194	-0.686452	0.436191
C58	C	0.798194	-0.186452	0.936191
C59	C	0.371582	-0.691088	0.439121
C60	C	0.871582	-0.191088	0.939121
C61	C	0.410065	-0.622620	0.395730
C62	C	0.910065	-0.122620	0.895730
N63	N	0.519445	-0.566246	0.359993
N64	N	1.019445	-0.066246	0.859993
N65	N	0.485078	-0.627361	0.398735
N66	N	0.985078	-0.127361	0.898735
C67	C	0.953079	-1.060655	0.424375
C68	C	1.453079	-0.560655	0.924375
C69	C	0.938538	-1.126689	0.359570
C70	C	1.438538	-0.626689	0.859570
C71	C	1.016509	-1.136391	0.444171
C72	C	1.516509	-0.636391	0.944171
C73	C	0.987331	-1.056094	0.314511
C74	C	1.487331	-0.556094	0.814511
C75	C	1.065330	-1.065794	0.399157
C76	C	1.565330	-0.565794	0.899157
C77	C	1.050816	-1.131795	0.334309
C78	C	1.550816	-0.631795	0.834309
C79	C	1.185189	-0.608398	0.386714
C80	C	1.685189	-0.108398	0.886714
C81	C	1.263293	-0.613351	0.389857
C82	C	1.763293	-0.113351	0.889857
C83	C	0.994578	-0.607396	0.562619
C84	C	1.494578	-0.107396	1.062619
C85	C	0.991455	-0.611923	0.640723
C86	C	1.491455	-0.111923	1.140723
C87	C	1.001971	-0.319159	0.379363
C88	C	1.501971	0.180841	0.879363
C89	C	1.001998	-0.200856	0.379374
C90	C	1.501998	0.299144	0.879374
C91	C	1.009247	-0.586120	0.196772
C92	C	1.509247	-0.086120	0.696772
C93	C	1.012506	-0.581302	0.118675
C94	C	1.512506	-0.081302	0.618675
C95	C	1.034940	-0.548834	0.679231
C96	C	1.534940	-0.048834	1.179231
C97	C	1.031997	-0.553083	0.752617
C98	C	1.531997	-0.053083	1.252617
C99	C	0.985572	-0.620426	0.787494
C100	C	1.485572	-0.120426	1.287494
C101	C	0.942083	-0.683517	0.748980
C102	C	1.442083	-0.183517	1.248980
C103	C	0.945023	-0.679262	0.675595
C104	C	1.445023	-0.179262	1.175595
C105	C	0.971956	-0.640139	1.006776
C106	C	1.471956	-0.140139	1.506776
C107	C	0.969021	-0.644391	1.080166
C108	C	1.469021	-0.144391	1.580166
C109	C	1.058935	-0.513955	1.083799
C110	C	1.558935	-0.013955	1.583799
C111	C	1.061873	-0.509711	1.010412
C112	C	1.561873	-0.009711	1.510412
C113	C	1.018381	-0.572798	0.971905
C114	C	1.518381	-0.072798	1.471905
N115	N	0.982565	-0.624772	0.862506
N116	N	1.482565	-0.124772	1.362506
N117	N	1.021386	-0.568445	0.896894
N118	N	1.521386	-0.068445	1.396894
H119	H	0.731159	-0.708252	0.449984
H120	H	1.231159	-0.208252	0.949984
H121	H	0.737669	-0.451416	0.287206
H122	H	1.237669	0.048584	0.787206
C123	C	0.263388	-0.464481	0.295495
C124	C	0.763388	0.035519	0.795495
N125	N	0.234473	-0.403917	0.257107
N126	N	0.734473	0.096083	0.757107
C127	C	1.086010	-0.474750	0.640874
C128	C	1.586010	0.025250	1.140874
N129	N	1.124476	-0.418943	0.611986
N130	N	1.624476	0.081057	1.111986
C131	C	0.409967	-0.771502	0.490085
C132	C	0.909967	-0.271502	0.990085
N133	N	0.438880	-0.832076	0.528469
N134	N	0.938880	-0.332076	1.028469
H135	H	0.266852	-0.742192	0.471519
H136	H	0.766852	-0.242192	0.971519
H137	H	1.028824	-1.171502	0.498979
H138	H	1.528824	-0.671502	0.998979
C139	C	0.917946	-0.718473	1.118528
C140	C	1.417946	-0.218473	1.618528
N141	N	0.879479	-0.774270	1.147423
N142	N	1.379479	-0.274270	1.647423
H143	H	0.884944	-1.153628	0.342835
H144	H	1.384944	-0.653628	0.842835
H145	H	1.118911	-1.038859	0.415922
H146	H	1.618911	-0.538859	0.915922
C147	C	0.587030	-0.719412	0.457047
C148	C	1.087030	-0.219412	0.957047
N149	N	0.555147	-0.776159	0.492989
N150	N	1.055147	-0.276159	0.992989
H151	H	1.094343	-0.462592	1.115159
H152	H	1.594343	0.037408	1.615159
H153	H	0.911720	-1.029418	0.462389
H154	H	1.411720	-0.529418	0.962389
H155	H	0.974954	-1.021106	0.259686
H156	H	1.474954	-0.521106	0.759686
C157	C	0.417492	-0.474215	0.301663
C158	C	0.917492	0.025785	0.801663
N159	N	0.449372	-0.417489	0.265704
N160	N	0.949372	0.082511	0.765704
C161	C	1.112937	-0.435617	0.972054
C162	C	1.612937	0.064383	1.472054
N163	N	1.151398	-0.379807	0.943162
N164	N	1.651398	0.120193	1.443162
C165	C	1.079835	-0.483682	0.794974
C166	C	1.579835	0.016318	1.294974
N167	N	1.115869	-0.431406	0.826876
N168	N	1.615869	0.068594	1.326876
C169	C	0.891008	-0.757584	0.787346
C170	C	1.391008	-0.257584	1.287346
N171	N	0.852538	-0.813373	0.816243
N172	N	1.352538	-0.313373	1.316243
H173	H	0.604527	-0.443008	0.281879
H174	H	1.104527	0.056992	0.781879
C175	C	1.106652	-1.173728	0.282824
C176	C	1.606652	-0.673728	0.782824
N177	N	1.148704	-1.205315	0.244043
N178	N	1.648704	-0.705315	0.744043
H179	H	0.909606	-0.730624	0.644242
H180	H	1.409606	-0.230624	1.144242
H181	H	0.936552	-0.691524	0.975432
H182	H	1.436552	-0.191524	1.475432
