data_functionalizedCrystal
_audit_creation_method	'MofGen! by Chris Wilmer'
_symmetry_space_group_name_H-M	'P1'
_symmetry_Int_Tables_number	1
_symmetry_cell_setting	triclinic
loop_
_symmetry_equiv_pos_as_xyz
  x,y,z
_cell_length_a	14.971486
_cell_length_b	17.699092
_cell_length_c	13.448316
_cell_angle_alpha	89.995078
_cell_angle_beta	89.998199
_cell_angle_gamma	83.450248
loop_
_atom_site_label
_atom_site_type_symbol
_atom_site_fract_x
_atom_site_fract_y
_atom_site_fract_z
O1	O	1.186612	0.098633	-0.082574
O2	O	0.926171	0.110444	-0.082600
O3	O	1.063746	-0.005632	-0.082584
O4	O	1.049037	0.214709	-0.082590
O5	O	1.063729	-0.005639	0.082800
O6	O	0.926154	0.110437	0.082783
O7	O	1.186595	0.098626	0.082810
Cu8	Cu	1.056373	0.104531	0.097898
Cu9	Cu	1.056393	0.104539	-0.097688
O10	O	1.049020	0.214702	0.082794
C11	C	0.892840	0.109913	0.000088
C12	C	0.793548	0.108330	0.000078
C13	C	0.736091	0.176521	0.000077
C14	C	0.642797	0.175030	0.000092
C15	C	0.606961	0.105345	0.000101
C16	C	0.664426	0.037148	0.000104
C17	C	0.757719	0.038641	0.000096
C18	C	0.469974	0.034042	0.000118
C19	C	0.376675	0.032549	0.000124
C20	C	0.355052	0.170431	0.000114
C21	C	0.448345	0.171923	0.000106
C22	C	0.505803	0.103726	0.000108
C23	C	1.063209	-0.033834	0.000106
C24	C	1.061624	-0.117855	0.000102
C25	C	1.060891	-0.157321	-0.090050
C26	C	1.059396	-0.236267	-0.090052
C27	C	1.058641	-0.275748	0.000100
C28	C	1.059371	-0.236277	0.090259
C29	C	1.060860	-0.157331	0.090259
C30	C	1.053367	-0.554657	0.090260
C31	C	1.051881	-0.633608	0.090252
C32	C	1.051904	-0.633593	-0.090051
C33	C	1.053392	-0.554647	-0.090051
C34	C	1.054118	-0.515182	0.000107
C35	C	1.055737	-0.429579	0.000108
C36	C	1.057028	-0.361350	0.000101
C37	C	1.219926	0.099158	0.000119
C38	C	1.319218	0.100741	0.000123
C39	C	1.049557	0.242904	0.000101
C40	C	1.051142	0.326926	0.000099
N41	N	1.056365	0.104524	0.235462
N42	N	1.056408	0.104540	-0.235252
C43	C	1.117302	0.053147	0.287510
C44	C	1.117307	0.053146	0.391613
C45	C	1.056380	0.104527	0.443667
C46	C	0.995437	0.155907	0.391612
C47	C	0.995427	0.155904	0.287510
C48	C	0.995461	0.155912	0.608592
C49	C	0.995471	0.155917	0.712700
C50	C	1.117341	0.053155	0.712694
C51	C	1.117332	0.053151	0.608593
C52	C	1.056390	0.104533	0.556545
H53	H	0.477518	0.228666	0.000090
H54	H	1.054011	-0.522506	-0.163462
F55	F	1.054128	-0.512664	0.186214
F56	F	1.182162	-0.001536	0.447006
F57	F	0.338539	-0.041617	0.000158
H58	H	1.058751	-0.268428	0.163662
H59	H	1.061511	-0.125182	-0.163462
H60	H	0.635242	-0.019590	0.000125
F61	F	1.051076	-0.675625	0.186209
H62	H	0.945824	0.197740	0.434000
F63	F	1.182182	-0.001529	0.553193
H64	H	1.166920	0.011310	0.245134
F65	F	1.058617	-0.278266	-0.186004
H66	H	1.061444	-0.125198	0.163670
H67	H	0.516755	-0.021492	0.000121
F68	F	1.182201	-0.001527	0.768091
F69	F	1.051128	-0.675600	-0.186007
F70	F	0.930622	0.210603	0.768092
H71	H	0.945805	0.197740	0.245134
F72	F	0.774220	0.250690	0.000062
F73	F	0.581650	0.247609	0.000087
H74	H	0.804500	-0.016888	0.000096
H75	H	0.308265	0.225959	0.000117
H76	H	0.945833	0.197750	0.566218
