data_functionalizedCrystal
_audit_creation_method	'MofGen! by Chris Wilmer'
_symmetry_space_group_name_H-M	'P1'
_symmetry_Int_Tables_number	1
_symmetry_cell_setting	triclinic
loop_
_symmetry_equiv_pos_as_xyz
  x,y,z
_cell_length_a	19.288840
_cell_length_b	27.732048
_cell_length_c	18.366186
_cell_angle_alpha	90.010100
_cell_angle_beta	90.016305
_cell_angle_gamma	82.884335
loop_
_atom_site_label
_atom_site_type_symbol
_atom_site_fract_x
_atom_site_fract_y
_atom_site_fract_z
O1	O	0.920988	0.060241	0.060679
O2	O	1.254322	0.393575	0.394012
O3	O	1.587655	0.726908	0.727346
O4	O	0.718674	0.068388	0.060655
O5	O	1.052008	0.401722	0.393988
O6	O	1.385341	0.735055	0.727322
O7	O	0.826115	-0.006063	0.060654
O8	O	1.159448	0.327270	0.393987
O9	O	1.492781	0.660603	0.727320
O10	O	0.813548	0.134693	0.060680
O11	O	1.146881	0.468026	0.394013
O12	O	1.480215	0.801360	0.727347
O13	O	0.826096	-0.006065	-0.060446
O14	O	1.159430	0.327268	0.272888
O15	O	1.492763	0.660601	0.606221
O16	O	0.718656	0.068386	-0.060445
O17	O	1.051989	0.401720	0.272889
O18	O	1.385323	0.735053	0.606222
O19	O	0.920970	0.060239	-0.060420
O20	O	1.254303	0.393573	0.272913
O21	O	1.587636	0.726906	0.606246
Zn22	Zn	0.819810	0.064312	-0.079660
Zn23	Zn	1.153143	0.397646	0.253674
Zn24	Zn	1.486477	0.730979	0.587007
Zn25	Zn	0.819834	0.064315	0.079894
Zn26	Zn	1.153168	0.397649	0.413227
Zn27	Zn	1.486501	0.730982	0.746561
O28	O	0.813529	0.134691	-0.060419
O29	O	1.146863	0.468024	0.272914
O30	O	1.480196	0.801358	0.606247
C31	C	0.692790	0.068127	0.000102
C32	C	1.026123	0.401461	0.333435
C33	C	1.359457	0.734794	0.666769
C34	C	0.615690	0.067346	0.000092
C35	C	0.949024	0.400680	0.333425
C36	C	1.282357	0.734013	0.666759
C37	C	0.579499	0.066972	0.066105
C38	C	0.912833	0.400306	0.399438
C39	C	1.246166	0.733639	0.732772
C40	C	0.507057	0.066233	0.066114
C41	C	0.840390	0.399567	0.399447
C42	C	1.173724	0.732900	0.732781
C43	C	0.470810	0.065858	0.000106
C44	C	0.804144	0.399192	0.333439
C45	C	1.137477	0.732525	0.666772
C46	C	0.507010	0.066235	-0.065916
C47	C	0.840343	0.399569	0.267417
C48	C	1.173676	0.732902	0.600751
C49	C	0.579450	0.066979	-0.065923
C50	C	0.912783	0.400313	0.267410
C51	C	1.246116	0.733646	0.600744
C52	C	0.361659	0.036366	-0.050461
C53	C	0.694992	0.369700	0.282872
C54	C	1.028326	0.703033	0.616206
C55	C	0.289221	0.035619	-0.050451
C56	C	0.622554	0.368953	0.282882
C57	C	0.955888	0.702286	0.616215
C58	C	0.247381	0.063566	0.000124
C59	C	0.580714	0.396899	0.333458
C60	C	0.914048	0.730233	0.666791
C61	C	0.277989	0.092253	0.050703
C62	C	0.611323	0.425587	0.384036
C63	C	0.944656	0.758920	0.717369
C64	C	0.350429	0.092997	0.050696
C65	C	0.683763	0.426331	0.384029
C66	C	1.017096	0.759664	0.717362
C67	C	0.392261	0.065052	0.000106
C68	C	0.725595	0.398385	0.333439
C69	C	1.058928	0.731719	0.666773
C70	C	0.132640	0.062391	0.066152
C71	C	0.465973	0.395725	0.399485
C72	C	0.799306	0.729058	0.732818
C73	C	0.060195	0.061655	0.066158
C74	C	0.393529	0.394989	0.399491
C75	C	0.726862	0.728322	0.732824
C76	C	0.060151	0.061652	-0.065874
C77	C	0.393484	0.394986	0.267459
C78	C	0.726817	0.728319	0.600792
C79	C	0.132593	0.062393	-0.065878
C80	C	0.465926	0.395727	0.267455
C81	C	0.799259	0.729060	0.600788
C82	C	0.168833	0.062760	0.000137
C83	C	0.502166	0.396094	0.333470
C84	C	0.835500	0.729427	0.666803
C85	C	0.825842	-0.024072	0.000102
C86	C	1.159175	0.309261	0.333435
C87	C	1.492508	0.642595	0.666769
C88	C	0.825047	-0.077729	0.000096
C89	C	1.158381	0.255604	0.333429
C90	C	1.491714	0.588937	0.666763
C91	C	0.883537	-0.416371	0.000140
C92	C	1.216870	-0.083038	0.333474
C93	C	1.550204	0.250295	0.666807
C94	C	0.880590	-0.618040	0.000150
C95	C	1.213923	-0.284706	0.333484
C96	C	1.547256	0.048627	0.666817
O97	O	0.934074	-0.649137	0.000188
O98	O	1.267408	-0.315804	0.333522
O99	O	1.600741	0.017530	0.666855
N100	N	0.816882	-0.637352	0.000142
N101	N	1.150215	-0.304019	0.333475
N102	N	1.483549	0.029315	0.666809
C103	C	0.753907	-0.606243	0.000136
C104	C	1.087240	-0.272910	0.333469
C105	C	1.420573	0.060423	0.666803
O106	O	0.699652	-0.627297	0.000137
O107	O	1.032985	-0.293964	0.333470
O108	O	1.366318	0.039370	0.666803
C109	C	0.756855	-0.404576	0.000131
C110	C	1.090188	-0.071243	0.333465
C111	C	1.423521	0.262091	0.666798
C112	C	0.820566	-0.385267	0.000132
C113	C	1.153900	-0.051934	0.333466
C114	C	1.487233	0.281400	0.666799
C115	C	0.947244	-0.397062	0.000142
C116	C	1.280577	-0.063728	0.333475
C117	C	1.613910	0.269605	0.666809
C118	C	0.947980	-0.346647	0.000136
C119	C	1.281313	-0.013314	0.333469
C120	C	1.614646	0.320019	0.666802
C121	C	0.885009	-0.315543	0.000128
C122	C	1.218342	0.017790	0.333461
C123	C	1.551676	0.351124	0.666794
C124	C	0.821302	-0.334853	0.000126
C125	C	1.154636	-0.001519	0.333459
C126	C	1.487969	0.331814	0.666792
C127	C	0.693880	-0.373469	0.000131
C128	C	1.027213	-0.040135	0.333464
C129	C	1.360547	0.293198	0.666797
C130	C	0.694623	-0.323049	0.000131
C131	C	1.027956	0.010284	0.333465
C132	C	1.361289	0.343617	0.666798
C133	C	0.758334	-0.303740	0.000132
C134	C	1.091668	0.029593	0.333466
C135	C	1.425001	0.362927	0.666799
C136	C	0.759068	-0.253334	0.000111
C137	C	1.092401	0.079999	0.333445
C138	C	1.425735	0.413332	0.666778
N139	N	0.822776	-0.234022	0.000120
N140	N	1.156109	0.099311	0.333453
N141	N	1.489442	0.432645	0.666786
C142	C	0.885746	-0.265126	0.000128
C143	C	1.219080	0.068207	0.333461
C144	C	1.552413	0.401540	0.666794
C145	C	0.752363	-0.712122	0.000137
C146	C	1.085697	-0.378789	0.333470
C147	C	1.419030	-0.045455	0.666804
C148	C	0.751626	-0.762539	0.000137
C149	C	1.084960	-0.429205	0.333470
C150	C	1.418293	-0.095872	0.666803
C151	C	0.878310	-0.774331	0.000152
C152	C	1.211643	-0.440998	0.333486
C153	C	1.544976	-0.107665	0.666819
C154	C	0.879046	-0.723914	0.000147
C155	C	1.212379	-0.390581	0.333481
C156	C	1.545713	-0.057247	0.666814
C157	C	0.816071	-0.692810	0.000145
C158	C	1.149404	-0.359477	0.333479
C159	C	1.482738	-0.026143	0.666812
C160	C	0.887287	-0.159253	0.000114
C161	C	1.220621	0.174081	0.333447
C162	C	1.553954	0.507414	0.666780
C163	C	0.888018	-0.108834	0.000104
C164	C	1.221351	0.224500	0.333437
C165	C	1.554685	0.557833	0.666771
C166	C	0.761335	-0.097045	0.000092
C167	C	1.094668	0.236288	0.333426
C168	C	1.428002	0.569621	0.666759
C169	C	0.760604	-0.147460	0.000098
C170	C	1.093937	0.185873	0.333431
C171	C	1.427271	0.519207	0.666765
C172	C	0.823586	-0.178563	0.000111
C173	C	1.156919	0.154770	0.333444
C174	C	1.490253	0.488104	0.666778
O175	O	0.705612	-0.222208	0.000081
O176	O	1.038946	0.111125	0.333415
O177	O	1.372279	0.444458	0.666748
O178	O	0.939993	-0.244063	0.000143
O179	O	1.273327	0.089270	0.333477
O180	O	1.606660	0.422603	0.666810
C181	C	0.882801	-0.466785	0.000147
C182	C	1.216134	-0.133452	0.333480
C183	C	1.549467	0.199881	0.666813
C184	C	0.819094	-0.486095	0.000145
C185	C	1.152427	-0.152762	0.333478
C186	C	1.485761	0.180572	0.666812
C187	C	0.756124	-0.454991	0.000137
C188	C	1.089457	-0.121657	0.333470
C189	C	1.422790	0.211676	0.666804
C190	C	0.818357	-0.536512	0.000145
C191	C	1.151690	-0.203178	0.333478
C192	C	1.485024	0.130155	0.666812
C193	C	0.881327	-0.567616	0.000153
C194	C	1.214661	-0.234283	0.333486
C195	C	1.547994	0.099051	0.666820
C196	C	0.945035	-0.548304	0.000161
C197	C	1.278369	-0.214971	0.333495
C198	C	1.611702	0.118363	0.666828
C199	C	0.945771	-0.497890	0.000155
C200	C	1.279105	-0.164556	0.333488
C201	C	1.612438	0.168777	0.666822
C202	C	0.692416	-0.474303	0.000129
C203	C	1.025749	-0.140970	0.333462
C204	C	1.359083	0.192364	0.666795
C205	C	0.691685	-0.524718	0.000134
C206	C	1.025018	-0.191384	0.333468
C207	C	1.358352	0.141949	0.666801
C208	C	0.754655	-0.555822	0.000142
C209	C	1.087989	-0.222489	0.333476
C210	C	1.421322	0.110845	0.666809
C211	C	0.946854	0.060500	0.000134
C212	C	1.280187	0.393834	0.333468
C213	C	1.613521	0.727167	0.666801
C214	C	1.023954	0.061281	0.000149
C215	C	1.357287	0.394615	0.333482
C216	C	1.690620	0.727948	0.666816
C217	C	0.813802	0.152700	0.000134
C218	C	1.147136	0.486033	0.333467
C219	C	1.480469	0.819366	0.666801
C220	C	0.814597	0.206357	0.000145
C221	C	1.147930	0.539690	0.333478
C222	C	1.481263	0.873024	0.666812
N223	N	0.819798	0.064310	-0.188551
N224	N	1.153132	0.397644	0.144783
N225	N	1.486465	0.730977	0.478116
C226	C	0.861604	0.093553	-0.226634
C227	C	1.194937	0.426886	0.106699
C228	C	1.528271	0.760219	0.440033
C229	C	0.861615	0.093551	-0.302862
C230	C	1.194949	0.426885	0.030472
C231	C	1.528282	0.760218	0.363805
C232	C	0.819808	0.064313	-0.341003
C233	C	1.153141	0.397647	-0.007670
C234	C	1.486475	0.730980	0.325663
C235	C	0.778000	0.035065	-0.302911
C236	C	1.111333	0.368398	0.030422
C237	C	1.444666	0.701732	0.363756
C238	C	0.777995	0.035064	-0.226685
C239	C	1.111328	0.368397	0.106649
C240	C	1.444662	0.701730	0.439982
C241	C	0.757203	0.063095	-0.461793
C242	C	1.090537	0.396428	-0.128459
C243	C	1.423870	0.729761	0.204874
C244	C	0.757207	0.063100	-0.538018
C245	C	1.090540	0.396433	-0.204684
C246	C	1.423873	0.729766	0.128649
C247	C	0.819824	0.064315	-0.576111
C248	C	1.153157	0.397648	-0.242778
C249	C	1.486490	0.730982	0.090556
C250	C	0.882438	0.065535	-0.537970
C251	C	1.215772	0.398869	-0.204637
C252	C	1.549105	0.732202	0.128697
C253	C	0.882434	0.065534	-0.461744
C254	C	1.215767	0.398867	-0.128410
C255	C	1.549100	0.732201	0.204923
C256	C	0.819809	0.064311	-0.423658
C257	C	1.153142	0.397645	-0.090325
C258	C	1.486476	0.730978	0.243008
C259	C	0.861645	0.093557	-0.696849
C260	C	1.194979	0.426891	-0.363516
C261	C	1.528312	0.760224	-0.030182
C262	C	0.861658	0.093552	-0.773078
C263	C	1.194991	0.426886	-0.439745
C264	C	1.528325	0.760219	-0.106412
C265	C	0.778036	0.035069	-0.773126
C266	C	1.111369	0.368402	-0.439793
C267	C	1.444703	0.701736	-0.106460
C268	C	0.778030	0.035071	-0.696898
C269	C	1.111363	0.368404	-0.363565
C270	C	1.444696	0.701738	-0.030232
C271	C	0.819833	0.064318	-0.658764
C272	C	1.153166	0.397651	-0.325431
C273	C	1.486500	0.730984	0.007902
N274	N	0.819851	0.064313	0.188785
N275	N	1.153185	0.397647	0.522119
N276	N	1.486518	0.730980	0.855452
H277	H	0.477584	0.065929	0.119871
H278	H	0.810918	0.399263	0.453205
H279	H	1.144251	0.732596	0.786538
H280	H	0.933417	0.066527	-0.430693
H281	H	1.266750	0.399860	-0.097359
H282	H	1.600083	0.733193	0.235974
H283	H	0.609002	0.067271	0.119860
H284	H	0.942335	0.400605	0.453193
H285	H	1.275668	0.733938	0.786526
H286	H	0.701079	-0.686801	0.000135
H287	H	1.034412	-0.353468	0.333468
H288	H	1.367745	-0.020134	0.666802
H289	H	0.708725	-0.163182	0.000077
H290	H	1.042058	0.170151	0.333410
H291	H	1.375391	0.503485	0.666744
H292	H	0.030729	0.061354	0.119916
H293	H	0.364063	0.394687	0.453249
H294	H	0.697396	0.728020	0.786582
H295	H	0.375347	0.116357	0.091877
H296	H	0.708681	0.449690	0.425210
H297	H	1.042014	0.783023	0.758543
H298	H	0.743997	0.011262	-0.804180
H299	H	1.077330	0.344596	-0.470847
H300	H	1.410663	0.677929	-0.137514
H301	H	0.706222	0.062108	-0.569066
H302	H	1.039555	0.395442	-0.235733
H303	H	1.372888	0.728775	0.097601
H304	H	0.710066	-0.071711	0.000083
H305	H	1.043399	0.261622	0.333416
H306	H	1.376733	0.594955	0.666750
H307	H	0.996308	-0.573638	0.000165
H308	H	1.329641	-0.240305	0.333498
H309	H	1.662975	0.093029	0.666831
H310	H	0.706208	0.062108	-0.430783
H311	H	1.039542	0.395442	-0.097450
H312	H	1.372875	0.728775	0.235884
H313	H	0.743984	0.011261	-0.665891
H314	H	1.077317	0.344594	-0.332557
H315	H	1.410651	0.677927	0.000776
H316	H	0.933427	0.066528	-0.568984
H317	H	1.266760	0.399861	-0.235651
H318	H	1.600094	0.733194	0.097683
H319	H	0.895685	0.117371	-0.665799
H320	H	1.229018	0.450705	-0.332465
H321	H	1.562351	0.784038	0.000868
H322	H	0.743961	0.011259	-0.333971
H323	H	1.077294	0.344592	-0.000638
H324	H	1.410627	0.677925	0.332696
H325	H	0.743950	0.011250	-0.195678
H326	H	1.077284	0.344584	0.137656
H327	H	1.410617	0.677917	0.470989
H328	H	0.395720	0.013608	-0.091649
H329	H	0.729053	0.346941	0.241684
H330	H	1.062387	0.680274	0.575017
H331	H	0.938573	-0.184571	0.000127
H332	H	1.271907	0.148762	0.333460
H333	H	1.605240	0.482095	0.666794
H334	H	0.699746	-0.778255	0.000123
H335	H	1.033079	-0.444922	0.333457
H336	H	1.366412	-0.111589	0.666790
H337	H	0.643339	-0.297726	0.000131
H338	H	0.976673	0.035607	0.333464
H339	H	1.310006	0.368940	0.666797
H340	H	0.641136	-0.448982	0.000124
H341	H	0.974470	-0.115649	0.333457
H342	H	1.307803	0.217685	0.666790
H343	H	0.477493	0.065931	-0.119660
H344	H	0.810826	0.399265	0.213673
H345	H	1.144160	0.732598	0.547007
H346	H	0.243924	0.115012	0.091884
H347	H	0.577257	0.448346	0.425217
H348	H	0.910591	0.781679	0.758551
H349	H	0.639799	-0.540434	0.000127
H350	H	0.973133	-0.207100	0.333460
H351	H	1.306466	0.126233	0.666794
H352	H	0.608916	0.067284	-0.119680
H353	H	0.942249	0.400618	0.213653
H354	H	1.275583	0.733951	0.546986
H355	H	0.162060	0.062695	-0.119633
H356	H	0.495394	0.396028	0.213700
H357	H	0.828727	0.729361	0.547033
H358	H	0.939902	-0.093115	0.000103
H359	H	1.273235	0.240218	0.333436
H360	H	1.606569	0.573551	0.666770
H361	H	0.030639	0.061350	-0.119619
H362	H	0.363972	0.394684	0.213714
H363	H	0.697306	0.728017	0.547047
H364	H	0.895706	0.117364	-0.804084
H365	H	1.229040	0.450697	-0.470751
H366	H	1.562373	0.784030	-0.137418
H367	H	0.997652	-0.482173	0.000156
H368	H	1.330985	-0.148840	0.333489
H369	H	1.664319	0.184493	0.666823
H370	H	0.162147	0.062695	0.119905
H371	H	0.495481	0.396029	0.453238
H372	H	0.828814	0.729362	0.786571
H373	H	0.930926	-0.708196	0.000149
H374	H	1.264259	-0.374863	0.333482
H375	H	1.597592	-0.041529	0.666815
H376	H	0.264306	0.012258	-0.091632
H377	H	0.597639	0.345591	0.241702
H378	H	0.930973	0.678925	0.575035
H379	H	0.929583	-0.799665	0.000159
H380	H	1.262916	-0.466332	0.333492
H381	H	1.596249	-0.132999	0.666825
H382	H	0.999860	-0.330931	0.000139
H383	H	1.333194	0.002402	0.333473
H384	H	1.666527	0.335736	0.666806
H385	H	0.998525	-0.422382	0.000151
H386	H	1.331858	-0.089049	0.333485
H387	H	1.665191	0.244284	0.666818
H388	H	0.641999	-0.389181	0.000134
H389	H	0.975332	-0.055848	0.333468
H390	H	1.308666	0.277486	0.666801
H391	H	0.895659	0.117365	-0.333875
H392	H	1.228992	0.450698	-0.000542
H393	H	1.562326	0.784032	0.332792
H394	H	0.895647	0.117366	-0.195590
H395	H	1.228980	0.450699	0.137743
H396	H	1.562313	0.784032	0.471077
