data_functionalizedCrystal
_audit_creation_method	'MofGen! by Chris Wilmer'
_symmetry_space_group_name_H-M	'P1'
_symmetry_Int_Tables_number	1
_symmetry_cell_setting	triclinic
loop_
_symmetry_equiv_pos_as_xyz
  x,y,z
_cell_length_a	27.732048
_cell_length_b	12.837943
_cell_length_c	11.295483
_cell_angle_alpha	94.538773
_cell_angle_beta	94.055952
_cell_angle_gamma	91.264202
loop_
_atom_site_label
_atom_site_type_symbol
_atom_site_fract_x
_atom_site_fract_y
_atom_site_fract_z
O1	O	0.122633	-1.380472	-0.099030
O2	O	0.622633	-0.880472	0.400970
O3	O	0.116430	-1.078766	-0.099036
O4	O	0.616430	-0.578766	0.400964
O5	O	0.049600	-1.238988	-0.099010
O6	O	0.549600	-0.738988	0.400990
O7	O	0.189464	-1.220251	-0.099056
O8	O	0.689464	-0.720251	0.400944
O9	O	0.055460	-1.224916	0.099039
O10	O	0.555460	-0.724916	0.599039
O11	O	0.122290	-1.064694	0.099013
O12	O	0.622290	-0.564694	0.599013
O13	O	0.128493	-1.366400	0.099019
O14	O	0.628493	-0.866400	0.599019
Cu15	Cu	0.125927	-1.214262	0.117099
Cu16	Cu	0.625927	-0.714262	0.617099
Cu17	Cu	0.118997	-1.230904	-0.117116
Cu18	Cu	0.618997	-0.730904	0.382884
O19	O	0.195323	-1.206178	0.098993
O20	O	0.695323	-0.706178	0.598993
C21	C	0.117265	-1.033143	-0.000012
C22	C	0.617265	-0.533143	0.499988
C23	C	0.111016	-0.918166	-0.000013
C24	C	0.611016	-0.418166	0.499987
C25	C	0.034504	-1.231558	0.000018
C26	C	0.534504	-0.731558	0.500018
C27	C	-0.019210	-1.230373	0.000027
C28	C	0.480790	-0.730373	0.500027
C29	C	0.127658	-1.412023	-0.000008
C30	C	0.627658	-0.912023	0.499992
C31	C	0.133908	-1.527001	-0.000015
C32	C	0.633908	-1.027001	0.499985
C33	C	-0.353705	-1.317601	-0.000032
C34	C	0.146295	-0.817601	0.499968
C35	C	-0.555583	-1.313207	-0.000049
C36	C	-0.055583	-0.813207	0.499951
O37	O	-0.582888	-1.392971	-0.000099
O38	O	-0.082888	-0.892971	0.499901
N39	N	-0.579414	-1.218201	-0.000050
N40	N	-0.079414	-0.718201	0.499950
C41	C	-0.552772	-1.124288	-0.000054
C42	C	-0.052772	-0.624288	0.499946
O43	O	-0.577674	-1.043380	-0.000067
O44	O	-0.077674	-0.543380	0.499933
C45	C	-0.350895	-1.128684	-0.000046
C46	C	0.149105	-0.628684	0.499954
C47	C	-0.327067	-1.223695	-0.000033
C48	C	0.172933	-0.723695	0.499967
C49	C	-0.329876	-1.412605	-0.000021
C50	C	0.170124	-0.912605	0.499979
C51	C	-0.279410	-1.413702	-0.000010
C52	C	0.220590	-0.913702	0.499990
C53	C	-0.252772	-1.319795	-0.000011
C54	C	0.247228	-0.819795	0.499989
C55	C	-0.276600	-1.224792	-0.000022
C56	C	0.223400	-0.724792	0.499978
C57	C	-0.324255	-1.034772	-0.000058
C58	C	0.175745	-0.534772	0.499942
C59	C	-0.273783	-1.035879	-0.000059
C60	C	0.226217	-0.535879	0.499941
C61	C	-0.249954	-1.130890	-0.000047
C62	C	0.250046	-0.630890	0.499953
C63	C	-0.199496	-1.131982	-0.000012
C64	C	0.300504	-0.631982	0.499988
N65	N	-0.175665	-1.226988	-0.000012
N66	N	0.324335	-0.726988	0.499988
C67	C	-0.202303	-1.320895	-0.000011
C68	C	0.297697	-0.820895	0.499989
C69	C	-0.658760	-1.121987	-0.000056
C70	C	-0.158760	-0.621987	0.499944
C71	C	-0.709229	-1.120887	-0.000056
C72	C	-0.209229	-0.620887	0.499944
C73	C	-0.712036	-1.309807	-0.000053
C74	C	-0.212036	-0.809807	0.499947
C75	C	-0.661566	-1.310905	-0.000045
C76	C	-0.161566	-0.810905	0.499955
C77	C	-0.634929	-1.216993	-0.000055
C78	C	-0.134929	-0.716993	0.499945
C79	C	-0.096319	-1.323191	0.000012
C80	C	0.403681	-0.823191	0.500012
C81	C	-0.045848	-1.324279	0.000028
C82	C	0.454152	-0.824279	0.500028
C83	C	-0.043045	-1.135361	0.000019
C84	C	0.456955	-0.635361	0.500019
C85	C	-0.093512	-1.134271	0.000010
C86	C	0.406488	-0.634271	0.500010
C87	C	-0.120148	-1.228195	0.000002
C88	C	0.379852	-0.728195	0.500002
O89	O	-0.172160	-1.052262	0.000025
O90	O	0.327840	-0.552262	0.500025
O91	O	-0.177392	-1.401793	-0.000024
O92	O	0.322608	-0.901793	0.499976
C93	C	-0.404172	-1.316504	-0.000043
C94	C	0.095828	-0.816504	0.499957
C95	C	-0.428000	-1.221501	-0.000054
C96	C	0.072000	-0.721501	0.499946
C97	C	-0.401362	-1.127594	-0.000055
C98	C	0.098638	-0.627594	0.499945
C99	C	-0.478469	-1.220401	-0.000054
C100	C	0.021531	-0.720401	0.499946
C101	C	-0.505107	-1.314308	-0.000053
C102	C	-0.005107	-0.814308	0.499947
C103	C	-0.481276	-1.409314	-0.000053
C104	C	0.018724	-0.909314	0.499947
C105	C	-0.430810	-1.410411	-0.000042
C106	C	0.069190	-0.910411	0.499958
C107	C	-0.425193	-1.032588	-0.000056
C108	C	0.074807	-0.532588	0.499944
C109	C	-0.475660	-1.031499	-0.000065
C110	C	0.024340	-0.531499	0.499935
C111	C	-0.502298	-1.125405	-0.000064
C112	C	-0.002298	-0.625405	0.499936
C113	C	0.210420	-1.213608	-0.000037
C114	C	0.710420	-0.713608	0.499963
C115	C	0.264133	-1.214794	-0.000055
C116	C	0.764133	-0.714794	0.499945
N117	N	0.130801	-1.202564	0.281834
N118	N	0.630801	-0.702564	0.781834
C119	C	0.186144	-0.676005	-0.000020
C120	C	0.686144	-0.176005	0.499980
C121	C	0.180275	-0.567973	-0.000021
C122	C	0.680275	-0.067973	0.499979
C123	C	0.093407	-0.594068	-0.000005
C124	C	0.593407	-0.094068	0.499995
C125	C	0.099277	-0.702100	-0.000005
C126	C	0.599277	-0.202100	0.499995
C127	C	0.145647	-0.743064	-0.000014
C128	C	0.645647	-0.243064	0.499986
C129	C	0.151516	-0.851099	-0.000023
C130	C	0.651516	-0.351099	0.499977
C131	C	0.064649	-0.877191	0.000002
C132	C	0.564649	-0.377191	0.500002
C133	C	0.058780	-0.769159	0.000001
C134	C	0.558780	-0.269159	0.500001
N135	N	0.114119	-1.242610	-0.281851
N136	N	0.614119	-0.742610	0.218149
C137	C	0.079005	-1.326818	0.531143
C138	C	0.579005	-0.826818	1.031143
C139	C	0.082692	-1.317985	0.655805
C140	C	0.582692	-0.817985	1.155805
C141	C	0.141860	-1.176062	0.655823
C142	C	0.641860	-0.676062	1.155823
C143	C	0.138173	-1.184894	0.531160
C144	C	0.638173	-0.684894	1.031160
C145	C	0.106745	-1.260276	0.468825
C146	C	0.606745	-0.760276	0.968825
C147	C	0.103060	-1.269113	0.344160
C148	C	0.603060	-0.769113	0.844160
C149	C	0.162225	-1.127185	0.344180
C150	C	0.662225	-0.627185	0.844180
C151	C	0.165912	-1.118353	0.468842
C152	C	0.665912	-0.618353	0.968842
H153	H	-0.118000	-1.399673	0.000002
H154	H	0.382000	-0.899673	0.500002
H155	H	0.053419	-1.388203	0.480389
H156	H	0.553419	-0.888203	0.980389
N157	N	0.023279	-0.945689	0.000033
N158	N	0.523279	-0.445689	0.500033
N159	N	-0.003989	-0.936431	0.083522
N160	N	0.496011	-0.436431	0.583522
H161	H	-0.033207	-0.984808	0.083542
H162	H	0.466793	-0.484808	0.583542
H163	H	-0.351560	-1.489079	-0.000025
H164	H	0.148440	-0.989079	0.499975
H165	H	-0.642169	-1.388271	-0.000035
H166	H	-0.142169	-0.888271	0.499965
H167	H	0.191499	-1.056976	0.519610
H168	H	0.691499	-0.556976	1.019610
N169	N	0.233504	-0.717873	-0.000024
N170	N	0.733504	-0.217873	0.499976
N171	N	0.238738	-0.814331	-0.000021
N172	N	0.738738	-0.314331	0.499979
H173	H	0.272186	-0.843901	-0.000023
H174	H	0.772186	-0.343901	0.499977
H175	H	0.213252	-0.513376	-0.000022
H176	H	0.713252	-0.013376	0.499978
H177	H	0.184814	-1.073006	0.293426
H178	H	0.684814	-0.573006	0.793426
H179	H	-0.112913	-1.056903	0.000032
H180	H	0.387087	-0.556903	0.500032
H181	H	-0.502974	-1.485775	-0.000047
H182	H	-0.002974	-0.985775	0.499953
N183	N	-0.021516	-1.421344	0.000050
N184	N	0.478484	-0.921344	0.500050
N185	N	-0.045309	-1.505180	0.000051
N186	N	0.454691	-1.005180	0.500051
H187	H	-0.028127	-1.573731	0.000066
H188	H	0.471873	-1.073731	0.500066
H189	H	-0.260013	-1.491070	-0.000005
H190	H	0.239987	-0.991070	0.499995
H191	H	-0.728625	-1.043518	-0.000045
H192	H	-0.228625	-0.543518	0.499955
N193	N	-0.739243	-1.405742	-0.000047
N194	N	-0.239243	-0.905742	0.499953
N195	N	-0.732086	-1.463192	0.083427
N196	N	-0.232086	-0.963192	0.583427
H197	H	-0.751302	-1.530944	0.083425
H198	H	-0.251302	-1.030944	0.583425
H199	H	0.021027	-0.735790	0.000023
H200	H	0.521027	-0.235790	0.500023
N201	N	0.070927	-1.346058	0.280501
N202	N	0.570927	-0.846058	0.780501
N203	N	0.046141	-1.405421	0.336164
N204	N	0.546141	-0.905421	0.836164
H205	H	0.023433	-1.459741	0.291209
H206	H	0.523433	-0.959741	0.791209
H207	H	0.060103	-1.372168	0.706541
H208	H	0.560103	-0.872168	1.206541
N209	N	0.173961	-1.099066	0.719500
N210	N	0.673961	-0.599066	1.219500
N211	N	0.218261	-1.100743	0.705578
N212	N	0.718261	-0.600743	1.205578
H213	H	0.240933	-1.046360	0.750548
H214	H	0.740933	-0.546360	1.250548
H215	H	-0.637077	-1.045507	-0.000064
H216	H	-0.137077	-0.545507	0.499936
N217	N	0.046047	-0.552207	0.000033
N218	N	0.546047	-0.052207	0.500033
N219	N	0.035554	-0.488908	0.083525
N220	N	0.535554	0.011092	0.583525
H221	H	0.002105	-0.459341	0.083554
H222	H	0.502105	0.040659	0.583554
H223	H	-0.252098	-0.959403	-0.000070
H224	H	0.247902	-0.459403	0.499930
N225	N	-0.348579	-0.937710	-0.000074
N226	N	0.151421	-0.437710	0.499926
N227	N	-0.324780	-0.853882	-0.000088
N228	N	0.175220	-0.353882	0.499912
H229	H	-0.341958	-0.785325	-0.000103
H230	H	0.158042	-0.285325	0.499897
H231	H	-0.021347	-1.058904	0.000023
H232	H	0.478653	-0.558904	0.500023
H233	H	-0.495056	-0.954123	-0.000065
H234	H	0.004944	-0.454123	0.499935
N235	N	-0.406481	-1.507472	-0.000025
N236	N	0.093519	-1.007472	0.499975
N237	N	-0.430279	-1.591302	-0.000022
N238	N	0.069721	-1.091302	0.499978
H239	H	-0.413100	-1.659858	-0.000011
H240	H	0.086900	-1.159858	0.499989
H241	H	-0.403509	-0.956117	-0.000059
H242	H	0.096491	-0.456117	0.499941
H243	H	0.189273	-0.884449	-0.000028
H244	H	0.689273	-0.384449	0.499972
