data_functionalizedCrystal
_audit_creation_method	'MofGen! by Chris Wilmer'
_symmetry_space_group_name_H-M	'P1'
_symmetry_Int_Tables_number	1
_symmetry_cell_setting	triclinic
loop_
_symmetry_equiv_pos_as_xyz
  x,y,z
_cell_length_a	10.723023
_cell_length_b	8.559649
_cell_length_c	7.088929
_cell_angle_alpha	95.344185
_cell_angle_beta	96.263229
_cell_angle_gamma	102.876894
loop_
_atom_site_label
_atom_site_type_symbol
_atom_site_fract_x
_atom_site_fract_y
_atom_site_fract_z
O1	O	1.619870	-0.240133	-0.158973
O2	O	1.254520	-0.261564	-0.158977
O3	O	1.469383	-0.018599	-0.158972
O4	O	1.405008	-0.483098	-0.158977
O5	O	1.498105	0.013945	0.159003
O6	O	1.283242	-0.229020	0.158999
O7	O	1.648592	-0.207589	0.159003
Cu8	Cu	1.468539	-0.215333	0.188035
Cu9	Cu	1.434573	-0.253820	-0.188008
O10	O	1.433729	-0.450554	0.158999
C11	C	1.222541	-0.243732	0.000011
C12	C	1.084465	-0.239068	0.000009
C13	C	0.895082	-0.215308	0.164723
C14	C	1.037792	-0.220129	0.164728
C15	C	1.488622	0.057149	0.000012
C16	C	1.503143	0.234369	0.000002
C17	C	1.680570	-0.225421	0.000012
C18	C	1.818646	-0.230087	0.000001
C19	C	1.414490	-0.526302	0.000010
C20	C	1.399968	-0.703524	0.000008
N21	N	1.492439	-0.188262	0.452523
N22	N	1.410685	-0.280878	-0.452497
H23	H	0.854869	-0.199095	0.305742
Cl24	Cl	1.246431	0.169250	0.000011
Cl25	Cl	1.656690	0.361605	0.000029
H26	H	1.018796	-0.251709	-0.141023
H27	H	1.325957	-0.376854	0.465855
Cl28	Cl	1.623273	-0.040089	0.578586
Cl29	Cl	0.880715	-0.255146	-0.217735
Cl30	Cl	1.139188	-0.200593	0.382471
