data_functionalizedCrystal
_audit_creation_method	'MofGen! by Chris Wilmer'
_symmetry_space_group_name_H-M	'P1'
_symmetry_Int_Tables_number	1
_symmetry_cell_setting	triclinic
loop_
_symmetry_equiv_pos_as_xyz
  x,y,z
_cell_length_a	19.077236
_cell_length_b	25.639240
_cell_length_c	19.077271
_cell_angle_alpha	87.662821
_cell_angle_beta	90.072744
_cell_angle_gamma	92.325142
loop_
_atom_site_label
_atom_site_type_symbol
_atom_site_fract_x
_atom_site_fract_y
_atom_site_fract_z
Zn1	Zn	1.058265	-0.163493	-0.440512
Zn2	Zn	1.558265	0.336507	0.059488
Zn3	Zn	1.062887	-0.254299	-0.322981
Zn4	Zn	1.562887	0.245701	0.177019
Zn5	Zn	0.945478	-0.170516	-0.318288
Zn6	Zn	1.445478	0.329484	0.181712
Zn7	Zn	0.940707	-0.254543	-0.435722
Zn8	Zn	1.440707	0.245457	0.064278
O9	O	1.001834	-0.210713	-0.379376
O10	O	1.501834	0.289287	0.120624
O11	O	1.157212	-0.172497	-0.428890
O12	O	1.657212	0.327503	0.071110
O13	O	1.051243	-0.246022	-0.224025
O14	O	1.551243	0.253978	0.275975
O15	O	0.960502	-0.096416	-0.334542
O16	O	1.460502	0.403584	0.165458
O17	O	1.160608	-0.239212	-0.342541
O18	O	1.660608	0.260788	0.157459
O19	O	1.043365	-0.091256	-0.424339
O20	O	1.543365	0.408744	0.075661
O21	O	0.964983	-0.184467	-0.220577
O22	O	1.464983	0.315533	0.279423
O23	O	0.846511	-0.184704	-0.329897
O24	O	1.346511	0.315296	0.170103
O25	O	0.952370	-0.239628	-0.534691
O26	O	1.452370	0.260372	-0.034691
O27	O	0.843006	-0.246438	-0.416175
O28	O	1.343006	0.253562	0.083825
O29	O	1.038739	-0.172734	-0.538210
O30	O	1.538739	0.327266	-0.038210
O31	O	1.046617	-0.327500	-0.337896
O32	O	1.546617	0.172500	0.162104
O33	O	0.956852	-0.327679	-0.420726
O34	O	1.456852	0.172321	0.079274
C35	C	0.819261	-0.216360	-0.372007
C36	C	1.319261	0.283640	0.127993
C37	C	0.741155	-0.218788	-0.368871
C38	C	1.241155	0.281212	0.131129
C39	C	0.702690	-0.185245	-0.412424
C40	C	1.202690	0.314755	0.087576
C41	C	0.629301	-0.187524	-0.409472
C42	C	1.129301	0.312476	0.090528
C43	C	0.594378	-0.223349	-0.362970
C44	C	1.094378	0.276651	0.137030
C45	C	0.632848	-0.256893	-0.319412
C46	C	1.132848	0.243107	0.180588
C47	C	0.706236	-0.254611	-0.322362
C48	C	1.206236	0.245389	0.177638
C49	C	0.375083	-0.233891	-0.349318
C50	C	0.875083	0.266109	0.150682
C51	C	0.301690	-0.236171	-0.346373
C52	C	0.801690	0.263829	0.153627
C53	C	0.298148	-0.166801	-0.436432
C54	C	0.798148	0.333199	0.063568
C55	C	0.371537	-0.164524	-0.439381
C56	C	0.871537	0.335476	0.060619
C57	C	0.410001	-0.198067	-0.395820
C58	C	0.910001	0.301933	0.104180
N59	N	0.519363	-0.225680	-0.359953
N60	N	1.019363	0.274320	0.140047
N61	N	0.485015	-0.195732	-0.398835
N62	N	0.985015	0.304268	0.101165
C63	C	1.001737	-0.346560	-0.379317
C64	C	1.501737	0.153440	0.120683
C65	C	1.001759	-0.404673	-0.379318
C66	C	1.501759	0.095327	0.120682
C67	C	1.045000	-0.762304	-0.426215
C68	C	1.545000	-0.262304	0.073785
C69	C	1.045021	-0.816907	-0.426230
C70	C	1.545021	-0.316907	0.073770
O71	O	1.081670	-0.842827	-0.466043
O72	O	1.581670	-0.342827	0.033957
N73	N	1.001929	-0.846947	-0.379448
N74	N	1.501929	-0.346947	0.120552
C75	C	0.958809	-0.822380	-0.332651
C76	C	1.458809	-0.322380	0.167349
O77	O	0.922157	-0.852945	-0.292861
O78	O	1.422157	-0.352945	0.207139
C79	C	0.958786	-0.767778	-0.332640
C80	C	1.458786	-0.267778	0.167360
C81	C	1.001885	-0.737741	-0.379421
C82	C	1.501885	-0.237741	0.120579
C83	C	1.088096	-0.732268	-0.472993
C84	C	1.588096	-0.232268	0.027007
C85	C	1.088077	-0.677668	-0.472977
C86	C	1.588077	-0.177668	0.027023
C87	C	1.044962	-0.653105	-0.426183
C88	C	1.544962	-0.153105	0.073817
C89	C	1.001866	-0.683142	-0.379405
C90	C	1.501866	-0.183142	0.120595
C91	C	0.915663	-0.743212	-0.285848
C92	C	1.415663	-0.243212	0.214152
C93	C	0.915643	-0.688606	-0.285841
C94	C	1.415643	-0.188606	0.214159
C95	C	0.958742	-0.658569	-0.332622
C96	C	1.458742	-0.158569	0.167378
C97	C	0.958732	-0.603979	-0.332595
C98	C	1.458732	-0.103979	0.167405
N99	N	1.001823	-0.573940	-0.379378
N100	N	1.501823	-0.073940	0.120622
C101	C	1.044938	-0.598503	-0.426172
C102	C	1.544938	-0.098503	0.073828
C103	C	0.958860	-0.937048	-0.332679
C104	C	1.458860	-0.437048	0.167321
C105	C	0.958887	-0.991650	-0.332686
C106	C	1.458887	-0.491650	0.167314
C107	C	1.045098	-0.986173	-0.426267
C108	C	1.545098	-0.486173	0.073733
C109	C	1.045074	-0.931571	-0.426255
C110	C	1.545074	-0.431571	0.073745
C111	C	1.001952	-0.907009	-0.379462
C112	C	1.501952	-0.407009	0.120538
C113	C	1.044895	-0.483840	-0.426134
C114	C	1.544895	0.016160	0.073866
C115	C	1.044874	-0.429236	-0.426111
C116	C	1.544874	0.070764	0.073889
C117	C	0.958661	-0.434718	-0.332534
C118	C	1.458661	0.065282	0.167466
C119	C	0.958684	-0.489317	-0.332554
C120	C	1.458684	0.010683	0.167446
C121	C	1.001803	-0.513877	-0.379359
C122	C	1.501803	-0.013877	0.120641
O123	O	0.922099	-0.578024	-0.292804
O124	O	1.422099	-0.078024	0.207196
O125	O	1.081577	-0.567932	-0.465962
O126	O	1.581577	-0.067932	0.034038
C127	C	1.185120	-0.205044	-0.386774
C128	C	1.685120	0.294956	0.113226
C129	C	1.263225	-0.202628	-0.389926
C130	C	1.763225	0.297372	0.110074
C131	C	0.994507	-0.205425	-0.562660
C132	C	1.494507	0.294575	-0.062660
C133	C	0.991385	-0.203172	-0.640765
C134	C	1.491385	0.296828	-0.140765
C135	C	1.001950	-0.074334	-0.379451
C136	C	1.501950	0.425666	0.120549
C137	C	1.001999	-0.016217	-0.379483
C138	C	1.501999	0.483783	0.120517
C139	C	0.968990	-0.187052	-1.080220
C140	C	1.468990	0.312948	-0.580220
C141	C	0.971927	-0.189167	-1.006833
C142	C	1.471927	0.310833	-0.506833
C143	C	1.018303	-0.222276	-0.971933
C144	C	1.518303	0.277724	-0.471933
C145	C	1.061749	-0.253268	-1.010425
C146	C	1.561749	0.246732	-0.510425
C147	C	1.058815	-0.251149	-1.083812
C148	C	1.558815	0.248851	-0.583812
C149	C	1.031897	-0.232045	-0.752644
C150	C	1.531897	0.267955	-0.252644
C151	C	1.034826	-0.234162	-0.679252
C152	C	1.534826	0.265838	-0.179252
C153	C	0.945005	-0.170061	-0.675664
C154	C	1.445005	0.329939	-0.175664
C155	C	0.942072	-0.167948	-0.749052
C156	C	1.442072	0.332052	-0.249052
C157	C	0.985521	-0.198937	-0.787538
C158	C	1.485521	0.301063	-0.287538
N159	N	1.021305	-0.224440	-0.896919
N160	N	1.521305	0.275560	-0.396919
N161	N	0.982522	-0.196770	-0.862551
N162	N	1.482522	0.303230	-0.362551
C163	C	1.009173	-0.215941	-0.196806
C164	C	1.509173	0.284059	0.303194
C165	C	1.012432	-0.218043	-0.118707
C166	C	1.512432	0.281957	0.381293
H167	H	0.406391	-0.261204	-0.313848
H168	H	0.906391	0.238796	0.186152
H169	H	0.936552	-0.163932	-0.975499
H170	H	1.436552	0.336068	-0.475499
F171	F	0.919630	-0.151813	-1.117356
F172	F	1.419630	0.348187	-0.617356
H173	H	0.923559	-0.414710	-0.294433
H174	H	1.423559	0.085290	0.205567
H175	H	0.880566	-0.767659	-0.247754
H176	H	1.380566	-0.267659	0.252246
H177	H	0.604408	-0.286060	-0.281546
H178	H	1.104408	0.213940	0.218454
F179	F	0.739851	-0.147117	-0.461922
F180	F	1.239851	0.352883	0.038078
H181	H	1.094191	-0.276384	-1.115147
H182	H	1.594191	0.223616	-0.615147
F183	F	0.892680	-0.132734	-0.786188
F184	F	1.392680	0.367266	-0.286188
F185	F	1.090946	-0.899608	-0.476046
F186	F	1.590946	-0.399608	0.023954
F187	F	1.084185	-0.269405	-0.642111
F188	F	1.584185	0.230595	-0.142111
F189	F	0.264524	-0.274312	-0.296890
F190	F	0.764524	0.225688	0.203110
F191	F	0.869744	-0.662469	-0.236036
F192	F	1.369744	-0.162469	0.263964
H193	H	0.737553	-0.281925	-0.286896
H194	H	1.237553	0.218075	0.213104
F195	F	1.133945	-0.645707	-0.522772
F196	F	1.633945	-0.145707	-0.022772
F197	F	0.588368	-0.151824	-0.455829
F198	F	1.088368	0.348176	0.044171
H199	H	0.923799	-1.016101	-0.294585
H200	H	1.423799	-0.516101	0.205415
H201	H	1.079973	-0.404782	-0.464206
H202	H	1.579973	0.095218	0.035794
H203	H	1.080002	-0.503830	-0.464252
H204	H	1.580002	-0.003830	0.035748
H205	H	0.923595	-0.513774	-0.294455
H206	H	1.423595	-0.013774	0.205545
H207	H	0.909632	-0.144830	-0.644321
H208	H	1.409632	0.355170	-0.144321
H209	H	1.067274	-0.257281	-0.783970
H210	H	1.567274	0.242719	-0.283970
H211	H	0.399966	-0.135353	-0.477250
H212	H	0.899966	0.364647	0.022750
F213	F	1.111111	-0.288501	-0.973281
F214	F	1.611111	0.211499	-0.473281
H215	H	0.266823	-0.139492	-0.471896
H216	H	0.766823	0.360508	0.028104
F217	F	1.133986	-0.758401	-0.522805
F218	F	1.633986	-0.258401	-0.022805
F219	F	1.090984	-1.012324	-0.476070
F220	F	1.590984	-0.512324	0.023930
H221	H	0.923747	-0.917053	-0.294569
H222	H	1.423747	-0.417053	0.205431
