data_functionalizedCrystal
_audit_creation_method	'MofGen! by Chris Wilmer'
_symmetry_space_group_name_H-M	'P1'
_symmetry_Int_Tables_number	1
_symmetry_cell_setting	triclinic
loop_
_symmetry_equiv_pos_as_xyz
  x,y,z
_cell_length_a	13.262234
_cell_length_b	14.853567
_cell_length_c	11.804366
_cell_angle_alpha	101.831416
_cell_angle_beta	62.636195
_cell_angle_gamma	84.048945
loop_
_atom_site_label
_atom_site_type_symbol
_atom_site_fract_x
_atom_site_fract_y
_atom_site_fract_z
O1	O	1.473941	0.052225	-0.378449
O2	O	1.145585	0.084878	-0.272081
O3	O	1.318533	-0.063175	-0.328102
O4	O	1.300993	0.200278	-0.322428
O5	O	1.364117	-0.102075	-0.540924
O6	O	1.191169	0.045978	-0.484902
O7	O	1.519525	0.013325	-0.591271
Cu8	Cu	1.359509	0.026099	-0.557519
Cu9	Cu	1.305601	0.072104	-0.305833
O10	O	1.346577	0.161378	-0.535249
C11	C	1.126355	0.067177	-0.364879
C12	C	1.001143	0.072378	-0.324317
C13	C	1.340529	-0.116168	-0.434252
C14	C	1.338145	-0.216115	-0.433469
C15	C	1.225347	-0.622252	-0.396952
C16	C	1.430814	-0.655192	-0.463511
C17	C	1.433052	-0.561284	-0.464229
C18	C	1.331436	-0.497856	-0.431310
C19	C	1.227582	-0.528336	-0.397672
C20	C	1.536906	-0.530799	-0.497879
C21	C	1.539149	-0.436886	-0.498599
C22	C	1.437530	-0.373454	-0.465670
C23	C	1.333672	-0.403939	-0.432030
C24	C	1.232056	-0.340511	-0.399111
C25	C	1.128194	-0.370993	-0.365462
C26	C	1.125963	-0.464904	-0.364744
C27	C	1.439761	-0.279543	-0.466388
C28	C	1.234292	-0.246595	-0.399832
C29	C	1.538754	0.031027	-0.498470
C30	C	1.663965	0.025827	-0.539023
C31	C	1.747645	0.002179	-0.674090
C32	C	1.865284	-0.002695	-0.712187
C33	C	1.899255	0.016073	-0.615223
C34	C	1.815575	0.039715	-0.480154
C35	C	1.697923	0.044596	-0.442052
C36	C	1.849533	0.058490	-0.383186
C37	C	1.765853	0.082132	-0.248117
C38	C	1.648214	0.087012	-0.210022
C39	C	1.614243	0.068245	-0.306986
C40	C	1.967184	0.053609	-0.421288
C41	C	1.917463	0.096026	-0.189250
C42	C	1.799824	0.100900	-0.151153
C43	C	1.324580	0.214372	-0.429097
C44	C	1.326962	0.314320	-0.429871
N45	N	1.267686	0.104454	-0.128811
N46	N	1.397433	-0.006259	-0.734544
C47	C	1.488512	-0.083938	0.173608
C48	C	1.517205	-0.108407	0.039652
C49	C	1.454828	-0.055193	-0.002471
C50	C	1.363752	0.022492	0.089377
C51	C	1.335051	0.046958	0.223348
C52	C	1.301366	0.075703	0.047269
C53	C	1.210291	0.153389	0.139116
C54	C	1.181595	0.177851	0.273073
C55	C	1.243972	0.124638	0.315196
C56	C	1.330068	0.051237	-0.086702
C57	C	1.176607	0.182134	-0.036962
C58	C	1.147914	0.206602	0.096994
H59	H	1.151541	-0.194955	-0.373019
C60	C	1.484833	0.073608	-0.265085
N61	N	1.387361	0.077650	-0.233528
H62	H	1.107428	0.241101	0.347860
H63	H	1.073758	0.269855	0.171792
C64	C	1.016421	-0.301210	-0.329252
N65	N	0.932235	-0.248647	-0.301977
C66	C	1.617362	-0.193874	-0.061362
N67	N	1.692798	-0.258259	-0.137446
C68	C	1.556168	0.113021	-0.061442
N69	N	1.486841	0.132607	0.050469
C70	C	1.554001	-0.246016	-0.503401
N71	N	1.640052	-0.220766	-0.531277
C72	C	1.707761	0.126911	-0.002579
N73	N	1.638418	0.146503	0.109326
H74	H	1.041405	-0.489732	-0.337349
C75	C	1.111107	-0.655785	-0.359951
N76	N	1.025062	-0.681044	-0.332087
C77	C	1.653395	-0.403363	-0.535604
N78	N	1.739445	-0.378113	-0.563472
H79	H	1.125812	0.225464	-0.071255
H80	H	1.513547	-0.706841	-0.490323
C81	C	1.648677	-0.600575	-0.534096
N82	N	1.732867	-0.653135	-0.561375
H83	H	2.035306	0.034361	-0.531261
C84	C	2.028663	0.010702	-0.657137
N85	N	2.126141	0.006649	-0.688713
H86	H	1.933408	-0.021945	-0.822160
H87	H	1.719972	-0.013092	-0.753023
C88	C	1.430249	-0.034214	-0.187719
N89	N	1.505712	-0.098580	-0.263806
C90	C	1.954825	0.116669	-0.082582
N91	N	1.982974	0.132217	-0.002247
H92	H	1.478194	-0.075119	-0.111545
H93	H	1.539285	-0.127262	0.207917
C94	C	1.212411	0.151548	0.462556
N95	N	1.188641	0.171814	0.573548
