data_functionalizedCrystal
_audit_creation_method	'MofGen! by Chris Wilmer'
_symmetry_space_group_name_H-M	'P1'
_symmetry_Int_Tables_number	1
_symmetry_cell_setting	triclinic
loop_
_symmetry_equiv_pos_as_xyz
  x,y,z
_cell_length_a	14.853567
_cell_length_b	14.853559
_cell_length_c	9.730223
_cell_angle_alpha	90.000855
_cell_angle_beta	90.002764
_cell_angle_gamma	83.633192
loop_
_atom_site_label
_atom_site_type_symbol
_atom_site_fract_x
_atom_site_fract_y
_atom_site_fract_z
O1	O	1.196356	0.117701	-0.114188
O2	O	0.933896	0.131722	-0.114211
O3	O	1.072141	-0.006519	-0.114198
O4	O	1.058111	0.255942	-0.114202
O5	O	1.072139	-0.006515	0.114382
O6	O	0.933894	0.131726	0.114369
O7	O	1.196354	0.117704	0.114392
Zn8	Zn	1.065124	0.124716	0.150672
Zn9	Zn	1.065126	0.124711	-0.150492
O10	O	1.058110	0.255945	0.114378
C11	C	0.900307	0.131089	0.000076
C12	C	0.800223	0.129185	0.000067
C13	C	0.387692	0.039019	0.000099
C14	C	0.366406	0.203252	0.000095
C15	C	0.460440	0.205042	0.000091
C16	C	0.518104	0.123819	0.000089
C17	C	0.481735	0.040806	0.000091
C18	C	0.496816	0.288054	0.000075
C19	C	0.590855	0.289847	0.000069
C20	C	0.648521	0.208623	0.000076
C21	C	0.612147	0.125607	0.000080
C22	C	0.669811	0.044384	0.000078
C23	C	0.633438	-0.038633	0.000091
C24	C	0.539401	-0.040417	0.000098
C25	C	0.742559	0.210408	0.000069
C26	C	0.763854	0.046172	0.000069
C27	C	1.071506	-0.040106	0.000090
C28	C	1.069605	-0.140190	0.000082
C29	C	1.061542	-0.563367	-0.124518
C30	C	1.061540	-0.563358	0.124689
C31	C	1.063333	-0.469325	0.124690
C32	C	1.064230	-0.422308	0.000086
C33	C	1.063333	-0.469325	-0.124520
C34	C	1.064221	-0.422300	0.249294
C35	C	1.066014	-0.328260	0.249300
C36	C	1.066917	-0.281243	0.124694
C37	C	1.066021	-0.328266	0.000083
C38	C	1.066917	-0.281249	-0.124522
C39	C	1.066027	-0.328271	-0.249134
C40	C	1.064236	-0.422307	-0.249127
C41	C	1.068709	-0.187207	0.124687
C42	C	1.068708	-0.187207	-0.124524
C43	C	1.229944	0.118338	0.000102
C44	C	1.330028	0.120242	0.000102
C45	C	1.058745	0.289532	0.000088
C46	C	1.060646	0.389616	0.000087
N47	N	1.065129	0.124718	0.356209
N48	N	1.065128	0.124701	-0.356028
C49	C	1.126360	0.063526	0.428141
C50	C	1.126357	0.063515	0.572024
C51	C	1.003891	0.185897	0.572030
C52	C	1.003890	0.185903	0.428150
C53	C	1.197067	-0.007128	0.428138
C54	C	1.197065	-0.007139	0.572021
H55	H	0.509777	-0.108006	0.000142
H56	H	1.066742	-0.289984	0.350767
O57	O	1.069667	-0.136494	-0.258921
H58	H	1.068738	-0.184990	-0.345562
O59	O	0.781786	0.299939	0.000062
H60	H	0.824111	0.304684	-0.093110
O61	O	0.695643	-0.126233	0.000095
H62	H	0.682701	-0.165958	-0.093068
H63	H	0.620461	0.357445	0.000058
H64	H	1.069412	-0.148923	0.226144
O65	O	1.066986	-0.277558	-0.383530
H66	H	1.129199	-0.242674	-0.389488
H67	H	0.358073	-0.028572	0.000116
O68	O	1.283563	0.021294	0.369027
H69	H	1.292228	0.090869	0.404319
O70	O	1.063261	-0.473018	-0.383523
H71	H	1.061851	-0.546304	-0.362584
O72	O	1.060575	-0.614072	-0.258920
H73	H	1.059174	-0.687361	-0.237994
H74	H	1.182193	-0.076312	0.389084
O75	O	1.168733	-0.093684	0.631109
H76	H	1.099173	-0.102417	0.595815
O77	O	0.826049	-0.041434	0.000069
H78	H	0.784956	-0.099455	0.000071
O79	O	0.304218	0.290855	0.000112
H80	H	0.232718	0.275666	0.000130
O81	O	0.434627	0.375656	0.000095
H82	H	0.363127	0.360464	0.000128
O83	O	1.288677	0.012645	0.623777
H84	H	1.333527	0.022348	0.535008
H85	H	1.060804	-0.601644	0.226136
H86	H	1.063487	-0.460587	0.350740
O87	O	0.937845	0.251897	0.350559
H88	H	0.895271	0.294445	0.424760
O89	O	0.937849	0.251894	0.649621
H90	H	0.948139	0.241615	0.761756
