data_functionalizedCrystal
_audit_creation_method	'MofGen! by Chris Wilmer'
_symmetry_space_group_name_H-M	'P1'
_symmetry_Int_Tables_number	1
_symmetry_cell_setting	triclinic
loop_
_symmetry_equiv_pos_as_xyz
  x,y,z
_cell_length_a	27.732048
_cell_length_b	27.732064
_cell_length_c	14.750779
_cell_angle_alpha	77.467639
_cell_angle_beta	102.540316
_cell_angle_gamma	82.646039
loop_
_atom_site_label
_atom_site_type_symbol
_atom_site_fract_x
_atom_site_fract_y
_atom_site_fract_z
O1	O	0.630377	0.068065	-0.079695
O2	O	1.130377	0.568065	0.420305
O3	O	0.489580	0.076814	-0.079723
O4	O	0.989580	0.576814	0.420277
O5	O	0.564347	0.002044	-0.079712
O6	O	1.064347	0.502044	0.420288
O7	O	0.555611	0.142835	-0.079706
O8	O	1.055611	0.642835	0.420294
O9	O	0.585482	-0.019090	0.079942
O10	O	1.085482	0.480910	0.579942
O11	O	0.510716	0.055680	0.079931
O12	O	1.010716	0.555680	0.579931
O13	O	0.651513	0.046931	0.079958
O14	O	1.151513	0.546931	0.579958
Zn15	Zn	0.584470	0.047950	0.105293
Zn16	Zn	1.084470	0.547950	0.605293
Zn17	Zn	0.556623	0.075795	-0.105057
Zn18	Zn	1.056623	0.575795	0.394943
O19	O	0.576746	0.121701	0.079947
O20	O	1.076746	0.621701	0.579947
C21	C	0.482141	0.066064	0.000100
C22	C	0.982141	0.566064	0.500100
C23	C	0.428484	0.065513	0.000089
C24	C	0.928484	0.565513	0.500089
C25	C	0.089677	0.106210	0.000132
C26	C	0.589677	0.606210	0.500132
C27	C	-0.111981	0.104158	0.000141
C28	C	0.388019	0.604158	0.500141
O29	O	-0.143229	0.141373	0.000184
O30	O	0.356771	0.641373	0.500184
N31	N	-0.131108	0.059824	0.000137
N32	N	0.368892	0.559824	0.500137
C33	C	-0.099816	0.015999	0.000138
C34	C	0.400184	0.515999	0.500138
O35	O	-0.120710	-0.021759	0.000145
O36	O	0.379290	0.478241	0.500145
C37	C	0.101843	0.018050	0.000136
C38	C	0.601843	0.518050	0.500136
C39	C	0.120965	0.062389	0.000130
C40	C	0.620965	0.562389	0.500130
C41	C	0.108801	0.150545	0.000127
C42	C	0.608801	0.650545	0.500127
C43	C	0.159212	0.151058	0.000120
C44	C	0.659212	0.651058	0.500120
C45	C	0.190499	0.107237	0.000118
C46	C	0.690499	0.607237	0.500118
C47	C	0.171376	0.062902	0.000123
C48	C	0.671376	0.562902	0.500123
C49	C	0.133135	-0.025775	0.000144
C50	C	0.633135	0.474225	0.500144
C51	C	0.183552	-0.025259	0.000146
C52	C	0.683552	0.474741	0.500146
C53	C	0.202675	0.019080	0.000140
C54	C	0.702675	0.519080	0.500140
C55	C	0.253075	0.019594	0.000113
C56	C	0.753075	0.519594	0.500113
N57	N	0.272202	0.063928	0.000117
N58	N	0.772202	0.563928	0.500117
C59	C	0.240914	0.107750	0.000119
C60	C	0.740914	0.607750	0.500119
C61	C	-0.205690	0.014925	0.000137
C62	C	0.294310	0.514925	0.500137
C63	C	-0.256105	0.014412	0.000136
C64	C	0.243895	0.514412	0.500136
C65	C	-0.268266	0.102572	0.000140
C66	C	0.231734	0.602572	0.500140
C67	C	-0.217852	0.103085	0.000135
C68	C	0.282148	0.603085	0.500135
C69	C	-0.186563	0.059259	0.000140
C70	C	0.313437	0.559259	0.500140
C71	C	0.346781	0.108824	0.000103
C72	C	0.846781	0.608824	0.500103
C73	C	0.397197	0.109334	0.000091
C74	C	0.897197	0.609334	0.500091
C75	C	0.409354	0.021174	0.000092
C76	C	0.909354	0.521174	0.500092
C77	C	0.358943	0.020665	0.000098
C78	C	0.858943	0.520665	0.500098
C79	C	0.327657	0.064493	0.000107
C80	C	0.827657	0.564493	0.500107
O81	O	0.284352	-0.017602	0.000081
O82	O	0.784352	0.482398	0.500081
O83	O	0.261821	0.145499	0.000133
O84	O	0.761821	0.645499	0.500133
C85	C	0.039266	0.105697	0.000140
C86	C	0.539266	0.605697	0.500140
C87	C	0.020143	0.061362	0.000145
C88	C	0.520143	0.561362	0.500145
C89	C	0.051431	0.017541	0.000143
C90	C	0.551431	0.517541	0.500143
C91	C	-0.030271	0.060849	0.000144
C92	C	0.469729	0.560849	0.500144
C93	C	-0.061559	0.104671	0.000146
C94	C	0.438441	0.604671	0.500146
C95	C	-0.042432	0.149005	0.000149
C96	C	0.457568	0.649005	0.500149
C97	C	0.007979	0.149519	0.000142
C98	C	0.507979	0.649519	0.500142
C99	C	0.032304	-0.026794	0.000139
C100	C	0.532304	0.473206	0.500139
C101	C	-0.018108	-0.027303	0.000145
C102	C	0.481892	0.472697	0.500145
C103	C	-0.049395	0.016518	0.000148
C104	C	0.450605	0.516518	0.500148
C105	C	0.574730	-0.026530	0.000112
C106	C	1.074730	0.473470	0.500112
C107	C	0.574172	-0.080183	0.000103
C108	C	1.074172	0.419817	0.500103
C109	C	0.526204	-0.457254	0.000089
C110	C	1.026204	0.042746	0.500089
C111	C	0.528250	-0.255593	0.000089
C112	C	1.028250	0.244407	0.500089
O113	O	0.491023	-0.224335	0.000043
O114	O	0.991023	0.275665	0.500043
N115	N	0.572585	-0.236467	0.000097
N116	N	1.072585	0.263533	0.500097
C117	C	0.616411	-0.267759	0.000100
C118	C	1.116411	0.232241	0.500100
O119	O	0.654167	-0.246862	0.000097
O120	O	1.154167	0.253138	0.500097
C121	C	0.614364	-0.469417	0.000094
C122	C	1.114364	0.030583	0.500094
C123	C	0.570027	-0.488542	0.000095
C124	C	1.070027	0.011458	0.500095
C125	C	0.481870	-0.476379	0.000090
C126	C	0.981870	0.023621	0.500090
C127	C	0.481360	-0.526792	0.000095
C128	C	0.981360	-0.026792	0.500095
C129	C	0.525183	-0.558080	0.000100
C130	C	1.025183	-0.058080	0.500100
C131	C	0.569516	-0.538955	0.000100
C132	C	1.069516	-0.038955	0.500100
C133	C	0.658188	-0.500707	0.000090
C134	C	1.158188	-0.000707	0.500090
C135	C	0.657672	-0.551124	0.000086
C136	C	1.157672	-0.051124	0.500086
C137	C	0.613335	-0.570248	0.000087
C138	C	1.113335	-0.070248	0.500087
C139	C	0.612829	-0.620655	0.000111
C140	C	1.112829	-0.120655	0.500111
N141	N	0.568494	-0.639782	0.000103
N142	N	1.068494	-0.139782	0.500103
C143	C	0.524671	-0.608494	0.000097
C144	C	1.024671	-0.108494	0.500097
C145	C	0.617483	-0.161885	0.000105
C146	C	1.117483	0.338115	0.500105
C147	C	0.617996	-0.111471	0.000108
C148	C	1.117996	0.388529	0.500108
C149	C	0.529834	-0.099309	0.000095
C150	C	1.029834	0.400691	0.500095
C151	C	0.529323	-0.149725	0.000099
C152	C	1.029323	0.350275	0.500099
C153	C	0.573148	-0.181011	0.000096
C154	C	1.073148	0.318989	0.500096
C155	C	0.523602	-0.714365	0.000109
C156	C	1.023602	-0.214365	0.500109
C157	C	0.523096	-0.764783	0.000119
C158	C	1.023096	-0.264783	0.500119
C159	C	0.611257	-0.776940	0.000127
C160	C	1.111257	-0.276940	0.500127
C161	C	0.611764	-0.726527	0.000122
C162	C	1.111764	-0.226527	0.500122
C163	C	0.567932	-0.695239	0.000110
C164	C	1.067932	-0.195239	0.500110
O165	O	0.650035	-0.651941	0.000146
O166	O	1.150035	-0.151941	0.500146
O167	O	0.486918	-0.629397	0.000078
O168	O	0.986918	-0.129397	0.500078
C169	C	0.526714	-0.406841	0.000084
C170	C	1.026714	0.093159	0.500084
C171	C	0.571047	-0.387716	0.000084
C172	C	1.071047	0.112284	0.500084
C173	C	0.614871	-0.419004	0.000089
C174	C	1.114871	0.080996	0.500089
C175	C	0.571560	-0.337302	0.000087
C176	C	1.071560	0.162698	0.500087
C177	C	0.527736	-0.306014	0.000082
C178	C	1.027736	0.193986	0.500082
C179	C	0.483401	-0.325140	0.000073
C180	C	0.983401	0.174860	0.500073
C181	C	0.482891	-0.375553	0.000079
C182	C	0.982891	0.124447	0.500079
C183	C	0.659206	-0.399878	0.000098
C184	C	1.159206	0.100122	0.500098
C185	C	0.659713	-0.349464	0.000094
C186	C	1.159713	0.150536	0.500094
C187	C	0.615890	-0.318176	0.000088
C188	C	1.115890	0.181824	0.500088
C189	C	0.658952	0.057681	0.000133
C190	C	1.158952	0.557681	0.500133
C191	C	0.712607	0.058233	0.000138
C192	C	1.212607	0.558233	0.500138
C193	C	0.566363	0.150275	0.000122
C194	C	1.066363	0.650275	0.500122
C195	C	0.566919	0.203929	0.000124
C196	C	1.066919	0.703929	0.500124
N197	N	0.603478	0.028946	0.248851
N198	N	1.103478	0.528946	0.748851
N199	N	0.537618	0.094796	-0.248616
N200	N	1.037618	0.594796	0.251384
C201	C	0.484531	0.147850	0.600652
C202	C	0.984531	0.647850	1.100652
C203	C	0.497854	0.134536	0.701153
C204	C	0.997854	0.634536	1.201153
C205	C	0.564073	0.068351	0.701126
C206	C	1.064073	0.568351	1.201126
C207	C	0.550754	0.081658	0.600622
C208	C	1.050754	0.581658	1.100622
C209	C	0.510983	0.121408	0.550394
C210	C	1.010983	0.621408	1.050394
C211	C	0.577206	0.055216	0.550364
C212	C	1.077206	0.555216	1.050364
C213	C	0.563889	0.068523	0.449870
C214	C	1.063889	0.568523	0.949870
C215	C	0.524120	0.108272	0.399634
C216	C	1.024120	0.608272	0.899634
C217	C	0.497666	0.134715	0.449899
C218	C	0.997666	0.634715	0.949899
C219	C	0.616979	0.015468	0.600595
C220	C	1.116979	0.515468	1.100595
C221	C	0.643431	-0.010974	0.550336
C222	C	1.143431	0.489026	1.050336
C223	C	0.630112	0.002331	0.449840
C224	C	1.130112	0.502331	0.949840
C225	C	0.590343	0.042080	0.399604
C226	C	1.090343	0.542080	0.899604
C227	C	0.656566	-0.024112	0.399575
C228	C	1.156566	0.475888	0.899575
C229	C	0.643250	-0.010804	0.299080
C230	C	1.143250	0.489196	0.799080
C231	C	0.577027	0.055388	0.299110
C232	C	1.077027	0.555388	0.799110
H233	H	0.209026	-0.060948	0.000151
H234	H	0.709026	0.439052	0.500151
H235	H	0.544637	0.087753	0.258212
H236	H	1.044637	0.587753	0.758212
Cl237	Cl	0.464595	0.167785	0.764328
Cl238	Cl	0.964595	0.667785	1.264328
Cl239	Cl	0.667507	-0.702488	0.000156
Cl240	Cl	1.167507	-0.202488	0.500156
Cl241	Cl	0.672585	-0.201211	0.000109
Cl242	Cl	1.172585	0.298789	0.500109
Cl243	Cl	0.614071	0.018382	0.764277
Cl244	Cl	1.114071	0.518382	1.264277
H245	H	0.627822	0.004636	0.682424
H246	H	1.127822	0.504636	1.182424
H247	H	0.343371	-0.015438	0.000089
H248	H	0.843371	0.484562	0.500089
Cl249	Cl	-0.166363	-0.040176	0.000141
Cl250	Cl	0.333637	0.459824	0.500141
H251	H	0.675814	-0.043338	0.591244
H252	H	1.175814	0.456662	1.091244
Cl253	Cl	0.507381	0.125004	0.273296
Cl254	Cl	1.007381	0.625004	0.773296
H255	H	0.465277	0.167080	0.409001
H256	H	0.965277	0.667080	0.909001
H257	H	0.321314	0.144513	0.000113
H258	H	0.821314	0.644513	0.500113
H259	H	-0.271672	-0.021691	0.000126
H260	H	0.228328	0.478309	0.500126
Cl261	Cl	0.706568	-0.074077	0.462729
Cl262	Cl	1.206568	0.425923	0.962729
H263	H	0.434837	-0.014504	0.000086
H264	H	0.934837	0.485496	0.500086
Cl265	Cl	0.473583	-0.173761	0.000097
Cl266	Cl	0.973583	0.326239	0.500097
H267	H	-0.293750	0.138253	0.000142
H268	H	0.206250	0.638253	0.500142
Cl269	Cl	0.069475	0.205643	0.000127
Cl270	Cl	0.569475	0.705643	0.500127
H271	H	0.446181	-0.450908	0.000082
H272	H	0.946181	0.049092	0.500082
H273	H	0.117575	-0.061881	0.000150
H274	H	0.617575	0.438119	0.500150
Cl275	Cl	-0.081776	0.204095	0.000148
Cl276	Cl	0.418224	0.704095	0.500148
H277	H	0.023543	0.185623	0.000138
H278	H	0.523543	0.685623	0.500138
H279	H	0.695821	-0.333899	0.000100
H280	H	1.195821	0.166101	0.500100
Cl281	Cl	0.468499	-0.675040	0.000098
Cl282	Cl	0.968499	-0.175040	0.500098
Cl283	Cl	-0.042142	-0.083047	0.000141
Cl284	Cl	0.457858	0.416953	0.500141
Cl285	Cl	-0.193817	0.158826	0.000130
Cl286	Cl	0.306183	0.658826	0.500130
H287	H	0.412763	0.145442	0.000086
H288	H	0.912763	0.645442	0.500086
Cl289	Cl	0.183244	0.206800	0.000119
Cl290	Cl	0.683244	0.706800	0.500119
Cl291	Cl	0.434526	0.197818	0.537503
Cl292	Cl	0.934526	0.697818	1.037503
H293	H	0.057775	-0.062480	0.000140
H294	H	0.557775	0.437520	0.500140
Cl295	Cl	0.425617	-0.550825	0.000084
Cl296	Cl	0.925617	-0.050825	0.500084
Cl297	Cl	0.467354	-0.788822	0.000122
Cl298	Cl	0.967354	-0.288822	0.500122
Cl299	Cl	0.474742	-0.059966	0.000088
Cl300	Cl	0.974742	0.440034	0.500088
Cl301	Cl	0.673738	-0.087437	0.000121
Cl302	Cl	1.173738	0.412563	0.500121
Cl303	Cl	0.676506	-0.044046	0.235896
Cl304	Cl	1.176506	0.455954	0.735896
H305	H	0.694292	-0.485145	0.000088
H306	H	1.194292	0.014855	0.500088
Cl307	Cl	0.712770	-0.590452	0.000079
Cl308	Cl	1.212770	-0.090452	0.500079
Cl309	Cl	0.666347	-0.816283	0.000140
Cl310	Cl	1.166347	-0.316283	0.500140
H311	H	0.446787	-0.391120	0.000080
H312	H	0.946787	0.108880	0.500080
H313	H	0.447719	-0.299658	0.000075
H314	H	0.947719	0.200342	0.500075
H315	H	0.694893	-0.425348	0.000101
H316	H	1.194893	0.074652	0.500101
