data_functionalizedCrystal
_audit_creation_method	'MofGen! by Chris Wilmer'
_symmetry_space_group_name_H-M	'P1'
_symmetry_Int_Tables_number	1
_symmetry_cell_setting	triclinic
loop_
_symmetry_equiv_pos_as_xyz
  x,y,z
_cell_length_a	19.188905
_cell_length_b	11.792241
_cell_length_c	10.268362
_cell_angle_alpha	90.001488
_cell_angle_beta	89.988275
_cell_angle_gamma	96.336014
loop_
_atom_site_label
_atom_site_type_symbol
_atom_site_fract_x
_atom_site_fract_y
_atom_site_fract_z
O1	O	0.926958	-0.141552	-0.108516
O2	O	0.723753	-0.160657	-0.108471
O3	O	0.830287	0.014141	-0.108485
O4	O	0.820424	-0.316350	-0.108501
O5	O	0.830276	0.014134	0.108115
O6	O	0.723742	-0.160663	0.108130
O7	O	0.926948	-0.141559	0.108085
Cu8	Cu	0.825344	-0.151111	0.127885
Cu9	Cu	0.825356	-0.151104	-0.128271
O10	O	0.820414	-0.316356	0.108099
C11	C	0.697733	-0.160046	-0.000165
C12	C	0.620217	-0.158203	-0.000148
C13	C	0.829662	0.056419	-0.000185
C14	C	0.827808	0.182405	-0.000186
C15	C	0.583826	-0.157314	-0.118220
C16	C	0.510992	-0.155570	-0.118236
C17	C	0.474554	-0.154691	-0.000173
C18	C	0.510954	-0.155587	0.117915
C19	C	0.583785	-0.157342	0.117927
N20	N	0.365149	-0.087351	0.087693
N21	N	0.295962	-0.085680	0.087673
C22	C	0.255118	-0.149404	-0.000205
N23	N	0.286075	-0.214847	-0.088081
N24	N	0.355268	-0.216513	-0.088064
C25	C	0.395581	-0.152788	-0.000174
C26	C	0.139752	-0.146626	-0.118303
C27	C	0.066917	-0.144889	-0.118314
C28	C	0.066881	-0.144894	0.117841
C29	C	0.139714	-0.146643	0.117848
C30	C	0.176146	-0.147503	-0.000227
C31	C	0.952968	-0.142169	-0.000224
C32	C	1.030484	-0.144012	-0.000250
N33	N	0.825365	-0.151091	-0.308437
C34	C	0.821039	-0.358634	-0.000204
C35	C	0.822893	-0.484620	-0.000211
C36	C	0.824398	0.413065	-0.000207
C37	C	0.826293	0.284709	-0.000196
N38	N	0.825341	-0.151115	0.308051
C39	C	0.825346	-0.151116	0.425893
C40	C	0.825355	-0.151106	0.573731
H41	H	0.613484	-0.158015	-0.214366
H42	H	0.169415	-0.147339	-0.214446
H43	H	0.169344	-0.147359	0.213996
C44	C	0.026887	-0.143907	-0.248210
N45	N	-0.003264	-0.143162	-0.346050
H46	H	0.481357	-0.154848	-0.214388
C47	C	0.623817	-0.158310	0.247822
N48	N	0.653971	-0.159035	0.345661
C49	C	0.470871	-0.154618	0.247784
N50	N	0.440681	-0.153892	0.345606
H51	H	0.037213	-0.144186	0.213970
