data_functionalizedCrystal
_audit_creation_method	'MofGen! by Chris Wilmer'
_symmetry_space_group_name_H-M	'P1'
_symmetry_Int_Tables_number	1
_symmetry_cell_setting	triclinic
loop_
_symmetry_equiv_pos_as_xyz
  x,y,z
_cell_length_a	15.298206
_cell_length_b	25.639240
_cell_length_c	15.298431
_cell_angle_alpha	80.275547
_cell_angle_beta	107.350793
_cell_angle_gamma	80.372776
loop_
_atom_site_label
_atom_site_type_symbol
_atom_site_fract_x
_atom_site_fract_y
_atom_site_fract_z
Zn1	Zn	1.330598	-0.313432	-0.279286
Zn2	Zn	1.357359	-0.419157	-0.123754
Zn3	Zn	1.201988	-0.313463	-0.150742
Zn4	Zn	1.175046	-0.382555	-0.306188
O5	O	1.266248	-0.357152	-0.214993
O6	O	1.464270	-0.342761	-0.236101
O7	O	1.359224	-0.420468	0.002811
O8	O	1.219124	-0.240298	-0.167829
O9	O	1.483932	-0.420437	-0.121833
O10	O	1.313613	-0.240275	-0.262270
O11	O	1.245074	-0.342815	-0.017016
O12	O	1.068292	-0.307324	-0.193915
O13	O	1.173205	-0.358054	-0.432765
O14	O	1.048498	-0.358085	-0.308121
O15	O	1.287488	-0.307270	-0.413000
O16	O	1.333099	-0.487463	-0.147919
O17	O	1.199155	-0.460571	-0.281953
C18	C	1.024656	-0.328736	-0.256867
C19	C	0.921298	-0.316590	-0.274803
C20	C	0.862493	-0.270483	-0.342820
C21	C	0.765383	-0.259065	-0.359674
C22	C	0.727066	-0.293757	-0.308517
C23	C	0.785871	-0.339867	-0.240504
C24	C	0.882991	-0.351283	-0.223643
C25	C	0.747565	-0.374558	-0.189341
C26	C	0.806369	-0.420668	-0.121327
C27	C	0.903480	-0.432082	-0.104470
C28	C	0.941796	-0.397391	-0.155626
C29	C	0.650444	-0.363141	-0.206202
C30	C	0.670942	-0.443942	-0.087025
C31	C	0.768053	-0.455360	-0.070171
C32	C	1.266129	-0.492987	-0.214942
C33	C	1.266158	-0.551105	-0.214937
C34	C	1.315459	-0.911412	-0.264270
C35	C	1.315483	-0.966017	-0.264284
O36	O	1.357258	-0.994196	-0.306181
N37	N	1.266361	-0.993395	-0.215060
C38	C	1.217204	-0.966164	-0.165826
O39	O	1.175424	-0.994465	-0.123959
C40	C	1.217175	-0.911559	-0.165818
C41	C	1.266308	-0.884185	-0.215038
C42	C	1.364587	-0.884037	-0.313487
C43	C	1.364565	-0.829436	-0.313471
C44	C	1.315413	-0.802209	-0.264239
C45	C	1.266285	-0.829583	-0.215022
C46	C	1.168013	-0.884327	-0.116591
C47	C	1.167988	-0.829718	-0.116587
C48	C	1.217121	-0.802344	-0.165807
C49	C	1.217111	-0.747755	-0.165774
N50	N	1.266233	-0.720377	-0.214998
C51	C	1.315384	-0.747604	-0.264230
C52	C	1.217268	-1.080839	-0.165848
C53	C	1.217302	-1.135444	-0.165850
C54	C	1.315580	-1.135293	-0.264310
C55	C	1.315551	-1.080688	-0.264302
C56	C	1.266390	-1.053460	-0.215073
C57	C	1.315333	-0.632937	-0.264193
C58	C	1.315309	-0.578332	-0.264170
C59	C	1.217028	-0.578487	-0.165715
C60	C	1.217055	-0.633089	-0.165733
C61	C	1.266210	-0.660312	-0.214980
O62	O	1.175355	-0.719540	-0.123902
O63	O	1.357148	-0.719294	-0.306101
C64	C	1.508784	-0.385678	-0.172955
C65	C	1.612138	-0.397835	-0.155042
C66	C	1.224356	-0.328576	-0.457572
C67	C	1.206505	-0.316398	-0.560944
C68	C	1.266389	-0.220786	-0.215059
C69	C	1.266449	-0.162675	-0.215087
C70	C	1.138684	-0.270246	-0.619826
C71	C	1.121899	-0.258804	-0.716952
C72	C	1.172939	-0.293511	-0.755205
C73	C	1.240765	-0.339662	-0.696322
C74	C	1.257547	-0.351108	-0.599188
C75	C	1.291801	-0.374373	-0.734567
C76	C	1.359628	-0.420524	-0.675684
C77	C	1.376406	-0.431967	-0.578559
C78	C	1.325367	-0.397260	-0.540306
C79	C	1.275020	-0.362927	-0.831701
C80	C	1.393883	-0.443789	-0.811063
C81	C	1.410667	-0.455231	-0.713937
C82	C	1.308030	-0.385585	0.026652
C83	C	1.326062	-0.397636	0.130055
H84	H	0.602575	-0.325597	-0.261577
H85	H	1.355558	-1.058403	-0.304381
C86	C	1.451042	-0.482724	-0.513787
N87	N	1.507270	-0.520950	-0.464999
H88	H	0.951358	-0.469625	-0.049081
C89	C	1.369365	-0.548224	-0.318314
N90	N	1.410078	-0.525549	-0.359095
C91	C	1.485270	-0.505999	-0.649156
N92	N	1.541459	-0.544237	-0.600361
H93	H	1.435445	-0.472049	-0.842207
H94	H	1.159269	-0.284191	-0.834289
H95	H	0.893701	-0.242240	-0.384459
C96	C	1.162959	-0.548526	-0.111566
N97	N	1.122228	-0.525956	-0.070788
H98	H	1.177056	-0.655379	-0.125646
C99	C	1.082556	-0.232071	-0.577739
N100	N	1.040280	-0.203313	-0.546038
H101	H	1.219796	-0.325350	-0.879634
H102	H	0.717511	-0.221522	-0.415051
C103	C	0.620241	-0.281198	-0.327065
N104	N	0.539774	-0.271739	-0.341043
H105	H	1.355352	-0.655095	-0.304301
H106	H	1.066672	-0.221229	-0.764888
H107	H	1.020869	-0.406690	-0.141919
C108	C	0.832751	-0.506077	0.004651
N109	N	0.881482	-0.544276	0.061008
C110	C	0.628799	-0.482106	-0.030751
N111	N	0.597050	-0.510849	0.011632
C112	C	1.418619	-0.799333	-0.367613
N113	N	1.459337	-0.776662	-0.408395
H114	H	1.404611	-0.906199	-0.353583
H115	H	1.355599	-1.157471	-0.304399
H116	H	1.177304	-1.157730	-0.125759
C117	C	1.163188	-1.050894	-0.111684
N118	N	1.122452	-1.028343	-0.070891
H119	H	1.128004	-0.906606	-0.076510
H120	H	1.127952	-0.807552	-0.076501
C121	C	1.343827	-0.409844	-0.433462
N122	N	1.357727	-0.419322	-0.352986
