data_functionalizedCrystal
_audit_creation_method	'MofGen! by Chris Wilmer'
_symmetry_space_group_name_H-M	'P1'
_symmetry_Int_Tables_number	1
_symmetry_cell_setting	triclinic
loop_
_symmetry_equiv_pos_as_xyz
  x,y,z
_cell_length_a	13.897449
_cell_length_b	13.897447
_cell_length_c	12.827893
_cell_angle_alpha	90.008482
_cell_angle_beta	90.007275
_cell_angle_gamma	90.020357
loop_
_atom_site_label
_atom_site_type_symbol
_atom_site_fract_x
_atom_site_fract_y
_atom_site_fract_z
Zn1	Zn	1.474537	-0.384161	0.590937
Zn2	Zn	1.807870	-0.050828	0.924270
Zn3	Zn	2.141203	0.282505	1.257603
Zn4	Zn	1.474471	-0.545424	0.416193
Zn5	Zn	1.807804	-0.212091	0.749527
Zn6	Zn	2.141138	0.121242	1.082860
Zn7	Zn	1.313271	-0.384147	0.416200
Zn8	Zn	1.646605	-0.050814	0.749533
Zn9	Zn	1.979938	0.282519	1.082866
Zn10	Zn	1.313202	-0.545418	0.590883
Zn11	Zn	1.646536	-0.212085	0.924216
Zn12	Zn	1.979869	0.121248	1.257549
O13	O	1.393870	-0.464788	0.503553
O14	O	1.727204	-0.131454	0.836886
O15	O	2.060537	0.201879	1.170220
O16	O	1.609510	-0.405562	0.567776
O17	O	1.942843	-0.072228	0.901110
O18	O	2.276176	0.261105	1.234443
O19	O	1.453089	-0.524027	0.269958
O20	O	1.786422	-0.190694	0.603292
O21	O	2.119755	0.142639	0.936625
O22	O	1.334720	-0.249168	0.439404
O23	O	1.668053	0.084166	0.772738
O24	O	2.001387	0.417499	1.106071
O25	O	1.609461	-0.524041	0.439393
O26	O	1.942795	-0.190707	0.772727
O27	O	2.276128	0.142626	1.106060
O28	O	1.453201	-0.249178	0.567783
O29	O	1.786534	0.084155	0.901116
O30	O	2.119868	0.417489	1.234449
O31	O	1.334656	-0.405538	0.269963
O32	O	1.667989	-0.072204	0.603296
O33	O	2.001323	0.261129	0.936630
O34	O	1.178281	-0.405532	0.439352
O35	O	1.511614	-0.072199	0.772685
O36	O	1.844947	0.261135	1.106019
O37	O	1.334603	-0.524031	0.737126
O38	O	1.667936	-0.190697	1.070459
O39	O	2.001269	0.142636	1.403792
O40	O	1.178230	-0.524017	0.567691
O41	O	1.511563	-0.190684	0.901024
O42	O	1.844897	0.142650	1.234357
O43	O	1.453134	-0.405556	0.737165
O44	O	1.786468	-0.072222	1.070499
O45	O	2.119801	0.261111	1.403832
O46	O	1.453022	-0.680405	0.439341
O47	O	1.786355	-0.347072	0.772674
O48	O	2.119689	-0.013738	1.106008
O49	O	1.334539	-0.680401	0.567684
O50	O	1.667872	-0.347067	0.901018
O51	O	2.001205	-0.013734	1.234351
C52	C	1.143256	-0.464773	0.503517
C53	C	1.476589	-0.131440	0.836850
C54	C	1.809923	0.201894	1.170183
C55	C	1.036042	-0.464790	0.503526
C56	C	1.369375	-0.131457	0.836859
C57	C	1.702709	0.201877	1.170192
C58	C	1.393792	-0.715402	0.503529
C59	C	1.727125	-0.382069	0.836862
C60	C	2.060459	-0.048736	1.170196
C61	C	1.393847	-0.822616	0.503553
C62	C	1.727180	-0.489283	0.836887
C63	C	2.060513	-0.155949	1.170220
C64	C	0.948972	-0.464793	0.503543
C65	C	1.282306	-0.131460	0.836877
C66	C	1.615639	0.201874	1.170210
C67	C	0.839740	-0.464800	0.503575
C68	C	1.173073	-0.131467	0.836908
C69	C	1.506407	0.201867	1.170242
C70	C	1.393893	-0.909686	0.503577
C71	C	1.727227	-0.576353	0.836911
C72	C	2.060560	-0.243019	1.170244
C73	C	1.393961	-1.018918	0.503604
C74	C	1.727294	-0.685585	0.836937
C75	C	2.060628	-0.352252	1.170271
C76	C	1.645463	-0.464803	0.503590
C77	C	1.978797	-0.131470	0.836924
C78	C	2.312130	0.201863	1.170257
C79	C	1.752677	-0.464810	0.503606
C80	C	2.086011	-0.131477	0.836939
C81	C	2.419344	0.201857	1.170273
C82	C	1.393868	-0.464794	0.776123
C83	C	1.727201	-0.131461	1.109456
C84	C	2.060535	0.201873	1.442790
C85	C	1.393867	-0.464797	0.892276
C86	C	1.727200	-0.131463	1.225610
C87	C	2.060534	0.201870	1.558943
C88	C	1.393975	-0.213195	0.503600
C89	C	1.727309	0.120138	0.836934
C90	C	2.060642	0.453472	1.170267
C91	C	1.394020	-0.105981	0.503620
C92	C	1.727354	0.227352	0.836954
C93	C	2.060687	0.560686	1.170287
C94	C	1.335220	-0.523418	1.064086
C95	C	1.668553	-0.190085	1.397419
C96	C	2.001887	0.143248	1.730752
C97	C	1.335220	-0.523417	0.944035
C98	C	1.668553	-0.190083	1.277369
C99	C	2.001886	0.143250	1.610702
C100	C	1.393866	-0.464803	1.232043
C101	C	1.727199	-0.131470	1.565376
C102	C	2.060532	0.201864	1.898710
C103	C	1.393867	-0.464800	1.115890
C104	C	1.727200	-0.131467	1.449223
C105	C	2.060533	0.201866	1.782557
H106	H	1.285014	-0.573605	0.899485
H107	H	1.618347	-0.240272	1.232818
H108	H	1.951680	0.093061	1.566152
H109	H	1.444082	-0.414613	0.936820
H110	H	1.777416	-0.081279	1.270153
H111	H	2.110749	0.252054	1.603487
H112	H	1.285008	-0.573601	1.108611
H113	H	1.618341	-0.240268	1.441944
H114	H	1.951675	0.093065	1.775277
H115	H	1.444071	-0.414610	1.071365
H116	H	1.777405	-0.081277	1.404698
H117	H	2.110738	0.252056	1.738032
