data_functionalizedCrystal
_audit_creation_method	'MofGen! by Chris Wilmer'
_symmetry_space_group_name_H-M	'P1'
_symmetry_Int_Tables_number	1
_symmetry_cell_setting	triclinic
loop_
_symmetry_equiv_pos_as_xyz
  x,y,z
_cell_length_a	16.120297
_cell_length_b	14.908571
_cell_length_c	14.909042
_cell_angle_alpha	83.236050
_cell_angle_beta	90.254815
_cell_angle_gamma	90.247904
loop_
_atom_site_label
_atom_site_type_symbol
_atom_site_fract_x
_atom_site_fract_y
_atom_site_fract_z
Zn1	Zn	-0.519832	-1.377690	0.467320
Zn2	Zn	-0.373629	-1.393915	0.611097
Zn3	Zn	-0.373650	-1.233904	0.451013
Zn4	Zn	-0.504685	-1.235815	0.609103
O5	O	-0.442949	-1.310331	0.534633
O6	O	-0.506767	-1.506182	0.494051
O7	O	-0.257606	-1.378680	0.583871
O8	O	-0.399389	-1.245387	0.326844
O9	O	-0.399353	-1.518103	0.599683
O10	O	-0.506788	-1.351025	0.338824
O11	O	-0.257622	-1.261120	0.466258
O12	O	-0.384703	-1.107817	0.464325
O13	O	-0.622719	-1.248645	0.596285
O14	O	-0.480973	-1.109221	0.580473
O15	O	-0.633847	-1.352879	0.492117
O16	O	-0.384666	-1.380533	0.737164
O17	O	-0.480953	-1.264378	0.735699
C18	C	-0.431197	-1.075761	0.520414
C19	C	-0.426188	-0.975411	0.514354
C20	C	-0.659209	-1.299165	0.545798
C21	C	-0.751366	-1.294407	0.550555
C22	C	-0.431183	-1.324447	0.769191
C23	C	-0.426181	-1.330568	0.869542
C24	C	-0.920097	-1.285685	0.559220
C25	C	-0.966675	-1.335138	0.509786
C26	C	-1.060563	-1.330285	0.514607
C27	C	-0.826201	-1.290537	0.554400
C28	C	-0.227536	-1.321501	0.523450
C29	C	-0.135401	-1.326419	0.518448
C30	C	-0.454747	-1.545817	0.548908
C31	C	-0.459775	-1.646167	0.554991
C32	C	-0.516872	-0.788371	0.624082
C33	C	-0.512168	-0.694084	0.618391
C34	C	-0.412083	-0.692545	0.497277
C35	C	-0.416786	-0.786833	0.502968
C36	C	-0.469182	-0.834743	0.566374
C37	C	-0.473880	-0.929033	0.572069
C38	C	-0.373800	-0.927492	0.450950
C39	C	-0.369096	-0.833204	0.445259
C40	C	-0.454781	-1.296183	0.299162
C41	C	-0.459823	-1.290154	0.198818
C42	C	-0.516948	-1.221010	1.056641
C43	C	-0.512251	-1.226757	1.150930
C44	C	-0.412086	-1.347805	1.152410
C45	C	-0.416783	-1.342058	1.058121
C46	C	-0.469216	-1.278659	1.010240
C47	C	-0.473917	-1.272916	0.915950
C48	C	-0.373749	-1.393960	0.917432
C49	C	-0.369052	-1.399707	1.011721
H50	H	-0.936038	-1.381119	0.463844
O51	O	-0.312500	-1.468091	1.063357
H52	H	-0.331238	-1.537085	1.050206
O53	O	-0.960668	-1.224779	0.620075
H54	H	-1.029114	-1.230487	0.614360
O55	O	-0.530394	-0.980713	0.640447
H56	H	-0.562773	-0.932622	0.679611
O57	O	-0.573379	-0.840056	0.692465
H58	H	-0.605754	-0.791969	0.731637
O59	O	-0.322344	-0.977514	0.388719
H60	H	-0.285112	-0.928356	0.343686
O61	O	-0.563527	-0.644073	0.680709
H62	H	-0.600717	-0.693235	0.725783
O63	O	-0.563726	-1.164574	1.200979
H64	H	-0.605823	-1.205375	1.248516
O65	O	-0.355545	-0.640869	0.428921
H66	H	-0.360276	-0.567516	0.434676
H67	H	-0.369389	-1.399414	1.191411
O68	O	-0.573494	-1.152632	1.004987
H69	H	-0.605893	-1.113505	1.053094
H70	H	-0.326440	-0.794183	0.393634
H71	H	-0.516614	-1.221296	0.876966
H72	H	-0.334885	-1.440904	0.879642
