data_functionalizedCrystal
_audit_creation_method	'MofGen! by Chris Wilmer'
_symmetry_space_group_name_H-M	'P1'
_symmetry_Int_Tables_number	1
_symmetry_cell_setting	triclinic
loop_
_symmetry_equiv_pos_as_xyz
  x,y,z
_cell_length_a	17.699097
_cell_length_b	17.699083
_cell_length_c	16.176319
_cell_angle_alpha	89.992304
_cell_angle_beta	90.011695
_cell_angle_gamma	96.714293
loop_
_atom_site_label
_atom_site_type_symbol
_atom_site_fract_x
_atom_site_fract_y
_atom_site_fract_z
O1	O	-1.004072	0.095761	-0.068830
O2	O	-0.504072	0.595761	0.431170
O3	O	-0.783695	0.108203	-0.068814
O4	O	-0.283695	0.608203	0.431186
O5	O	-0.900110	-0.008207	-0.068815
O6	O	-0.400110	0.491793	0.431185
O7	O	-0.887658	0.212171	-0.068829
O8	O	-0.387658	0.712171	0.431171
O9	O	-0.900094	-0.008215	0.068678
O10	O	-0.400094	0.491785	0.568678
O11	O	-0.783679	0.108195	0.068679
O12	O	-0.283679	0.608195	0.568679
O13	O	-1.004057	0.095753	0.068663
O14	O	-0.504057	0.595753	0.568663
Cu15	Cu	-0.893867	0.101974	0.081226
Cu16	Cu	-0.393867	0.601974	0.581226
Cu17	Cu	-0.893885	0.101982	-0.081376
Cu18	Cu	-0.393885	0.601982	0.418624
O19	O	-0.887642	0.212163	0.068664
O20	O	-0.387642	0.712163	0.568664
C21	C	-0.755491	0.107751	-0.000065
C22	C	-0.255491	0.607751	0.499935
C23	C	-0.671473	0.106409	-0.000059
C24	C	-0.171473	0.606409	0.499941
C25	C	-0.155764	0.098184	-0.075032
C26	C	0.344236	0.598184	0.424968
C27	C	-0.234708	0.099440	-0.075029
C28	C	0.265292	0.599440	0.424971
C29	C	-0.274165	0.100065	-0.000079
C30	C	0.225835	0.600065	0.499921
C31	C	-0.234675	0.099427	0.074873
C32	C	0.265325	0.599427	0.574873
C33	C	-0.155733	0.098165	0.074869
C34	C	0.344267	0.598165	0.574869
C35	C	-0.553039	0.104514	0.074890
C36	C	-0.053039	0.604514	0.574890
C37	C	-0.631986	0.105778	0.074889
C38	C	-0.131986	0.605778	0.574889
C39	C	-0.632014	0.105789	-0.075008
C40	C	-0.132014	0.605789	0.424992
C41	C	-0.553072	0.104527	-0.075012
C42	C	-0.053072	0.604527	0.424988
C43	C	-0.513589	0.103885	-0.000060
C44	C	-0.013589	0.603885	0.499940
C45	C	-0.427989	0.102521	-0.000065
C46	C	0.072011	0.602521	0.499935
C47	C	-0.359763	0.101434	-0.000074
C48	C	0.140237	0.601434	0.499926
C49	C	-0.899656	-0.036408	-0.000068
C50	C	-0.399656	0.463592	0.499932
C51	C	-0.898317	-0.120426	-0.000068
C52	C	-0.398317	0.379574	0.499932
C53	C	-0.966650	-0.169044	-0.000072
C54	C	-0.466650	0.330956	0.499928
C55	C	-0.965388	-0.247987	-0.000079
C56	C	-0.465388	0.252013	0.499921
C57	C	-0.895792	-0.278311	-0.000076
C58	C	-0.395792	0.221689	0.499924
C59	C	-0.827454	-0.229687	-0.000075
C60	C	-0.327454	0.270313	0.499925
C61	C	-0.828717	-0.150746	-0.000074
C62	C	-0.328717	0.349254	0.499926
C63	C	-0.822359	-0.548051	-0.000081
C64	C	-0.322359	-0.048051	0.499919
C65	C	-0.821101	-0.626999	-0.000080
C66	C	-0.321101	-0.126999	0.499920
C67	C	-0.959030	-0.645292	-0.000087
C68	C	-0.459030	-0.145292	0.499913
C69	C	-0.960293	-0.566350	-0.000085
C70	C	-0.460293	-0.066350	0.499915
C71	C	-0.891955	-0.517734	-0.000088
C72	C	-0.391955	-0.017734	0.499912
C73	C	-0.893325	-0.432134	-0.000082
C74	C	-0.393325	0.067866	0.499918
C75	C	-0.894422	-0.363909	-0.000077
C76	C	-0.394422	0.136091	0.499923
C77	C	-0.032261	0.096205	-0.000084
C78	C	0.467739	0.596205	0.499916
C79	C	-0.116279	0.097547	-0.000086
C80	C	0.383721	0.597547	0.499914
C81	C	-0.888096	0.240364	-0.000084
C82	C	-0.388096	0.740364	0.499916
C83	C	-0.889435	0.324382	-0.000090
C84	C	-0.389435	0.824382	0.499910
N85	N	-0.893859	0.101967	0.195591
N86	N	-0.393859	0.601967	0.695591
N87	N	-0.893899	0.101983	-0.195741
N88	N	-0.393899	0.601983	0.304259
C89	C	-0.945423	0.050442	0.238854
C90	C	-0.445423	0.550442	0.738854
C91	C	-0.945427	0.050441	0.325402
C92	C	-0.445427	0.550441	0.825402
C93	C	-0.893869	0.101970	0.368683
C94	C	-0.393869	0.601970	0.868683
C95	C	-0.842300	0.153497	0.325414
C96	C	-0.342300	0.653497	0.825414
C97	C	-0.842293	0.153494	0.238868
C98	C	-0.342293	0.653494	0.738868
C99	C	-0.842326	0.153512	0.674442
C100	C	-0.342326	0.653512	1.174442
C101	C	-0.842338	0.153512	0.760993
C102	C	-0.342338	0.653512	1.260993
C103	C	-0.945459	0.050458	0.760975
C104	C	-0.445459	0.550458	1.260975
C105	C	-0.945452	0.050455	0.674430
C106	C	-0.445452	0.550455	1.174430
C107	C	-0.893881	0.101980	0.631168
C108	C	-0.393881	0.601980	1.131168
C109	C	-0.893876	0.101979	0.537323
C110	C	-0.393876	0.601979	1.037323
C111	C	-0.893877	0.101974	0.462526
C112	C	-0.393877	0.601974	0.962526
H113	H	-0.123642	0.097680	-0.136066
H114	H	0.376358	0.597680	0.363934
H115	H	-0.664110	0.106287	0.135926
H116	H	-0.164110	0.606287	0.635926
H117	H	-1.021032	-0.287569	-0.000080
H118	H	-0.521032	0.212431	0.499920
Br119	Br	-0.499463	0.103662	0.176611
Br120	Br	0.000537	0.603662	0.676611
H121	H	-1.016965	-0.541665	-0.000083
H122	H	-0.516965	-0.041665	0.499917
H123	H	-0.266808	0.099931	0.135899
H124	H	0.233192	0.599931	0.635899
H125	H	-1.023324	-0.144361	-0.000069
H126	H	-0.523324	0.355639	0.499931
H127	H	-1.014674	-0.684886	-0.000088
H128	H	-0.514674	-0.184886	0.499912
H129	H	-0.987409	0.008484	0.203620
H130	H	-0.487409	0.508484	0.703620
H131	H	-0.800352	0.195475	0.796232
H132	H	-0.300352	0.695475	1.296232
Br133	Br	-0.729614	-0.482080	-0.000091
Br134	Br	-0.229614	0.017920	0.499909
H135	H	-0.123585	0.097655	0.135898
H136	H	0.376415	0.597655	0.635898
Br137	Br	-0.726643	-0.668152	-0.000076
Br138	Br	-0.226643	-0.168152	0.499924
H139	H	-0.770787	-0.254383	-0.000078
H140	H	-0.270787	0.245617	0.499922
Br141	Br	-0.735976	-0.084763	-0.000075
Br142	Br	-0.235976	0.415237	0.499925
H143	H	-0.987413	0.008485	0.360626
H144	H	-0.487413	0.508485	0.860626
Br145	Br	-1.015428	-0.019474	0.615693
Br146	Br	-0.515428	0.480526	1.115693
H147	H	-0.266853	0.099953	-0.136058
H148	H	0.233147	0.599953	0.363942
Br149	Br	-1.015450	-0.019471	0.819692
Br150	Br	-0.515450	0.480529	1.319692
H151	H	-0.800336	0.195466	0.639225
H152	H	-0.300336	0.695466	1.139225
H153	H	-0.800318	0.195450	0.360659
H154	H	-0.300318	0.695450	0.860659
H155	H	-0.800304	0.195450	0.203644
H156	H	-0.300304	0.695450	0.703644
H157	H	-0.520949	0.104022	-0.136044
H158	H	-0.020949	0.604022	0.363956
H159	H	-0.664170	0.106309	-0.136038
H160	H	-0.164170	0.606309	0.363962
