data_functionalizedCrystal
_audit_creation_method	'MofGen! by Chris Wilmer'
_symmetry_space_group_name_H-M	'P1'
_symmetry_Int_Tables_number	1
_symmetry_cell_setting	triclinic
loop_
_symmetry_equiv_pos_as_xyz
  x,y,z
_cell_length_a	14.853568
_cell_length_b	16.098538
_cell_length_c	14.853568
_cell_angle_alpha	92.731271
_cell_angle_beta	83.635187
_cell_angle_gamma	87.260287
loop_
_atom_site_label
_atom_site_type_symbol
_atom_site_fract_x
_atom_site_fract_y
_atom_site_fract_z
O1	O	-1.200393	0.069193	-0.113687
O2	O	-0.937934	0.069206	-0.127707
O3	O	-1.076174	0.069204	0.010533
O4	O	-1.062153	0.069196	-0.251927
O5	O	-1.068099	-0.069309	0.002490
O6	O	-0.929859	-0.069307	-0.135750
O7	O	-1.192317	-0.069319	-0.121730
Zn8	Zn	-1.059806	-0.091305	-0.130017
Zn9	Zn	-1.070446	0.091192	-0.119419
O10	O	-1.054077	-0.069317	-0.259970
C11	C	-0.900308	-0.000049	-0.131093
C12	C	-0.800224	-0.000043	-0.129189
N13	N	-1.052551	-0.215854	-0.137249
C14	C	-0.387689	-0.000061	-0.039023
C15	C	-0.366409	-0.000065	-0.203256
C16	C	-0.460443	-0.000062	-0.205046
C17	C	-0.518104	-0.000057	-0.123823
C18	C	-0.481733	-0.000055	-0.040811
C19	C	-0.496822	-0.000055	-0.288057
C20	C	-0.590861	-0.000051	-0.289850
C21	C	-0.648525	-0.000053	-0.208627
C22	C	-0.612148	-0.000052	-0.125611
C23	C	-0.669809	-0.000047	-0.044388
C24	C	-0.633434	-0.000052	0.038629
C25	C	-0.539396	-0.000056	0.040413
C26	C	-0.742562	-0.000048	-0.210411
C27	C	-0.763852	-0.000042	-0.046176
C28	C	-1.111247	-0.259440	-0.078596
C29	C	-1.106181	-0.346629	-0.083664
C30	C	-1.042422	-0.390230	-0.147390
C31	C	-0.983719	-0.346638	-0.206046
C32	C	-0.988782	-0.259451	-0.200974
C33	C	-1.024068	-0.653480	-0.165764
C34	C	-1.019011	-0.740673	-0.170834
C35	C	-1.141472	-0.740658	-0.048449
C36	C	-1.146533	-0.653469	-0.043386
C37	C	-1.087827	-0.609885	-0.102039
C38	C	-1.037243	-0.479351	-0.152574
C39	C	-1.093002	-0.520765	-0.096851
C40	C	-0.229944	-0.000064	-0.118343
C41	C	-0.330028	-0.000065	-0.120246
C42	C	-1.071501	-0.000050	0.040100
C43	C	-1.069598	-0.000041	0.140185
N44	N	-1.077707	0.215741	-0.112180
C45	C	-0.979431	-0.000048	0.552718
C46	C	-1.143663	-0.000055	0.573998
C47	C	-1.145453	-0.000052	0.479965
C48	C	-1.064231	-0.000047	0.422303
C49	C	-0.981219	-0.000047	0.458675
C50	C	-1.228464	-0.000061	0.443585
C51	C	-1.230258	-0.000058	0.349546
C52	C	-1.149035	-0.000048	0.291883
C53	C	-1.066019	-0.000046	0.328261
C54	C	-0.984797	-0.000042	0.270599
C55	C	-0.901780	-0.000034	0.306975
C56	C	-0.899996	-0.000036	0.401013
C57	C	-1.150820	-0.000046	0.197846
C58	C	-0.986585	-0.000041	0.176557
C59	C	-1.058750	-0.000058	0.710463
C60	C	-1.060653	-0.000052	0.610380
H61	H	-0.810795	-0.000041	0.019967
H62	H	-1.153975	-0.382116	-0.035903
H63	H	-0.985331	-0.514859	-0.204463
C64	C	-0.812439	-0.000029	0.243536
N65	N	-0.745149	-0.000024	0.195750
H66	H	-0.931801	-0.382143	-0.257931
C67	C	-1.216668	-0.605514	0.026723
N68	N	-1.269496	-0.569395	0.079529
H69	H	-1.294590	-0.000072	0.490539
C70	C	-1.181387	-0.211487	-0.008491
N71	N	-1.234216	-0.175371	0.044318
H72	H	-0.920443	-0.000033	0.129614
C73	C	-0.499375	-0.000055	0.131724
N74	N	-0.469228	-0.000051	0.200498
C75	C	-1.321577	-0.000060	0.309542
N76	N	-1.390360	-0.000058	0.279410
H77	H	-0.772176	-0.000046	-0.278002
H78	H	-1.189266	-0.776153	-0.000696
H79	H	-1.144912	-0.485263	-0.044961
C80	C	-0.948866	-0.788633	-0.240938
N81	N	-0.896035	-0.824756	-0.293739
H82	H	-1.218410	-0.000057	0.168232
H83	H	-0.976269	-0.618000	-0.213523
H84	H	-0.940985	-0.223964	-0.248735
H85	H	-1.209790	-0.000065	0.620951
H86	H	-0.832408	-0.000031	0.430639
C87	C	-0.888116	-0.000047	0.592732
N88	N	-0.819337	-0.000050	0.622871
H89	H	-0.358068	-0.000068	0.028567
C90	C	-0.433390	-0.000061	-0.377396
N91	N	-0.385607	-0.000069	-0.444689
H92	H	-0.680394	-0.000043	0.104760
H93	H	-0.319456	-0.000061	-0.269383
H94	H	-0.620470	-0.000047	-0.357448
