data_functionalizedCrystal
_audit_creation_method	'MofGen! by Chris Wilmer'
_symmetry_space_group_name_H-M	'P1'
_symmetry_Int_Tables_number	1
_symmetry_cell_setting	triclinic
loop_
_symmetry_equiv_pos_as_xyz
  x,y,z
_cell_length_a	10.654550
_cell_length_b	27.732048
_cell_length_c	9.130313
_cell_angle_alpha	89.990549
_cell_angle_beta	89.999724
_cell_angle_gamma	83.563793
loop_
_atom_site_label
_atom_site_type_symbol
_atom_site_fract_x
_atom_site_fract_y
_atom_site_fract_z
O1	O	1.664986	0.067886	-0.121708
O2	O	1.299235	0.074354	-0.121737
O3	O	1.493470	0.000794	-0.121693
O4	O	1.470751	0.141446	-0.121751
O5	O	1.493457	0.000792	0.121905
O6	O	1.299222	0.074351	0.121862
O7	O	1.664973	0.067884	0.121891
Cu8	Cu	1.482096	0.071117	0.144119
Cu9	Cu	1.482112	0.071120	-0.143965
O10	O	1.470738	0.141444	0.121848
C11	C	1.252451	0.073878	0.000060
C12	C	1.113067	0.072457	0.000050
C13	C	1.031761	0.115768	0.000036
C14	C	0.900796	0.114430	0.000063
C15	C	0.932457	0.026466	0.000110
C16	C	1.063419	0.027805	0.000094
C17	C	1.492986	-0.017217	0.000110
C18	C	1.491550	-0.070881	0.000122
C19	C	1.597290	-0.409038	0.000055
C20	C	1.591962	-0.610730	0.000034
O21	O	1.688653	-0.641384	-0.000022
N22	N	1.476789	-0.630571	0.000027
C23	C	1.362940	-0.599986	0.000015
O24	O	1.264855	-0.621490	-0.000008
C25	C	1.368269	-0.398294	0.000025
C26	C	1.483449	-0.378456	0.000047
C27	C	1.712461	-0.389199	0.000076
C28	C	1.713792	-0.338779	0.000089
C29	C	1.599951	-0.308197	0.000081
C30	C	1.484780	-0.328036	0.000061
C31	C	1.254421	-0.367709	0.000002
C32	C	1.255764	-0.317284	0.000001
C33	C	1.370944	-0.297446	0.000024
C34	C	1.372271	-0.247034	0.000066
N35	N	1.487444	-0.227193	0.000074
C36	C	1.601284	-0.257774	0.000081
C37	C	1.360150	-0.705877	0.000012
C38	C	1.358817	-0.756300	0.000012
C39	C	1.587840	-0.767041	0.000029
C40	C	1.589171	-0.716617	0.000039
C41	C	1.475323	-0.686036	0.000020
C42	C	1.604070	-0.151888	0.000110
C43	C	1.605391	-0.101463	0.000130
C44	C	1.376369	-0.090726	0.000105
C45	C	1.375047	-0.141147	0.000093
C46	C	1.488908	-0.171727	0.000091
O47	O	1.275631	-0.216352	0.000106
O48	O	1.699354	-0.236261	0.000071
C49	C	1.595959	-0.459458	0.000042
C50	C	1.480788	-0.479296	0.000021
C51	C	1.366947	-0.448715	0.000013
C52	C	1.479455	-0.529719	0.000021
C53	C	1.593296	-0.560301	0.000029
C54	C	1.708469	-0.540460	0.000036
C55	C	1.709799	-0.490040	0.000049
C56	C	1.251774	-0.468556	0.000006
C57	C	1.250453	-0.518976	-0.000006
C58	C	1.364293	-0.549558	0.000002
C59	C	1.711757	0.068360	0.000092
C60	C	1.851141	0.069781	0.000092
C61	C	1.471221	0.159455	0.000041
C62	C	1.472657	0.213118	0.000020
N63	N	1.482094	0.071115	0.346742
N64	N	1.482123	0.071118	-0.346587
C65	C	1.568130	0.038557	0.423413
C66	C	1.568142	0.038557	0.576750
C67	C	1.396079	0.103678	0.576731
C68	C	1.396062	0.103675	0.423397
H69	H	1.129623	-0.007466	0.000109
H70	H	1.638181	0.012044	0.361004
N71	N	0.878894	-0.021689	0.000158
H72	H	0.825256	-0.024206	-0.090137
H73	H	0.950340	-0.048897	0.000226
H74	H	1.699189	-0.085314	0.000152
N75	N	1.726874	-0.184866	0.000108
H76	H	1.800027	-0.164641	0.000126
H77	H	1.731308	-0.206027	0.090411
H78	H	1.682961	-0.700469	0.000056
H79	H	1.680533	-0.791950	0.000036
N80	N	1.660954	0.003447	0.659446
H81	H	1.715454	-0.017176	0.587614
H82	H	1.716097	0.022160	0.723034
H83	H	1.807584	-0.322632	0.000101
N84	N	1.085314	0.163926	-0.000012
H85	H	1.013929	0.191159	-0.000016
H86	H	1.138971	0.166398	0.090283
H87	H	1.326035	0.130189	0.639159
H88	H	0.834601	0.149698	0.000054
N89	N	1.303252	0.138790	0.340688
H90	H	1.248758	0.159419	0.412513
H91	H	1.350892	0.160329	0.277039
N92	N	1.835256	-0.422179	0.000086
H93	H	1.908407	-0.401953	0.000100
H94	H	1.839690	-0.443336	0.090396
H95	H	1.267435	-0.680982	-0.000004
N96	N	1.234588	-0.777694	0.000028
H97	H	1.162679	-0.750665	0.000023
H98	H	1.229039	-0.798376	-0.090275
H99	H	1.163052	-0.292386	-0.000017
N100	N	1.130189	-0.389098	-0.000003
H101	H	1.058286	-0.362067	-0.000011
H102	H	1.124641	-0.409779	-0.090308
N103	N	1.250822	-0.162547	0.000089
H104	H	1.178907	-0.135521	0.000092
H105	H	1.245286	-0.183224	-0.090228
N106	N	1.253588	-0.057737	0.000136
H107	H	1.271919	-0.022785	0.000152
H108	H	1.203340	-0.064191	-0.090168
N109	N	1.834030	-0.468646	0.000076
H110	H	1.905935	-0.495677	0.000079
H111	H	1.839587	-0.447954	-0.090225
H112	H	1.801162	-0.565368	0.000049
H113	H	1.156652	-0.535123	-0.000011
N114	N	1.128983	-0.435575	-0.000004
H115	H	1.055829	-0.455800	-0.000010
H116	H	1.124539	-0.414428	0.090309
