data_functionalizedCrystal
_audit_creation_method	'MofGen! by Chris Wilmer'
_symmetry_space_group_name_H-M	'P1'
_symmetry_Int_Tables_number	1
_symmetry_cell_setting	triclinic
loop_
_symmetry_equiv_pos_as_xyz
  x,y,z
_cell_length_a	16.992695
_cell_length_b	14.853567
_cell_length_c	15.455313
_cell_angle_alpha	87.317942
_cell_angle_beta	92.847427
_cell_angle_gamma	87.151577
loop_
_atom_site_label
_atom_site_type_symbol
_atom_site_fract_x
_atom_site_fract_y
_atom_site_fract_z
O1	O	0.098956	1.207295	-0.072071
O2	O	0.598956	1.707295	0.427929
O3	O	0.111152	0.945698	-0.072086
O4	O	0.611152	1.445698	0.427914
O5	O	-0.009090	1.075447	-0.072072
O6	O	0.490910	1.575447	0.427928
O7	O	0.219197	1.077545	-0.072086
O8	O	0.719197	1.577545	0.427914
O9	O	-0.002242	1.068026	0.072189
O10	O	0.497758	1.568026	0.572189
O11	O	0.117999	0.938276	0.072175
O12	O	0.617999	1.438276	0.572175
O13	O	0.105804	1.199873	0.072190
O14	O	0.605804	1.699873	0.572190
Cu15	Cu	0.112527	1.068397	0.085355
Cu16	Cu	0.612527	1.568397	0.585355
Cu17	Cu	0.104429	1.077174	-0.085251
Cu18	Cu	0.604429	1.577174	0.414749
O19	O	0.226045	1.070124	0.072176
O20	O	0.726045	1.570124	0.572176
C21	C	-0.034881	1.069038	0.000058
C22	C	0.465119	1.569038	0.500058
C23	C	-0.121934	1.060988	0.000058
C24	C	0.378066	1.560988	0.500058
C25	C	0.114023	0.908359	0.000042
C26	C	0.614023	1.408359	0.500042
C27	C	0.112366	0.808159	0.000037
C28	C	0.612366	1.308159	0.500037
C29	C	-0.172090	1.138663	0.000063
C30	C	0.327910	1.638663	0.500063
C31	C	-0.253885	1.131094	0.000054
C32	C	0.246115	1.631094	0.500054
C33	C	-0.285523	1.045849	0.000047
C34	C	0.214477	1.545849	0.500047
C35	C	-0.235361	0.968168	0.000039
C36	C	0.264639	1.468168	0.500039
C37	C	-0.153568	0.975738	0.000041
C38	C	0.346432	1.475738	0.500041
C39	C	-0.529155	1.014473	0.000033
C40	C	-0.029155	1.514473	0.500033
C41	C	-0.610955	1.006908	0.000033
C42	C	-0.110955	1.506908	0.500033
C43	C	-0.629474	1.169835	0.000047
C44	C	-0.129474	1.669835	0.500047
C45	C	-0.547678	1.177398	0.000055
C46	C	-0.047678	1.677398	0.500055
C47	C	-0.497523	1.099717	0.000042
C48	C	0.002477	1.599717	0.500042
N49	N	-0.369130	1.038110	0.000040
N50	N	0.130870	1.538110	0.500040
N51	N	-0.413918	1.107458	0.000042
N52	N	0.086082	1.607458	0.500042
C53	C	0.033941	0.390086	0.000061
C54	C	0.533941	0.890086	0.500061
C55	C	0.176791	0.378892	0.000052
C56	C	0.676791	0.878892	0.500052
C57	C	0.178348	0.473036	0.000049
C58	C	0.678348	0.973036	0.500049
C59	C	0.107700	0.525709	0.000051
C60	C	0.607700	1.025709	0.500051
C61	C	0.035496	0.484239	0.000055
C62	C	0.535496	0.984239	0.500055
C63	C	0.250550	0.514514	0.000035
C64	C	0.750550	1.014514	0.500035
C65	C	0.252110	0.608663	0.000031
C66	C	0.752110	1.108663	0.500031
C67	C	0.181462	0.661338	0.000039
C68	C	0.681462	1.161338	0.500039
C69	C	0.109255	0.619862	0.000045
C70	C	0.609255	1.119862	0.500045
C71	C	0.038607	0.672536	0.000047
C72	C	0.538607	1.172536	0.500047
C73	C	-0.033600	0.631061	0.000059
C74	C	0.466400	1.131061	0.500059
C75	C	-0.035152	0.536914	0.000064
C76	C	0.464848	1.036914	0.500064
C77	C	0.183014	0.755485	0.000035
C78	C	0.683014	1.255485	0.500035
C79	C	0.040162	0.766688	0.000042
C80	C	0.540162	1.266688	0.500042
C81	C	0.251837	1.076533	0.000043
C82	C	0.751837	1.576533	0.500043
C83	C	0.338889	1.084583	0.000038
C84	C	0.838889	1.584583	0.500038
C85	C	0.102933	1.237212	0.000059
C86	C	0.602933	1.737212	0.500059
C87	C	0.104589	1.337413	0.000059
C88	C	0.604589	1.837413	0.500059
N89	N	0.118222	1.062230	0.205349
N90	N	0.618222	1.562230	0.705349
N91	N	0.098727	1.083347	-0.205246
N92	N	0.598727	1.583347	0.294754
C93	C	0.067158	1.117374	0.250750
C94	C	0.567158	1.617374	0.750750
C95	C	0.071473	1.112719	0.341557
C96	C	0.571473	1.612719	0.841557
C97	C	0.126855	1.052925	0.386963
C98	C	0.626855	1.552925	0.886963
C99	C	0.177921	0.997774	0.341556
C100	C	0.677921	1.497774	0.841556
C101	C	0.173602	1.002425	0.250750
C102	C	0.673602	1.502425	0.750750
C103	C	0.145475	1.032848	0.658542
C104	C	0.645475	1.532848	1.158542
C105	C	0.149791	1.028203	0.749354
C106	C	0.649791	1.528203	1.249354
C107	C	0.043341	1.143148	0.749349
C108	C	0.543341	1.643148	1.249349
C109	C	0.039031	1.147797	0.658541
C110	C	0.539031	1.647797	1.158541
C111	C	0.090094	1.092644	0.613143
C112	C	0.590094	1.592644	1.113143
N113	N	0.131268	1.048167	0.479782
N114	N	0.631268	1.548167	0.979782
N115	N	0.085677	1.097397	0.520324
N116	N	0.585677	1.597397	1.020324
H117	H	-0.146337	1.208079	0.000075
H118	H	0.353663	1.708079	0.500075
Br119	Br	-0.278297	0.852477	0.000013
Br120	Br	0.221703	1.352477	0.500013
Br121	Br	0.242901	0.927577	0.189136
Br122	Br	0.742901	1.427577	0.689136
Br123	Br	-0.085498	0.870318	0.000027
Br124	Br	0.414502	1.370318	0.500027
H125	H	0.310906	0.642423	0.000021
H126	H	0.810906	1.142423	0.500021
H127	H	-0.017368	0.809569	0.000047
H128	H	0.482632	1.309569	0.500047
Br129	Br	0.272664	0.307408	0.000033
Br130	Br	0.772664	0.807408	0.500033
Br131	Br	-0.036128	1.228951	0.596918
Br132	Br	0.463872	1.728951	1.096918
Br133	Br	0.002168	1.187555	0.403175
Br134	Br	0.502168	1.687555	0.903175
Br135	Br	-0.025957	1.217993	0.810964
Br136	Br	0.474043	1.717993	1.310964
H137	H	0.308067	0.471621	0.000025
H138	H	0.808067	0.971621	0.500025
Br139	Br	-0.129475	0.702558	0.000052
Br140	Br	0.370525	1.202558	0.500052
Br141	Br	0.224963	0.947050	0.810970
Br142	Br	0.724963	1.447050	1.310970
H143	H	-0.093939	0.503136	0.000094
H144	H	0.406061	1.003136	0.500094
H145	H	-0.294719	1.194346	0.000061
H146	H	0.205281	1.694346	0.500061
H147	H	0.241804	0.789250	0.000027
H148	H	0.741804	1.289250	0.500027
Br149	Br	0.214774	0.958001	0.596934
Br150	Br	0.714774	1.458001	1.096934
Br151	Br	0.253079	0.916615	0.403174
Br152	Br	0.753079	1.416615	0.903174
H153	H	-0.521925	1.246814	0.000061
H154	H	-0.021925	1.746814	0.500061
H155	H	-0.670318	1.233078	0.000056
H156	H	-0.170318	1.733078	0.500056
H157	H	0.022063	1.166070	0.213786
H158	H	0.522063	1.666070	0.713786
Br159	Br	-0.653891	0.891210	0.000031
Br160	Br	-0.153891	1.391210	0.500031
Br161	Br	-0.064050	0.333803	0.000085
Br162	Br	0.435950	0.833803	0.500085
Br163	Br	-0.461099	0.909048	0.000010
Br164	Br	0.038901	1.409048	0.500010
