data_functionalizedCrystal
_audit_creation_method	'MofGen! by Chris Wilmer'
_symmetry_space_group_name_H-M	'P1'
_symmetry_Int_Tables_number	1
_symmetry_cell_setting	triclinic
loop_
_symmetry_equiv_pos_as_xyz
  x,y,z
_cell_length_a	17.038272
_cell_length_b	19.188930
_cell_length_c	15.500227
_cell_angle_alpha	92.813384
_cell_angle_beta	86.956295
_cell_angle_gamma	87.128169
loop_
_atom_site_label
_atom_site_type_symbol
_atom_site_fract_x
_atom_site_fract_y
_atom_site_fract_z
O1	O	1.040536	0.148564	-0.071852
O2	O	1.373869	0.481898	0.261481
O3	O	1.707202	0.815231	0.594814
O4	O	0.812914	0.146156	-0.071877
O5	O	1.146247	0.479490	0.261456
O6	O	1.479580	0.812823	0.594789
O7	O	0.933292	0.046114	-0.071847
O8	O	1.266626	0.379447	0.261486
O9	O	1.599959	0.712780	0.594819
O10	O	0.920157	0.248607	-0.071882
O11	O	1.253490	0.581941	0.261451
O12	O	1.586823	0.915274	0.594784
O13	O	0.925988	0.052159	0.072040
O14	O	1.259321	0.385492	0.405373
O15	O	1.592654	0.718826	0.738706
O16	O	0.805609	0.152202	0.072009
O17	O	1.138942	0.485535	0.405343
O18	O	1.472275	0.818868	0.738676
O19	O	1.033231	0.154610	0.072035
O20	O	1.366564	0.487943	0.405368
O21	O	1.699897	0.821276	0.738701
Cu22	Cu	0.918753	0.153958	0.085160
Cu23	Cu	1.252086	0.487291	0.418493
Cu24	Cu	1.585419	0.820624	0.751827
Cu25	Cu	0.927392	0.146808	-0.085003
Cu26	Cu	1.260725	0.480142	0.248330
Cu27	Cu	1.594058	0.813475	0.581664
O28	O	0.912852	0.254653	0.072004
O29	O	1.246185	0.587986	0.405338
O30	O	1.579519	0.921319	0.738671
C31	C	0.780140	0.146990	0.000063
C32	C	1.113473	0.480323	0.333396
C33	C	1.446807	0.813656	0.666730
C34	C	0.693368	0.140458	0.000054
C35	C	1.026701	0.473791	0.333388
C36	C	1.360035	0.807125	0.666721
C37	C	0.643067	0.200424	0.000044
C38	C	0.976400	0.533757	0.333378
C39	C	1.309733	0.867091	0.666711
C40	C	0.561535	0.194283	0.000057
C41	C	0.894868	0.527617	0.333391
C42	C	1.228201	0.860950	0.666724
C43	C	0.530306	0.128176	0.000074
C44	C	0.863639	0.461509	0.333407
C45	C	1.196972	0.794842	0.666741
C46	C	0.580613	0.068205	0.000086
C47	C	0.913947	0.401539	0.333420
C48	C	1.247280	0.734872	0.666753
C49	C	0.662143	0.074347	0.000080
C50	C	0.995477	0.407680	0.333413
C51	C	1.328810	0.741014	0.666746
C52	C	0.284614	0.106479	0.000101
C53	C	0.617948	0.439812	0.333434
C54	C	0.951281	0.773146	0.666768
C55	C	0.203078	0.100342	0.000105
C56	C	0.536411	0.433675	0.333438
C57	C	0.869745	0.767009	0.666772
C58	C	0.184005	0.226421	0.000078
C59	C	0.517338	0.559754	0.333411
C60	C	0.850672	0.893087	0.666744
C61	C	0.265538	0.232556	0.000066
C62	C	0.598871	0.565889	0.333399
C63	C	0.932204	0.899223	0.666732
C64	C	0.315838	0.172586	0.000083
C65	C	0.649171	0.505919	0.333416
C66	C	0.982504	0.839253	0.666749
C67	C	0.446967	0.121897	0.000085
C68	C	0.780301	0.455231	0.333418
C69	C	1.113634	0.788564	0.666751
C70	C	0.399174	0.178865	0.000078
C71	C	0.732508	0.512198	0.333412
C72	C	1.065841	0.845532	0.666745
C73	C	0.929214	0.023099	0.000099
C74	C	1.262548	0.356432	0.333432
C75	C	1.595881	0.689766	0.666765
C76	C	0.927937	-0.054485	0.000106
C77	C	1.261270	0.278849	0.333439
C78	C	1.594604	0.612182	0.666773
C79	C	0.998572	-0.095020	0.000118
C80	C	1.331905	0.238314	0.333451
C81	C	1.665238	0.571647	0.666785
C82	C	0.997373	-0.167919	0.000104
C83	C	1.330706	0.165415	0.333437
C84	C	1.664039	0.498748	0.666771
C85	C	0.925534	-0.200279	0.000095
C86	C	1.258867	0.133055	0.333429
C87	C	1.592201	0.466388	0.666762
C88	C	0.854890	-0.159734	0.000079
C89	C	1.188224	0.173599	0.333412
C90	C	1.521557	0.506932	0.666745
C91	C	0.856092	-0.086837	0.000084
C92	C	1.189425	0.246496	0.333417
C93	C	1.522758	0.579829	0.666750
N94	N	0.868136	-0.309638	0.049057
N95	N	1.201469	0.023695	0.382390
N96	N	1.534802	0.357029	0.715723
N97	N	0.866999	-0.378887	0.049053
N98	N	1.200332	-0.045554	0.382387
N99	N	1.533666	0.287779	0.715720
C100	C	0.921909	-0.419913	0.000077
C101	C	1.255243	-0.086580	0.333411
C102	C	1.588576	0.246753	0.666744
N103	N	0.978011	-0.389074	-0.048884
N104	N	1.311344	-0.055741	0.284449
N105	N	1.644677	0.277593	0.617782
N106	N	0.979150	-0.319818	-0.048877
N107	N	1.312483	0.013515	0.284456
N108	N	1.645816	0.346848	0.617789
C109	C	0.924223	-0.279323	0.000089
C110	C	1.257556	0.054010	0.333422
C111	C	1.590890	0.387344	0.666756
C112	C	0.991249	-0.539494	0.000073
C113	C	1.324582	-0.206161	0.333406
C114	C	1.657915	0.127172	0.666740
C115	C	0.990047	-0.612395	0.000054
C116	C	1.323380	-0.279061	0.333387
C117	C	1.656714	0.054272	0.666720
C118	C	0.847562	-0.604208	0.000037
C119	C	1.180896	-0.270875	0.333370
C120	C	1.514229	0.062458	0.666704
C121	C	0.848767	-0.531310	0.000048
C122	C	1.182100	-0.197977	0.333381
C123	C	1.515433	0.135357	0.666714
C124	C	0.920612	-0.498957	0.000070
C125	C	1.253945	-0.165624	0.333403
C126	C	1.587278	0.167710	0.666736
C127	C	1.066004	0.153776	0.000092
C128	C	1.399338	0.487110	0.333426
C129	C	1.732671	0.820443	0.666759
C130	C	1.152777	0.160308	0.000095
C131	C	1.486110	0.493641	0.333429
C132	C	1.819444	0.826975	0.666762
C133	C	0.916930	0.277667	0.000057
C134	C	1.250263	0.611000	0.333390
C135	C	1.583597	0.944334	0.666723
C136	C	0.918208	0.355250	0.000044
C137	C	1.251541	0.688584	0.333377
C138	C	1.584874	1.021917	0.666710
N139	N	0.912682	0.158986	0.204843
N140	N	1.246016	0.492319	0.538177
N141	N	1.579349	0.825653	0.871510
N142	N	0.933468	0.141775	-0.204686
N143	N	1.266801	0.475108	0.128647
N144	N	1.600135	0.808442	0.461980
C145	C	0.963709	0.116612	0.250133
C146	C	1.297042	0.449946	0.583466
C147	C	1.630375	0.783279	0.916800
C148	C	0.959125	0.120422	0.340705
C149	C	1.292458	0.453755	0.674038
C150	C	1.625792	0.787089	1.007371
C151	C	0.903518	0.166610	0.385985
C152	C	1.236851	0.499943	0.719318
C153	C	1.570185	0.833276	1.052652
C154	C	0.852486	0.208985	0.340689
C155	C	1.185820	0.542318	0.674023
C156	C	1.519153	0.875652	1.007356
C157	C	0.857067	0.205171	0.250119
C158	C	1.190400	0.538505	0.583453
C159	C	1.523734	0.871838	0.916786
C160	C	0.887017	0.180337	0.659448
C161	C	1.220350	0.513670	0.992781
C162	C	1.553684	0.847003	1.326115
C163	C	0.882442	0.184149	0.750024
C164	C	1.215775	0.517482	1.083358
C165	C	1.549109	0.850815	1.416691
C166	C	0.989080	0.095584	0.750033
C167	C	1.322413	0.428918	1.083367
C168	C	1.655747	0.762251	1.416700
C169	C	0.993659	0.091778	0.659461
C170	C	1.326992	0.425111	0.992795
C171	C	1.660325	0.758444	1.326128
C172	C	0.942624	0.134150	0.614174
C173	C	1.275958	0.467484	0.947507
C174	C	1.609291	0.800817	1.280840
C175	C	0.898833	0.170506	0.478564
C176	C	1.232166	0.503840	0.811897
C177	C	1.565500	0.837173	1.145231
C178	C	0.947306	0.130250	0.521596
C179	C	1.280640	0.463583	0.854930
C180	C	1.613973	0.796916	1.188263
H181	H	0.703099	0.025516	0.000087
H182	H	1.036432	0.358849	0.333420
H183	H	1.369765	0.692183	0.666754
H184	H	0.845464	0.214840	0.622582
H185	H	1.178797	0.548173	0.955915
H186	H	1.512131	0.881507	1.289248
H187	H	0.143042	0.275245	0.000066
H188	H	0.476376	0.608578	0.333399
H189	H	0.809709	0.941911	0.666732
Br190	Br	0.823367	0.233189	0.540020
Br191	Br	1.156700	0.566523	0.873353
Br192	Br	1.490034	0.899856	1.206686
H193	H	0.325559	0.057647	0.000115
H194	H	0.658893	0.390980	0.333449
H195	H	0.992226	0.724313	0.666782
Br196	Br	1.069128	0.029097	0.598008
Br197	Br	1.402462	0.362430	0.931341
Br198	Br	1.735795	0.695764	1.264674
Br199	Br	0.493271	0.275670	0.000041
Br200	Br	0.826604	0.609003	0.333375
Br201	Br	1.159938	0.942337	0.666708
H202	H	1.030629	0.061085	0.786915
H203	H	1.363962	0.394419	1.120248
H204	H	1.697296	0.727752	1.453582
H205	H	0.798571	-0.053833	0.000074
H206	H	1.131904	0.279500	0.333408
H207	H	1.465237	0.612833	0.666741
Br208	Br	1.085918	-0.667409	0.000061
Br209	Br	1.419251	-0.334076	0.333394
Br210	Br	1.752584	-0.000743	0.666727
Br211	Br	0.685441	0.290145	0.000013
Br212	Br	1.018774	0.623479	0.333346
Br213	Br	1.352107	0.956812	0.666680
Br214	Br	0.404578	0.032182	0.000106
Br215	Br	0.737912	0.365515	0.333439
Br216	Br	1.071245	0.698849	0.666773
Br217	Br	1.088750	-0.495582	0.000112
Br218	Br	1.422083	-0.162249	0.333445
Br219	Br	1.755416	0.171085	0.666778
Br220	Br	1.028373	0.062911	0.402172
Br221	Br	1.361706	0.396245	0.735505
Br222	Br	1.695040	0.729578	1.068838
H223	H	0.290958	0.286387	0.000042
H224	H	0.624292	0.619721	0.333376
H225	H	0.957625	0.953054	0.666709
H226	H	0.424604	0.232690	0.000070
H227	H	0.757938	0.566023	0.333403
H228	H	1.091271	0.899356	0.666736
H229	H	0.837158	0.221763	0.786888
H230	H	1.170491	0.555096	1.120221
H231	H	1.503824	0.888430	1.453554
Br232	Br	0.160696	0.010619	0.000146
Br233	Br	0.494029	0.343953	0.333479
Br234	Br	0.827362	0.677286	0.666813
Br235	Br	0.777012	0.271665	0.402138
Br236	Br	1.110346	0.604998	0.735471
Br237	Br	1.443679	0.938331	1.068805
Br238	Br	0.752900	-0.476294	0.000032
Br239	Br	1.086233	-0.142961	0.333366
Br240	Br	1.419566	0.190373	0.666699
Br241	Br	1.093241	-0.222942	0.000116
Br242	Br	1.426574	0.110391	0.333450
Br243	Br	1.759907	0.443724	0.666783
Br244	Br	0.750065	-0.648118	0.000017
Br245	Br	1.083399	-0.314784	0.333350
Br246	Br	1.416732	0.018549	0.666683
Br247	Br	0.787809	0.262677	0.188655
Br248	Br	1.121142	0.596010	0.521988
Br249	Br	1.454475	0.929343	0.855322
Br250	Br	1.039185	0.053931	0.188690
Br251	Br	1.372518	0.387264	0.522023
Br252	Br	1.705852	0.720598	0.855357
Br253	Br	0.538232	-0.021513	0.000117
Br254	Br	0.871565	0.311820	0.333451
Br255	Br	1.204899	0.645154	0.666784
Br256	Br	0.757395	-0.203650	0.000056
Br257	Br	1.090728	0.129683	0.333389
Br258	Br	1.424061	0.463017	0.666722
H259	H	1.057074	-0.068683	0.000133
H260	H	1.390407	0.264650	0.333466
H261	H	1.723740	0.597984	0.666800
H262	H	0.992579	0.092641	0.484726
H263	H	1.325912	0.425974	0.818060
H264	H	1.659245	0.759307	1.151393
