data_functionalizedCrystal
_audit_creation_method	'MofGen! by Chris Wilmer'
_symmetry_space_group_name_H-M	'P1'
_symmetry_Int_Tables_number	1
_symmetry_cell_setting	triclinic
loop_
_symmetry_equiv_pos_as_xyz
  x,y,z
_cell_length_a	14.971482
_cell_length_b	14.971486
_cell_length_c	14.048226
_cell_angle_alpha	89.993360
_cell_angle_beta	89.994098
_cell_angle_gamma	83.613368
loop_
_atom_site_label
_atom_site_type_symbol
_atom_site_fract_x
_atom_site_fract_y
_atom_site_fract_z
O1	O	1.186949	0.116549	-0.079149
O2	O	0.926548	0.130511	-0.079153
O3	O	1.063728	-0.006670	-0.079144
O4	O	1.049769	0.253730	-0.079158
O5	O	1.063712	-0.006678	0.079177
O6	O	0.926532	0.130503	0.079168
O7	O	1.186933	0.116541	0.079173
Zn8	Zn	1.056730	0.123521	0.104307
Zn9	Zn	1.056751	0.123531	-0.104288
O10	O	1.049753	0.253722	0.079163
C11	C	0.893215	0.129883	0.000007
C12	C	0.793918	0.128014	0.000005
C13	C	0.747265	0.127129	0.086307
C14	C	0.653966	0.125358	0.086308
C15	C	0.607322	0.124479	0.000006
C16	C	0.653983	0.125361	-0.086302
C17	C	0.747280	0.127125	-0.086303
C18	C	0.459521	0.121686	-0.086296
C19	C	0.366216	0.119923	-0.086296
C20	C	0.366207	0.119918	0.086315
C21	C	0.459504	0.121683	0.086315
C22	C	0.506158	0.122567	0.000005
C23	C	1.063096	-0.039999	0.000016
C24	C	1.061225	-0.139296	0.000015
C25	C	1.141814	-0.196522	0.000017
C26	C	1.140051	-0.289822	0.000008
C27	C	1.057698	-0.325893	0.000003
C28	C	0.977102	-0.268659	-0.000002
C29	C	0.978866	-0.175362	0.000001
C30	C	0.973431	-0.463122	-0.000006
C31	C	0.971667	-0.556426	-0.000007
C32	C	1.134616	-0.577582	0.000001
C33	C	1.136380	-0.484284	0.000004
C34	C	1.055784	-0.427057	0.000001
C35	C	1.220266	0.117168	0.000010
C36	C	1.319563	0.119038	0.000006
C37	C	1.050385	0.287051	0.000001
C38	C	1.052256	0.386348	-0.000005
N39	N	1.056721	0.123513	0.246668
N40	N	1.056767	0.123532	-0.246649
C41	C	1.117484	0.062794	0.296490
C42	C	1.117490	0.062793	0.396148
C43	C	1.056737	0.123517	0.445981
C44	C	0.995968	0.184238	0.396152
C45	C	0.995959	0.184234	0.296496
C46	C	0.995994	0.184245	0.603866
C47	C	0.996005	0.184251	0.703529
C48	C	1.117525	0.062804	0.703518
C49	C	1.117515	0.062800	0.603862
C50	C	1.056748	0.123523	0.554040
H51	H	0.497503	0.122406	-0.156578
H52	H	0.946532	0.233697	0.744099
O53	O	0.608779	0.124546	0.170227
C54	C	0.618621	0.124685	0.341433
C55	C	0.669902	0.125629	0.246460
H56	H	0.668018	0.125541	0.403092
H57	H	0.566839	0.186422	0.345805
H58	H	0.583040	0.061324	0.345707
H59	H	0.705537	0.188949	0.242122
H60	H	0.721633	0.063850	0.242127
H61	H	0.785234	0.127852	0.156584
O62	O	1.212992	-0.633040	0.000042
C63	C	1.374801	-0.644178	0.000002
C64	C	1.286113	-0.581266	-0.000029
H65	H	1.433942	-0.602344	-0.000076
H66	H	1.378100	-0.688380	0.066272
H67	H	1.378011	-0.688395	-0.066243
H68	H	1.282843	-0.536993	0.066171
H69	H	1.282850	-0.537125	-0.066343
H70	H	1.205675	-0.336413	0.000012
O71	O	0.792661	0.127831	-0.170113
C72	C	0.908096	0.052423	-0.270261
C73	C	0.856760	0.051507	-0.175319
H74	H	0.959945	-0.009267	-0.274493
H75	H	0.858780	0.051437	-0.331981
H76	H	0.943610	0.115825	-0.274568
H77	H	0.821244	-0.011884	-0.170919
H78	H	0.906119	0.052542	-0.113645
O79	O	1.176411	0.003665	0.248150
C80	C	1.228671	-0.151800	0.217792
C81	C	1.161873	-0.084920	0.272561
H82	H	1.216953	-0.223436	0.237523
H83	H	1.218250	-0.141480	0.137989
H84	H	1.300314	-0.139987	0.237368
H85	H	1.090203	-0.096692	0.253065
H86	H	1.172372	-0.095257	0.352351
H87	H	1.166966	0.013351	0.436712
H88	H	0.904607	-0.585792	0.000005
H89	H	0.907801	-0.416529	-0.000011
H90	H	1.167004	0.013362	0.744089
H91	H	0.910049	-0.298036	-0.000012
O92	O	1.216322	-0.449139	-0.000117
C93	C	1.312908	-0.356114	-0.082165
C94	C	1.222333	-0.395838	-0.082131
H95	H	1.317805	-0.313027	-0.148475
H96	H	1.317813	-0.312912	-0.015952
H97	H	1.370192	-0.413056	-0.082119
H98	H	1.164997	-0.338954	-0.082210
H99	H	1.217507	-0.439064	-0.148338
O100	O	1.176436	0.003845	0.555300
C101	C	1.298205	-0.015331	0.442355
C102	C	1.231665	0.051597	0.497381
H103	H	1.342862	0.023250	0.395500
H104	H	1.341718	-0.058858	0.494910
H105	H	1.259245	-0.059942	0.395869
H106	H	1.270552	0.096267	0.543869
H107	H	1.188152	0.095062	0.444775
H108	H	0.946507	0.233689	0.563304
H109	H	0.328217	0.119199	0.156591
H110	H	0.946498	0.233677	0.436733
H111	H	0.497478	0.122404	0.156589
O112	O	1.221836	-0.161529	-0.000148
C113	C	1.361675	-0.151106	-0.082145
C114	C	1.271072	-0.190775	-0.082081
H115	H	1.401516	-0.174750	-0.148370
H116	H	1.349148	-0.074589	-0.082204
H117	H	1.401464	-0.174660	-0.015859
H118	H	1.231237	-0.167289	-0.148356
H119	H	1.283662	-0.267287	-0.081973
O120	O	0.936903	0.243305	0.248243
C121	C	0.816337	0.363728	0.258766
C122	C	0.883188	0.296894	0.313529
H123	H	0.772878	0.407059	0.311525
H124	H	0.854945	0.408536	0.212117
H125	H	0.771653	0.325014	0.212102
H126	H	0.927889	0.335534	0.360244
H127	H	0.844524	0.252086	0.360117
O128	O	0.321048	0.119035	-0.170213
C129	C	0.330889	0.119288	-0.341420
C130	C	0.382157	0.120268	-0.246453
H131	H	0.380271	0.120303	-0.403085
H132	H	0.295351	0.055905	-0.345796
H133	H	0.279070	0.181001	-0.345680
H134	H	0.434019	0.058598	-0.242130
H135	H	0.417633	0.183691	-0.242118
O136	O	0.900499	-0.119897	0.000041
C137	C	0.738690	-0.108753	-0.000032
C138	C	0.827376	-0.171668	-0.000048
H139	H	0.679547	-0.150585	-0.000124
H140	H	0.735368	-0.064566	0.066239
H141	H	0.735503	-0.064522	-0.066275
H142	H	0.830621	-0.215956	0.066151
H143	H	0.830660	-0.215795	-0.066363
H144	H	0.615999	0.124638	-0.156571
