data_functionalizedCrystal
_audit_creation_method	'MofGen! by Chris Wilmer'
_symmetry_space_group_name_H-M	'P1'
_symmetry_Int_Tables_number	1
_symmetry_cell_setting	triclinic
loop_
_symmetry_equiv_pos_as_xyz
  x,y,z
_cell_length_a	15.944551
_cell_length_b	8.140239
_cell_length_c	9.065218
_cell_angle_alpha	89.998314
_cell_angle_beta	95.742688
_cell_angle_gamma	89.998231
loop_
_atom_site_label
_atom_site_type_symbol
_atom_site_fract_x
_atom_site_fract_y
_atom_site_fract_z
O1	O	1.115964	0.136435	-0.190270
O2	O	0.871592	0.136475	-0.213728
O3	O	0.998829	0.136451	0.012762
O4	O	0.988727	0.136459	-0.416759
O5	O	0.998822	-0.136776	0.012764
O6	O	0.871585	-0.136752	-0.213725
O7	O	1.115956	-0.136792	-0.190267
Zn8	Zn	0.993769	-0.180152	-0.201996
Zn9	Zn	0.993779	0.179836	-0.201999
O10	O	0.988719	-0.136768	-0.416757
C11	C	0.840287	-0.000133	-0.212753
C12	C	0.747019	-0.000118	-0.209833
N13	N	0.993769	-0.425835	-0.201993
C14	C	0.997854	-0.000160	0.067727
C15	C	0.994951	-0.000151	0.231502
C16	C	0.531045	-0.000152	-0.062466
C17	C	0.470547	0.134564	-0.130900
C18	C	0.576253	-0.000137	-0.204551
C19	C	0.470563	-0.134816	-0.130931
C20	C	0.411301	-0.000163	-0.199439
C21	C	0.516983	0.134691	-0.273024
C22	C	0.517005	-0.134811	-0.273035
C23	C	0.456525	-0.000061	-0.341573
C24	C	0.671277	-0.000121	-0.207493
C25	C	0.316278	-0.000168	-0.196509
C26	C	1.147261	-0.000180	-0.191242
C27	C	1.240530	-0.000185	-0.194162
N28	N	0.993786	0.425519	-0.201991
C29	C	0.989694	-0.000153	-0.471722
C30	C	0.992597	-0.000151	-0.635497
H31	H	0.449985	0.248456	-0.070804
H32	H	0.537588	-0.248707	-0.333081
O33	O	0.413791	0.000008	-0.497933
H34	H	0.432396	0.111935	-0.556546
O35	O	0.443353	-0.285691	-0.051313
H36	H	0.473479	-0.285399	0.064496
H37	H	0.563485	0.000012	0.055454
O38	O	0.544057	0.285762	-0.352517
H39	H	0.613579	0.284630	-0.353985
