data_functionalizedCrystal
_audit_creation_method	'MofGen! by Chris Wilmer'
_symmetry_space_group_name_H-M	'P1'
_symmetry_Int_Tables_number	1
_symmetry_cell_setting	triclinic
loop_
_symmetry_equiv_pos_as_xyz
  x,y,z
_cell_length_a	12.827893
_cell_length_b	12.645330
_cell_length_c	12.827885
_cell_angle_alpha	90.028079
_cell_angle_beta	89.980918
_cell_angle_gamma	89.973653
loop_
_atom_site_label
_atom_site_type_symbol
_atom_site_fract_x
_atom_site_fract_y
_atom_site_fract_z
Zn1	Zn	1.597591	0.421983	-0.590856
Zn2	Zn	1.597452	0.599284	-0.416121
Zn3	Zn	1.422833	0.422036	-0.416130
Zn4	Zn	1.422785	0.599206	-0.590822
O5	O	1.510165	0.510627	-0.503482
O6	O	1.743809	0.445514	-0.567687
O7	O	1.574251	0.575826	-0.269886
O8	O	1.446093	0.273681	-0.439326
O9	O	1.743707	0.575776	-0.439311
O10	O	1.574487	0.273643	-0.567696
O11	O	1.445958	0.445603	-0.269893
O12	O	1.276590	0.445527	-0.439293
O13	O	1.446012	0.575642	-0.737062
O14	O	1.276555	0.575693	-0.567638
O15	O	1.574441	0.445438	-0.737087
O16	O	1.574204	0.747621	-0.439278
O17	O	1.445877	0.747564	-0.567630
C18	C	1.238655	0.510608	-0.503463
C19	C	1.122502	0.510625	-0.503480
C20	C	1.070707	0.446129	-0.440083
C21	C	0.950657	0.446145	-0.440099
C22	C	1.510049	0.786057	-0.503472
C23	C	1.510095	0.903887	-0.503502
C24	C	1.429672	1.071459	-0.584500
C25	C	1.429279	0.948900	-0.584238
C26	C	1.480276	0.948489	-0.393372
C27	C	1.479767	1.071088	-0.393866
C28	C	1.620772	1.070974	-0.531747
C29	C	1.620112	0.948367	-0.534154
C30	C	1.782735	0.510648	-0.503502
C31	C	1.898889	0.510656	-0.503510
C32	C	1.510236	0.510526	-0.776052
C33	C	1.510267	0.510482	-0.892206
C34	C	1.510274	1.234122	-0.503519
C35	C	1.510227	1.116292	-0.503545
C36	C	1.573825	0.446040	-0.944003
C37	C	1.573857	0.445994	-1.064053
C38	C	1.510155	0.510652	-0.231972
C39	C	1.510327	0.510397	-0.115820
H40	H	1.077969	0.565857	-0.557765
H41	H	1.455914	0.565575	-1.071282
H42	H	1.628211	0.390900	-0.899471
H43	H	1.628275	0.390826	-1.108597
H44	H	1.455870	0.565612	-0.936737
H45	H	1.642599	0.919211	-0.615204
H46	H	0.906115	0.390924	-0.385827
C47	C	1.800011	1.069360	-0.477880
C48	C	1.701797	1.110111	-0.452157
H49	H	1.850023	1.093522	-0.428737
H50	H	1.819098	1.092628	-0.545636
H51	H	1.797522	0.994292	-0.476693
H52	H	1.704285	1.185180	-0.453351
H53	H	1.682706	1.086849	-0.384382
C54	C	1.021814	0.525423	-0.643926
C55	C	0.959005	0.585204	-0.576789
H56	H	1.058936	0.571448	-0.689160
H57	H	0.979264	0.479340	-0.684016
H58	H	1.069850	0.484952	-0.604130
H59	H	0.910964	0.625670	-0.616585
H60	H	1.001558	0.631306	-0.536695
H61	H	1.448149	1.100865	-0.666430
C62	C	1.193529	0.431338	-0.299643
C63	C	1.130821	0.371571	-0.366793
H64	H	1.230644	0.385306	-0.254400
H65	H	1.150912	0.477431	-0.259562
H66	H	1.241572	0.471799	-0.339429
H67	H	1.082773	0.331116	-0.327007
H68	H	1.173441	0.325459	-0.406877
H69	H	1.447936	0.918740	-0.665898
H70	H	1.348231	1.102361	-0.566055
C71	C	1.249043	0.946687	-0.634604
C72	C	1.318660	0.909431	-0.559000
H73	H	1.180749	0.922327	-0.619013
H74	H	1.269473	0.921199	-0.701213
H75	H	1.249685	1.021806	-0.634845
H76	H	1.318024	0.834312	-0.558765
H77	H	1.298225	0.934914	-0.492374
C78	C	1.306393	1.022605	-0.342044
C79	C	1.370677	1.109831	-0.361624
H80	H	1.239043	1.046523	-0.322147
H81	H	1.335478	0.981414	-0.287403
H82	H	1.301050	0.980734	-0.403311
H83	H	1.376026	1.151699	-0.300353
H84	H	1.341585	1.151040	-0.416268
H85	H	1.535893	1.100749	-0.331491
H86	H	1.537096	0.919335	-0.331406
C87	C	1.586546	1.081630	-0.715442
C88	C	1.657485	1.112591	-0.638320
H89	H	1.609209	1.107318	-0.781238
H90	H	1.519721	1.109927	-0.699902
H91	H	1.582614	1.006643	-0.717500
H92	H	1.661412	1.187578	-0.636257
H93	H	1.724329	1.084298	-0.653864
C94	C	1.779682	0.850454	-0.517817
C95	C	1.705421	0.907007	-0.460352
H96	H	1.832342	0.824918	-0.472245
H97	H	1.810138	0.895603	-0.568527
H98	H	1.746927	0.792474	-0.551637
H99	H	1.738175	0.964992	-0.426538
H100	H	1.674962	0.861855	-0.409623
H101	H	1.400317	0.917880	-0.369048
