data_functionalizedCrystal
_audit_creation_method	'MofGen! by Chris Wilmer'
_symmetry_space_group_name_H-M	'P1'
_symmetry_Int_Tables_number	1
_symmetry_cell_setting	triclinic
loop_
_symmetry_equiv_pos_as_xyz
  x,y,z
_cell_length_a	16.974829
_cell_length_b	10.489746
_cell_length_c	15.455313
_cell_angle_alpha	92.692156
_cell_angle_beta	83.671566
_cell_angle_gamma	83.968539
loop_
_atom_site_label
_atom_site_type_symbol
_atom_site_fract_x
_atom_site_fract_y
_atom_site_fract_z
O1	O	1.057040	0.151282	-0.146330
O2	O	0.826180	0.173232	-0.130126
O3	O	0.946860	-0.023455	-0.138590
O4	O	0.936359	0.347969	-0.137866
O5	O	0.939959	-0.012254	0.006156
O6	O	0.819279	0.184433	0.014620
O7	O	1.050138	0.162483	-0.001583
Cu8	Cu	0.934078	0.174481	0.019735
Cu9	Cu	0.942240	0.161234	-0.151444
O10	O	0.929458	0.359170	0.006880
C11	C	0.793168	0.178205	-0.055678
C12	C	0.705083	0.176317	-0.049496
C13	C	0.208854	0.166391	-0.006225
C14	C	0.291619	0.168164	-0.012036
C15	C	0.336764	0.162935	-0.093844
C16	C	0.299140	0.155945	-0.169846
C17	C	0.216376	0.154181	-0.164034
C18	C	0.584695	0.167563	-0.119686
C19	C	0.667465	0.169324	-0.125492
C20	C	0.659938	0.181545	0.032318
C21	C	0.577173	0.179773	0.038123
C22	C	0.539556	0.172790	-0.037879
N23	N	0.421363	0.164743	-0.099786
N24	N	0.454957	0.170991	-0.031937
C25	C	0.942616	-0.065368	-0.066161
C26	C	0.940240	-0.206946	-0.065995
C27	C	0.862049	-0.358091	-0.060518
C28	C	0.904544	-0.287078	-0.134627
C29	C	0.897758	-0.276076	0.008080
C30	C	0.978546	-0.388196	-0.139888
C31	C	0.971746	-0.377194	0.002883
C32	C	1.014297	-0.306233	-0.071247
C33	C	1.083151	0.157511	-0.076033
C34	C	1.171235	0.159398	-0.082222
C35	C	0.933703	0.401084	-0.065550
C36	C	0.936079	0.542660	-0.065722
N37	N	0.928344	0.183797	0.140132
N38	N	0.947981	0.151908	-0.271843
C39	C	0.979631	0.100268	0.181930
C40	C	0.975302	0.107326	0.273041
C41	C	0.919688	0.197919	0.322353
C42	C	0.868395	0.281452	0.280550
C43	C	0.872721	0.274387	0.189441
C44	C	0.901014	0.228376	0.595245
C45	C	0.896693	0.235437	0.686360
C46	C	1.003599	0.061308	0.678845
C47	C	1.007924	0.054257	0.587733
C48	C	0.956628	0.137785	0.545938
N49	N	0.915263	0.205137	0.415484
N50	N	0.961050	0.130560	0.452810
H51	H	0.335903	0.151695	-0.236456
H52	H	0.851404	0.309214	0.726507
H53	H	1.045361	-0.006698	0.712883
O54	O	0.851156	0.309653	0.554789
C55	C	0.801134	0.391106	0.617855
H56	H	0.830588	0.397377	0.680506
H57	H	0.741506	0.350810	0.631721
C58	C	0.751076	0.518343	0.506431
C59	C	0.787255	0.526054	0.583379
H60	H	0.742511	0.601584	0.485165
H61	H	0.784774	0.463464	0.463942
H62	H	0.701390	0.484758	0.517997
H63	H	0.836944	0.559623	0.571809
H64	H	0.753565	0.580942	0.625865
O65	O	1.025214	0.026141	0.313502
C66	C	1.075221	-0.055343	0.250441
H67	H	1.079488	-0.008092	0.185404
H68	H	1.049397	-0.150695	0.242617
C69	C	1.153728	-0.137407	0.359858
C70	C	1.158973	-0.079367	0.279980
H71	H	1.205389	-0.152232	0.378080
H72	H	1.120035	-0.082514	0.402344
H73	H	1.132204	-0.216861	0.353328
H74	H	1.180486	0.000092	0.286514
H75	H	1.192671	-0.134247	0.237496
H76	H	1.024921	0.026503	0.141785
O77	O	1.019296	-0.446011	-0.214599
C78	C	1.050020	-0.352120	-0.267011
H79	H	1.055596	-0.262621	-0.224339
H80	H	1.008033	-0.326399	-0.317798
C81	C	1.125916	-0.515124	-0.365709
C82	C	1.132772	-0.405204	-0.313298
H83	H	1.176960	-0.547869	-0.394265
H84	H	1.105215	-0.578381	-0.330401
H85	H	1.090925	-0.493675	-0.408025
H86	H	1.167755	-0.426657	-0.270977
H87	H	1.153481	-0.341952	-0.348600
O88	O	1.061850	-0.034157	0.540074
C89	C	1.046972	-0.158391	0.563620
H90	H	0.982207	-0.156344	0.593020
H91	H	1.088068	-0.191851	0.613613
C92	C	1.142239	-0.254175	0.445979
C93	C	1.062692	-0.251663	0.482083
H94	H	1.151939	-0.311712	0.395686
H95	H	1.152266	-0.170477	0.430118
H96	H	1.176477	-0.282055	0.487649
H97	H	1.028456	-0.223768	0.440418
H98	H	1.052660	-0.335359	0.497936
O99	O	0.822867	0.355665	0.148973
C100	C	0.772840	0.437121	0.212033
H101	H	0.802290	0.443398	0.274687
H102	H	0.713213	0.396822	0.225896
C103	C	0.722788	0.564346	0.100600
C104	C	0.758962	0.572065	0.177551
H105	H	0.714224	0.647584	0.079330
H106	H	0.756490	0.509465	0.058115
H107	H	0.673103	0.530759	0.112164
H108	H	0.808651	0.605636	0.165984
H109	H	0.725268	0.626954	0.220034
O110	O	1.091103	-0.278491	-0.076645
C111	C	1.092476	-0.144294	-0.076051
H112	H	1.032722	-0.094442	-0.044137
H113	H	1.103676	-0.114231	-0.145881
C114	C	1.232952	-0.166888	-0.063380
C115	C	1.159564	-0.105658	-0.024176
H116	H	1.274337	-0.143054	-0.031385
H117	H	1.232028	-0.257299	-0.063784
H118	H	1.242274	-0.141830	-0.121571
H119	H	1.150238	-0.130730	0.034009
H120	H	1.160487	-0.015250	-0.023761
H121	H	1.000093	-0.416708	0.061030
H122	H	0.690575	0.187233	0.094195
O123	O	0.328139	0.174726	0.061813
C124	C	0.313958	0.067569	0.110661
H125	H	0.299247	-0.013693	0.065681
H126	H	0.261681	0.095321	0.163360
C127	C	0.407025	0.122606	0.208835
C128	C	0.388964	0.022795	0.153589
H129	H	0.453290	0.094990	0.235320
H130	H	0.416578	0.194803	0.175928
H131	H	0.363455	0.145723	0.252744
H132	H	0.432529	-0.000309	0.109676
H133	H	0.379420	-0.049407	0.186491
O134	O	0.857038	-0.218080	0.082750
C135	C	0.825599	-0.311708	0.134868
H136	H	0.861774	-0.408891	0.116531
H137	H	0.760798	-0.317895	0.123709
C138	C	0.785496	-0.154984	0.254169
C139	C	0.829931	-0.274344	0.231651
H140	H	0.788164	-0.131935	0.313870
H141	H	0.806674	-0.091904	0.219055
H142	H	0.731499	-0.160155	0.244863
H143	H	0.883928	-0.269167	0.240947
H144	H	0.808762	-0.337423	0.266769
H145	H	0.823109	0.355211	0.320706
H146	H	0.797681	-0.381406	-0.056071
H147	H	0.876170	-0.247587	-0.192770
H148	H	0.172102	0.170654	0.060392
H149	H	0.540423	0.184003	0.104739
H150	H	0.704219	0.165076	-0.192113
H151	H	0.554077	0.161873	-0.181573
H152	H	0.185748	0.148490	-0.225919
