data_functionalizedCrystal
_audit_creation_method	'MofGen! by Chris Wilmer'
_symmetry_space_group_name_H-M	'P1'
_symmetry_Int_Tables_number	1
_symmetry_cell_setting	triclinic
loop_
_symmetry_equiv_pos_as_xyz
  x,y,z
_cell_length_a	12.594517
_cell_length_b	12.594516
_cell_length_c	12.759393
_cell_angle_alpha	90.029124
_cell_angle_beta	90.022886
_cell_angle_gamma	90.015485
loop_
_atom_site_label
_atom_site_type_symbol
_atom_site_fract_x
_atom_site_fract_y
_atom_site_fract_z
Zn1	Zn	1.627274	-0.423695	0.594122
Zn2	Zn	1.627163	-0.601715	0.418450
Zn3	Zn	1.449276	-0.423749	0.418448
Zn4	Zn	1.449260	-0.601631	0.594078
O5	O	1.538243	-0.512697	0.506274
O6	O	1.776205	-0.447323	0.570838
O7	O	1.603526	-0.578165	0.271428
O8	O	1.472941	-0.274796	0.441770
O9	O	1.776123	-0.578113	0.441772
O10	O	1.603715	-0.274757	0.570837
O11	O	1.472833	-0.447414	0.271427
O12	O	1.300328	-0.447332	0.441727
O13	O	1.472914	-0.577969	0.741105
O14	O	1.300316	-0.578021	0.570761
O15	O	1.603700	-0.447241	0.741137
O16	O	1.603511	-0.750649	0.441729
O17	O	1.472806	-0.750587	0.570762
C18	C	1.261702	-0.512674	0.506239
C19	C	1.143397	-0.512690	0.506249
C20	C	1.003355	-0.441530	0.436228
C21	C	1.074215	-0.415592	0.532098
C22	C	1.074109	-0.538580	0.410390
C23	C	1.003471	-0.486743	0.602247
C24	C	1.003358	-0.609777	0.480474
C25	C	1.074186	-0.583876	0.576410
C26	C	1.538173	-0.789238	0.506264
C27	C	1.538241	-0.907544	0.506295
C28	C	1.467144	-0.976802	0.576427
C29	C	1.441209	-1.047672	0.480558
C30	C	1.564272	-1.047473	0.602180
C31	C	1.512255	-0.976856	0.410376
C32	C	1.635363	-0.976650	0.532062
C33	C	1.609466	-1.047488	0.436127
C34	C	1.815864	-0.512721	0.506310
C35	C	1.934169	-0.512732	0.506326
C36	C	1.538318	-0.512590	0.780308
C37	C	1.538349	-0.512544	0.897085
C38	C	1.538342	-0.235077	0.506308
C39	C	1.538384	-0.116771	0.506322
C40	C	1.538230	-0.512728	0.233307
C41	C	1.538405	-0.512473	0.116531
C42	C	1.606459	-0.444468	0.951965
C43	C	1.606484	-0.444429	1.061690
C44	C	1.470287	-0.580553	1.061643
C45	C	1.470258	-0.580585	0.951920
C46	C	1.674551	-0.376426	0.897130
C47	C	1.742667	-0.308345	0.952010
C48	C	1.742692	-0.308307	1.061735
C49	C	1.674602	-0.376349	1.116578
H50	H	1.105088	-0.644071	0.635725
C51	C	0.962341	-0.457639	0.710494
C52	C	0.999046	-0.531863	0.783680
C53	C	0.961166	-0.505091	0.883401
H54	H	0.987169	-0.388939	0.729087
H55	H	0.886909	-0.457850	0.709904
H56	H	1.074462	-0.531641	0.784273
H57	H	0.974221	-0.600568	0.765121
H58	H	0.885734	-0.505302	0.882811
H59	H	0.985996	-0.436390	0.901984
H60	H	0.986056	-0.555453	0.933068
C61	C	1.396551	-0.654565	1.121238
C62	C	1.456817	-0.722791	1.184198
C63	C	1.388931	-0.790999	1.239100
H64	H	1.350180	-0.613960	1.164132
H65	H	1.356001	-0.695178	1.072870
H66	H	1.497348	-0.682182	1.232561
H67	H	1.503184	-0.763420	1.141330
H68	H	1.348381	-0.831612	1.190731
H69	H	1.342563	-0.750385	1.281988
H70	H	1.429811	-0.837304	1.281817
H71	H	1.798097	-0.252941	0.907350
C72	C	1.115668	-0.306066	0.561017
C73	C	1.079809	-0.231860	0.487407
C74	C	1.117982	-0.130956	0.513997
H75	H	1.090468	-0.287052	0.628626
H76	H	1.191096	-0.306966	0.561360
H77	H	1.004397	-0.230957	0.487075
H78	H	1.105006	-0.250839	0.419792
H79	H	1.193410	-0.131856	0.514340
H80	H	1.092779	-0.111953	0.581608
H81	H	1.093665	-0.080597	0.464052
H82	H	1.490201	-0.945964	0.329276
C83	C	1.386669	-0.935464	0.655255
C84	C	1.285200	-0.971435	0.627794
C85	C	1.211038	-0.933363	0.700372
H86	H	1.404291	-0.960657	0.723227
H87	H	1.387558	-0.860035	0.655127
H88	H	1.284314	-1.046849	0.627932
H89	H	1.267545	-0.946245	0.559833
H90	H	1.211927	-0.857934	0.700244
H91	H	1.228670	-0.958559	0.768340
H92	H	1.142182	-0.957756	0.681744
H93	H	1.717412	-0.945433	0.553880
C94	C	1.816756	-0.234350	1.121132
C95	C	1.876395	-0.174792	1.049620
C96	C	1.944649	-0.106664	1.104296
H97	H	1.776191	-0.187858	1.163941
H98	H	1.863183	-0.275036	1.163912
H99	H	1.829974	-0.134109	1.006859
H100	H	1.916982	-0.221256	1.006809
H101	H	1.991076	-0.147350	1.147075
H102	H	1.904076	-0.060180	1.147103
H103	H	1.985130	-0.066253	1.055784
H104	H	1.674615	-0.376300	1.205923
H105	H	1.586232	-1.078493	0.683258
C106	C	1.331771	-1.089129	0.451331
C107	C	1.304122	-1.051791	0.351651
C108	C	1.203309	-1.089944	0.324705
H109	H	1.332665	-1.164543	0.450836
H110	H	1.281238	-1.064903	0.501160
H111	H	1.354642	-1.076023	0.301834
H112	H	1.303205	-0.976382	0.352120
H113	H	1.152776	-1.065719	0.374535
H114	H	1.204212	-1.165357	0.324216
H115	H	1.184532	-1.064609	0.257075
C116	C	1.674642	-0.376271	0.778001
C117	C	1.748831	-0.302097	0.741721
C118	C	1.748934	-0.301918	0.631988
H119	H	1.693048	-0.444906	0.753041
H120	H	1.605976	-0.357808	0.753134
H121	H	1.817481	-0.320566	0.766578
H122	H	1.730441	-0.233451	0.766653
H123	H	1.680268	-0.283455	0.607120
H124	H	1.767338	-0.370556	0.607038
H125	H	1.799262	-0.251585	0.607358
H126	H	0.972259	-0.381290	0.377054
H127	H	1.414780	-0.636003	0.907235
C128	C	0.961764	-0.719237	0.451536
C129	C	0.900743	-0.759252	0.534285
C130	C	0.862422	-0.860091	0.507660
H131	H	0.919079	-0.714234	0.390346
H132	H	1.019856	-0.765510	0.438552
H133	H	0.842659	-0.712991	0.547256
H134	H	0.943406	-0.764281	0.595483
H135	H	0.920515	-0.906363	0.494675
H136	H	0.819742	-0.855078	0.446468
H137	H	0.821024	-0.887258	0.563803
C138	C	1.115337	-0.567619	0.302161
C139	C	1.079422	-0.492846	0.229139
C140	C	1.117363	-0.519561	0.129426
H141	H	1.190753	-0.568013	0.302921
H142	H	1.090000	-0.636070	0.283287
H143	H	1.104763	-0.424414	0.248008
H144	H	1.004010	-0.492442	0.228346
H145	H	1.092027	-0.588011	0.110551
H146	H	1.192779	-0.519954	0.130197
H147	H	1.092993	-0.468838	0.079867
C148	C	1.689853	-1.088688	0.357145
C149	C	1.766431	-1.149716	0.409072
C150	C	1.840501	-1.187680	0.336348
H151	H	1.654690	-1.131292	0.306416
H152	H	1.723332	-1.030432	0.323328
H153	H	1.732955	-1.207965	0.442872
H154	H	1.801621	-1.107136	0.459796
H155	H	1.873980	-1.129423	0.302531
H156	H	1.805328	-1.230279	0.285622
H157	H	1.892473	-1.229083	0.371571
