data_functionalizedCrystal
_audit_creation_method	'MofGen! by Chris Wilmer'
_symmetry_space_group_name_H-M	'P1'
_symmetry_Int_Tables_number	1
_symmetry_cell_setting	triclinic
loop_
_symmetry_equiv_pos_as_xyz
  x,y,z
_cell_length_a	19.805407
_cell_length_b	29.839131
_cell_length_c	19.805399
_cell_angle_alpha	89.970435
_cell_angle_beta	89.980427
_cell_angle_gamma	90.041420
loop_
_atom_site_label
_atom_site_type_symbol
_atom_site_fract_x
_atom_site_fract_y
_atom_site_fract_z
Zn1	Zn	1.034665	-0.178864	-0.382710
Zn2	Zn	1.367998	0.154470	-0.049377
Zn3	Zn	1.701332	0.487803	0.283956
Zn4	Zn	1.034550	-0.253991	-0.269518
Zn5	Zn	1.367884	0.079342	0.063815
Zn6	Zn	1.701217	0.412675	0.397149
Zn7	Zn	0.921480	-0.178876	-0.269535
Zn8	Zn	1.254813	0.154457	0.063798
Zn9	Zn	1.588146	0.487791	0.397132
Zn10	Zn	0.921414	-0.253967	-0.382665
Zn11	Zn	1.254747	0.079366	-0.049332
Zn12	Zn	1.588080	0.412699	0.284002
O13	O	0.978027	-0.216425	-0.326107
O14	O	1.311360	0.116909	0.007226
O15	O	1.644694	0.450242	0.340560
O16	O	1.129366	-0.188834	-0.367707
O17	O	1.462700	0.144499	-0.034374
O18	O	1.796033	0.477832	0.298960
O19	O	1.019531	-0.244042	-0.174804
O20	O	1.352864	0.089291	0.158530
O21	O	1.686197	0.422624	0.491863
O22	O	0.936570	-0.116007	-0.284574
O23	O	1.269903	0.217326	0.048759
O24	O	1.603236	0.550659	0.382093
O25	O	1.129282	-0.244030	-0.284545
O26	O	1.462615	0.089303	0.048788
O27	O	1.795949	0.422636	0.382121
O28	O	1.019727	-0.115998	-0.367723
O29	O	1.353060	0.217335	-0.034390
O30	O	1.686393	0.550668	0.298943
O31	O	0.936458	-0.188856	-0.174816
O32	O	1.269792	0.144478	0.158517
O33	O	1.603125	0.477811	0.491851
O34	O	0.826754	-0.188832	-0.284530
O35	O	1.160088	0.144501	0.048804
O36	O	1.493421	0.477834	0.382137
O37	O	0.936457	-0.243990	-0.477388
O38	O	1.269790	0.089344	-0.144054
O39	O	1.603124	0.422677	0.189279
O40	O	0.826706	-0.244002	-0.367646
O41	O	1.160039	0.089332	-0.034313
O42	O	1.493372	0.422665	0.299021
O43	O	1.019662	-0.188811	-0.477421
O44	O	1.352996	0.144522	-0.144088
O45	O	1.686329	0.477855	0.189246
O46	O	1.019467	-0.316855	-0.284501
O47	O	1.352800	0.016478	0.048832
O48	O	1.686133	0.349811	0.382165
O49	O	0.936346	-0.316838	-0.367630
O50	O	1.269679	0.016496	-0.034296
O51	O	1.603012	0.349829	0.299037
C52	C	0.802171	-0.216416	-0.326085
C53	C	1.135504	0.116917	0.007248
C54	C	1.468838	0.450251	0.340582
C55	C	0.726939	-0.216423	-0.326092
C56	C	1.060272	0.116910	0.007241
C57	C	1.393606	0.450243	0.340575
C58	C	0.977905	-0.333147	-0.326073
C59	C	1.311238	0.000186	0.007260
C60	C	1.644572	0.333519	0.340593
C61	C	0.977915	-0.383082	-0.326082
C62	C	1.311248	-0.049748	0.007252
C63	C	1.644581	0.283585	0.340585
C64	C	0.691587	-0.245193	-0.369300
C65	C	1.024921	0.088140	-0.035967
C66	C	1.358254	0.421474	0.297366
C67	C	0.620899	-0.245194	-0.369310
C68	C	0.954232	0.088139	-0.035977
C69	C	1.287566	0.421473	0.297357
C70	C	0.585564	-0.216427	-0.326107
C71	C	0.918897	0.116907	0.007226
C72	C	1.252230	0.450240	0.340560
C73	C	0.620920	-0.187654	-0.282897
C74	C	0.954254	0.145680	0.050437
C75	C	1.287587	0.479013	0.383770
C76	C	0.691607	-0.187651	-0.282891
C77	C	1.024941	0.145682	0.050442
C78	C	1.358274	0.479016	0.383776
C79	C	0.335847	-0.187664	-0.282919
C80	C	0.669180	0.145670	0.050414
C81	C	1.002514	0.479003	0.383748
C82	C	0.265155	-0.187669	-0.282927
C83	C	0.598488	0.145664	0.050407
C84	C	0.931822	0.478997	0.383740
C85	C	0.265139	-0.245207	-0.369338
C86	C	0.598472	0.088127	-0.036005
C87	C	0.931805	0.421460	0.297329
C88	C	0.335826	-0.245204	-0.369332
C89	C	0.669159	0.088130	-0.035999
C90	C	1.002492	0.421463	0.297334
C91	C	0.371176	-0.216429	-0.326125
C92	C	0.704510	0.116904	0.007209
C93	C	1.037843	0.450237	0.340542
C94	C	0.447825	-0.216428	-0.326116
C95	C	0.781158	0.116905	0.007218
C96	C	1.114491	0.450238	0.340551
C97	C	0.508916	-0.216430	-0.326112
C98	C	0.842250	0.116904	0.007221
C99	C	1.175583	0.450237	0.340555
C100	C	1.021387	-0.692722	-0.282885
C101	C	1.354720	-0.359388	0.050448
C102	C	1.688054	-0.026055	0.383781
C103	C	1.021471	-0.880395	-0.282912
C104	C	1.354804	-0.547061	0.050422
C105	C	1.688137	-0.213728	0.383755
O106	O	1.058335	-0.904656	-0.246159
O107	O	1.391669	-0.571323	0.087175
O108	O	1.725002	-0.237990	0.420508
N109	N	0.978168	-0.903867	-0.326158
N110	N	1.311501	-0.570533	0.007175
N111	N	1.644834	-0.237200	0.340509
C112	C	0.934844	-0.880418	-0.369404
C113	C	1.268177	-0.547084	-0.036071
C114	C	1.601510	-0.213751	0.297262
O115	O	0.898019	-0.904688	-0.406194
O116	O	1.231352	-0.571355	-0.072860
O117	O	1.564685	-0.238022	0.260473
C118	C	0.934764	-0.692746	-0.369381
C119	C	1.268097	-0.359412	-0.036048
C120	C	1.601431	-0.026079	0.297286
C121	C	0.978065	-0.669276	-0.326127
C122	C	1.311398	-0.335942	0.007207
C123	C	1.644732	-0.002609	0.340540
C124	C	1.064685	-0.669252	-0.239635
C125	C	1.398018	-0.335918	0.093698
C126	C	1.731352	-0.002585	0.427031
C127	C	1.064661	-0.622336	-0.239626
C128	C	1.397994	-0.289003	0.093707
C129	C	1.731328	0.044330	0.427040
C130	C	1.021339	-0.598891	-0.282868
C131	C	1.354672	-0.265557	0.050465
C132	C	1.688006	0.067776	0.383799
C133	C	0.978041	-0.622360	-0.326118
C134	C	1.311374	-0.289027	0.007215
C135	C	1.644708	0.044306	0.340549
C136	C	0.891444	-0.669297	-0.412630
C137	C	1.224777	-0.335964	-0.079297
C138	C	1.558111	-0.002631	0.254037
C139	C	0.891429	-0.622376	-0.412621
C140	C	1.224763	-0.289043	-0.079288
C141	C	1.558096	0.044290	0.254045
C142	C	0.934730	-0.598907	-0.369367
C143	C	1.268064	-0.265573	-0.036034
C144	C	1.601397	0.067760	0.297299
C145	C	0.934695	-0.551999	-0.369351
C146	C	1.268029	-0.218666	-0.036017
C147	C	1.601362	0.114667	0.297316
N148	N	0.977998	-0.528527	-0.326104
N149	N	1.311332	-0.195194	0.007229
N150	N	1.644665	0.138140	0.340563
C151	C	1.021320	-0.551973	-0.282863
C152	C	1.354654	-0.218639	0.050471
C153	C	1.687987	0.114694	0.383804
C154	C	0.934888	-0.978948	-0.369412
C155	C	1.268221	-0.645615	-0.036079
C156	C	1.601554	-0.312282	0.297254
C157	C	0.934907	-1.025866	-0.369418
C158	C	1.268240	-0.692533	-0.036084
C159	C	1.601573	-0.359199	0.297249
C160	C	1.021534	-1.025840	-0.282926
C161	C	1.354868	-0.692506	0.050408
C162	C	1.688201	-0.359173	0.383741
C163	C	1.021512	-0.978921	-0.282918
C164	C	1.354845	-0.645588	0.050416
C165	C	1.688178	-0.312254	0.383749
C166	C	0.978191	-0.955476	-0.326166
C167	C	1.311524	-0.622143	0.007167
C168	C	1.644857	-0.288810	0.340501
C169	C	1.021266	-0.453447	-0.282847
C170	C	1.354600	-0.120114	0.050486
C171	C	1.687933	0.213220	0.383819
C172	C	1.021237	-0.406527	-0.282840
C173	C	1.354570	-0.073194	0.050493
C174	C	1.687903	0.260139	0.383826
C175	C	0.934611	-0.406558	-0.369334
C176	C	1.267945	-0.073225	-0.036001
C177	C	1.601278	0.260109	0.297332
C178	C	0.934638	-0.453473	-0.369339
C179	C	1.267972	-0.120140	-0.036006
C180	C	1.601305	0.213193	0.297328
C181	C	0.977971	-0.476917	-0.326093
C182	C	1.311305	-0.143583	0.007240
C183	C	1.644638	0.189750	0.340573
O184	O	0.897855	-0.527708	-0.406090
O185	O	1.231188	-0.194375	-0.072756
O186	O	1.564522	0.138958	0.260577
O187	O	1.058150	-0.527694	-0.246090
O188	O	1.391484	-0.194361	0.087244
O189	O	1.724817	0.138973	0.420577
C190	C	1.021411	-0.739637	-0.282894
C191	C	1.354744	-0.406304	0.050439
C192	C	1.688078	-0.072970	0.383773
C193	C	0.978113	-0.763107	-0.326144
C194	C	1.311446	-0.429773	0.007189
C195	C	1.644780	-0.096440	0.340522
C196	C	0.934791	-0.739661	-0.369386
C197	C	1.268124	-0.406328	-0.036052
C198	C	1.601458	-0.072994	0.297281
C199	C	0.978132	-0.810025	-0.326149
C200	C	1.311465	-0.476691	0.007184
C201	C	1.644798	-0.143358	0.340517
C202	C	1.021454	-0.833470	-0.282908
C203	C	1.354787	-0.500137	0.050425
C204	C	1.688120	-0.166804	0.383759
C205	C	1.064757	-0.809998	-0.239661
C206	C	1.398090	-0.476665	0.093672
C207	C	1.731423	-0.143331	0.427005
C208	C	1.064733	-0.763083	-0.239653
C209	C	1.398066	-0.429749	0.093681
C210	C	1.731399	-0.096416	0.427014
C211	C	0.891488	-0.763133	-0.412632
C212	C	1.224821	-0.429800	-0.079299
C213	C	1.558155	-0.096466	0.254035
C214	C	0.891515	-0.810049	-0.412637
C215	C	1.224848	-0.476715	-0.079303
C216	C	1.558182	-0.143382	0.254030
C217	C	0.934837	-0.833494	-0.369395
C218	C	1.268170	-0.500161	-0.036062
C219	C	1.601503	-0.166828	0.297271
C220	C	1.154570	-0.216434	-0.326129
C221	C	1.487903	0.116900	0.007204
C222	C	1.821237	0.450233	0.340537
C223	C	1.229802	-0.216437	-0.326139
C224	C	1.563135	0.116896	0.007194
C225	C	1.896468	0.450229	0.340528
C226	C	0.978065	-0.216396	-0.502650
C227	C	1.311398	0.116937	-0.169317
C228	C	1.644732	0.450270	0.164017
C229	C	0.978081	-0.216384	-0.577882
C230	C	1.311415	0.116949	-0.244549
C231	C	1.644748	0.450282	0.088785
C232	C	0.978168	-0.099246	-0.326156
C233	C	1.311502	0.234087	0.007178
C234	C	1.644835	0.567420	0.340511
C235	C	0.978228	-0.049312	-0.326176
C236	C	1.311562	0.284022	0.007157
C237	C	1.644895	0.617355	0.340490
C238	C	1.021407	-0.187652	-0.613244
C239	C	1.354741	0.145682	-0.279911
C240	C	1.688074	0.479015	0.053422
C241	C	1.021414	-0.187638	-0.683933
C242	C	1.354748	0.145695	-0.350600
C243	C	1.688081	0.479028	-0.017266
C244	C	0.978098	-0.216361	-0.719258
C245	C	1.311431	0.116972	-0.385924
C246	C	1.644765	0.450306	-0.052591
C247	C	0.934767	-0.245095	-0.683890
C248	C	1.268101	0.088238	-0.350557
C249	C	1.601434	0.421572	-0.017223
C250	C	0.934757	-0.245105	-0.613203
C251	C	1.268091	0.088228	-0.279869
C252	C	1.601424	0.421561	0.053464
C253	C	0.934806	-0.245053	-0.968963
C254	C	1.268139	0.088280	-0.635630
C255	C	1.601472	0.421614	-0.302297
C256	C	0.934820	-0.245041	-1.039656
C257	C	1.268154	0.088292	-0.706322
C258	C	1.601487	0.421625	-0.372989
C259	C	1.021462	-0.187586	-1.039694
C260	C	1.354796	0.145747	-0.706360
C261	C	1.688129	0.479081	-0.373027
C262	C	1.021453	-0.187597	-0.969006
C263	C	1.354786	0.145737	-0.635673
C264	C	1.688119	0.479070	-0.302340
C265	C	0.978120	-0.216329	-0.933645
C266	C	1.311453	0.117005	-0.600312
C267	C	1.644786	0.450338	-0.266978
C268	C	0.978112	-0.216342	-0.856997
C269	C	1.311445	0.116991	-0.523663
C270	C	1.644778	0.450325	-0.190330
C271	C	0.978109	-0.216350	-0.795905
C272	C	1.311442	0.116983	-0.462571
C273	C	1.644776	0.450316	-0.129238
C274	C	0.978028	-0.216420	-0.150251
C275	C	1.311362	0.116913	0.183082
C276	C	1.644695	0.450246	0.516416
C277	C	0.978143	-0.216306	-0.075019
C278	C	1.311477	0.117027	0.258314
C279	C	1.644810	0.450361	0.591647
H280	H	0.720352	-0.268620	-0.404479
H281	H	1.053686	0.064713	-0.071146
H282	H	1.387019	0.398046	0.262188
H283	H	0.236348	-0.268634	-0.404522
H284	H	0.569681	0.064699	-0.071189
H285	H	0.903014	0.398032	0.262145
F286	F	1.067558	-0.157028	-0.931415
F287	F	1.400891	0.176305	-0.598082
F288	F	1.734224	0.509639	-0.264749
H289	H	0.364592	-0.268631	-0.404510
H290	H	0.697926	0.064703	-0.071177
H291	H	1.031259	0.398036	0.262156
F292	F	1.067386	-0.478391	-0.236820
F293	F	1.400719	-0.145057	0.096513
F294	F	1.734052	0.188276	0.429847
F295	F	1.067598	-0.953947	-0.236882
F296	F	1.400932	-0.620614	0.096452
F297	F	1.734265	-0.287280	0.429785
H298	H	1.099993	-0.743977	-0.204431
H299	H	1.433326	-0.410644	0.128902
H300	H	1.766659	-0.077310	0.462235
F301	F	1.067325	-0.381552	-0.236801
F302	F	1.400658	-0.048218	0.096532
F303	F	1.733992	0.285115	0.429866
F304	F	0.227550	-0.157049	-0.236943
F305	F	0.560883	0.176284	0.096391
F306	F	0.894216	0.509617	0.429724
F307	F	0.373461	-0.157038	-0.236935
F308	F	0.706794	0.176295	0.096398
F309	F	1.040127	0.509629	0.429731
H310	H	0.720390	-0.164221	-0.247710
H311	H	1.053723	0.169112	0.085624
H312	H	1.387057	0.502445	0.418957
F313	F	0.888664	-0.275662	-0.721487
F314	F	1.221998	0.057672	-0.388154
F315	F	1.555331	0.391005	-0.054820
H316	H	1.056696	-0.164242	-0.712722
H317	H	1.390030	0.169091	-0.379389
H318	H	1.723363	0.502424	-0.046055
H319	H	1.099922	-0.603230	-0.204407
H320	H	1.433256	-0.269897	0.128926
H321	H	1.766589	0.063437	0.462259
H322	H	1.056744	-0.164189	-1.068493
H323	H	1.390077	0.169144	-0.735160
H324	H	1.723411	0.502477	-0.401827
F325	F	0.583312	-0.157035	-0.236921
F326	F	0.916645	0.176299	0.096412
F327	F	1.249979	0.509632	0.429746
H328	H	1.099967	-0.688336	-0.204423
H329	H	1.433300	-0.355003	0.128911
H330	H	1.766633	-0.021670	0.462244
F331	F	0.583278	-0.275815	-0.415299
F332	F	0.916611	0.057519	-0.081965
F333	F	1.249945	0.390852	0.251368
F334	F	1.067640	-1.050800	-0.236903
F335	F	1.400973	-0.717467	0.096430
F336	F	1.734306	-0.384134	0.429764
H337	H	0.899544	-0.268431	-1.068415
H338	H	1.232877	0.064902	-0.735082
H339	H	1.566211	0.398235	-0.401748
F340	F	0.888812	-1.050839	-0.415447
F341	F	1.222145	-0.717506	-0.082114
F342	F	1.555479	-0.384173	0.251220
H343	H	0.899470	-0.268498	-0.584411
H344	H	1.232803	0.064835	-0.251078
H345	H	1.566137	0.398169	0.082255
H346	H	0.899609	-0.959863	-0.404631
H347	H	1.232942	-0.626529	-0.071298
H348	H	1.566275	-0.293196	0.262035
F349	F	0.845362	-0.694266	-0.458674
F350	F	1.178695	-0.360932	-0.125340
F351	F	1.512029	-0.027599	0.207993
F352	F	0.845321	-0.597427	-0.458655
F353	F	1.178654	-0.264094	-0.125322
F354	F	1.511988	0.069239	0.208012
F355	F	0.888541	-0.478452	-0.415362
F356	F	1.221874	-0.145119	-0.082029
F357	F	1.555207	0.188214	0.251304
F358	F	0.888509	-0.381597	-0.415355
F359	F	1.221843	-0.048264	-0.082021
F360	F	1.555176	0.285070	0.251312
H361	H	0.899531	-0.268455	-0.940181
H362	H	1.232864	0.064878	-0.606847
H363	H	1.566198	0.398212	-0.273514
H364	H	1.100029	-0.829096	-0.204451
H365	H	1.433362	-0.495762	0.128883
H366	H	1.766696	-0.162429	0.462216
F367	F	0.845423	-0.835022	-0.458675
F368	F	1.178756	-0.501688	-0.125342
F369	F	1.512089	-0.168355	0.207991
H370	H	1.056683	-0.164264	-0.584488
H371	H	1.390016	0.169070	-0.251155
H372	H	1.723349	0.502403	0.082178
F373	F	0.845377	-0.738187	-0.458659
F374	F	1.178710	-0.404853	-0.125325
F375	F	1.512043	-0.071520	0.208008
