data_functionalizedCrystal
_audit_creation_method	'MofGen! by Chris Wilmer'
_symmetry_space_group_name_H-M	'P1'
_symmetry_Int_Tables_number	1
_symmetry_cell_setting	triclinic
loop_
_symmetry_equiv_pos_as_xyz
  x,y,z
_cell_length_a	13.635800
_cell_length_b	23.753023
_cell_length_c	23.752933
_cell_angle_alpha	100.648862
_cell_angle_beta	100.066051
_cell_angle_gamma	79.932472
loop_
_atom_site_label
_atom_site_type_symbol
_atom_site_fract_x
_atom_site_fract_y
_atom_site_fract_z
V1	V	1.937247	-0.178714	-0.079884
O2	O	1.990724	-0.174980	0.003095
O3	O	1.857484	-0.177812	-0.157681
O4	O	1.905411	-0.256512	-0.078981
O5	O	1.942465	-0.095735	-0.076150
V6	V	2.187250	-0.168750	-0.069920
O7	O	2.049798	-0.200571	-0.101740
O8	O	2.299799	-0.146894	-0.048064
O9	O	2.155410	-0.169653	0.007877
O10	O	2.192473	-0.172485	-0.152899
O11	O	2.240731	-0.251730	-0.073655
O12	O	2.107484	-0.090953	-0.070823
V13	V	2.437247	-0.178714	-0.079884
O14	O	2.490724	-0.174980	0.003095
O15	O	2.357484	-0.177812	-0.157681
O16	O	2.405411	-0.256512	-0.078981
O17	O	2.442465	-0.095735	-0.076150
V18	V	2.687250	-0.168750	-0.069920
O19	O	2.549798	-0.200571	-0.101740
O20	O	2.799799	-0.146894	-0.048064
O21	O	2.655410	-0.169653	0.007877
O22	O	2.692473	-0.172485	-0.152899
O23	O	2.740731	-0.251730	-0.073655
O24	O	2.607484	-0.090953	-0.070823
C25	C	1.827850	-0.275464	-0.076246
C26	C	1.842094	-0.339066	-0.076023
C27	C	1.912224	-0.741865	-0.127137
C28	C	1.925618	-0.801628	-0.126936
O29	O	1.917039	-0.839669	-0.171420
N30	N	1.950586	-0.823131	-0.074405
C31	C	1.962169	-0.784869	-0.022072
O32	O	1.984637	-0.808647	0.022628
C33	C	1.948782	-0.725108	-0.022274
C34	C	1.923803	-0.703607	-0.074808
C35	C	1.887248	-0.720364	-0.179666
C36	C	1.873852	-0.660605	-0.179867
C37	C	1.885432	-0.622348	-0.127538
C38	C	1.910408	-0.643849	-0.075008
C39	C	1.960372	-0.686847	0.030058
C40	C	1.946982	-0.627082	0.029852
C41	C	1.922004	-0.605582	-0.022682
C42	C	1.908592	-0.545832	-0.022880
N43	N	1.883624	-0.524329	-0.075410
C44	C	1.872044	-0.562586	-0.127739
C45	C	1.990285	-0.910372	-0.021653
C46	C	2.003666	-0.970132	-0.021450
C47	C	1.967116	-0.986887	-0.126314
C48	C	1.953728	-0.927125	-0.126516
C49	C	1.965317	-0.888869	-0.074184
C50	C	1.843913	-0.437088	-0.128156
C51	C	1.830514	-0.377324	-0.128352
C52	C	1.867070	-0.360574	-0.023489
C53	C	1.880463	-0.420334	-0.023292
C54	C	1.868886	-0.458590	-0.075631
O55	O	1.917159	-0.507756	0.021582
O56	O	1.849590	-0.538800	-0.172432
C57	C	1.766715	-0.175075	-0.176637
C58	C	1.742092	-0.174855	-0.240239
C59	C	2.077849	-0.172388	0.026830
C60	C	2.092090	-0.172611	0.090432
C61	C	2.016715	-0.071998	-0.073560
C62	C	1.992092	-0.008395	-0.073780
C63	C	2.266715	-0.175075	-0.176637
C64	C	2.242092	-0.174855	-0.240239
C65	C	1.819195	-0.177623	-0.273037
C66	C	1.796074	-0.177426	-0.332800
C67	C	1.695849	-0.174457	-0.359764
C68	C	1.618740	-0.171691	-0.326962
C69	C	1.641862	-0.171892	-0.267201
C70	C	2.064993	-0.176390	0.362425
C71	C	2.051600	-0.176189	0.302662
O72	O	1.969238	-0.178503	0.269269
N73	N	2.133600	-0.173225	0.275698
C74	C	2.228997	-0.170456	0.308499
O75	O	2.297514	-0.167915	0.280076
C76	C	2.242387	-0.170653	0.368261
C77	C	2.160382	-0.173623	0.395222
C78	C	1.982996	-0.179359	0.389386
C79	C	1.996388	-0.179562	0.449144
C80	C	2.091778	-0.176795	0.481941
C81	C	2.173775	-0.173826	0.454980
C82	C	2.337781	-0.167880	0.401063
C83	C	2.351164	-0.168077	0.460829
C84	C	2.269160	-0.171047	0.487789
C85	C	2.282557	-0.171261	0.547536
N86	N	2.200557	-0.174225	0.574501
C87	C	2.105168	-0.176992	0.541704
C88	C	2.200870	-0.170041	0.182995
C89	C	2.187483	-0.169847	0.123233
C90	C	2.010086	-0.175579	0.117401
C91	C	2.023476	-0.175777	0.177163
C92	C	2.118870	-0.173005	0.209960
C93	C	2.133300	-0.177418	0.667200
C94	C	2.146702	-0.177622	0.726964
C95	C	2.324095	-0.171887	0.732792
C96	C	2.310696	-0.171686	0.673033
C97	C	2.215290	-0.174449	0.640239
O98	O	2.364889	-0.168946	0.580966
O99	O	2.036662	-0.179525	0.570136
C100	C	2.327850	-0.275464	-0.076246
C101	C	2.342094	-0.339066	-0.076023
C102	C	2.577849	-0.172388	0.026830
C103	C	2.592090	-0.172611	0.090432
C104	C	2.516715	-0.071998	-0.073560
C105	C	2.492092	-0.008395	-0.073780
C106	C	2.437487	-0.371862	-0.078783
C107	C	2.450888	-0.431622	-0.078565
C108	C	2.368892	-0.458586	-0.075593
C109	C	2.273491	-0.425785	-0.072831
C110	C	2.260093	-0.366025	-0.073044
C111	C	2.687480	-0.169845	0.123229
C112	C	2.700872	-0.170045	0.182991
C113	C	2.618874	-0.173016	0.209955
C114	C	2.523476	-0.175780	0.177154
C115	C	2.510084	-0.175576	0.117393
C116	C	2.391861	0.018554	-0.076746
C117	C	2.368712	0.078316	-0.076947
C118	C	2.445796	0.111127	-0.074185
C119	C	2.546036	0.084175	-0.071216
C120	C	2.569184	0.024415	-0.071012
H121	H	1.834483	-0.468230	-0.170775
H122	H	2.287087	0.100252	-0.079363
N123	N	2.420823	0.175583	-0.074403
H124	H	2.345626	0.187672	-0.076702
H125	H	2.444299	0.185387	-0.108983
H126	H	2.023991	-0.987631	0.021328
H127	H	1.956700	-0.178195	0.199110
H128	H	2.432407	-0.177833	0.090693
N129	N	2.629172	0.119569	-0.068234
H130	H	2.599287	0.161514	-0.068815
H131	H	2.666119	0.104706	-0.102603
H132	H	2.650803	0.002478	-0.068600
N133	N	2.454057	-0.165095	0.496203
H134	H	2.451142	-0.129396	0.526826
H135	H	2.503911	-0.163208	0.470010
H136	H	2.456718	-0.178198	0.199117
H137	H	2.329082	-0.008154	-0.078995
H138	H	2.182412	-0.339327	-0.070798
N139	N	1.879565	-0.319313	0.032955
H140	H	1.829571	-0.324066	0.057863
H141	H	1.867317	-0.278210	0.024812
H142	H	2.278555	-0.167787	0.209695
H143	H	1.810171	-0.359822	-0.171133
H144	H	2.079920	-0.180043	0.748912
H145	H	1.932412	-0.177831	0.090687
N146	N	2.275934	-0.166656	0.094156
H147	H	2.338392	-0.164935	0.124006
H148	H	2.261819	-0.130791	0.075186
H149	H	1.853520	-0.643106	-0.222645
H150	H	1.999717	-0.879225	0.020965
H151	H	2.754258	-0.167427	0.101283
H152	H	1.900809	-0.180037	-0.251090
N153	N	2.383331	-0.523041	-0.075366
H154	H	2.364158	-0.530585	-0.038535
H155	H	2.456212	-0.539689	-0.077590
N156	N	1.874763	-0.761623	-0.236112
H157	H	1.856912	-0.738925	-0.269414
H158	H	1.819200	-0.784796	-0.236367
H159	H	1.957689	-1.018047	-0.168924
H160	H	2.404560	-0.165461	0.379122
H161	H	1.933389	-0.909625	-0.169294
N162	N	2.030399	-0.180400	0.631838
H163	H	2.033312	-0.216099	0.601214
H164	H	2.008507	-0.144764	0.612651
N165	N	1.987295	-0.710026	0.086721
H166	H	1.992596	-0.676714	0.119835
H167	H	2.053966	-0.736443	0.087146
H168	H	2.206735	-0.447747	-0.070411
H169	H	2.629793	-0.173181	0.258617
N170	N	2.803772	-0.167076	0.218360
H171	H	2.800875	-0.131378	0.248985
H172	H	2.853624	-0.165195	0.192163
H173	H	1.956424	-0.595935	0.072469
H174	H	1.858872	-0.179677	-0.359498
N175	N	1.907392	-0.443527	0.033367
H176	H	1.912691	-0.410221	0.066487
H177	H	1.974068	-0.469938	0.033784
H178	H	2.504264	-0.349917	-0.081205
H179	H	2.377473	-0.169275	0.651079
H180	H	1.537136	-0.169273	-0.348925
N181	N	1.670917	-0.174239	-0.424221
H182	H	1.734977	-0.176441	-0.440902
H183	H	1.624697	-0.137406	-0.431725
N184	N	1.558694	-0.168907	-0.231829
H185	H	1.491698	-0.166995	-0.257983
H186	H	1.558606	-0.133208	-0.201209
N187	N	2.553790	-0.466987	-0.081544
H188	H	2.577799	-0.463567	-0.118492
H189	H	2.549778	-0.508921	-0.080930
N190	N	1.907931	-0.182764	0.478213
H191	H	1.854400	-0.148327	0.472229
H192	H	1.930955	-0.182491	0.521039
N193	N	1.880103	-0.182341	0.354018
H194	H	1.830201	-0.184251	0.380175
H195	H	1.883109	-0.218041	0.323400
H196	H	2.401763	-0.169637	0.759505
