data_functionalizedCrystal
_audit_creation_method	'MofGen! by Chris Wilmer'
_symmetry_space_group_name_H-M	'P1'
_symmetry_Int_Tables_number	1
_symmetry_cell_setting	triclinic
loop_
_symmetry_equiv_pos_as_xyz
  x,y,z
_cell_length_a	17.077404
_cell_length_b	18.215405
_cell_length_c	17.077396
_cell_angle_alpha	90.028580
_cell_angle_beta	90.019777
_cell_angle_gamma	90.018118
loop_
_atom_site_label
_atom_site_type_symbol
_atom_site_fract_x
_atom_site_fract_y
_atom_site_fract_z
Zn1	Zn	1.200055	-0.293075	0.443848
Zn2	Zn	1.700055	0.206925	0.943848
Zn3	Zn	1.199963	-0.416148	0.312582
Zn4	Zn	1.699963	0.083852	0.812582
Zn5	Zn	1.068787	-0.293090	0.312595
Zn6	Zn	1.568787	0.206910	0.812595
Zn7	Zn	1.068756	-0.416094	0.443805
Zn8	Zn	1.568756	0.083906	0.943805
O9	O	1.134390	-0.354602	0.378207
O10	O	1.634390	0.145398	0.878207
O11	O	1.309890	-0.309417	0.426448
O12	O	1.809890	0.190583	0.926448
O13	O	1.182537	-0.399854	0.202736
O14	O	1.682537	0.100146	0.702736
O15	O	1.086252	-0.190104	0.330030
O16	O	1.586252	0.309896	0.830030
O17	O	1.309822	-0.399839	0.330007
O18	O	1.809822	0.100161	0.830007
O19	O	1.182694	-0.190093	0.426461
O20	O	1.682694	0.309907	0.926461
O21	O	1.086163	-0.309443	0.202746
O22	O	1.586163	0.190557	0.702746
O23	O	0.958936	-0.309391	0.329988
O24	O	1.458936	0.190609	0.829988
O25	O	1.086198	-0.399746	0.553657
O26	O	1.586198	0.100254	1.053657
O27	O	0.958913	-0.399761	0.426387
O28	O	1.458913	0.100239	0.926387
O29	O	1.182664	-0.309365	0.553689
O30	O	1.682664	0.190635	1.053689
O31	O	1.182506	-0.519125	0.329965
O32	O	1.682506	-0.019125	0.829965
O33	O	1.086109	-0.519086	0.426374
O34	O	1.586109	-0.019086	0.926374
C35	C	0.930442	-0.354572	0.378185
C36	C	1.430442	0.145428	0.878185
C37	C	0.843193	-0.354578	0.378194
C38	C	1.343193	0.145422	0.878194
C39	C	1.134315	-0.545808	0.378180
C40	C	1.634315	-0.045808	0.878180
C41	C	1.134355	-0.627607	0.378195
C42	C	1.634355	-0.127607	0.878195
C43	C	0.467387	-0.401763	0.428346
C44	C	0.967387	0.098237	0.928346
C45	C	0.549367	-0.401754	0.428334
C46	C	1.049367	0.098246	0.928334
C47	C	0.590344	-0.354621	0.378220
C48	C	1.090344	0.145379	0.878220
C49	C	0.549336	-0.307501	0.328109
C50	C	1.049336	0.192499	0.828109
C51	C	0.467357	-0.307515	0.328117
C52	C	0.967357	0.192485	0.828117
C53	C	0.720206	-0.307474	0.328096
C54	C	1.220206	0.192526	0.828096
C55	C	0.802190	-0.307459	0.328088
C56	C	1.302190	0.192541	0.828088
C57	C	0.802216	-0.401713	0.428312
C58	C	1.302216	0.098287	0.928312
C59	C	0.720237	-0.401727	0.428321
C60	C	1.220237	0.098273	0.928321
C61	C	0.679235	-0.354605	0.378211
C62	C	1.179235	0.145395	0.878211
C63	C	1.184596	-0.815734	0.428474
C64	C	1.684596	-0.315734	0.928474
C65	C	1.184625	-0.892593	0.428489
C66	C	1.684625	-0.392593	0.928489
C67	C	1.084282	-0.892718	0.327989
C68	C	1.584282	-0.392718	0.827989
C69	C	1.084250	-0.815860	0.327979
C70	C	1.584250	-0.315860	0.827979
C71	C	1.134411	-0.777371	0.378220
C72	C	1.634411	-0.277371	0.878220
C73	C	1.134472	-0.931087	0.378245
C74	C	1.634472	-0.431087	0.878245
C75	C	1.134502	-1.014420	0.378261
C76	C	1.634502	-0.514420	0.878261
C77	C	1.134380	-0.694032	0.378206
C78	C	1.634380	-0.194032	0.878206
C79	C	1.339135	-0.354632	0.378231
C80	C	1.839135	0.145368	0.878231
C81	C	1.426384	-0.354645	0.378240
C82	C	1.926384	0.145355	0.878240
C83	C	1.134438	-0.354548	0.582952
C84	C	1.634438	0.145452	1.082952
C85	C	1.134458	-0.354525	0.670202
C86	C	1.634458	0.145475	1.170202
C87	C	1.134487	-0.162649	0.378252
C88	C	1.634487	0.337351	0.878252
C89	C	1.134528	-0.080850	0.378271
C90	C	1.634528	0.419150	0.878271
C91	C	1.134388	-0.354603	0.174260
C92	C	1.634388	0.145397	0.674260
C93	C	1.134520	-0.354419	0.087010
C94	C	1.634520	0.145581	0.587010
C95	C	1.184689	-0.307459	0.711210
C96	C	1.684689	0.192541	1.211210
C97	C	1.184699	-0.307434	0.793190
C98	C	1.684699	0.192566	1.293190
C99	C	1.134480	-0.354480	0.834161
C100	C	1.634480	0.145520	1.334161
C101	C	1.084243	-0.401548	0.793147
C102	C	1.584243	0.098452	1.293147
C103	C	1.084231	-0.401568	0.711168
C104	C	1.584231	0.098432	1.211168
C105	C	1.084275	-0.401503	0.964018
C106	C	1.584275	0.098497	1.464018
C107	C	1.084289	-0.401484	1.046002
C108	C	1.584289	0.098516	1.546002
C109	C	1.184743	-0.307370	1.046039
C110	C	1.684743	0.192630	1.546039
C111	C	1.184730	-0.307390	0.964060
C112	C	1.684730	0.192610	1.464060
C113	C	1.134494	-0.354459	0.923052
C114	C	1.634494	0.145541	1.423052
H115	H	0.582748	-0.440124	0.469133
H116	H	1.082748	0.059876	0.969133
O117	O	1.233290	-0.778231	0.477209
O118	O	1.733290	-0.278231	0.977209
C119	C	1.222490	-0.702167	0.466440
C120	C	1.722490	-0.202167	0.966440
H121	H	1.196818	-0.691721	0.405833
H122	H	1.696818	-0.191721	0.905833
H123	H	1.281272	-0.672916	0.471821
H124	H	1.781272	-0.172916	0.971821
H125	H	1.180648	-0.680357	0.512956
H126	H	1.680648	-0.180357	1.012956
O127	O	0.680459	-0.261736	0.279313
O128	O	1.180459	0.238264	0.779313
C129	C	0.700435	-0.277726	0.201041
C130	C	1.200435	0.222274	0.701041
H131	H	0.759952	-0.306003	0.199347
H132	H	1.259952	0.193997	0.699347
H133	H	0.703228	-0.224566	0.165949
H134	H	1.203228	0.275434	0.665949
H135	H	0.654277	-0.315536	0.174533
H136	H	1.154277	0.184464	0.674533
H137	H	1.225646	-0.269043	1.079432
H138	H	1.725646	0.230957	1.579432
H139	H	1.043380	-0.784623	0.287056
H140	H	1.543380	-0.284623	0.787056
O141	O	1.035611	-0.447250	1.085843
O142	O	1.535611	0.052750	1.585843
C143	C	1.080274	-0.494768	1.133280
C144	C	1.580274	0.005232	1.633280
H145	H	1.142088	-0.499351	1.108580
H146	H	1.642088	0.000649	1.608580
H147	H	1.051837	-0.551392	1.134205
H148	H	1.551837	-0.051392	1.634205
H149	H	1.083012	-0.471989	1.195412
H150	H	1.583012	0.028011	1.695412
O151	O	0.427670	-0.447509	0.477139
O152	O	0.927670	0.052491	0.977139
C153	C	0.447727	-0.431504	0.555404
C154	C	0.947727	0.068496	1.055404
H155	H	0.507255	-0.403208	0.557077
H156	H	1.007255	0.096792	1.057077
H157	H	0.450538	-0.484659	0.590501
H158	H	0.950538	0.015341	1.090501
H159	H	0.401607	-0.393706	0.581920
H160	H	0.901607	0.106294	1.081920
O161	O	1.035348	-0.447170	0.832908
O162	O	1.535348	0.052830	1.332908
C163	C	0.957118	-0.431092	0.812852
C164	C	1.457118	0.068908	1.312852
H165	H	0.953180	-0.372304	0.790333
H166	H	1.453180	0.127696	1.290333
H167	H	0.918343	-0.437415	0.866756
H168	H	1.418343	0.062585	1.366756
H169	H	0.936572	-0.470555	0.765251
H170	H	1.436572	0.029445	1.265251
H171	H	1.043319	-0.439886	0.677781
H172	H	1.543319	0.060114	1.177781
H173	H	1.225604	-0.269111	0.826575
H174	H	1.725604	0.230889	1.326575
O175	O	0.680552	-0.447580	0.477025
O176	O	1.180552	0.052420	0.977025
C177	C	0.734319	-0.489157	0.521263
C178	C	1.234319	0.010843	1.021263
H179	H	0.792744	-0.491656	0.489105
H180	H	1.292744	0.008344	0.989105
H181	H	0.710625	-0.547154	0.529522
H182	H	1.210625	-0.047154	1.029522
H183	H	0.743064	-0.462282	0.580934
H184	H	1.243064	0.037718	1.080934
H185	H	1.043443	-0.924066	0.287083
H186	H	1.543443	-0.424066	0.787083
O187	O	0.842088	-0.261786	0.279366
O188	O	1.342088	0.238214	0.779366
C189	C	0.889465	-0.303631	0.228582
C190	C	1.389465	0.196369	0.728582
H191	H	0.901738	-0.359431	0.256170
H192	H	1.401738	0.140569	0.756170
H193	H	0.947119	-0.273642	0.218117
H194	H	1.447119	0.226358	0.718117
H195	H	0.857851	-0.311655	0.170394
H196	H	1.357851	0.188345	0.670394
H197	H	1.225488	-0.923825	0.469413
H198	H	1.725488	-0.423825	0.969413
H199	H	0.835604	-0.440079	0.469116
H200	H	1.335604	0.059921	0.969116
O201	O	0.427612	-0.261779	0.279337
O202	O	0.927612	0.238221	0.779337
C203	C	0.447595	-0.277777	0.201068
C204	C	0.947595	0.222223	0.701068
H205	H	0.507112	-0.306055	0.199383
H206	H	1.007112	0.193945	0.699383
H207	H	0.450392	-0.224621	0.165970
H208	H	0.950392	0.275379	0.665970
H209	H	0.401440	-0.315590	0.174561
H210	H	0.901440	0.184410	0.674561
H211	H	1.225586	-0.269151	0.677857
H212	H	1.725586	0.230849	1.177857
H213	H	1.225627	-0.269086	0.930704
H214	H	1.725627	0.230914	1.430704
O215	O	1.035573	-0.447338	0.924210
O216	O	1.535573	0.052662	1.424210
C217	C	1.052697	-0.520679	0.944244
C218	C	1.552697	-0.020679	1.444244
H219	H	1.115405	-0.524383	0.966805
H220	H	1.615405	-0.024383	1.466805
H221	H	1.045931	-0.557050	0.890320
H222	H	1.545931	-0.057050	1.390320
H223	H	1.010605	-0.539908	0.991808
H224	H	1.510605	-0.039908	1.491808
O225	O	0.589049	-0.261617	0.279461
O226	O	1.089049	0.238383	0.779461
C227	C	0.569048	-0.188292	0.296768
C228	C	1.069048	0.311708	0.796768
H229	H	0.509542	-0.186813	0.326956
H230	H	1.009542	0.313187	0.826956
H231	H	0.566219	-0.155228	0.240177
H232	H	1.066219	0.344772	0.740177
H233	H	0.615210	-0.163542	0.337164
H234	H	1.115210	0.336458	0.837164
