data_functionalizedCrystal
_audit_creation_method	'MofGen! by Chris Wilmer'
_symmetry_space_group_name_H-M	'P1'
_symmetry_Int_Tables_number	1
_symmetry_cell_setting	triclinic
loop_
_symmetry_equiv_pos_as_xyz
  x,y,z
_cell_length_a	10.489741
_cell_length_b	15.500227
_cell_length_c	10.489741
_cell_angle_alpha	92.857420
_cell_angle_beta	95.460826
_cell_angle_gamma	92.870731
loop_
_atom_site_label
_atom_site_type_symbol
_atom_site_fract_x
_atom_site_fract_y
_atom_site_fract_z
O1	O	1.699929	0.071890	-0.174105
O2	O	1.328734	0.071903	-0.190997
O3	O	1.522777	0.071891	0.003047
O4	O	1.505885	0.071902	-0.368148
O5	O	1.511002	-0.071997	-0.008682
O6	O	1.316958	-0.071985	-0.202725
O7	O	1.688153	-0.071998	-0.185833
Cu8	Cu	1.501481	-0.085129	-0.195350
Cu9	Cu	1.515406	0.085035	-0.181480
O10	O	1.494110	-0.071986	-0.379877
C11	C	1.275315	-0.000039	-0.195585
C12	C	1.133686	-0.000034	-0.191767
N13	N	1.491695	-0.204814	-0.205105
C14	C	1.065545	-0.000046	-0.068304
C15	C	0.979224	0.070898	-0.120844
C16	C	0.967648	-0.070964	-0.132437
C17	C	1.049235	0.070969	-0.244354
C18	C	1.037664	-0.070957	-0.255935
C19	C	0.951371	0.000004	-0.308564
C20	C	1.573947	-0.250096	-0.122913
C21	C	1.566558	-0.340668	-0.130302
C22	C	1.476923	-0.385957	-0.219891
C23	C	1.394662	-0.340669	-0.302086
C24	C	1.402046	-0.250098	-0.294690
C25	C	1.450325	-0.659422	-0.246514
C26	C	1.442950	-0.749999	-0.253907
C27	C	1.614845	-0.749992	-0.082121
C28	C	1.622226	-0.659420	-0.074737
C29	C	1.539961	-0.614139	-0.156928
C30	C	1.469371	-0.478536	-0.227449
C31	C	1.547507	-0.521562	-0.149363
C32	C	1.741573	-0.000054	-0.181245
C33	C	1.883202	-0.000053	-0.185062
C34	C	1.515614	-0.000052	0.044714
C35	C	1.511797	-0.000051	0.186344
N36	N	1.525202	0.204719	-0.171715
C37	C	1.501274	-0.000041	-0.421544
C38	C	1.505091	-0.000037	-0.563173
C39	C	1.388333	-0.000040	0.254485
C40	C	1.440850	-0.070986	0.340824
C41	C	1.452489	0.070876	0.352362
C42	C	1.564360	-0.071055	0.270813
C43	C	1.575987	0.070871	0.282347
C44	C	1.628593	-0.000093	0.368657
H45	H	0.953118	0.130875	-0.063715
H46	H	1.383701	-0.130962	0.366947
O47	O	1.389781	0.150330	0.399877
H48	H	1.290064	0.150177	0.353697
O49	O	1.655271	-0.389515	-0.041658
H50	H	1.714373	-0.430773	-0.099341
O51	O	1.718893	-0.610571	0.021901
H52	H	1.774840	-0.657276	0.077824
H53	H	1.620484	-0.484685	-0.076416
O54	O	1.096568	0.150529	-0.306967
H55	H	1.202092	0.149935	-0.309249
O56	O	0.920123	-0.150420	-0.069700
H57	H	0.872290	-0.130442	0.016129
O58	O	1.670621	-0.201249	-0.026280
H59	H	1.726564	-0.247956	0.029641
O60	O	0.885913	0.000042	-0.443148
H61	H	0.918775	0.058987	-0.489273
H62	H	1.063801	-0.130936	-0.313022
O63	O	1.703561	-0.798827	0.006537
H64	H	1.683365	-0.869415	-0.013645
O65	O	1.131323	0.000042	0.066165
H66	H	1.186539	-0.058894	0.076159
O67	O	1.763170	-0.000097	0.434141
H68	H	1.772692	-0.058448	0.490752
H69	H	1.286815	-0.000108	0.204828
H70	H	1.369954	-0.786869	-0.326866
H71	H	1.383343	-0.622562	-0.313440
O72	O	1.651631	0.150315	0.247678
H73	H	1.604999	0.209125	0.280192
H74	H	1.335066	-0.213230	-0.361618
O75	O	1.297985	-0.389509	-0.398723
H76	H	1.306679	-0.460097	-0.390071
H77	H	1.611641	-0.131102	0.235086
O78	O	1.372710	-0.527387	-0.324091
H79	H	1.306867	-0.568670	-0.273161
