data_functionalizedCrystal
_audit_creation_method	'MofGen! by Chris Wilmer'
_symmetry_space_group_name_H-M	'P1'
_symmetry_Int_Tables_number	1
_symmetry_cell_setting	triclinic
loop_
_symmetry_equiv_pos_as_xyz
  x,y,z
_cell_length_a	16.120444
_cell_length_b	10.686220
_cell_length_c	10.685880
_cell_angle_alpha	90.358431
_cell_angle_beta	97.443899
_cell_angle_gamma	82.928061
loop_
_atom_site_label
_atom_site_type_symbol
_atom_site_fract_x
_atom_site_fract_y
_atom_site_fract_z
Zn1	Zn	-0.262277	-1.953698	-0.583886
Zn2	Zn	-0.392929	-1.928237	-0.384850
Zn3	Zn	-0.263989	-1.727707	-0.390349
Zn4	Zn	-0.414286	-1.733143	-0.612374
O5	O	-0.333370	-1.835696	-0.492865
O6	O	-0.269954	-2.126546	-0.543260
O7	O	-0.367604	-1.888705	-0.209365
O8	O	-0.146184	-1.766066	-0.406401
O9	O	-0.365944	-2.107840	-0.397029
O10	O	-0.144926	-1.932101	-0.548592
O11	O	-0.272872	-1.741376	-0.213404
O12	O	-0.293581	-1.552202	-0.434025
O13	O	-0.402342	-1.775331	-0.784811
O14	O	-0.404003	-1.556196	-0.597146
O15	O	-0.290662	-1.937372	-0.763881
O16	O	-0.513340	-1.893976	-0.424653
O17	O	-0.529031	-1.750642	-0.591814
C18	C	-0.351296	-1.508506	-0.519274
C19	C	-0.358986	-1.368533	-0.530603
C20	C	-0.551672	-1.820172	-0.510753
C21	C	-0.645058	-1.813649	-0.518438
C22	C	-0.348693	-1.859798	-0.821314
C23	C	-0.355223	-1.870069	-0.961279
C24	C	-0.849849	-1.869862	-0.453243
C25	C	-0.816028	-1.801764	-0.532481
C26	C	-0.720891	-1.808379	-0.524665
C27	C	-0.944994	-1.863249	-0.461057
C28	C	-0.114216	-1.851317	-0.474932
C29	C	-0.020825	-1.857974	-0.467290
C30	C	-0.315376	-2.164164	-0.466354
C31	C	-0.307707	-2.304138	-0.455056
C32	C	-0.318042	-1.811765	-0.165683
C33	C	-0.311262	-1.801754	-0.025679
H34	H	-0.807359	-1.933125	-0.379540
C35	C	-0.412008	-1.958748	-1.030348
C36	C	-0.385425	-2.082328	-0.986857
C37	C	-0.437719	-2.164049	-1.050440
H38	H	-0.409037	-1.954303	-1.118382
H39	H	-0.468489	-1.934807	-1.014925
H40	H	-0.328958	-2.106262	-1.002290
H41	H	-0.388399	-2.086812	-0.898832
H42	H	-0.494200	-2.140108	-1.035018
H43	H	-0.434745	-2.159594	-1.138471
H44	H	-0.419695	-2.247905	-1.020933
H45	H	-0.257923	-1.356089	-0.381709
H46	H	-0.858523	-1.738496	-0.606188
C47	C	-0.425296	-1.299041	-0.628372
C48	C	-0.419984	-1.169369	-0.620579
C49	C	-0.481047	-1.105316	-0.710633
H50	H	-0.479742	-1.315023	-0.612806
H51	H	-0.415862	-1.327558	-0.710322
H52	H	-0.429425	-1.140862	-0.538649
H53	H	-0.365552	-1.153350	-0.636158
H54	H	-0.471613	-1.133834	-0.792582
H55	H	-0.535489	-1.121308	-0.695059
H56	H	-0.477446	-1.017329	-0.705366
H57	H	-0.268632	-1.735400	-0.973739
