data_functionalizedCrystal
_audit_creation_method	'MofGen! by Chris Wilmer'
_symmetry_space_group_name_H-M	'P1'
_symmetry_Int_Tables_number	1
_symmetry_cell_setting	triclinic
loop_
_symmetry_equiv_pos_as_xyz
  x,y,z
_cell_length_a	23.096457
_cell_length_b	14.395555
_cell_length_c	14.395555
_cell_angle_alpha	90.002465
_cell_angle_beta	60.000080
_cell_angle_gamma	60.000592
loop_
_atom_site_label
_atom_site_type_symbol
_atom_site_fract_x
_atom_site_fract_y
_atom_site_fract_z
Zr1	Zr	0.633707	-0.121818	0.894936
O2	O	0.754502	-0.270148	0.746605
O3	O	0.512919	-0.076352	0.940404
O4	O	0.633710	-0.270146	0.940402
O5	O	0.633706	0.076520	0.746612
O6	O	0.633706	-0.270138	1.093276
O7	O	0.633710	-0.076354	0.746607
O8	O	0.417632	0.076523	1.093279
O9	O	0.849780	-0.270141	0.746609
O10	O	0.562596	-0.056949	1.073888
O11	O	0.562596	0.057133	0.959803
O12	O	0.704812	-0.171034	0.959801
O13	O	0.704812	-0.056951	0.845717
Zr14	Zr	0.633694	0.122012	1.138761
Zr15	Zr	0.633701	-0.121805	1.138752
Zr16	Zr	0.633701	0.121999	0.894944
Zr17	Zr	0.785665	-0.121807	0.894942
Zr18	Zr	0.481736	0.122001	1.138755
O19	O	0.754482	0.076546	1.093293
O20	O	0.754492	-0.270129	1.093281
O21	O	0.754492	0.076528	0.746617
O22	O	0.512900	0.270342	1.287092
O23	O	0.512909	-0.076334	1.287079
O24	O	0.512909	0.270323	0.940416
O25	O	0.633695	-0.076326	1.287084
O26	O	0.633691	0.270340	1.093295
O27	O	0.633695	0.270332	0.940421
O28	O	0.633691	0.076548	1.287090
O29	O	0.849774	-0.270131	0.940411
O30	O	0.417627	0.270325	1.093286
O31	O	0.417622	0.270335	1.287088
O32	O	0.417627	0.076534	1.287081
O33	O	0.849774	-0.076340	0.746616
O34	O	0.849769	-0.076329	0.940417
O35	O	0.562589	0.171228	1.073895
O36	O	0.562589	0.057145	1.187980
O37	O	0.704805	-0.056939	1.073893
O38	O	0.704805	0.057143	0.959809
C39	C	0.443625	0.000084	1.016841
C40	C	0.379115	0.000080	1.016838
C41	C	0.633709	0.000081	0.711871
C42	C	0.633712	0.000075	0.608364
C43	C	0.633692	0.305074	1.016859
C44	C	0.633689	0.408581	1.016863
C45	C	0.348814	-0.059474	1.076381
C46	C	0.288192	-0.059465	1.076392
C47	C	0.257884	0.000083	1.016838
C48	C	0.288189	0.059650	0.957292
C49	C	0.348805	0.059648	0.957292
N50	N	0.195492	-0.008180	0.919921
N51	N	0.137911	-0.008185	0.919923
C52	C	0.075253	0.000093	1.016837
N53	N	0.072357	0.008354	1.113746
N54	N	0.129946	0.008353	1.113742
C55	C	0.192157	0.000092	1.016832
C56	C	-0.020783	-0.059453	1.076397
C57	C	-0.081410	-0.059436	1.076412
C58	C	-0.081405	0.059671	0.957301
C59	C	-0.020785	0.059662	0.957298
C60	C	0.009525	0.000093	1.016843
C61	C	0.823776	0.000110	1.016856
C62	C	0.888286	0.000114	1.016859
C63	C	0.633709	-0.304880	1.016838
C64	C	0.633712	-0.408387	1.016834
C65	C	0.556147	0.531374	1.079063
C66	C	0.594908	0.562207	1.124146
C67	C	0.594931	0.562171	0.971802
C68	C	0.672451	0.438050	1.062009
C69	C	0.672462	0.438018	0.909605
C70	C	0.711281	0.468778	0.954662
C71	C	0.711255	-0.062119	0.485571
C72	C	0.672493	-0.107198	0.454732
C73	C	0.672470	0.045146	0.454780
C74	C	0.594950	-0.045067	0.578889
C75	C	0.594939	0.107337	0.578934
C76	C	0.556120	0.062285	0.548169
C77	C	0.633692	0.000113	1.321826
C78	C	0.633689	0.000119	1.425332
C79	C	0.443616	0.000100	1.321818
C80	C	0.379104	0.000101	1.425322
C81	C	0.443616	0.305061	1.016851
C82	C	0.379104	0.408564	1.016852
C83	C	0.443608	0.305078	1.321829
C84	C	0.379092	0.408585	1.425336
C85	C	0.823793	-0.304884	0.711868
C86	C	0.888309	-0.408391	0.608361
C87	C	0.823785	0.000094	0.711879
C88	C	0.888297	0.000093	0.608375
C89	C	0.823785	-0.304867	1.016845
C90	C	0.888297	-0.408370	1.016844
C91	C	0.348811	-0.059464	1.414373
C92	C	0.288203	-0.059486	1.511617
C93	C	0.257884	0.000065	1.619808
C94	C	0.288183	0.059633	1.630754
C95	C	0.348794	0.059647	1.533512
C96	C	0.348804	0.516736	1.076408
C97	C	0.288196	0.613996	1.076404
C98	C	0.257884	0.603082	1.016851
C99	C	0.288190	0.494899	0.957289
C100	C	0.348801	0.397641	0.957286
C101	C	0.348795	0.397644	1.533505
C102	C	0.288184	0.494891	1.630771
C103	C	0.257867	0.603078	1.619865
C104	C	0.288171	0.614018	1.511684
C105	C	0.348785	0.516772	1.414421
C106	C	0.918614	-0.397450	0.500191
C107	C	0.979243	-0.494697	0.402926
C108	C	1.009563	-0.602884	0.413832
C109	C	0.979256	-0.613824	0.522012
C110	C	0.918632	-0.516578	0.619276
C111	C	0.918596	0.059648	0.619323
C112	C	0.979221	0.059643	0.522080
C113	C	1.009542	0.000088	0.413889
C114	C	0.979241	-0.059475	0.402943
C115	C	0.918621	-0.059476	0.500185
C116	C	0.918590	-0.397419	1.076409
C117	C	0.979199	-0.494661	1.076430
C118	C	1.009518	-0.602852	1.016880
C119	C	0.979219	-0.613800	0.957313
C120	C	0.918607	-0.516560	0.957299
H121	H	0.373489	-0.107975	1.124870
H122	H	0.562192	0.198010	0.632450
C123	C	1.012563	-0.482644	0.283942
H124	H	0.985809	-0.404282	0.291386
H125	H	1.069788	-0.518085	0.243521
H126	H	1.002630	-0.518113	0.243523
C127	C	0.254816	0.125156	1.749764
H128	H	0.281535	0.160638	1.742370
H129	H	0.197588	0.181495	1.790156
H130	H	0.264750	0.073755	1.790184
H131	H	0.208530	0.000045	1.698980
C132	C	0.191208	0.710073	1.016870
H133	H	0.177503	0.776056	1.060881
H134	H	0.211070	0.710091	0.941002
H135	H	0.143907	0.710088	1.048768
C136	C	0.550649	0.634449	0.920326
H137	H	0.587527	0.641167	0.854867
H138	H	0.531672	0.598808	0.899441
H139	H	0.505429	0.707978	0.974922
C140	C	0.467574	0.565729	1.150209
H141	H	0.458577	0.536632	1.103273
H142	H	0.458953	0.535432	1.210732
H143	H	0.430546	0.646327	1.180501
C144	C	1.012545	0.125163	0.534135
H145	H	1.052999	0.116627	0.460731
H146	H	0.969026	0.203511	0.574541
H147	H	1.036182	0.095749	0.574557
H148	H	0.263516	-0.107962	1.124881
C149	C	-0.114753	-0.124932	1.141926
H150	H	-0.155205	-0.116386	1.133414
H151	H	-0.071244	-0.203283	1.112519
H152	H	-0.138401	-0.095509	1.220278
C153	C	0.382156	-0.124978	1.295374
H154	H	0.422589	-0.116440	1.239016
H155	H	0.405808	-0.203326	1.286843
H156	H	0.338637	-0.095571	1.286844
H157	H	0.705208	0.384507	0.818930
C158	C	0.254876	-0.125000	1.499562
H159	H	0.214442	-0.116497	1.572965
H160	H	0.231229	-0.095581	1.459157
H161	H	0.298402	-0.203351	1.459138
H162	H	0.263501	0.486029	0.908802
H163	H	1.058927	-0.682059	0.334625
C164	C	1.076191	-0.709811	1.016897
H165	H	1.089909	-0.775819	0.972908
H166	H	1.123479	-0.709804	0.985023
H167	H	1.056307	-0.709799	1.092783
C168	C	0.716750	0.096637	0.382530
H169	H	0.771841	0.052344	0.359530
H170	H	0.715997	0.096938	0.317153
H171	H	0.689738	0.172393	0.426353
H172	H	0.263509	0.108135	0.908804
C173	C	0.382102	0.528815	1.295438
H174	H	0.422548	0.455411	1.239065
H175	H	0.338578	0.569231	1.286927
H176	H	0.405749	0.569226	1.286915
H177	H	0.373462	0.309566	0.908793
C178	C	0.382100	0.125189	1.545569
H179	H	0.355352	0.160660	1.623933
H180	H	0.439328	0.073809	1.510112
H181	H	0.372149	0.181557	1.510120
H182	H	0.776824	-0.114795	0.460128
C183	C	0.254864	0.732983	1.141937
H184	H	0.281590	0.725544	1.177418
H185	H	0.264803	0.773405	1.090548
H186	H	0.197633	0.773397	1.198297
C187	C	0.012557	-0.124963	1.141901
H188	H	0.053006	-0.116448	1.133360
H189	H	-0.030956	-0.095552	1.220252
H190	H	0.036206	-0.203316	1.112483
H191	H	0.373476	0.108144	0.908802
C192	C	1.012525	-0.482604	1.141944
H193	H	1.052959	-0.556007	1.133441
H194	H	1.036172	-0.442199	1.112524
H195	H	0.968999	-0.442180	1.220295
C196	C	0.382138	0.278648	1.545518
H197	H	0.422574	0.222287	1.472106
H198	H	0.405786	0.270123	1.585923
H199	H	0.338619	0.270118	1.585931
C200	C	1.012582	-0.732814	0.891803
H201	H	1.053025	-0.789149	0.900337
H202	H	0.969080	-0.741371	0.921192
H203	H	1.036245	-0.741351	0.813446
H204	H	0.893950	-0.525492	0.908790
C205	C	0.716764	-0.229705	0.382418
H206	H	0.679875	-0.235975	0.375708
H207	H	0.761982	-0.247658	0.308899
H208	H	0.735738	-0.281060	0.418047
C209	C	-0.114736	0.125173	0.891793
H210	H	-0.155174	0.116641	0.900315
H211	H	-0.138382	0.203521	0.921201
H212	H	-0.071216	0.095752	0.813437
H213	H	1.003950	-0.701921	0.530879
H214	H	0.003889	0.108152	0.908807
C215	C	0.254853	0.482838	1.749754
H216	H	0.281583	0.404476	1.742311
H217	H	0.264789	0.518285	1.790181
H218	H	0.197622	0.518301	1.790168
C219	C	0.550717	-0.096686	0.650956
H220	H	0.551021	-0.096424	0.716705
H221	H	0.495779	-0.052834	0.673356
H222	H	0.578080	-0.172665	0.607267
H223	H	0.562134	0.615720	1.214842
C224	C	0.254819	0.733024	1.499696
H225	H	0.281545	0.725625	1.421345
H226	H	0.197591	0.773432	1.535172
H227	H	0.264760	0.773431	1.535165
H228	H	0.893958	-0.525500	0.707349
H229	H	0.705199	0.384689	1.100210
H230	H	0.776904	0.443122	0.902062
H231	H	0.893914	0.108152	0.707409
C232	C	1.076220	0.000102	0.306932
H233	H	1.089913	0.044112	0.328958
H234	H	1.123520	-0.075767	0.262929
H235	H	1.056351	0.031997	0.262936
C236	C	0.467475	0.133341	0.582812
H237	H	0.440064	0.101167	0.626119
H238	H	0.439732	0.209195	0.627231
H239	H	0.467946	0.133474	0.516446
H240	H	0.373478	0.525644	1.124903
C241	C	1.012591	-0.124972	0.283932
H242	H	0.985871	-0.160451	0.291327
H243	H	1.002656	-0.073558	0.243531
H244	H	1.069823	-0.181328	0.243521
H245	H	0.893930	-0.309367	0.491289
C246	C	0.191187	0.710039	1.726861
H247	H	0.177483	0.688018	1.792841
H248	H	0.211043	0.754047	1.726885
H249	H	0.143886	0.754029	1.726875
C250	C	0.885288	-0.124974	0.488128
H251	H	0.912026	-0.160428	0.409764
H252	H	0.895214	-0.181334	0.523584
H253	H	0.828059	-0.073560	0.523578
H254	H	0.893914	-0.309333	1.124902
