data_functionalizedCrystal
_audit_creation_method	'MofGen! by Chris Wilmer'
_symmetry_space_group_name_H-M	'P1'
_symmetry_Int_Tables_number	1
_symmetry_cell_setting	triclinic
loop_
_symmetry_equiv_pos_as_xyz
  x,y,z
_cell_length_a	18.050591
_cell_length_b	18.050589
_cell_length_c	17.640968
_cell_angle_alpha	101.226882
_cell_angle_beta	101.220701
_cell_angle_gamma	90.027061
loop_
_atom_site_label
_atom_site_type_symbol
_atom_site_fract_x
_atom_site_fract_y
_atom_site_fract_z
Zn1	Zn	1.220238	-0.210794	0.446869
Zn2	Zn	1.720238	0.289206	0.946869
Zn3	Zn	1.195024	-0.360099	0.314696
Zn4	Zn	1.695024	0.139901	0.814696
Zn5	Zn	1.070935	-0.235922	0.314711
Zn6	Zn	1.570935	0.264078	0.814711
Zn7	Zn	1.096000	-0.334949	0.446845
Zn8	Zn	1.596000	0.165051	0.946845
O9	O	1.145549	-0.285441	0.380780
O10	O	1.645549	0.214559	0.880780
O11	O	1.320818	-0.230609	0.429339
O12	O	1.820818	0.269391	0.929339
O13	O	1.157521	-0.364669	0.204085
O14	O	1.657521	0.135331	0.704085
O15	O	1.090803	-0.128661	0.332258
O16	O	1.590803	0.371339	0.832258
O17	O	1.302294	-0.340303	0.332233
O18	O	1.802294	0.159697	0.832233
O19	O	1.200495	-0.110200	0.429354
O20	O	1.700495	0.389800	0.929354
O21	O	1.066354	-0.273436	0.204096
O22	O	1.566354	0.226564	0.704096
O23	O	0.970335	-0.249049	0.332235
O24	O	1.470335	0.250951	0.832235
O25	O	1.133523	-0.297438	0.557461
O26	O	1.633523	0.202562	1.057461
O27	O	0.988750	-0.321804	0.429313
O28	O	1.488750	0.178196	0.929313
O29	O	1.224799	-0.206222	0.557478
O30	O	1.724799	0.293778	1.057478
O31	O	1.181826	-0.460691	0.332209
O32	O	1.681826	0.039309	0.832209
O33	O	1.109074	-0.442213	0.429298
O34	O	1.609074	0.057787	0.929298
C35	C	0.952596	-0.285424	0.380774
C36	C	1.452596	0.214576	0.880774
C37	C	0.870053	-0.285432	0.380790
C38	C	1.370053	0.214568	0.880790
C39	C	0.631250	-0.325112	0.433509
C40	C	1.131250	0.174888	0.933509
C41	C	0.666905	-0.356895	0.361361
C42	C	1.166905	0.143105	0.861361
C43	C	0.572932	-0.285455	0.380788
C44	C	1.072932	0.214545	0.880788
C45	C	0.684358	-0.253696	0.452932
C46	C	1.184358	0.246304	0.952932
C47	C	0.718918	-0.285445	0.380793
C48	C	1.218918	0.214555	0.880793
C49	C	0.607493	-0.317281	0.308603
C50	C	1.107493	0.182719	0.808603
C51	C	0.624951	-0.214041	0.400222
C52	C	1.124951	0.285959	0.900222
C53	C	0.660575	-0.245808	0.328025
C54	C	1.160575	0.254192	0.828025
C55	C	0.488834	-0.285463	0.380787
C56	C	0.988834	0.214537	0.880787
C57	C	0.803014	-0.285438	0.380786
C58	C	1.303014	0.214562	0.880786
C59	C	1.145457	-0.478396	0.380767
C60	C	1.645457	0.021604	0.880767
C61	C	1.145491	-0.560938	0.380788
C62	C	1.645491	-0.060938	0.880788
C63	C	1.105973	-0.750371	0.433566
C64	C	1.605973	-0.250371	0.933566
C65	C	1.074165	-0.813513	0.361439
C66	C	1.574165	-0.313513	0.861439
C67	C	1.145565	-0.712066	0.380798
C68	C	1.645565	-0.212066	0.880798
C69	C	1.177412	-0.796004	0.452933
C70	C	1.677412	-0.296004	0.952933
C71	C	1.145638	-0.858048	0.380814
C72	C	1.645638	-0.358048	0.880814
C73	C	1.113714	-0.774129	0.308633
C74	C	1.613714	-0.274129	0.808633
C75	C	1.217002	-0.756606	0.400176
C76	C	1.717002	-0.256606	0.900176
C77	C	1.185210	-0.819735	0.327999
C78	C	1.685210	-0.319735	0.827999
C79	C	1.145522	-0.627969	0.380790
C80	C	1.645522	-0.127969	0.880790
C81	C	1.145679	-0.942145	0.380815
C82	C	1.645679	-0.442145	0.880815
C83	C	1.339256	-0.285459	0.380787
C84	C	1.839256	0.214541	0.880787
C85	C	1.421802	-0.285466	0.380790
C86	C	1.921802	0.214534	0.880790
C87	C	1.184769	-0.246222	0.586952
C88	C	1.684769	0.253778	1.086952
C89	C	1.201483	-0.229509	0.674810
C90	C	1.701483	0.270491	1.174810
C91	C	1.145665	-0.091730	0.380811
C92	C	1.645665	0.408270	0.880811
C93	C	1.145715	-0.009182	0.380824
C94	C	1.645715	0.490818	0.880824
C95	C	1.106524	-0.324455	0.175410
C96	C	1.606524	0.175545	0.675410
C97	C	1.089955	-0.340958	0.087552
C98	C	1.589955	0.159042	0.587552
C99	C	1.018865	-0.412004	0.963719
C100	C	1.518865	0.087996	1.463719
C101	C	1.034585	-0.396291	1.046275
C102	C	1.534585	0.103709	1.546275
C103	C	1.129623	-0.301315	1.046283
C104	C	1.629623	0.198685	1.546283
C105	C	1.113908	-0.317019	0.963725
C106	C	1.613908	0.182981	1.463725
C107	C	1.058529	-0.372365	0.922450
C108	C	1.558529	0.127635	1.422450
C109	C	1.153573	-0.277379	0.922456
C110	C	1.653573	0.222621	1.422456
C111	C	1.137861	-0.293084	0.839905
C112	C	1.637861	0.206916	1.339905
C113	C	1.082486	-0.348429	0.798624
C114	C	1.582486	0.151571	1.298624
C115	C	1.042818	-0.388070	0.839899
C116	C	1.542818	0.111930	1.339899
C117	C	1.208956	-0.222037	0.963733
C118	C	1.708956	0.277963	1.463733
C119	C	1.248620	-0.182397	0.922464
C120	C	1.748620	0.317603	1.422464
C121	C	1.232905	-0.198099	0.839912
C122	C	1.732905	0.301901	1.339912
C123	C	1.177530	-0.253443	0.798630
C124	C	1.677530	0.246557	1.298630
C125	C	1.272574	-0.158458	0.798636
C126	C	1.772574	0.341542	1.298636
C127	C	1.256862	-0.174163	0.716086
C128	C	1.756862	0.325837	1.216086
C129	C	1.161819	-0.269148	0.716080
C130	C	1.661819	0.230852	1.216080
H131	H	1.013788	-0.838405	0.345064
H132	H	1.513788	-0.338405	0.845064
H133	H	1.072418	-0.720253	0.478127
H134	H	1.572418	-0.220253	0.978127
N135	N	0.563490	-0.352953	0.227769
N136	N	1.063490	0.147047	0.727769
H137	H	0.579064	-0.406746	0.212975
H138	H	1.079064	0.093254	0.712975
H139	H	0.574309	-0.323201	0.187954
H140	H	1.074309	0.176799	0.687954
N141	N	0.613727	-0.369595	0.492482
N142	N	1.113727	0.130405	0.992482
H143	H	0.590764	-0.335514	0.533608
H144	H	1.090764	0.164486	1.033608
H145	H	0.661888	-0.390173	0.518829
H146	H	1.161888	0.109827	1.018829
H147	H	1.289160	-0.141883	0.682484
H148	H	1.789160	0.358117	1.182484
N149	N	1.077985	-0.760933	0.227809
N150	N	1.577985	-0.260933	0.727809
H151	H	1.078158	-0.704886	0.228307
H152	H	1.578158	-0.204886	0.728307
H153	H	1.024217	-0.782241	0.213107
H154	H	1.524217	-0.282241	0.713107
N155	N	1.229594	-0.859476	0.268838
N156	N	1.729594	-0.359476	0.768838
H157	H	1.205481	-0.851791	0.214404
H158	H	1.705481	-0.351791	0.714404
H159	H	1.229739	-0.915287	0.269557
H160	H	1.729739	-0.415287	0.769557
H161	H	1.277373	-0.731710	0.416585
H162	H	1.777373	-0.231710	0.916585
N163	N	1.225884	-0.205079	1.052770
N164	N	1.725884	0.294921	1.552770
H165	H	1.266982	-0.164002	1.072656
H166	H	1.766982	0.335998	1.572656
H167	H	1.243249	-0.252273	1.072604
H168	H	1.743249	0.247727	1.572604
N169	N	0.691469	-0.436890	0.339573
N170	N	1.191469	0.063110	0.839573
H171	H	0.681086	-0.466811	0.379423
H172	H	1.181086	0.033189	0.879423
H173	H	0.747347	-0.436207	0.339217
H174	H	1.247347	0.063793	0.839217
H175	H	0.717667	-0.226839	0.513940
H176	H	1.217667	0.273161	1.013940
H177	H	0.673634	-0.212277	0.283391
H178	H	1.173634	0.287723	0.783391
N179	N	1.065517	-0.365349	0.709587
N180	N	1.565517	0.134651	1.209587
H181	H	1.024411	-0.406419	0.689703
H182	H	1.524411	0.093581	1.189703
H183	H	1.112695	-0.382752	0.689736
H184	H	1.612695	0.117248	1.189736
N185	N	0.991776	-0.439026	1.090786
N186	N	1.491776	0.060974	1.590786
H187	H	1.010125	-0.420674	1.149345
H188	H	1.510125	0.079326	1.649345
H189	H	1.000542	-0.494817	1.076359
H190	H	1.500542	0.005183	1.576359
H191	H	1.174716	-0.256255	1.079901
H192	H	1.674716	0.243745	1.579901
N193	N	0.983083	-0.447760	0.795371
N194	N	1.483083	0.052240	1.295371
H195	H	0.960335	-0.470490	0.834040
H196	H	1.460335	0.029510	1.334040
H197	H	1.006777	-0.488647	0.761115
H198	H	1.506777	0.011353	1.261115
N199	N	0.600381	-0.134054	0.422008
N200	N	1.100381	0.365946	0.922008
H201	H	0.628702	-0.110099	0.476537
H202	H	1.128702	0.389901	0.976537
H203	H	0.544299	-0.134670	0.421290
H204	H	1.044299	0.365330	0.921290
N205	N	1.213053	-0.809342	0.533726
N206	N	1.713053	-0.309342	1.033726
H207	H	1.183073	-0.783843	0.573533
H208	H	1.683073	-0.283843	1.073533
H209	H	1.266698	-0.787695	0.548699
H210	H	1.766698	-0.287695	1.048699
H211	H	1.116705	-0.314199	0.682471
H212	H	1.616705	0.185801	1.182471
H213	H	0.973751	-0.457055	0.930110
H214	H	1.473751	0.042945	1.430110
H215	H	1.293712	-0.137337	0.956081
H216	H	1.793712	0.362663	1.456081
N217	N	1.332309	-0.098773	0.843159
N218	N	1.832309	0.401227	1.343159
H219	H	1.336246	-0.094843	0.901716
H220	H	1.836246	0.405157	1.401716
H221	H	1.318037	-0.048474	0.828743
H222	H	1.818037	0.451526	1.328743
