data_functionalizedCrystal
_audit_creation_method	'MofGen! by Chris Wilmer'
_symmetry_space_group_name_H-M	'P1'
_symmetry_Int_Tables_number	1
_symmetry_cell_setting	triclinic
loop_
_symmetry_equiv_pos_as_xyz
  x,y,z
_cell_length_a	11.792241
_cell_length_b	14.971486
_cell_length_c	13.448316
_cell_angle_alpha	90.006811
_cell_angle_beta	90.002543
_cell_angle_gamma	83.903772
loop_
_atom_site_label
_atom_site_type_symbol
_atom_site_fract_x
_atom_site_fract_y
_atom_site_fract_z
O1	O	-1.506121	-0.122599	-0.082596
O2	O	-1.006121	0.377401	0.417404
O3	O	-1.175699	-0.135234	-0.082619
O4	O	-0.675699	0.364766	0.417381
O5	O	-1.349766	0.001248	-0.082600
O6	O	-0.849766	0.501248	0.417400
O7	O	-1.332054	-0.259081	-0.082615
O8	O	-0.832054	0.240919	0.417385
O9	O	-1.349744	0.001256	0.082784
O10	O	-0.849744	0.501256	0.582784
O11	O	-1.175677	-0.135226	0.082765
O12	O	-0.675677	0.364774	0.582765
O13	O	-1.506099	-0.122591	0.082788
O14	O	-1.006099	0.377409	0.582788
Cu15	Cu	-1.340886	-0.128907	0.097877
Cu16	Cu	-0.840886	0.371093	0.597877
Cu17	Cu	-1.340912	-0.128917	-0.097708
Cu18	Cu	-0.840912	0.371083	0.402292
O19	O	-1.332032	-0.259073	0.082769
O20	O	-0.832032	0.240927	0.582769
C21	C	-1.348963	0.034580	0.000092
C22	C	-0.848963	0.534580	0.500092
C23	C	-1.346589	0.133887	0.000091
C24	C	-0.846589	0.633887	0.500091
C25	C	-1.133402	-0.134436	0.000070
C26	C	-0.633402	0.365564	0.500070
C27	C	-1.007404	-0.132061	0.000061
C28	C	-0.507404	0.367939	0.500061
C29	C	-1.548396	-0.123389	0.000097
C30	C	-1.048396	0.376611	0.500097
C31	C	-1.674395	-0.125764	0.000099
C32	C	-1.174395	0.374236	0.500099
C33	C	-0.776720	-0.127692	0.000090
C34	C	-0.276720	0.372308	0.500090
C35	C	-0.905089	-0.130120	0.000074
C36	C	-0.405089	0.369880	0.500074
C37	C	-1.332835	-0.292405	0.000075
C38	C	-0.832835	0.207595	0.500075
C39	C	-1.335209	-0.391711	0.000069
C40	C	-0.835209	0.108289	0.500069
N41	N	-1.340876	-0.128900	0.235442
N42	N	-0.840876	0.371100	0.735442
C43	C	-1.448849	0.190702	0.000099
C44	C	-0.948849	0.690702	0.500099
C45	C	-1.446612	0.284011	0.000088
C46	C	-0.946612	0.784011	0.500088
C47	C	-1.342114	0.320502	0.000078
C48	C	-0.842114	0.820502	0.500078
C49	C	-1.239846	0.263679	0.000067
C50	C	-0.739846	0.763679	0.500067
C51	C	-1.242084	0.170372	0.000070
C52	C	-0.742084	0.670372	0.500070
C53	C	-1.235188	0.458160	0.000063
C54	C	-0.735188	0.958160	0.500063
C55	C	-1.232949	0.551473	0.000062
C56	C	-0.732949	1.051473	0.500062
C57	C	-1.439715	0.571798	0.000081
C58	C	-0.939715	1.071798	0.500081
C59	C	-1.441954	0.478492	0.000085
C60	C	-0.941954	0.978492	0.500085
C61	C	-1.339685	0.421675	0.000076
C62	C	-0.839685	0.921675	0.500076
N63	N	-1.340931	-0.128918	-0.235273
N64	N	-0.840931	0.371082	0.264727
C65	C	-1.417977	-0.068491	0.287490
C66	C	-0.917977	0.431509	0.787490
C67	C	-1.417984	-0.068490	0.391594
C68	C	-0.917984	0.431510	0.891594
C69	C	-1.340895	-0.128903	0.443646
C70	C	-0.840895	0.371097	0.943646
C71	C	-1.263786	-0.189315	0.391590
C72	C	-0.763786	0.310685	0.891590
C73	C	-1.263774	-0.189311	0.287489
C74	C	-0.763774	0.310689	0.787489
C75	C	-1.263817	-0.189321	0.608570
C76	C	-0.763817	0.310679	1.108570
C77	C	-1.263830	-0.189327	0.712678
C78	C	-0.763830	0.310673	1.212678
C79	C	-1.418027	-0.068500	0.712675
C80	C	-0.918027	0.431500	1.212675
C81	C	-1.418016	-0.068496	0.608574
C82	C	-0.918016	0.431504	1.108574
C83	C	-1.340908	-0.128909	0.556525
C84	C	-0.840908	0.371091	1.056525
H85	H	-1.533944	0.160999	0.000114
H86	H	-1.033944	0.660999	0.500114
Cl87	Cl	-1.166875	-0.265270	0.543141
Cl88	Cl	-0.666875	0.234730	1.043141
H89	H	-1.147857	0.581181	0.000069
H90	H	-0.647857	1.081181	0.500069
Cl91	Cl	-1.166866	-0.265261	0.457025
Cl92	Cl	-0.666866	0.234739	0.957025
H93	H	-1.154761	0.293397	0.000051
H94	H	-0.654761	0.793397	0.500051
Cl95	Cl	-1.113523	0.098946	0.000056
Cl96	Cl	-0.613523	0.598946	0.500056
H97	H	-1.151910	0.411902	0.000053
H98	H	-0.651910	0.911902	0.500053
Cl99	Cl	-1.514963	0.007445	0.778111
Cl100	Cl	-1.014963	0.507445	1.278111
H101	H	-1.201055	-0.238521	0.755054
H102	H	-0.701055	0.261479	1.255054
Cl103	Cl	-1.575174	0.355433	0.000101
Cl104	Cl	-1.075174	0.855433	0.500101
H105	H	-1.200989	-0.238501	0.245111
H106	H	-0.700989	0.261499	0.745111
H107	H	-1.480793	-0.019307	0.566193
H108	H	-0.980793	0.480693	1.066193
Cl109	Cl	-1.514912	0.007455	0.457028
Cl110	Cl	-1.014912	0.507455	0.957028
Cl111	Cl	-1.573325	0.432619	0.000093
Cl112	Cl	-1.073325	0.932619	0.500093
H113	H	-1.522986	0.618063	0.000086
H114	H	-1.022986	1.118063	0.500086
Cl115	Cl	-1.514901	0.007459	0.222064
Cl116	Cl	-1.014901	0.507459	0.722064
