data_functionalizedCrystal
_audit_creation_method	'MofGen! by Chris Wilmer'
_symmetry_space_group_name_H-M	'P1'
_symmetry_Int_Tables_number	1
_symmetry_cell_setting	triclinic
loop_
_symmetry_equiv_pos_as_xyz
  x,y,z
_cell_length_a	16.959455
_cell_length_b	16.959454
_cell_length_c	16.959447
_cell_angle_alpha	89.978286
_cell_angle_beta	89.987476
_cell_angle_gamma	90.001874
loop_
_atom_site_label
_atom_site_type_symbol
_atom_site_fract_x
_atom_site_fract_y
_atom_site_fract_z
Zn1	Zn	1.208489	-0.314647	-0.446918
Zn2	Zn	1.708489	0.185353	0.053082
Zn3	Zn	1.208455	-0.446840	-0.314759
Zn4	Zn	1.708455	0.053160	0.185241
Zn5	Zn	1.076317	-0.314681	-0.314760
Zn6	Zn	1.576317	0.185319	0.185240
Zn7	Zn	1.076326	-0.446790	-0.446902
Zn8	Zn	1.576326	0.053210	0.053098
O9	O	1.142397	-0.380739	-0.380835
O10	O	1.642397	0.119261	0.119165
O11	O	1.319095	-0.332190	-0.429393
O12	O	1.819095	0.167810	0.070607
O13	O	1.190909	-0.429344	-0.204149
O14	O	1.690909	0.070656	0.295851
O15	O	1.093860	-0.204066	-0.332298
O16	O	1.593860	0.295934	0.167702
O17	O	1.319070	-0.429311	-0.332297
O18	O	1.819070	0.070689	0.167703
O19	O	1.190966	-0.204041	-0.429394
O20	O	1.690966	0.295959	0.070606
O21	O	1.093828	-0.332247	-0.204149
O22	O	1.593828	0.167753	0.295851
O23	O	0.965707	-0.332199	-0.332282
O24	O	1.465707	0.167801	0.167718
O25	O	1.093875	-0.429226	-0.557515
O26	O	1.593875	0.070774	-0.057515
O27	O	0.965714	-0.429258	-0.429367
O28	O	1.465714	0.070742	0.070633
O29	O	1.190975	-0.332141	-0.557527
O30	O	1.690975	0.167859	-0.057527
O31	O	1.190918	-0.557444	-0.332282
O32	O	1.690918	-0.057444	0.167718
O33	O	1.093843	-0.557407	-0.429366
O34	O	1.593843	-0.057407	0.070634
C35	C	0.937030	-0.380727	-0.380823
C36	C	1.437030	0.119273	0.119177
C37	C	0.849174	-0.380741	-0.380837
C38	C	1.349174	0.119259	0.119163
C39	C	1.142399	-0.586106	-0.380839
C40	C	1.642399	-0.086106	0.119161
C41	C	1.142472	-0.673962	-0.380868
C42	C	1.642472	-0.173962	0.119132
C43	C	1.142430	-0.380674	-0.587003
C44	C	1.642430	0.119326	-0.087003
C45	C	1.142444	-0.380646	-0.674860
C46	C	1.642444	0.119354	-0.174860
C47	C	1.348565	-0.380752	-0.380847
C48	C	1.848565	0.119248	0.119153
C49	C	1.436421	-0.380757	-0.380852
C50	C	1.936421	0.119243	0.119148
C51	C	1.807887	-0.431310	-0.330284
C52	C	2.307887	0.068690	0.169716
C53	C	1.807907	-0.330176	-0.431391
C54	C	2.307907	0.169824	0.068609
C55	C	1.725361	-0.330180	-0.431396
C56	C	2.225361	0.169820	0.068604
C57	C	1.684074	-0.380748	-0.380844
C58	C	2.184074	0.119252	0.119156
C59	C	1.725333	-0.431313	-0.330286
C60	C	2.225333	0.068687	0.169714
C61	C	1.684097	-0.279610	-0.481948
C62	C	2.184097	0.220390	0.018052
C63	C	1.601546	-0.279611	-0.481954
C64	C	2.101546	0.220389	0.018046
C65	C	1.560257	-0.330183	-0.431405
C66	C	2.060257	0.169817	0.068595
C67	C	1.601521	-0.380751	-0.380845
C68	C	2.101521	0.119249	0.119155
C69	C	1.560234	-0.431319	-0.330293
C70	C	2.060234	0.068681	0.169707
C71	C	1.601496	-0.481891	-0.279737
C72	C	2.101496	0.018109	0.220263
C73	C	1.684045	-0.481886	-0.279737
C74	C	2.184045	0.018114	0.220263
C75	C	1.477709	-0.330189	-0.431405
C76	C	1.977709	0.169811	0.068595
C77	C	1.477680	-0.431322	-0.330294
C78	C	1.977680	0.068678	0.169706
C79	C	1.142416	-0.174571	-0.380848
C80	C	1.642416	0.325429	0.119152
C81	C	1.142424	-0.086715	-0.380853
C82	C	1.642424	0.413285	0.119147
C83	C	1.193026	0.284776	-0.431420
C84	C	1.693026	0.784776	0.068580
C85	C	1.091909	0.284746	-0.330313
C86	C	1.591909	0.784746	0.169687
C87	C	1.091898	0.202200	-0.330310
C88	C	1.591898	0.702200	0.169690
C89	C	1.142452	0.160938	-0.380862
C90	C	1.642452	0.660938	0.119138
C91	C	1.193018	0.202223	-0.431417
C92	C	1.693018	0.702223	0.068583
C93	C	1.041339	0.160909	-0.279750
C94	C	1.541339	0.660909	0.220250
C95	C	1.041326	0.078358	-0.279745
C96	C	1.541326	0.578358	0.220255
C97	C	1.091877	0.037095	-0.330301
C98	C	1.591877	0.537095	0.169699
C99	C	1.142444	0.078385	-0.380859
C100	C	1.642444	0.578385	0.119141
C101	C	1.192998	0.037123	-0.431411
C102	C	1.692998	0.537123	0.068589
C103	C	1.243562	0.078412	-0.481973
C104	C	1.743562	0.578412	0.018027
C105	C	1.243569	0.160960	-0.481974
C106	C	1.743569	0.660960	0.018026
C107	C	1.091870	-0.045453	-0.330301
C108	C	1.591870	0.454547	0.169699
C109	C	1.192990	-0.045430	-0.431408
C110	C	1.692990	0.454570	0.068592
C111	C	1.091983	-0.431110	-1.046332
C112	C	1.591983	0.068890	-0.546332
C113	C	1.193093	-0.330015	-1.046339
C114	C	1.693093	0.169985	-0.546339
C115	C	1.193072	-0.330032	-0.963793
C116	C	1.693072	0.169968	-0.463793
C117	C	1.142506	-0.380589	-0.922513
C118	C	1.642506	0.119411	-0.422513
C119	C	1.091962	-0.431130	-0.963778
C120	C	1.591962	0.068870	-0.463778
C121	C	1.243622	-0.279498	-0.922522
C122	C	1.743622	0.220502	-0.422522
C123	C	1.243603	-0.279513	-0.839971
C124	C	1.743603	0.220487	-0.339971
C125	C	1.193033	-0.330067	-0.798689
C126	C	1.693033	0.169933	-0.298689
C127	C	1.142485	-0.380609	-0.839959
C128	C	1.642485	0.119391	-0.339959
C129	C	1.091920	-0.431167	-0.798679
C130	C	1.591920	0.068833	-0.298679
C131	C	1.041368	-0.481705	-0.839948
C132	C	1.541368	0.018295	-0.339948
C133	C	1.041391	-0.481684	-0.922496
C134	C	1.541391	0.018316	-0.422496
C135	C	1.193009	-0.330089	-0.716140
C136	C	1.693009	0.169911	-0.216140
C137	C	1.091899	-0.431187	-0.716125
C138	C	1.591899	0.068813	-0.216125
C139	C	1.142409	-0.380748	-0.175469
C140	C	1.642409	0.119252	0.324531
C141	C	1.142548	-0.380553	-0.087612
C142	C	1.642548	0.119447	0.412388
H143	H	1.444070	-0.472505	-0.289131
H144	H	1.944070	0.027495	0.210869
N145	N	1.728614	-0.225076	-0.536482
N146	N	2.228614	0.274924	-0.036482
H147	H	1.714245	-0.237344	-0.592952
H148	H	2.214245	0.262656	-0.092952
H149	H	1.714228	-0.168625	-0.524146
H150	H	2.214228	0.331375	-0.024146
N151	N	1.037342	-0.089983	-0.275771
N152	N	1.537342	0.410017	0.224229
H153	H	1.045006	-0.148539	-0.283439
H154	H	1.545006	0.351461	0.216561
H155	H	1.049647	-0.075573	-0.219322
H156	H	1.549647	0.424427	0.280678
N157	N	1.037346	-0.485705	-0.671603
N158	N	1.537346	0.014295	-0.171603
H159	H	1.005325	-0.517711	-0.710274
H160	H	1.505325	-0.017711	-0.210274
H161	H	1.069499	-0.522300	-0.637344
H162	H	1.569499	-0.022300	-0.137344
N163	N	1.298124	-0.225003	-0.795468
N164	N	1.798124	0.274997	-0.295468
H165	H	1.285855	-0.168524	-0.809847
H166	H	1.785855	0.331476	-0.309847
H167	H	1.290415	-0.232748	-0.736924
H168	H	1.790415	0.267252	-0.236924
N169	N	1.728550	-0.536415	-0.225204
N170	N	2.228550	-0.036415	0.274796
H171	H	1.689871	-0.568452	-0.193178
H172	H	2.189871	-0.068452	0.306822
H173	H	1.762813	-0.572982	-0.257372
H174	H	2.262813	-0.072982	0.242628
H175	H	1.841486	-0.472486	-0.289125
H176	H	2.341486	0.027514	0.210875
H177	H	1.841528	-0.289002	-0.472545
H178	H	2.341528	0.210998	0.027455
N179	N	1.433209	-0.275644	-0.485923
N180	N	1.933209	0.224356	0.014077
H181	H	1.447590	-0.287896	-0.542399
H182	H	1.947590	0.212104	-0.042399
H183	H	1.374664	-0.283342	-0.478189
H184	H	1.874664	0.216658	0.021811
H185	H	1.000201	-0.522873	-0.806327
H186	H	1.500201	-0.022873	-0.306327
H187	H	1.284794	-0.238342	-0.956138
H188	H	1.784794	0.261658	-0.456138
H189	H	1.234193	0.318395	-0.472589
H190	H	1.734193	0.818395	0.027411
H191	H	1.567957	-0.238433	-0.523121
H192	H	2.067957	0.261567	-0.023121
N193	N	1.037394	0.329244	-0.275783
N194	N	1.537394	0.829244	0.224217
H195	H	1.045075	0.387803	-0.283453
H196	H	1.545075	0.887803	0.216547
H197	H	0.980941	0.314828	-0.288079
H198	H	1.480941	0.814828	0.211921
N199	N	1.247501	-0.089932	-0.485950
N200	N	1.747501	0.410068	0.014050
H201	H	1.279526	-0.051248	-0.517982
H202	H	1.779526	0.448752	-0.017982
H203	H	1.284079	-0.124200	-0.453789
H204	H	1.784079	0.375800	0.046211
H205	H	1.000183	0.194507	-0.238588
H206	H	1.500183	0.694507	0.261412
N207	N	1.298092	0.033913	-0.536499
N208	N	1.798092	0.533913	-0.036499
H209	H	1.334715	-0.000347	-0.504376
H210	H	1.834715	0.499653	-0.004376
H211	H	1.265915	-0.000279	-0.573112
H212	H	1.765915	0.499721	-0.073112
N213	N	1.037459	-0.485623	-1.090827
N214	N	1.537459	0.014377	-0.590827
H215	H	0.980983	-0.473343	-1.076455
H216	H	1.480983	0.026657	-0.576455
H217	H	1.045200	-0.477922	-1.149373
H218	H	1.545200	0.022078	-0.649373
H219	H	1.284737	0.194582	-0.523139
H220	H	1.784737	0.694582	-0.023139
H221	H	1.000153	0.044748	-0.238574
H222	H	1.500153	0.544748	0.261426
N223	N	1.247533	-0.275599	-0.671623
N224	N	1.747533	0.224401	-0.171623
H225	H	1.235278	-0.219114	-0.685989
H226	H	1.735278	0.280886	-0.185989
H227	H	1.239816	-0.283357	-0.613081
H228	H	1.739816	0.216643	-0.113081
H229	H	1.000237	-0.522832	-0.956105
H230	H	1.500237	-0.022832	-0.456105
N231	N	1.247635	-0.275493	-1.090858
N232	N	1.747635	0.224507	-0.590858
H233	H	1.239980	-0.283151	-1.149415
H234	H	1.739980	0.216849	-0.649415
H235	H	1.235332	-0.219043	-1.076441
H236	H	1.735332	0.280957	-0.576441
H237	H	1.567869	-0.523061	-0.238574
H238	H	2.067869	-0.023061	0.261426
