data_functionalizedCrystal
_audit_creation_method	'MofGen! by Chris Wilmer'
_symmetry_space_group_name_H-M	'P1'
_symmetry_Int_Tables_number	1
_symmetry_cell_setting	triclinic
loop_
_symmetry_equiv_pos_as_xyz
  x,y,z
_cell_length_a	6.817900
_cell_length_b	16.306198
_cell_length_c	16.305550
_cell_angle_alpha	95.373122
_cell_angle_beta	103.455250
_cell_angle_gamma	103.467075
loop_
_atom_site_label
_atom_site_type_symbol
_atom_site_fract_x
_atom_site_fract_y
_atom_site_fract_z
V1	V	-4.026246	-0.117432	-0.263332
O2	O	-4.013841	0.004910	-0.258012
O3	O	-3.977698	-0.232142	-0.261826
O4	O	-3.977652	-0.115947	-0.378045
O5	O	-4.013887	-0.112090	-0.140988
V6	V	-4.509919	-0.102760	-0.248662
O7	O	-4.287177	-0.149615	-0.295509
O8	O	-4.699185	-0.070577	-0.216485
O9	O	-4.335260	0.011951	-0.250168
O10	O	-4.639720	-0.225102	-0.253982
O11	O	-4.639675	-0.108102	-0.371006
O12	O	-4.335306	-0.104245	-0.133949
C13	C	-3.822669	-0.260096	-0.257748
C14	C	-3.864260	-0.353876	-0.257281
C15	C	-4.015214	-0.694623	-0.255576
C16	C	-4.219298	-0.664089	-0.260538
C17	C	-4.176361	-0.566600	-0.261349
C18	C	-3.940325	-0.525574	-0.256421
C19	C	-3.888744	-0.571230	-0.334676
C20	C	-3.933440	-0.668848	-0.334288
C21	C	-3.845294	-0.643281	-0.172946
C22	C	-3.805619	-0.545629	-0.172460
C23	C	-3.897991	-0.430035	-0.256902
C24	C	-4.057544	-0.790162	-0.255101
C25	C	-3.822610	-0.111876	-0.405996
C26	C	-3.864161	-0.111421	-0.499776
C27	C	-4.015248	-0.109658	-0.840517
C28	C	-3.779200	-0.104423	-0.799575
C29	C	-3.736007	-0.105246	-0.702082
C30	C	-3.940291	-0.110532	-0.671472
C31	C	-4.107324	-0.193848	-0.722311
C32	C	-4.149188	-0.193376	-0.819859
C33	C	-4.070003	-0.032243	-0.794476
C34	C	-4.022074	-0.031583	-0.696632
C35	C	-3.897941	-0.111029	-0.575935
C36	C	-4.057607	-0.109167	-0.936055
C37	C	-4.153632	0.039900	-0.254244
C38	C	-4.091278	0.133679	-0.254716
C39	C	-4.153691	-0.108318	-0.105994
C40	C	-4.091377	-0.108769	-0.012212
H41	H	-3.693119	-0.662437	-0.168527
N42	N	-4.037816	-0.267400	-0.701434
N43	N	-4.149489	-0.340408	-0.735477
H44	H	-4.100391	-0.392354	-0.720736
N45	N	-4.082923	-0.711766	-0.412324
N46	N	-4.036723	-0.762884	-0.461914
H47	H	-4.142299	-0.793193	-0.517028
H48	H	-3.901027	0.030042	-0.662096
N49	N	-3.746433	-0.694411	-0.334084
N50	N	-3.743874	-0.747871	-0.393736
H51	H	-3.611804	-0.765922	-0.393600
H52	H	-3.843968	-0.514879	-0.114526
H53	H	-4.169362	-0.030547	-0.675281
H54	H	-3.894788	-0.659834	-0.113088
N55	N	-3.587355	-0.509340	-0.161784
N56	N	-3.482703	-0.456020	-0.097256
H57	H	-3.328543	-0.430404	-0.089720
H58	H	-3.978601	0.030885	-0.807682
N59	N	-3.652646	-0.175816	-0.681815
N60	N	-3.485532	-0.181008	-0.698397
H61	H	-3.426658	-0.230853	-0.684084
N62	N	-4.285855	-0.036129	-0.828133
N63	N	-4.399071	-0.095595	-0.885771
H64	H	-4.551516	-0.098347	-0.909548
H65	H	-4.221391	-0.535490	-0.205421
N66	N	-4.103819	-0.266881	-0.858179
N67	N	-4.126460	-0.279821	-0.937014
H68	H	-4.094408	-0.331733	-0.964075
H69	H	-3.718146	-0.544677	-0.334048
N70	N	-3.577261	-0.030114	-0.657953
N71	N	-3.410191	-0.036529	-0.610807
H72	H	-3.298059	0.016533	-0.579645
N73	N	-3.722649	-0.174197	-0.839291
N74	N	-3.855435	-0.227763	-0.897618
H75	H	-3.815504	-0.277043	-0.925670
N76	N	-3.646133	-0.028926	-0.814946
N77	N	-3.649295	-0.016948	-0.889794
H78	H	-3.555344	0.036374	-0.900670
N79	N	-4.302899	-0.684548	-0.190060
N80	N	-4.213058	-0.721874	-0.135353
H81	H	-4.272102	-0.736328	-0.085574
H82	H	-4.323024	-0.200683	-0.847870
N83	N	-4.378338	-0.708896	-0.335313
N84	N	-4.342031	-0.763218	-0.384965
H85	H	-4.454349	-0.794866	-0.437776
H86	H	-4.282463	-0.554520	-0.321608
H87	H	-3.985083	-0.558145	-0.396811
H88	H	-4.260480	-0.200729	-0.703416
