data_functionalizedCrystal
_audit_creation_method	'MofGen! by Chris Wilmer'
_symmetry_space_group_name_H-M	'P1'
_symmetry_Int_Tables_number	1
_symmetry_cell_setting	triclinic
loop_
_symmetry_equiv_pos_as_xyz
  x,y,z
_cell_length_a	23.532361
_cell_length_b	23.532407
_cell_length_c	9.130307
_cell_angle_alpha	89.992076
_cell_angle_beta	90.002768
_cell_angle_gamma	82.839173
loop_
_atom_site_label
_atom_site_type_symbol
_atom_site_fract_x
_atom_site_fract_y
_atom_site_fract_z
O1	O	0.755274	0.069008	-0.121667
O2	O	0.589407	0.079039	-0.121705
O3	O	0.677343	-0.008909	-0.121658
O4	O	0.667339	0.156956	-0.121714
O5	O	0.677340	-0.008910	0.121941
O6	O	0.589404	0.079038	0.121894
O7	O	0.755272	0.069007	0.121932
Cu8	Cu	0.672338	0.074022	0.144156
Cu9	Cu	0.672341	0.074023	-0.143928
O10	O	0.667336	0.156955	0.121885
C11	C	0.568189	0.078787	0.000091
C12	C	0.504971	0.078032	0.000078
C13	C	0.231729	0.074729	-0.132698
C14	C	0.291128	0.075444	-0.132702
O15	O	0.321856	0.075794	-0.245629
N16	N	0.320832	0.075804	0.000084
C17	C	0.291135	0.075444	0.132883
O18	O	0.321855	0.075816	0.245828
C19	C	0.231736	0.074725	0.132885
C20	C	0.202035	0.074370	0.000090
C21	C	0.202027	0.074373	-0.265482
C22	C	0.142631	0.073659	-0.265478
C23	C	0.112937	0.073301	-0.132690
C24	C	0.142639	0.073657	0.000095
C25	C	0.202040	0.074361	0.265682
C26	C	0.142638	0.073642	0.265673
C27	C	0.112936	0.073287	0.132878
C28	C	0.053549	0.072584	0.132888
N29	N	0.023845	0.072224	0.000101
C30	C	0.053539	0.072582	-0.132687
C31	C	0.415875	0.076953	0.132868
C32	C	0.475271	0.077676	0.132867
C33	C	0.475261	0.077675	-0.132718
C34	C	0.415863	0.076956	-0.132716
C35	C	0.386171	0.076593	0.000082
C36	C	-0.071197	0.071083	-0.132668
C37	C	-0.130598	0.070372	-0.132652
C38	C	-0.130582	0.070371	0.132933
C39	C	-0.071187	0.071085	0.132918
C40	C	-0.041495	0.071440	0.000105
O41	O	0.022784	0.072231	0.245757
O42	O	0.022813	0.072202	-0.245613
C43	C	0.677086	-0.030126	0.000145
C44	C	0.676320	-0.093343	0.000156
C45	C	0.723555	-0.492454	0.000087
C46	C	0.722844	-0.551854	0.000075
O47	O	0.766630	-0.588606	0.000031
N48	N	0.670566	-0.574471	0.000065
C49	C	0.618997	-0.537685	0.000050
O50	O	0.574465	-0.562377	0.000039
C51	C	0.619709	-0.478286	0.000051
C52	C	0.671990	-0.455672	0.000077
C53	C	0.775832	-0.469839	0.000111
C54	C	0.776543	-0.410443	0.000125
C55	C	0.724977	-0.373662	0.000115
C56	C	0.672701	-0.396276	0.000091
C57	C	0.568140	-0.441501	0.000026
C58	C	0.568857	-0.382099	0.000026
C59	C	0.621137	-0.359485	0.000052
C60	C	0.621847	-0.300099	0.000095
N61	N	0.674124	-0.277481	0.000106
C62	C	0.725690	-0.314263	0.000115
C63	C	0.617505	-0.662427	0.000046
C64	C	0.616793	-0.721825	0.000056
C65	C	0.720640	-0.735990	0.000078
C66	C	0.721352	-0.676591	0.000079
C67	C	0.669783	-0.639810	0.000057
C68	C	0.727179	-0.189526	0.000146
C69	C	0.727886	-0.130124	0.000166
C70	C	0.624039	-0.115965	0.000136
C71	C	0.623332	-0.175361	0.000124
C72	C	0.674907	-0.212141	0.000124
O73	O	0.578083	-0.263312	0.000133
O74	O	0.770214	-0.289562	0.000108
C75	C	0.776489	0.069258	0.000133
C76	C	0.839708	0.070014	0.000137
C77	C	0.667592	0.178171	0.000079
C78	C	0.668358	0.241388	0.000058
N79	N	0.672339	0.074021	0.346778
N80	N	0.672344	0.074020	-0.346551
C81	C	0.750238	-0.003835	0.346810
C82	C	0.789190	-0.042761	0.423492
C83	C	0.789196	-0.042762	0.576825
C84	C	0.750244	-0.003833	0.653480
C85	C	0.711291	0.035094	0.576798
C86	C	0.711290	0.035091	0.423461
C87	C	0.633391	0.112946	0.576766
C88	C	0.633387	0.112950	0.423433
C89	C	0.594439	0.151875	0.653421
C90	C	0.555488	0.190805	0.576739
C91	C	0.555484	0.190804	0.423396
C92	C	0.594434	0.151876	0.346751
H93	H	-0.154770	0.070081	0.241046
H94	H	0.750241	-0.003834	0.221957
H95	H	0.391684	0.076667	-0.240850
H96	H	0.226213	0.074648	0.373818
H97	H	0.118465	0.073351	0.373816
N98	N	-0.039183	0.071470	-0.275919
H99	H	-0.019359	0.107076	-0.281859
H100	H	-0.009749	0.036434	-0.281762
H101	H	0.820904	-0.074458	0.361066
N102	N	0.831207	-0.084745	0.659544
H103	H	0.855882	-0.109407	0.587724
H104	H	0.856256	-0.063066	0.723149
H105	H	0.499448	0.077975	0.241002
H106	H	0.526862	-0.352154	0.000006
H107	H	0.523773	0.222496	0.639160
N108	N	0.782808	-0.229185	0.000165
H109	H	0.784827	-0.254151	0.090466
H110	H	0.784806	-0.254104	-0.090198
N111	N	0.750243	-0.003833	0.818860
H112	H	0.742182	-0.042486	0.855806
H113	H	0.788895	0.004277	0.855679
N114	N	0.784277	-0.105734	0.000202
H115	H	0.816834	-0.138052	0.000202
H116	H	0.786837	-0.081389	-0.090095
N117	N	0.776258	-0.775669	0.000068
H118	H	0.809487	-0.752334	0.000079
H119	H	0.778221	-0.800630	0.090370
H120	H	0.594443	0.151871	0.778273
N121	N	0.831452	-0.509508	0.000131
H122	H	0.854280	-0.502261	-0.090159
H123	H	0.854222	-0.502246	0.090506
H124	H	-0.047004	0.071385	0.241050
N125	N	0.566946	-0.199757	0.000117
H126	H	0.534388	-0.167440	0.000118
H127	H	0.564390	-0.224082	-0.090201
N128	N	0.832932	-0.386057	0.000147
H129	H	0.865485	-0.418378	0.000148
H130	H	0.835493	-0.361716	-0.090157
N131	N	-0.162634	0.069989	-0.275886
H132	H	-0.134805	0.070322	-0.360003
H133	H	-0.182459	0.034382	-0.281656
N134	N	0.561877	-0.622764	0.000060
H135	H	0.559856	-0.597811	0.090367
H136	H	0.559880	-0.597833	-0.090297
N137	N	0.777739	-0.652202	0.000107
H138	H	0.810295	-0.684521	0.000118
H139	H	0.780302	-0.627862	-0.090198
N140	N	0.513466	0.232785	0.340692
H141	H	0.488792	0.257443	0.412524
H142	H	0.535117	0.257855	0.277062
N143	N	0.594433	0.151879	0.181371
H144	H	0.625018	0.121312	0.144453
H145	H	0.555767	0.143809	0.144556
N146	N	0.560401	-0.746207	0.000062
H147	H	0.537826	-0.732762	-0.090241
H148	H	0.567813	-0.789414	0.000116
N149	N	0.110601	0.073269	-0.408707
H150	H	0.138433	0.073601	-0.492817
H151	H	0.090780	0.037658	-0.414473
N152	N	0.511751	-0.465882	0.000018
H153	H	0.479198	-0.433560	0.000009
H154	H	0.509189	-0.490213	-0.090288
H155	H	0.582056	-0.086007	0.000133
H156	H	0.499449	0.077966	-0.240842
N157	N	0.234049	0.074755	-0.408716
H158	H	0.206211	0.074419	-0.492820
H159	H	0.253871	0.110364	-0.414528
N160	N	0.383851	0.076566	0.276110
H161	H	0.411739	0.076512	0.360215
H162	H	0.354652	0.111777	0.282325
