data_functionalizedCrystal
_audit_creation_method	'MofGen! by Chris Wilmer'
_symmetry_space_group_name_H-M	'P1'
_symmetry_Int_Tables_number	1
_symmetry_cell_setting	triclinic
loop_
_symmetry_equiv_pos_as_xyz
  x,y,z
_cell_length_a	10.685901
_cell_length_b	19.121111
_cell_length_c	10.686551
_cell_angle_alpha	91.785060
_cell_angle_beta	89.651709
_cell_angle_gamma	92.082673
loop_
_atom_site_label
_atom_site_type_symbol
_atom_site_fract_x
_atom_site_fract_y
_atom_site_fract_z
Zn1	Zn	1.948334	0.337427	-0.589519
Zn2	Zn	1.923263	0.462350	-0.389999
Zn3	Zn	1.722553	0.336116	-0.395788
Zn4	Zn	1.730962	0.444516	-0.614366
O5	O	1.831278	0.395102	-0.497418
O6	O	2.119977	0.362011	-0.550231
O7	O	1.882626	0.452520	-0.215792
O8	O	1.759477	0.238644	-0.413511
O9	O	2.101557	0.453791	-0.403645
O10	O	1.925357	0.239607	-0.555844
O11	O	1.735166	0.359777	-0.220045
O12	O	1.548700	0.342483	-0.437604
O13	O	1.773808	0.423395	-0.786046
O14	O	1.554878	0.422124	-0.598192
O15	O	1.933511	0.344718	-0.767791
O16	O	1.890780	0.557631	-0.427738
O17	O	1.749497	0.544528	-0.592579
C18	C	1.506421	0.380227	-0.521223
C19	C	1.367448	0.373878	-0.531438
C20	C	1.818366	0.576398	-0.512252
C21	C	1.812961	0.653961	-0.518631
C22	C	1.884047	0.697199	-0.435865
C23	C	1.878970	0.770077	-0.441872
C24	C	1.802801	0.799716	-0.530639
C25	C	1.731712	0.756472	-0.613413
C26	C	1.736796	0.683595	-0.607411
C27	C	1.783774	1.019416	-0.553056
C28	C	1.778692	1.092298	-0.559048
C29	C	1.925953	1.105898	-0.387508
C30	C	1.931024	1.033019	-0.381510
C31	C	1.859941	0.989782	-0.464288
C32	C	1.797607	0.874208	-0.536778
C33	C	1.865142	0.915291	-0.458154
C34	C	2.157403	0.410037	-0.473521
C35	C	2.296378	0.416401	-0.463337
C36	C	1.844267	1.213098	-0.482568
C37	C	1.849778	1.135536	-0.476283
C38	C	1.857394	0.382213	-0.823556
C39	C	1.868523	0.376721	-0.962536
C40	C	1.805339	0.407894	-0.172540
C41	C	1.794466	0.413201	-0.033526
H42	H	1.321968	0.332618	-0.597563
H43	H	1.940451	0.341287	-1.008089
H44	H	1.341852	0.457664	-0.397228
O45	O	1.948057	0.811977	-0.361340
C46	C	2.016393	0.770190	-0.281721
H47	H	1.968451	0.716096	-0.276830
H48	H	2.020447	0.795771	-0.183967
H49	H	2.115536	0.764913	-0.319980
H50	H	1.722551	0.448638	-0.987979
O51	O	1.957850	0.668377	-0.349513
C52	C	1.883200	0.626201	-0.270457
H53	H	1.782570	0.644013	-0.271680
H54	H	1.920857	0.631252	-0.170880
H55	H	1.885811	0.569235	-0.304882
H56	H	1.716682	1.116426	-0.631354
H57	H	1.993048	1.008889	-0.309229
H58	H	1.983827	1.141109	-0.320117
O59	O	1.714584	0.977522	-0.633504
C60	C	1.646281	1.019313	-0.713145
H61	H	1.634286	1.073105	-0.666517
H62	H	1.550276	0.993272	-0.731876
H63	H	1.699046	1.025353	-0.805441
H64	H	1.669699	0.780609	-0.685694
H65	H	1.927165	0.891157	-0.385884
O66	O	1.667625	0.641693	-0.687870
C67	C	1.599331	0.683478	-0.767529
H68	H	1.587304	0.737267	-0.720900
H69	H	1.503340	0.657428	-0.786290
H70	H	1.652121	0.689526	-0.859809
O71	O	1.723782	0.903085	-0.623050
C72	C	1.798444	0.945233	-0.702141
H73	H	1.888958	0.962186	-0.652074
H74	H	1.745272	0.993513	-0.726798
H75	H	1.821475	0.914084	-0.791506
