data_functionalizedCrystal
_audit_creation_method	'MofGen! by Chris Wilmer'
_symmetry_space_group_name_H-M	'P1'
_symmetry_Int_Tables_number	1
_symmetry_cell_setting	triclinic
loop_
_symmetry_equiv_pos_as_xyz
  x,y,z
_cell_length_a	16.120490
_cell_length_b	21.295417
_cell_length_c	16.120256
_cell_angle_alpha	92.869836
_cell_angle_beta	90.129807
_cell_angle_gamma	87.121864
loop_
_atom_site_label
_atom_site_type_symbol
_atom_site_fract_x
_atom_site_fract_y
_atom_site_fract_z
Zn1	Zn	1.247403	-0.318979	-0.534503
Zn2	Zn	1.497403	-0.068979	-0.284503
Zn3	Zn	1.747403	0.181021	-0.034503
Zn4	Zn	1.997403	0.431021	0.215497
Zn5	Zn	1.254340	-0.419186	-0.395435
Zn6	Zn	1.504340	-0.169186	-0.145435
Zn7	Zn	1.754340	0.080814	0.104565
Zn8	Zn	2.004340	0.330814	0.354565
Zn9	Zn	1.115394	-0.308333	-0.388425
Zn10	Zn	1.365394	-0.058333	-0.138425
Zn11	Zn	1.615394	0.191667	0.111575
Zn12	Zn	1.865394	0.441667	0.361575
Zn13	Zn	1.108295	-0.418603	-0.527408
Zn14	Zn	1.358295	-0.168603	-0.277408
Zn15	Zn	1.608295	0.081397	-0.027408
Zn16	Zn	1.858295	0.331397	0.222592
O17	O	1.181358	-0.366276	-0.461443
O18	O	1.431358	-0.116276	-0.211443
O19	O	1.681358	0.133724	0.038557
O20	O	1.931358	0.383724	0.288557
O21	O	1.364689	-0.336971	-0.521959
O22	O	1.614689	-0.086971	-0.271959
O23	O	1.864689	0.163029	-0.021959
O24	O	2.114689	0.413029	0.228041
O25	O	1.241782	-0.400270	-0.278139
O26	O	1.491782	-0.150270	-0.028139
O27	O	1.741782	0.099730	0.221861
O28	O	1.991782	0.349730	0.471861
O29	O	1.132973	-0.221660	-0.407839
O30	O	1.382973	0.028340	-0.157839
O31	O	1.632973	0.278340	0.092161
O32	O	1.882973	0.528340	0.342161
O33	O	1.369786	-0.410593	-0.419785
O34	O	1.619786	-0.160593	-0.169785
O35	O	1.869786	0.089407	0.080215
O36	O	2.119786	0.339407	0.330215
O37	O	1.229959	-0.229482	-0.515162
O38	O	1.479959	0.020518	-0.265162
O39	O	1.729959	0.270518	-0.015162
O40	O	1.979959	0.520518	0.234838
O41	O	1.139699	-0.318827	-0.272989
O42	O	1.389699	-0.068827	-0.022989
O43	O	1.639699	0.181173	0.227011
O44	O	1.889699	0.431173	0.477011
O45	O	0.998086	-0.318262	-0.400959
O46	O	1.248086	-0.068262	-0.150959
O47	O	1.498086	0.181738	0.099041
O48	O	1.748086	0.431738	0.349041
O49	O	1.120874	-0.409600	-0.644715
O50	O	1.370874	-0.159600	-0.394715
O51	O	1.620874	0.090400	-0.144715
O52	O	1.870874	0.340400	0.105285
O53	O	0.992871	-0.399277	-0.503069
O54	O	1.242871	-0.149277	-0.253069
O55	O	1.492871	0.100723	-0.003069
O56	O	1.742871	0.350723	0.246931
O57	O	1.223076	-0.336406	-0.649928
O58	O	1.473076	-0.086406	-0.399928
O59	O	1.723076	0.163594	-0.149928
O60	O	1.973076	0.413594	0.100072
O61	O	1.234899	-0.507194	-0.412905
O62	O	1.484899	-0.257194	-0.162905
O63	O	1.734899	-0.007194	0.087095
O64	O	1.984899	0.242806	0.337095
O65	O	1.127601	-0.506766	-0.509866
O66	O	1.377601	-0.256766	-0.259866
O67	O	1.627601	-0.006766	-0.009866
O68	O	1.877601	0.243234	0.240134
C69	C	0.965306	-0.357551	-0.450484
C70	C	1.215306	-0.107551	-0.200484
C71	C	1.465306	0.142449	0.049516
C72	C	1.715306	0.392449	0.299516
C73	C	0.872877	-0.353835	-0.445815
C74	C	1.122877	-0.103835	-0.195815
C75	C	1.372877	0.146165	0.054185
C76	C	1.622877	0.396165	0.304185
C77	C	0.659910	-0.385548	-0.485661
C78	C	0.909910	-0.135548	-0.235661
C79	C	1.159910	0.114452	0.014339
C80	C	1.409910	0.364452	0.264339
C81	C	0.703653	-0.347055	-0.437290
C82	C	0.953653	-0.097055	-0.187290
C83	C	1.203653	0.152945	0.062710
C84	C	1.453653	0.402945	0.312710
C85	C	0.797818	-0.350828	-0.442035
C86	C	1.047818	-0.100828	-0.192035
C87	C	1.297818	0.149172	0.057965
C88	C	1.547818	0.399172	0.307965
C89	C	0.565737	-0.381776	-0.480918
C90	C	0.815737	-0.131776	-0.230918
C91	C	1.065737	0.118224	0.019082
C92	C	1.315737	0.368224	0.269082
C93	C	1.181254	-0.529821	-0.461395
C94	C	1.431254	-0.279821	-0.211395
C95	C	1.681254	-0.029821	0.038605
C96	C	1.931254	0.220179	0.288605
C97	C	1.181284	-0.599791	-0.461407
C98	C	1.431284	-0.349791	-0.211407
C99	C	1.681284	-0.099791	0.038593
C100	C	1.931284	0.150209	0.288593
C101	C	1.231753	-0.636673	-0.517326
C102	C	1.481753	-0.386673	-0.267326
C103	C	1.731753	-0.136673	-0.017326
C104	C	1.981753	0.113327	0.232674
C105	C	1.231781	-0.702418	-0.517348
C106	C	1.481781	-0.452418	-0.267348
C107	C	1.731781	-0.202418	-0.017348
C108	C	1.981781	0.047582	0.232652
C109	C	1.181350	-0.731277	-0.461436
C110	C	1.431350	-0.481277	-0.211436
C111	C	1.681350	-0.231277	0.038564
C112	C	1.931350	0.018723	0.288564
C113	C	1.130872	-0.694386	-0.405512
C114	C	1.380872	-0.444386	-0.155512
C115	C	1.630872	-0.194386	0.094488
C116	C	1.880872	0.055614	0.344488
C117	C	1.130839	-0.628643	-0.405498
C118	C	1.380839	-0.378643	-0.155498
C119	C	1.630839	-0.128643	0.094502
C120	C	1.880839	0.121357	0.344502
N121	N	1.178760	-0.831639	-0.388344
N122	N	1.428760	-0.581639	-0.138344
N123	N	1.678760	-0.331639	0.111656
N124	N	1.928760	-0.081639	0.361656
N125	N	1.178796	-0.894092	-0.388361
N126	N	1.428796	-0.644092	-0.138361
N127	N	1.678796	-0.394092	0.111639
N128	N	1.928796	-0.144092	0.361639
C129	C	1.181445	-0.929357	-0.461479
C130	C	1.431445	-0.679357	-0.211479
C131	C	1.681445	-0.429357	0.038521
C132	C	1.931445	-0.179357	0.288521
N133	N	1.184074	-0.899810	-0.534582
N134	N	1.434074	-0.649810	-0.284582
N135	N	1.684074	-0.399810	-0.034582
N136	N	1.934074	-0.149810	0.215418
N137	N	1.184042	-0.837351	-0.534564
N138	N	1.434042	-0.587351	-0.284564
N139	N	1.684042	-0.337351	-0.034564
N140	N	1.934042	-0.087351	0.215436
C141	C	1.181380	-0.802564	-0.461446
C142	C	1.431380	-0.552564	-0.211446
C143	C	1.681380	-0.302564	0.038554
C144	C	1.931380	-0.052564	0.288554
C145	C	1.231947	-1.037527	-0.517427
C146	C	1.481947	-0.787527	-0.267427
C147	C	1.731947	-0.537527	-0.017427
C148	C	1.981947	-0.287527	0.232573
C149	C	1.231970	-1.103273	-0.517450
C150	C	1.481970	-0.853273	-0.267450
C151	C	1.731970	-0.603273	-0.017450
C152	C	1.981970	-0.353273	0.232550
C153	C	1.131065	-1.095240	-0.405607
C154	C	1.381065	-0.845240	-0.155607
C155	C	1.631065	-0.595240	0.094393
C156	C	1.881065	-0.345240	0.344393
C157	C	1.131038	-1.029496	-0.405591
C158	C	1.381038	-0.779496	-0.155591
C159	C	1.631038	-0.529496	0.094409
C160	C	1.881038	-0.279496	0.344409
C161	C	1.181484	-1.000644	-0.461500
C162	C	1.431484	-0.750644	-0.211500
C163	C	1.681484	-0.500644	0.038500
C164	C	1.931484	-0.250644	0.288500
C165	C	1.398253	-0.375034	-0.472445
C166	C	1.648253	-0.125034	-0.222445
C167	C	1.898253	0.124966	0.027555
C168	C	2.148253	0.374966	0.277555
C169	C	1.490681	-0.378767	-0.477134
C170	C	1.740681	-0.128767	-0.227134
C171	C	1.990681	0.121233	0.022866
C172	C	2.240681	0.371233	0.272866
C173	C	1.170409	-0.374125	-0.678337
C174	C	1.420409	-0.124125	-0.428337
C175	C	1.670409	0.125875	-0.178337
C176	C	1.920409	0.375875	0.071663
C177	C	1.165744	-0.377471	-0.770765
C178	C	1.415744	-0.127471	-0.520765
C179	C	1.665744	0.122529	-0.270765
C180	C	1.915744	0.372529	-0.020765
C181	C	1.181484	-0.202093	-0.461510
C182	C	1.431484	0.047907	-0.211510
C183	C	1.681484	0.297907	0.038490
C184	C	1.931484	0.547907	0.288490
C185	C	1.181537	-0.132128	-0.461538
C186	C	1.431537	0.117872	-0.211538
C187	C	1.681537	0.367872	0.038462
C188	C	1.931537	0.617872	0.288462
C189	C	1.205687	-0.348815	-0.983751
C190	C	1.455687	-0.098815	-0.733751
C191	C	1.705687	0.151185	-0.483751
C192	C	1.955687	0.401185	-0.233751
C193	C	1.157198	-0.383551	-0.939984
C194	C	1.407198	-0.133551	-0.689984
C195	C	1.657198	0.116449	-0.439984
C196	C	1.907198	0.366449	-0.189984
C197	C	1.161954	-0.380167	-0.845822
C198	C	1.411954	-0.130167	-0.595822
C199	C	1.661954	0.119833	-0.345822
C200	C	1.911954	0.369833	-0.095822
C201	C	1.200931	-0.352198	-1.077922
C202	C	1.450931	-0.102198	-0.827922
C203	C	1.700931	0.147802	-0.577922
C204	C	1.950931	0.397802	-0.327922
C205	C	1.192311	-0.358413	-0.245394
C206	C	1.442311	-0.108413	0.004606
C207	C	1.692311	0.141587	0.254606
C208	C	1.942311	0.391587	0.504606
C209	C	1.197138	-0.354897	-0.152976
C210	C	1.447138	-0.104897	0.097024
C211	C	1.697138	0.145103	0.347024
C212	C	1.947138	0.395103	0.597024
H213	H	0.670382	-0.311266	-0.392314
H214	H	0.920382	-0.061266	-0.142314
H215	H	1.170382	0.188734	0.107686
H216	H	1.420382	0.438734	0.357686
H217	H	1.112108	-0.415827	-0.973233
H218	H	1.362108	-0.165827	-0.723233
H219	H	1.612108	0.084173	-0.473233
H220	H	1.862108	0.334173	-0.223233
Cl221	Cl	0.711276	-0.440807	-0.555087
Cl222	Cl	0.961276	-0.190807	-0.305087
Cl223	Cl	1.211276	0.059193	-0.055087
Cl224	Cl	1.461276	0.309193	0.194913
Cl225	Cl	1.295411	-1.149640	-0.587765
Cl226	Cl	1.545411	-0.899640	-0.337765
Cl227	Cl	1.795411	-0.649640	-0.087765
Cl228	Cl	2.045411	-0.399640	0.162235
Cl229	Cl	1.295164	-0.600405	-0.587617
Cl230	Cl	1.545164	-0.350405	-0.337617
Cl231	Cl	1.795164	-0.100405	-0.087617
Cl232	Cl	2.045164	0.149595	0.162383
Cl233	Cl	1.275280	-0.298972	-0.932419
Cl234	Cl	1.525280	-0.048972	-0.682419
Cl235	Cl	1.775280	0.201028	-0.432419
Cl236	Cl	2.025280	0.451028	-0.182419
Cl237	Cl	1.295238	-0.748793	-0.587647
Cl238	Cl	1.545238	-0.498793	-0.337647
Cl239	Cl	1.795238	-0.248793	-0.087647
Cl240	Cl	2.045238	0.001207	0.162353
H241	H	1.089809	-0.717888	-0.359990
H242	H	1.339809	-0.467888	-0.109990
H243	H	1.589809	-0.217888	0.140010
H244	H	1.839809	0.032112	0.390010
Cl245	Cl	1.067387	-0.582274	-0.335193
Cl246	Cl	1.317387	-0.332274	-0.085193
Cl247	Cl	1.567387	-0.082274	0.164807
Cl248	Cl	1.817387	0.167726	0.414807
H249	H	1.273020	-1.014035	-0.562954
H250	H	1.523020	-0.764035	-0.312954
H251	H	1.773020	-0.514035	-0.062954
H252	H	2.023020	-0.264035	0.187046
Cl253	Cl	1.067663	-1.131514	-0.335319
Cl254	Cl	1.317663	-0.881514	-0.085319
Cl255	Cl	1.567663	-0.631514	0.164681
Cl256	Cl	1.817663	-0.381514	0.414681
H257	H	1.089946	-0.999464	-0.360053
H258	H	1.339946	-0.749464	-0.110053
H259	H	1.589946	-0.499464	0.139947
H260	H	1.839946	-0.249464	0.389947
