data_functionalizedCrystal
_audit_creation_method	'MofGen! by Chris Wilmer'
_symmetry_space_group_name_H-M	'P1'
_symmetry_Int_Tables_number	1
_symmetry_cell_setting	triclinic
loop_
_symmetry_equiv_pos_as_xyz
  x,y,z
_cell_length_a	10.654550
_cell_length_b	22.010155
_cell_length_c	10.654550
_cell_angle_alpha	89.995547
_cell_angle_beta	84.484931
_cell_angle_gamma	90.005296
loop_
_atom_site_label
_atom_site_type_symbol
_atom_site_fract_x
_atom_site_fract_y
_atom_site_fract_z
O1	O	1.667850	0.050480	0.176382
O2	O	2.167850	0.550480	0.676382
O3	O	1.302372	0.050491	0.193188
O4	O	1.802372	0.550491	0.693188
O5	O	1.493514	0.050481	0.002045
O6	O	1.993514	0.550481	0.502045
O7	O	1.476708	0.050489	0.367524
O8	O	1.976708	0.550489	0.867524
O9	O	1.493479	-0.050569	0.002074
O10	O	1.993479	0.449431	0.502074
O11	O	1.302337	-0.050560	0.193216
O12	O	1.802337	0.449440	0.693216
O13	O	1.667815	-0.050571	0.176410
O14	O	2.167815	0.449429	0.676410
Cu15	Cu	1.485073	-0.059792	0.184816
Cu16	Cu	1.985073	0.440208	0.684816
Cu17	Cu	1.485114	0.059712	0.184782
Cu18	Cu	1.985114	0.559712	0.684782
O19	O	1.476673	-0.050561	0.367553
O20	O	1.976673	0.449439	0.867553
C21	C	1.255556	-0.000033	0.191968
C22	C	1.755556	0.499967	0.691968
C23	C	1.116113	-0.000029	0.188276
C24	C	1.616113	0.499971	0.688276
N25	N	1.485053	-0.143844	0.184839
N26	N	1.985053	0.356156	0.684839
C27	C	1.036628	-0.000028	0.300818
C28	C	1.536628	0.499972	0.800818
C29	C	0.905607	-0.000039	0.297341
C30	C	1.405607	0.499961	0.797341
C31	C	0.933570	-0.000048	0.068772
C32	C	1.433570	0.499952	0.568772
C33	C	1.064588	-0.000042	0.072250
C34	C	1.564588	0.499958	0.572250
C35	C	1.569757	-0.563628	0.100156
C36	C	2.069757	-0.063628	0.600156
C37	C	1.569763	-0.627236	0.100148
C38	C	2.069763	-0.127236	0.600148
O39	O	1.641731	-0.660131	0.028163
O40	O	2.141731	-0.160131	0.528163
N41	N	1.485113	-0.659051	0.184756
N42	N	1.985113	-0.159051	0.684756
C43	C	1.400444	-0.627256	0.269369
C44	C	1.900444	-0.127256	0.769369
O45	O	1.328442	-0.660159	0.341333
O46	O	1.828442	-0.160159	0.841333
C47	C	1.400433	-0.563650	0.269371
C48	C	1.900433	-0.063650	0.769371
C49	C	1.485097	-0.531837	0.184766
C50	C	1.985097	-0.031837	0.684766
C51	C	1.654413	-0.531815	0.015558
C52	C	2.154413	-0.031815	0.515558
C53	C	1.654408	-0.468212	0.015568
C54	C	2.154408	0.031788	0.515568
C55	C	1.569748	-0.436422	0.100177
C56	C	2.069748	0.063578	0.600177
C57	C	1.485092	-0.468234	0.184776
C58	C	1.985092	0.031766	0.684776
C59	C	1.315758	-0.531856	0.353977
C60	C	1.815758	-0.031856	0.853977
C61	C	1.315754	-0.468245	0.353971
C62	C	1.815754	0.031755	0.853971
C63	C	1.400418	-0.436433	0.269366
C64	C	1.900418	0.063567	0.769366
C65	C	1.400427	-0.372840	0.269396
C66	C	1.900427	0.127160	0.769396
N67	N	1.485077	-0.341025	0.184788
N68	N	1.985077	0.158975	0.684788
C69	C	1.569737	-0.372815	0.100179
C70	C	2.069737	0.127185	0.600179
C71	C	1.400471	-0.760834	0.269358
C72	C	1.900471	-0.260834	0.769358
C73	C	1.400487	-0.824439	0.269364
C74	C	1.900487	-0.324439	0.769364
C75	C	1.569805	-0.824414	0.100140
C76	C	2.069805	-0.324414	0.600140
C77	C	1.569794	-0.760808	0.100142
C78	C	2.069794	-0.260808	0.600142
C79	C	1.485121	-0.729018	0.184750
C80	C	1.985121	-0.229018	0.684750
C81	C	1.569722	-0.239244	0.100208
C82	C	2.069722	0.260756	0.600208
C83	C	1.569714	-0.175635	0.100230
C84	C	2.069714	0.324365	0.600230
C85	C	1.400392	-0.175666	0.269448
C86	C	1.900392	0.324334	0.769448
C87	C	1.400404	-0.239269	0.269431
C88	C	1.900404	0.260731	0.769431
C89	C	1.485074	-0.271056	0.184801
C90	C	1.985074	0.228944	0.684801
O91	O	1.328493	-0.339905	0.341340
O92	O	1.828493	0.160095	0.841340
O93	O	1.641715	-0.339905	0.028216
O94	O	2.141715	0.160095	0.528216
C95	C	1.714631	-0.000046	0.177630
C96	C	2.214631	0.499954	0.677630
C97	C	1.854074	-0.000046	0.181322
C98	C	2.354074	0.499954	0.681322
C99	C	1.492263	-0.000044	-0.044738
C100	C	1.992263	0.499956	0.455262
C101	C	1.488571	-0.000043	-0.184181
C102	C	1.988571	0.499957	0.315819
N103	N	1.485144	0.143764	0.184749
N104	N	1.985144	0.643764	0.684749
C105	C	1.601112	-0.000046	-0.263667
C106	C	2.101112	0.499954	0.236333
C107	C	1.597636	-0.000038	-0.394688
C108	C	2.097636	0.499962	0.105312
C109	C	1.369066	-0.000027	-0.366725
C110	C	1.869066	0.499973	0.133275
C111	C	1.372544	-0.000030	-0.235706
C112	C	1.872544	0.499970	0.264294
C113	C	1.477925	-0.000035	0.414336
C114	C	1.977925	0.499965	0.914336
C115	C	1.481616	-0.000032	0.553779
C116	C	1.981616	0.499968	1.053779
H117	H	1.078574	-0.000022	0.395294
H118	H	1.578574	0.499978	0.895294
H119	H	1.274601	-0.000018	-0.408693
H120	H	1.774601	0.499982	0.091307
Br121	Br	1.172472	-0.000051	-0.080497
Br122	Br	1.672472	0.499949	0.419503
H123	H	1.638739	-0.850310	0.031245
H124	H	2.138739	-0.350310	0.531245
H125	H	1.638734	-0.734910	0.031249
H126	H	2.138734	-0.234910	0.531249
H127	H	1.331560	-0.850337	0.338270
H128	H	1.831560	-0.350337	0.838270
H129	H	1.689279	-0.000040	-0.459401
H130	H	2.189279	0.499960	0.040599
Br131	Br	1.684632	-0.282374	-0.014649
Br132	Br	2.184632	0.217626	0.485351
H133	H	1.280893	-0.000026	-0.170985
H134	H	1.780893	0.499974	0.329015
H135	H	1.638661	-0.149735	0.031334
H136	H	2.138661	0.350265	0.531334
Br137	Br	1.285555	-0.717697	0.384202
Br138	Br	1.785555	-0.217697	0.884202
H139	H	1.723354	-0.557694	-0.053347
H140	H	2.223354	-0.057694	0.446653
Br141	Br	1.200852	-0.575017	0.468802
Br142	Br	1.700852	-0.075017	0.968802
Br143	Br	1.200828	-0.425107	0.468798
Br144	Br	1.700828	0.074893	0.968798
H145	H	1.723345	-0.442314	-0.053328
H146	H	2.223345	0.057686	0.446672
H147	H	1.695588	-0.000055	-0.221720
H148	H	2.195588	0.499945	0.278280
H149	H	0.840894	-0.000039	0.388984
H150	H	1.340894	0.499961	0.888984
Br151	Br	1.285517	-0.282442	0.384272
Br152	Br	1.785517	0.217558	0.884272
Br153	Br	1.285503	-0.132511	0.384275
Br154	Br	1.785503	0.367489	0.884275
H155	H	0.891602	-0.000063	-0.025693
H156	H	1.391602	0.499937	0.474307
