data_functionalizedCrystal
_audit_creation_method	'MofGen! by Chris Wilmer'
_symmetry_space_group_name_H-M	'P1'
_symmetry_Int_Tables_number	1
_symmetry_cell_setting	triclinic
loop_
_symmetry_equiv_pos_as_xyz
  x,y,z
_cell_length_a	17.077404
_cell_length_b	19.805405
_cell_length_c	17.077396
_cell_angle_alpha	89.969433
_cell_angle_beta	89.982940
_cell_angle_gamma	90.026951
loop_
_atom_site_label
_atom_site_type_symbol
_atom_site_fract_x
_atom_site_fract_y
_atom_site_fract_z
Zn1	Zn	1.200015	-0.269448	-0.443840
Zn2	Zn	1.199919	-0.382645	-0.312573
Zn3	Zn	1.068752	-0.269475	-0.312588
Zn4	Zn	1.068706	-0.382601	-0.443797
O5	O	1.134348	-0.326042	-0.378199
O6	O	1.309849	-0.284471	-0.426439
O7	O	1.182498	-0.367662	-0.202728
O8	O	1.086224	-0.174755	-0.330023
O9	O	1.309778	-0.367636	-0.329998
O10	O	1.182662	-0.174735	-0.426454
O11	O	1.086131	-0.284517	-0.202739
O12	O	0.958899	-0.284475	-0.329981
O13	O	1.086145	-0.367562	-0.553649
O14	O	0.958865	-0.367588	-0.426380
O15	O	1.182617	-0.284429	-0.553681
O16	O	1.182453	-0.477355	-0.329956
O17	O	1.086052	-0.477324	-0.426365
C18	C	0.930400	-0.326030	-0.378178
C19	C	0.843150	-0.326041	-0.378187
C20	C	0.802163	-0.369383	-0.428301
C21	C	0.720182	-0.369385	-0.428314
C22	C	0.679191	-0.326047	-0.378208
C23	C	0.720184	-0.282700	-0.328091
C24	C	0.802163	-0.282696	-0.328083
C25	C	0.549314	-0.282713	-0.328110
C26	C	0.467329	-0.282718	-0.328117
C27	C	0.467333	-0.369403	-0.428341
C28	C	0.549312	-0.369398	-0.428333
C29	C	0.590300	-0.326052	-0.378215
C30	C	1.134258	-0.501898	-0.378171
C31	C	1.134292	-0.577130	-0.378185
C32	C	1.184478	-0.612406	-0.428436
C33	C	1.184506	-0.683094	-0.428450
C34	C	1.134352	-0.718506	-0.378210
C35	C	1.084161	-0.683225	-0.327957
C36	C	1.084129	-0.612538	-0.327947
C37	C	1.084287	-0.968299	-0.327997
C38	C	1.084324	-1.038991	-0.328009
C39	C	1.184664	-1.038855	-0.428501
C40	C	1.184632	-0.968168	-0.428491
C41	C	1.134438	-0.932893	-0.378241
C42	C	1.134407	-0.856245	-0.378227
C43	C	1.134387	-0.795153	-0.378219
C44	C	1.339092	-0.326055	-0.378222
C45	C	1.426342	-0.326061	-0.378231
C46	C	1.134387	-0.325988	-0.582944
C47	C	1.134403	-0.325964	-0.670194
C48	C	1.134459	-0.149500	-0.378245
C49	C	1.134506	-0.074268	-0.378265
C50	C	1.184653	-0.369179	-1.046005
C51	C	1.184633	-0.369199	-0.964024
C52	C	1.134454	-0.325916	-0.923043
C53	C	1.084285	-0.282616	-0.964046
C54	C	1.084302	-0.282601	-1.046025
C55	C	1.084256	-0.282651	-0.793176
C56	C	1.084240	-0.282666	-0.711191
C57	C	1.184587	-0.369250	-0.711175
C58	C	1.184604	-0.369234	-0.793154
C59	C	1.134436	-0.325933	-0.834152
C60	C	1.134354	-0.326048	-0.174252
C61	C	1.134490	-0.325881	-0.087002
H62	H	0.835534	-0.247398	-0.287279
O63	O	1.035478	-0.717547	-0.279044
C64	C	1.052687	-0.700316	-0.200821
H65	H	1.082840	-0.648971	-0.199216
H66	H	0.996055	-0.697958	-0.165571
H67	H	1.093078	-0.740084	-0.174423
O68	O	0.427611	-0.411477	-0.477136
C69	C	0.447671	-0.396764	-0.555402
H70	H	0.507204	-0.370741	-0.557077
H71	H	0.450471	-0.445655	-0.590492
H72	H	0.401558	-0.362002	-0.581925
H73	H	1.225519	-0.404421	-1.079366
H74	H	1.043404	-0.247391	-0.826553
H75	H	0.686814	-0.404679	-0.469121
O76	O	1.233443	-0.411274	-0.924321
C77	C	1.277728	-0.449479	-0.978072
H78	H	1.280469	-0.421744	-1.036520
H79	H	1.339568	-0.456700	-0.954391
H80	H	1.248959	-0.500884	-0.986768
H81	H	0.433956	-0.247421	-0.287326
H82	H	1.043419	-0.939584	-0.287081
O83	O	1.233485	-1.073017	-0.477352
C84	C	1.277729	-1.026603	-0.521707
H85	H	1.280451	-0.976234	-0.489543
H86	H	1.339579	-1.046977	-0.530150
H87	H	1.248937	-1.019065	-0.581292
O88	O	0.589219	-0.240704	-0.279387
C89	C	0.636584	-0.279189	-0.228594
H90	H	0.648847	-0.330511	-0.256177
H91	H	0.694243	-0.251609	-0.218125
H92	H	0.604964	-0.286566	-0.170410
O93	O	0.589218	-0.411402	-0.477045
C94	C	0.636659	-0.372913	-0.527830
H95	H	0.648951	-0.321590	-0.500247
H96	H	0.694300	-0.400488	-0.538288
H97	H	0.605092	-0.365541	-0.586021
O98	O	1.233282	-0.577981	-0.477129
C99	C	1.283981	-0.537067	-0.432485
H100	H	1.288880	-0.558399	-0.370667
H101	H	1.344372	-0.536207	-0.460934
H102	H	1.259690	-0.483514	-0.429753
O103	O	1.233343	-0.717256	-0.477276
C104	C	1.277599	-0.670843	-0.521621
H105	H	1.280298	-0.620469	-0.489467
H106	H	1.339455	-0.691212	-0.530033
H107	H	1.248832	-0.663319	-0.581221
H108	H	1.043425	-0.247378	-0.930672
H109	H	1.225436	-0.404507	-0.677791
H110	H	1.043479	-1.067821	-0.287096
O111	O	1.233241	-0.933696	-0.477334
C112	C	1.188495	-0.892826	-0.527998
H113	H	1.129021	-0.882298	-0.500253
H114	H	1.220438	-0.843088	-0.538542
H115	H	1.179845	-0.920042	-0.586165
O116	O	1.035270	-0.578343	-0.279173
C117	C	0.957032	-0.595653	-0.296276
H118	H	0.955412	-0.646962	-0.326453
H119	H	0.921866	-0.598126	-0.239594
H120	H	0.930553	-0.555868	-0.336608
O121	O	1.233373	-0.411340	-0.832844
C122	C	1.277662	-0.449551	-0.779082
H123	H	1.245500	-0.451906	-0.720638
H124	H	1.286003	-0.502875	-0.802754
H125	H	1.337295	-0.424773	-0.770380
H126	H	1.043382	-0.247420	-0.677826
O127	O	1.035465	-0.240573	-1.085766
C128	C	0.957216	-0.255374	-1.065733
H129	H	0.955561	-0.281403	-1.006201
H130	H	0.922049	-0.206522	-1.062943
H131	H	0.930762	-0.290162	-1.111856
O132	O	0.841944	-0.411410	-0.477088
C133	C	0.821933	-0.396711	-0.555354
H134	H	0.799425	-0.342644	-0.559428
H135	H	0.875858	-0.402580	-0.594119
H136	H	0.774338	-0.433023	-0.575803
O137	O	0.680489	-0.240537	-0.279392
C138	C	0.734248	-0.202293	-0.235145
H139	H	0.792698	-0.199979	-0.267298
H140	H	0.710582	-0.148957	-0.226882
H141	H	0.742933	-0.227015	-0.175476
