data_functionalizedCrystal
_audit_creation_method	'MofGen! by Chris Wilmer'
_symmetry_space_group_name_H-M	'P1'
_symmetry_Int_Tables_number	1
_symmetry_cell_setting	triclinic
loop_
_symmetry_equiv_pos_as_xyz
  x,y,z
_cell_length_a	17.038272
_cell_length_b	27.732048
_cell_length_c	16.098538
_cell_angle_alpha	92.695138
_cell_angle_beta	87.069734
_cell_angle_gamma	86.877106
loop_
_atom_site_label
_atom_site_type_symbol
_atom_site_fract_x
_atom_site_fract_y
_atom_site_fract_z
O1	O	1.039664	0.102899	-0.069167
O2	O	1.539664	0.602899	0.430833
O3	O	0.812054	0.101233	-0.069192
O4	O	1.312054	0.601233	0.430808
O5	O	0.932928	0.031993	-0.069163
O6	O	1.432928	0.531993	0.430837
O7	O	0.918791	0.172139	-0.069196
O8	O	1.418791	0.672139	0.430804
O9	O	0.925867	0.036021	0.069348
O10	O	1.425867	0.536021	0.569348
O11	O	0.804994	0.105261	0.069320
O12	O	1.304994	0.605261	0.569320
O13	O	1.032604	0.106927	0.069344
O14	O	1.532604	0.606927	0.569344
Zn15	Zn	0.917678	0.106733	0.091323
Zn16	Zn	1.417678	0.606733	0.591323
Zn17	Zn	0.926980	0.101427	-0.091171
Zn18	Zn	1.426980	0.601427	0.408829
O19	O	0.911730	0.176167	0.069315
O20	O	1.411730	0.676167	0.569315
C21	C	0.779414	0.101731	0.000061
C22	C	1.279414	0.601731	0.500061
C23	C	0.692674	0.097211	0.000053
C24	C	1.192674	0.597211	0.500053
C25	C	0.642076	0.138713	0.000043
C26	C	1.142076	0.638713	0.500043
C27	C	0.560575	0.134463	0.000056
C28	C	1.060575	0.634463	0.500056
C29	C	0.529672	0.088710	0.000072
C30	C	1.029672	0.588710	0.500072
C31	C	0.580276	0.047205	0.000083
C32	C	1.080276	0.547205	0.500083
C33	C	0.661776	0.051455	0.000077
C34	C	1.161776	0.551455	0.500077
C35	C	0.284088	0.073694	0.000098
C36	C	0.784088	0.573694	0.500098
C37	C	0.202582	0.069446	0.000102
C38	C	0.702582	0.569446	0.500102
C39	C	0.182886	0.156706	0.000076
C40	C	0.682886	0.656706	0.500076
C41	C	0.264389	0.160952	0.000064
C42	C	0.764389	0.660952	0.500064
C43	C	0.314985	0.119446	0.000080
C44	C	0.814985	0.619446	0.500080
C45	C	0.446365	0.084365	0.000082
C46	C	0.946365	0.584365	0.500082
C47	C	0.398290	0.123792	0.000076
C48	C	0.898290	0.623792	0.500076
C49	C	0.929100	0.015987	0.000095
C50	C	1.429100	0.515987	0.500095
C51	C	0.928206	-0.037709	0.000102
C52	C	1.428206	0.462291	0.500102
C53	C	0.994011	-0.373515	0.000066
C54	C	1.494011	0.126485	0.500066
C55	C	0.990696	-0.575327	0.000054
C56	C	1.490696	-0.075327	0.500054
O57	O	1.050870	-0.603831	0.000024
O58	O	1.550870	-0.103831	0.500024
N59	N	0.919023	-0.597729	0.000047
N60	N	1.419023	-0.097729	0.500047
C61	C	0.848173	-0.569676	0.000038
C62	C	1.348173	-0.069676	0.500038
O63	O	0.787135	-0.593361	0.000023
O64	O	1.287135	-0.093361	0.500023
C65	C	0.851490	-0.367865	0.000044
C66	C	1.351490	0.132135	0.500044
C67	C	0.923167	-0.345465	0.000059
C68	C	1.423167	0.154535	0.500059
C69	C	1.065683	-0.351115	0.000080
C70	C	1.565683	0.148885	0.500080
C71	C	1.066511	-0.300665	0.000088
C72	C	1.566511	0.199335	0.500088
C73	C	0.995667	-0.272615	0.000081
C74	C	1.495667	0.227385	0.500081
C75	C	0.923995	-0.295015	0.000067
C76	C	1.423995	0.204985	0.500067
C77	C	0.780641	-0.339813	0.000029
C78	C	1.280641	0.160187	0.500029
C79	C	0.781477	-0.289357	0.000028
C80	C	1.281477	0.210643	0.500028
C81	C	0.853155	-0.266957	0.000043
C82	C	1.353155	0.233043	0.500043
C83	C	0.853979	-0.216515	0.000067
C84	C	1.353979	0.283485	0.500067
N85	N	0.925652	-0.194113	0.000074
N86	N	1.425652	0.305887	0.500074
C87	C	0.996496	-0.222163	0.000081
C88	C	1.496496	0.277837	0.500081
C89	C	0.846437	-0.675629	0.000036
C90	C	1.346437	-0.175629	0.500036
C91	C	0.845608	-0.726081	0.000036
C92	C	1.345608	-0.226081	0.500036
C93	C	0.988131	-0.731729	0.000051
C94	C	1.488131	-0.231729	0.500051
C95	C	0.988959	-0.681276	0.000057
C96	C	1.488959	-0.181276	0.500057
C97	C	0.918111	-0.653227	0.000043
C98	C	1.418111	-0.153227	0.500043
C99	C	0.998229	-0.116214	0.000098
C100	C	1.498229	0.383786	0.500098
C101	C	0.999051	-0.065759	0.000109
C102	C	1.499051	0.434241	0.500109
C103	C	0.856528	-0.060116	0.000090
C104	C	1.356528	0.439884	0.500090
C105	C	0.855706	-0.110566	0.000083
C106	C	1.355706	0.389434	0.500083
C107	C	0.926563	-0.138614	0.000084
C108	C	1.426563	0.361386	0.500084
O109	O	0.793838	-0.187981	0.000088
O110	O	1.293838	0.312019	0.500088
O111	O	1.057527	-0.198469	0.000077
O112	O	1.557527	0.301531	0.500077
C113	C	0.993184	-0.423965	0.000059
C114	C	1.493184	0.076035	0.500059
C115	C	0.921512	-0.446365	0.000044
C116	C	1.421512	0.053635	0.500044
C117	C	0.850668	-0.418315	0.000037
C118	C	1.350668	0.081685	0.500037
C119	C	0.920682	-0.496818	0.000044
C120	C	1.420682	0.003182	0.500044
C121	C	0.991526	-0.524868	0.000051
C122	C	1.491526	-0.024868	0.500051
C123	C	1.063200	-0.502465	0.000058
C124	C	1.563200	-0.002465	0.500058
C125	C	1.064028	-0.452015	0.000065
C126	C	1.564028	0.047985	0.500065
C127	C	0.778994	-0.440718	0.000030
C128	C	1.278994	0.059282	0.500030
C129	C	0.778172	-0.491168	0.000024
C130	C	1.278172	0.008832	0.500024
C131	C	0.849016	-0.519218	0.000031
C132	C	1.349016	-0.019218	0.500031
C133	C	1.065245	0.106428	0.000089
C134	C	1.565245	0.606428	0.500089
C135	C	1.151985	0.110949	0.000092
C136	C	1.651985	0.610949	0.500092
C137	C	0.915558	0.192173	0.000055
C138	C	1.415558	0.692173	0.500055
C139	C	0.916452	0.245869	0.000043
C140	C	1.416452	0.745869	0.500043
N141	N	0.911335	0.110355	0.215871
N142	N	1.411335	0.610355	0.715871
N143	N	0.933330	0.097802	-0.215719
N144	N	1.433330	0.597802	0.284281
C145	C	0.962657	0.080979	0.259468
C146	C	1.462657	0.580979	0.759468
C147	C	0.958226	0.083517	0.346656
C148	C	1.458226	0.583517	0.846656
C149	C	0.902478	0.115434	0.390245
C150	C	1.402478	0.615434	0.890245
C151	C	0.851150	0.144812	0.346642
C152	C	1.351150	0.644812	0.846642
C153	C	0.855577	0.142270	0.259456
C154	C	1.355577	0.642270	0.759456
C155	C	0.886429	0.124638	0.653492
C156	C	1.386429	0.624638	1.153492
C157	C	0.882008	0.127178	0.740684
C158	C	1.382008	0.627178	1.240684
C159	C	0.989084	0.065882	0.740692
C160	C	1.489084	0.565882	1.240692
C161	C	0.993509	0.063346	0.653504
C162	C	1.493509	0.563346	1.153504
C163	C	0.942179	0.092721	0.609908
C164	C	1.442179	0.592721	1.109908
C165	C	0.897950	0.118031	0.479365
C166	C	1.397950	0.618031	0.979365
C167	C	0.946704	0.090122	0.520790
C168	C	1.446704	0.590122	1.020790
H169	H	0.423454	0.161044	0.000068
H170	H	0.923454	0.661044	0.500068
C171	C	0.546841	-0.002505	-0.000031
C172	C	1.046841	0.497495	0.499969
C173	C	0.576249	-0.029869	-0.071276
C174	C	1.076249	0.470131	0.428724
C175	C	0.545476	-0.075666	-0.071408
C176	C	1.045476	0.424334	0.428592
H177	H	0.491062	0.000837	-0.000074
H178	H	0.991062	0.500837	0.499926
H179	H	0.561812	-0.018356	0.048250
H180	H	1.061812	0.481644	0.548250
H181	H	0.561273	-0.014021	-0.119544
H182	H	1.061273	0.485979	0.380456
H183	H	0.632025	-0.033225	-0.071248
H184	H	1.132025	0.466775	0.428752
H185	H	0.560447	-0.091518	-0.023127
H186	H	1.060447	0.408482	0.476873
H187	H	0.489698	-0.072319	-0.071449
H188	H	0.989698	0.427681	0.428551
H189	H	0.565430	-0.094240	-0.119742
H190	H	1.065430	0.405760	0.380258
H191	H	0.702973	0.017659	0.000084
H192	H	1.202973	0.517659	0.500084
C193	C	0.505772	0.179580	0.000002
C194	C	1.005772	0.679580	0.500002
C195	C	0.550280	0.220557	-0.000040
C196	C	1.050280	0.720557	0.499960
C197	C	0.499823	0.262129	-0.000098
C198	C	0.999823	0.762129	0.499902
H199	H	0.471098	0.181211	0.048295
H200	H	0.971098	0.681211	0.548295
H201	H	0.476033	0.178356	-0.048315
H202	H	0.976033	0.678356	0.451685
H203	H	0.580004	0.221781	0.048273
H204	H	1.080004	0.721781	0.548273
H205	H	0.584951	0.218943	-0.048329
H206	H	1.084951	0.718943	0.451671
H207	H	0.470084	0.260905	-0.048416
H208	H	0.970084	0.760905	0.451584
H209	H	0.465152	0.263755	0.048195
H210	H	0.965152	0.763755	0.548195
H211	H	0.530014	0.289937	-0.000134
H212	H	1.030014	0.789937	0.499866
H213	H	0.667230	0.175970	0.000030
H214	H	1.167230	0.675970	0.500030
H215	H	0.992092	0.064133	0.485297
H216	H	1.492092	0.564133	0.985297
H217	H	0.805754	0.170798	0.382137
H218	H	1.305754	0.670798	0.882137
H219	H	0.844636	0.148557	0.618003
H220	H	1.344636	0.648557	1.118003
H221	H	0.421194	0.047113	0.000118
H222	H	0.921194	0.547113	0.500118
H223	H	1.000016	0.059596	0.382153
H224	H	1.500016	0.559596	0.882153
C225	C	1.076959	-0.041531	0.000079
C226	C	1.576959	0.458469	0.500079
C227	C	1.138823	-0.076900	0.000058
C228	C	1.638823	0.423100	0.500058
C229	C	1.210601	-0.054602	0.000017
C230	C	1.710601	0.445398	0.500017
H231	H	1.077899	-0.020572	0.048370
H232	H	1.577899	0.479428	0.548370
H233	H	1.082751	-0.023379	-0.048240
H234	H	1.582751	0.476621	0.451760
H235	H	1.133033	-0.095044	0.048372
H236	H	1.633033	0.404956	0.548372
H237	H	1.137909	-0.097862	-0.048230
H238	H	1.637909	0.402138	0.451770
H239	H	1.216393	-0.036450	-0.048302
H240	H	1.716393	0.463550	0.451698
H241	H	1.211532	-0.033643	0.048309
H242	H	1.711532	0.466357	0.548309
H243	H	1.252584	-0.078596	-0.000005
H244	H	1.752584	0.421404	0.499995
H245	H	1.055928	-0.139045	0.000095
H246	H	1.555928	0.360955	0.500095
C247	C	0.128084	0.201823	0.000023
C248	C	0.628084	0.701823	0.500023
C249	C	0.172592	0.242800	-0.000011
C250	C	0.672592	0.742800	0.499989
C251	C	0.122136	0.284372	-0.000068
C252	C	0.622136	0.784372	0.499932
H253	H	0.093408	0.203452	0.048314
H254	H	0.593408	0.703452	0.548314
H255	H	0.098348	0.200601	-0.048296
H256	H	0.598348	0.700601	0.451704
H257	H	0.202314	0.244022	0.048303
H258	H	0.702314	0.744022	0.548303
H259	H	0.207265	0.241187	-0.048298
H260	H	0.707265	0.741187	0.451702
H261	H	0.092400	0.283150	-0.048388
H262	H	0.592400	0.783150	0.451612
H263	H	0.087463	0.285996	0.048223
H264	H	0.587463	0.785996	0.548223
H265	H	0.152328	0.312179	-0.000099
H266	H	0.652328	0.812179	0.499901
H267	H	1.124878	-0.282432	0.000097
H268	H	1.624878	0.217568	0.500097
H269	H	1.123376	-0.373948	0.000083
H270	H	1.623376	0.126052	0.500083
C271	C	0.767707	-0.750309	-0.000013
C272	C	1.267707	-0.250309	0.499987
C273	C	0.705849	-0.714940	-0.000043
C274	C	1.205849	-0.214940	0.499957
C275	C	0.634074	-0.737238	-0.000105
C276	C	1.134074	-0.237238	0.499895
H277	H	0.761842	-0.768470	0.048274
H278	H	1.261842	-0.268470	0.548274
H279	H	0.766840	-0.771261	-0.048336
H280	H	1.266840	-0.271261	0.451664
H281	H	0.706715	-0.693996	0.048275
H282	H	1.206715	-0.193996	0.548275
H283	H	0.711688	-0.696776	-0.048326
H284	H	1.211688	-0.196776	0.451674
H285	H	0.633207	-0.758190	-0.048428
H286	H	1.133207	-0.258190	0.451572
H287	H	0.628217	-0.755399	0.048183
H288	H	1.128217	-0.255399	0.548183
H289	H	0.592095	-0.713244	-0.000133
H290	H	1.092095	-0.213244	0.499867
H291	H	0.721303	-0.417884	0.000023
H292	H	1.221303	0.082116	0.500023
H293	H	0.852559	0.144019	0.514863
H294	H	1.352559	0.644019	1.014863
H295	H	1.030873	0.041965	0.776196
H296	H	1.530873	0.541965	1.276196
C297	C	0.700407	-0.515552	-0.000124
C298	C	1.200407	-0.015552	0.499876
C299	C	0.699412	-0.546421	-0.071383
C300	C	1.199412	-0.046421	0.428617
C301	C	0.627795	-0.568894	-0.071551
C302	C	1.127795	-0.068894	0.428449
H303	H	0.658274	-0.491670	-0.000173
H304	H	1.158274	0.008330	0.499827
H305	H	0.694643	-0.533747	0.048147
H306	H	1.194643	-0.033747	0.548147
H307	H	0.705168	-0.528226	-0.119642
H308	H	1.205168	-0.028226	0.380358
H309	H	0.741530	-0.570311	-0.071350
H310	H	1.241530	-0.070311	0.428650
H311	H	0.622031	-0.587089	-0.023280
H312	H	1.122031	-0.087089	0.476720
H313	H	0.585667	-0.545009	-0.071597
H314	H	1.085667	-0.045009	0.428403
H315	H	0.627113	-0.589845	-0.119895
H316	H	1.127113	-0.089845	0.380105
C317	C	0.702739	-0.364035	-0.000035
C318	C	1.202739	0.135965	0.499965
C319	C	0.640887	-0.328662	-0.000068
C320	C	1.140887	0.171338	0.499932
C321	C	0.569108	-0.350957	-0.000140
C322	C	1.069108	0.149043	0.499860
H323	H	0.696867	-0.382197	0.048250
H324	H	1.196867	0.117803	0.548250
H325	H	0.701874	-0.384985	-0.048360
H326	H	1.201874	0.115015	0.451640
H327	H	0.641751	-0.307720	0.048252
H328	H	1.141751	0.192280	0.548252
H329	H	0.646733	-0.310498	-0.048350
H330	H	1.146733	0.189502	0.451650
H331	H	0.568243	-0.371907	-0.048465
H332	H	1.068243	0.128093	0.451535
H333	H	0.563244	-0.369118	0.048146
H334	H	1.063244	0.130882	0.548146
H335	H	0.527133	-0.326960	-0.000170
H336	H	1.027133	0.173040	0.499830
C337	C	0.297976	0.210614	-0.000148
C338	C	0.797976	0.710614	0.499852
C339	C	0.347782	0.213524	-0.071437
C340	C	0.847782	0.713524	0.428563
C341	C	0.378723	0.259269	-0.071683
C342	C	0.878723	0.759269	0.428317
H343	H	0.326968	0.215555	0.048085
H344	H	0.826968	0.715555	0.548085
H345	H	0.256183	0.234730	-0.000205
H346	H	0.756183	0.734730	0.499795
H347	H	0.389569	0.189415	-0.071373
H348	H	0.889569	0.689415	0.428627
H349	H	0.318808	0.208592	-0.119682
H350	H	0.818808	0.708592	0.380318
H351	H	0.336929	0.283386	-0.071739
H352	H	0.836929	0.783386	0.428261
H353	H	0.407711	0.264206	-0.023447
H354	H	0.907711	0.764206	0.476553
H355	H	0.412513	0.261252	-0.120055
H356	H	0.912513	0.761252	0.379945
H357	H	1.038904	0.037356	0.618016
H358	H	1.538904	0.537356	1.118016
C359	C	0.799944	0.174249	0.212162
C360	C	1.299944	0.674249	0.712162
C361	C	0.810976	0.222868	0.233328
C362	C	1.310976	0.722868	0.733328
C363	C	0.759745	0.252340	0.189771
C364	C	1.259745	0.752340	0.689771
H365	H	0.747097	0.167318	0.226425
H366	H	1.247097	0.667318	0.726425
H367	H	0.810567	0.168196	0.153986
H368	H	1.310567	0.668196	0.653986
H369	H	0.800348	0.228918	0.291491
H370	H	1.300348	0.728918	0.791491
H371	H	0.863812	0.229814	0.219063
H372	H	1.363812	0.729814	0.719063
H373	H	0.770368	0.246287	0.131595
H374	H	1.270368	0.746287	0.631595
H375	H	0.706901	0.245405	0.204037
H376	H	1.206901	0.745405	0.704037
H377	H	0.767228	0.285331	0.204120
H378	H	1.267228	0.785331	0.704120
C379	C	0.338887	0.028573	0.000069
C380	C	0.838887	0.528573	0.500069
C381	C	0.294378	-0.012404	0.000059
C382	C	0.794378	0.487596	0.500059
C383	C	0.344837	-0.053980	0.000022
C384	C	0.844837	0.446020	0.500022
H385	H	0.368652	0.029753	0.048357
H386	H	0.868652	0.529753	0.548357
H387	H	0.373538	0.026983	-0.048253
H388	H	0.873538	0.526983	0.451747
H389	H	0.259742	-0.010814	0.048376
H390	H	0.759742	0.489186	0.548376
H391	H	0.264616	-0.013600	-0.048226
H392	H	0.764616	0.486400	0.451774
H393	H	0.379487	-0.055570	-0.048299
H394	H	0.879487	0.444430	0.451701
H395	H	0.374598	-0.052795	0.048312
H396	H	0.874598	0.447205	0.548312
H397	H	0.314645	-0.081788	0.000008
H398	H	0.814645	0.418212	0.500008
C399	C	0.769563	-0.645115	0.000157
C400	C	1.269563	-0.145115	0.500157
C401	C	0.762248	-0.613910	0.071407
C402	C	1.262248	-0.113910	0.571407
C403	C	0.691446	-0.585791	0.071544
C404	C	1.191446	-0.085791	0.571544
H405	H	0.726695	-0.665627	0.000197
H406	H	1.226695	-0.165627	0.500197
H407	H	0.769372	-0.626688	-0.048120
H408	H	1.269372	-0.126688	0.451880
H409	H	0.762431	-0.632336	0.119672
H410	H	1.262431	-0.132336	0.619672
H411	H	0.805098	-0.593388	0.071382
H412	H	1.305098	-0.093388	0.571382
H413	H	0.691256	-0.567364	0.023267
H414	H	1.191256	-0.067364	0.523267
H415	H	0.648585	-0.606307	0.071582
H416	H	1.148585	-0.106307	0.571582
H417	H	0.686477	-0.564613	0.119882
H418	H	1.186477	-0.064613	0.619882
H419	H	0.177426	0.032187	0.000113
H420	H	0.677426	0.532187	0.500113
C421	C	0.704585	-0.258885	-0.000156
C422	C	1.204585	0.241115	0.499844
C423	C	0.704522	-0.231828	-0.071425
C424	C	1.204522	0.268172	0.428575
C425	C	0.633700	-0.203757	-0.071626
C426	C	1.133700	0.296243	0.428374
H427	H	0.699406	-0.237646	0.048091
H428	H	1.199406	0.262354	0.548091
H429	H	0.661763	-0.279439	-0.000210
H430	H	1.161763	0.220561	0.499790
H431	H	0.747332	-0.211276	-0.071363
H432	H	1.247332	0.288724	0.428637
H433	H	0.709688	-0.253055	-0.119683
H434	H	1.209688	0.246945	0.380317
H435	H	0.590877	-0.224312	-0.071680
H436	H	1.090877	0.275688	0.428320
H437	H	0.628527	-0.182521	-0.023376
H438	H	1.128527	0.317479	0.476624
H439	H	0.633644	-0.185400	-0.119984
H440	H	1.133644	0.314600	0.380016
H441	H	1.047326	-0.663041	0.000069
H442	H	1.547326	-0.163041	0.500069
C443	C	0.777899	-0.134908	0.000245
C444	C	1.277899	0.365092	0.500245
C445	C	0.769612	-0.161638	0.071507
C446	C	1.269612	0.338362	0.571507
C447	C	0.697941	-0.184059	0.071682
C448	C	1.197941	0.315941	0.571682
H449	H	0.776994	-0.155903	-0.048007
H450	H	1.276994	0.344097	0.451993
H451	H	0.735802	-0.110987	0.000290
H452	H	1.235802	0.389013	0.500290
H453	H	0.811697	-0.185557	0.071455
H454	H	1.311697	0.314443	0.571455
H455	H	0.770503	-0.140654	0.119770
H456	H	1.270503	0.359346	0.619770
H457	H	0.655844	-0.160137	0.071727
H458	H	1.155844	0.339863	0.571727
H459	H	0.697042	-0.205051	0.023427
H460	H	1.197042	0.294949	0.523427
H461	H	0.692305	-0.202194	0.120036
H462	H	1.192305	0.297806	0.620036
H463	H	1.045815	-0.754576	0.000057
H464	H	1.545815	-0.254576	0.500057
H465	H	1.122395	-0.433782	0.000078
H466	H	1.622395	0.066218	0.500078
C467	C	0.779581	-0.029676	0.000247
C468	C	1.279581	0.470324	0.500247
C469	C	0.732750	-0.038164	0.071507
C470	C	1.232750	0.461836	0.571507
C471	C	0.661865	-0.010127	0.071678
C472	C	1.161865	0.489873	0.571678
H473	H	0.752537	-0.038157	-0.048006
H474	H	1.252537	0.461843	0.451994
H475	H	0.790309	0.003586	0.000294
H476	H	1.290309	0.503586	0.500294
H477	H	0.722020	-0.071419	0.071453
H478	H	1.222020	0.428581	0.571453
H479	H	0.759770	-0.029681	0.119772
H480	H	1.259770	0.470319	0.619772
H481	H	0.672594	0.023135	0.071724
H482	H	1.172594	0.523135	0.571724
H483	H	0.634829	-0.018610	0.023421
H484	H	1.134829	0.481390	0.523421
H485	H	0.630085	-0.015879	0.120030
H486	H	1.130085	0.484121	0.620030
C487	C	1.140036	-0.533011	0.000020
C488	C	1.640036	-0.033011	0.500020
C489	C	1.123960	-0.581988	-0.000011
C490	C	1.623960	-0.081988	0.499989
C491	C	1.194718	-0.610143	-0.000063
C492	C	1.694718	-0.110143	0.499937
H493	H	1.167054	-0.524569	0.048311
H494	H	1.667054	-0.024569	0.548311
H495	H	1.171919	-0.527333	-0.048300
H496	H	1.671919	-0.027333	0.451700
H497	H	1.092089	-0.587663	0.048304
H498	H	1.592089	-0.087663	0.548304
H499	H	1.096953	-0.590444	-0.048298
H500	H	1.596953	-0.090444	0.451702
H501	H	1.226601	-0.604466	-0.048382
H502	H	1.726601	-0.104466	0.451618
H503	H	1.221730	-0.601698	0.048229
H504	H	1.721730	-0.101698	0.548229
H505	H	1.183820	-0.643378	-0.000091
H506	H	1.683820	-0.143378	0.499909
C507	C	1.023213	0.046276	0.212298
C508	C	1.523213	0.546276	0.712298
C509	C	1.067195	0.021084	0.269144
C510	C	1.567195	0.521084	0.769144
C511	C	1.122980	-0.010894	0.225724
C512	C	1.622980	0.489106	0.725724
H513	H	1.057335	0.063959	0.178271
H514	H	1.557335	0.563959	0.678271
H515	H	0.997093	0.023982	0.178317
H516	H	1.497093	0.523982	0.678317
H517	H	1.093314	0.043375	0.303110
H518	H	1.593314	0.543375	0.803110
H519	H	1.033096	0.003392	0.303173
H520	H	1.533096	0.503392	0.803173
H521	H	1.096860	-0.033188	0.191744
H522	H	1.596860	0.466812	0.691744
H523	H	1.157095	0.006793	0.191698
H524	H	1.657095	0.506793	0.691698
H525	H	1.152823	-0.027994	0.264287
H526	H	1.652823	0.472006	0.764287
C527	C	0.821387	0.161840	0.787861
C528	C	1.321387	0.661840	1.287861
C529	C	0.777364	0.187011	0.731022
C530	C	1.277364	0.687011	1.231022
C531	C	0.721508	0.218938	0.774451
C532	C	1.221508	0.718938	1.274451
H533	H	0.847426	0.184154	0.821864
H534	H	1.347426	0.684154	1.321864
H535	H	0.787309	0.144106	0.821865
H536	H	1.287309	0.644106	1.321865
H537	H	0.811437	0.204744	0.697032
H538	H	1.311437	0.704744	1.197032
H539	H	0.751307	0.164710	0.697017
H540	H	1.251307	0.664710	1.197017
H541	H	0.687430	0.201204	0.808455
H542	H	1.187430	0.701204	1.308455
H543	H	0.747554	0.241248	0.808453
H544	H	1.247554	0.741248	1.308453
H545	H	0.691626	0.236017	0.735892
H546	H	1.191626	0.736017	1.235892
