data_functionalizedCrystal
_audit_creation_method	'MofGen! by Chris Wilmer'
_symmetry_space_group_name_H-M	'P1'
_symmetry_Int_Tables_number	1
_symmetry_cell_setting	triclinic
loop_
_symmetry_equiv_pos_as_xyz
  x,y,z
_cell_length_a	25.639243
_cell_length_b	25.639239
_cell_length_c	18.050582
_cell_angle_alpha	90.024638
_cell_angle_beta	90.017474
_cell_angle_gamma	90.041410
loop_
_atom_site_label
_atom_site_type_symbol
_atom_site_fract_x
_atom_site_fract_y
_atom_site_fract_z
Zn1	Zn	0.799233	-0.208146	0.419952
Zn2	Zn	0.799154	-0.295574	0.295758
Zn3	Zn	0.711807	-0.208158	0.295771
Zn4	Zn	0.711754	-0.295556	0.419901
O5	O	0.755487	-0.251859	0.357846
O6	O	0.872388	-0.219746	0.403494
O7	O	0.787556	-0.283990	0.191835
O8	O	0.723459	-0.134991	0.312271
O9	O	0.872330	-0.283978	0.312249
O10	O	0.787691	-0.134982	0.403507
O11	O	0.723383	-0.219767	0.191845
O12	O	0.638635	-0.219750	0.312221
O13	O	0.723370	-0.283949	0.523832
O14	O	0.638596	-0.283961	0.403419
O15	O	0.787640	-0.219729	0.523870
O16	O	0.787505	-0.368737	0.312199
O17	O	0.723293	-0.368724	0.403406
C18	C	0.619644	-0.251855	0.357816
C19	C	0.561530	-0.251866	0.357821
C20	C	0.201192	-0.218465	0.405436
C21	C	0.146588	-0.218465	0.405441
O22	O	0.118372	-0.190056	0.445888
N23	N	0.119248	-0.251857	0.357866
C24	C	0.146515	-0.285248	0.310278
O25	O	0.118247	-0.313651	0.269812
C26	C	0.201119	-0.285246	0.310270
C27	C	0.228456	-0.251855	0.357854
C28	C	0.228529	-0.185077	0.453015
C29	C	0.283129	-0.185078	0.453011
C30	C	0.310393	-0.218468	0.405429
C31	C	0.283056	-0.251856	0.357850
C32	C	0.228385	-0.318634	0.262679
C33	C	0.282992	-0.318628	0.262675
C34	C	0.310329	-0.285237	0.310259
C35	C	0.364920	-0.285247	0.310263
N36	N	0.392260	-0.251855	0.357838
C37	C	0.364996	-0.218465	0.405421
C38	C	0.031845	-0.285251	0.310297
C39	C	-0.022758	-0.285256	0.310308
C40	C	-0.022682	-0.218472	0.405470
C41	C	0.031922	-0.218469	0.405462
C42	C	0.059184	-0.251858	0.357872
C43	C	0.479661	-0.218471	0.405410
C44	C	0.534267	-0.218476	0.405404
C45	C	0.534186	-0.285259	0.310240
C46	C	0.479585	-0.285255	0.310248
C47	C	0.452324	-0.251857	0.357835
O48	O	0.393171	-0.313640	0.269835
O49	O	0.393271	-0.190063	0.445873
C50	C	0.755399	-0.387701	0.357812
C51	C	0.755409	-0.445815	0.357822
C52	C	0.789010	-0.806172	0.310435
C53	C	0.789030	-0.860777	0.310445
O54	O	0.817507	-0.889008	0.270117
N55	N	0.755579	-0.888098	0.357895
C56	C	0.722109	-0.860812	0.405343
O57	O	0.693659	-0.889064	0.445705
C58	C	0.722092	-0.806208	0.405337
C59	C	0.755541	-0.778890	0.357878
C60	C	0.822457	-0.778854	0.262981
C61	C	0.822436	-0.724254	0.262970
C62	C	0.788967	-0.696971	0.310413
C63	C	0.755520	-0.724290	0.357867
C64	C	0.688626	-0.778923	0.452788
C65	C	0.688611	-0.724316	0.452778
C66	C	0.722061	-0.696998	0.405319
C67	C	0.722031	-0.642407	0.405300
N68	N	0.755482	-0.615086	0.357850
C69	C	0.788950	-0.642368	0.310407
C70	C	0.722149	-0.975482	0.405355
C71	C	0.722163	-1.030084	0.405358
C72	C	0.789084	-1.030046	0.310461
C73	C	0.789067	-0.975442	0.310454
C74	C	0.755600	-0.948161	0.357905
C75	C	0.788903	-0.527703	0.310387
C76	C	0.788877	-0.473098	0.310379
C77	C	0.721958	-0.473141	0.405279
C78	C	0.721982	-0.527742	0.405285
C79	C	0.755458	-0.555021	0.357837
O80	O	0.693570	-0.614140	0.445609
O81	O	0.817401	-0.614109	0.270059
C82	C	0.891860	-0.251863	0.357876
C83	C	0.949974	-0.251864	0.357888
C84	C	0.755508	-0.251835	0.551551
C85	C	0.755516	-0.251826	0.634097
C86	C	0.755590	-0.115486	0.357896
C87	C	0.755633	-0.057372	0.357917
C88	C	0.755497	-0.251844	0.164893
C89	C	0.755589	-0.251707	0.082348
C90	C	0.720593	-0.286701	0.833527
C91	C	0.768292	-0.299479	0.882921
C92	C	0.755542	-0.251786	0.785228
C93	C	0.707869	-0.238993	0.882916
C94	C	0.755563	-0.251748	0.931213
C95	C	0.803266	-0.264589	0.833534
C96	C	0.742811	-0.204081	0.833524
C97	C	0.790543	-0.216841	0.882896
C98	C	0.755529	-0.251809	0.701129
C99	C	0.755581	-0.251725	1.015309
H100	H	0.305382	-0.157887	0.491757
H101	H	0.694920	-1.052322	0.443997
Cl102	Cl	0.680067	-0.941191	0.465007
H103	H	0.661385	-0.801156	0.491431
Cl104	Cl	0.726146	-0.141836	0.799996
Cl105	Cl	0.784936	-0.361740	0.916423
H106	H	0.457327	-0.312451	0.271510
Cl107	Cl	0.317262	-0.360607	0.202845
Cl108	Cl	0.645612	-0.222311	0.916407
H109	H	0.054176	-0.191278	0.444207
Cl110	Cl	0.830931	-0.438758	0.250712
H111	H	-0.044890	-0.191283	0.444213
Cl112	Cl	0.836239	-0.171230	0.916158
H113	H	-0.045011	-0.312452	0.271570
Cl114	Cl	0.831120	-0.941105	0.250791
Cl115	Cl	0.865542	-0.281347	0.800189
H116	H	0.556522	-0.191285	0.444154
Cl117	Cl	0.066112	-0.327233	0.250468
Cl118	Cl	0.646536	-0.690023	0.512435
Cl119	Cl	0.831158	-1.064354	0.250816
Cl120	Cl	0.675005	-0.332344	0.800057
Cl121	Cl	0.679920	-0.562085	0.464932
H122	H	0.206137	-0.345824	0.223931
Cl123	Cl	0.679889	-0.438833	0.464922
H124	H	0.457472	-0.191273	0.444158
Cl125	Cl	0.864497	-0.689919	0.203316
Cl126	Cl	0.194264	-0.143096	0.512842
Cl127	Cl	0.568471	-0.327232	0.250425
H128	H	0.849713	-0.801062	0.224347
Cl129	Cl	0.830988	-0.561989	0.250736
