data_functionalizedCrystal
_audit_creation_method	'MofGen! by Chris Wilmer'
_symmetry_space_group_name_H-M	'P1'
_symmetry_Int_Tables_number	1
_symmetry_cell_setting	triclinic
loop_
_symmetry_equiv_pos_as_xyz
  x,y,z
_cell_length_a	16.120484
_cell_length_b	15.298206
_cell_length_c	15.296720
_cell_angle_alpha	110.778255
_cell_angle_beta	101.986518
_cell_angle_gamma	82.742846
loop_
_atom_site_label
_atom_site_type_symbol
_atom_site_fract_x
_atom_site_fract_y
_atom_site_fract_z
Zn1	Zn	-0.589141	1.291508	-0.318430
Zn2	Zn	-0.089141	1.791508	0.181570
Zn3	Zn	-0.707984	1.310435	-0.170812
Zn4	Zn	-0.207984	1.810435	0.329188
Zn5	Zn	-0.548075	1.165649	-0.187166
Zn6	Zn	-0.048075	1.665649	0.312834
Zn7	Zn	-0.707972	1.128078	-0.353231
Zn8	Zn	-0.207972	1.628078	0.146769
O9	O	-0.638293	1.223918	-0.257410
O10	O	-0.138293	1.723918	0.242590
O11	O	-0.622097	1.423007	-0.277440
O12	O	-0.122097	1.923007	0.222560
O13	O	-0.669591	1.314874	-0.041704
O14	O	-0.169591	1.814874	0.458296
O15	O	-0.436869	1.190147	-0.196859
O16	O	0.063131	1.690147	0.303141
O17	O	-0.709411	1.436913	-0.168985
O18	O	-0.209411	1.936913	0.331015
O19	O	-0.467040	1.282615	-0.293298
O20	O	0.032960	1.782615	0.206702
O21	O	-0.552107	1.208500	-0.053719
O22	O	-0.052107	1.708500	0.446281
O23	O	-0.552094	1.031677	-0.230603
O24	O	-0.052094	1.531677	0.269397
O25	O	-0.709389	1.126113	-0.479892
O26	O	-0.209389	1.626113	0.020108
O27	O	-0.669569	1.004073	-0.352610
O28	O	-0.169569	1.504073	0.147390
O29	O	-0.622085	1.246184	-0.454324
O30	O	-0.122085	1.746184	0.045676
O31	O	-0.824636	1.278443	-0.202730
O32	O	-0.324636	1.778443	0.297270
O33	O	-0.824627	1.144466	-0.336752
O34	O	-0.324627	1.644466	0.163248
C35	C	-0.606375	0.984429	-0.297158
C36	C	-0.106375	1.484429	0.202842
C37	C	-0.592743	0.881970	-0.314187
C38	C	-0.092743	1.381970	0.185813
C39	C	-0.540974	0.826578	-0.378757
C40	C	-0.040974	1.326578	0.121243
C41	C	-0.528159	0.730312	-0.394757
C42	C	-0.028159	1.230312	0.105243
C43	C	-0.567116	0.689428	-0.346195
C44	C	-0.067116	1.189428	0.153805
C45	C	-0.618891	0.744819	-0.281629
C46	C	-0.118891	1.244819	0.218371
C47	C	-0.631702	0.841096	-0.265621
C48	C	-0.131702	1.341096	0.234379
C49	C	-0.657844	0.703946	-0.233060
C50	C	-0.157844	1.203946	0.266940
C51	C	-0.709618	0.759337	-0.168493
C52	C	-0.209618	1.259337	0.331507
C53	C	-0.722428	0.855604	-0.152489
C54	C	-0.222428	1.355604	0.347511
C55	C	-0.683471	0.896488	-0.201051
C56	C	-0.183471	1.396488	0.298949
C57	C	-0.645032	0.607669	-0.249067
C58	C	-0.145032	1.107669	0.250933
C59	C	-0.735760	0.622187	-0.135932
C60	C	-0.235760	1.122187	0.364068
C61	C	-0.748575	0.718453	-0.119931
C62	C	-0.248575	1.218453	0.380069
C63	C	-0.854885	1.209453	-0.271759
C64	C	-0.354885	1.709453	0.228241
C65	C	-0.947559	1.203343	-0.277915
C66	C	-0.447559	1.703343	0.222085
C67	C	-1.117239	1.192191	-0.289172
C68	C	-0.617239	1.692191	0.210828
C69	C	-1.158530	1.255807	-0.225635
C70	C	-0.658530	1.755807	0.274365
C71	C	-1.252946	1.249602	-0.231899
C72	C	-0.752946	1.749602	0.268101
C73	C	-1.022815	1.198394	-0.282910
C74	C	-0.522815	1.698394	0.217090
C75	C	-0.420861	1.238461	-0.243021
C76	C	0.079139	1.738461	0.256979
C77	C	-0.328205	1.244658	-0.236889
C78	C	0.171795	1.744658	0.263111
C79	C	-0.670316	1.179846	-0.502098
C80	C	-0.170316	1.679846	-0.002098
C81	C	-0.683963	1.161065	-0.606370
C82	C	-0.183963	1.661065	-0.106370
C83	C	-0.670336	1.464341	-0.217506
C84	C	-0.170336	1.964341	0.282494
C85	C	-0.683992	1.566795	-0.200502
C86	C	-0.183992	2.066795	0.299498
C87	C	-0.540618	1.358191	-0.847047
C88	C	-0.040618	1.858191	-0.347047
C89	C	-0.527799	1.375842	-0.749078
C90	C	-0.027799	1.875842	-0.249078
C91	C	-0.566838	1.322149	-0.713396
C92	C	-0.066838	1.822149	-0.213396
C93	C	-0.618700	1.250802	-0.775693
C94	C	-0.118700	1.750802	-0.275693
C95	C	-0.631526	1.233154	-0.873672
C96	C	-0.131526	1.733154	-0.373672
C97	C	-0.657746	1.197113	-0.740020
C98	C	-0.157746	1.697113	-0.240020
C99	C	-0.709608	1.125766	-0.802318
C100	C	-0.209608	1.625766	-0.302318
C101	C	-0.722431	1.108121	-0.900286
C102	C	-0.222431	1.608121	-0.400286
C103	C	-0.683392	1.161813	-0.935968
C104	C	-0.183392	1.661813	-0.435968
C105	C	-0.644920	1.214761	-0.642042
C106	C	-0.144920	1.714761	-0.142042
C107	C	-0.735828	1.089724	-0.668667
C108	C	-0.235828	1.589724	-0.168667
C109	C	-0.748648	1.072073	-0.766636
C110	C	-0.248648	1.572073	-0.266636
C111	C	-0.606341	1.267875	-0.013660
C112	C	-0.106341	1.767875	0.486340
C113	C	-0.592484	1.286850	0.090656
C114	C	-0.092484	1.786850	0.590656
H115	H	-0.509256	0.859876	-0.418284
H116	H	-0.009256	1.359876	0.081716
H117	H	-0.602693	1.272851	-0.591329
H118	H	-0.102693	1.772851	-0.091329
O119	O	-0.778371	1.031170	-0.967474
O120	O	-0.278371	1.531170	-0.467474
H121	H	-0.832131	1.061547	-1.008063
H122	H	-0.332131	1.561547	-0.508063
H123	H	-1.122972	1.314930	-0.166534
H124	H	-0.622972	1.814930	0.333466
H125	H	-0.693914	0.974872	-0.188039
H126	H	-0.193914	1.474872	0.311961
O127	O	-1.164325	1.113862	-0.367442
O128	O	-0.664325	1.613862	0.132558
H129	H	-1.232164	1.121213	-0.360125
H130	H	-0.732164	1.621213	0.139875
H131	H	-0.602876	0.562579	-0.301636
H132	H	-0.102876	1.062579	0.198364
O133	O	-0.553007	1.341174	-0.607731
O134	O	-0.053007	1.841174	-0.107731
H135	H	-0.510379	1.399798	-0.570406
H136	H	-0.010379	1.899798	-0.070406
O137	O	-0.471869	1.452789	-0.681886
O138	O	0.028131	1.952789	-0.181886
H139	H	-0.446872	1.487156	-0.723155
H140	H	0.053128	1.987156	-0.223155
O141	O	-0.804580	0.995122	-0.833835
O142	O	-0.304580	1.495122	-0.333835
H143	H	-0.869653	1.009929	-0.816739
H144	H	-0.369653	1.509929	-0.316739
H145	H	-0.693826	1.147446	-1.015742
H146	H	-0.193826	1.647446	-0.515742
H147	H	-0.767619	1.046005	-0.639615
H148	H	-0.267619	1.546005	-0.139615
O149	O	-0.553303	0.585598	-0.363453
O150	O	-0.053303	1.085598	0.136547
H151	H	-0.510763	0.553947	-0.416514
H152	H	-0.010763	1.053947	0.083486
O153	O	-0.472321	0.670568	-0.464391
O154	O	0.027679	1.170568	0.035609
H155	H	-0.447389	0.715167	-0.495476
H156	H	0.052611	1.215167	0.004524
H157	H	-0.508843	1.401904	-0.876109
H158	H	-0.008843	1.901904	-0.376109
O159	O	-0.778256	0.915355	-0.082839
O160	O	-0.278256	1.415355	0.417161
H161	H	-0.803197	0.870756	-0.051762
H162	H	-0.303197	1.370756	0.448238
O163	O	-0.777782	0.578108	-0.083543
O164	O	-0.277782	1.078108	0.416457
H165	H	-0.819912	0.523884	-0.135552
H166	H	-0.319912	1.023884	0.364448
H167	H	-0.790731	0.763566	-0.067361
H168	H	-0.290731	1.263566	0.432639
