data_functionalizedCrystal
_audit_creation_method	'MofGen! by Chris Wilmer'
_symmetry_space_group_name_H-M	'P1'
_symmetry_Int_Tables_number	1
_symmetry_cell_setting	triclinic
loop_
_symmetry_equiv_pos_as_xyz
  x,y,z
_cell_length_a	14.519709
_cell_length_b	14.971486
_cell_length_c	13.448316
_cell_angle_alpha	89.993189
_cell_angle_beta	89.998858
_cell_angle_gamma	83.647137
loop_
_atom_site_label
_atom_site_type_symbol
_atom_site_fract_x
_atom_site_fract_y
_atom_site_fract_z
O1	O	1.223800	0.117253	-0.082563
O2	O	0.955315	0.131061	-0.082593
O3	O	1.096754	-0.006039	-0.082570
O4	O	1.082362	0.254353	-0.082586
O5	O	1.096736	-0.006048	0.082814
O6	O	0.955297	0.131052	0.082790
O7	O	1.223782	0.117244	0.082821
Cu8	Cu	1.089538	0.124147	0.097907
Cu9	Cu	1.089559	0.124157	-0.097679
O10	O	1.082344	0.254344	0.082798
C11	C	1.096101	-0.039369	0.000121
C12	C	1.094172	-0.138667	0.000120
C13	C	0.920947	0.130413	0.000095
C14	C	0.818567	0.128485	0.000083
C15	C	1.177264	-0.195845	0.000130
C16	C	1.175446	-0.289146	0.000120
C17	C	1.090536	-0.325266	0.000107
C18	C	1.007438	-0.268080	0.000094
C19	C	1.009257	-0.174781	0.000097
C20	C	1.003653	-0.462545	0.000090
C21	C	1.001834	-0.555850	0.000089
C22	C	1.169842	-0.576909	0.000113
C23	C	1.171661	-0.483610	0.000116
C24	C	1.088563	-0.426431	0.000105
C25	C	0.443675	0.121386	0.000129
C26	C	0.547982	0.123357	0.000116
C27	C	0.631118	0.124935	0.000105
C28	C	0.735431	0.126907	0.000094
C29	C	1.258151	0.117892	0.000131
C30	C	1.360531	0.119820	0.000136
C31	C	1.082996	0.287674	0.000104
C32	C	1.084925	0.386972	0.000099
N33	N	1.089530	0.124140	0.235471
N34	N	1.089575	0.124158	-0.235243
C35	C	1.152179	0.063457	0.287521
C36	C	1.152184	0.063456	0.391625
C37	C	1.089545	0.124143	0.443675
C38	C	1.026890	0.184829	0.391618
C39	C	1.026881	0.184825	0.287516
C40	C	1.026916	0.184835	0.608598
C41	C	1.026926	0.184841	0.712706
C42	C	1.152219	0.063467	0.712706
C43	C	1.152210	0.063462	0.608605
C44	C	1.089556	0.124149	0.556554
H45	H	1.243107	-0.335698	0.000131
H46	H	0.975918	0.234258	0.755081
H47	H	1.240802	-0.454205	0.000134
O48	O	1.259724	-0.160721	0.000318
C49	C	1.265791	-0.107376	0.085961
H50	H	1.217568	-0.129520	0.145824
H51	H	1.340105	-0.115639	0.114717
H52	H	1.244605	-0.033834	0.066595
O53	O	1.250480	-0.632576	0.000069
C54	C	1.230672	-0.722670	0.000079
H55	H	1.158234	-0.726356	-0.031241
H56	H	1.283634	-0.764844	-0.047936
H57	H	1.234131	-0.749661	0.079419
H58	H	1.203220	0.014051	0.566225
O59	O	0.922992	-0.406910	0.000213
C60	C	0.918999	-0.352339	0.085881
H61	H	0.992203	-0.347509	0.114444
H62	H	0.884725	-0.282271	0.066617
H63	H	0.876840	-0.383107	0.145854
O64	O	1.213045	0.004390	0.763150
C65	C	1.197955	-0.084191	0.737745
H66	H	1.162399	-0.084161	0.662167
H67	H	1.267231	-0.128083	0.734176
H68	H	1.152036	-0.111959	0.796347
O69	O	0.919273	-0.590790	0.000016
C70	C	0.846318	-0.520318	0.000018
H71	H	0.872246	-0.456893	-0.031279
H72	H	0.787060	-0.539908	-0.048021
H73	H	0.820656	-0.507169	0.079352
O74	O	0.924933	-0.303123	-0.000098
C75	C	0.874276	-0.273891	-0.085746
H76	H	0.923934	-0.254399	-0.145606
H77	H	0.834981	-0.330469	-0.114504
H78	H	0.822949	-0.213171	-0.066388
H79	H	0.975884	0.234239	0.434003
H80	H	0.975893	0.234250	0.566221
H81	H	0.941595	-0.128227	0.000088
H82	H	0.975865	0.234238	0.245138
O83	O	1.213062	0.004418	0.237118
C84	C	1.268372	-0.049127	0.305388
H85	H	1.230568	-0.050215	0.379600
H86	H	1.282364	-0.120532	0.275323
H87	H	1.336909	-0.019935	0.316446
O88	O	1.213082	0.004637	0.442301
C89	C	1.270035	0.052675	0.502484
H90	H	1.233373	0.122586	0.518066
H91	H	1.284591	0.015378	0.575696
H92	H	1.338194	0.058904	0.462358
