data_functionalizedCrystal
_audit_creation_method	'MofGen! by Chris Wilmer'
_symmetry_space_group_name_H-M	'P1'
_symmetry_Int_Tables_number	1
_symmetry_cell_setting	triclinic
loop_
_symmetry_equiv_pos_as_xyz
  x,y,z
_cell_length_a	14.971486
_cell_length_b	9.798715
_cell_length_c	14.971486
_cell_angle_alpha	90.003357
_cell_angle_beta	83.614129
_cell_angle_gamma	89.998730
loop_
_atom_site_label
_atom_site_type_symbol
_atom_site_fract_x
_atom_site_fract_y
_atom_site_fract_z
O1	O	1.186944	0.113335	0.116561
O2	O	1.686944	0.613335	0.616561
O3	O	0.926544	0.113372	0.130519
O4	O	1.426544	0.613372	0.630519
O5	O	1.063723	0.113343	-0.006660
O6	O	1.563723	0.613343	0.493340
O7	O	1.049764	0.113364	0.253740
O8	O	1.549764	0.613364	0.753740
O9	O	1.063713	-0.113640	-0.006660
O10	O	1.563713	0.386360	0.493340
O11	O	0.926534	-0.113610	0.130519
O12	O	1.426534	0.386390	0.630519
O13	O	1.186934	-0.113647	0.116560
O14	O	1.686934	0.386353	0.616560
Zn15	Zn	1.056732	-0.149667	0.123540
Zn16	Zn	1.556732	0.350333	0.623540
Zn17	Zn	1.056745	0.149392	0.123540
Zn18	Zn	1.556745	0.649392	0.623540
O19	O	1.049754	-0.113618	0.253740
O20	O	1.549754	0.386382	0.753740
C21	C	0.893214	-0.000114	0.129895
C22	C	1.393214	0.499886	0.629895
C23	C	0.793917	-0.000100	0.128024
C24	C	1.293917	0.499900	0.628024
N25	N	1.056729	-0.353767	0.123539
N26	N	1.556729	0.146233	0.623539
C27	C	0.736692	-0.000096	0.208614
C28	C	1.236692	0.499904	0.708614
C29	C	0.643392	-0.000116	0.206850
C30	C	1.143392	0.499884	0.706850
C31	C	0.607320	-0.000132	0.124497
C32	C	1.107320	0.499868	0.624497
C33	C	0.664552	-0.000140	0.043902
C34	C	1.164552	0.499860	0.543902
C35	C	0.757850	-0.000130	0.045666
C36	C	1.257850	0.499870	0.545666
C37	C	0.470090	-0.000160	0.040231
C38	C	0.970090	0.499840	0.540231
C39	C	0.376786	-0.000168	0.038466
C40	C	0.876786	0.499832	0.538466
C41	C	0.355632	-0.000146	0.201415
C42	C	0.855632	0.499854	0.701415
C43	C	0.448930	-0.000135	0.203179
C44	C	0.948930	0.499865	0.703179
C45	C	0.506156	-0.000142	0.122584
C46	C	1.006156	0.499858	0.622584
C47	C	1.114329	-0.421556	0.065689
C48	C	1.614329	0.078444	0.565689
C49	C	1.114343	-0.578719	0.065686
C50	C	1.614343	-0.078719	0.565686
C51	C	1.220263	-0.000158	0.117185
C52	C	1.720263	0.499842	0.617185
C53	C	1.319561	-0.000163	0.119056
C54	C	1.819561	0.499837	0.619056
C55	C	1.063094	-0.000148	-0.039985
C56	C	1.563094	0.499852	0.460015
C57	C	1.061223	-0.000146	-0.139282
C58	C	1.561223	0.499854	0.360718
N59	N	1.056755	0.353491	0.123534
N60	N	1.556755	0.853491	0.623534
C61	C	1.141812	-0.000159	-0.196507
C62	C	1.641812	0.499841	0.303493
C63	C	1.140049	-0.000145	-0.289807
C64	C	1.640049	0.499855	0.210193
C65	C	1.057696	-0.000128	-0.325879
C66	C	1.557696	0.499872	0.174121
C67	C	0.977101	-0.000112	-0.268646
C68	C	1.477101	0.499888	0.231354
C69	C	0.978865	-0.000116	-0.175349
C70	C	1.478865	0.499884	0.324651
C71	C	0.973430	-0.000106	-0.463109
C72	C	1.473430	0.499894	0.036891
C73	C	0.971665	-0.000105	-0.556413
C74	C	1.471665	0.499895	-0.056413
C75	C	1.134614	-0.000135	-0.577567
C76	C	1.634614	0.499865	-0.077567
C77	C	1.136378	-0.000140	-0.484269
C78	C	1.636378	0.499860	0.015731
C79	C	1.055782	-0.000125	-0.427043
C80	C	1.555782	0.499875	0.072957
C81	C	1.050384	-0.000125	0.287065
C82	C	1.550384	0.499875	0.787065
C83	C	1.052254	-0.000117	0.386362
C84	C	1.552254	0.499883	0.886362
H85	H	0.766054	-0.000082	0.275675
H86	H	1.266054	0.499918	0.775675
H87	H	1.007423	-0.412081	0.173061
H88	H	1.507423	0.087919	0.673061
F89	F	0.889454	-0.000078	-0.307040
F90	F	1.389454	0.499922	0.192960
H91	H	0.309033	-0.000147	0.267039
H92	H	0.809033	0.499853	0.767039
F93	F	1.229465	-0.000190	-0.158125
F94	F	1.729465	0.499810	0.341875
F95	F	0.992298	-0.570324	0.188279
F96	F	1.492298	-0.070324	0.688279
H97	H	1.205673	-0.000158	-0.336396
H98	H	1.705673	0.499842	0.163604
F99	F	1.224028	-0.000154	-0.445880
F100	F	1.724028	0.499846	0.054120
F101	F	0.338397	-0.000219	-0.049183
F102	F	0.838397	0.499781	0.450817
F103	F	1.178806	-0.654912	0.000952
F104	F	1.678806	-0.154912	0.500952
H105	H	1.200238	-0.000142	-0.624165
H106	H	1.700238	0.499858	-0.124165
H107	H	0.904606	-0.000113	-0.585780
H108	H	1.404606	0.499887	-0.085780
H109	H	0.907800	-0.000091	-0.416517
H110	H	1.407800	0.499909	0.083483
H111	H	0.635175	-0.000173	-0.023152
H112	H	1.135175	0.499827	0.476848
F113	F	0.530993	-0.000171	-0.045549
F114	F	1.030993	0.499829	0.454451
F115	F	0.893090	-0.000098	-0.114445
F116	F	1.393090	0.499902	0.385555
H117	H	0.804443	-0.000133	-0.019958
H118	H	1.304443	0.499867	0.480042
F119	F	0.582492	-0.000105	0.292625
F120	F	1.082492	0.499895	0.792625
H121	H	0.478296	-0.000110	0.270239
H122	H	0.978296	0.499890	0.770239
H123	H	1.163629	-0.363244	0.016160
H124	H	1.663629	0.136756	0.516160
