data_functionalizedCrystal
_audit_creation_method	'MofGen! by Chris Wilmer'
_symmetry_space_group_name_H-M	'P1'
_symmetry_Int_Tables_number	1
_symmetry_cell_setting	triclinic
loop_
_symmetry_equiv_pos_as_xyz
  x,y,z
_cell_length_a	19.805407
_cell_length_b	19.077713
_cell_length_c	19.805399
_cell_angle_alpha	92.272310
_cell_angle_beta	89.982197
_cell_angle_gamma	87.730174
loop_
_atom_site_label
_atom_site_type_symbol
_atom_site_fract_x
_atom_site_fract_y
_atom_site_fract_z
Zn1	Zn	1.045542	-0.280249	-0.393524
Zn2	Zn	1.049995	-0.397939	-0.284887
Zn3	Zn	0.932357	-0.280262	-0.280353
Zn4	Zn	0.936857	-0.397896	-0.398035
O5	O	0.991188	-0.339087	-0.339200
O6	O	1.140850	-0.295873	-0.379123
O7	O	1.034371	-0.382353	-0.189569
O8	O	0.943625	-0.181776	-0.291580
O9	O	1.144122	-0.382340	-0.299307
O10	O	1.026781	-0.181766	-0.374726
O11	O	0.947943	-0.295896	-0.186238
O12	O	0.838237	-0.295855	-0.295954
O13	O	0.951294	-0.382266	-0.492152
O14	O	0.841543	-0.382280	-0.382415
O15	O	1.031144	-0.295831	-0.488838
O16	O	1.038734	-0.496418	-0.303681
O17	O	0.955612	-0.496386	-0.386811
C18	C	0.815331	-0.339065	-0.339182
C19	C	0.740099	-0.339072	-0.339192
C20	C	0.703055	-0.294129	-0.380820
C21	C	0.632367	-0.294132	-0.380823
C22	C	0.598724	-0.339084	-0.339200
C23	C	0.635773	-0.384029	-0.297567
C24	C	0.706460	-0.384022	-0.297561
C25	C	0.350701	-0.384061	-0.297589
C26	C	0.280009	-0.384067	-0.297599
C27	C	0.276608	-0.294172	-0.380851
C28	C	0.347295	-0.294164	-0.380845
C29	C	0.384338	-0.339107	-0.339209
C30	C	0.460986	-0.339101	-0.339206
C31	C	0.522077	-0.339093	-0.339207
C32	C	0.998163	-0.521938	-0.346242
C33	C	1.001208	-0.600162	-0.349278
C34	C	1.023051	-1.040476	-0.371030
C35	C	1.020181	-0.966976	-0.368172
C36	C	0.975486	-0.930298	-0.323424
C37	C	0.933662	-0.967123	-0.281526
C38	C	0.936535	-1.040622	-0.284382
C39	C	0.962258	-0.710487	-0.310236
C40	C	0.959386	-0.636983	-0.307385
C41	C	1.045907	-0.636841	-0.394030
C42	C	1.048773	-0.710341	-0.396884
C43	C	1.006952	-0.747160	-0.354985
N44	N	0.972551	-0.855169	-0.320503
N45	N	1.009891	-0.822288	-0.357903
C46	C	1.167732	-0.339109	-0.339217
C47	C	1.242964	-0.339119	-0.339225
C48	C	0.991224	-0.339042	-0.515741
C49	C	0.991240	-0.339023	-0.590972
C50	C	0.984204	-0.155521	-0.332144
C51	C	0.981229	-0.077297	-0.329137
C52	C	1.032819	-0.294014	-0.624591
C53	C	1.032825	-0.293994	-0.695279
C54	C	0.991255	-0.338987	-0.732346
C55	C	0.949671	-0.383998	-0.698722
C56	C	0.949662	-0.384014	-0.628035
C57	C	0.949707	-0.383932	-0.983793
C58	C	0.949721	-0.383914	-1.054484
C59	C	1.032870	-0.293912	-1.051037
C60	C	1.032861	-0.293928	-0.980350
C61	C	0.991274	-0.338937	-0.946732
C62	C	0.991267	-0.338957	-0.870084
C63	C	0.991265	-0.338970	-0.808993
C64	C	0.991189	-0.339080	-0.163343
C65	C	0.991297	-0.338901	-0.088105
H66	H	0.380853	-0.420657	-0.263687
H67	H	0.915867	-0.420554	-1.084663
H68	H	0.730442	-0.257526	-0.414717
H69	H	1.059440	-1.070335	-0.407476
O70	O	0.904820	-0.432438	-0.947535
H71	H	0.875908	-0.463711	-0.985187
O72	O	0.904829	-0.432524	-0.738696
H73	H	0.911823	-0.424956	-0.793498
O74	O	1.077676	-0.245450	-0.731537
H75	H	1.070695	-0.252990	-0.786917
H76	H	0.928204	-0.740456	-0.276118
H77	H	1.066729	-0.257262	-1.078417
O78	O	1.096980	-0.749902	-0.445148
H79	H	1.125584	-0.711950	-0.473797
O80	O	1.077659	-0.245484	-0.584619
H81	H	1.113294	-0.276997	-0.553636
O82	O	0.599492	-0.432513	-0.252669
H83	H	0.544115	-0.424973	-0.259670
O84	O	0.383582	-0.245681	-0.425739
H85	H	0.414407	-0.209837	-0.394114
H86	H	0.915797	-0.420658	-0.600663
O87	O	0.236656	-0.245684	-0.425751
H88	H	0.181850	-0.253231	-0.418758
O89	O	0.746414	-0.432499	-0.252660
H90	H	0.777391	-0.400945	-0.217052
O91	O	0.592413	-0.245659	-0.425726
H92	H	0.558832	-0.209808	-0.394110
H93	H	0.902479	-1.070601	-0.250268
H94	H	0.252620	-0.420673	-0.263702
O95	O	1.065307	-0.927260	-0.413337
H96	H	1.096870	-0.965112	-0.444932
O97	O	1.091021	-0.597131	-0.439213
H98	H	1.081522	-0.539860	-0.429707
H99	H	0.897273	-0.937256	-0.245088
O100	O	0.911183	-0.597420	-0.259113
H101	H	0.858606	-0.611575	-0.271215
O102	O	1.077697	-0.245402	-0.940368
H103	H	1.106607	-0.214096	-0.975622
