data_functionalizedCrystal
_audit_creation_method	'MofGen! by Chris Wilmer'
_symmetry_space_group_name_H-M	'P1'
_symmetry_Int_Tables_number	1
_symmetry_cell_setting	triclinic
loop_
_symmetry_equiv_pos_as_xyz
  x,y,z
_cell_length_a	12.503572
_cell_length_b	14.044220
_cell_length_c	10.489689
_cell_angle_alpha	88.853350
_cell_angle_beta	86.438068
_cell_angle_gamma	93.835250
loop_
_atom_site_label
_atom_site_type_symbol
_atom_site_fract_x
_atom_site_fract_y
_atom_site_fract_z
O1	O	-0.089191	-1.265177	-0.300994
O2	O	-0.089219	-0.989136	-0.289887
O3	O	-0.089206	-1.133464	-0.110478
O4	O	-0.089203	-1.120849	-0.480403
O5	O	0.089435	-1.122609	-0.123995
O6	O	0.089422	-0.978281	-0.303404
O7	O	0.089450	-1.254323	-0.314511
Cu8	Cu	0.105748	-1.115311	-0.310192
Cu9	Cu	-0.105516	-1.128148	-0.294206
O10	O	0.089438	-1.109995	-0.493920
C11	C	0.000098	-0.948362	-0.291784
C12	C	0.000087	-0.843040	-0.277283
N13	N	0.254339	-1.106290	-0.321435
C14	C	0.000111	-1.127095	-0.069608
C15	C	0.000102	-1.124276	0.072311
N16	N	-0.254108	-1.137176	-0.282954
C17	C	0.473453	-1.093019	-0.337985
C18	C	0.526785	-1.150444	-0.266407
C19	C	0.648708	-1.143060	-0.275616
C20	C	0.351520	-1.100402	-0.328778
C21	C	0.000131	-1.295097	-0.312614
C22	C	0.000135	-1.400420	-0.327114
C23	C	0.000108	-0.650200	-0.250776
C24	C	0.000114	-0.593254	-0.353615
C25	C	0.000126	-0.485951	-0.338866
C26	C	0.000097	-0.757513	-0.265523
C27	C	0.000123	-1.211074	0.245894
C28	C	0.088196	-1.162365	0.151483
C29	C	-0.087930	-1.173043	0.164836
C30	C	0.088270	-1.070492	0.230747
C31	C	-0.087935	-1.081187	0.244114
C32	C	0.000160	-1.032411	0.149735
C33	C	0.000119	-1.116379	0.465211
C34	C	0.000123	-1.119243	0.323295
H35	H	0.480877	-1.205154	-0.198213
N36	N	0.531051	-1.024394	-0.423523
N37	N	0.631448	-1.018421	-0.430975
H38	H	0.672139	-0.969957	-0.491387
N39	N	0.000114	-0.633196	-0.477955
N40	N	0.000105	-0.721571	-0.489919
H41	H	0.000104	-0.749786	-0.577730
H42	H	0.000201	-0.956856	0.107930
N43	N	0.000216	-1.305757	0.298635
N44	N	-0.074632	-1.366160	0.279034
H45	H	-0.074564	-1.433028	0.316284
N46	N	-0.181355	-1.038173	0.295077
N47	N	-0.195854	-1.028464	0.412948
H48	H	-0.261841	-0.998093	0.448947
N49	N	0.000082	-0.610275	-0.126434
N50	N	-0.075231	-0.632850	-0.045231
H51	H	-0.075255	-0.604643	0.042587
N52	N	0.181614	-1.205440	0.100608
N53	N	0.197319	-1.289453	0.131969
H54	H	0.263293	-1.319881	0.096045
N55	N	0.181777	-1.016103	0.267271
N56	N	0.196895	-1.005151	0.382893
H57	H	0.262934	-0.966741	0.408693
N58	N	-0.181343	-1.227460	0.128094
N59	N	-0.196700	-1.237777	0.012420
H60	H	-0.262669	-1.276213	-0.013530
