data_functionalizedCrystal
_audit_creation_method	'MofGen! by Chris Wilmer'
_symmetry_space_group_name_H-M	'P1'
_symmetry_Int_Tables_number	1
_symmetry_cell_setting	triclinic
loop_
_symmetry_equiv_pos_as_xyz
  x,y,z
_cell_length_a	19.288864
_cell_length_b	19.188930
_cell_length_c	17.766277
_cell_angle_alpha	89.988508
_cell_angle_beta	89.976791
_cell_angle_gamma	83.140512
loop_
_atom_site_label
_atom_site_type_symbol
_atom_site_fract_x
_atom_site_fract_y
_atom_site_fract_z
O1	O	0.921360	0.087099	-0.062844
O2	O	1.421360	0.587099	0.437156
O3	O	0.719100	0.098849	-0.062794
O4	O	1.219100	0.598849	0.437206
O5	O	0.826066	-0.008682	-0.062806
O6	O	1.326066	0.491318	0.437194
O7	O	0.814393	0.194630	-0.062832
O8	O	1.314393	0.694630	0.437168
O9	O	0.826048	-0.008688	0.062383
O10	O	1.326048	0.491312	0.562383
O11	O	0.719081	0.098843	0.062395
O12	O	1.219081	0.598843	0.562395
O13	O	0.921341	0.087094	0.062345
O14	O	1.421341	0.587094	0.562345
Cu15	Cu	0.820209	0.092968	0.073800
Cu16	Cu	1.320209	0.592968	0.573800
Cu17	Cu	0.820231	0.092974	-0.074250
Cu18	Cu	1.320231	0.592974	0.425750
O19	O	0.814374	0.194625	0.062356
O20	O	1.314374	0.694625	0.562356
C21	C	0.693214	0.098468	-0.000193
C22	C	1.193214	0.598468	0.499807
C23	C	0.616110	0.097333	-0.000173
C24	C	1.116110	0.597333	0.499827
C25	C	0.571419	0.160427	-0.000193
C26	C	1.071419	0.660427	0.499807
C27	C	0.498972	0.159361	-0.000201
C28	C	0.998972	0.659361	0.499799
C29	C	0.471219	0.095197	-0.000204
C30	C	0.971219	0.595197	0.499796
C31	C	0.515921	0.032095	-0.000180
C32	C	1.015921	0.532095	0.499820
C33	C	0.588366	0.033163	-0.000164
C34	C	1.088366	0.533163	0.499836
C35	C	0.362960	0.044759	-0.044082
C36	C	0.862960	0.544759	0.455918
C37	C	0.290515	0.043694	-0.044103
C38	C	0.790515	0.543694	0.455897
C39	C	0.247773	0.091900	-0.000249
C40	C	0.747773	0.591900	0.499751
C41	C	0.277483	0.141184	0.043614
C42	C	0.777483	0.641184	0.543614
C43	C	0.349929	0.142252	0.043630
C44	C	0.849929	0.642252	0.543630
C45	C	0.392665	0.094032	-0.000221
C46	C	0.892665	0.594032	0.499779
C47	C	0.124526	0.153843	-0.000277
C48	C	0.624526	0.653843	0.499723
C49	C	0.052078	0.152774	-0.000281
C50	C	0.552078	0.652774	0.499719
C51	C	0.069028	0.025506	-0.000267
C52	C	0.569028	0.525506	0.499733
C53	C	0.141475	0.026576	-0.000256
C54	C	0.641475	0.526576	0.499744
C55	C	0.169219	0.090747	-0.000265
C56	C	0.669219	0.590747	0.499735
C57	C	0.825679	-0.034696	-0.000209
C58	C	1.325679	0.465304	0.499791
C59	C	0.824544	-0.112200	-0.000202
C60	C	1.324544	0.387800	0.499798
C61	C	0.887309	-0.157129	-0.000214
C62	C	1.387309	0.342871	0.499786
C63	C	0.886243	-0.229953	-0.000226
C64	C	1.386243	0.270047	0.499774
C65	C	0.822408	-0.257844	-0.000211
C66	C	1.322408	0.242156	0.499789
C67	C	0.759636	-0.212906	-0.000203
C68	C	1.259636	0.287094	0.499797
C69	C	0.760704	-0.140084	-0.000199
C70	C	1.260704	0.359916	0.499801
N71	N	0.773608	-0.365848	0.042405
N72	N	1.273608	0.134152	0.542405
N73	N	0.772598	-0.435026	0.042403
N74	N	1.272598	0.064974	0.542403
C75	C	0.819187	-0.477253	-0.000225
C76	C	1.319187	0.022747	0.499775
N77	N	0.866835	-0.447689	-0.042841
N78	N	1.366835	0.052311	0.457159
N79	N	0.867847	-0.378504	-0.042836
N80	N	1.367847	0.121496	0.457164
C81	C	0.821243	-0.336807	-0.000216
C82	C	1.321243	0.163193	0.499784
C83	C	0.880800	-0.601146	-0.000251
C84	C	1.380800	-0.101146	0.499749
C85	C	0.879731	-0.673971	-0.000268
C86	C	1.379731	-0.173971	0.499732
C87	C	0.753122	-0.656922	-0.000237
C88	C	1.253122	-0.156922	0.499763
C89	C	0.754193	-0.584099	-0.000228
C90	C	1.254193	-0.084099	0.499772
C91	C	0.818034	-0.556216	-0.000231
C92	C	1.318034	-0.056216	0.499769
C93	C	0.947227	0.087475	-0.000258
C94	C	1.447227	0.587475	0.499742
C95	C	1.024330	0.088609	-0.000283
C96	C	1.524330	0.588609	0.499717
C97	C	0.814762	0.220638	-0.000242
C98	C	1.314762	0.720638	0.499758
C99	C	0.815896	0.298143	-0.000253
C100	C	1.315896	0.798143	0.499747
N101	N	0.820199	0.092963	0.177931
N102	N	1.320199	0.592963	0.677931
N103	N	0.820247	0.092974	-0.178380
N104	N	1.320247	0.592974	0.321620
C105	C	0.867579	0.045372	0.217312
C106	C	1.367579	0.545372	0.717312
C107	C	0.867583	0.045368	0.296114
C108	C	1.367583	0.545368	0.796114
C109	C	0.820213	0.092969	0.335531
C110	C	1.320213	0.592969	0.835531
C111	C	0.772824	0.140564	0.296140
C112	C	1.272824	0.640564	0.796140
C113	C	0.772817	0.140561	0.217340
C114	C	1.272817	0.640561	0.717340
C115	C	0.810919	0.156585	0.460362
C116	C	1.310919	0.656585	0.960362
C117	C	0.810931	0.156589	0.539161
C118	C	1.310931	0.656589	1.039161
C119	C	0.820232	0.092977	0.578578
C120	C	1.320232	0.592977	1.078578
C121	C	0.829535	0.029359	0.539185
C122	C	1.329535	0.529359	1.039185
C123	C	0.829528	0.029356	0.460385
C124	C	1.329528	0.529356	0.960385
C125	C	0.820216	0.092977	0.420977
C126	C	1.320216	0.592977	0.920977
C127	C	0.867619	0.045378	0.703405
C128	C	1.367619	0.545378	1.203405
C129	C	0.867618	0.045374	0.782208
C130	C	1.367618	0.545374	1.282208
C131	C	0.772863	0.140575	0.782233
C132	C	1.272863	0.640575	1.282233
C133	C	0.772861	0.140573	0.703431
C134	C	1.272861	0.640573	1.203431
C135	C	0.820242	0.092976	0.664022
C136	C	1.320242	0.592976	1.164022
H137	H	0.493320	-0.020148	-0.000193
H138	H	0.993320	0.479852	0.499807
N139	N	0.380290	0.192575	0.088441
N140	N	0.880290	0.692575	0.588441
N141	N	0.444975	0.193515	0.088450
N142	N	0.944975	0.693515	0.588450
H143	H	0.466419	0.229054	0.120101
H144	H	0.966419	0.729054	0.620101
H145	H	0.147116	0.206094	-0.000273
H146	H	0.647116	0.706094	0.499727
H147	H	0.701147	-0.679631	-0.000228
H148	H	1.201147	-0.179631	0.499772
H149	H	0.709591	-0.103502	-0.000189
H150	H	1.209591	0.396498	0.499811
H151	H	0.906198	0.006619	0.671317
H152	H	1.406198	0.506619	1.171317
N153	N	0.634012	-0.031296	-0.000140
N154	N	1.134012	0.468704	0.499860
N155	N	0.609229	-0.088583	-0.000136
N156	N	1.109229	0.411417	0.499864
H157	H	0.641466	-0.134109	-0.000119
H158	H	1.141466	0.365891	0.499881
H159	H	0.939293	-0.134431	-0.000220
H160	H	1.439293	0.365569	0.499780
H161	H	0.462577	0.210742	-0.000215
H162	H	0.962577	0.710742	0.499785
N163	N	0.946014	-0.572669	-0.000253
N164	N	1.446014	-0.072669	0.499747
N165	N	1.002052	-0.612797	-0.000268
N166	N	1.502052	-0.112797	0.499732
H167	H	1.048110	-0.592688	-0.000268
H168	H	1.548110	-0.092688	0.499732
N169	N	0.943854	-0.719857	-0.000290
N170	N	1.443854	-0.219857	0.499710
N171	N	1.000845	-0.694948	-0.000296
N172	N	1.500845	-0.194948	0.499704
H173	H	1.046134	-0.727355	-0.000313
H174	H	1.546134	-0.227355	0.499687
H175	H	0.734234	0.179316	0.185275
H176	H	1.234234	0.679316	0.685275
H177	H	0.906199	0.006616	0.814274
H178	H	1.406199	0.506616	1.314274
H179	H	0.015690	0.204155	-0.000293
H180	H	0.515690	0.704155	0.499707
H181	H	0.734254	0.179319	0.328238
H182	H	1.234254	0.679319	0.828238
N183	N	0.724473	0.189187	0.822498
N184	N	1.224473	0.689187	1.322498
N185	N	0.724482	0.189181	0.892855
N186	N	1.224482	0.689181	1.392855
H187	H	0.690303	0.223512	0.921297
H188	H	1.190303	0.723512	1.421297
N189	N	0.690073	-0.538211	-0.000213
N190	N	1.190073	-0.038211	0.499787
N191	N	0.633082	-0.563120	-0.000202
N192	N	1.133082	-0.063120	0.499798
H193	H	0.587793	-0.530712	-0.000194
H194	H	1.087793	-0.030712	0.499806
N195	N	0.801417	0.221565	0.420098
N196	N	1.301417	0.721565	0.920098
N197	N	0.750916	0.234402	0.376150
N198	N	1.250916	0.734402	0.876150
H199	H	0.744205	0.280293	0.347714
H200	H	1.244205	0.780293	0.847714
N201	N	0.694436	-0.241405	-0.000194
N202	N	1.194436	0.258595	0.499806
N203	N	0.693491	-0.306425	-0.000197
N204	N	1.193491	0.193575	0.499803
H205	H	0.647442	-0.326552	-0.000195
H206	H	1.147442	0.173448	0.499805
N207	N	0.916039	-0.003193	0.177070
N208	N	1.416039	0.496807	0.677070
N209	N	0.958379	-0.045644	0.212248
N210	N	1.458379	0.454356	0.712248
H211	H	0.992627	-0.079921	0.183826
H212	H	1.492627	0.420079	0.683826
N213	N	0.950364	-0.275847	-0.000239
N214	N	1.450364	0.224153	0.499761
N215	N	1.007358	-0.250942	-0.000244
N216	N	1.507358	0.249058	0.499756
H217	H	1.052645	-0.283352	-0.000252
H218	H	1.552645	0.216648	0.499748
N219	N	0.233821	0.190443	0.088387
N220	N	0.733821	0.690443	0.588387
N221	N	0.169138	0.189492	0.088360
N222	N	0.669138	0.689492	0.588360
H223	H	0.138297	0.224286	0.119971
H224	H	0.638297	0.724286	0.619971
N225	N	0.040692	-0.040038	-0.000251
N226	N	0.540692	0.459962	0.499749
N227	N	0.002134	-0.054833	0.052519
N228	N	0.502134	0.445167	0.552519
H229	H	-0.017881	-0.101126	0.052536
H230	H	0.482119	0.398874	0.552536
N231	N	0.801434	0.221562	0.579411
N232	N	1.301434	0.721562	1.079411
N233	N	0.847784	0.237125	0.623354
N234	N	1.347784	0.737125	1.123354
H235	H	0.841075	0.283013	0.651781
H236	H	1.341075	0.783013	1.151781
N237	N	0.599746	0.225980	-0.000204
N238	N	1.099746	0.725980	0.499796
N239	N	0.559829	0.282310	-0.000223
N240	N	1.059829	0.782310	0.499777
H241	H	0.579835	0.328608	-0.000231
H242	H	1.079835	0.828608	0.499769
N243	N	0.724458	0.189193	0.663211
N244	N	1.224458	0.689193	1.163211
N245	N	0.682164	0.231688	0.698410
N246	N	1.182164	0.731688	1.198410
H247	H	0.647975	0.266026	0.670006
H248	H	1.147975	0.766026	1.170006
H249	H	0.177864	-0.024802	-0.000244
H250	H	0.677864	0.475198	0.499756
N251	N	0.406620	-0.004495	-0.088867
N252	N	0.906620	0.495505	0.411133
N253	N	0.407085	-0.068881	-0.077806
N254	N	0.907085	0.431119	0.422194
H255	H	0.437921	-0.103667	-0.109431
H256	H	0.937921	0.396333	0.390569
N257	N	0.915985	-0.003254	0.336341
N258	N	1.415985	0.496746	0.836341
N259	N	0.958282	-0.045749	0.301145
N260	N	1.458282	0.454251	0.801145
H261	H	0.992467	-0.080089	0.329553
H262	H	1.492467	0.419911	0.829553
H263	H	0.837101	-0.022444	0.428315
H264	H	1.337101	0.477556	0.928315
N265	N	0.260181	-0.006644	-0.088919
N266	N	0.760181	0.493356	0.411081
N267	N	0.298349	-0.049687	-0.128064
N268	N	0.798349	0.450313	0.371936
H269	H	0.276928	-0.085239	-0.159718
H270	H	0.776928	0.414761	0.340282
H271	H	0.837108	-0.022440	0.571277
H272	H	1.337108	0.477560	1.071277
