data_functionalizedCrystal
_audit_creation_method	'MofGen! by Chris Wilmer'
_symmetry_space_group_name_H-M	'P1'
_symmetry_Int_Tables_number	1
_symmetry_cell_setting	triclinic
loop_
_symmetry_equiv_pos_as_xyz
  x,y,z
_cell_length_a	16.959455
_cell_length_b	16.625546
_cell_length_c	16.959447
_cell_angle_alpha	89.967784
_cell_angle_beta	89.985678
_cell_angle_gamma	90.019415
loop_
_atom_site_label
_atom_site_type_symbol
_atom_site_fract_x
_atom_site_fract_y
_atom_site_fract_z
Zn1	Zn	1.208371	-0.321051	-0.446898
Zn2	Zn	1.708371	0.178949	0.053102
Zn3	Zn	1.208288	-0.455899	-0.314715
Zn4	Zn	1.708288	0.044101	0.185285
Zn5	Zn	1.076199	-0.321077	-0.314736
Zn6	Zn	1.576199	0.178923	0.185264
Zn7	Zn	1.076158	-0.455839	-0.446854
Zn8	Zn	1.576158	0.044161	0.053146
O9	O	1.142254	-0.388466	-0.380801
O10	O	1.642254	0.111534	0.119199
O11	O	1.318970	-0.338954	-0.429374
O12	O	1.818970	0.161046	0.070626
O13	O	1.190748	-0.438050	-0.204107
O14	O	1.690748	0.061950	0.295893
O15	O	1.093784	-0.208241	-0.332295
O16	O	1.593784	0.291759	0.167705
O17	O	1.318909	-0.438026	-0.332260
O18	O	1.818909	0.061974	0.167740
O19	O	1.190890	-0.208222	-0.429394
O20	O	1.690890	0.291778	0.070606
O21	O	1.093703	-0.338997	-0.204122
O22	O	1.593703	0.161003	0.295878
O23	O	0.965583	-0.338939	-0.332252
O24	O	1.465583	0.161061	0.167748
O25	O	1.093714	-0.437923	-0.557471
O26	O	1.593714	0.062077	-0.057471
O27	O	0.965553	-0.437947	-0.429318
O28	O	1.465553	0.062053	0.070682
O29	O	1.190850	-0.338895	-0.557503
O30	O	1.690850	0.161105	-0.057503
O31	O	1.190709	-0.568723	-0.332217
O32	O	1.690709	-0.068723	0.167783
O33	O	1.093634	-0.568679	-0.429298
O34	O	1.593634	-0.068679	0.070702
C35	C	0.936888	-0.388440	-0.380783
C36	C	1.436888	0.111560	0.119217
C37	C	0.849031	-0.388448	-0.380794
C38	C	1.349031	0.111552	0.119206
C39	C	0.477547	-0.336870	-0.330364
C40	C	0.977547	0.163130	0.169636
C41	C	0.477564	-0.440129	-0.431283
C42	C	0.977564	0.059871	0.068717
C43	C	0.560110	-0.440117	-0.431278
C44	C	1.060110	0.059883	0.068722
C45	C	0.601378	-0.388482	-0.380815
C46	C	1.101378	0.111518	0.119185
C47	C	0.560100	-0.336859	-0.330356
C48	C	1.060100	0.163141	0.169644
C49	C	0.601394	-0.491746	-0.481731
C50	C	1.101394	0.008254	0.018269
C51	C	0.683945	-0.491737	-0.481727
C52	C	1.183945	0.008263	0.018273
C53	C	0.725215	-0.440097	-0.431267
C54	C	1.225215	0.059903	0.068733
C55	C	0.683932	-0.388471	-0.380807
C56	C	1.183932	0.111529	0.119193
C57	C	0.725200	-0.336836	-0.330343
C58	C	1.225200	0.163164	0.169657
C59	C	0.683918	-0.285205	-0.279886
C60	C	1.183918	0.214795	0.220114
C61	C	0.601370	-0.285219	-0.279895
C62	C	1.101370	0.214781	0.220105
C63	C	0.807763	-0.440083	-0.431257
C64	C	1.307763	0.059917	0.068743
C65	C	0.807753	-0.336824	-0.330335
C66	C	1.307753	0.163176	0.169665
C67	C	1.142179	-0.597957	-0.380768
C68	C	1.642179	-0.097957	0.119232
C69	C	1.142219	-0.687578	-0.380780
C70	C	1.642219	-0.187578	0.119220
C71	C	1.142357	-1.015754	-0.380862
C72	C	1.642357	-0.515754	0.119138
C73	C	1.142316	-0.924445	-0.380842
C74	C	1.642316	-0.424445	0.119158
C75	C	1.142288	-0.851669	-0.380821
C76	C	1.642288	-0.351669	0.119179
C77	C	1.142248	-0.760355	-0.380801
C78	C	1.642248	-0.260355	0.119199
C79	C	1.348422	-0.388494	-0.380819
C80	C	1.848422	0.111506	0.119181
C81	C	1.436279	-0.388505	-0.380827
C82	C	1.936279	0.111495	0.119173
C83	C	1.142287	-0.388400	-0.586969
C84	C	1.642287	0.111600	-0.086969
C85	C	1.142301	-0.388371	-0.674826
C86	C	1.642301	0.111629	-0.174826
C87	C	1.142351	-0.178157	-0.380851
C88	C	1.642351	0.321843	0.119149
C89	C	1.142392	-0.088536	-0.380873
C90	C	1.642392	0.411464	0.119127
C91	C	1.091821	-0.439845	-1.046287
C92	C	1.591821	0.060155	-0.546287
C93	C	1.192969	-0.336727	-1.046316
C94	C	1.692969	0.163273	-0.546316
C95	C	1.192948	-0.336744	-0.963770
C96	C	1.692948	0.163256	-0.463770
C97	C	1.142364	-0.388313	-0.922479
C98	C	1.642364	0.111687	-0.422479
C99	C	1.091800	-0.439866	-0.963734
C100	C	1.591800	0.060134	-0.463734
C101	C	1.243517	-0.285199	-0.922509
C102	C	1.743517	0.214801	-0.422509
C103	C	1.243498	-0.285214	-0.839958
C104	C	1.743498	0.214786	-0.339958
C105	C	1.192909	-0.336780	-0.798666
C106	C	1.692909	0.163220	-0.298666
C107	C	1.142343	-0.388334	-0.839925
C108	C	1.642343	0.111666	-0.339925
C109	C	1.091758	-0.439903	-0.798634
C110	C	1.591758	0.060097	-0.298634
C111	C	1.041187	-0.491453	-0.839892
C112	C	1.541187	0.008547	-0.339892
C113	C	1.041211	-0.491431	-0.922441
C114	C	1.541211	0.008569	-0.422441
C115	C	1.192886	-0.336802	-0.716117
C116	C	1.692886	0.163198	-0.216117
C117	C	1.091737	-0.439923	-0.716080
C118	C	1.591737	0.060077	-0.216080
C119	C	1.142267	-0.388475	-0.175435
C120	C	1.642267	0.111525	0.324565
C121	C	1.142406	-0.388276	-0.087578
C122	C	1.642406	0.111724	0.412422
H123	H	0.717550	-0.533777	-0.522813
H124	H	1.217550	-0.033777	-0.022813
H125	H	0.567751	-0.243185	-0.238815
H126	H	1.067751	0.256815	0.261185
C127	C	0.452099	-0.297420	-0.196590
C128	C	0.952099	0.202580	0.303410
C129	C	0.432176	-0.280119	-0.274902
C130	C	0.932176	0.219881	0.225098
H131	H	0.424091	-0.262380	-0.162352
H132	H	0.924091	0.237620	0.337648
H133	H	0.438547	-0.351574	-0.184933
H134	H	0.938547	0.148426	0.315067
H135	H	0.507170	-0.290026	-0.189374
H136	H	1.007170	0.209974	0.310626
H137	H	0.377106	-0.287519	-0.282120
H138	H	0.877106	0.212481	0.217880
H139	H	0.445723	-0.225952	-0.286563
H140	H	0.945723	0.274048	0.213437
C141	C	0.609697	-0.593798	-0.581498
C142	C	1.109697	-0.093798	-0.081498
C143	C	0.556034	-0.548488	-0.537211
C144	C	1.056034	-0.048488	-0.037211
H145	H	0.581689	-0.628827	-0.615752
H146	H	1.081689	-0.128827	-0.115752
H147	H	0.641920	-0.558700	-0.611778
H148	H	1.141920	-0.058700	-0.111778
H149	H	0.641868	-0.624606	-0.546998
H150	H	1.141868	-0.124606	-0.046998
H151	H	0.523867	-0.517675	-0.571711
H152	H	1.023867	-0.017675	-0.071711
H153	H	0.523797	-0.583590	-0.506928
H154	H	1.023797	-0.083590	-0.006928
H155	H	0.841371	-0.482122	-0.472336
H156	H	1.341371	0.017878	0.027664
H157	H	0.443959	-0.482173	-0.472364
H158	H	0.943959	0.017827	0.027636
C159	C	0.996337	-0.537189	-1.048968
C160	C	1.496337	-0.037189	-0.548968
C161	C	0.985631	-0.548095	-0.967793
C162	C	1.485631	-0.048095	-0.467793
H163	H	0.962028	-0.572175	-1.076967
H164	H	1.462028	-0.072175	-0.576967
H165	H	0.984797	-0.483015	-1.062509
H166	H	1.484797	0.016985	-0.562509
H167	H	1.049447	-0.548995	-1.062481
H168	H	1.549447	-0.048995	-0.562481
H169	H	0.932522	-0.536283	-0.954279
H170	H	1.432522	-0.036283	-0.454279
H171	H	0.997165	-0.602281	-0.954247
H172	H	1.497165	-0.102281	-0.454247
H173	H	1.000005	-0.533444	-0.806262
H174	H	1.500005	-0.033444	-0.306262
C175	C	0.799443	-0.234759	-0.230575
C176	C	1.299443	0.265241	0.269425
C177	C	0.853112	-0.280068	-0.274858
C178	C	1.353112	0.219932	0.225142
H179	H	0.827448	-0.199725	-0.196323
H180	H	1.327448	0.300275	0.303677
H181	H	0.767271	-0.203963	-0.265073
H182	H	1.267271	0.296037	0.234927
H183	H	0.767223	-0.269864	-0.200287
H184	H	1.267223	0.230136	0.299713
H185	H	0.885329	-0.244963	-0.305151
H186	H	1.385329	0.255037	0.194849
H187	H	0.885298	-0.310866	-0.240356
H188	H	1.385298	0.189134	0.259644
C189	C	1.237915	-0.290918	-1.172870
C190	C	1.737915	0.209082	-0.672870
C191	C	1.248573	-0.280047	-1.091702
C192	C	1.748573	0.219953	-0.591702
H193	H	1.272242	-0.255920	-1.200889
H194	H	1.772242	0.244080	-0.700889
H195	H	1.249463	-0.345086	-1.186372
H196	H	1.749463	0.154914	-0.686372
H197	H	1.184814	-0.279106	-1.186397
H198	H	1.684814	0.220894	-0.686397
H199	H	1.301673	-0.291865	-1.078174
H200	H	1.801673	0.208135	-0.578174
H201	H	1.237030	-0.225867	-1.078194
H202	H	1.737030	0.274133	-0.578194
C203	C	1.343479	-0.183277	-0.848288
C204	C	1.843479	0.316723	-0.348288
C205	C	1.299077	-0.228545	-0.794611
C206	C	1.799077	0.271455	-0.294611
H207	H	1.377785	-0.148287	-0.820290
H208	H	1.877785	0.351713	-0.320290
H209	H	1.373708	-0.218404	-0.880467
H210	H	1.873708	0.281596	-0.380467
H211	H	1.309053	-0.152428	-0.880501
H212	H	1.809053	0.347572	-0.380501
H213	H	1.333502	-0.259398	-0.762402
H214	H	1.833502	0.240602	-0.262402
H215	H	1.268845	-0.193413	-0.762418
H216	H	1.768845	0.306587	-0.262418
H217	H	1.284705	-0.243219	-0.956135
H218	H	1.784705	0.256781	-0.456135
C219	C	1.203901	-0.228374	-0.623314
C220	C	1.703901	0.271626	-0.123314
C221	C	1.248468	-0.280148	-0.670763
C222	C	1.748468	0.219852	-0.170763
H223	H	1.238219	-0.193401	-0.595312
H224	H	1.738219	0.306599	-0.095312
H225	H	1.169497	-0.197517	-0.655529
H226	H	1.669497	0.302483	-0.155529
H227	H	1.173770	-0.259095	-0.586914
H228	H	1.673770	0.240905	-0.086914
H229	H	1.278594	-0.249427	-0.707167
H230	H	1.778594	0.250573	-0.207167
H231	H	1.282885	-0.311008	-0.638545
H232	H	1.782885	0.188992	-0.138545
H233	H	0.717529	-0.243167	-0.238795
H234	H	1.217529	0.256833	0.261205
H235	H	1.050645	-0.481814	-1.079883
H236	H	1.550645	0.018186	-0.579883
C237	C	0.991764	-0.541861	-0.724344
C238	C	1.491764	-0.041861	-0.224344
C239	C	1.036139	-0.496619	-0.670696
C240	C	1.536139	0.003381	-0.170696
H241	H	0.957446	-0.576867	-0.696324
H242	H	1.457446	-0.076867	-0.196324
H243	H	0.961549	-0.506718	-0.756544
H244	H	1.461549	-0.006718	-0.256544
H245	H	1.026206	-0.572691	-0.756539
H246	H	1.526206	-0.072691	-0.256539
H247	H	1.001697	-0.465784	-0.638504
H248	H	1.501697	0.034216	-0.138504
H249	H	1.066357	-0.531766	-0.638483
H250	H	1.566357	-0.031766	-0.138483
