data_functionalizedCrystal
_audit_creation_method	'MofGen! by Chris Wilmer'
_symmetry_space_group_name_H-M	'P1'
_symmetry_Int_Tables_number	1
_symmetry_cell_setting	triclinic
loop_
_symmetry_equiv_pos_as_xyz
  x,y,z
_cell_length_a	9.065218
_cell_length_b	10.540539
_cell_length_c	7.540329
_cell_angle_alpha	89.998539
_cell_angle_beta	89.996962
_cell_angle_gamma	84.770688
loop_
_atom_site_label
_atom_site_type_symbol
_atom_site_fract_x
_atom_site_fract_y
_atom_site_fract_z
O1	O	1.959469	0.186143	-0.147478
O2	O	1.530108	0.201412	-0.147479
O3	O	1.754584	0.009107	-0.147476
O4	O	1.734993	0.378448	-0.147481
O5	O	1.754570	0.009105	0.147489
O6	O	1.530094	0.201409	0.147486
O7	O	1.959455	0.186141	0.147487
Cu8	Cu	1.744773	0.193775	0.174419
Cu9	Cu	1.744789	0.193778	-0.174411
O10	O	1.734979	0.378445	0.147484
C11	C	1.475122	0.199943	0.000003
C12	C	1.311301	0.195556	0.000002
C13	C	1.753108	-0.038202	0.000003
C14	C	1.748712	-0.179167	-0.000007
C15	C	1.580278	-0.363216	-0.000669
C16	C	1.584734	-0.216582	-0.000005
C17	C	1.827618	-0.240534	0.168433
C18	C	1.822022	-0.387099	0.168575
C19	C	1.825372	-0.387602	-0.166855
C20	C	1.826883	-0.240615	-0.169082
C21	C	2.014441	0.187610	0.000001
C22	C	2.178262	0.191997	-0.000009
C23	C	1.736455	0.425755	0.000001
C24	C	1.740851	0.566719	-0.000001
N25	N	1.744773	0.193772	0.419768
N26	N	1.744801	0.193771	-0.419760
H27	H	1.522646	-0.174207	-0.120750
H28	H	1.522200	-0.175058	0.120940
H29	H	1.943813	-0.434390	-0.167987
N30	N	1.744765	-0.424753	0.335353
H31	H	1.714655	-0.346175	0.408086
H32	H	1.653761	-0.468176	0.302571
N33	N	1.494465	-0.401412	-0.160660
H34	H	1.558837	-0.464508	-0.234264
H35	H	1.403341	-0.441782	-0.120317
N36	N	1.750532	-0.186659	-0.334150
H37	H	1.801302	-0.226532	-0.442454
H38	H	1.643423	-0.205919	-0.332920
N39	N	1.494805	-0.403534	0.158430
H40	H	1.559646	-0.466987	0.230937
H41	H	1.463445	-0.326411	0.233509
N42	N	1.985251	-0.207964	-0.182562
H43	H	1.999098	-0.160500	-0.296848
H44	H	2.008571	-0.152674	-0.078712
H45	H	1.939952	-0.434632	0.176217
N46	N	1.987147	-0.210386	0.176711
H47	H	2.009854	-0.156521	0.071105
H48	H	2.004069	-0.162212	0.289587
H49	H	1.772795	-0.198138	0.293780
H50	H	1.772306	-0.419350	-0.294522
