data_functionalizedCrystal
_audit_creation_method	'MofGen! by Chris Wilmer'
_symmetry_space_group_name_H-M	'P1'
_symmetry_Int_Tables_number	1
_symmetry_cell_setting	triclinic
loop_
_symmetry_equiv_pos_as_xyz
  x,y,z
_cell_length_a	12.759401
_cell_length_b	25.639239
_cell_length_c	12.759393
_cell_angle_alpha	89.964022
_cell_angle_beta	89.979062
_cell_angle_gamma	90.040211
loop_
_atom_site_label
_atom_site_type_symbol
_atom_site_fract_x
_atom_site_fract_y
_atom_site_fract_z
Zn1	Zn	1.606091	-0.208104	-0.593980
Zn2	Zn	1.605909	-0.295549	-0.418283
Zn3	Zn	1.430390	-0.208132	-0.418315
Zn4	Zn	1.430308	-0.295513	-0.593921
O5	O	1.518175	-0.251825	-0.506125
O6	O	1.753088	-0.219708	-0.570685
O7	O	1.582584	-0.283980	-0.271266
O8	O	1.453808	-0.134963	-0.441656
O9	O	1.752954	-0.283953	-0.441601
O10	O	1.582895	-0.134943	-0.570716
O11	O	1.453631	-0.219755	-0.271290
O12	O	1.283358	-0.219720	-0.441598
O13	O	1.453669	-0.283891	-0.740950
O14	O	1.283298	-0.283918	-0.570615
O15	O	1.582816	-0.219672	-0.740993
O16	O	1.582505	-0.368710	-0.441544
O17	O	1.453492	-0.368683	-0.570584
C18	C	1.245207	-0.251818	-0.506104
C19	C	1.128431	-0.251828	-0.506120
C20	C	1.073565	-0.285307	-0.573193
C21	C	0.963841	-0.285309	-0.573214
C22	C	0.963858	-0.218352	-0.439079
C23	C	1.073580	-0.218347	-0.439065
C24	C	1.517998	-0.387667	-0.506077
C25	C	1.518018	-0.445781	-0.506091
C26	C	1.585527	-0.806146	-0.439048
C27	C	1.585568	-0.860750	-0.439062
O28	O	1.642783	-0.888988	-0.382007
N29	N	1.518359	-0.888064	-0.506194
C30	C	1.451113	-0.860770	-0.573324
O31	O	1.393952	-0.889017	-0.630428
C32	C	1.451079	-0.806167	-0.573315
C33	C	1.518284	-0.778856	-0.506171
C34	C	1.652728	-0.778835	-0.371910
C35	C	1.652685	-0.724234	-0.371895
C36	C	1.585442	-0.696945	-0.439018
C37	C	1.518242	-0.724255	-0.506156
C38	C	1.383839	-0.778874	-0.640449
C39	C	1.383810	-0.724267	-0.640435
C40	C	1.451016	-0.696957	-0.573291
C41	C	1.450956	-0.642365	-0.573263
N42	N	1.518165	-0.615052	-0.506131
C43	C	1.585408	-0.642341	-0.439008
C44	C	1.451192	-0.975441	-0.573341
C45	C	1.451221	-1.030043	-0.573346
C46	C	1.585677	-1.030019	-0.439085
C47	C	1.585642	-0.975416	-0.439075
C48	C	1.518401	-0.948127	-0.506208
C49	C	1.585313	-0.527676	-0.438981
C50	C	1.585261	-0.473071	-0.438969
C51	C	1.450810	-0.473100	-0.573233
C52	C	1.450857	-0.527700	-0.573242
C53	C	1.518117	-0.554987	-0.506112
O54	O	1.393774	-0.614093	-0.630292
O55	O	1.642569	-0.614088	-0.381925
C56	C	1.792208	-0.251831	-0.506146
C57	C	1.908984	-0.251834	-0.506156
C58	C	1.518253	-0.251774	-0.780158
C59	C	1.518287	-0.251753	-0.896935
C60	C	1.518381	-0.115452	-0.506196
C61	C	1.518468	-0.057337	-0.506226
C62	C	1.585539	-0.218309	-0.951821
C63	C	1.585556	-0.218286	-1.061546
C64	C	1.451068	-0.285156	-1.061487
C65	C	1.451045	-0.285176	-0.951765
C66	C	1.518157	-0.251837	-0.233157
C67	C	1.518327	-0.251711	-0.116381
H68	H	1.118221	-0.312568	-0.627796
H69	H	1.118253	-0.191082	-0.384446
C70	C	1.659195	-0.443032	-0.365112
H71	H	1.699255	-0.467108	-0.325149
H72	H	1.619019	-0.421769	-0.319291
H73	H	1.704940	-0.421693	-0.405344
C74	C	0.903524	-0.181528	-0.365317
H75	H	0.951918	-0.161585	-0.325376
H76	H	0.860673	-0.201502	-0.319472
H77	H	0.860771	-0.158771	-0.405603
H78	H	1.640288	-0.191092	-0.907182
C79	C	1.659289	-0.557684	-0.365132
H80	H	1.699292	-0.533592	-0.325143
H81	H	1.705069	-0.578947	-0.405355
H82	H	1.619131	-0.579021	-0.319319
H83	H	1.640318	-0.191052	-1.106229
C84	C	1.309843	-0.694253	-0.714284
H85	H	1.269825	-0.718342	-0.754265
H86	H	1.349995	-0.672914	-0.760090
H87	H	1.264062	-0.672992	-0.674049
C88	C	1.377291	-1.060082	-0.647195
H89	H	1.386934	-1.096511	-0.637593
H90	H	1.392624	-1.051095	-0.717795
H91	H	1.306699	-1.051175	-0.631746
C92	C	1.377118	-0.321923	-1.121803
H93	H	1.386770	-0.317126	-1.195011
H94	H	1.306534	-0.314274	-1.103817
H95	H	1.392445	-0.357058	-1.103802
H96	H	1.396428	-0.953225	-0.628006
C97	C	1.376932	-0.557743	-0.647096
H98	H	1.336883	-0.533668	-0.687073
H99	H	1.331193	-0.579089	-0.606882
H100	H	1.417128	-0.579000	-0.692921
C101	C	1.309919	-0.808905	-0.714317
H102	H	1.269884	-0.784824	-0.754295
H103	H	1.264168	-0.830246	-0.674109
H104	H	1.350110	-0.830164	-0.760140
C105	C	1.376853	-0.443074	-0.647067
H106	H	1.386469	-0.406644	-0.637445
H107	H	1.306273	-0.452061	-0.631644
H108	H	1.392214	-0.451987	-0.717676
C109	C	1.377072	-0.321970	-0.891386
H110	H	1.337040	-0.341878	-0.939753
H111	H	1.331318	-0.301977	-0.848583
H112	H	1.417230	-0.344760	-0.848581
H113	H	1.707412	-0.702001	-0.317224
H114	H	0.919174	-0.312570	-0.627833
H115	H	1.707491	-0.801048	-0.317251
C116	C	1.659641	-1.060045	-0.365247
H117	H	1.650036	-1.096475	-0.374879
H118	H	1.644295	-1.051131	-0.294641
H119	H	1.730225	-1.051058	-0.380685
C120	C	1.659575	-0.945379	-0.365226
H121	H	1.699628	-0.969456	-0.325259
H122	H	1.619404	-0.924112	-0.319407
H123	H	1.705326	-0.924043	-0.405459
