data_functionalizedCrystal
_audit_creation_method	'MofGen! by Chris Wilmer'
_symmetry_space_group_name_H-M	'P1'
_symmetry_Int_Tables_number	1
_symmetry_cell_setting	triclinic
loop_
_symmetry_equiv_pos_as_xyz
  x,y,z
_cell_length_a	21.395362
_cell_length_b	10.685194
_cell_length_c	21.395355
_cell_angle_alpha	85.614463
_cell_angle_beta	89.956060
_cell_angle_gamma	94.391346
loop_
_atom_site_label
_atom_site_type_symbol
_atom_site_fract_x
_atom_site_fract_y
_atom_site_fract_z
Zn1	Zn	0.938850	-0.502024	-0.335480
Zn2	Zn	0.930763	-0.713028	-0.222672
Zn3	Zn	0.834063	-0.502082	-0.230679
Zn4	Zn	0.826044	-0.713054	-0.327376
O5	O	0.882430	-0.607547	-0.279052
O6	O	1.025457	-0.529978	-0.320556
O7	O	0.917907	-0.685060	-0.136056
O8	O	0.854704	-0.325476	-0.251323
O9	O	1.019515	-0.685003	-0.237677
O10	O	0.931691	-0.325433	-0.328320
O11	O	0.846862	-0.530079	-0.141938
O12	O	0.745320	-0.530104	-0.243465
O13	O	0.841036	-0.685047	-0.416129
O14	O	0.739428	-0.685104	-0.314508
O15	O	0.923915	-0.530004	-0.422083
O16	O	0.910131	-0.889630	-0.229819
O17	O	0.833194	-0.889649	-0.306744
C18	C	0.719640	-0.607614	-0.278976
C19	C	0.649996	-0.607673	-0.278958
C20	C	0.869932	-0.935430	-0.266547
C21	C	0.864643	-1.075699	-0.261218
C22	C	0.614228	-0.688488	-0.315886
C23	C	0.548794	-0.688457	-0.315915
C24	C	0.519130	-0.607624	-0.279004
C25	C	0.554907	-0.526793	-0.242074
C26	C	0.620340	-0.526817	-0.242051
C27	C	0.415790	-0.597458	-0.222986
C28	C	0.350358	-0.597442	-0.223008
C29	C	0.317312	-0.607542	-0.279077
C30	C	0.349706	-0.617683	-0.335124
C31	C	0.415140	-0.617708	-0.335101
C32	C	0.448179	-0.607588	-0.279026
C33	C	0.210592	-0.688328	-0.316039
C34	C	0.145157	-0.688288	-0.316070
C35	C	0.151272	-0.526631	-0.242223
C36	C	0.216706	-0.526664	-0.242199
C37	C	0.246362	-0.607519	-0.279106
C38	C	1.045856	-0.607481	-0.279127
C39	C	1.115498	-0.607453	-0.279160
C40	C	0.882483	-0.607522	-0.442476
C41	C	0.882506	-0.607511	-0.512118
C42	C	0.894994	-0.278384	-0.291619
C43	C	0.900348	-0.138115	-0.296974
C44	C	0.925659	-0.526776	-0.547932
C45	C	0.925660	-0.526722	-0.613370
C46	C	0.882514	-0.607425	-0.642989
C47	C	0.839353	-0.688165	-0.607167
C48	C	0.839348	-0.688208	-0.541731
C49	C	0.873235	-0.721058	-0.742328
C50	C	0.873244	-0.721017	-0.807763
C51	C	0.882523	-0.607291	-0.844815
C52	C	0.891807	-0.493603	-0.816425
C53	C	0.891803	-0.493646	-0.750989
C54	C	0.882513	-0.607386	-0.713943
C55	C	0.925680	-0.526491	-0.951585
C56	C	0.925677	-0.526435	-1.017024
C57	C	0.839372	-0.687889	-1.010819
C58	C	0.839372	-0.687934	-0.945382
C59	C	0.882529	-0.607237	-0.915769
C60	C	0.882417	-0.607482	-0.116266
C61	C	0.882529	-0.607137	-0.046639
H62	H	0.519665	-0.754266	-0.345988
H63	H	0.804235	-0.753586	-1.034935
H64	H	0.530751	-0.460976	-0.212023
O65	O	0.797431	-0.766486	-0.910680
C66	C	0.759336	-0.837682	-0.950853
H67	H	0.784836	-0.842015	-0.997350
H68	H	0.713516	-0.791478	-0.959537
C69	C	0.713855	-0.966691	-0.863086
C70	C	0.745176	-0.972022	-0.920194
H71	H	0.705117	-1.049556	-0.844174
H72	H	0.739518	-0.918722	-0.836020
H73	H	0.675674	-0.928182	-0.870331
H74	H	0.783359	-1.010515	-0.912948
H75	H	0.719519	-1.020000	-0.947258
O76	O	0.967658	-0.448280	-0.922781
C77	C	1.005374	-0.520141	-0.882220
H78	H	1.005448	-0.619519	-0.898162
H79	H	0.985838	-0.524530	-0.832445
C80	C	1.072772	-0.336408	-0.864035
C81	C	1.072868	-0.458463	-0.883619
H82	H	1.114405	-0.298360	-0.864895
H83	H	1.047361	-0.287992	-0.891360
H84	H	1.056489	-0.340082	-0.822558
H85	H	1.089143	-0.454786	-0.925098
H86	H	1.098283	-0.506877	-0.856301
O87	O	0.864189	-0.831554	-0.835238
C88	C	0.856004	-0.931942	-0.788505
H89	H	0.839248	-0.895186	-0.743247
H90	H	0.902496	-0.975656	-0.779916
C91	C	0.827474	-1.077343	-0.865781
C92	C	0.806889	-1.032201	-0.810197
H93	H	0.797180	-1.139192	-0.879162
H94	H	0.832991	-1.009712	-0.897267
H95	H	0.866217	-1.113764	-0.858616
H96	H	0.768151	-0.995768	-0.817364
H97	H	0.801364	-1.099829	-0.778713
O98	O	0.239427	-0.766991	-0.351800
C99	C	0.274123	-0.848395	-0.312946
H100	H	0.254055	-0.856038	-0.263309
H101	H	0.325209	-0.809394	-0.312288
C102	C	0.294771	-0.970287	-0.399411
C103	C	0.270120	-0.979683	-0.338446
H104	H	0.292305	-1.051270	-0.415142
H105	H	0.271398	-0.915441	-0.425588
H106	H	0.337341	-0.937781	-0.398855
H107	H	0.227549	-1.012173	-0.339005
H108	H	0.293486	-1.034537	-0.312270
H109	H	0.865512	-0.813643	-0.712167
O110	O	0.654993	-0.448276	-0.206116
C111	C	0.614785	-0.376893	-0.173557
H112	H	0.566155	-0.428553	-0.169393
H113	H	0.611530	-0.281112	-0.200234
C114	C	0.700680	-0.295072	-0.112693
C115	C	0.640954	-0.358526	-0.107574
H116	H	0.716823	-0.283736	-0.071993
H117	H	0.727770	-0.343159	-0.134631
H118	H	0.697960	-0.215261	-0.134927
H119	H	0.643676	-0.438341	-0.085348
H120	H	0.613865	-0.310451	-0.085632
H121	H	0.441512	-0.625962	-0.380737
O122	O	0.941661	-1.074048	-0.338413
C123	C	0.973807	-1.160238	-0.370577
H124	H	0.944636	-1.254284	-0.369181
H125	H	1.020887	-1.174124	-0.347172
C126	C	1.020556	-0.993079	-0.440927
C127	C	0.984726	-1.108584	-0.439217
H128	H	1.027294	-0.961216	-0.483267
H129	H	0.998901	-0.935010	-0.419257
H130	H	1.059785	-1.004666	-0.421420
H131	H	0.945495	-1.096993	-0.458717
H132	H	1.006375	-1.166650	-0.460892
H133	H	0.830019	-1.129579	-0.226529
O134	O	0.317711	-0.627531	-0.389648
C135	C	0.360334	-0.636439	-0.439112
H136	H	0.405550	-0.673006	-0.419409
H137	H	0.371048	-0.539488	-0.464577
C138	C	0.275807	-0.682826	-0.509557
C139	C	0.331340	-0.727748	-0.485359
H140	H	0.257921	-0.739144	-0.538087
H141	H	0.247090	-0.676820	-0.476234
H142	H	0.284743	-0.602033	-0.530774
H143	H	0.322402	-0.808531	-0.464136
H144	H	0.360055	-0.733769	-0.518680
H145	H	0.960800	-0.461065	-0.523825
O146	O	0.967644	-0.448257	-0.648074
C147	C	1.005722	-0.377017	-0.607905
H148	H	1.005913	-0.428730	-0.559293
H149	H	0.986441	-0.281179	-0.604580
C150	C	1.072866	-0.295289	-0.693893
C151	C	1.073106	-0.358810	-0.634188
H152	H	1.114432	-0.284052	-0.710106
H153	H	1.047211	-0.343281	-0.720956
H154	H	1.056796	-0.215431	-0.691114
H155	H	1.089169	-0.438672	-0.636969
H156	H	1.098766	-0.310831	-0.607126
H157	H	0.899361	-0.401078	-0.727876
H158	H	0.899364	-0.400997	-0.846592
H159	H	0.960816	-0.460684	-1.046183
H160	H	0.804221	-0.753869	-0.631287
O161	O	0.797407	-0.766765	-0.507029
C162	C	0.759312	-0.837962	-0.547201
H163	H	0.784807	-0.842284	-0.593702
H164	H	0.713488	-0.791766	-0.555878
C165	C	0.713843	-0.966989	-0.459434
C166	C	0.745160	-0.972307	-0.516545
H167	H	0.705111	-1.049858	-0.440524
H168	H	0.739507	-0.919020	-0.432369
H169	H	0.675660	-0.928487	-0.466673
H170	H	0.783345	-1.010794	-0.509305
H171	H	0.719502	-1.020286	-0.543609
H172	H	0.638370	-0.754325	-0.345939
H173	H	0.116035	-0.754096	-0.346145
H174	H	0.245829	-0.460861	-0.212125
O175	O	0.122362	-0.448257	-0.206367
C176	C	0.056938	-0.465554	-0.214310
H177	H	0.044291	-0.562986	-0.231060
H178	H	0.041264	-0.390766	-0.250575
C179	C	0.039266	-0.334191	-0.130802
C180	C	0.023732	-0.453863	-0.151369
H181	H	0.018782	-0.326974	-0.091979
H182	H	0.083344	-0.322533	-0.125452
H183	H	0.026203	-0.271880	-0.161028
H184	H	0.036802	-0.516170	-0.121147
H185	H	-0.020344	-0.465531	-0.156713
O186	O	0.318993	-0.587526	-0.168516
C187	C	0.362188	-0.578628	-0.119022
H188	H	0.410251	-0.542129	-0.138695
H189	H	0.365406	-0.675570	-0.093533
C190	C	0.281067	-0.532090	-0.048651
C191	C	0.340098	-0.487251	-0.072814
H192	H	0.267440	-0.475729	-0.020146
H193	H	0.251964	-0.538089	-0.081995
H194	H	0.283756	-0.612874	-0.027414
H195	H	0.337406	-0.406475	-0.094056
H196	H	0.369199	-0.481236	-0.039472
H197	H	0.442691	-0.589228	-0.177325
