data_functionalizedCrystal
_audit_creation_method	'MofGen! by Chris Wilmer'
_symmetry_space_group_name_H-M	'P1'
_symmetry_Int_Tables_number	1
_symmetry_cell_setting	triclinic
loop_
_symmetry_equiv_pos_as_xyz
  x,y,z
_cell_length_a	31.640172
_cell_length_b	14.809374
_cell_length_c	14.809374
_cell_angle_alpha	57.530506
_cell_angle_beta	89.994170
_cell_angle_gamma	65.405046
loop_
_atom_site_label
_atom_site_type_symbol
_atom_site_fract_x
_atom_site_fract_y
_atom_site_fract_z
Zr1	Zr	0.470791	0.860932	0.017579
O2	O	0.410408	1.050829	-0.113008
O3	O	0.480247	0.692243	0.038027
O4	O	0.485526	0.891500	-0.141260
O5	O	0.411266	0.820064	0.229982
O6	O	0.555081	0.891488	-0.141269
O7	O	0.405129	0.851572	0.066280
O8	O	0.545637	0.535054	0.179444
O9	O	0.420709	1.176498	-0.090730
O10	O	0.547128	0.753764	0.070402
O11	O	0.499799	0.730259	0.192578
O12	O	0.506015	0.964858	-0.018510
O13	O	0.458687	0.941353	0.103666
Zr14	Zr	0.591510	0.810663	0.278651
Zr15	Zr	0.581724	0.860914	0.017565
Zr16	Zr	0.480578	0.810681	0.278666
Zr17	Zr	0.487220	1.061361	0.053109
Zr18	Zr	0.575082	0.610234	0.243122
O19	O	0.582055	0.979352	0.258203
O20	O	0.568140	1.050802	-0.113028
O21	O	0.424324	0.979378	0.258224
O22	O	0.651893	0.620766	0.409238
O23	O	0.637978	0.692217	0.038007
O24	O	0.494162	0.620793	0.409259
O25	O	0.651036	0.851531	0.066248
O26	O	0.576776	0.780095	0.437491
O27	O	0.507221	0.780106	0.437500
O28	O	0.657173	0.820023	0.229951
O29	O	0.508886	1.176483	-0.090742
O30	O	0.553416	0.495111	0.386972
O31	O	0.641592	0.495097	0.386961
O32	O	0.633813	0.535040	0.179432
O33	O	0.428489	1.136555	0.116798
O34	O	0.516665	1.136540	0.116787
O35	O	0.556287	0.706737	0.314741
O36	O	0.603615	0.730242	0.192565
O37	O	0.562503	0.941336	0.103653
O38	O	0.515174	0.917831	0.225829
C39	C	0.510601	0.585092	0.103673
C40	C	0.503627	0.500005	0.088590
C41	C	0.534753	0.379773	0.155905
C42	C	0.527545	0.291829	0.140317
C43	C	0.392392	0.835821	0.148133
C44	C	0.345298	0.835829	0.148139
C45	C	0.049907	0.853135	0.057929
C46	C	-0.127081	0.853124	0.057918
O47	O	-0.152831	0.867832	-0.018760
N48	N	-0.145831	0.835768	0.148102
C49	C	-0.120329	0.818406	0.238299
O50	O	-0.140336	0.803632	0.315011
C51	C	0.056660	0.818410	0.238313
C52	C	0.075405	0.835779	0.148118
C53	C	0.068653	0.870501	-0.032258
C54	C	0.112896	0.870511	-0.032257
C55	C	0.138393	0.853154	0.057931
C56	C	0.119648	0.835788	0.148119
C57	C	0.082162	0.801040	0.328512
C58	C	0.126412	0.801039	0.328509
C59	C	0.145157	0.818408	0.238314
C60	C	0.189388	0.818441	0.238308
N61	N	0.208138	0.835796	0.148124
C62	C	0.182641	0.853153	0.057935
C63	C	-0.213251	0.818408	0.238284
C64	C	-0.257499	0.818410	0.238280
C65	C	-0.264247	0.853124	0.057900
C66	C	-0.220000	0.853132	0.057901
C67	C	-0.194502	0.835764	0.148100
C68	C	0.275554	0.853172	0.057944
C69	C	0.319801	0.853185	0.057951
C70	C	0.326546	0.818464	0.238333
C71	C	0.282303	0.818457	0.238324
C72	C	0.256808	0.835809	0.148123
O73	O	0.215167	0.803726	0.314951
O74	O	0.202661	0.867898	-0.018754
C75	C	0.005664	0.853126	0.057928
C76	C	-0.013081	0.835760	0.148116
C77	C	0.012416	0.818403	0.238304
C78	C	-0.057329	0.835761	0.148112
C79	C	-0.082826	0.853118	0.057923
C80	C	-0.064076	0.870473	-0.032261
C81	C	-0.019833	0.870483	-0.032260
C82	C	-0.006334	0.801048	0.328488
C83	C	-0.050578	0.801041	0.328479
C84	C	-0.076075	0.818398	0.238291
C85	C	0.669910	0.835774	0.148098
C86	C	0.717004	0.835766	0.148092
C87	C	0.518909	0.898654	-0.178464
C88	C	0.514754	0.919987	-0.289302
C89	C	0.551701	1.086503	0.192558
C90	C	0.558675	1.171590	0.207641
C91	C	0.533297	0.824781	-0.294611
C92	C	0.529003	0.846827	-0.409167
C93	C	0.543393	0.772941	0.474695
C94	C	0.547548	0.751608	0.585533
C95	C	0.649360	0.585069	0.103655
C96	C	0.689479	0.499974	0.088566
C97	C	0.522843	0.522236	0.430252
C98	C	0.520023	0.415815	0.526007
C99	C	0.661602	0.522212	0.430235
C100	C	0.705876	0.415784	0.525984
C101	C	0.400700	1.149383	-0.134004
C102	C	0.356426	1.255810	-0.229753
C103	C	0.412942	1.086526	0.192575
C104	C	0.372823	1.171621	0.207665
C105	C	0.539459	1.149359	-0.134022
C106	C	0.542279	1.255779	-0.229777
C107	C	0.678833	0.472293	0.017702
C108	C	0.716525	0.392353	0.003501
C109	C	0.764863	0.340088	0.060173
C110	C	0.775508	0.367777	0.131041
C111	C	0.737817	0.447722	0.145234
C112	C	0.751377	0.378074	0.507174
C113	C	0.792982	0.278087	0.597132
C114	C	0.789084	0.215806	0.705898
C115	C	0.743578	0.253525	0.724707
C116	C	0.701975	0.353516	0.634751
C117	C	0.310926	1.293530	-0.210941
C118	C	0.269323	1.393543	-0.300895
C119	C	0.273221	1.455828	-0.409660
C120	C	0.318726	1.418104	-0.428470
C121	C	0.360329	1.318099	-0.338516
C122	C	0.383469	1.199312	0.278520
C123	C	0.345778	1.279280	0.292695
C124	C	0.297440	1.331548	0.236021
C125	C	0.286795	1.303855	0.165157
C126	C	0.324486	1.223896	0.150976
C127	C	0.486051	0.435081	0.583254
C128	C	0.483391	0.335102	0.673218
C129	C	0.514708	0.215856	0.705938
C130	C	0.548682	0.196592	0.648682
C131	C	0.551339	0.296572	0.558715
C132	C	0.510958	1.375005	-0.262466
C133	C	0.513607	1.475007	-0.352426
C134	C	0.547574	1.455782	-0.409699
C135	C	0.578898	1.336543	-0.377003
C136	C	0.576251	1.236543	-0.287040
H137	H	0.335061	0.867333	-0.015501
F138	F	0.558198	0.696905	-0.189703
F139	F	0.313147	1.194427	0.075567
F140	F	0.582009	0.069673	0.683520
H141	H	0.422825	1.156759	0.324681
H142	H	0.460547	0.532169	0.556626
F143	F	0.550385	1.562225	-0.505446
H144	H	0.266755	1.396654	0.247578
F145	F	0.020798	0.782573	0.424483
H146	H	0.822964	0.134389	0.779136
F147	F	0.474802	1.395494	-0.201527
F148	F	0.572451	0.623724	-0.309562
F149	F	0.600484	0.122127	0.298063
H150	H	-0.204741	0.867274	-0.015543
H151	H	-0.285015	0.867260	-0.015537
H152	H	0.321895	1.468829	-0.517037
F153	F	0.485734	0.341288	0.049904
F154	F	0.447232	0.355628	0.734143
H155	H	0.814869	0.325212	0.177178
H156	H	0.354455	1.301812	0.350402
H157	H	0.746492	0.470247	0.202945
H158	H	0.488096	1.572088	-0.379035
F159	F	0.576557	0.330321	0.246325
F160	F	0.755537	0.444347	0.391424
H161	H	0.471641	0.537832	0.019422
H162	H	0.512539	0.134457	0.779197
H163	H	0.254802	0.867299	-0.015505
F164	F	0.739437	0.187228	0.840472
F165	F	0.132843	0.888989	-0.128251
H166	H	0.495698	1.017818	-0.369566
H167	H	0.232274	1.424239	-0.285558
H168	H	0.509945	0.944665	-0.489430
F169	F	0.615045	1.316102	-0.437974
H170	H	0.707848	0.369820	-0.054205
F171	F	0.587501	0.276048	0.497800
H172	H	0.601756	1.139468	-0.260436
F173	F	0.041522	0.888974	-0.128256
F174	F	-0.277449	0.799946	0.334268
H175	H	0.239342	1.537256	-0.482897
H176	H	0.397375	1.287391	-0.353847
F177	F	0.653550	0.393633	0.654786
F178	F	0.235347	1.359490	0.104849
H179	H	0.066907	0.786895	0.401958
F180	F	-0.186118	0.799925	0.334290
H181	H	0.147173	0.786892	0.401963
H182	H	0.307742	1.242823	-0.122387
H183	H	0.639478	0.514850	-0.028463
F184	F	0.841407	0.237960	0.577090
H185	H	0.267037	0.804332	0.311762
F186	F	0.000111	0.888968	-0.128258
F187	F	0.353688	0.799996	0.334313
H188	H	-0.065838	0.786906	0.401928
F189	F	-0.091222	0.888951	-0.128249
H190	H	0.795549	0.274992	0.048607
