data_functionalizedCrystal
_audit_creation_method	'MofGen! by Chris Wilmer'
_symmetry_space_group_name_H-M	'P1'
_symmetry_Int_Tables_number	1
_symmetry_cell_setting	triclinic
loop_
_symmetry_equiv_pos_as_xyz
  x,y,z
_cell_length_a	17.077404
_cell_length_b	25.639239
_cell_length_c	17.077396
_cell_angle_alpha	89.968926
_cell_angle_beta	89.980499
_cell_angle_gamma	90.038911
loop_
_atom_site_label
_atom_site_type_symbol
_atom_site_fract_x
_atom_site_fract_y
_atom_site_fract_z
Zn1	Zn	1.199968	-0.208148	-0.443829
Zn2	Zn	1.199839	-0.295585	-0.312557
Zn3	Zn	1.068700	-0.208166	-0.312576
Zn4	Zn	1.068632	-0.295554	-0.443780
O5	O	1.134285	-0.251863	-0.378185
O6	O	1.309798	-0.219752	-0.426427
O7	O	1.182418	-0.284010	-0.202712
O8	O	1.086196	-0.134998	-0.330016
O9	O	1.309703	-0.283992	-0.329982
O10	O	1.182638	-0.134985	-0.426446
O11	O	1.086071	-0.219783	-0.202727
O12	O	0.958844	-0.219753	-0.329969
O13	O	1.086080	-0.283939	-0.553634
O14	O	0.958794	-0.283957	-0.426364
O15	O	1.182572	-0.219722	-0.553669
O16	O	1.182352	-0.368746	-0.329935
O17	O	1.085954	-0.368724	-0.426345
C18	C	0.930337	-0.251854	-0.378164
C19	C	0.843087	-0.251862	-0.378173
C20	C	1.134153	-0.387706	-0.378150
C21	C	1.134168	-0.445820	-0.378160
C22	C	0.802092	-0.285344	-0.428285
C23	C	0.720111	-0.285345	-0.428298
C24	C	0.679128	-0.251867	-0.378194
C25	C	0.720129	-0.218382	-0.328079
C26	C	0.802108	-0.218378	-0.328071
C27	C	0.549259	-0.218392	-0.328098
C28	C	0.467275	-0.218396	-0.328105
C29	C	0.467262	-0.285358	-0.428325
C30	C	0.549241	-0.285355	-0.428317
C31	C	0.590237	-0.251871	-0.378201
C32	C	1.184610	-0.806182	-0.328071
C33	C	1.184641	-0.860787	-0.328081
O34	O	1.227391	-0.889023	-0.285454
N35	N	1.134423	-0.888102	-0.378237
C36	C	1.084177	-0.860811	-0.428392
O37	O	1.041467	-0.889059	-0.471056
C38	C	1.084151	-0.806208	-0.428385
C39	C	1.134367	-0.778895	-0.378220
C40	C	1.234822	-0.778869	-0.277910
C41	C	1.234790	-0.724269	-0.277899
C42	C	1.184547	-0.696981	-0.328048
C43	C	1.134335	-0.724294	-0.378209
C44	C	1.033910	-0.778917	-0.478543
C45	C	1.033889	-0.724310	-0.478532
C46	C	1.084104	-0.696997	-0.428367
C47	C	1.084060	-0.642406	-0.428346
N48	N	1.134278	-0.615090	-0.378190
C49	C	1.184521	-0.642378	-0.328041
C50	C	1.084236	-0.975482	-0.428404
C51	C	1.084258	-1.030084	-0.428408
C52	C	1.184722	-1.030056	-0.328098
C53	C	1.184696	-0.975452	-0.328091
C54	C	1.134454	-0.948166	-0.378248
C55	C	1.184450	-0.527713	-0.328020
C56	C	1.184412	-0.473107	-0.328011
C57	C	1.083951	-0.473140	-0.428324
C58	C	1.083986	-0.527741	-0.428331
C59	C	1.134242	-0.555026	-0.378176
O60	O	1.041334	-0.614135	-0.470954
O61	O	1.227232	-0.614123	-0.285392
C62	C	1.339029	-0.251873	-0.378208
C63	C	1.426279	-0.251877	-0.378217
C64	C	1.134333	-0.251825	-0.582930
C65	C	1.134353	-0.251808	-0.670180
C66	C	1.134439	-0.115490	-0.378239
C67	C	1.134505	-0.057376	-0.378261
C68	C	1.184598	-0.218368	-0.711190
C69	C	1.184608	-0.218350	-0.793170
C70	C	1.134375	-0.251777	-0.834139
C71	C	1.084124	-0.285219	-0.793123
C72	C	1.084111	-0.285233	-0.711144
C73	C	1.084156	-0.285187	-0.963994
C74	C	1.084169	-0.285174	-1.045978
C75	C	1.184652	-0.218304	-1.046019
C76	C	1.184639	-0.218319	-0.964040
C77	C	1.134389	-0.251762	-0.923030
C78	C	1.134283	-0.251864	-0.174238
C79	C	1.134415	-0.251733	-0.086988
H80	H	0.686736	-0.312609	-0.469104
N81	N	1.032829	-0.319342	-0.922088
N82	N	0.982824	-0.300953	-0.876338
H83	H	0.946578	-0.325075	-0.846740
H84	H	0.433908	-0.191129	-0.287315
N85	N	1.032797	-0.319360	-0.834958
N86	N	0.987930	-0.349209	-0.798329
H87	H	0.951674	-0.373320	-0.827872
H88	H	1.225586	-0.953217	-0.287242
N89	N	0.591152	-0.184190	-0.276918
N90	N	0.636942	-0.150896	-0.304624
H91	H	0.666532	-0.126743	-0.268478
H92	H	0.992977	-0.702096	-0.519379
N93	N	0.678281	-0.184184	-0.276889
N94	N	0.714897	-0.154292	-0.232149
H95	H	0.685344	-0.130140	-0.195993
N96	N	0.843975	-0.184170	-0.276885
N97	N	0.807376	-0.154279	-0.232156
H98	H	0.836943	-0.130115	-0.196007
H99	H	1.043040	-0.450914	-0.469153
N100	N	1.236040	-1.057934	-0.276862
N101	N	1.208465	-1.088445	-0.226823
H102	H	1.244705	-1.108135	-0.190638
H103	H	1.043188	-0.312459	-0.677755
N104	N	0.843952	-0.319549	-0.479454
N105	N	0.834748	-0.367790	-0.474115
H106	H	0.864310	-0.391949	-0.510254
H107	H	1.225506	-0.191150	-0.677838
H108	H	0.582607	-0.312619	-0.469112
N109	N	1.235698	-0.445211	-0.276753
N110	N	1.230531	-0.451352	-0.204318
H111	H	1.266750	-0.431653	-0.168115
N112	N	0.425378	-0.319565	-0.479505
N113	N	0.352184	-0.319566	-0.479505
H114	H	0.322599	-0.343727	-0.515644
H115	H	1.225524	-0.191121	-0.826557
N116	N	1.235969	-0.184133	-1.087904
N117	N	1.230818	-0.135890	-1.078763
H118	H	1.267061	-0.111757	-1.108347
N119	N	1.235788	-0.555570	-0.276783
N120	N	1.280610	-0.531168	-0.232002
H121	H	1.316864	-0.550842	-0.195811
H122	H	1.043360	-1.052318	-0.469250
N123	N	1.286091	-0.696381	-0.226652
N124	N	1.330945	-0.720761	-0.181885
H125	H	1.367180	-0.701069	-0.145690
H126	H	1.225547	-0.191103	-0.930685
N127	N	1.032904	-0.947619	-0.479645
N128	N	0.988075	-0.972020	-0.524421
H129	H	0.951822	-0.952345	-0.560611
N130	N	1.286146	-0.806728	-0.226666
N131	N	1.280970	-0.800652	-0.154230
H132	H	1.317218	-0.820324	-0.118030
N133	N	0.982610	-0.806800	-0.529791
N134	N	0.937763	-0.782419	-0.574563
H135	H	0.901530	-0.802109	-0.610762
H136	H	1.043264	-0.312391	-1.079333
H137	H	1.043099	-0.549980	-0.469182
