data_functionalizedCrystal
_audit_creation_method	'MofGen! by Chris Wilmer'
_symmetry_space_group_name_H-M	'P1'
_symmetry_Int_Tables_number	1
_symmetry_cell_setting	triclinic
loop_
_symmetry_equiv_pos_as_xyz
  x,y,z
_cell_length_a	14.908783
_cell_length_b	14.908520
_cell_length_c	19.076919
_cell_angle_alpha	84.570994
_cell_angle_beta	91.152445
_cell_angle_gamma	96.791586
loop_
_atom_site_label
_atom_site_type_symbol
_atom_site_fract_x
_atom_site_fract_y
_atom_site_fract_z
Zn1	Zn	1.337223	-0.306432	0.472026
Zn2	Zn	1.837223	0.193568	0.972026
Zn3	Zn	1.334470	-0.451726	0.360746
Zn4	Zn	1.834470	0.048274	0.860746
Zn5	Zn	1.192640	-0.308397	0.347915
Zn6	Zn	1.692640	0.191603	0.847915
Zn7	Zn	1.177086	-0.466474	0.471970
Zn8	Zn	1.677086	0.033526	0.971970
O9	O	1.260355	-0.383257	0.413164
O10	O	1.760355	0.116743	0.913164
O11	O	1.463232	-0.318711	0.462658
O12	O	1.963232	0.181289	0.962658
O13	O	1.321013	-0.427364	0.260556
O14	O	1.821013	0.072636	0.760556
O15	O	1.219480	-0.181175	0.359032
O16	O	1.719480	0.318825	0.859032
O17	O	1.461209	-0.425458	0.380901
O18	O	1.961209	0.074542	0.880901
O19	O	1.325705	-0.179731	0.450216
O20	O	1.825705	0.320269	0.950216
O21	O	1.216811	-0.322061	0.251129
O22	O	1.716811	0.177939	0.751129
O23	O	1.064202	-0.336361	0.358978
O24	O	1.564202	0.163639	0.858978
O25	O	1.192971	-0.450594	0.570466
O26	O	1.692971	0.049406	1.070466
O27	O	1.052775	-0.452500	0.450121
O28	O	1.552775	0.047500	0.950121
O29	O	1.310623	-0.333012	0.570507
O30	O	1.810623	0.166988	1.070507
O31	O	1.305931	-0.580645	0.380847
O32	O	1.805931	-0.080645	0.880847
O33	O	1.190302	-0.591480	0.462562
O34	O	1.690302	-0.091480	0.962562
C35	C	1.025721	-0.396245	0.403151
C36	C	1.525721	0.103755	0.903151
C37	C	0.925342	-0.401824	0.398885
C38	C	1.425342	0.098176	0.898885
C39	C	0.738805	-0.301318	0.476146
C40	C	1.238805	0.198682	0.976146
C41	C	0.644490	-0.306557	0.472140
C42	C	1.144490	0.193443	0.972140
C43	C	0.642395	-0.417535	0.386863
C44	C	1.142395	0.082465	0.886863
C45	C	0.736710	-0.412296	0.390870
C46	C	1.236710	0.087704	0.890870
C47	C	0.784912	-0.354187	0.435513
C48	C	1.284912	0.145813	0.935513
C49	C	0.879229	-0.348953	0.439523
C50	C	1.379229	0.151047	0.939523
C51	C	0.877132	-0.459926	0.354243
C52	C	1.377132	0.040074	0.854243
C53	C	0.782816	-0.465165	0.350237
C54	C	1.282816	0.034835	0.850237
C55	C	1.246154	-0.618982	0.423107
C56	C	1.746154	-0.118982	0.923107
C57	C	1.240160	-0.719822	0.427388
C58	C	1.740160	-0.219822	0.927388
C59	C	1.349416	-0.897965	0.350419
C60	C	1.849416	-0.397965	0.850419
C61	C	1.343788	-0.992714	0.354439
C62	C	1.843788	-0.492714	0.854439
C63	C	1.223279	-1.004069	0.439451
C64	C	1.723279	-0.504069	0.939451
C65	C	1.228908	-0.909320	0.435431
C66	C	1.728908	-0.409320	0.935431
C67	C	1.291977	-0.856272	0.390913
C68	C	1.791977	-0.356272	0.890913
C69	C	1.297601	-0.761522	0.386890
C70	C	1.797601	-0.261522	0.886890
C71	C	1.177097	-0.772878	0.471905
C72	C	1.677097	-0.272878	0.971905
C73	C	1.171469	-0.867627	0.475925
C74	C	1.671469	-0.367627	0.975925
C75	C	1.495904	-0.370220	0.423217
C76	C	1.995904	0.129780	0.923217
C77	C	1.596281	-0.364664	0.427501
C78	C	2.096281	0.135336	0.927501
C79	C	1.250369	-0.393229	0.596737
C80	C	1.750369	0.106771	1.096737
C81	C	1.246114	-0.397478	0.674965
C82	C	1.746114	0.102522	1.174965
C83	C	1.274635	-0.146612	0.403199
C84	C	1.774635	0.353388	0.903199
C85	C	1.280720	-0.045768	0.398953
C86	C	1.780720	0.454232	0.898953
C87	C	1.270357	-0.373257	0.230305
C88	C	1.770357	0.126743	0.730305
C89	C	1.274802	-0.368742	0.152075
C90	C	1.774802	0.131258	0.652075
C91	C	1.305367	-0.338258	0.711739
C92	C	1.805367	0.161742	1.211739
C93	C	1.301358	-0.342248	0.785242
C94	C	1.801358	0.157752	1.285242
C95	C	1.238100	-0.405462	0.821969
C96	C	1.738100	0.094538	1.321969
C97	C	1.178841	-0.464685	0.785190
C98	C	1.678841	0.035315	1.285190
C99	C	1.182846	-0.460690	0.711688
C100	C	1.682846	0.039310	1.211688
C101	C	1.219549	-0.423970	1.041793
C102	C	1.719549	0.076030	1.541793
C103	C	1.215550	-0.427962	1.115300
C104	C	1.715550	0.072038	1.615300
C105	C	1.338066	-0.305523	1.115347
C106	C	1.838066	0.194477	1.615347
C107	C	1.342069	-0.301538	1.041844
C108	C	1.842069	0.198462	1.541844
C109	C	1.282807	-0.360757	1.005071
C110	C	1.782807	0.139243	1.505071
N111	N	1.234003	-0.409544	0.897101
N112	N	1.734003	0.090456	1.397101
N113	N	1.286901	-0.356671	0.929940
N114	N	1.786901	0.143329	1.429940
H115	H	1.348953	-0.718330	0.350639
H116	H	1.848953	-0.218330	0.850639
C117	C	1.418790	-0.839610	0.301448
C118	C	1.918790	-0.339610	0.801448
N119	N	1.471046	-0.795658	0.264562
N120	N	1.971046	-0.295658	0.764562
H121	H	1.390562	-1.026656	0.321466
H122	H	1.890562	-0.526656	0.821466
C123	C	1.109248	-0.534213	0.825592
C124	C	1.609248	-0.034213	1.325592
N125	N	1.056828	-0.586583	0.856023
N126	N	1.556828	-0.086583	1.356023
C127	C	1.117665	-0.525838	0.671237
C128	C	1.617665	-0.025838	1.171237
N129	N	1.068566	-0.574909	0.640770
N130	N	1.568566	-0.074909	1.140770
C131	C	1.153906	-1.062438	0.488416
C132	C	1.653906	-0.562438	0.988416
N133	N	1.101652	-1.106402	0.525294
N134	N	1.601652	-0.606402	1.025294
C135	C	1.145955	-0.497503	1.155699
C136	C	1.645955	0.002497	1.655699
N137	N	1.093539	-0.549880	1.186127
N138	N	1.593539	-0.049880	1.686127
C139	C	1.366543	-0.277102	0.825690
C140	C	1.866543	0.222898	1.325690
N141	N	1.415643	-0.228032	0.856156
N142	N	1.915643	0.271968	1.356156
C143	C	1.113910	-0.727008	0.516451
C144	C	1.613910	-0.227008	1.016451
N145	N	1.066318	-0.692458	0.550001
N146	N	1.566318	-0.192458	1.050001
C147	C	0.729784	-0.529083	0.301132
C148	C	1.229784	-0.029083	0.801132
N149	N	0.689840	-0.577230	0.264147
N150	N	1.189840	-0.077230	0.764147
H151	H	0.918473	-0.301638	0.475875
H152	H	1.418473	0.198362	0.975875
C153	C	0.791829	-0.237402	0.525258
C154	C	1.291829	0.262598	1.025258
N155	N	0.831766	-0.189259	0.562249
N156	N	1.331766	0.310741	1.062249
H157	H	0.914681	-0.502983	0.321162
H158	H	1.414681	-0.002983	0.821162
H159	H	0.606954	-0.263503	0.505226
H160	H	1.106954	0.236497	1.005226
C161	C	0.589357	-0.481442	0.337753
C162	C	1.089357	0.018558	0.837753
N163	N	0.549408	-0.529578	0.300763
N164	N	1.049408	-0.029578	0.800763
C165	C	1.102091	-0.925990	0.524888
C166	C	1.602091	-0.425990	1.024888
N167	N	1.049830	-0.969949	0.561765
N168	N	1.549830	-0.469949	1.061765
H169	H	1.356881	-0.286785	0.681841
H170	H	1.856881	0.213215	1.181841
C171	C	1.403240	-0.240376	1.155803
C172	C	1.903240	0.259624	1.655803
N173	N	1.452326	-0.191300	1.186274
N174	N	1.952326	0.308700	1.686274
C175	C	1.411650	-0.231988	1.001449
C176	C	1.911650	0.268012	1.501449
N177	N	1.464058	-0.179601	0.971023
N178	N	1.964058	0.320399	1.471023
H179	H	1.171306	-0.472203	1.011863
H180	H	1.671306	0.027797	1.511863
