data_functionalizedCrystal
_audit_creation_method	'MofGen! by Chris Wilmer'
_symmetry_space_group_name_H-M	'P1'
_symmetry_Int_Tables_number	1
_symmetry_cell_setting	triclinic
loop_
_symmetry_equiv_pos_as_xyz
  x,y,z
_cell_length_a	14.853567
_cell_length_b	11.804365
_cell_length_c	13.339070
_cell_angle_alpha	74.875130
_cell_angle_beta	99.632112
_cell_angle_gamma	101.851263
loop_
_atom_site_label
_atom_site_type_symbol
_atom_site_fract_x
_atom_site_fract_y
_atom_site_fract_z
O1	O	0.439029	-0.099032	1.363338
O2	O	0.379685	-0.099030	1.068727
O3	O	0.280086	-0.099035	1.223903
O4	O	0.538627	-0.099028	1.208162
O5	O	0.306270	0.099022	1.183051
O6	O	0.405869	0.099027	1.027875
O7	O	0.465213	0.099025	1.322486
Cu8	Cu	0.437931	0.117110	1.171451
Cu9	Cu	0.406966	-0.117116	1.219763
O10	O	0.564811	0.099029	1.167310
C11	C	0.259411	-0.000010	1.202764
C12	C	0.158794	-0.000020	1.200629
C13	C	0.382752	-0.000002	1.010598
C14	C	0.352872	-0.000001	0.898254
N15	N	0.459712	0.281852	1.137478
C16	C	-0.278941	0.000003	1.099414
C17	C	-0.254314	0.000002	1.283765
C18	C	-0.159780	-0.000005	1.285776
C19	C	-0.124823	-0.000006	1.194604
C20	C	-0.184399	-0.000000	1.101421
C21	C	-0.100196	0.000001	1.378955
C22	C	-0.005657	-0.000005	1.380969
C23	C	0.029301	-0.000014	1.289798
C24	C	-0.030281	-0.000010	1.196611
C25	C	0.004677	-0.000011	1.105439
C26	C	-0.054905	-0.000015	1.012254
C27	C	-0.149441	-0.000010	1.010250
C28	C	0.123837	-0.000019	1.291802
C29	C	0.099219	-0.000014	1.107447
C30	C	0.585486	0.000002	1.188449
C31	C	0.686102	0.000004	1.190586
N32	N	0.385180	-0.281857	1.253743
C33	C	0.332860	0.655794	1.335324
C34	C	0.316378	0.531132	1.361023
C35	C	0.352210	0.468806	1.305139
C36	C	0.404526	0.531154	1.223551
C37	C	0.421015	0.655829	1.197855
C38	C	0.440366	0.468840	1.167670
C39	C	0.492682	0.531189	1.086082
C40	C	0.509168	0.655851	1.060390
C41	C	0.473336	0.718177	1.116274
C42	C	0.423877	0.344166	1.193366
C43	C	0.512033	0.344200	1.055897
C44	C	0.528514	0.468862	1.030198
C45	C	0.585204	-0.000014	0.533790
C46	C	0.613280	-0.000018	0.639343
C47	C	0.548181	-0.000013	0.704076
C48	C	0.455000	-0.000006	0.663246
C49	C	0.426919	-0.000011	0.557684
C50	C	0.389896	-0.000010	0.727970
C51	C	0.296715	-0.000003	0.687140
C52	C	0.268640	-0.000007	0.581588
C53	C	0.333740	-0.000012	0.516855
C54	C	0.417977	-0.000005	0.833531
C55	C	0.259692	-0.000002	0.857425
C56	C	0.231616	0.000002	0.751872
C57	C	0.462145	-0.000006	1.380616
C58	C	0.492024	-0.000015	1.492961
H59	H	0.127672	-0.000020	1.033203
C60	C	-0.283515	-0.101804	0.922046
C61	C	-0.214935	-0.000001	0.907827
H62	H	-0.323953	-0.101789	0.858816
H63	H	-0.255260	-0.170863	0.940892
H64	H	-0.317851	-0.101789	0.976064
H65	H	-0.180594	-0.000021	0.853814
H66	H	-0.243192	0.069076	0.888967
C67	C	-0.060235	-0.101831	0.876739
C68	C	-0.016475	-0.000016	0.912037
H69	H	-0.036509	-0.101825	0.814869
H70	H	-0.048809	-0.170882	0.929188
H71	H	-0.125064	-0.101822	0.862206
H72	H	0.048353	-0.000029	0.926578
H73	H	-0.027893	0.069053	0.859577
C74	C	0.146873	0.101811	0.889284
C75	C	0.188124	0.000003	0.928567
H76	H	0.102690	0.101805	0.933207
H77	H	0.193121	0.170867	0.887432
H78	H	0.116818	0.101794	0.820577
H79	H	0.218185	0.000025	0.997272
H80	H	0.141868	-0.069070	0.930432
C81	C	0.251392	0.340017	1.460942
C82	C	0.258472	0.462602	1.450343
H83	H	0.215525	0.297711	1.515986
H84	H	0.222283	0.319837	1.397415
H85	H	0.311566	0.319366	1.476629
H86	H	0.198298	0.483255	1.434648
H87	H	0.287579	0.482790	1.513883
C88	C	-0.413000	-0.101812	1.011207
C89	C	-0.344430	0.000001	0.996988
H90	H	-0.453433	-0.101807	0.947974
H91	H	-0.384736	-0.170864	1.030061
H92	H	-0.447344	-0.101800	1.065219
H93	H	-0.310081	-0.000015	0.942981
H94	H	-0.372695	0.069071	0.978121
C95	C	0.196709	0.694185	1.386615
C96	C	0.293473	0.724308	1.396738
H97	H	0.172393	0.736481	1.424535
H98	H	0.172702	0.714629	1.314857
H99	H	0.179409	0.611015	1.413603
H100	H	0.310773	0.807477	1.369742
H101	H	0.317489	0.703872	1.468509
H102	H	0.486751	0.819688	1.095348
H103	H	0.541212	0.293455	1.010392
H104	H	0.381281	0.293413	1.259795
C105	C	-0.359808	-0.101806	1.409448
C106	C	-0.292737	0.000004	1.383978
H107	H	-0.383526	-0.101806	1.471322
H108	H	-0.408812	-0.101790	1.353670
H109	H	-0.332565	-0.170868	1.420645
H110	H	-0.319982	0.069067	1.372774
H111	H	-0.243725	-0.000001	1.439769
C112	C	0.558769	0.101808	0.840779
C113	C	0.579037	-0.000011	0.820101
H114	H	0.577817	0.101806	0.912412
H115	H	0.590784	0.170856	0.798243
H116	H	0.493957	0.101799	0.825719
H117	H	0.643851	0.000002	0.835153
H118	H	0.547024	-0.069077	0.862650
C119	C	0.542631	0.507305	0.847163
C120	C	0.586020	0.537409	0.940519
H121	H	0.578130	0.549630	0.791800
H122	H	0.537953	0.424151	0.854467
H123	H	0.482388	0.527737	0.831902
H124	H	0.646261	0.516968	0.955785
H125	H	0.590709	0.620581	0.933215
C126	C	-0.066364	0.000008	1.561379
C127	C	-0.138621	0.000001	1.479167
H128	H	-0.090090	0.000012	1.623246
H129	H	-0.039133	-0.069052	1.572574
H130	H	-0.020871	0.069082	1.544075
H131	H	-0.184110	-0.069079	1.496467
H132	H	-0.165866	0.069068	1.467972
H133	H	0.551775	0.706615	0.993964
C134	C	0.766912	-0.000012	0.605113
C135	C	0.715700	-0.000015	0.684219
H136	H	0.830146	-0.000001	0.632818
H137	H	0.743540	-0.069076	0.578689
H138	H	0.761792	0.069058	0.550189
H139	H	0.720814	-0.069090	0.739140
H140	H	0.739079	0.069057	0.710658
C141	C	0.236971	-0.101827	0.393151
C142	C	0.302877	-0.000013	0.400826
H143	H	0.217918	-0.101822	0.321518
H144	H	0.263426	-0.170878	0.426859
H145	H	0.184865	-0.101817	0.425857
H146	H	0.354986	-0.000027	0.368127
H147	H	0.276423	0.069057	0.367104
H148	H	0.493845	-0.000007	0.866763
H149	H	0.042847	-0.000003	1.456847
H150	H	0.338789	0.367300	1.326067
C151	C	0.115003	0.000008	0.615808
C152	C	0.166215	-0.000003	0.536707
H153	H	0.051772	0.000019	0.588098
H154	H	0.120111	-0.069054	0.670727
H155	H	0.138388	0.069081	0.642234
H156	H	0.142834	-0.069081	0.510286
H157	H	0.161102	0.069066	0.481769
H158	H	0.638196	-0.000028	0.481078
H159	H	0.172345	-0.000008	1.367670
H160	H	0.155745	-0.000002	0.718615
