data_functionalizedCrystal
_audit_creation_method	'MofGen! by Chris Wilmer'
_symmetry_space_group_name_H-M	'P1'
_symmetry_Int_Tables_number	1
_symmetry_cell_setting	triclinic
loop_
_symmetry_equiv_pos_as_xyz
  x,y,z
_cell_length_a	13.897449
_cell_length_b	12.759399
_cell_length_c	12.759393
_cell_angle_alpha	89.969094
_cell_angle_beta	89.978412
_cell_angle_gamma	90.016396
loop_
_atom_site_label
_atom_site_type_symbol
_atom_site_fract_x
_atom_site_fract_y
_atom_site_fract_z
Zn1	Zn	1.474728	-0.418180	-0.594035
Zn2	Zn	1.474627	-0.593895	-0.418354
Zn3	Zn	1.313415	-0.418235	-0.418369
Zn4	Zn	1.313406	-0.593821	-0.593989
O5	O	1.394044	-0.506033	-0.506187
O6	O	1.609696	-0.441497	-0.570744
O7	O	1.453203	-0.570648	-0.271335
O8	O	1.334859	-0.271206	-0.441696
O9	O	1.609622	-0.570594	-0.441672
O10	O	1.453375	-0.271166	-0.570758
O11	O	1.334761	-0.441591	-0.271345
O12	O	1.178432	-0.441519	-0.441652
O13	O	1.334845	-0.570468	-0.741017
O14	O	1.178426	-0.570521	-0.570680
O15	O	1.453367	-0.441425	-0.741050
O16	O	1.453195	-0.740906	-0.441627
O17	O	1.334746	-0.740852	-0.570666
C18	C	1.393985	-0.779000	-0.506163
C19	C	1.394048	-0.895777	-0.506188
C20	C	1.143430	-0.506019	-0.506163
C21	C	1.036216	-0.506038	-0.506178
C22	C	1.455794	-0.950632	-0.439074
C23	C	1.455856	-1.060356	-0.439109
C24	C	1.332417	-1.060360	-0.573375
C25	C	1.332361	-0.950638	-0.573345
C26	C	0.839921	-0.506042	-0.506205
C27	C	0.949153	-0.506036	-0.506187
C28	C	1.645637	-0.506047	-0.506212
C29	C	1.752851	-0.506054	-0.506222
C30	C	1.394116	-0.505932	-0.780220
C31	C	1.394147	-0.505889	-0.896997
C32	C	1.394130	-0.231999	-0.506234
C33	C	1.394166	-0.115223	-0.506254
C34	C	1.455866	-0.438685	-0.951878
C35	C	1.455882	-0.438640	-1.061602
C36	C	1.332458	-0.573011	-1.061554
C37	C	1.332437	-0.573050	-0.951832
C38	C	1.394028	-0.506057	-0.233219
C39	C	1.394184	-0.505804	-0.116443
H40	H	1.506025	-0.905967	-0.384392
C41	C	1.522930	-1.119724	-0.366124
C42	C	1.576920	-1.048190	-0.307291
C43	C	1.638713	-1.102840	-0.240034
H44	H	1.565051	-1.162456	-0.406247
H45	H	1.486095	-1.162578	-0.320269
H46	H	1.613752	-1.005354	-0.353140
H47	H	1.534825	-1.005455	-0.267146
H48	H	1.601878	-1.145694	-0.194179
H49	H	1.680827	-1.145571	-0.280165
H50	H	1.675346	-1.054313	-0.200101
H51	H	1.282171	-0.627774	-0.907147
C52	C	1.522785	-0.365712	-1.121377
C53	C	1.509576	-0.380023	-1.229205
C54	C	1.571180	-0.312843	-1.284301
H55	H	1.587627	-0.381030	-1.103537
H56	H	1.508676	-0.295106	-1.103459
H57	H	1.523692	-0.450612	-1.247116
H58	H	1.444747	-0.364697	-1.247076
H59	H	1.557071	-0.242237	-1.266383
H60	H	1.636018	-0.328167	-1.266452
H61	H	1.562220	-0.322536	-1.357467
C62	C	1.265307	-0.645804	-1.121036
C63	C	1.169871	-0.622912	-1.094355
C64	C	1.107986	-0.689943	-1.149135
H65	H	1.279271	-0.716439	-1.103086
H66	H	1.274094	-0.636152	-1.194253
H67	H	1.161089	-0.632573	-1.021153
H68	H	1.155878	-0.552290	-1.112308
H69	H	1.116772	-0.680291	-1.222352
H70	H	1.121958	-0.760574	-1.131180
H71	H	1.043225	-0.674414	-1.131047
C72	C	1.265474	-1.120115	-0.646162
C73	C	1.278717	-1.227947	-0.631804
C74	C	1.217053	-1.283023	-0.698825
H75	H	1.279485	-1.102192	-0.716805
H76	H	1.200642	-1.102263	-0.630706
H77	H	1.343534	-1.245791	-0.647267
H78	H	1.264699	-1.245901	-0.561175
H79	H	1.152221	-1.265171	-0.683369
H80	H	1.231069	-1.265091	-0.769464
H81	H	1.226023	-1.356192	-0.689086
H82	H	1.282079	-0.905971	-0.628002
H83	H	1.506112	-0.383996	-0.907235
