data_functionalizedCrystal
_audit_creation_method	'MofGen! by Chris Wilmer'
_symmetry_space_group_name_H-M	'P1'
_symmetry_Int_Tables_number	1
_symmetry_cell_setting	triclinic
loop_
_symmetry_equiv_pos_as_xyz
  x,y,z
_cell_length_a	16.109301
_cell_length_b	16.098538
_cell_length_c	16.109301
_cell_angle_alpha	92.720629
_cell_angle_beta	96.538519
_cell_angle_gamma	92.735164
loop_
_atom_site_label
_atom_site_type_symbol
_atom_site_fract_x
_atom_site_fract_y
_atom_site_fract_z
O1	O	1.106853	0.069206	-0.103153
O2	O	1.606853	0.569206	0.396847
O3	O	0.864792	0.069220	-0.116452
O4	O	1.364792	0.569220	0.383548
O5	O	0.992471	0.069204	0.011228
O6	O	1.492471	0.569204	0.511228
O7	O	0.979173	0.069222	-0.230833
O8	O	1.479173	0.569222	0.269167
O9	O	0.985013	-0.069308	0.003799
O10	O	1.485013	0.430692	0.503799
O11	O	0.857333	-0.069292	-0.123881
O12	O	1.357333	0.430708	0.376119
O13	O	1.099394	-0.069306	-0.110582
O14	O	1.599394	0.430694	0.389418
Zn15	Zn	0.977180	-0.091291	-0.118411
Zn16	Zn	1.477180	0.408709	0.381589
Zn17	Zn	0.987006	0.091205	-0.108623
Zn18	Zn	1.487006	0.591205	0.391377
O19	O	0.971715	-0.069290	-0.238262
O20	O	1.471715	0.430710	0.261738
C21	C	0.830088	-0.000035	-0.119628
C22	C	1.330088	0.499965	0.380372
C23	C	0.737793	-0.000030	-0.118012
C24	C	1.237793	0.499970	0.381988
C25	C	0.515520	-0.000034	-0.190020
C26	C	1.015520	0.499966	0.309980
C27	C	0.428799	-0.000040	-0.188496
C28	C	0.928799	0.499960	0.311504
C29	C	0.448673	-0.000047	-0.037008
C30	C	0.948673	0.499953	0.462992
C31	C	0.535392	-0.000048	-0.038533
C32	C	1.035392	0.499952	0.461467
C33	C	0.568813	-0.000037	-0.115041
C34	C	1.068813	0.499963	0.384959
C35	C	0.395374	-0.000042	-0.111993
C36	C	0.895374	0.499958	0.388007
C37	C	0.301347	-0.000048	-0.110340
C38	C	0.801347	0.499952	0.389660
C39	C	0.662845	-0.000033	-0.116695
C40	C	1.162845	0.499967	0.383305
N41	N	0.970479	-0.215839	-0.125091
N42	N	1.470479	0.284161	0.374909
C43	C	1.024691	-0.259431	-0.070918
C44	C	1.524691	0.240569	0.429082
C45	C	1.020012	-0.346619	-0.075598
C46	C	1.520012	0.153381	0.424402
C47	C	0.961123	-0.390215	-0.134457
C48	C	1.461123	0.109785	0.365543
C49	C	0.906905	-0.346617	-0.188633
C50	C	1.406905	0.153383	0.311367
C51	C	0.911582	-0.259430	-0.183947
C52	C	1.411582	0.240570	0.316053
C53	C	0.944172	-0.653463	-0.151427
C54	C	1.444172	-0.153463	0.348573
C55	C	0.939501	-0.740655	-0.156110
C56	C	1.439501	-0.240655	0.343890
C57	C	1.052607	-0.740652	-0.043074
C58	C	1.552607	-0.240652	0.456926
C59	C	1.057282	-0.653464	-0.038398
C60	C	1.557282	-0.153464	0.461602
C61	C	1.003061	-0.609873	-0.092570
C62	C	1.503061	-0.109873	0.407430
C63	C	0.956341	-0.479335	-0.139244
C64	C	1.456341	0.020665	0.360756
C65	C	1.007840	-0.520754	-0.087778
C66	C	1.507840	-0.020754	0.412222
C67	C	1.134099	-0.000050	-0.107407
C68	C	1.634099	0.499950	0.392593
C69	C	1.226394	-0.000049	-0.109022
C70	C	1.726394	0.499951	0.390978
C71	C	0.988204	-0.000052	0.038488
C72	C	1.488204	0.499948	0.538488
C73	C	0.986588	-0.000054	0.130783
C74	C	1.486588	0.499946	0.630783
N75	N	0.993714	0.215753	-0.101937
N76	N	1.493714	0.715753	0.398063
C77	C	0.975983	-0.000032	-0.265522
C78	C	1.475983	0.499968	0.234478
C79	C	0.977598	-0.000026	-0.357817
C80	C	1.477598	0.499974	0.142183
C81	C	1.058597	-0.000044	0.353056
C82	C	1.558597	0.499956	0.853056
C83	C	1.057073	-0.000038	0.439777
C84	C	1.557073	0.499962	0.939777
C85	C	0.905584	-0.000032	0.419903
C86	C	1.405584	0.499968	0.919903
C87	C	0.907109	-0.000033	0.333184
C88	C	1.407109	0.499967	0.833184
C89	C	0.983618	-0.000044	0.299763
C90	C	1.483618	0.499956	0.799763
C91	C	0.980569	-0.000036	0.473203
C92	C	1.480569	0.499964	0.973203
C93	C	0.978916	-0.000028	0.567229
C94	C	1.478916	0.499972	1.067229
C95	C	0.985271	-0.000050	0.205731
C96	C	1.485271	0.499950	0.705731
H97	H	0.542728	-0.000032	-0.252318
H98	H	1.042728	0.499968	0.247682
H99	H	0.421451	-0.000061	0.025282
H100	H	0.921451	0.499939	0.525282
H101	H	1.118128	-0.000036	0.483166
H102	H	1.618128	0.499964	0.983166
H103	H	1.105233	-0.617970	0.009530
H104	H	1.605233	-0.117970	0.509530
H105	H	0.908394	-0.514837	-0.187170
H106	H	1.408394	-0.014837	0.312830
H107	H	0.858953	-0.382117	-0.236554
H108	H	1.358953	0.117883	0.263446
H109	H	0.385411	-0.000039	-0.249552
H110	H	0.885411	0.499961	0.250448
C111	C	0.824628	-0.000035	0.274558
C112	C	1.324628	0.499965	0.774558
H113	H	0.778844	-0.000041	0.306880
H114	H	1.278844	0.499959	0.806880
H115	H	0.824674	0.048267	0.242902
H116	H	1.324674	0.548267	0.742902
H117	H	0.819478	-0.048344	0.237730
H118	H	1.319478	0.451656	0.737730
H119	H	1.064155	-0.382111	-0.031486
H120	H	1.564155	0.117889	0.468514
C121	C	1.072615	-0.472807	-0.023036
C122	C	1.572615	0.027193	0.476964
H123	H	1.104234	-0.511252	0.008563
H124	H	1.604234	-0.011252	0.508563
H125	H	1.109031	-0.438781	-0.051132
H126	H	1.609031	0.061219	0.448868
H127	H	1.044537	-0.438810	0.013413
H128	H	1.544537	0.061190	0.513413
C129	C	0.594018	-0.000047	0.043948
C130	C	1.094018	0.499953	0.543948
H131	H	0.561696	-0.000041	0.089732
H132	H	1.061696	0.499959	0.589732
H133	H	0.625663	-0.048349	0.043913
H134	H	1.125663	0.451651	0.543913
H135	H	0.630857	0.048261	0.049087
H136	H	1.130857	0.548261	0.549087
H137	H	1.072648	-0.223942	-0.022993
H138	H	1.572648	0.276058	0.477007
H139	H	1.120895	-0.000051	0.325848
H140	H	1.620895	0.499949	0.825848
C141	C	0.821432	-0.000033	0.456669
C142	C	1.321432	0.499967	0.956669
H143	H	0.831260	-0.000041	0.515948
H144	H	1.331260	0.499959	1.015948
H145	H	0.793155	0.048268	0.440963
H146	H	1.293155	0.548268	0.940963
H147	H	0.787965	-0.048342	0.435785
H148	H	1.287965	0.451658	0.935785
H149	H	0.891545	-0.776147	-0.204043
H150	H	1.391545	-0.276147	0.295957
C151	C	1.112237	-0.788603	0.016518
C152	C	1.612237	-0.288603	0.516518
H153	H	1.101015	-0.846772	0.005305
H154	H	1.601015	-0.346772	0.505305
H155	H	1.168487	-0.774303	0.008244
H156	H	1.668487	-0.274303	0.508244
H157	H	1.103982	-0.774324	0.072777
H158	H	1.603982	-0.274324	0.572777
C159	C	0.884538	-0.605524	-0.211022
C160	C	1.384538	-0.105524	0.288978
H161	H	0.848805	-0.643977	-0.246752
H162	H	1.348805	-0.143977	0.253248
H163	H	0.851761	-0.571524	-0.179280
H164	H	1.351761	-0.071524	0.320720
H165	H	0.916263	-0.571502	-0.243816
H166	H	1.416263	-0.071502	0.256184
H167	H	0.867435	-0.223938	-0.228060
H168	H	1.367435	0.276062	0.271940
