data_functionalizedCrystal
_audit_creation_method	'MofGen! by Chris Wilmer'
_symmetry_space_group_name_H-M	'P1'
_symmetry_Int_Tables_number	1
_symmetry_cell_setting	triclinic
loop_
_symmetry_equiv_pos_as_xyz
  x,y,z
_cell_length_a	18.050591
_cell_length_b	18.050589
_cell_length_c	13.032268
_cell_angle_alpha	97.149417
_cell_angle_beta	97.157945
_cell_angle_gamma	90.024669
loop_
_atom_site_label
_atom_site_type_symbol
_atom_site_fract_x
_atom_site_fract_y
_atom_site_fract_z
Zn1	Zn	1.081955	-0.349040	-0.591013
Zn2	Zn	1.097635	-0.457476	-0.416282
Zn3	Zn	0.973544	-0.333296	-0.416274
Zn4	Zn	0.957728	-0.473179	-0.590953
O5	O	1.027716	-0.403248	-0.503631
O6	O	1.187957	-0.363441	-0.567863
O7	O	1.094355	-0.427843	-0.270052
O8	O	0.987982	-0.231462	-0.439475
O9	O	1.199477	-0.443109	-0.439489
O10	O	1.067632	-0.243029	-0.567855
O11	O	1.003186	-0.336608	-0.270046
O12	O	0.867524	-0.351835	-0.439417
O13	O	0.961026	-0.469873	-0.737191
O14	O	0.855904	-0.454607	-0.567753
O15	O	1.052295	-0.378668	-0.737234
O16	O	1.079019	-0.563482	-0.439431
O17	O	0.976230	-0.575019	-0.567761
C18	C	0.834768	-0.403217	-0.503578
C19	C	0.752222	-0.403224	-0.503581
C20	C	0.509679	-0.347300	-0.433957
C21	C	0.550505	-0.337813	-0.529321
C22	C	0.455094	-0.403269	-0.503666
C23	C	0.561353	-0.412699	-0.408266
C24	C	0.601083	-0.403245	-0.503619
C25	C	0.494828	-0.393752	-0.599081
C26	C	0.505678	-0.468664	-0.477962
C27	C	0.546475	-0.459209	-0.573392
C28	C	0.370994	-0.403282	-0.503692
C29	C	0.685181	-0.403234	-0.503604
C30	C	1.027628	-0.596198	-0.503613
C31	C	1.027655	-0.678747	-0.503641
C32	C	0.971809	-0.884496	-0.573402
C33	C	0.962317	-0.925335	-0.478047
C34	C	1.027726	-0.829878	-0.503655
C35	C	1.037254	-0.936122	-0.599021
C36	C	1.027794	-0.975865	-0.503676
C37	C	1.018203	-0.869626	-0.408248
C38	C	1.093166	-0.880414	-0.529287
C39	C	1.083706	-0.921225	-0.433866
C40	C	1.027686	-0.745779	-0.503643
C41	C	1.027835	-1.059962	-0.503676
C42	C	1.221416	-0.403279	-0.503684
C43	C	1.303960	-0.403293	-0.503706
C44	C	1.003147	-0.427778	-0.776188
C45	C	0.992678	-0.438231	-0.892336
C46	C	1.027822	-0.209546	-0.503671
C47	C	1.027868	-0.127002	-0.503688
C48	C	1.033168	-0.397765	-0.944140
C49	C	1.022348	-0.408568	-1.064185
C50	C	1.052231	-0.378759	-0.232134
C51	C	1.062845	-0.368097	-0.115986
H52	H	0.465979	-0.385701	-0.679763
C53	C	0.887602	-0.952097	-0.448758
H54	H	0.896580	-0.975506	-0.387101
H55	H	0.863997	-0.986772	-0.503974
H56	H	0.856137	-0.910514	-0.437113
C57	C	1.090817	-0.340153	-0.884011
H58	H	1.114812	-0.316161	-0.932079
H59	H	1.126970	-0.364756	-0.841430
H60	H	1.066226	-0.303985	-0.841440
C61	C	1.120501	-0.310485	-1.055863
H62	H	1.144497	-0.286495	-1.103933
H63	H	1.156653	-0.335092	-1.013286
H64	H	1.095915	-0.274314	-1.013289
C65	C	0.964697	-0.466182	-1.124315
H66	H	0.964992	-0.465890	-1.197110
H67	H	0.916400	-0.453717	-1.106471
H68	H	0.977143	-0.514489	-1.106472
C69	C	0.907859	-0.862412	-0.652968
H70	H	0.861425	-0.877721	-0.634588
H71	H	0.914147	-0.886107	-0.720534
H72	H	0.908547	-0.809775	-0.652847
H73	H	0.949997	-0.480869	-0.936857
H74	H	1.045287	-0.965046	-0.679663
H75	H	0.493311	-0.299954	-0.375098
C76	C	0.577213	-0.263096	-0.558672
H77	H	0.564785	-0.223387	-0.509092
H78	H	0.553535	-0.256001	-0.625947
H79	H	0.629803	-0.263799	-0.559059
H80	H	0.562695	-0.506536	-0.632391
H81	H	0.485900	-0.523957	-0.456206
C82	C	0.600447	-0.423497	-0.299308
H83	H	0.628979	-0.467733	-0.303923
H84	H	0.563988	-0.427564	-0.253572
H85	H	0.632504	-0.381852	-0.273218
C86	C	1.007257	-0.830676	-0.299281
H87	H	1.007271	-0.778106	-0.299949
H88	H	1.046781	-0.843482	-0.249701
H89	H	0.960949	-0.846402	-0.280980
H90	H	1.131028	-0.937416	-0.374823
C91	C	1.167876	-0.853661	-0.558589
H92	H	1.174549	-0.876630	-0.626391
H93	H	1.207665	-0.866891	-0.509728
H94	H	1.167500	-0.800961	-0.557746
