data_functionalizedCrystal
_audit_creation_method	'MofGen! by Chris Wilmer'
_symmetry_space_group_name_H-M	'P1'
_symmetry_Int_Tables_number	1
_symmetry_cell_setting	triclinic
loop_
_symmetry_equiv_pos_as_xyz
  x,y,z
_cell_length_a	18.101389
_cell_length_b	16.120490
_cell_length_c	16.120484
_cell_angle_alpha	90.164100
_cell_angle_beta	92.879328
_cell_angle_gamma	87.085916
loop_
_atom_site_label
_atom_site_type_symbol
_atom_site_fract_x
_atom_site_fract_y
_atom_site_fract_z
Zn1	Zn	-0.492954	1.254462	-0.395775
Zn2	Zn	-0.242954	1.504462	-0.145775
Zn3	Zn	0.007046	1.754462	0.104225
Zn4	Zn	0.257046	2.004462	0.354225
Zn5	Zn	-0.375048	1.247309	-0.534811
Zn6	Zn	-0.125048	1.497309	-0.284811
Zn7	Zn	0.124952	1.747309	-0.034811
Zn8	Zn	0.374952	1.997309	0.215189
Zn9	Zn	-0.362556	1.115405	-0.388709
Zn10	Zn	-0.112556	1.365405	-0.138709
Zn11	Zn	0.137444	1.615405	0.111291
Zn12	Zn	0.387444	1.865405	0.361291
Zn13	Zn	-0.492279	1.108314	-0.527720
Zn14	Zn	-0.242279	1.358314	-0.277720
Zn15	Zn	0.007721	1.608314	-0.027720
Zn16	Zn	0.257721	1.858314	0.222280
O17	O	-0.430709	1.181373	-0.461754
O18	O	-0.180709	1.431373	-0.211754
O19	O	0.069291	1.681373	0.038246
O20	O	0.319291	1.931373	0.288246
O21	O	-0.482824	1.369879	-0.420144
O22	O	-0.232824	1.619879	-0.170144
O23	O	0.017176	1.869879	0.079856
O24	O	0.267176	2.119879	0.329856
O25	O	-0.269757	1.229785	-0.515440
O26	O	-0.019757	1.479785	-0.265440
O27	O	0.230243	1.729785	-0.015440
O28	O	0.480243	1.979785	0.234560
O29	O	-0.374907	1.139813	-0.273282
O30	O	-0.124907	1.389813	-0.023282
O31	O	0.125093	1.639813	0.226718
O32	O	0.375093	1.889813	0.476718
O33	O	-0.396199	1.364623	-0.522293
O34	O	-0.146199	1.614623	-0.272293
O35	O	0.103801	1.864623	-0.022293
O36	O	0.353801	2.114623	0.227707
O37	O	-0.470711	1.241978	-0.278474
O38	O	-0.220711	1.491978	-0.028474
O39	O	0.029289	1.741978	0.221526
O40	O	0.279289	1.991978	0.471526
O41	O	-0.260579	1.132876	-0.408099
O42	O	-0.010579	1.382876	-0.158099
O43	O	0.239421	1.632876	0.091901
O44	O	0.489421	1.882876	0.341901
O45	O	-0.374253	0.998099	-0.401224
O46	O	-0.124253	1.248099	-0.151224
O47	O	0.125747	1.498099	0.098776
O48	O	0.375747	1.748099	0.348776
O49	O	-0.596002	1.127728	-0.510208
O50	O	-0.346002	1.377728	-0.260208
O51	O	-0.096002	1.627728	-0.010208
O52	O	0.153998	1.877728	0.239792
O53	O	-0.469560	0.992889	-0.503355
O54	O	-0.219560	1.242889	-0.253355
O55	O	0.030440	1.492889	-0.003355
O56	O	0.280440	1.742889	0.246645
O57	O	-0.596498	1.235102	-0.413268
O58	O	-0.346498	1.485102	-0.163268
O59	O	-0.096498	1.735102	0.086732
O60	O	0.153502	1.985102	0.336732
O61	O	-0.395545	1.222909	-0.650234
O62	O	-0.145545	1.472909	-0.400234
O63	O	0.104455	1.722909	-0.150234
O64	O	0.354455	1.972909	0.099766
O65	O	-0.481674	1.120791	-0.645025
O66	O	-0.231674	1.370791	-0.395025
O67	O	0.018326	1.620791	-0.145025
O68	O	0.268326	1.870791	0.104975
C69	C	-0.420478	0.965322	-0.450754
C70	C	-0.170478	1.215322	-0.200754
C71	C	0.079522	1.465322	0.049246
C72	C	0.329522	1.715322	0.299246
C73	C	-0.416120	0.872894	-0.446068
C74	C	-0.166120	1.122894	-0.196068
C75	C	0.083880	1.372894	0.053932
C76	C	0.333880	1.622894	0.303932
C77	C	-0.453318	0.659923	-0.486054
C78	C	-0.203318	0.909923	-0.236054
C79	C	0.046682	1.159923	0.013946
C80	C	0.296682	1.409923	0.263946
C81	C	-0.408162	0.703670	-0.437520
C82	C	-0.158162	0.953670	-0.187520
C83	C	0.091838	1.203670	0.062480
C84	C	0.341838	1.453670	0.312480
C85	C	-0.412591	0.797835	-0.442278
C86	C	-0.162591	1.047835	-0.192278
C87	C	0.087409	1.297835	0.057722
C88	C	0.337409	1.547835	0.307722
C89	C	-0.448889	0.565750	-0.481297
C90	C	-0.198889	0.815750	-0.231297
C91	C	0.051111	1.065750	0.018703
C92	C	0.301111	1.315750	0.268703
C93	C	-0.623873	1.181422	-0.461735
C94	C	-0.373873	1.431422	-0.211735
C95	C	-0.123873	1.681422	0.038265
C96	C	0.126127	1.931422	0.288265
C97	C	-0.706187	1.181443	-0.461727
C98	C	-0.456187	1.431443	-0.211727
C99	C	-0.206187	1.681443	0.038273
C100	C	0.043813	1.931443	0.288273
C101	C	-1.005274	1.181499	-0.461574
C102	C	-0.755274	1.431499	-0.211574
C103	C	-0.505274	1.681499	0.038426
C104	C	-0.255274	1.931499	0.288426
C105	C	-0.973618	1.113731	-0.522350
C106	C	-0.723618	1.363731	-0.272350
C107	C	-0.473618	1.613731	-0.022350
C108	C	-0.223618	1.863731	0.227650
C109	C	-0.888020	1.113890	-0.522656
C110	C	-0.638020	1.363890	-0.272656
C111	C	-0.388020	1.613890	-0.022656
C112	C	-0.138020	1.863890	0.227344
C113	C	-0.856894	1.181470	-0.461650
C114	C	-0.606894	1.431470	-0.211650
C115	C	-0.356894	1.681470	0.038350
C116	C	-0.106894	1.931470	0.288350
C117	C	-0.893148	1.267879	-0.489891
C118	C	-0.643148	1.517879	-0.239891
C119	C	-0.393148	1.767879	0.010109
C120	C	-0.143148	2.017879	0.260109
C121	C	-0.978794	1.267498	-0.490294
C122	C	-0.728794	1.517498	-0.240294
C123	C	-0.478794	1.767498	0.009706
C124	C	-0.228794	2.017498	0.259706
C125	C	-0.968886	1.163628	-0.372453
C126	C	-0.718886	1.413628	-0.122453
C127	C	-0.468886	1.663628	0.127547
C128	C	-0.218886	1.913628	0.377547
C129	C	-0.883164	1.161653	-0.372862
C130	C	-0.633164	1.411653	-0.122862
C131	C	-0.383164	1.661653	0.127138
C132	C	-0.133164	1.911653	0.377138
C133	C	-0.773035	1.181460	-0.461692
C134	C	-0.523035	1.431460	-0.211692
C135	C	-0.273035	1.681460	0.038308
C136	C	-0.023035	1.931460	0.288308
C137	C	-1.089133	1.181516	-0.461534
C138	C	-0.839133	1.431516	-0.211534
C139	C	-0.589133	1.681516	0.038466
C140	C	-0.339133	1.931516	0.288466
C141	C	-0.238297	1.181375	-0.461715
C142	C	0.011703	1.431375	-0.211715
C143	C	0.261703	1.681375	0.038285
C144	C	0.511703	1.931375	0.288285
C145	C	-0.155980	1.181527	-0.461497
C146	C	0.094020	1.431527	-0.211497
C147	C	0.344020	1.681527	0.038503
C148	C	0.594020	1.931527	0.288503
C149	C	-0.440980	1.398267	-0.472797
C150	C	-0.190980	1.648267	-0.222797
C151	C	0.059020	1.898267	0.027203
C152	C	0.309020	2.148267	0.277203
C153	C	-0.445357	1.490694	-0.477504
C154	C	-0.195357	1.740694	-0.227504
C155	C	0.054643	1.990694	0.022496
C156	C	0.304643	2.240694	0.272496
C157	C	-0.439909	1.170327	-0.677802
C158	C	-0.189909	1.420327	-0.427802
C159	C	0.060091	1.670327	-0.177802
C160	C	0.310091	1.920327	0.072198
C161	C	-0.443873	1.165678	-0.770233
C162	C	-0.193873	1.415678	-0.520233
C163	C	0.056127	1.665678	-0.270233
C164	C	0.306127	1.915678	-0.020233
C165	C	-0.451126	1.157194	-0.939465
C166	C	-0.201126	1.407194	-0.689465
C167	C	0.048874	1.657194	-0.439465
C168	C	0.298874	1.907194	-0.189465
C169	C	-0.410312	1.205700	-0.983210
C170	C	-0.160312	1.455700	-0.733210
C171	C	0.089688	1.705700	-0.483210
C172	C	0.339688	1.955700	-0.233210
C173	C	-0.414347	1.200980	-1.077376
C174	C	-0.164347	1.450980	-0.827376
C175	C	0.085653	1.700980	-0.577376
C176	C	0.335653	1.950980	-0.327376
C177	C	-0.447091	1.161913	-0.845290
C178	C	-0.197091	1.411913	-0.595290
C179	C	0.052909	1.661913	-0.345290
C180	C	0.302909	1.911913	-0.095290
C181	C	-0.421491	1.192484	-0.244863
C182	C	-0.171491	1.442484	0.005137
C183	C	0.078509	1.692484	0.255137
C184	C	0.328509	1.942484	0.505137
C185	C	-0.417562	1.197219	-0.152437
C186	C	-0.167562	1.447219	0.097563
C187	C	0.082438	1.697219	0.347563
C188	C	0.332438	1.947219	0.597563
H189	H	-0.366177	0.670404	-0.392397
H190	H	-0.116177	0.920404	-0.142397
H191	H	0.133823	1.170404	0.107603
H192	H	0.383823	1.420404	0.357603
H193	H	-1.002419	1.283168	-0.555575
H194	H	-0.752419	1.533168	-0.305575
H195	H	-0.502419	1.783168	-0.055575
H196	H	-0.252419	2.033168	0.194425
H197	H	-0.489095	1.112125	-0.972733
H198	H	-0.239095	1.362125	-0.722733
H199	H	0.010905	1.612125	-0.472733
H200	H	0.260905	1.862125	-0.222733
H201	H	-0.495299	0.693187	-0.531174
H202	H	-0.245299	0.943187	-0.281174
H203	H	0.004701	1.193187	-0.031174
H204	H	0.254701	1.443187	0.218826
H205	H	-0.999972	1.319463	-0.448190
H206	H	-0.749972	1.569463	-0.198190
H207	H	-0.499972	1.819463	0.051810
H208	H	-0.249972	2.069463	0.301810
H209	H	-0.863287	1.049676	-0.504468
H210	H	-0.613287	1.299676	-0.254468
H211	H	-0.363287	1.549676	-0.004468
H212	H	-0.113287	1.799676	0.245532
H213	H	-0.990500	1.049313	-0.504304
H214	H	-0.740500	1.299313	-0.254304
H215	H	-0.490500	1.549313	-0.004304
H216	H	-0.240500	1.799313	0.245696
H217	H	-0.998601	1.125043	-0.587912
H218	H	-0.748601	1.375043	-0.337912
H219	H	-0.498601	1.625043	-0.087912
H220	H	-0.248601	1.875043	0.162088
H221	H	-0.871020	1.125328	-0.588623
H222	H	-0.621020	1.375328	-0.338623
H223	H	-0.371020	1.625328	-0.088623
H224	H	-0.121020	1.875328	0.161377
C225	C	-0.359006	1.266585	-0.938265
C226	C	-0.109006	1.516585	-0.688265
C227	C	0.140994	1.766585	-0.438265
C228	C	0.390994	2.016585	-0.188265
N229	N	-0.320361	1.312439	-0.904409
N230	N	-0.070361	1.562439	-0.654409
N231	N	0.179639	1.812439	-0.404409
N232	N	0.429639	2.062439	-0.154409
H233	H	-0.873200	1.319534	-0.447211
H234	H	-0.623200	1.569534	-0.197211
H235	H	-0.373200	1.819534	0.052789
H236	H	-0.123200	2.069534	0.302789
C237	C	-0.869087	1.289536	-0.577185
C238	C	-0.619087	1.539536	-0.327185
C239	C	-0.369087	1.789536	-0.077185
C240	C	-0.119087	2.039536	0.172815
N241	N	-0.850966	1.305843	-0.642938
N242	N	-0.600966	1.555843	-0.392938
N243	N	-0.350966	1.805843	-0.142938
N244	N	-0.100966	2.055843	0.107062
C245	C	-0.992787	1.080296	-0.338867
C246	C	-0.742787	1.330296	-0.088867
C247	C	-0.492787	1.580296	0.161133
C248	C	-0.242787	1.830296	0.411133
N249	N	-1.010790	1.017525	-0.313581
N250	N	-0.760790	1.267525	-0.063581
N251	N	-0.510790	1.517525	0.186419
N252	N	-0.260790	1.767525	0.436419
H253	H	-0.859025	1.098086	-0.351646
H254	H	-0.609025	1.348086	-0.101646
H255	H	-0.359025	1.598086	0.148354
H256	H	-0.109025	1.848086	0.398354
H257	H	-0.861688	1.207765	-0.324818
H258	H	-0.611688	1.457765	-0.074818
H259	H	-0.361688	1.707765	0.175182
H260	H	-0.111688	1.957765	0.425182
H261	H	-0.989339	1.213041	-0.327117
H262	H	-0.739339	1.463041	-0.077117
H263	H	-0.489339	1.713041	0.172883
H264	H	-0.239339	1.963041	0.422883
