data_functionalizedCrystal
_audit_creation_method	'MofGen! by Chris Wilmer'
_symmetry_space_group_name_H-M	'P1'
_symmetry_Int_Tables_number	1
_symmetry_cell_setting	triclinic
loop_
_symmetry_equiv_pos_as_xyz
  x,y,z
_cell_length_a	14.971486
_cell_length_b	11.792254
_cell_length_c	14.048226
_cell_angle_alpha	89.993407
_cell_angle_beta	89.998499
_cell_angle_gamma	83.906363
loop_
_atom_site_label
_atom_site_type_symbol
_atom_site_fract_x
_atom_site_fract_y
_atom_site_fract_z
O1	O	1.187545	0.147908	-0.079052
O2	O	0.927216	0.165621	-0.079077
O3	O	1.063692	-0.008446	-0.079057
O4	O	1.051069	0.321975	-0.079072
O5	O	1.063676	-0.008456	0.079264
O6	O	0.927200	0.165610	0.079244
O7	O	1.187528	0.147898	0.079270
Zn8	Zn	1.057361	0.156753	0.104394
Zn9	Zn	1.057383	0.156766	-0.104201
O10	O	1.051053	0.321964	0.079249
C11	C	0.893880	0.164823	0.000080
C12	C	0.794574	0.162450	0.000070
C13	C	0.737762	0.264709	0.000067
C14	C	0.644453	0.262472	0.000081
C15	C	0.607958	0.157974	0.000092
C16	C	0.664778	0.055707	0.000098
C17	C	0.758084	0.057945	0.000091
C18	C	0.470296	0.051049	0.000111
C19	C	0.376983	0.048810	0.000117
C20	C	0.356665	0.255575	0.000102
C21	C	0.449972	0.257814	0.000095
C22	C	0.506785	0.155546	0.000099
C23	C	1.062889	-0.050737	0.000103
C24	C	1.060509	-0.176734	0.000102
C25	C	1.058575	-0.279058	0.000098
C26	C	1.056157	-0.407429	0.000089
C27	C	1.220865	0.148695	0.000110
C28	C	1.320171	0.151069	0.000114
C29	C	1.051856	0.364255	0.000087
C30	C	1.054236	0.490253	0.000082
N31	N	1.057353	0.156743	0.246754
N32	N	1.057399	0.156767	-0.246562
C33	C	1.117804	0.079698	0.296581
C34	C	1.117810	0.079697	0.396239
C35	C	1.057369	0.156748	0.446068
C36	C	0.996912	0.233796	0.396234
C37	C	0.996902	0.233790	0.296578
C38	C	0.996937	0.233804	0.603948
C39	C	0.996948	0.233812	0.703611
C40	C	1.117845	0.079711	0.703609
C41	C	1.117836	0.079705	0.603953
C42	C	1.057379	0.156756	0.554126
H43	H	0.804340	-0.025325	0.000093
C44	C	0.581964	0.374957	0.000075
H45	H	0.617062	0.437512	0.000055
H46	H	0.545146	0.378385	0.055288
H47	H	0.545139	0.378381	-0.055139
H48	H	1.167033	0.016961	0.436808
C49	C	0.930399	0.318518	0.451038
H50	H	0.894382	0.364386	0.407087
H51	H	0.962778	0.365850	0.489918
H52	H	0.892982	0.277572	0.489909
H53	H	0.767468	0.349803	0.000058
H54	H	0.947676	0.296527	0.256010
H55	H	1.167055	0.016971	0.563383
H56	H	0.479682	0.342905	0.000077
C57	C	1.184295	-0.005048	0.241774
H58	H	1.175641	0.005989	0.175286
H59	H	1.174223	-0.080820	0.258115
H60	H	1.244049	0.007420	0.258101
H61	H	1.167071	0.016974	0.744184
C62	C	0.624640	-0.059241	0.000109
H63	H	0.671842	-0.119823	0.000118
H64	H	0.588662	-0.064410	-0.055099
H65	H	0.588666	-0.064415	0.055328
C66	C	0.294175	0.368067	0.000100
H67	H	0.233378	0.351772	0.000117
H68	H	0.305289	0.410910	-0.055116
H69	H	0.305297	0.410911	0.055311
C70	C	0.336840	-0.066134	0.000134
H71	H	0.384037	-0.126721	0.000149
H72	H	0.300862	-0.071306	-0.055073
H73	H	0.300864	-0.071297	0.055354
C74	C	0.930408	0.318493	0.758421
H75	H	0.894376	0.364349	0.714475
H76	H	0.962758	0.365840	0.797316
H77	H	0.893007	0.277504	0.797278
H78	H	0.516551	-0.032229	0.000116
H79	H	0.947704	0.296543	0.563382
