data_functionalizedCrystal
_audit_creation_method	'MofGen! by Chris Wilmer'
_symmetry_space_group_name_H-M	'P1'
_symmetry_Int_Tables_number	1
_symmetry_cell_setting	triclinic
loop_
_symmetry_equiv_pos_as_xyz
  x,y,z
_cell_length_a	17.699077
_cell_length_b	14.044220
_cell_length_c	13.101039
_cell_angle_alpha	93.667477
_cell_angle_beta	86.649861
_cell_angle_gamma	88.234727
loop_
_atom_site_label
_atom_site_type_symbol
_atom_site_fract_x
_atom_site_fract_y
_atom_site_fract_z
O1	O	1.016154	0.114581	-0.085204
O2	O	1.516154	0.614581	0.414796
O3	O	0.796851	0.130179	-0.085209
O4	O	1.296851	0.630179	0.414791
O5	O	0.903210	-0.015596	-0.085196
O6	O	1.403210	0.484404	0.414804
O7	O	0.909794	0.260356	-0.085216
O8	O	1.409794	0.760356	0.414784
O9	O	0.895580	-0.005120	0.085233
O10	O	1.395580	0.494880	0.585233
O11	O	0.789221	0.140656	0.085220
O12	O	1.289221	0.640656	0.585220
O13	O	1.008524	0.125057	0.085225
O14	O	1.508524	0.625057	0.585225
Zn15	Zn	0.897661	0.134520	0.112282
Zn16	Zn	1.397661	0.634520	0.612282
Zn17	Zn	0.907714	0.120717	-0.112266
Zn18	Zn	1.407714	0.620717	0.387734
O19	O	0.902164	0.270833	0.085213
O20	O	1.402164	0.770833	0.585213
C21	C	0.764800	0.134860	0.000005
C22	C	1.264800	0.634860	0.500005
C23	C	0.680667	0.133186	0.000003
C24	C	1.180667	0.633186	0.500003
C25	C	0.636986	0.138108	0.092905
C26	C	1.136986	0.638108	0.592905
C27	C	0.557933	0.136520	0.092906
C28	C	1.057933	0.636520	0.592906
C29	C	0.522564	0.130016	0.000005
C30	C	1.022564	0.630016	0.500005
C31	C	0.566250	0.125091	-0.092905
C32	C	1.066250	0.625091	0.407095
C33	C	0.645301	0.126672	-0.092905
C34	C	1.145301	0.626672	0.407095
C35	C	0.247447	0.118713	-0.092906
C36	C	0.747447	0.618713	0.407094
C37	C	0.168390	0.117135	-0.092899
C38	C	0.668390	0.617135	0.407101
C39	C	0.160079	0.128561	0.092905
C40	C	0.660079	0.628561	0.592905
C41	C	0.239130	0.130142	0.092905
C42	C	0.739130	0.630142	0.592905
C43	C	0.282810	0.125211	-0.000004
C44	C	0.782810	0.625211	0.499996
C45	C	0.368528	0.126931	-0.000004
C46	C	0.868528	0.626931	0.499996
C47	C	0.436847	0.128303	0.000004
C48	C	0.936847	0.628303	0.500004
C49	C	0.896513	-0.045666	0.000019
C50	C	1.396513	0.454334	0.500019
C51	C	0.887917	-0.150871	0.000020
C52	C	1.387917	0.349129	0.500020
C53	C	0.872203	-0.343497	0.000005
C54	C	1.372203	0.156503	0.500005
C55	C	0.933169	-0.401272	0.000003
C56	C	1.433169	0.098728	0.500003
C57	C	0.924425	-0.508456	-0.000006
C58	C	1.424425	-0.008456	0.499994
C59	C	0.880945	-0.236303	0.000013
C60	C	1.380945	0.263697	0.500013
C61	C	1.040574	0.120377	0.000009
C62	C	1.540574	0.620377	0.500009
C63	C	1.124708	0.122051	0.000004
C64	C	1.624708	0.622051	0.500004
C65	C	0.908861	0.300902	-0.000004
C66	C	1.408861	0.800902	0.499996
C67	C	0.917458	0.406108	-0.000012
C68	C	1.417458	0.906108	0.499988
N69	N	0.890805	0.143940	0.265530
N70	N	1.390805	0.643940	0.765530
N71	N	0.914574	0.111289	-0.265513
N72	N	1.414574	0.611289	0.234487
C73	C	0.881479	0.156764	0.474571
C74	C	1.381479	0.656764	0.974571
C75	C	0.923898	0.098468	0.525452
C76	C	1.423898	0.598468	1.025452
C77	C	0.918709	0.105604	0.641770
C78	C	1.418709	0.605604	1.141770
C79	C	0.886667	0.149630	0.358243
C80	C	1.386667	0.649630	0.858243
H81	H	0.522372	0.140512	0.168556
H82	H	1.022372	0.640512	0.668556
H83	H	0.813446	-0.374530	0.000001
H84	H	1.313446	0.125470	0.500001
H85	H	0.841269	0.212029	0.518363
H86	H	1.341269	0.712029	1.018363
H87	H	0.665777	0.143411	0.168557
H88	H	1.165777	0.643411	0.668557
H89	H	0.267924	0.135442	0.168555
H90	H	0.767924	0.635442	0.668555
H91	H	0.124505	0.132571	0.168556
H92	H	0.624505	0.632571	0.668556
H93	H	0.964113	0.043201	0.481654
H94	H	1.464113	0.543201	0.981654
H95	H	0.139595	0.111839	-0.168555
H96	H	0.639595	0.611839	0.331445
H97	H	0.991933	-0.370242	-0.000064
H98	H	1.491933	0.129758	0.499936
H99	H	0.283002	0.114696	-0.168558
H100	H	0.783002	0.614696	0.331442
H101	H	0.537446	0.119789	-0.168547
H102	H	1.037446	0.619789	0.331453
H103	H	0.680866	0.122666	-0.168555
H104	H	1.180866	0.622666	0.331445
