data_functionalizedCrystal
_audit_creation_method	'MofGen! by Chris Wilmer'
_symmetry_space_group_name_H-M	'P1'
_symmetry_Int_Tables_number	1
_symmetry_cell_setting	triclinic
loop_
_symmetry_equiv_pos_as_xyz
  x,y,z
_cell_length_a	12.811457
_cell_length_b	12.837942
_cell_length_c	16.053802
_cell_angle_alpha	92.838962
_cell_angle_beta	92.831403
_cell_angle_gamma	89.411937
loop_
_atom_site_label
_atom_site_type_symbol
_atom_site_fract_x
_atom_site_fract_y
_atom_site_fract_z
O1	O	1.404505	0.141985	0.036916
O2	O	1.904505	0.641985	0.536916
O3	O	1.101762	0.155741	0.013991
O4	O	1.601762	0.655741	0.513991
O5	O	1.246420	-0.002100	0.024950
O6	O	1.746420	0.497900	0.524950
O7	O	1.259846	0.299826	0.025957
O8	O	1.759846	0.799826	0.525957
O9	O	1.238454	0.006551	0.163206
O10	O	1.738454	0.506551	0.663206
O11	O	1.093796	0.164393	0.152247
O12	O	1.593796	0.664393	0.652247
O13	O	1.396539	0.150637	0.175171
O14	O	1.896539	0.650637	0.675171
Zn15	Zn	1.243902	0.158888	0.185660
Zn16	Zn	1.743902	0.658888	0.685660
Zn17	Zn	1.254398	0.147489	0.003502
Zn18	Zn	1.754398	0.647489	0.503502
O19	O	1.251880	0.308478	0.164212
O20	O	1.751880	0.808478	0.664212
C21	C	1.058760	0.159031	0.080164
C22	C	1.558760	0.659031	0.580164
C23	C	0.942495	0.155932	0.071361
C24	C	1.442495	0.655932	0.571361
C25	C	0.715334	0.159522	0.205560
C26	C	1.215334	0.659522	0.705560
C27	C	0.606093	0.156610	0.197293
C28	C	1.106093	0.656610	0.697293
C29	C	0.614769	0.147189	0.046558
C30	C	1.114769	0.647189	0.546558
C31	C	0.724010	0.150101	0.054826
C32	C	1.224010	0.650101	0.554826
C33	C	0.774289	0.156269	0.134330
C34	C	1.274289	0.656269	0.634330
C35	C	0.883532	0.159188	0.142597
C36	C	1.383532	0.659188	0.642597
C37	C	0.892206	0.149759	-0.008137
C38	C	1.392206	0.649759	0.491863
C39	C	0.782965	0.146847	-0.016405
C40	C	1.282965	0.646847	0.483595
C41	C	1.237901	-0.036436	0.093734
C42	C	1.737901	0.463564	0.593734
C43	C	1.224375	-0.151636	0.092708
C44	C	1.724375	0.348364	0.592708
C45	C	1.386995	-0.391121	0.105005
C46	C	1.886995	0.108879	0.605005
C47	C	1.374290	-0.499362	0.104042
C48	C	1.874290	0.000638	0.604042
C49	C	1.186261	-0.476362	0.089812
C50	C	1.686261	0.023638	0.589812
C51	C	1.198966	-0.368121	0.090776
C52	C	1.698966	0.131879	0.590776
C53	C	1.299336	-0.325505	0.098374
C54	C	1.799336	0.174495	0.598374
C55	C	1.312040	-0.217261	0.099343
C56	C	1.812040	0.282739	0.599343
C57	C	1.124012	-0.194263	0.085108
C58	C	1.624012	0.305737	0.585108
C59	C	1.111307	-0.302504	0.084144
C60	C	1.611307	0.197496	0.584144
C61	C	1.439541	0.147347	0.108996
C62	C	1.939541	0.647347	0.608996
C63	C	1.555806	0.150445	0.117794
C64	C	2.055806	0.650445	0.617794
C65	C	1.260399	0.342814	0.095426
C66	C	1.760399	0.842814	0.595426
C67	C	1.273926	0.458013	0.096447
C68	C	1.773926	0.958013	0.596447
N69	N	1.236747	0.166668	0.309978
N70	N	1.736747	0.666668	0.809978
N71	N	1.261561	0.139702	-0.120815
N72	N	1.761561	0.639702	0.379185
C73	C	1.298327	0.099530	0.358337
C74	C	1.798327	0.599530	0.858337
C75	C	1.293332	0.104982	0.445366
C76	C	1.793332	0.604982	0.945366
C77	C	1.226763	0.177576	0.484034
C78	C	1.726763	0.677576	0.984034
C79	C	1.165176	0.244717	0.435668
C80	C	1.665176	0.744717	0.935668
C81	C	1.170166	0.239259	0.348641
C82	C	1.670166	0.739259	0.848641
C83	C	1.204964	0.201385	0.743792
C84	C	1.704964	0.701385	1.243792
C85	C	1.199981	0.206839	0.830826
C86	C	1.699981	0.706839	1.330826
C87	C	1.328136	0.067102	0.840517
C88	C	1.828136	0.567102	1.340517
C89	C	1.333125	0.061656	0.753488
C90	C	1.833125	0.561656	1.253488
C91	C	1.271534	0.128792	0.705130
C92	C	1.771534	0.628792	1.205130
N93	N	1.221658	0.183153	0.572991
N94	N	1.721658	0.683153	1.072991
N95	N	1.276634	0.123210	0.616174
N96	N	1.776634	0.623210	1.116174
H97	H	0.742013	0.141820	-0.081134
H98	H	1.242013	0.641820	0.418866
C99	C	1.027581	-0.122075	0.077813
C100	C	1.527581	0.377925	0.577813
N101	N	0.954951	-0.067702	0.072321
N102	N	1.454951	0.432298	0.572321
H103	H	1.445672	-0.552785	0.109439
H104	H	1.945672	-0.052785	0.609439
C105	C	0.957066	0.146181	-0.086496
C106	C	1.457066	0.646181	0.413504
N107	N	1.005919	0.143489	-0.145514
N108	N	1.505919	0.643489	0.354486
H109	H	1.343474	0.050313	0.484739
H110	H	1.843474	0.550313	0.984739
C111	C	1.422448	-0.170385	0.107698
C112	C	1.922448	0.329615	0.607698
N113	N	1.505611	-0.135082	0.113987
N114	N	2.005611	0.364918	0.613987
H115	H	1.468720	-0.356422	0.111200
H116	H	1.968720	0.143578	0.611200
H117	H	0.558095	0.159265	0.255296
H118	H	1.058095	0.659265	0.755296
C119	C	1.000905	-0.349394	0.075797
C120	C	1.500905	0.150606	0.575797
N121	N	0.917747	-0.384710	0.069515
N122	N	1.417747	0.115290	0.569515
H123	H	1.352539	0.040420	0.326860
H124	H	1.852539	0.540420	0.826860
H125	H	1.387331	0.002544	0.722007
H126	H	1.887331	0.502544	1.222007
H127	H	1.104545	-0.511080	0.083618
H128	H	1.604545	-0.011080	0.583618
C129	C	1.395872	-0.006751	0.893717
C130	C	1.895872	0.493249	1.393717
N131	N	1.446889	-0.062384	0.933788
N132	N	1.946889	0.437616	1.433788
C133	C	1.126743	0.286699	0.873358
C134	C	1.626743	0.786699	1.373358
N135	N	1.071584	0.346847	0.905394
N136	N	1.571584	0.846847	1.405394
H137	H	1.154816	0.256052	0.704425
H138	H	1.654816	0.756052	1.204425
C139	C	0.770643	0.166314	0.293014
C140	C	1.270643	0.666314	0.793014
N141	N	0.812300	0.171428	0.358886
N142	N	1.312300	0.671428	0.858886
H143	H	1.120020	0.293928	0.309267
H144	H	1.620020	0.793928	0.809267
C145	C	1.091938	0.324562	0.478205
C146	C	1.591938	0.824562	0.978205
N147	N	1.036774	0.384703	0.510243
N148	N	1.536774	0.884703	1.010243
H149	H	0.924467	0.164217	0.207333
H150	H	1.424467	0.664217	0.707333
H151	H	0.573813	0.142149	-0.018170
H152	H	1.073813	0.642149	0.481830
