data_functionalizedCrystal
_audit_creation_method	'MofGen! by Chris Wilmer'
_symmetry_space_group_name_H-M	'P1'
_symmetry_Int_Tables_number	1
_symmetry_cell_setting	triclinic
loop_
_symmetry_equiv_pos_as_xyz
  x,y,z
_cell_length_a	27.354012
_cell_length_b	27.353283
_cell_length_c	27.349551
_cell_angle_alpha	60.005606
_cell_angle_beta	60.011434
_cell_angle_gamma	59.993282
loop_
_atom_site_label
_atom_site_type_symbol
_atom_site_fract_x
_atom_site_fract_y
_atom_site_fract_z
O1	O	0.067635	-0.714267	0.597330
O2	O	0.567635	-0.214267	1.097330
O3	O	0.025429	-0.556105	0.481282
O4	O	0.525429	-0.056105	0.981282
O5	O	0.125575	-0.656186	0.481214
O6	O	0.625575	-0.156186	0.981214
O7	O	-0.032512	-0.614186	0.597397
O8	O	0.467488	-0.114186	1.097397
O9	O	0.158797	-0.622968	0.514367
O10	O	0.658797	-0.122968	1.014367
O11	O	0.058650	-0.522887	0.514434
O12	O	0.558650	-0.022887	1.014434
O13	O	0.100856	-0.681048	0.630482
O14	O	0.600856	-0.181048	1.130482
Zn15	Zn	0.085028	-0.596693	0.577722
Zn16	Zn	0.585028	-0.096693	1.077722
Zn17	Zn	0.041257	-0.640460	0.534042
Zn18	Zn	0.541257	-0.140460	1.034042
O19	O	0.000709	-0.580967	0.630549
O20	O	0.500709	-0.080967	1.130549
N21	N	0.114901	-0.566828	0.607534
N22	N	0.614901	-0.066828	1.107534
N23	N	0.011389	-0.670331	0.504229
N24	N	0.511389	-0.170331	1.004229
C25	C	0.179404	-0.338196	0.672015
C26	C	0.679404	0.161804	1.172015
C27	C	0.179501	-0.502386	0.836160
C28	C	0.679501	-0.002386	1.336160
C29	C	0.179415	-0.502363	0.671996
C30	C	0.679415	-0.002363	1.171996
C31	C	0.343611	-0.502373	0.671960
C32	C	0.843611	-0.002373	1.171960
C33	C	0.197478	-0.392371	0.690061
C34	C	0.697478	0.107629	1.190061
C35	C	0.197534	-0.484321	0.781984
C36	C	0.697534	0.015679	1.281984
C37	C	0.289434	-0.484312	0.690032
C38	C	0.789434	0.015688	1.190032
C39	C	0.197486	-0.484308	0.690051
C40	C	0.697486	0.015692	1.190051
C41	C	0.156398	-0.269238	0.649045
C42	C	0.656398	0.230762	1.149045
C43	C	0.156418	-0.525342	0.649015
C44	C	0.656418	-0.025342	1.149015
C45	C	0.220484	-0.461329	0.713032
C46	C	0.720484	0.038671	1.213032
C47	C	0.443889	-0.485097	0.619172
C48	C	0.943889	0.014903	1.119172
C49	C	0.506571	-0.505993	0.598266
C50	C	1.006571	-0.005993	1.098266
C51	C	0.506589	-0.607412	0.636940
C52	C	1.006589	-0.107412	1.136940
C53	C	0.443909	-0.586515	0.657848
C54	C	0.943909	-0.086515	1.157848
C55	C	0.171510	-0.237888	0.587422
C56	C	0.671510	0.262112	1.087422
C57	C	0.150593	-0.175201	0.566543
C58	C	0.650593	0.324799	1.066543
C59	C	0.099458	-0.175218	0.668913
C60	C	0.599458	0.324782	1.168913
C61	C	0.120375	-0.237905	0.689792
C62	C	0.620375	0.262095	1.189792
C63	C	0.094789	-0.510201	0.664176
C64	C	0.594789	-0.010201	1.164176
C65	C	0.073888	-0.531091	0.643278
C66	C	0.573888	-0.031091	1.143278
C67	C	0.176239	-0.582263	0.592072
C68	C	0.676239	-0.082263	1.092072
C69	C	0.197142	-0.561373	0.612963
C70	C	0.697142	-0.061373	1.112963
C71	C	0.094933	-0.510244	0.936476
C72	C	0.594933	-0.010244	1.436476
C73	C	0.074073	-0.531151	0.999161
C74	C	0.574073	-0.031151	1.499161
C75	C	0.176453	-0.582335	0.999126
C76	C	0.676453	-0.082335	1.499126
C77	C	0.197312	-0.561429	0.936439
C78	C	0.697312	-0.061429	1.436439
C79	C	0.156551	-0.525382	0.905116
C80	C	0.656551	-0.025382	1.405116
C81	C	0.412561	-0.525357	0.648961
C82	C	0.912561	-0.025357	1.148961
C83	C	-0.098513	-0.688235	0.485867
C84	C	0.401487	-0.188235	0.985867
C85	C	-0.006461	-0.688368	0.394066
C86	C	0.493539	-0.188368	0.894066
C87	C	-0.006645	-0.780264	0.486040
C88	C	0.493355	-0.280264	0.986040
C89	C	-0.006630	-0.688361	0.486097
C90	C	0.493370	-0.188361	0.986097
C91	C	-0.029562	-0.711308	0.463018
C92	C	0.470438	-0.211308	0.963018
N93	N	0.537030	-0.566846	0.607436
N94	N	1.037030	-0.066846	1.107436
O95	O	0.741877	-0.576849	0.459995
O96	O	1.241877	-0.076849	0.959995
O97	O	0.742050	-0.693241	0.618010
O98	O	1.242050	-0.193241	1.118010
O99	O	0.741986	-0.692977	0.517791
O100	O	1.241986	-0.192977	1.017791
O101	O	0.741941	-0.577114	0.560214
O102	O	1.241941	-0.077114	1.060214
O103	O	0.642405	-0.659839	0.551046
O104	O	1.142405	-0.159839	1.051046
O105	O	0.642469	-0.660104	0.651265
O106	O	1.142469	-0.160104	1.151265
O107	O	0.642296	-0.543712	0.493251
O108	O	1.142296	-0.043712	0.993251
Zn109	Zn	0.626572	-0.596646	0.577538
Zn110	Zn	1.126572	-0.096646	1.077538
Zn111	Zn	0.757774	-0.640307	0.533723
Zn112	Zn	1.257774	-0.140307	1.033723
O113	O	0.642360	-0.543976	0.593469
O114	O	1.142360	-0.043976	1.093469
N115	N	0.847316	-0.670107	0.503818
N116	N	1.347316	-0.170107	1.003818
N117	N	0.114877	-0.144758	0.607577
N118	N	0.614877	0.355242	1.107577
O119	O	-0.032498	0.060193	0.597441
O120	O	0.467502	0.560193	1.097441
O121	O	0.125523	0.060193	0.481067
O122	O	0.625523	0.560193	0.981067
O123	O	0.025289	0.060179	0.481345
O124	O	0.525289	0.560179	0.981345
O125	O	0.067736	0.060207	0.597163
O126	O	0.567736	0.560207	1.097163
O127	O	0.058511	-0.039410	0.514543
O128	O	0.558511	0.460590	1.014543
O129	O	0.158745	-0.039397	0.514265
O130	O	0.658745	0.460603	1.014265
O131	O	0.000724	-0.039396	0.630638
O132	O	0.500724	0.460604	1.130638
Zn133	Zn	0.085009	-0.055208	0.577722
Zn134	Zn	0.585009	0.444792	1.077722
Zn135	Zn	0.041238	0.076005	0.533983
Zn136	Zn	0.541238	0.576005	1.033983
O137	O	0.100958	-0.039382	0.630360
O138	O	0.600958	0.460618	1.130360
N139	N	0.011362	0.165555	0.504130
N140	N	0.511362	0.665555	1.004130
N141	N	0.115121	-0.566884	1.029592
N142	N	0.615121	-0.066884	1.529592
O143	O	0.104990	-0.714248	1.234528
O144	O	0.604990	-0.214248	1.734528
O145	O	-0.011371	-0.556177	1.234539
O146	O	0.488629	-0.056177	1.734539
O147	O	-0.011103	-0.656395	1.234497
O148	O	0.488897	-0.156395	1.734497
O149	O	0.104722	-0.614030	1.234569
O150	O	0.604722	-0.114030	1.734569
O151	O	0.022090	-0.623190	1.134913
O152	O	0.522090	-0.123190	1.634913
O153	O	0.021822	-0.522972	1.134954
O154	O	0.521822	-0.022972	1.634954
O155	O	0.138182	-0.681044	1.134943
O156	O	0.638182	-0.181044	1.634943
Zn157	Zn	0.085272	-0.596736	1.119137
Zn158	Zn	0.585272	-0.096736	1.619137
Zn159	Zn	0.041539	-0.640484	1.250344
Zn160	Zn	0.541539	-0.140484	1.750344
O161	O	0.137914	-0.580826	1.134984
O162	O	0.637914	-0.080826	1.634984
N163	N	0.011689	-0.670343	1.339890
N164	N	0.511689	-0.170343	1.839890
C165	C	0.038085	-0.519567	0.481870
C166	C	0.538085	-0.019567	0.981870
C167	C	0.162104	-0.643505	0.481786
C168	C	0.662104	-0.143505	0.981786
C169	C	0.088200	-0.717587	0.629893
C170	C	0.588200	-0.217587	1.129893
C171	C	-0.035819	-0.593649	0.629977
C172	C	0.464181	-0.093649	1.129977
C173	C	0.692280	-0.692701	0.654545
C174	C	1.192280	-0.192701	1.154545
C175	C	0.692203	-0.692374	0.530435
C176	C	1.192203	-0.192374	1.030435
C177	C	0.692063	-0.544251	0.456717
C178	C	1.192063	-0.044251	0.956717
C179	C	0.692144	-0.544580	0.580825
C180	C	1.192144	-0.044580	1.080825
C181	C	0.162000	0.010521	0.481600
C182	C	0.662000	0.510521	0.981600
C183	C	0.037914	0.010381	0.481984
C184	C	0.537914	0.510381	0.981984
C185	C	-0.035795	0.010399	0.630065
C186	C	0.464205	0.510399	1.130065
C187	C	0.088333	0.010415	0.629722
C188	C	0.588333	0.510415	1.129722
C189	C	-0.010799	-0.519660	1.184747
C190	C	0.489201	-0.019660	1.684747
C191	C	-0.010461	-0.643761	1.184677
C192	C	0.489539	-0.143761	1.684677
C193	C	0.137610	-0.717561	1.184734
C194	C	0.637610	-0.217561	1.684734
C195	C	0.137280	-0.593452	1.184783
C196	C	0.637280	-0.093452	1.684783
H197	H	0.023897	-0.518815	1.024687
H198	H	0.523897	-0.018815	1.524687
O199	O	0.692049	-0.501082	0.591604
O200	O	1.192049	-0.001082	1.091604
C201	C	0.640434	-0.450613	0.585003
C202	C	1.140434	0.049387	1.085003
H203	H	0.623216	-0.451092	0.554983
H204	H	1.123216	0.048908	1.054983
H205	H	0.651998	-0.408100	0.563879
H206	H	1.151998	0.091900	1.063879
H207	H	0.604352	-0.451835	0.630806
H208	H	1.104352	0.048165	1.130806
H209	H	0.028825	0.010378	0.445599
H210	H	0.528825	0.510378	0.945599
H211	H	-0.047330	-0.474261	1.184750
H212	H	0.452670	0.025739	1.684750
O213	O	-0.089980	0.010438	0.673576
O214	O	0.410020	0.510438	1.173576
C215	C	-0.127251	0.010418	0.652033
C216	C	0.372749	0.510418	1.152033
H217	H	-0.111044	0.029256	0.601028
H218	H	0.388956	0.529256	1.101028
H219	H	-0.175212	0.039342	0.670381
H220	H	0.324788	0.539342	1.170381
H221	H	-0.125636	-0.037360	0.667268
H222	H	0.374364	0.462640	1.167268
O223	O	0.099280	0.010386	0.673077
O224	O	0.599280	0.510386	1.173077
C225	C	0.158134	0.010401	0.651260
C226	C	0.658134	0.510401	1.151260
H227	H	0.186449	-0.008448	0.612820
H228	H	0.686449	0.491552	1.112820
H229	H	0.178297	-0.018517	0.688757
H230	H	0.678297	0.481483	1.188757
H231	H	0.157247	0.058179	0.634562
H232	H	0.657247	0.558179	1.134562
H233	H	-0.046832	-0.652809	1.184615
H234	H	0.453168	-0.152809	1.684615
O235	O	0.055254	-0.475253	0.906144
O236	O	0.555254	0.024747	1.406144
C237	C	-0.003604	-0.466362	0.947267
C238	C	0.496396	0.033638	1.447267
H239	H	-0.003465	-0.504161	0.991943
H240	H	0.496535	-0.004161	1.491943
H241	H	-0.033381	-0.466026	0.929167
H242	H	0.466619	0.033974	1.429167
H243	H	-0.021562	-0.421710	0.953945
H244	H	0.478438	0.078290	1.453945
H245	H	0.097215	-0.763020	0.666340
H246	H	0.597215	-0.263020	1.166340
O247	O	0.181122	-0.771760	1.184755
O248	O	0.681122	-0.271760	1.684755
C249	C	0.159576	-0.809009	1.184711
C250	C	0.659576	-0.309009	1.684711
H251	H	0.108574	-0.792783	1.203556
H252	H	0.608574	-0.292783	1.703556
H253	H	0.177936	-0.856981	1.213617
H254	H	0.677936	-0.356981	1.713617
H255	H	0.174797	-0.807383	1.136928
H256	H	0.674797	-0.307383	1.636928
O257	O	0.692233	-0.736281	0.708708
O258	O	1.192233	-0.236281	1.208708
C259	C	0.640694	-0.752401	0.735218
C260	C	1.140694	-0.252401	1.235218
H261	H	0.604610	-0.713953	0.715439
H262	H	1.104610	-0.213953	1.215439
H263	H	0.623420	-0.762311	0.785607
H264	H	1.123420	-0.262311	1.285607
H265	H	0.652375	-0.793972	0.726046
H266	H	1.152375	-0.293972	1.226046
H267	H	0.029071	-0.474132	0.445424
H268	H	0.529071	0.025868	0.945424
H269	H	0.692221	-0.728771	0.521355
H270	H	1.192221	-0.228771	1.021355
O271	O	0.691972	-0.500579	0.402623
O272	O	1.191972	-0.000579	0.902623
C273	C	0.691955	-0.449036	0.402644
C274	C	1.191955	0.050964	0.902644
H275	H	0.673136	-0.449759	0.450681
H276	H	1.173136	0.050241	0.950681
H277	H	0.663000	-0.407366	0.376049
H278	H	1.163000	0.092634	0.876049
H279	H	0.739715	-0.448304	0.381220
H280	H	1.239715	0.051696	0.881220
O281	O	0.216312	-0.654272	0.438331
O282	O	0.716312	-0.154272	0.938331
C283	C	0.253510	-0.713117	0.459977
C284	C	0.753510	-0.213117	0.959977
H285	H	0.237254	-0.728971	0.510980
H286	H	0.737254	-0.228971	1.010980
H287	H	0.301491	-0.713882	0.441649
H288	H	0.801491	-0.213882	0.941649
H289	H	0.251866	-0.744081	0.444805
H290	H	0.751866	-0.244081	0.944805
O291	O	0.105817	-0.268406	0.749642
O292	O	0.605817	0.231594	1.249642
C293	C	0.158514	-0.304633	0.764753
C294	C	0.658514	0.195367	1.264753
H295	H	0.197872	-0.314033	0.723436
H296	H	0.697872	0.185967	1.223436
H297	H	0.152939	-0.348711	0.801128
H298	H	0.652939	0.151289	1.301128
H299	H	0.167341	-0.280449	0.781914
H300	H	0.667341	0.219551	1.281914
H301	H	0.207290	0.010797	0.444973
H302	H	0.707290	0.510797	0.944973
H303	H	0.173667	-0.584388	1.184797
H304	H	0.673667	-0.084388	1.684797
H305	H	0.247489	-0.573760	0.910909
H306	H	0.747489	-0.073760	1.410909
O307	O	0.216130	-0.617363	1.029460
O308	O	0.716130	-0.117363	1.529460
C309	C	0.274990	-0.626229	0.988340
C310	C	0.774990	-0.126229	1.488340
H311	H	0.274853	-0.619211	0.943657
H312	H	0.774853	-0.119211	1.443657
H313	H	0.304764	-0.673775	1.006432
H314	H	0.804764	-0.173775	1.506432
H315	H	0.292947	-0.592871	0.981678
H316	H	0.792947	-0.092871	1.481678
O317	O	0.055148	-0.475181	0.699163
O318	O	0.555148	0.024819	1.199163
C319	C	-0.003728	-0.466306	0.708068
C320	C	0.496272	0.033694	1.208068
H321	H	-0.003634	-0.473303	0.670277
H322	H	0.496366	0.026697	1.170277
H323	H	-0.033492	-0.418763	0.708407
H324	H	0.466508	0.081237	1.208407
H325	H	-0.021668	-0.499673	0.752721
H326	H	0.478332	0.000327	1.252721
O327	O	-0.090011	-0.582864	0.673449
O328	O	0.409989	-0.082864	1.173449
C329	C	-0.127220	-0.524030	0.651793
C330	C	0.372780	-0.024030	1.151793
H331	H	-0.098383	-0.495600	0.613340
H332	H	0.401617	0.004400	1.113340
H333	H	-0.155906	-0.503978	0.689367
H334	H	0.344094	-0.003978	1.189367
H335	H	-0.157459	-0.524938	0.635160
H336	H	0.342541	-0.024938	1.135160
H337	H	0.209407	-0.611608	0.562721
H338	H	0.709407	-0.111608	1.062721
O339	O	0.014027	-0.516315	0.657901
O340	O	0.514027	-0.016315	1.157901
C341	C	-0.001153	-0.484757	0.605244
C342	C	0.498847	0.015243	1.105244
H343	H	0.034167	-0.463539	0.567583
H344	H	0.534167	0.036461	1.067583
H345	H	-0.046662	-0.448229	0.613524
H346	H	0.453338	0.051771	1.113524
H347	H	-0.003241	-0.516982	0.592045
H348	H	0.496759	-0.016982	1.092045
O349	O	0.257022	-0.576046	0.598130
O350	O	0.757022	-0.076046	1.098130
C351	C	0.283012	-0.554577	0.535344
C352	C	0.783012	-0.054577	1.035344
H353	H	0.253277	-0.548436	0.513419
H354	H	0.753277	-0.048436	1.013419
H355	H	0.329125	-0.588162	0.520670
H356	H	0.829125	-0.088162	1.020670
H357	H	0.287653	-0.509775	0.521173
H358	H	0.787653	-0.009775	1.021173
O359	O	0.413571	-0.625703	0.686750
O360	O	0.913571	-0.125703	1.186750
C361	C	0.454687	-0.684163	0.690117
C362	C	0.954687	-0.184163	1.190117
H363	H	0.499356	-0.681777	0.653088
H364	H	0.999356	-0.181777	1.153088
H365	H	0.436573	-0.709891	0.684445
H366	H	0.936573	-0.209891	1.184445
H367	H	0.461378	-0.708093	0.735540
H368	H	0.961378	-0.208093	1.235540
H369	H	0.532110	-0.657210	0.644171
H370	H	1.032110	-0.157210	1.144171
H371	H	0.532080	-0.473208	0.574011
H372	H	1.032080	0.026792	1.074011
H373	H	0.418366	-0.435297	0.611936
H374	H	0.918366	0.064703	1.111936
O375	O	0.206473	-0.268230	0.547758
O376	O	0.706473	0.231770	1.047758
C377	C	0.215332	-0.227116	0.488889
C378	C	0.715332	0.272884	0.988889
H379	H	0.177533	-0.182434	0.489015
H380	H	0.677533	0.317566	0.989015
H381	H	0.215645	-0.245224	0.459131
H382	H	0.715645	0.254776	0.959131
H383	H	0.259982	-0.220445	0.470917
H384	H	0.759982	0.279555	0.970917
H385	H	0.162897	-0.149674	0.516363
H386	H	0.662897	0.350326	1.016363
H387	H	0.070133	-0.149706	0.702094
H388	H	0.570133	0.350294	1.202094
