data_functionalizedCrystal
_audit_creation_method	'MofGen! by Chris Wilmer'
_symmetry_space_group_name_H-M	'P1'
_symmetry_Int_Tables_number	1
_symmetry_cell_setting	triclinic
loop_
_symmetry_equiv_pos_as_xyz
  x,y,z
_cell_length_a	14.908780
_cell_length_b	14.908520
_cell_length_c	14.908803
_cell_angle_alpha	96.379389
_cell_angle_beta	89.799140
_cell_angle_gamma	96.789949
loop_
_atom_site_label
_atom_site_type_symbol
_atom_site_fract_x
_atom_site_fract_y
_atom_site_fract_z
Zn1	Zn	-1.325825	0.317903	0.605071
Zn2	Zn	-1.325758	0.460503	0.462435
Zn3	Zn	-1.184238	0.316859	0.445984
Zn4	Zn	-1.165690	0.477939	0.604995
O5	O	-1.250378	0.393301	0.529621
O6	O	-1.452060	0.329959	0.593067
O7	O	-1.314719	0.433714	0.334013
O8	O	-1.210810	0.189906	0.460235
O9	O	-1.452010	0.434727	0.488273
O10	O	-1.314834	0.190673	0.577115
O11	O	-1.210745	0.328179	0.321927
O12	O	-1.055534	0.345087	0.460161
O13	O	-1.179198	0.464444	0.731245
O14	O	-1.041907	0.463431	0.576985
O15	O	-1.296848	0.346866	0.731301
O16	O	-1.296734	0.589907	0.488199
O17	O	-1.179133	0.602717	0.592937
C18	C	-1.015987	0.406038	0.516780
C19	C	-0.915711	0.411511	0.511309
C20	C	-0.727310	0.312869	0.610336
C21	C	-0.633092	0.318008	0.605198
C22	C	-0.633055	0.426922	0.495892
C23	C	-0.727273	0.421783	0.501029
C24	C	-0.774397	0.364756	0.558254
C25	C	-0.868617	0.359622	0.563396
C26	C	-0.868578	0.468531	0.454086
C27	C	-0.774360	0.473669	0.448948
C28	C	-1.235937	0.629265	0.542366
C29	C	-1.229840	0.730209	0.547852
C30	C	-1.235962	0.407716	0.764921
C31	C	-1.229818	0.413859	0.865192
C32	C	-0.485685	0.380506	0.542506
C33	C	-0.585961	0.375033	0.547979
C34	C	-1.264898	0.156415	0.516849
C35	C	-1.271086	0.055468	0.511406
C36	C	-1.340953	0.906492	0.449198
C37	C	-1.335228	1.001338	0.454351
C38	C	-1.212668	1.014747	0.563314
C39	C	-1.218393	0.919902	0.558161
C40	C	-1.282537	0.865777	0.501101
C41	C	-1.288258	0.770930	0.495944
C42	C	-1.165703	0.784341	0.604911
C43	C	-1.159977	0.879187	0.610064
C44	C	-1.340782	0.302948	1.053670
C45	C	-1.335013	0.308717	1.147883
C46	C	-1.212507	0.431160	1.147832
C47	C	-1.218276	0.425392	1.053619
C48	C	-1.282417	0.361284	1.006541
C49	C	-1.288190	0.355521	0.912327
C50	C	-1.165680	0.477959	0.912278
C51	C	-1.159911	0.483728	1.006491
C52	C	-1.264731	0.378963	1.295238
C53	C	-1.270879	0.372821	1.194968
H54	H	-0.594671	0.473340	0.449292
H55	H	-1.340418	0.303322	0.873997
F56	F	-0.582982	0.262781	0.660628
F57	F	-1.356522	0.713328	0.435212
F58	F	-1.144245	0.499376	1.197950
F59	F	-1.103519	0.741003	0.660143
F60	F	-0.918698	0.523761	0.398659
H61	H	-1.393013	0.250754	1.015338
F62	F	-1.397404	1.044666	0.399111
H63	H	-1.382538	0.261211	1.186251
F64	F	-1.144416	1.072365	0.624047
F65	F	-1.091717	0.936799	0.670792
H66	H	-1.107688	0.535920	1.044834
H67	H	-1.118157	0.525463	0.873896
H68	H	-0.735979	0.520096	0.402355
H69	H	-1.393176	0.862423	0.402730
H70	H	-0.765679	0.266440	0.656934
F71	F	-0.918768	0.298932	0.624301
