data_functionalizedCrystal
_audit_creation_method	'MofGen! by Chris Wilmer'
_symmetry_space_group_name_H-M	'P1'
_symmetry_Int_Tables_number	1
_symmetry_cell_setting	triclinic
loop_
_symmetry_equiv_pos_as_xyz
  x,y,z
_cell_length_a	6.817900
_cell_length_b	10.773890
_cell_length_c	14.125465
_cell_angle_alpha	96.481673
_cell_angle_beta	100.398878
_cell_angle_gamma	96.645716
loop_
_atom_site_label
_atom_site_type_symbol
_atom_site_fract_x
_atom_site_fract_y
_atom_site_fract_z
V1	V	-3.957265	-0.171528	-0.298419
O2	O	-3.981363	0.009345	-0.294351
O3	O	-3.875342	-0.341173	-0.294827
O4	O	-3.894026	-0.168406	-0.429277
O5	O	-3.962550	-0.164617	-0.158970
V6	V	-4.447159	-0.149951	-0.281928
O7	O	-4.204547	-0.218860	-0.334593
O8	O	-4.650074	-0.102619	-0.245754
O9	O	-4.305874	0.019693	-0.285520
O10	O	-4.540457	-0.330825	-0.285996
O11	O	-4.559270	-0.156862	-0.421377
O12	O	-4.287190	-0.153073	-0.151070
C13	C	-3.712668	-0.382543	-0.289719
C14	C	-3.726875	-0.521227	-0.287654
C15	C	-3.904544	-0.589077	-0.291242
C16	C	-3.919231	-0.732413	-0.289108
C17	C	-3.736501	-0.162161	-0.461223
C18	C	-3.765859	-0.160731	-0.568190
C19	C	-3.819670	-0.158108	-0.764037
C20	C	-4.004123	-0.163369	-0.816310
C21	C	-4.034066	-0.161910	-0.925286
C22	C	-3.789719	-0.159567	-0.655051
C23	C	-4.131889	0.061057	-0.290625
C24	C	-4.096920	0.199739	-0.292696
C25	C	-4.108057	-0.159323	-0.119119
C26	C	-4.057940	-0.160747	-0.012151
H27	H	-3.777985	-0.780436	-0.284462
O28	O	-3.658019	-0.151209	-0.808210
C29	C	-3.526374	-0.039281	-0.768704
H30	H	-3.613596	0.032559	-0.735383
H31	H	-3.457899	0.000826	-0.828625
H32	H	-3.401179	-0.060718	-0.710161
H33	H	-4.045780	-0.541050	-0.295899
H34	H	-4.238170	-0.752241	-0.297352
O35	O	-3.558192	-0.578343	-0.281973
C36	C	-3.420168	-0.526131	-0.195983
H37	H	-3.453191	-0.427731	-0.170877
H38	H	-3.260411	-0.519750	-0.210499
H39	H	-3.435290	-0.588690	-0.137042
O40	O	-4.165487	-0.170119	-0.771924
C41	C	-4.099206	-0.170085	-0.671419
H42	H	-3.945979	-0.204573	-0.658060
H43	H	-4.212186	-0.235396	-0.642998
H44	H	-4.085860	-0.070260	-0.631931
