data_functionalizedCrystal
_audit_creation_method	'MofGen! by Chris Wilmer'
_symmetry_space_group_name_H-M	'P1'
_symmetry_Int_Tables_number	1
_symmetry_cell_setting	triclinic
loop_
_symmetry_equiv_pos_as_xyz
  x,y,z
_cell_length_a	16.625548
_cell_length_b	12.594516
_cell_length_c	12.594509
_cell_angle_alpha	89.975348
_cell_angle_beta	89.978710
_cell_angle_gamma	90.017121
loop_
_atom_site_label
_atom_site_type_symbol
_atom_site_fract_x
_atom_site_fract_y
_atom_site_fract_z
Zn1	Zn	1.232722	-0.423696	-0.601866
Zn2	Zn	1.232639	-0.601701	-0.423893
Zn3	Zn	1.097882	-0.423741	-0.423896
Zn4	Zn	1.097869	-0.601636	-0.601825
O5	O	1.165278	-0.512694	-0.512870
O6	O	1.345543	-0.447317	-0.578274
O7	O	1.214733	-0.578140	-0.274948
O8	O	1.115809	-0.274789	-0.447522
O9	O	1.345482	-0.578097	-0.447518
O10	O	1.214876	-0.274756	-0.578276
O11	O	1.115728	-0.447393	-0.274949
O12	O	0.985048	-0.447330	-0.447482
O13	O	1.115788	-0.577986	-0.750776
O14	O	0.985039	-0.578029	-0.578205
O15	O	1.214863	-0.447254	-0.750806
O16	O	1.214721	-0.750639	-0.447478
O17	O	1.115707	-0.750591	-0.578203
C18	C	0.955787	-0.512678	-0.512840
C19	C	0.866166	-0.512697	-0.512853
C20	C	0.537991	-0.512704	-0.512898
C21	C	0.629299	-0.512700	-0.512882
C22	C	0.702075	-0.512701	-0.512874
C23	C	0.793390	-0.512695	-0.512860
C24	C	1.165225	-0.789235	-0.512859
C25	C	1.165276	-0.907540	-0.512891
C26	C	1.111417	-0.976806	-0.583942
C27	C	1.091771	-1.047669	-0.486819
C28	C	1.184996	-1.047476	-0.610030
C29	C	1.145592	-0.976845	-0.415716
C30	C	1.238850	-0.976645	-0.538993
C31	C	1.219232	-1.047477	-0.441803
C32	C	1.375587	-0.512710	-0.512900
C33	C	1.465208	-0.512716	-0.512913
C34	C	1.165333	-0.512608	-0.790491
C35	C	1.165357	-0.512571	-0.908796
C36	C	1.165353	-0.235073	-0.512904
C37	C	1.165385	-0.116767	-0.512918
C38	C	1.111503	-0.583587	-1.048797
C39	C	1.091790	-0.486523	-0.977992
C40	C	1.185034	-0.609626	-0.978030
C41	C	1.145651	-0.415322	-1.048777
C42	C	1.238929	-0.538491	-1.048821
C43	C	1.219244	-0.441359	-0.978048
C44	C	1.165270	-0.512702	-0.236329
C45	C	1.165402	-0.512439	-0.118024
H46	H	1.029602	-1.078889	-0.464764
C47	C	1.123027	-0.935116	-0.304716
C48	C	1.118770	-0.814720	-0.284201
C49	C	1.096207	-0.772989	-0.173204
C50	C	1.077901	-0.851652	-0.082722
C51	C	1.082158	-0.972055	-0.103235
C52	C	1.104721	-1.013787	-0.214232
H53	H	1.132321	-0.756482	-0.351183
H54	H	1.093056	-0.683858	-0.158019
H55	H	1.061199	-0.820760	-0.000555
H56	H	1.068607	-1.030293	-0.036252
H57	H	1.107872	-1.102917	-0.229416
C58	C	1.049912	-0.664692	-1.090775
C59	C	1.039140	-0.680177	-1.211213
C60	C	0.977548	-0.761274	-1.253193
C61	C	0.926728	-0.826887	-1.174736
C62	C	0.937499	-0.811404	-1.054291
C63	C	0.999091	-0.730306	-1.012311
H64	H	1.076761	-0.631605	-1.269298
H65	H	0.969574	-0.772736	-1.342355
H66	H	0.881134	-0.886920	-1.205813
H67	H	0.899878	-0.859976	-0.996206
H68	H	1.007064	-0.718845	-0.923149
C69	C	1.280819	-1.089160	-0.360558
C70	C	1.271764	-1.061040	-0.242175
C71	C	1.333342	-1.102733	-0.160927
C72	C	1.403975	-1.172546	-0.198060
C73	C	1.413033	-1.200669	-0.316448
C74	C	1.351455	-1.158976	-0.397697
H75	H	1.219475	-1.009358	-0.214682
H76	H	1.326637	-1.081914	-0.073288
H77	H	1.449559	-1.203410	-0.137915
H78	H	1.465323	-1.252352	-0.343942
H79	H	1.358160	-1.179795	-0.485336
H80	H	1.201631	-1.078501	-0.692169
C81	C	1.322816	-0.934460	-0.568848
C82	C	1.359785	-0.962227	-0.677466
C83	C	1.443751	-0.920039	-0.707336
C84	C	1.490749	-0.850083	-0.628586
C85	C	1.453781	-0.822313	-0.519960
C86	C	1.369815	-0.864501	-0.490091
H87	H	1.324994	-1.014015	-0.735768
H88	H	1.471116	-0.940597	-0.787748
H89	H	1.552905	-0.818853	-0.650697
H90	H	1.488572	-0.770525	-0.461659
H91	H	1.342449	-0.843943	-0.409679
C92	C	1.007766	-0.456819	-0.935952
C93	C	0.934570	-0.526352	-0.963868
C94	C	0.850544	-0.496657	-0.921833
C95	C	0.839715	-0.397427	-0.851882
C96	C	0.912914	-0.327887	-0.823963
C97	C	0.996939	-0.357583	-0.865998
H98	H	0.942584	-0.599814	-1.015652
H99	H	0.796358	-0.548135	-0.942501
H100	H	0.777515	-0.375445	-0.820766
H101	H	0.904900	-0.254426	-0.772178
H102	H	1.051125	-0.306105	-0.845330
C103	C	1.280795	-0.360066	-0.936337
C104	C	1.271749	-0.241682	-0.964523
C105	C	1.333297	-0.160388	-0.922810
C106	C	1.403890	-0.197477	-0.852912
C107	C	1.412939	-0.315866	-0.824724
C108	C	1.351392	-0.397161	-0.866436
H109	H	1.219489	-0.214222	-1.016268
H110	H	1.326598	-0.072748	-0.943678
H111	H	1.449452	-0.137297	-0.822034
H112	H	1.465200	-0.343327	-0.772978
H113	H	1.358091	-0.484801	-0.845569
C114	C	1.207499	-0.720581	-0.936047
C115	C	1.148351	-0.781826	-0.864538
C116	C	1.170809	-0.892782	-0.822559
C117	C	1.252416	-0.942493	-0.852088
C118	C	1.311569	-0.881248	-0.923601
C119	C	1.289111	-0.770291	-0.965580
H120	H	1.087937	-0.745027	-0.842676
H121	H	1.127020	-0.938119	-0.769621
H122	H	1.269040	-1.024629	-0.821013
H123	H	1.371983	-0.918046	-0.945463
H124	H	1.332900	-0.724954	-1.018518
H125	H	1.128957	-0.333164	-1.079724
H126	H	1.301111	-0.560504	-1.079956
C127	C	1.049782	-0.934872	-0.664995
C128	C	1.057877	-0.964306	-0.783178
C129	C	0.996240	-0.922370	-0.864224
C130	C	0.926508	-0.851000	-0.827087
C131	C	0.918409	-0.821562	-0.708898
C132	C	0.980046	-0.863498	-0.627852
H133	H	1.109500	-1.017142	-0.810674
H134	H	1.002235	-0.944162	-0.951715
H135	H	0.880880	-0.819956	-0.887082
H136	H	0.866786	-0.768726	-0.681402
H137	H	0.974051	-0.841705	-0.540361
