data_functionalizedCrystal
_audit_creation_method	'MofGen! by Chris Wilmer'
_symmetry_space_group_name_H-M	'P1'
_symmetry_Int_Tables_number	1
_symmetry_cell_setting	triclinic
loop_
_symmetry_equiv_pos_as_xyz
  x,y,z
_cell_length_a	14.971486
_cell_length_b	15.995292
_cell_length_c	14.048226
_cell_angle_alpha	89.996759
_cell_angle_beta	89.998499
_cell_angle_gamma	83.541372
loop_
_atom_site_label
_atom_site_type_symbol
_atom_site_fract_x
_atom_site_fract_y
_atom_site_fract_z
O1	O	1.186798	0.109119	-0.079044
O2	O	1.520131	0.442453	0.254289
O3	O	1.853465	0.775786	0.587622
O4	O	0.926380	0.122186	-0.079069
O5	O	1.259713	0.455520	0.254264
O6	O	1.593047	0.788853	0.587597
O7	O	1.063735	-0.006231	-0.079058
O8	O	1.397068	0.327102	0.254276
O9	O	1.730402	0.660436	0.587609
O10	O	1.049443	0.237537	-0.079056
O11	O	1.382777	0.570870	0.254277
O12	O	1.716110	0.904203	0.587611
O13	O	1.063718	-0.006239	0.079264
O14	O	1.397052	0.327095	0.412597
O15	O	1.730385	0.660428	0.745930
O16	O	0.926364	0.122179	0.079252
O17	O	1.259697	0.455512	0.412585
O18	O	1.593030	0.788846	0.745919
O19	O	1.186782	0.109112	0.079277
O20	O	1.520115	0.442445	0.412610
O21	O	1.853448	0.775778	0.745944
Zn22	Zn	1.056570	0.115644	0.104401
Zn23	Zn	1.389903	0.448977	0.437735
Zn24	Zn	1.723237	0.782311	0.771068
Zn25	Zn	1.056592	0.115654	-0.104194
Zn26	Zn	1.389925	0.448987	0.229140
Zn27	Zn	1.723258	0.782321	0.562473
O28	O	1.049427	0.237529	0.079265
O29	O	1.382760	0.570862	0.412599
O30	O	1.716093	0.904196	0.745932
C31	C	0.893048	0.121598	0.000088
C32	C	1.226381	0.454932	0.333421
C33	C	1.559715	0.788265	0.666755
C34	C	0.793753	0.119847	0.000078
C35	C	1.127087	0.453180	0.333411
C36	C	1.460420	0.786514	0.666745
C37	C	0.736425	0.195289	0.000080
C38	C	1.069758	0.528622	0.333413
C39	C	1.403092	0.861955	0.666747
C40	C	0.643128	0.193638	0.000094
C41	C	0.976461	0.526972	0.333428
C42	C	1.309794	0.860305	0.666761
C43	C	0.607161	0.116545	0.000100
C44	C	0.940494	0.449879	0.333433
C45	C	1.273827	0.783212	0.666766
C46	C	0.664496	0.041098	0.000101
C47	C	0.997830	0.374431	0.333434
C48	C	1.331163	0.707764	0.666767
C49	C	0.757792	0.042749	0.000093
C50	C	1.091125	0.376082	0.333427
C51	C	1.424458	0.709416	0.666760
C52	C	0.470038	0.037661	0.000114
C53	C	0.803372	0.370994	0.333447
C54	C	1.136705	0.704328	0.666781
C55	C	0.376737	0.036009	0.000119
C56	C	0.710070	0.369343	0.333453
C57	C	1.043403	0.702676	0.666786
C58	C	0.355375	0.188550	0.000115
C59	C	0.688708	0.521884	0.333448
C60	C	1.022041	0.855217	0.666781
C61	C	0.448670	0.190202	0.000107
C62	C	0.782003	0.523535	0.333441
C63	C	1.115337	0.856868	0.666774
C64	C	0.505999	0.114754	0.000106
C65	C	0.839332	0.448087	0.333440
C66	C	1.172666	0.781420	0.666773
C67	C	1.063145	-0.037431	0.000101
C68	C	1.396478	0.295902	0.333434
C69	C	1.729812	0.629236	0.666767
C70	C	1.061401	-0.130386	0.000093
C71	C	1.394734	0.202948	0.333427
C72	C	1.728068	0.536281	0.666760
C73	C	1.054990	-0.468130	0.000101
C74	C	1.388324	-0.134797	0.333435
C75	C	1.721657	0.198536	0.666768
C76	C	1.154129	-0.444719	0.000465
C77	C	1.487463	-0.111386	0.333798
C78	C	1.820796	0.221948	0.667131
C79	C	1.156014	-0.348041	0.000105
C80	C	1.489347	-0.014708	0.333438
C81	C	1.822680	0.318625	0.666771
C82	C	1.058171	-0.300571	0.000098
C83	C	1.391505	0.032762	0.333431
C84	C	1.724838	0.366095	0.666765
C85	C	1.008616	-0.329718	-0.090313
C86	C	1.341949	0.003616	0.243020
C87	C	1.675283	0.336949	0.576354
C88	C	1.007422	-0.426509	-0.090385
C89	C	1.340756	-0.093176	0.242948
C90	C	1.674089	0.240157	0.576281
C91	C	1.005379	-0.426377	0.089655
C92	C	1.338713	-0.093044	0.422989
C93	C	1.672046	0.240290	0.756322
C94	C	1.009053	-0.329881	0.090847
C95	C	1.342386	0.003452	0.424180
C96	C	1.675720	0.336786	0.757514
C97	C	1.059964	-0.205873	0.000093
C98	C	1.393297	0.127460	0.333426
C99	C	1.726631	0.460793	0.666759
C100	C	1.053195	-0.562828	0.000100
C101	C	1.386528	-0.229495	0.333434
C102	C	1.719861	0.103839	0.666767
C103	C	1.220114	0.109700	0.000118
C104	C	1.553447	0.443033	0.333451
C105	C	1.886780	0.776367	0.666784
C106	C	1.319408	0.111451	0.000121
C107	C	1.652742	0.444784	0.333455
C108	C	1.986075	0.778118	0.666788
C109	C	1.050017	0.268729	0.000105
C110	C	1.383350	0.602062	0.333438
C111	C	1.716683	0.935396	0.666772
C112	C	1.051760	0.361684	0.000106
C113	C	1.385094	0.695017	0.333439
C114	C	1.718427	1.028350	0.666773
N115	N	1.056562	0.115637	0.246762
N116	N	1.389895	0.448970	0.580095
N117	N	1.723228	0.782303	0.913429
N118	N	1.056607	0.115655	-0.246554
N119	N	1.389940	0.448988	0.086779
N120	N	1.723274	0.782321	0.420112
C121	C	1.117401	0.058797	0.296585
C122	C	1.450735	0.392130	0.629919
C123	C	1.784068	0.725464	0.963252
C124	C	1.117407	0.058797	0.396243
C125	C	1.450741	0.392130	0.729576
C126	C	1.784074	0.725463	1.062910
C127	C	1.056577	0.115640	0.446076
C128	C	1.389911	0.448974	0.779409
C129	C	1.723244	0.782307	1.112742
C130	C	0.995731	0.172483	0.396245
C131	C	1.329064	0.505816	0.729579
C132	C	1.662398	0.839150	1.062912
C133	C	0.995721	0.172479	0.296590
C134	C	1.329055	0.505812	0.629923
C135	C	1.662388	0.839145	0.963256
C136	C	0.995757	0.172489	0.603960
C137	C	1.329090	0.505822	0.937293
C138	C	1.662423	0.839156	1.270626
C139	C	0.995767	0.172495	0.703622
C140	C	1.329101	0.505828	1.036956
C141	C	1.662434	0.839161	1.370289
C142	C	1.117443	0.058807	0.703613
C143	C	1.450776	0.392140	1.036946
C144	C	1.784110	0.725474	1.370280
C145	C	1.117433	0.058803	0.603957
C146	C	1.450767	0.392136	0.937291
C147	C	1.784100	0.725469	1.270624
C148	C	1.056588	0.115646	0.554134
C149	C	1.389921	0.448980	0.887467
C150	C	1.723255	0.782313	1.220801
H151	H	0.477951	0.252978	0.000094
H152	H	0.811284	0.586311	0.333427
H153	H	1.144618	0.919644	0.666760
H154	H	0.765701	0.258067	0.000075
H155	H	1.099035	0.591400	0.333408
H156	H	1.432368	0.924734	0.666741
H157	H	1.045137	-0.311283	0.157732
H158	H	1.378470	0.022051	0.491066
H159	H	1.711804	0.355384	0.824399
H160	H	1.166985	0.012523	0.744185
H161	H	1.500318	0.345856	1.077518
H162	H	1.833651	0.679190	1.410852
H163	H	0.936617	-0.297922	-0.093679
H164	H	1.269951	0.035411	0.239654
H165	H	1.603284	0.368745	0.572987
H166	H	1.166947	0.012513	0.436809
H167	H	1.500280	0.345846	0.770142
H168	H	1.833614	0.679180	1.103475
H169	H	1.166970	0.012520	0.563384
H170	H	1.500303	0.345854	0.896717
H171	H	1.833636	0.679187	1.230050
H172	H	0.308692	0.249983	0.000119
H173	H	0.642026	0.583316	0.333453
H174	H	0.975359	0.916650	0.666786
H175	H	0.946232	0.218782	0.744191
H176	H	1.279566	0.552115	1.077524
H177	H	1.612899	0.885449	1.410858
H178	H	0.946207	0.218775	0.563397
H179	H	1.279540	0.552108	0.896730
H180	H	1.612874	0.885441	1.230063
H181	H	0.596454	0.255071	0.000095
H182	H	0.929787	0.588404	0.333428
H183	H	1.263121	0.921737	0.666761
H184	H	1.043042	-0.309619	-0.157591
H185	H	1.376375	0.023714	0.175742
H186	H	1.709709	0.357047	0.509075
H187	H	0.946197	0.218764	0.436825
H188	H	1.279531	0.552097	0.770158
H189	H	1.612864	0.885430	1.103491
H190	H	0.347456	-0.026767	0.000125
H191	H	0.680789	0.306567	0.333459
H192	H	1.014122	0.639900	0.666792
H193	H	0.946178	0.218762	0.256024
H194	H	1.279512	0.552096	0.589358
H195	H	1.612845	0.885429	0.922691
H196	H	0.932405	-0.440441	0.090259
H197	H	1.265739	-0.107107	0.423593
H198	H	1.599072	0.226226	0.756926
H199	H	0.516714	-0.023777	0.000115
H200	H	0.850048	0.309557	0.333448
H201	H	1.183381	0.642890	0.666781
H202	H	0.635205	-0.021673	0.000119
H203	H	0.968538	0.311660	0.333452
H204	H	1.301871	0.644994	0.666786
H205	H	0.804468	-0.018684	0.000091
H206	H	1.137802	0.314650	0.333425
H207	H	1.471135	0.647983	0.666758
H208	H	1.194825	-0.328981	0.064914
H209	H	1.528158	0.004353	0.398247
H210	H	1.861491	0.337686	0.731580
H211	H	1.192136	-0.473695	-0.064002
H212	H	1.525470	-0.140362	0.269331
H213	H	1.858803	0.192971	0.602665
H214	H	1.192335	-0.472681	0.065303
H215	H	1.525669	-0.139348	0.398636
H216	H	1.859002	0.193986	0.731969
H217	H	1.195067	-0.329595	-0.064812
H218	H	1.528400	0.003739	0.268522
H219	H	1.861734	0.337072	0.601855
H220	H	0.937637	-0.296983	0.096302
H221	H	1.270971	0.036350	0.429636
H222	H	1.604304	0.369683	0.762969
H223	H	1.036593	-0.454438	0.158186
H224	H	1.369926	-0.121104	0.491519
H225	H	1.703260	0.212229	0.824853
H226	H	1.041756	-0.453288	-0.157965
H227	H	1.375089	-0.119955	0.175369
H228	H	1.708423	0.213379	0.508702
H229	H	0.934733	-0.441132	-0.094487
H230	H	1.268067	-0.107799	0.238847
H231	H	1.601400	0.225534	0.572180
H232	H	1.166940	0.012512	0.256018
H233	H	1.500273	0.345845	0.589352
H234	H	1.833607	0.679178	0.922685
