data_functionalizedCrystal
_audit_creation_method	'MofGen! by Chris Wilmer'
_symmetry_space_group_name_H-M	'P1'
_symmetry_Int_Tables_number	1
_symmetry_cell_setting	triclinic
loop_
_symmetry_equiv_pos_as_xyz
  x,y,z
_cell_length_a	14.908558
_cell_length_b	13.897448
_cell_length_c	14.908308
_cell_angle_alpha	86.732812
_cell_angle_beta	89.824401
_cell_angle_gamma	86.712937
loop_
_atom_site_label
_atom_site_type_symbol
_atom_site_fract_x
_atom_site_fract_y
_atom_site_fract_z
Zn1	Zn	1.345320	-0.503405	0.587571
Zn2	Zn	1.845320	-0.003405	1.087571
Zn3	Zn	1.353908	-0.655976	0.437211
Zn4	Zn	1.853908	-0.155976	0.937211
Zn5	Zn	1.203635	-0.484875	0.428570
Zn6	Zn	1.703635	0.015125	0.928570
Zn7	Zn	1.194935	-0.654827	0.578864
Zn8	Zn	1.694935	-0.154827	1.078864
O9	O	1.274449	-0.574770	0.508054
O10	O	1.774449	-0.074770	1.008054
O11	O	1.472286	-0.531879	0.574885
O12	O	1.972286	-0.031879	1.074885
O13	O	1.341208	-0.626005	0.310240
O14	O	1.841208	-0.126005	0.810240
O15	O	1.222477	-0.352356	0.449689
O16	O	1.722477	0.147644	0.949689
O17	O	1.478595	-0.643972	0.464417
O18	O	1.978595	-0.143972	0.964417
O19	O	1.326573	-0.365970	0.566506
O20	O	1.826573	0.134030	1.066506
O21	O	1.230803	-0.500298	0.303891
O22	O	1.730803	-0.000298	0.803891
O23	O	1.076654	-0.499184	0.441246
O24	O	1.576654	0.000816	0.941246
O25	O	1.207649	-0.642014	0.705844
O26	O	1.707649	-0.142014	1.205844
O27	O	1.070262	-0.624047	0.551667
O28	O	1.570262	-0.124047	1.051667
O29	O	1.318137	-0.530765	0.712240
O30	O	1.818137	-0.030765	1.212240
O31	O	1.332773	-0.790800	0.455974
O32	O	1.832773	-0.290800	0.955974
O33	O	1.215976	-0.789956	0.560046
O34	O	1.715976	-0.289956	1.060046
C35	C	1.274385	-0.825379	0.508024
C36	C	1.774385	-0.325379	1.008024
C37	C	1.274438	-0.932598	0.508046
C38	C	1.774438	-0.432598	1.008046
C39	C	1.040833	-0.559481	0.494575
C40	C	1.540833	-0.059481	0.994575
C41	C	0.940889	-0.552964	0.488830
C42	C	1.440889	-0.052964	0.988830
C43	C	0.803320	-0.478685	0.423337
C44	C	1.303320	0.021315	0.923337
C45	C	0.897226	-0.484803	0.428731
C46	C	1.397226	0.015197	0.928731
C47	C	0.890640	-0.615010	0.543540
C48	C	1.390640	-0.115010	1.043540
C49	C	0.796734	-0.608892	0.538145
C50	C	1.296734	-0.108892	1.038145
C51	C	0.753077	-0.540729	0.478041
C52	C	1.253077	-0.040729	0.978041
C53	C	0.659170	-0.534616	0.472642
C54	C	1.159170	-0.034616	0.972642
C55	C	0.652586	-0.664818	0.587455
C56	C	1.152586	-0.164818	1.087455
C57	C	0.746492	-0.670936	0.592850
C58	C	1.246492	-0.170936	1.092850
C59	C	1.274530	-1.128902	0.508108
C60	C	1.774530	-0.628902	1.008108
C61	C	1.274476	-1.019664	0.508076
C62	C	1.774476	-0.519664	1.008076
C63	C	1.508978	-0.590121	0.521586
C64	C	2.008978	-0.090121	1.021586
C65	C	1.608921	-0.596662	0.527353
C66	C	2.108921	-0.096662	1.027353
C67	C	1.260965	-0.588329	0.742579
C68	C	1.760965	-0.088329	1.242579
C69	C	1.255219	-0.594106	0.842520
C70	C	1.755219	-0.094106	1.342520
C71	C	1.274537	-0.323186	0.508105
C72	C	1.774537	0.176814	1.008105
C73	C	1.274575	-0.215976	0.508127
C74	C	1.774575	0.284024	1.008127
C75	C	1.287933	-0.561199	0.274444
C76	C	1.787933	-0.061199	0.774444
C77	C	1.293854	-0.555161	0.174514
C78	C	1.793854	-0.055161	0.674514
C79	C	1.359469	-0.489096	1.036982
C80	C	1.859469	0.010904	1.536982
C81	C	1.354072	-0.494522	1.130885
C82	C	1.854072	0.005478	1.630885
C83	C	1.239026	-0.610377	1.124232
C84	C	1.739026	-0.110377	1.624232
C85	C	1.244422	-0.604951	1.030328
C86	C	1.744422	-0.104951	1.530328
C87	C	1.304646	-0.544310	0.986707
C88	C	1.804646	-0.044310	1.486707
C89	C	1.310047	-0.538890	0.892802
C90	C	1.810047	-0.038890	1.392802
C91	C	1.194996	-0.654740	0.886150
C92	C	1.694996	-0.154740	1.386150
C93	C	1.189600	-0.660165	0.980053
C94	C	1.689600	-0.160165	1.480053
H95	H	0.767774	-0.423185	0.374395
H96	H	1.267774	0.076815	0.874395
O97	O	1.130976	-0.718957	1.022382
O98	O	1.630976	-0.218957	1.522382
C99	C	1.042685	-0.690714	0.994252
C100	C	1.542685	-0.190714	1.494252
H101	H	1.039647	-0.611869	0.968190
H102	H	1.539647	-0.111869	1.468190
H103	H	1.022304	-0.737743	0.938380
H104	H	1.522304	-0.237743	1.438380
C105	C	0.981609	-0.799678	1.106215
C106	C	1.481609	-0.299678	1.606215
C107	C	0.977876	-0.702837	1.074212
C108	C	1.477876	-0.202837	1.574212
H109	H	0.941630	-0.807160	1.155536
H110	H	1.441630	-0.307160	1.655536
H111	H	1.041092	-0.818710	1.125165
H112	H	1.541092	-0.318710	1.625165
H113	H	0.964627	-0.838858	1.059648
H114	H	1.464627	-0.338858	1.559648
H115	H	0.994869	-0.663661	1.120775
H116	H	1.494869	-0.163661	1.620775
H117	H	0.918394	-0.683799	1.055271
H118	H	1.418394	-0.183799	1.555271
H119	H	1.359086	-0.489515	0.857287
H120	H	1.859086	0.010485	1.357287
H121	H	0.623626	-0.479113	0.423703
H122	H	1.123626	0.020887	0.923703
O123	O	1.180592	-0.669246	1.166757
O124	O	1.680592	-0.169246	1.666757
C125	C	1.187562	-0.662160	1.260417
C126	C	1.687562	-0.162160	1.760417
H127	H	1.256232	-0.635864	1.277250
H128	H	1.756232	-0.135864	1.777250
H129	H	1.132722	-0.608826	1.283983
H130	H	1.632722	-0.108826	1.783983
C131	C	1.092153	-0.794284	1.287479
C132	C	1.592153	-0.294284	1.787479
C133	C	1.176498	-0.761995	1.308154
C134	C	1.676498	-0.261995	1.808154
H135	H	1.085324	-0.855865	1.316927
H136	H	1.585324	-0.355865	1.816927
H137	H	1.087454	-0.799056	1.224379
H138	H	1.587454	-0.299056	1.724379
H139	H	1.046463	-0.749831	1.307119
H140	H	1.546463	-0.249831	1.807119
H141	H	1.222187	-0.806442	1.288505
H142	H	1.722187	-0.306442	1.788505
H143	H	1.181205	-0.757233	1.371253
H144	H	1.681205	-0.257233	1.871253
H145	H	0.938129	-0.434278	0.384188
H146	H	1.438129	0.065722	0.884188
O147	O	1.417991	-0.430117	0.994743
O148	O	1.917991	0.069883	1.494743
C149	C	1.465244	-0.382569	1.059256
C150	C	1.965244	0.117431	1.559256
H151	H	1.424571	-0.380684	1.124071
H152	H	1.924571	0.119316	1.624071
H153	H	1.532947	-0.422940	1.073174
H154	H	2.032947	0.077060	1.573174
C155	C	1.530304	-0.280960	0.943763
C156	C	2.030304	0.219040	1.443763
C157	C	1.480345	-0.278637	1.023368
C158	C	1.980345	0.221363	1.523368
H159	H	1.539624	-0.216851	0.921625
H160	H	2.039624	0.283149	1.421625
H161	H	1.498472	-0.312995	0.900299
H162	H	1.998472	0.187005	1.400299
H163	H	1.586718	-0.314606	0.955373
H164	H	2.086718	0.185394	1.455373
H165	H	1.423929	-0.245001	1.011755
H166	H	1.923929	0.254999	1.511755
H167	H	1.512168	-0.246593	1.066830
H168	H	2.012168	0.253407	1.566830
H169	H	0.926202	-0.670501	0.592478
H170	H	1.426202	-0.170501	1.092478
O171	O	0.789001	-0.737023	0.651280
O172	O	1.289001	-0.237023	1.151280
C173	C	0.839978	-0.689106	0.712582
C174	C	1.339978	-0.189106	1.212582
H175	H	0.855860	-0.615042	0.681802
H176	H	1.355860	-0.115042	1.181802
H177	H	0.799972	-0.680122	0.777156
H178	H	1.299972	-0.180122	1.277156
C179	C	0.908740	-0.839919	0.771702
C180	C	1.408740	-0.339919	1.271702
C181	C	0.928254	-0.748954	0.733894
C182	C	1.428254	-0.248954	1.233894
H183	H	0.963191	-0.876837	0.784852
H184	H	1.463191	-0.376837	1.284852
H185	H	0.874394	-0.872202	0.730404
H186	H	1.374394	-0.372202	1.230404
H187	H	0.875401	-0.832418	0.825509
H188	H	1.375401	-0.332418	1.325509
H189	H	0.961583	-0.756455	0.680083
H190	H	1.461583	-0.256455	1.180083
H191	H	0.962608	-0.716674	0.775184
H192	H	1.462608	-0.216674	1.275184
O193	O	1.141865	-0.708428	0.837224
O194	O	1.641865	-0.208428	1.337224
C195	C	1.196159	-0.770958	0.785869
C196	C	1.696159	-0.270958	1.285869
H197	H	1.265119	-0.740583	0.775732
H198	H	1.765119	-0.240583	1.275732
H199	H	1.203938	-0.845173	0.822622
H200	H	1.703938	-0.345173	1.322622
C201	C	1.067107	-0.817352	0.706267
C202	C	1.567107	-0.317352	1.206267
C203	C	1.151803	-0.780039	0.693810
C204	C	1.651803	-0.280039	1.193810
H205	H	1.039745	-0.822958	0.649482
H206	H	1.539745	-0.322958	1.149482
H207	H	1.030527	-0.775227	0.740868
H208	H	1.530527	-0.275227	1.240868
H209	H	1.073602	-0.879193	0.736898
H210	H	1.573602	-0.379193	1.236898
H211	H	1.145306	-0.718195	0.663190
H212	H	1.645306	-0.218195	1.163190
H213	H	1.188381	-0.822154	0.659202
H214	H	1.688381	-0.322154	1.159202
H215	H	1.398712	-0.449558	1.171816
H216	H	1.898712	0.050442	1.671816
O217	O	0.603642	-0.724990	0.640564
O218	O	1.103642	-0.224990	1.140564
C219	C	0.511397	-0.704996	0.622898
C220	C	1.011397	-0.204996	1.122898
H221	H	0.500256	-0.627976	0.592835
H222	H	1.000256	-0.127976	1.092835
H223	H	0.487493	-0.757621	0.573389
H224	H	0.987493	-0.257621	1.073389
C225	C	0.471658	-0.810708	0.748013
C226	C	0.971658	-0.310708	1.248013
C227	C	0.457973	-0.716107	0.711096
C228	C	0.957973	-0.216107	1.211096
H229	H	0.438702	-0.817565	0.802416
H230	H	0.938702	-0.317565	1.302416
H231	H	0.533805	-0.824181	0.759913
H232	H	1.033805	-0.324181	1.259913
H233	H	0.451738	-0.854551	0.706747
H234	H	0.951738	-0.354551	1.206747
H235	H	0.477903	-0.672267	0.752357
H236	H	0.977903	-0.172267	1.252357
H237	H	0.395828	-0.702627	0.699205
H238	H	0.895828	-0.202627	1.199205
