data_functionalizedCrystal
_audit_creation_method	'MofGen! by Chris Wilmer'
_symmetry_space_group_name_H-M	'P1'
_symmetry_Int_Tables_number	1
_symmetry_cell_setting	triclinic
loop_
_symmetry_equiv_pos_as_xyz
  x,y,z
_cell_length_a	16.109301
_cell_length_b	14.519709
_cell_length_c	15.186229
_cell_angle_alpha	89.995307
_cell_angle_beta	89.999362
_cell_angle_gamma	83.570813
loop_
_atom_site_label
_atom_site_type_symbol
_atom_site_fract_x
_atom_site_fract_y
_atom_site_fract_z
O1	O	1.103336	0.118540	-0.073175
O2	O	0.861299	0.133292	-0.073189
O3	O	0.988735	-0.008336	-0.073174
O4	O	0.975900	0.260168	-0.073190
O5	O	0.988726	-0.008338	0.073284
O6	O	0.861291	0.133290	0.073268
O7	O	1.103327	0.118538	0.073282
Zn8	Zn	0.982308	0.125914	0.096529
Zn9	Zn	0.982319	0.125916	-0.096435
O10	O	0.975892	0.260166	0.073267
C11	C	0.830319	0.132693	0.000038
C12	C	0.738021	0.130902	0.000033
C13	C	0.515887	0.210775	0.000038
C14	C	0.429163	0.209085	0.000044
C15	C	0.448747	0.041048	0.000050
C16	C	0.535468	0.042739	0.000051
C17	C	0.569036	0.127606	0.000040
C18	C	0.395591	0.124224	0.000045
C19	C	0.301562	0.122390	0.000052
C20	C	0.663071	0.129440	0.000036
C21	C	0.988132	-0.042696	0.000055
C22	C	0.986340	-0.145073	0.000056
C23	C	0.979741	-0.519955	0.000032
C24	C	0.981574	-0.415651	0.000039
C25	C	0.983041	-0.332517	0.000045
C26	C	0.984873	-0.228207	0.000050
C27	C	1.134307	0.119136	0.000054
C28	C	1.226606	0.120928	0.000053
C29	C	0.976494	0.294526	0.000036
C30	C	0.978287	0.396903	0.000030
N31	N	0.982306	0.125911	0.228221
N32	N	0.982327	0.125911	-0.228128
C33	C	1.038754	0.063219	0.453951
C34	C	1.038756	0.063217	0.546141
C35	C	0.925873	0.188606	0.546136
C36	C	0.925867	0.188603	0.453948
C37	C	0.982312	0.125911	0.407858
C38	C	0.982321	0.125912	0.592236
C39	C	0.982323	0.125910	0.692192
C40	C	0.982309	0.125911	0.307895
H41	H	0.421405	-0.028048	0.000064
C42	C	0.593940	-0.048753	0.000051
C43	C	0.557021	-0.142103	0.000051
C44	C	0.615493	-0.233591	0.000055
C45	C	0.710883	-0.231729	0.000059
C46	C	0.747807	-0.138375	0.000059
C47	C	0.689335	-0.046887	0.000055
H48	H	0.486403	-0.143485	0.000048
H49	H	0.588159	-0.302697	0.000055
H50	H	0.754167	-0.299453	0.000062
H51	H	0.818425	-0.136993	0.000062
H52	H	0.716669	0.022219	0.000056
C53	C	0.863779	0.257569	0.403237
C54	C	0.801722	0.326563	0.453929
C55	C	0.739634	0.395522	0.403218
C56	C	0.739603	0.395486	0.301814
C57	C	0.801662	0.326489	0.251117
C58	C	0.863750	0.257531	0.301829
H59	H	0.801743	0.326592	0.528999
H60	H	0.693694	0.446598	0.440748
H61	H	0.693642	0.446534	0.264275
H62	H	0.801642	0.326461	0.176047
H63	H	0.909690	0.206455	0.264299
C64	C	1.100835	-0.005747	0.403251
C65	C	1.162916	-0.074710	0.453958
C66	C	1.224997	-0.143682	0.403262
C67	C	1.224998	-0.143690	0.301858
C68	C	1.162915	-0.074724	0.251146
C69	C	1.100834	-0.005753	0.301842
H70	H	1.162917	-0.074707	0.529028
H71	H	1.270955	-0.194734	0.440803
H72	H	1.270954	-0.194746	0.264330
H73	H	1.162913	-0.074728	0.176076
H74	H	1.054876	0.045300	0.264301
H75	H	1.084715	0.012167	0.583667
C76	C	0.370699	0.300573	0.000037
C77	C	0.275308	0.298721	0.000042
C78	C	0.216843	0.390213	0.000036
C79	C	0.253770	0.483558	0.000024
C80	C	0.349166	0.485415	0.000019
C81	C	0.407631	0.393922	0.000025
H82	H	0.247968	0.229618	0.000050
H83	H	0.146224	0.388839	0.000040
H84	H	0.210491	0.551287	0.000020
H85	H	0.376506	0.554518	0.000011
H86	H	0.478250	0.395297	0.000022
C87	C	0.552813	0.304125	0.000036
C88	C	0.532813	0.373198	0.076089
C89	C	0.569736	0.466550	0.076089
C90	C	0.626661	0.490830	0.000037
C91	C	0.646664	0.421755	-0.076021
C92	C	0.609740	0.328403	-0.076022
H93	H	0.490671	0.355226	0.132392
H94	H	0.554928	0.517683	0.132393
H95	H	0.653994	0.559935	0.000038
H96	H	0.688805	0.439727	-0.132325
H97	H	0.624548	0.277270	-0.132326
H98	H	0.879918	0.239650	0.583672
