data_functionalizedCrystal
_audit_creation_method	'MofGen! by Chris Wilmer'
_symmetry_space_group_name_H-M	'P1'
_symmetry_Int_Tables_number	1
_symmetry_cell_setting	triclinic
loop_
_symmetry_equiv_pos_as_xyz
  x,y,z
_cell_length_a	19.805405
_cell_length_b	18.215407
_cell_length_c	18.215399
_cell_angle_alpha	89.980167
_cell_angle_beta	90.030610
_cell_angle_gamma	89.973142
loop_
_atom_site_label
_atom_site_type_symbol
_atom_site_fract_x
_atom_site_fract_y
_atom_site_fract_z
Zn1	Zn	-0.269462	-1.125064	0.416102
Zn2	Zn	0.230538	-0.625064	0.916102
Zn3	Zn	-0.382653	-1.124969	0.293030
Zn4	Zn	0.117347	-0.624969	0.793030
Zn5	Zn	-0.269484	-1.001997	0.293050
Zn6	Zn	0.230516	-0.501997	0.793050
Zn7	Zn	-0.382615	-1.001959	0.416055
Zn8	Zn	0.117385	-0.501959	0.916055
O9	O	-0.326054	-1.063497	0.354559
O10	O	0.173946	-0.563497	0.854559
O11	O	-0.284484	-1.228036	0.399788
O12	O	0.215516	-0.728036	0.899788
O13	O	-0.367666	-1.108633	0.190049
O14	O	0.132334	-0.608633	0.690049
O15	O	-0.174765	-1.018377	0.309401
O16	O	0.325235	-0.518377	0.809401
O17	O	-0.367644	-1.227966	0.309368
O18	O	0.132356	-0.727966	0.809368
O19	O	-0.174748	-1.108794	0.399807
O20	O	0.325252	-0.608794	0.899807
O21	O	-0.284521	-1.018285	0.190063
O22	O	0.215479	-0.518285	0.690063
O23	O	-0.284485	-0.899008	0.309355
O24	O	0.215515	-0.399008	0.809355
O25	O	-0.367580	-1.018313	0.519046
O26	O	0.132420	-0.518313	1.019046
O27	O	-0.367602	-0.898980	0.399727
O28	O	0.132398	-0.398980	0.899727
O29	O	-0.284447	-1.108758	0.519080
O30	O	0.215553	-0.608758	1.019080
O31	O	-0.477365	-1.108596	0.309322
O32	O	0.022635	-0.608596	0.809322
O33	O	-0.477337	-1.018221	0.399708
O34	O	0.022663	-0.518221	0.899708
C35	C	-0.326042	-0.872291	0.354538
C36	C	0.173958	-0.372291	0.854538
C37	C	-0.326053	-0.790492	0.354547
C38	C	0.173947	-0.290492	0.854547
C39	C	-0.501910	-1.063415	0.354524
C40	C	-0.001910	-0.563415	0.854524
C41	C	-0.577142	-1.063446	0.354533
C42	C	-0.077142	-0.563446	0.854533
C43	C	-0.326007	-1.063542	0.546512
C44	C	0.173993	-0.563542	1.046512
C45	C	-0.325987	-1.063561	0.628311
C46	C	0.174013	-0.563561	1.128311
C47	C	-0.612478	-1.110550	0.307518
C48	C	-0.112478	-0.610550	0.807518
C49	C	-0.683166	-1.110582	0.307535
C50	C	-0.183166	-0.610582	0.807535
C51	C	-0.718517	-1.063505	0.354562
C52	C	-0.218517	-0.563505	0.854562
C53	C	-0.683176	-1.016399	0.401582
C54	C	-0.183176	-0.516399	0.901582
C55	C	-0.612489	-1.016372	0.401569
C56	C	-0.112489	-0.516372	0.901569
C57	C	-0.968249	-1.016507	0.401637
C58	C	-0.468249	-0.516507	0.901637
C59	C	-1.038941	-1.016536	0.401645
C60	C	-0.538941	-0.516536	0.901645
C61	C	-1.038927	-1.110717	0.307602
C62	C	-0.538927	-0.610717	0.807602
C63	C	-0.968239	-1.110690	0.307589
C64	C	-0.468239	-0.610690	0.807589
C65	C	-0.932905	-1.063587	0.354611
C66	C	-0.432905	-0.563587	0.854611
C67	C	-0.856256	-1.063555	0.354594
C68	C	-0.356256	-0.563555	0.854594
C69	C	-0.795164	-1.063533	0.354577
C70	C	-0.295164	-0.563533	0.854577
C71	C	-0.149511	-1.063601	0.354611
C72	C	0.350489	-0.563601	0.854611
C73	C	-0.074279	-1.063645	0.354633
C74	C	0.425721	-0.563645	0.854633
C75	C	-0.326066	-1.255450	0.354581
C76	C	0.173934	-0.755450	0.854581
C77	C	-0.326071	-1.337249	0.354590
C78	C	0.173929	-0.837249	0.854590
C79	C	-0.369400	-0.602303	0.401544
C80	C	0.130600	-0.102303	0.901544
C81	C	-0.369403	-0.525444	0.401553
C82	C	0.130597	-0.025444	0.901553
C83	C	-0.282719	-0.525444	0.307591
C84	C	0.217281	-0.025444	0.807591
C85	C	-0.282714	-0.602301	0.307586
C86	C	0.217286	-0.102301	0.807586
C87	C	-0.326059	-0.640729	0.354561
C88	C	0.173941	-0.140729	0.854561
C89	C	-0.326066	-0.487013	0.354575
C90	C	0.173934	0.012987	0.854575
C91	C	-0.326068	-0.403679	0.354585
C92	C	0.173932	0.096321	0.854585
C93	C	-0.326056	-0.724068	0.354553
C94	C	0.173944	-0.224068	0.854553
C95	C	-0.326051	-1.063495	0.163353
C96	C	0.173949	-0.563495	0.663353
C97	C	-0.325880	-1.063619	0.081555
C98	C	0.174120	-0.563619	0.581555
C99	C	-0.282659	-1.110673	0.816524
C100	C	0.217341	-0.610673	1.316524
C101	C	-0.282639	-1.110682	0.893383
C102	C	0.217361	-0.610682	1.393383
C103	C	-0.369210	-1.016502	0.893336
C104	C	0.130790	-0.516502	1.393336
C105	C	-0.369226	-1.016490	0.816479
C106	C	0.130774	-0.516490	1.316479
C107	C	-0.325952	-1.063580	0.778075
C108	C	0.174048	-0.563580	1.278075
C109	C	-0.325916	-1.063600	0.931791
C110	C	0.174084	-0.563600	1.431791
C111	C	-0.325895	-1.063609	1.015125
C112	C	0.174105	-0.563609	1.515125
C113	C	-0.325972	-1.063570	0.694736
C114	C	0.174028	-0.563570	1.194736
H115	H	-0.583700	-1.148883	0.269220
H116	H	-0.083700	-0.648883	0.769220
N117	N	-0.235990	-1.161462	0.775102
N118	N	0.264010	-0.661462	1.275102
H119	H	-0.204630	-1.131573	0.743212
H120	H	0.295370	-0.631573	1.243212
H121	H	-0.263561	-1.195534	0.743259
H122	H	0.236439	-0.695534	1.243259
N123	N	-0.415892	-0.965726	0.934760
N124	N	0.084108	-0.465726	1.434760
H125	H	-0.443320	-0.935890	0.898738
H126	H	0.056680	-0.435890	1.398738
H127	H	-0.388336	-0.931688	0.966654
H128	H	0.111664	-0.431688	1.466654
N129	N	-0.415926	-0.965688	0.775014
N130	N	0.084074	-0.465688	1.275014
H131	H	-0.447302	-0.995569	0.743118
H132	H	0.052698	-0.495569	1.243118
H133	H	-0.388377	-0.931602	0.743174
H134	H	0.111623	-0.431602	1.243174
H135	H	-0.404693	-0.633589	0.439797
H136	H	0.095307	-0.133589	0.939797
N137	N	-0.416156	-0.483999	0.452220
N138	N	0.083844	0.016001	0.952220
H139	H	-0.388695	-0.452138	0.486385
H140	H	0.111305	0.047862	0.986385
H141	H	-0.443603	-0.520054	0.481925
H142	H	0.056397	-0.020054	0.981925
N143	N	-0.235955	-0.643744	0.256913
N144	N	0.264045	-0.143744	0.756913
H145	H	-0.246403	-0.630346	0.204309
H146	H	0.253597	-0.130346	0.704309
H147	H	-0.242544	-0.698251	0.264101
H148	H	0.257456	-0.198251	0.764101
N149	N	-0.235982	-0.483994	0.256917
N150	N	0.264018	0.016006	0.756917
H151	H	-0.208523	-0.520001	0.227153
H152	H	0.291477	-0.020001	0.727153
H153	H	-0.204694	-0.452128	0.286933
H154	H	0.295306	0.047872	0.786933
N155	N	-0.235938	-1.161466	0.934855
N156	N	0.264062	-0.661466	1.434855
H157	H	-0.208526	-1.191291	0.898861
H158	H	0.291474	-0.691291	1.398861
H159	H	-0.263477	-1.195514	0.966747
H160	H	0.236523	-0.695514	1.466747
N161	N	-0.721280	-1.161386	0.256826
N162	N	-0.221280	-0.661386	0.756826
H163	H	-0.688159	-1.191201	0.227029
H164	H	-0.188159	-0.691201	0.727029
H165	H	-0.750654	-1.131458	0.222750
H166	H	-0.250654	-0.631458	0.722750
N167	N	-0.930109	-1.161468	0.256871
N168	N	-0.430109	-0.661468	0.756871
H169	H	-0.942451	-1.150080	0.204279
H170	H	-0.442451	-0.650080	0.704279
H171	H	-0.942380	-1.214027	0.268421
H172	H	-0.442380	-0.714027	0.768421
H173	H	-1.067722	-0.978202	0.439946
H174	H	-0.567722	-0.478202	0.939946
N175	N	-1.077037	-1.161521	0.256881
N176	N	-0.577037	-0.661521	0.756881
H177	H	-1.127182	-1.154399	0.264023
H178	H	-0.627182	-0.654399	0.764023
H179	H	-1.064634	-1.214071	0.268375
H180	H	-0.564634	-0.714071	0.768375
H181	H	-0.939485	-0.978153	0.439923
H182	H	-0.439485	-0.478153	0.939923
H183	H	-0.583719	-0.978016	0.439854
H184	H	-0.083719	-0.478016	0.939854
N185	N	-0.721301	-0.965624	0.452309
N186	N	-0.221301	-0.465624	0.952309
H187	H	-0.771443	-0.972786	0.445182
H188	H	-0.271443	-0.472786	0.945182
H189	H	-0.708990	-0.913067	0.440803
H190	H	-0.208990	-0.413067	0.940803
