data_functionalizedCrystal
_audit_creation_method	'MofGen! by Chris Wilmer'
_symmetry_space_group_name_H-M	'P1'
_symmetry_Int_Tables_number	1
_symmetry_cell_setting	triclinic
loop_
_symmetry_equiv_pos_as_xyz
  x,y,z
_cell_length_a	11.169417
_cell_length_b	11.169409
_cell_length_c	11.169416
_cell_angle_alpha	89.969184
_cell_angle_beta	89.988781
_cell_angle_gamma	90.020564
loop_
_atom_site_label
_atom_site_type_symbol
_atom_site_fract_x
_atom_site_fract_y
_atom_site_fract_z
Zn1	Zn	-1.834971	-0.678555	-0.477682
Zn2	Zn	-1.501638	-0.345222	-0.144349
Zn3	Zn	-1.168304	-0.011888	0.188984
Zn4	Zn	-1.834858	-0.477877	-0.678423
Zn5	Zn	-1.501525	-0.144544	-0.345089
Zn6	Zn	-1.168191	0.188790	-0.011756
Zn7	Zn	-1.634254	-0.477889	-0.477755
Zn8	Zn	-1.300921	-0.144556	-0.144422
Zn9	Zn	-0.967588	0.188777	0.188911
Zn10	Zn	-1.634264	-0.678522	-0.678325
Zn11	Zn	-1.300931	-0.345189	-0.344992
Zn12	Zn	-0.967598	-0.011855	-0.011659
O13	O	-1.734587	-0.578211	-0.578047
O14	O	-1.401254	-0.244877	-0.244713
O15	O	-1.067920	0.088456	0.088620
O16	O	-2.002906	-0.651943	-0.504321
O17	O	-1.669572	-0.318610	-0.170988
O18	O	-1.336239	0.014723	0.162345
O19	O	-1.808196	-0.309929	-0.651875
O20	O	-1.474862	0.023405	-0.318542
O21	O	-1.141529	0.356738	0.014791
O22	O	-1.660923	-0.504527	-0.309796
O23	O	-1.327590	-0.171194	0.023537
O24	O	-0.994256	0.162140	0.356871
O25	O	-2.002823	-0.504506	-0.651804
O26	O	-1.669489	-0.171173	-0.318471
O27	O	-1.336156	0.162161	0.014862
O28	O	-1.808389	-0.651955	-0.309742
O29	O	-1.475055	-0.318622	0.023591
O30	O	-1.141722	0.014711	0.356924
O31	O	-1.660813	-0.309938	-0.504446
O32	O	-1.327480	0.023395	-0.171112
O33	O	-0.994147	0.356729	0.162221
O34	O	-1.466306	-0.504495	-0.504351
O35	O	-1.132973	-0.171162	-0.171018
O36	O	-0.799639	0.162172	0.162315
O37	O	-1.660940	-0.846476	-0.651638
O38	O	-1.327607	-0.513143	-0.318305
O39	O	-0.994274	-0.179809	0.015028
O40	O	-1.466313	-0.651899	-0.651709
O41	O	-1.132980	-0.318565	-0.318376
O42	O	-0.799647	0.014768	0.014958
O43	O	-1.808399	-0.846500	-0.504227
O44	O	-1.475065	-0.513167	-0.170894
O45	O	-1.141732	-0.179834	0.162440
O46	O	-1.808206	-0.504474	-0.846360
O47	O	-1.474872	-0.171141	-0.513026
O48	O	-1.141539	0.162193	-0.179693
O49	O	-1.660830	-0.651887	-0.846288
O50	O	-1.327497	-0.318554	-0.512955
O51	O	-0.994164	0.014780	-0.179621
C52	C	-1.422762	-0.578195	-0.578028
C53	C	-1.089429	-0.244862	-0.244695
C54	C	-0.756096	0.088471	0.088638
C55	C	-1.289362	-0.578217	-0.578049
C56	C	-0.956029	-0.244884	-0.244716
C57	C	-0.622696	0.088449	0.088617
C58	C	-1.734539	-0.578202	-0.889871
C59	C	-1.401206	-0.244868	-0.556538
C60	C	-1.067873	0.088465	-0.223205
C61	C	-1.734629	-0.578238	-1.023271
C62	C	-1.401295	-0.244905	-0.689938
C63	C	-1.067962	0.088429	-0.356604
C64	C	-1.734683	-0.891253	-0.577914
C65	C	-1.401350	-0.557920	-0.244580
C66	C	-1.068016	-0.224587	0.088753
C67	C	-1.734724	-1.024653	-0.577857
C68	C	-1.401391	-0.691320	-0.244524
C69	C	-1.068057	-0.357987	0.088810
C70	C	-2.047629	-0.578227	-0.578066
C71	C	-1.714296	-0.244894	-0.244732
C72	C	-1.380963	0.088440	0.088601
C73	C	-2.181029	-0.578234	-0.578074
C74	C	-1.847696	-0.244901	-0.244740
C75	C	-1.514363	0.088433	0.088593
C76	C	-1.734560	-0.266386	-0.578092
C77	C	-1.401227	0.066947	-0.244759
C78	C	-1.067894	0.400281	0.088574
C79	C	-1.734752	-0.132987	-0.577811
C80	C	-1.401418	0.200347	-0.244478
C81	C	-1.068085	0.533680	0.088856
C82	C	-1.734667	-0.578246	-0.265004
C83	C	-1.401334	-0.244913	0.068329
C84	C	-1.068001	0.088420	0.401662
C85	C	-1.734702	-0.578261	-0.131604
C86	C	-1.401368	-0.244928	0.201729
C87	C	-1.068035	0.088405	0.535063
