data_functionalizedCrystal
_audit_creation_method	'MofGen! by Chris Wilmer'
_symmetry_space_group_name_H-M	'P1'
_symmetry_Int_Tables_number	1
_symmetry_cell_setting	triclinic
loop_
_symmetry_equiv_pos_as_xyz
  x,y,z
_cell_length_a	14.519709
_cell_length_b	14.519709
_cell_length_c	8.140239
_cell_angle_alpha	89.995533
_cell_angle_beta	90.002892
_cell_angle_gamma	83.680145
loop_
_atom_site_label
_atom_site_type_symbol
_atom_site_fract_x
_atom_site_fract_y
_atom_site_fract_z
O1	O	1.223865	0.120890	-0.136403
O2	O	1.557199	0.454223	0.196930
O3	O	1.890532	0.787556	0.530264
O4	O	0.955388	0.135126	-0.136454
O5	O	1.288722	0.468460	0.196880
O6	O	1.622055	0.801793	0.530213
O7	O	1.096745	-0.006230	-0.136412
O8	O	1.430078	0.327103	0.196921
O9	O	1.763412	0.660436	0.530254
O10	O	1.082509	0.262247	-0.136445
O11	O	1.415842	0.595580	0.196889
O12	O	1.749175	0.928913	0.530222
O13	O	1.096737	-0.006232	0.136815
O14	O	1.430071	0.327101	0.470148
O15	O	1.763404	0.660435	0.803481
O16	O	0.955381	0.135125	0.136773
O17	O	1.288714	0.468458	0.470107
O18	O	1.622047	0.801791	0.803440
O19	O	1.223857	0.120888	0.136824
O20	O	1.557191	0.454222	0.470157
O21	O	1.890524	0.787555	0.803491
Zn22	Zn	1.089618	0.128006	0.180179
Zn23	Zn	1.422951	0.461340	0.513513
Zn24	Zn	1.756284	0.794673	0.846846
Zn25	Zn	1.089628	0.128008	-0.179809
Zn26	Zn	1.422961	0.461342	0.153524
Zn27	Zn	1.756295	0.794675	0.486858
O28	O	1.082501	0.262245	0.136783
O29	O	1.415834	0.595578	0.470116
O30	O	1.749167	0.928912	0.803449
C31	C	0.921025	0.134462	0.000153
C32	C	1.254358	0.467795	0.333487
C33	C	1.587691	0.801129	0.666820
C34	C	0.818643	0.132474	0.000135
C35	C	1.151977	0.465807	0.333468
C36	C	1.485310	0.799141	0.666801
C37	C	1.096078	-0.040591	0.000201
C38	C	1.429411	0.292742	0.333535
C39	C	1.762744	0.626076	0.666868
C40	C	1.094090	-0.142972	0.000202
C41	C	1.427423	0.190361	0.333535
C42	C	1.760756	0.523694	0.666869
C43	C	0.443748	0.125154	0.000210
C44	C	0.777081	0.458488	0.333544
C45	C	1.110414	0.791821	0.666877
C46	C	0.548056	0.127187	0.000189
C47	C	0.881389	0.460520	0.333522
C48	C	1.214722	0.793854	0.666855
C49	C	0.631192	0.128814	0.000171
C50	C	0.964526	0.462147	0.333504
C51	C	1.297859	0.795481	0.666838
C52	C	0.735507	0.130847	0.000152
C53	C	1.068840	0.464180	0.333486
C54	C	1.402173	0.797514	0.666819
C55	C	1.086770	-0.517868	0.000158
C56	C	1.420103	-0.184535	0.333491
C57	C	1.753437	0.148799	0.666825
C58	C	1.088803	-0.413560	0.000171
C59	C	1.422136	-0.080227	0.333504
C60	C	1.755469	0.253107	0.666837
C61	C	1.090430	-0.330423	0.000181
C62	C	1.423763	0.002910	0.333515
C63	C	1.757096	0.336243	0.666848
C64	C	1.092463	-0.226109	0.000191
C65	C	1.425796	0.107224	0.333524
C66	C	1.759129	0.440558	0.666858
C67	C	1.258221	0.121553	0.000213
C68	C	1.591554	0.454886	0.333546
C69	C	1.924888	0.788219	0.666880
C70	C	1.360602	0.123541	0.000221
C71	C	1.693936	0.456874	0.333555
C72	C	2.027269	0.790207	0.666888
C73	C	1.083168	0.296606	0.000165
C74	C	1.416502	0.629939	0.333499
C75	C	1.749835	0.963272	0.666832
C76	C	1.085156	0.398987	0.000154
C77	C	1.418490	0.732320	0.333487
C78	C	1.751823	1.065653	0.666821
N79	N	1.089618	0.128004	0.425862
N80	N	1.422951	0.461338	0.759195
N81	N	1.756284	0.794671	1.092529
N82	N	1.089636	0.128003	-0.425492
N83	N	1.422969	0.461336	-0.092158
N84	N	1.756302	0.794670	0.241175
