data_functionalizedCrystal
_audit_creation_method	'MofGen! by Chris Wilmer'
_symmetry_space_group_name_H-M	'P1'
_symmetry_Int_Tables_number	1
_symmetry_cell_setting	triclinic
loop_
_symmetry_equiv_pos_as_xyz
  x,y,z
_cell_length_a	25.639243
_cell_length_b	25.639239
_cell_length_c	25.639233
_cell_angle_alpha	89.981253
_cell_angle_beta	89.984038
_cell_angle_gamma	90.041410
loop_
_atom_site_label
_atom_site_type_symbol
_atom_site_fract_x
_atom_site_fract_y
_atom_site_fract_z
Zn1	Zn	0.799225	-0.208176	-0.295656
Zn2	Zn	1.299225	0.291824	0.204344
Zn3	Zn	0.799149	-0.295595	-0.208220
Zn4	Zn	1.299149	0.204405	0.291780
Zn5	Zn	0.711801	-0.208180	-0.208229
Zn6	Zn	1.211801	0.291820	0.291771
Zn7	Zn	0.711746	-0.295587	-0.295619
Zn8	Zn	1.211746	0.204413	0.204381
O9	O	0.755480	-0.251885	-0.251931
O10	O	1.255480	0.248115	0.248069
O11	O	0.872380	-0.219775	-0.284069
O12	O	1.372380	0.280225	0.215931
O13	O	0.787553	-0.284004	-0.135056
O14	O	1.287553	0.215996	0.364944
O15	O	0.723453	-0.135014	-0.219846
O16	O	1.223453	0.364986	0.280154
O17	O	0.872324	-0.284001	-0.219830
O18	O	1.372324	0.215999	0.280170
O19	O	0.787683	-0.135012	-0.284077
O20	O	1.287683	0.364988	0.215923
O21	O	0.723379	-0.219781	-0.135063
O22	O	1.223379	0.280219	0.364937
O23	O	0.638629	-0.219772	-0.219810
O24	O	1.138629	0.280228	0.280190
O25	O	0.723360	-0.283987	-0.368789
O26	O	1.223360	0.216013	0.131211
O27	O	0.638589	-0.283990	-0.284016
O28	O	1.138589	0.216010	0.215984
O29	O	0.787630	-0.219767	-0.368816
O30	O	1.287630	0.280233	0.131184
O31	O	0.787499	-0.368759	-0.219795
O32	O	1.287499	0.131241	0.280205
O33	O	0.723286	-0.368753	-0.284007
O34	O	1.223286	0.131247	0.215993
C35	C	0.619638	-0.251881	-0.251910
C36	C	1.119638	0.248119	0.248090
C37	C	0.561524	-0.251892	-0.251914
C38	C	1.061524	0.248108	0.248086
C39	C	0.201184	-0.218495	-0.285436
C40	C	0.701184	0.281505	0.214564
C41	C	0.146580	-0.218494	-0.285439
C42	C	0.646580	0.281506	0.214561
O43	O	0.118363	-0.190088	-0.313915
O44	O	0.618363	0.309912	0.186085
N45	N	0.119241	-0.251883	-0.251945
N46	N	0.619241	0.248117	0.248055
C47	C	0.146510	-0.285271	-0.218443
C48	C	0.646510	0.214729	0.281557
O49	O	0.118242	-0.313670	-0.189954
O50	O	0.618242	0.186330	0.310046
C51	C	0.201113	-0.285268	-0.218437
C52	C	0.701113	0.214732	0.281563
C53	C	0.228449	-0.251881	-0.251937
C54	C	0.728449	0.248119	0.248063
C55	C	0.228520	-0.185109	-0.318932
C56	C	0.728520	0.314891	0.181068
C57	C	0.283121	-0.185111	-0.318930
C58	C	0.783121	0.314889	0.181070
C59	C	0.310385	-0.218497	-0.285431
C60	C	0.810385	0.281503	0.214569
C61	C	0.283049	-0.251882	-0.251934
C62	C	0.783049	0.248118	0.248066
C63	C	0.228380	-0.318653	-0.184932
C64	C	0.728380	0.181347	0.315068
C65	C	0.282987	-0.318647	-0.184929
C66	C	0.782987	0.181353	0.315071
C67	C	0.310323	-0.285260	-0.218429
C68	C	0.810323	0.214740	0.281571
C69	C	0.364915	-0.285270	-0.218432
C70	C	0.864915	0.214730	0.281568
N71	N	0.392253	-0.251881	-0.251926
N72	N	0.892253	0.248119	0.248074
C73	C	0.364989	-0.218494	-0.285425
C74	C	0.864989	0.281506	0.214575
C75	C	0.031839	-0.285273	-0.218456
C76	C	0.531839	0.214727	0.281544
C77	C	-0.022763	-0.285279	-0.218464
C78	C	0.477237	0.214721	0.281536
C79	C	-0.022689	-0.218501	-0.285460
C80	C	0.477311	0.281499	0.214540
C81	C	0.031914	-0.218499	-0.285454
C82	C	0.531914	0.281501	0.214546
C83	C	0.059178	-0.251884	-0.251950
C84	C	0.559178	0.248116	0.248050
C85	C	0.479654	-0.218500	-0.285417
C86	C	0.979654	0.281500	0.214583
C87	C	0.534259	-0.218506	-0.285413
C88	C	1.034259	0.281494	0.214587
C89	C	0.534180	-0.285281	-0.218415
C90	C	1.034180	0.214719	0.281585
C91	C	0.479580	-0.285278	-0.218421
C92	C	0.979580	0.214722	0.281579
C93	C	0.452318	-0.251883	-0.251924
C94	C	0.952318	0.248117	0.248076
O95	O	0.393166	-0.313659	-0.189969
O96	O	0.893166	0.186341	0.310031
O97	O	0.393263	-0.190095	-0.313904
O98	O	0.893263	0.309905	0.186096
C99	C	0.755392	-0.387727	-0.251907
C100	C	1.255392	0.112273	0.248093
C101	C	0.755403	-0.445841	-0.251914
C102	C	1.255403	0.054159	0.248086
C103	C	0.789004	-0.806195	-0.218553
C104	C	1.289004	-0.306195	0.281447
C105	C	0.789024	-0.860799	-0.218560
C106	C	1.289024	-0.360799	0.281440
O107	O	0.817502	-0.889028	-0.190169
O108	O	1.317502	-0.389028	0.309831
N109	N	0.755572	-0.888124	-0.251966
N110	N	1.255572	-0.388124	0.248034
C111	C	0.722102	-0.860841	-0.285371
C112	C	1.222102	-0.360841	0.214629
O113	O	0.693651	-0.889096	-0.313786
O114	O	1.193651	-0.389096	0.186214
C115	C	0.722085	-0.806238	-0.285366
C116	C	1.222085	-0.306238	0.214634
C117	C	0.755535	-0.778916	-0.251954
C118	C	1.255535	-0.278916	0.248046
C119	C	0.822452	-0.778873	-0.185144
C120	C	1.322452	-0.278873	0.314856
C121	C	0.822431	-0.724273	-0.185137
C122	C	1.322431	-0.224273	0.314863
C123	C	0.788962	-0.696994	-0.218538
C124	C	1.288962	-0.196994	0.281462
C125	C	0.755514	-0.724315	-0.251946
C126	C	1.255514	-0.224315	0.248054
C127	C	0.688617	-0.778956	-0.318773
C128	C	1.188617	-0.278956	0.181227
C129	C	0.688603	-0.724349	-0.318765
C130	C	1.188603	-0.224349	0.181235
C131	C	0.722053	-0.697027	-0.285354
C132	C	1.222053	-0.197027	0.214646
C133	C	0.722024	-0.642436	-0.285340
C134	C	1.222024	-0.142436	0.214660
N135	N	0.755475	-0.615112	-0.251934
N136	N	1.255475	-0.115112	0.248066
C137	C	0.788944	-0.642390	-0.218533
C138	C	1.288944	-0.142390	0.281467
C139	C	0.722141	-0.975511	-0.285379
C140	C	1.222141	-0.475511	0.214621
C141	C	0.722155	-1.030114	-0.285381
C142	C	1.222155	-0.530114	0.214619
C143	C	0.789078	-1.030068	-0.218571
C144	C	1.289078	-0.530068	0.281429
C145	C	0.789061	-0.975465	-0.218566
C146	C	1.289061	-0.475465	0.281434
C147	C	0.755593	-0.948187	-0.251973
C148	C	1.255593	-0.448187	0.248027
C149	C	0.788897	-0.527725	-0.218519
C150	C	1.288897	-0.027725	0.281481
C151	C	0.788872	-0.473120	-0.218513
C152	C	1.288872	0.026880	0.281487
C153	C	0.721951	-0.473170	-0.285325
C154	C	1.221951	0.026830	0.214675
C155	C	0.721974	-0.527771	-0.285329
C156	C	1.221974	-0.027771	0.214671
C157	C	0.755452	-0.555047	-0.251925
C158	C	1.255452	-0.055047	0.248075
O159	O	0.693562	-0.614173	-0.313718
O160	O	1.193562	-0.114173	0.186282
O161	O	0.817396	-0.614128	-0.190127
O162	O	1.317396	-0.114128	0.309873
C163	C	0.891853	-0.251888	-0.251952
C164	C	1.391853	0.248112	0.248048
C165	C	0.949967	-0.251890	-0.251961
C166	C	1.449967	0.248110	0.248039
C167	C	0.755497	-0.251875	-0.388304
C168	C	1.255497	0.248125	0.111696
C169	C	0.755504	-0.251871	-0.446418
C170	C	1.255504	0.248129	0.053582
C171	C	0.755583	-0.115512	-0.251967
C172	C	1.255583	0.384488	0.248033
C173	C	0.755627	-0.057397	-0.251982
C174	C	1.255627	0.442603	0.248018
C175	C	0.789012	-0.218333	-0.806801
C176	C	1.289012	0.281667	-0.306801
C177	C	0.789019	-0.218318	-0.861405
C178	C	1.289019	0.281682	-0.361405
O179	O	0.817466	-0.189864	-0.889659
O180	O	1.317466	0.310136	-0.389659
N181	N	0.755562	-0.251749	-0.888701
N182	N	1.255562	0.248251	-0.388701
C183	C	0.722093	-0.285192	-0.861389
C184	C	1.222093	0.214808	-0.361389
O185	O	0.693636	-0.313626	-0.889620
O186	O	1.193636	0.186374	-0.389620
C187	C	0.722084	-0.285204	-0.806786
C188	C	1.222084	0.214796	-0.306786
C189	C	0.755547	-0.251775	-0.779493
C190	C	1.255547	0.248225	-0.279493
C191	C	0.822472	-0.184906	-0.779508
C192	C	1.322472	0.315094	-0.279508
C193	C	0.822466	-0.184921	-0.724908
C194	C	1.322466	0.315079	-0.224908
C195	C	0.789001	-0.218363	-0.697600
C196	C	1.289001	0.281637	-0.197600
C197	C	0.755541	-0.251790	-0.724893
C198	C	1.255541	0.248210	-0.224893
C199	C	0.688613	-0.318644	-0.779475
C200	C	1.188613	0.181356	-0.279475
C201	C	0.688607	-0.318653	-0.724868
C202	C	1.188607	0.181347	-0.224868
C203	C	0.722069	-0.285223	-0.697576
C204	C	1.222069	0.214777	-0.197576
C205	C	0.722070	-0.285247	-0.642984
C206	C	1.222070	0.214753	-0.142984
N207	N	0.755526	-0.251817	-0.615689
N208	N	1.255526	0.248183	-0.115689
C209	C	0.788992	-0.218375	-0.642996
C210	C	1.288992	0.281625	-0.142996
C211	C	0.722113	-0.285165	-0.976060
C212	C	1.222113	0.214835	-0.476060
C213	C	0.722124	-0.285157	-1.030662
C214	C	1.222124	0.214843	-0.530662
C215	C	0.789049	-0.218282	-1.030675
C216	C	1.289049	0.281718	-0.530675
C217	C	0.789041	-0.218293	-0.976071
C218	C	1.289041	0.281707	-0.476071
C219	C	0.755570	-0.251735	-0.948764
C220	C	1.255570	0.248265	-0.448764
C221	C	0.788977	-0.218410	-0.528331
C222	C	1.288977	0.281590	-0.028331
C223	C	0.788970	-0.218429	-0.473726
C224	C	1.288970	0.281571	0.026274
C225	C	0.722043	-0.285302	-0.473719
C226	C	1.222043	0.214698	0.026281
C227	C	0.722052	-0.285285	-0.528319
C228	C	1.222052	0.214715	-0.028319
C229	C	0.755521	-0.251834	-0.555624
C230	C	1.255521	0.248166	-0.055624
O231	O	0.693635	-0.313686	-0.614696
O232	O	1.193635	0.186314	-0.114696
O233	O	0.817439	-0.189941	-0.614759
O234	O	1.317439	0.310059	-0.114759
C235	C	0.755494	-0.251856	-0.116089
C236	C	1.255494	0.248144	0.383911
C237	C	0.755588	-0.251713	-0.057975
C238	C	1.255588	0.248287	0.442025
H239	H	0.457322	-0.312470	-0.191149
H240	H	0.957322	0.187530	0.308851
O241	O	0.854933	-0.152433	-0.806111
O242	O	1.354933	0.347567	-0.306111
C243	C	0.884643	-0.122786	-0.890227
C244	C	1.384643	0.377214	-0.390227
C245	C	0.847841	-0.159580	-0.860171
C246	C	1.347841	0.340420	-0.360171
H247	H	0.878931	-0.128559	-0.933940
H248	H	1.378931	0.371441	-0.433940
H249	H	0.875489	-0.080619	-0.879529
H250	H	1.375489	0.419381	-0.379529
H251	H	0.926786	-0.131968	-0.879459
H252	H	1.426786	0.368032	-0.379459
H253	H	0.805686	-0.150446	-0.870923
H254	H	1.305686	0.349554	-0.370923
H255	H	0.857040	-0.201736	-0.870872
H256	H	1.357040	0.298264	-0.370872
O257	O	0.821530	-0.185718	-1.057148
O258	O	1.321530	0.314282	-0.557148
C259	C	0.846948	-0.096774	-1.073895
C260	C	1.346948	0.403226	-0.573895
C261	C	0.810142	-0.133592	-1.043872
C262	C	1.310142	0.366408	-0.543872
H263	H	0.837747	-0.054623	-1.063181
H264	H	1.337747	0.445377	-0.563181
H265	H	0.889109	-0.105912	-1.063157
H266	H	1.389109	0.394088	-0.563157
H267	H	0.841212	-0.102535	-1.117606
H268	H	1.341212	0.397465	-0.617606
H269	H	0.815832	-0.127852	-1.000154
H270	H	1.315832	0.372148	-0.500154
H271	H	0.767995	-0.124445	-1.054653
H272	H	1.267995	0.375555	-0.554653
O273	O	0.560894	-0.186120	-0.317938
O274	O	1.060894	0.313880	0.182062
C275	C	0.645041	-0.156500	-0.347609
C276	C	1.145041	0.343500	0.152391
C277	C	0.614946	-0.193210	-0.310759
C278	C	1.114946	0.306790	0.189241
H279	H	0.688748	-0.162212	-0.341809
H280	H	1.188748	0.337788	0.158191
H281	H	0.634350	-0.165744	-0.389763
H282	H	1.134350	0.334256	0.110237
H283	H	0.634301	-0.114333	-0.338509
H284	H	1.134301	0.385667	0.161491
H285	H	0.625671	-0.235389	-0.319811
H286	H	1.125671	0.264611	0.180189
H287	H	0.625640	-0.183921	-0.268616
H288	H	1.125640	0.316079	0.231384
H289	H	0.661350	-0.702142	-0.345971
H290	H	1.161350	-0.202142	0.154029
O291	O	0.689573	-0.317651	-1.057091
O292	O	1.189573	0.182349	-0.557091
C293	C	0.623215	-0.384004	-1.051300
C294	C	1.123215	0.115996	-0.551300
C295	C	0.660047	-0.347225	-1.021308
C296	C	1.160047	0.152775	-0.521308
H297	H	0.599341	-0.407932	-1.022384
H298	H	1.099341	0.092068	-0.522384
H299	H	0.595859	-0.360020	-1.076846
H300	H	1.095859	0.139980	-0.576846
H301	H	0.647208	-0.411316	-1.076881
H302	H	1.147208	0.088684	-0.576881
H303	H	0.636096	-0.319905	-0.995700
H304	H	1.136096	0.180095	-0.495700
H305	H	0.687404	-0.371242	-0.995795
H306	H	1.187404	0.128758	-0.495795
O307	O	0.821539	-0.185902	-0.554770
O308	O	1.321539	0.314098	-0.054770
C309	C	0.887902	-0.119557	-0.549004
C310	C	1.387902	0.380443	-0.049004
C311	C	0.851058	-0.156350	-0.518999
C312	C	1.351058	0.343650	-0.018999
H313	H	0.911770	-0.095647	-0.520097
H314	H	1.411770	0.404353	-0.020097
H315	H	0.915262	-0.143529	-0.574556
H316	H	1.415262	0.356471	-0.074556
H317	H	0.863918	-0.092228	-0.574581
H318	H	1.363918	0.407772	-0.074581
H319	H	0.875000	-0.183685	-0.493394
H320	H	1.375000	0.316315	0.006606
H321	H	0.823696	-0.132345	-0.493480
H322	H	1.323696	0.367655	0.006520
H323	H	0.816288	-0.191071	-0.953853
H324	H	1.316288	0.308929	-0.453853
H325	H	0.694883	-0.953304	-0.312581
H326	H	1.194883	-0.453304	0.187419
O327	O	0.821482	-0.948903	-0.186057
O328	O	1.321482	-0.448903	0.313943
C329	C	0.828552	-0.887257	-0.115487
C330	C	1.328552	-0.387257	0.384513
C331	C	0.791774	-0.917311	-0.152263
C332	C	1.291774	-0.417311	0.347737
H333	H	0.804549	-0.861698	-0.088162
H334	H	1.304549	-0.361698	0.411838
H335	H	0.852464	-0.916115	-0.091578
H336	H	1.352464	-0.416115	0.408422
H337	H	0.855879	-0.861679	-0.139525
H338	H	1.355879	-0.361679	0.360475
H339	H	0.764415	-0.942889	-0.128265
H340	H	1.264415	-0.442889	0.371735
H341	H	0.767898	-0.888424	-0.176174
H342	H	1.267898	-0.388424	0.323826
O343	O	0.453119	-0.186136	-0.317989
O344	O	0.953119	0.313864	0.182011
C345	C	0.391534	-0.179209	-0.388626
C346	C	0.891534	0.320791	0.111374
C347	C	0.421543	-0.215915	-0.351761
C348	C	0.921543	0.284085	0.148239
H349	H	0.366006	-0.203271	-0.415947
H350	H	0.866006	0.296729	0.084053
H351	H	0.365946	-0.151838	-0.364708
H352	H	0.865946	0.348162	0.135292
H353	H	0.420468	-0.155340	-0.412540
H354	H	0.920468	0.344660	0.087460
H355	H	0.392646	-0.239818	-0.327838
H356	H	0.892646	0.260182	0.172162
H357	H	0.447139	-0.243252	-0.375709
H358	H	0.947139	0.256748	0.124291
H359	H	0.694798	-0.312531	-0.451475
H360	H	1.194798	0.187469	0.048525
H361	H	0.661345	-0.345880	-0.702638
H362	H	1.161345	0.154120	-0.202638
O363	O	0.201754	-0.351069	-0.152439
O364	O	0.701754	0.148931	0.347561
C365	C	0.117612	-0.380652	-0.122714
C366	C	0.617612	0.119348	0.377286
C367	C	0.147700	-0.343921	-0.159551
C368	C	0.647700	0.156079	0.340449
H369	H	0.073905	-0.374878	-0.128444
H370	H	0.573905	0.125122	0.371556
H371	H	0.128287	-0.422836	-0.131817
H372	H	0.628287	0.077164	0.368183
H373	H	0.128377	-0.371409	-0.080579
H374	H	0.628377	0.128591	0.419421
H375	H	0.136952	-0.353118	-0.201698
H376	H	0.636952	0.146882	0.298302
H377	H	0.137022	-0.301749	-0.150402
H378	H	0.637022	0.198251	0.349598
O379	O	0.560648	-0.317786	-0.185932
O380	O	1.060648	0.182214	0.314068
C381	C	0.577274	-0.406679	-0.160364
C382	C	1.077274	0.093321	0.339636
C383	C	0.547274	-0.369931	-0.197194
C384	C	1.047274	0.130069	0.302806
H385	H	0.566464	-0.448845	-0.169449
H386	H	1.066464	0.051155	0.330551
H387	H	0.621001	-0.400984	-0.166121
H388	H	1.121001	0.099016	0.333879
H389	H	0.566540	-0.397406	-0.118225
H390	H	1.066540	0.102594	0.381775
H391	H	0.557964	-0.379181	-0.239347
H392	H	1.057964	0.120819	0.260653
H393	H	0.503554	-0.375632	-0.191391
H394	H	1.003554	0.124368	0.308609
H395	H	0.816333	-1.052289	-0.191376
H396	H	1.316333	-0.552289	0.308624
O397	O	0.821342	-0.446638	-0.185984
O398	O	1.321342	0.053362	0.314016
C399	C	0.846758	-0.429926	-0.097068
C400	C	1.346758	0.070074	0.402932
C401	C	0.809962	-0.459956	-0.133846
C402	C	1.309962	0.040044	0.366154
H403	H	0.837563	-0.440674	-0.054906
H404	H	1.337563	0.059326	0.445094
H405	H	0.888923	-0.440623	-0.106250
H406	H	1.388923	0.059377	0.393750
H407	H	0.841005	-0.386216	-0.102823
H408	H	1.341005	0.113784	0.397177
H409	H	0.815669	-0.503673	-0.128111
H410	H	1.315669	-0.003673	0.371889
H411	H	0.767811	-0.449216	-0.124655
H412	H	1.267811	0.050784	0.375345
H413	H	0.849714	-0.157699	-0.702691
H414	H	1.349714	0.342301	-0.202691
O415	O	0.689641	-1.056570	-0.317882
O416	O	1.189641	-0.556570	0.182118
C417	C	0.623239	-1.050837	-0.384126
C418	C	1.123239	-0.550837	0.115874
C419	C	0.660042	-1.020813	-0.347349
C420	C	1.160042	-0.520813	0.152651
H421	H	0.599291	-1.021941	-0.407951
H422	H	1.099291	-0.521941	0.092049
H423	H	0.647207	-1.076347	-0.411529
H424	H	1.147207	-0.576347	0.088471
H425	H	0.595947	-1.076456	-0.360092
H426	H	1.095947	-0.576456	0.139908
H427	H	0.687341	-0.995166	-0.371341
H428	H	1.187341	-0.495166	0.128659
H429	H	0.636042	-0.995336	-0.319945
H430	H	1.136042	-0.495336	0.180055
H431	H	0.054168	-0.191310	-0.312732
H432	H	0.554168	0.308690	0.187268
O433	O	0.689676	-0.317684	-0.949478
O434	O	1.189676	0.182316	-0.449478
C435	C	0.682584	-0.388316	-0.887853
C436	C	1.182584	0.111684	-0.387853
C437	C	0.719376	-0.351515	-0.917912
C438	C	1.219376	0.148485	-0.417912
H439	H	0.706582	-0.415685	-0.862333
H440	H	1.206582	0.084315	-0.362333
H441	H	0.655264	-0.364351	-0.862252
H442	H	1.155264	0.135649	-0.362252
H443	H	0.658665	-0.412182	-0.916754
H444	H	1.158665	0.087818	-0.416754
H445	H	0.743330	-0.327640	-0.889048
H446	H	1.243330	0.172360	-0.389048
H447	H	0.746662	-0.375510	-0.943521
H448	H	1.246662	0.124490	-0.443521
O449	O	0.656072	-0.805512	-0.351158
O450	O	1.156072	-0.305512	0.148842
C451	C	0.585518	-0.867252	-0.358158
C452	C	1.085518	-0.367252	0.141842
C453	C	0.622334	-0.837201	-0.321418
C454	C	1.122334	-0.337201	0.178582
H455	H	0.558239	-0.892888	-0.334128
H456	H	1.058239	-0.392888	0.165872
H457	H	0.561562	-0.838392	-0.382022
H458	H	1.061562	-0.338392	0.117978
H459	H	0.609528	-0.892752	-0.385533
H460	H	1.109528	-0.392752	0.114467
H461	H	0.598364	-0.811701	-0.294012
H462	H	1.098364	-0.311701	0.205988
H463	H	0.646292	-0.866089	-0.297591
H464	H	1.146292	-0.366089	0.202409
O465	O	-0.049155	-0.186121	-0.318074
O466	O	0.450845	0.313879	0.181926
C467	C	-0.065800	-0.160847	-0.407053
C468	C	0.434200	0.339153	0.092947
C469	C	-0.035803	-0.197555	-0.370180
C470	C	0.464197	0.302445	0.129820
H471	H	-0.055007	-0.170070	-0.449187
H472	H	0.444993	0.329930	0.050813
H473	H	-0.109527	-0.166586	-0.401344
H474	H	0.390473	0.333414	0.098656
H475	H	-0.055045	-0.118677	-0.397918
H476	H	0.444955	0.381323	0.102082
H477	H	-0.046514	-0.239738	-0.379292
H478	H	0.453486	0.260262	0.120708
H479	H	0.007917	-0.191770	-0.375895
H480	H	0.507917	0.308230	0.124105
H481	H	0.305373	-0.157922	-0.346208
H482	H	0.805373	0.342078	0.153792
O483	O	0.689463	-0.554234	-0.317832
O484	O	1.189463	-0.054234	0.182168
C485	C	0.623066	-0.548509	-0.384081
C486	C	1.123066	-0.048509	0.115919
C487	C	0.659861	-0.518481	-0.347301
C488	C	1.159861	-0.018481	0.152699
H489	H	0.599115	-0.519616	-0.407907
H490	H	1.099115	-0.019616	0.092093
H491	H	0.647039	-0.574015	-0.411482
H492	H	1.147039	-0.074015	0.088518
H493	H	0.595776	-0.574133	-0.360050
H494	H	1.095776	-0.074133	0.139950
H495	H	0.687158	-0.492829	-0.371289
H496	H	1.187158	0.007171	0.128711
H497	H	0.635855	-0.493008	-0.319897
H498	H	1.135855	0.006992	0.180103
H499	H	0.054034	-0.312464	-0.191174
H500	H	0.554034	0.187536	0.308826
H501	H	0.694699	-0.450951	-0.312518
H502	H	1.194699	0.049049	0.187482
H503	H	0.305183	-0.345834	-0.157644
H504	H	0.805183	0.154166	0.342356
O505	O	0.689522	-0.317686	-0.554890
O506	O	1.189522	0.182314	-0.054890
C507	C	0.618900	-0.324690	-0.616490
C508	C	1.118900	0.175310	-0.116490
C509	C	0.655723	-0.287943	-0.586447
C510	C	1.155723	0.212057	-0.086447
H511	H	0.591558	-0.300658	-0.642002
H512	H	1.091558	0.199342	-0.142002
H513	H	0.642851	-0.352016	-0.642096
H514	H	1.142851	0.147984	-0.142096
H515	H	0.595007	-0.348606	-0.587578
H516	H	1.095007	0.151394	-0.087578
H517	H	0.679624	-0.263994	-0.615321
H518	H	1.179624	0.236006	-0.115321
H519	H	0.631742	-0.260651	-0.560832
H520	H	1.131742	0.239349	-0.060832
O521	O	0.854879	-0.697655	-0.152701
O522	O	1.354879	-0.197655	0.347299
C523	C	0.884546	-0.613525	-0.123097
C524	C	1.384546	-0.113525	0.376903
C525	C	0.847760	-0.643599	-0.159849
C526	C	1.347760	-0.143599	0.340151
H527	H	0.878811	-0.569815	-0.128871
H528	H	1.378811	-0.069815	0.371129
H529	H	0.875398	-0.624253	-0.080919
H530	H	1.375398	-0.124253	0.419081
H531	H	0.926695	-0.624249	-0.132319
H532	H	1.426695	-0.124249	0.367681
H533	H	0.805599	-0.632891	-0.150674
H534	H	1.305599	-0.132891	0.349326
H535	H	0.856953	-0.632868	-0.202016
H536	H	1.356953	-0.132868	0.297984
H537	H	0.661364	-0.345866	-0.801688
H538	H	1.161364	0.154134	-0.301688
O539	O	-0.049337	-0.317772	-0.186002
O540	O	0.450663	0.182228	0.313998
C541	C	-0.111055	-0.388337	-0.178838
C542	C	0.388945	0.111663	0.321162
C543	C	-0.080987	-0.351580	-0.215665
C544	C	0.419013	0.148420	0.284335
H545	H	-0.136660	-0.415672	-0.202805
H546	H	0.363340	0.084328	0.297195
H547	H	-0.082207	-0.412235	-0.154907
H548	H	0.417793	0.087765	0.345093
H549	H	-0.136588	-0.364284	-0.151531
H550	H	0.363412	0.135716	0.348469
H551	H	-0.055455	-0.375592	-0.243003
H552	H	0.444545	0.124408	0.256997
H553	H	-0.109864	-0.327679	-0.239559
H554	H	0.390136	0.172321	0.260441
H555	H	0.206327	-0.157919	-0.346212
H556	H	0.706327	0.342081	0.153788
H557	H	0.816159	-0.549927	-0.191319
H558	H	1.316159	-0.049927	0.308681
H559	H	0.849709	-0.801078	-0.157945
H560	H	1.349709	-0.301078	0.342055
H561	H	0.816221	-0.191207	-0.451507
H562	H	1.316221	0.308793	0.048493
