data_functionalizedCrystal
_audit_creation_method	'MofGen! by Chris Wilmer'
_symmetry_space_group_name_H-M	'P1'
_symmetry_Int_Tables_number	1
_symmetry_cell_setting	triclinic
loop_
_symmetry_equiv_pos_as_xyz
  x,y,z
_cell_length_a	14.908782
_cell_length_b	29.839131
_cell_length_c	14.908308
_cell_angle_alpha	86.738717
_cell_angle_beta	83.240320
_cell_angle_gamma	86.748562
loop_
_atom_site_label
_atom_site_type_symbol
_atom_site_fract_x
_atom_site_fract_y
_atom_site_fract_z
Zn1	Zn	1.354052	-0.230135	0.431769
Zn2	Zn	1.854052	0.269865	0.931769
Zn3	Zn	1.362637	-0.301165	0.280407
Zn4	Zn	1.862637	0.198835	0.780407
Zn5	Zn	1.211433	-0.221960	0.289175
Zn6	Zn	1.711433	0.278040	0.789175
Zn7	Zn	1.202610	-0.301140	0.440468
Zn8	Zn	1.702610	0.198860	0.940468
O9	O	1.282683	-0.263600	0.360455
O10	O	1.782683	0.236400	0.860455
O11	O	1.481849	-0.242989	0.404381
O12	O	1.981849	0.257011	0.904381
O13	O	1.349865	-0.287247	0.154908
O14	O	1.849865	0.212753	0.654908
O15	O	1.230451	-0.160181	0.308120
O16	O	1.730451	0.339819	0.808120
O17	O	1.488156	-0.295175	0.293176
O18	O	1.988156	0.204825	0.793176
O19	O	1.335232	-0.166187	0.412883
O20	O	1.835232	0.333813	0.912883
O21	O	1.238776	-0.229056	0.161350
O22	O	1.738776	0.270944	0.661350
O23	O	1.083604	-0.229032	0.316554
O24	O	1.583604	0.270968	0.816554
O25	O	1.215414	-0.295132	0.565976
O26	O	1.715414	0.204868	1.065976
O27	O	1.077122	-0.287205	0.427708
O28	O	1.577122	0.212795	0.927708
O29	O	1.326677	-0.242965	0.559585
O30	O	1.826677	0.257035	1.059585
O31	O	1.341310	-0.364025	0.301611
O32	O	1.841310	0.135975	0.801611
O33	O	1.223739	-0.364007	0.419207
O34	O	1.723739	0.135993	0.919207
C35	C	1.047522	-0.257229	0.374027
C36	C	1.547522	0.242771	0.874027
C37	C	0.946918	-0.254515	0.379855
C38	C	1.446918	0.245485	0.879855
C39	C	0.764450	-0.303671	0.274831
C40	C	1.264450	0.196329	0.774831
C41	C	0.669924	-0.301122	0.280304
C42	C	1.169924	0.198878	0.780304
C43	C	0.663338	-0.246871	0.396277
C44	C	1.163338	0.253129	0.896277
C45	C	0.757864	-0.249419	0.390805
C46	C	1.257864	0.250581	0.890805
C47	C	0.808417	-0.277820	0.330079
C48	C	1.308417	0.222180	0.830079
C49	C	0.902945	-0.280366	0.324602
C50	C	1.402945	0.219634	0.824602
C51	C	0.896357	-0.226117	0.440579
C52	C	1.396357	0.273883	0.940579
C53	C	0.801831	-0.223569	0.446052
C54	C	1.301831	0.276431	0.946052
C55	C	1.282522	-0.380317	0.360420
C56	C	1.782522	0.119683	0.860420
C57	C	1.282534	-0.430252	0.360430
C58	C	1.782534	0.069748	0.860430
C59	C	1.344002	-0.739903	0.299301
C60	C	1.844002	-0.239903	0.799301
C61	C	1.344112	-0.927580	0.299330
C62	C	1.844112	-0.427580	0.799330
O63	O	1.396247	-0.951846	0.247329
O64	O	1.896247	-0.451846	0.747329
N65	N	1.282867	-0.951049	0.360512
N66	N	1.782867	-0.451049	0.860512
C67	C	1.221593	-0.927597	0.421696
C68	C	1.721593	-0.427597	0.921696
O69	O	1.169509	-0.951866	0.473742
O70	O	1.669509	-0.451866	0.973742
C71	C	1.221489	-0.739921	0.421671
C72	C	1.721489	-0.239921	0.921671
C73	C	1.282732	-0.716453	0.360478
C74	C	1.782732	-0.216453	0.860478
C75	C	1.405242	-0.716435	0.238115
C76	C	1.905242	-0.216435	0.738115
C77	C	1.405210	-0.669518	0.238105
C78	C	1.905210	-0.169518	0.738105
C79	C	1.343940	-0.646069	0.299282
C80	C	1.843940	-0.146069	0.799282
C81	C	1.282701	-0.669537	0.360468
C82	C	1.782701	-0.169537	0.860468
C83	C	1.160220	-0.716470	0.482858
C84	C	1.660220	-0.216470	0.982858
C85	C	1.160201	-0.669548	0.482848
C86	C	1.660201	-0.169548	0.982848
C87	C	1.221445	-0.646080	0.421655
C88	C	1.721445	-0.146080	0.921655
C89	C	1.221399	-0.599171	0.421636
C90	C	1.721399	-0.099171	0.921636
N91	N	1.282645	-0.575701	0.360453
N92	N	1.782645	-0.075701	0.860453
C93	C	1.343915	-0.599151	0.299276
C94	C	1.843915	-0.099151	0.799276
C95	C	1.221651	-1.026129	0.421704
C96	C	1.721651	-0.526129	0.921704
C97	C	1.221676	-1.073048	0.421709
C98	C	1.721676	-0.573048	0.921709
C99	C	1.344197	-1.073028	0.299344
C100	C	1.844197	-0.573028	0.799344
C101	C	1.344167	-1.026108	0.299335
C102	C	1.844167	-0.526108	0.799335
C103	C	1.282897	-1.002660	0.360521
C104	C	1.782897	-0.502660	0.860521
C105	C	1.343844	-0.500622	0.299260
C106	C	1.843844	-0.000622	0.799260
C107	C	1.343805	-0.453701	0.299253
C108	C	1.843805	0.046299	0.799253
C109	C	1.221288	-0.453726	0.421621
C110	C	1.721288	0.046274	0.921621
C111	C	1.221324	-0.500643	0.421625
C112	C	1.721324	-0.000643	0.921625
C113	C	1.282609	-0.524090	0.360441
C114	C	1.782609	-0.024090	0.860441
O115	O	1.169298	-0.574876	0.473616
O116	O	1.669298	-0.074876	0.973616
O117	O	1.396005	-0.574874	0.247251
O118	O	1.896005	-0.074874	0.747251
C119	C	1.344034	-0.786819	0.299311
C120	C	1.844034	-0.286819	0.799311
C121	C	1.282795	-0.810287	0.360498
C122	C	1.782795	-0.310287	0.860498
C123	C	1.221524	-0.786838	0.421675
C124	C	1.721524	-0.286838	0.921675
C125	C	1.282820	-0.857205	0.360503
C126	C	1.782820	-0.357205	0.860503
C127	C	1.344090	-0.880654	0.299326
C128	C	1.844090	-0.380654	0.799326
C129	C	1.405336	-0.857185	0.238144
C130	C	1.905336	-0.357185	0.738144
C131	C	1.405304	-0.810268	0.238134
C132	C	1.905304	-0.310268	0.738134
C133	C	1.160279	-0.810307	0.482857
C134	C	1.660279	-0.310307	0.982857
C135	C	1.160314	-0.857224	0.482861
C136	C	1.660314	-0.357224	0.982861
C137	C	1.221585	-0.880673	0.421685
C138	C	1.721585	-0.380673	0.921685
C139	C	1.518762	-0.269997	0.346830
C140	C	2.018762	0.230003	0.846830
C141	C	1.619364	-0.272722	0.341024
C142	C	2.119364	0.227278	0.841024
C143	C	1.269104	-0.269958	0.596541
C144	C	1.769104	0.230042	1.096541
C145	C	1.263317	-0.272667	0.697147
C146	C	1.763317	0.227333	1.197147
C147	C	1.282868	-0.146429	0.360509
C148	C	1.782868	0.353571	0.860509
C149	C	1.282947	-0.096497	0.360532
C150	C	1.782947	0.403503	0.860532
C151	C	1.296261	-0.257236	0.125284
C152	C	1.796261	0.242764	0.625284
C153	C	1.302224	-0.254405	0.024669
C154	C	1.802224	0.245595	0.524669
C155	C	1.368299	-0.223426	0.879543
C156	C	1.868299	0.276574	1.379543
C157	C	1.362865	-0.225970	0.974071
C158	C	1.862865	0.274030	1.474071
C159	C	1.247010	-0.280297	0.980733
C160	C	1.747010	0.219703	1.480733
C161	C	1.252445	-0.277753	0.886205
C162	C	1.752445	0.222247	1.386205
C163	C	1.313092	-0.249317	0.835613
C164	C	1.813092	0.250683	1.335613
C165	C	1.318530	-0.246775	0.741083
C166	C	1.818530	0.253225	1.241083
C167	C	1.202672	-0.301099	0.747747
C168	C	1.702672	0.198901	1.247747
C169	C	1.197237	-0.303644	0.842275
C170	C	1.697237	0.196356	1.342275
H171	H	0.634129	-0.322174	0.235318
H172	H	1.134129	0.177826	0.735318
F173	F	1.095063	-0.785357	0.547975
F174	F	1.595063	-0.285357	1.047975
H175	H	1.394086	-1.092128	0.249531
H176	H	1.894086	-0.592128	0.749531
H177	H	0.760658	-0.200447	0.495495
H178	H	1.260658	0.299553	0.995495
H179	H	1.110345	-0.735569	0.532683
H180	H	1.610345	-0.235569	1.032683
F181	F	1.383078	-0.216513	0.687241
F182	F	1.883078	0.283487	1.187241
H183	H	0.944104	-0.303491	0.275154
H184	H	1.444104	0.196509	0.775154
F185	F	1.182465	-0.310555	1.034591
F186	F	1.682465	0.189445	1.534591
F187	F	1.421623	-0.198413	1.020821
F188	F	1.921623	0.301587	1.520821
H189	H	1.171400	-0.434626	0.471428
H190	H	1.671400	0.065374	0.971428
H191	H	0.622161	-0.223752	0.445725
H192	H	1.122161	0.276248	0.945725
F193	F	0.943157	-0.198599	0.499374
F194	F	1.443157	0.301401	0.999374
H195	H	1.147859	-0.326794	0.883479
H196	H	1.647859	0.173206	1.383479
F197	F	1.143920	-0.328660	0.700987
F198	F	1.643920	0.171340	1.200987
F199	F	1.470404	-0.644549	0.172984
F200	F	1.970404	-0.144549	0.672984
H201	H	0.805611	-0.326793	0.225380
H202	H	1.305611	0.173207	0.725380
F203	F	1.408991	-0.428728	0.234120
F204	F	1.908991	0.071272	0.734120
H205	H	1.393750	-0.519707	0.249440
H206	H	1.893750	-0.019707	0.749440
H207	H	1.455140	-0.735522	0.188296
H208	H	1.955140	-0.235522	0.688296
H209	H	1.394037	-1.007003	0.249507
H210	H	1.894037	-0.507003	0.749507
H211	H	1.417685	-0.200275	0.838350
H212	H	1.917685	0.299725	1.338350
F213	F	1.156483	-1.098018	0.486829
F214	F	1.656483	-0.598018	0.986829
F215	F	1.094989	-0.644596	0.547974
F216	F	1.594989	-0.144596	1.047974
F217	F	1.156434	-1.001180	0.486830
F218	F	1.656434	-0.501180	0.986830
F219	F	1.156127	-0.525618	0.486736
F220	F	1.656127	-0.025618	0.986736
H221	H	1.455174	-0.791164	0.188306
H222	H	1.955174	-0.291164	0.688306
H223	H	1.110435	-0.876327	0.532691
H224	H	1.610435	-0.376327	1.032691
F225	F	1.470542	-0.882149	0.173032
F226	F	1.970542	-0.382149	0.673032
