data_functionalizedCrystal
_audit_creation_method	'MofGen! by Chris Wilmer'
_symmetry_space_group_name_H-M	'P1'
_symmetry_Int_Tables_number	1
_symmetry_cell_setting	triclinic
loop_
_symmetry_equiv_pos_as_xyz
  x,y,z
_cell_length_a	10.540539
_cell_length_b	10.489741
_cell_length_c	9.616153
_cell_angle_alpha	89.998052
_cell_angle_beta	89.995174
_cell_angle_gamma	84.532333
loop_
_atom_site_label
_atom_site_type_symbol
_atom_site_fract_x
_atom_site_fract_y
_atom_site_fract_z
O1	O	1.685914	0.179760	-0.115579
O2	O	1.316503	0.196697	-0.115596
O3	O	1.509614	0.002629	-0.115579
O4	O	1.492802	0.373827	-0.115596
O5	O	1.509587	0.002633	0.115712
O6	O	1.316476	0.196701	0.115695
O7	O	1.685887	0.179764	0.115712
Zn8	Zn	1.501177	0.188233	0.152426
Zn9	Zn	1.501212	0.188228	-0.152310
O10	O	1.492776	0.373831	0.115695
C11	C	1.269186	0.195429	0.000047
C12	C	1.128238	0.191629	0.000041
C13	C	0.944793	0.046011	0.000588
C14	C	1.091412	0.049864	0.000052
C15	C	1.066588	0.259850	-0.132036
C16	C	0.920043	0.255011	-0.132132
C17	C	0.919525	0.257900	0.130890
C18	C	1.066507	0.259206	0.132621
C19	C	1.508331	-0.044900	0.000066
C20	C	1.504532	-0.186529	0.000063
C21	C	1.381661	-0.254654	0.000047
C22	C	1.439691	-0.346782	0.114088
C23	C	1.439746	-0.346760	-0.113947
C24	C	1.562613	-0.276791	0.114199
C25	C	1.562651	-0.276760	-0.113939
C26	C	1.620770	-0.368860	0.000130
C27	C	1.733203	0.181032	0.000066
C28	C	1.874152	0.184832	0.000063
C29	C	1.494059	0.421361	0.000047
C30	C	1.497858	0.562990	0.000041
N31	N	1.501163	0.188236	0.360401
N32	N	1.501237	0.188215	-0.360285
C33	C	1.397545	0.291701	0.580761
C34	C	1.397773	0.292088	0.419594
C35	C	1.633890	0.218515	0.418855
C36	C	1.633325	0.219248	0.580073
C37	C	1.473374	0.054153	0.580317
C38	C	1.470328	0.055022	0.419090
H39	H	1.109182	0.212456	-0.230326
H40	H	1.540845	-0.025687	0.378802
N41	N	1.120736	0.193193	0.262053
H42	H	1.049703	0.159215	0.317246
H43	H	1.185032	0.119876	0.234819
N44	N	1.098600	0.396116	0.143188
H45	H	1.153853	0.416368	0.061816
H46	H	1.017375	0.455543	0.142060
H47	H	0.914590	-0.009758	-0.093600
H48	H	0.916190	-0.009992	0.095308
N49	N	1.370811	-0.387837	0.241796
H50	H	1.294538	-0.432864	0.212706
H51	H	1.430447	-0.448074	0.298876
H52	H	1.721885	-0.418297	0.000198
N53	N	1.631379	-0.235947	0.242062
H54	H	1.585295	-0.262007	0.328079
H55	H	1.721425	-0.278587	0.242355
H56	H	1.134009	-0.003815	0.094731
H57	H	1.280637	-0.204991	0.000157
N58	N	1.631484	-0.235647	-0.241643
H59	H	1.585004	-0.260825	-0.327747
H60	H	1.634252	-0.139682	-0.240075
N61	N	1.738613	0.121421	0.368063
H62	H	1.782115	0.076136	0.450319
H63	H	1.700847	0.056791	0.306501
H64	H	1.387752	-0.377720	-0.210369
H65	H	1.657691	0.317055	0.617657
N66	N	1.146730	-0.021747	-0.125564
H67	H	1.075854	-0.055935	-0.180810
H68	H	1.192535	0.038186	-0.185655
H69	H	1.299154	0.273870	0.380075
H70	H	1.415684	0.391551	0.381010
N71	N	0.856964	0.393524	0.132090
H72	H	0.886467	0.439998	0.216366
H73	H	0.881187	0.439161	0.044933
N74	N	1.666882	0.346611	0.365358
H75	H	1.677792	0.405832	0.446398
H76	H	1.748881	0.334516	0.310542
H77	H	1.712959	0.146910	0.619068
H78	H	1.298618	0.273762	0.619569
N79	N	1.347861	0.015991	0.634227
H80	H	1.307788	0.085228	0.697710
H81	H	1.288952	0.004160	0.553388
N82	N	1.420994	0.422719	0.634328
H83	H	1.498487	0.415328	0.696625
H84	H	1.435825	0.480671	0.553243
N85	N	1.340949	0.024656	0.368586
H86	H	1.302466	0.096873	0.307928
H87	H	1.350312	-0.057425	0.313057
N88	N	1.573511	-0.047883	0.630808
H89	H	1.636628	-0.007538	0.691858
H90	H	1.531363	-0.114127	0.685934
H91	H	0.891838	0.204586	-0.230856
H92	H	1.088954	0.363958	-0.136955
N93	N	0.856480	0.390042	-0.140092
H94	H	0.800996	0.408271	-0.055425
H95	H	0.923758	0.452383	-0.143574
N96	N	0.877736	0.197138	0.263512
H97	H	0.781696	0.200083	0.265379
H98	H	0.915748	0.105130	0.267796
