data_functionalizedCrystal
_audit_creation_method	'MofGen! by Chris Wilmer'
_symmetry_space_group_name_H-M	'P1'
_symmetry_Int_Tables_number	1
_symmetry_cell_setting	triclinic
loop_
_symmetry_equiv_pos_as_xyz
  x,y,z
_cell_length_a	16.992694
_cell_length_b	19.188930
_cell_length_c	16.053802
_cell_angle_alpha	92.551696
_cell_angle_beta	87.249047
_cell_angle_gamma	86.906503
loop_
_atom_site_label
_atom_site_type_symbol
_atom_site_fract_x
_atom_site_fract_y
_atom_site_fract_z
O1	O	1.043197	0.145267	-0.069340
O2	O	0.814918	0.143642	-0.069364
O3	O	0.935644	0.043185	-0.069335
O4	O	0.922471	0.245724	-0.069369
O5	O	0.928999	0.048690	0.069522
O6	O	0.808273	0.149147	0.069493
O7	O	1.036552	0.150772	0.069517
Zn8	Zn	0.921357	0.150834	0.091552
Zn9	Zn	0.930113	0.143581	-0.091399
O10	O	0.915826	0.251229	0.069488
C11	C	0.782390	0.144306	0.000061
C12	C	0.695368	0.138072	0.000053
C13	C	0.644922	0.198212	0.000043
C14	C	0.563155	0.192351	0.000056
C15	C	0.531836	0.126351	0.000072
C16	C	0.582288	0.066208	0.000084
C17	C	0.664054	0.072069	0.000077
C18	C	0.288320	0.102059	0.000098
C19	C	0.206548	0.096203	0.000102
C20	C	0.187420	0.222347	0.000076
C21	C	0.269188	0.228202	0.000064
C22	C	0.319633	0.168059	0.000081
N23	N	0.448257	0.120359	0.000082
N24	N	0.403210	0.174051	0.000076
C25	C	0.931895	0.019902	0.000096
C26	C	0.930614	-0.057677	0.000103
C27	C	1.001452	-0.098456	0.000114
C28	C	1.000250	-0.171350	0.000101
C29	C	0.928204	-0.203463	0.000093
C30	C	0.857356	-0.162676	0.000076
C31	C	0.858561	-0.089783	0.000081
N32	N	0.870872	-0.312817	0.047342
N33	N	0.869732	-0.382063	0.047339
C34	C	0.924569	-0.423085	0.000075
N35	N	0.980600	-0.392247	-0.047175
N36	N	0.981742	-0.322995	-0.047168
C37	C	0.926889	-0.282503	0.000086
C38	C	0.994108	-0.542905	0.000071
C39	C	0.992903	-0.615801	0.000052
C40	C	0.850007	-0.607124	0.000036
C41	C	0.851215	-0.534230	0.000046
C42	C	0.923267	-0.502125	0.000068
C43	C	1.069080	0.150109	0.000090
C44	C	1.156102	0.156342	0.000093
C45	C	0.919575	0.274513	0.000055
C46	C	0.920856	0.352091	0.000043
N47	N	0.915388	0.155784	0.216410
N48	N	0.936088	0.138625	-0.216258
C49	C	0.966776	0.113057	0.260117
C50	C	0.962607	0.116526	0.347523
C51	C	0.907054	0.162727	0.391220
C52	C	0.855661	0.205456	0.347508
C53	C	0.859826	0.201983	0.260104
C54	C	0.888860	0.177881	0.652626
C55	C	0.884700	0.181353	0.740036
C56	C	0.991646	0.092421	0.740045
C57	C	0.995810	0.088955	0.652639
C58	C	0.944414	0.131681	0.608934
N59	N	0.902794	0.166276	0.480563
N60	N	0.948671	0.128128	0.519593
H61	H	0.146339	0.271312	0.000064
H62	H	0.181053	0.042455	0.000114
C63	C	0.794551	0.256279	0.395571
C64	C	0.790002	0.260141	0.491712
C65	C	0.728892	0.310967	0.539772
C66	C	0.672331	0.357932	0.491691
C67	C	0.676878	0.354071	0.395544
C68	C	0.737988	0.303245	0.347484
H69	H	0.831874	0.225374	0.527309
H70	H	0.725527	0.313825	0.610946
H71	H	0.627094	0.395556	0.527268
H72	H	0.635006	0.388839	0.359947
H73	H	0.741353	0.300388	0.276310
C74	C	0.507660	0.258503	0.000040
C75	C	0.445380	0.274684	0.072147
C76	C	0.389884	0.340839	0.072133
C77	C	0.396668	0.390812	0.000011
C78	C	0.458951	0.374632	-0.072102
C79	C	0.514447	0.308478	-0.072087
H80	H	0.440356	0.237690	0.125541
H81	H	0.343778	0.352816	0.125516
H82	H	0.355586	0.439783	-0.000000
H83	H	0.463975	0.411626	-0.125496
H84	H	0.560553	0.296501	-0.125470
C85	C	1.056914	0.038131	0.604568
C86	C	1.113444	-0.008874	0.652636
C87	C	1.174550	-0.059695	0.604562
C88	C	1.179127	-0.063511	0.508421
C89	C	1.122595	-0.016504	0.460348
C90	C	1.061489	0.034317	0.508422
H91	H	1.110057	-0.006051	0.723810
H92	H	1.216398	-0.094493	0.640150
H93	H	1.224361	-0.101132	0.472834
H94	H	1.125982	-0.019327	0.389174
H95	H	1.019641	0.069115	0.472834
C96	C	0.778104	-0.197996	0.000069
C97	C	0.700179	-0.153137	0.000057
C98	C	0.620925	-0.188456	0.000046
C99	C	0.619595	-0.268635	0.000046
C100	C	0.697523	-0.313499	0.000058
C101	C	0.776778	-0.278180	0.000069
H102	H	0.701161	-0.093779	0.000057
H103	H	0.563237	-0.155244	0.000037
H104	H	0.560926	-0.294781	0.000037
H105	H	0.696541	-0.372857	0.000058
H106	H	0.834465	-0.311392	0.000078
C107	C	0.343800	0.035900	0.000104
C108	C	0.337001	-0.014083	0.072214
C109	C	0.392484	-0.080247	0.072217
C110	C	0.454765	-0.096427	0.000110
C111	C	0.461566	-0.046442	-0.072005
C112	C	0.406084	0.019722	-0.072008
H113	H	0.290895	-0.002107	0.125596
H114	H	0.387449	-0.117249	0.125602
H115	H	0.495837	-0.145405	0.000113
H116	H	0.507673	-0.058418	-0.125387
H117	H	0.411119	0.056724	-0.125393
C118	C	1.073362	-0.507581	0.000083
C119	C	1.090390	-0.455818	0.072197
C120	C	1.169643	-0.420496	0.072209
C121	C	1.231868	-0.436937	0.000106
C122	C	1.214841	-0.488702	-0.072013
C123	C	1.135588	-0.524024	-0.072025
H124	H	1.044327	-0.443646	0.125577
H125	H	1.182248	-0.382176	0.125597
H126	H	1.290536	-0.410789	0.000115
H127	H	1.260905	-0.500874	-0.125393
H128	H	1.122984	-0.562344	-0.125413
C129	C	1.078176	-0.216218	0.000122
C130	C	1.157429	-0.180903	0.000147
C131	C	1.235354	-0.225768	0.000171
C132	C	1.234026	-0.305947	0.000170
C133	C	1.154770	-0.341266	0.000145
C134	C	1.076845	-0.296401	0.000121
H135	H	1.158414	-0.121546	0.000148
H136	H	1.294025	-0.199623	0.000190
H137	H	1.291711	-0.339159	0.000188
H138	H	1.153784	-0.400623	0.000144
H139	H	1.018174	-0.322547	0.000102
H140	H	0.800874	-0.056581	0.000072
H141	H	0.817980	0.236775	0.224519
H142	H	0.670415	0.251956	0.000030
C143	C	0.773289	-0.489370	0.000048
C144	C	0.717627	-0.498661	-0.072061
C145	C	0.639697	-0.453801	-0.072062
C146	C	0.617427	-0.399651	0.000047
C147	C	0.673090	-0.390357	0.072161
C148	C	0.751020	-0.435217	0.072161
H149	H	0.734112	-0.538749	-0.125445
H150	H	0.598492	-0.460681	-0.125446
H151	H	0.559738	-0.366443	0.000046
H152	H	0.656606	-0.350269	0.125544
H153	H	0.792225	-0.428337	0.125545
H154	H	0.294682	0.281946	0.000042
H155	H	0.556782	0.012469	0.000109
C156	C	1.027886	0.062234	0.212054
C157	C	1.084408	0.015232	0.260135
C158	C	1.145518	-0.035595	0.212075
C159	C	1.150106	-0.039419	0.115934
C160	C	1.093583	0.007585	0.067847
C161	C	1.032473	0.058411	0.115907
H162	H	1.081013	0.018061	0.331309
H163	H	1.187360	-0.070390	0.247672
H164	H	1.195343	-0.077044	0.080357
H165	H	1.096977	0.004755	-0.003327
H166	H	0.990630	0.093206	0.080310
C167	C	1.048173	0.045419	0.788120
C168	C	1.014865	-0.007307	0.848226
C169	C	1.071394	-0.054315	0.896300
C170	C	1.161230	-0.048596	0.884269
C171	C	1.194542	0.004132	0.824160
C172	C	1.138014	0.051139	0.776086
H173	H	0.948359	-0.011542	0.857135
H174	H	1.046733	-0.093348	0.940796
H175	H	1.203075	-0.083394	0.919856
H176	H	1.261048	0.008367	0.815251
H177	H	1.162675	0.090172	0.731589
H178	H	0.705127	0.023097	0.000084
H179	H	1.060123	-0.072320	0.000129
H180	H	0.847013	0.212672	0.617048
H181	H	0.839460	0.218978	0.775611
H182	H	1.050591	-0.649002	0.000057
H183	H	0.791346	-0.633270	0.000025
H184	H	1.004451	0.081734	0.383108
