data_functionalizedCrystal
_audit_creation_method	'MofGen! by Chris Wilmer'
_symmetry_space_group_name_H-M	'P1'
_symmetry_Int_Tables_number	1
_symmetry_cell_setting	triclinic
loop_
_symmetry_equiv_pos_as_xyz
  x,y,z
_cell_length_a	14.971482
_cell_length_b	14.044220
_cell_length_c	14.048226
_cell_angle_alpha	89.992807
_cell_angle_beta	89.994098
_cell_angle_gamma	88.400743
loop_
_atom_site_label
_atom_site_type_symbol
_atom_site_fract_x
_atom_site_fract_y
_atom_site_fract_z
O1	O	1.196680	0.123521	-0.079151
O2	O	1.696680	0.623521	0.420849
O3	O	0.937445	0.138318	-0.079156
O4	O	1.437445	0.638318	0.420844
O5	O	1.063171	-0.007069	-0.079144
O6	O	1.563171	0.492931	0.420856
O7	O	1.070953	0.268909	-0.079163
O8	O	1.570953	0.768909	0.420837
O9	O	1.063154	-0.007078	0.079177
O10	O	1.563154	0.492922	0.579177
O11	O	0.937428	0.138310	0.079165
O12	O	1.437428	0.638310	0.579165
O13	O	1.196663	0.123512	0.079170
O14	O	1.696663	0.623512	0.579170
Zn15	Zn	1.067042	0.130910	0.104305
Zn16	Zn	1.567042	0.630910	0.604305
Zn17	Zn	1.067065	0.130921	-0.104290
Zn18	Zn	1.567065	0.630921	0.395710
O19	O	1.070936	0.268900	0.079159
O20	O	1.570936	0.768900	0.579159
C21	C	0.904059	0.137653	0.000004
C22	C	1.404059	0.637653	0.500004
C23	C	0.804606	0.135672	0.000003
C24	C	1.304606	0.635672	0.500003
C25	C	0.757879	0.134734	0.086305
C26	C	1.257879	0.634734	0.586305
C27	C	0.664432	0.132857	0.086306
C28	C	1.164432	0.632857	0.586306
C29	C	0.617715	0.131925	0.000004
C30	C	1.117715	0.631925	0.500004
C31	C	0.664449	0.132860	-0.086305
C32	C	1.164449	0.632860	0.413695
C33	C	0.757894	0.134730	-0.086305
C34	C	1.257894	0.634730	0.413695
C35	C	0.469680	0.128965	-0.086298
C36	C	0.969680	0.628965	0.413702
C37	C	0.376229	0.127097	-0.086299
C38	C	0.876229	0.627097	0.413701
C39	C	0.376219	0.127092	0.086312
C40	C	0.876219	0.627092	0.586312
C41	C	0.469664	0.128962	0.086312
C42	C	0.969664	0.628962	0.586312
C43	C	0.516391	0.129899	0.000003
C44	C	1.016391	0.629899	0.500003
C45	C	1.059756	-0.042392	0.000017
C46	C	1.559756	0.457608	0.500017
C47	C	1.049595	-0.147629	0.000018
C48	C	1.549595	0.352371	0.500018
C49	C	1.031018	-0.340311	0.000004
C50	C	1.531018	0.159689	0.500004
C51	C	1.103085	-0.397864	0.000002
C52	C	1.603085	0.102136	0.500002
C53	C	1.092749	-0.505079	-0.000005
C54	C	1.592749	-0.005079	0.499995
C55	C	1.041353	-0.233086	0.000012
C56	C	1.541353	0.266914	0.500012
C57	C	1.230048	0.124178	0.000008
C58	C	1.730048	0.624178	0.500008
C59	C	1.329501	0.126159	0.000003
C60	C	1.829501	0.626159	0.500003
C61	C	1.074351	0.304223	-0.000005
C62	C	1.574351	0.804223	0.499995
C63	C	1.084513	0.409460	-0.000012
C64	C	1.584513	0.909460	0.499988
N65	N	1.067033	0.130901	0.246666
N66	N	1.567033	0.630901	0.746666
N67	N	1.067081	0.130922	-0.246651
N68	N	1.567081	0.630922	0.253349
C69	C	1.122726	0.066550	0.296489
C70	C	1.622726	0.566550	0.796489
C71	C	1.122732	0.066550	0.396146
C72	C	1.622732	0.566550	0.896146
C73	C	1.067049	0.130906	0.445979
C74	C	1.567049	0.630906	0.945979
C75	C	1.011350	0.195260	0.396149
C76	C	1.511350	0.695260	0.896149
C77	C	1.011340	0.195255	0.296493
C78	C	1.511340	0.695255	0.796493
C79	C	1.011377	0.195267	0.603863
C80	C	1.511377	0.695267	1.103863
C81	C	1.011388	0.195273	0.703526
C82	C	1.511388	0.695273	1.203526
C83	C	1.122769	0.066561	0.703517
C84	C	1.622769	0.566561	1.203517
C85	C	1.122759	0.066557	0.603861
C86	C	1.622759	0.566557	1.103861
C87	C	1.067061	0.130912	0.554037
C88	C	1.567061	0.630912	1.054037
H89	H	0.795909	0.135501	0.156582
H90	H	1.295909	0.635501	0.656582
C91	C	0.521078	0.130000	-0.181243
C92	C	1.021078	0.630000	0.318757
N93	N	0.559791	0.130787	-0.252755
N94	N	1.059791	0.630787	0.247245
H95	H	0.966008	0.247656	0.436728
H96	H	1.466008	0.747656	0.936728
H97	H	1.172547	-0.366615	-0.000060
H98	H	1.672547	0.133385	0.499940
H99	H	0.338194	0.126339	-0.156573
H100	H	0.838194	0.626339	0.343427
C101	C	0.950082	0.266054	0.241688
C102	C	1.450082	0.766054	0.741688
N103	N	0.903940	0.319382	0.200410
N104	N	1.403940	0.819382	0.700410
H105	H	0.961562	-0.371558	0.000000
H106	H	1.461562	0.128442	0.500000
C107	C	1.183982	-0.004248	0.241682
C108	C	1.683982	0.495752	0.741682
N109	N	1.230119	-0.057578	0.200405
N110	N	1.730119	0.442422	0.700405
C111	C	1.183976	-0.004264	0.450948
C112	C	1.683976	0.495736	0.950948
N113	N	1.230098	-0.057614	0.492223
N114	N	1.730098	0.442386	0.992223
H115	H	0.338169	0.126330	0.156588
H116	H	0.838169	0.626330	0.656588
H117	H	0.626392	0.132078	0.156582
H118	H	1.126392	0.632078	0.656582
H119	H	0.966018	0.247669	0.563300
H120	H	1.466018	0.747669	1.063300
H121	H	1.168104	0.014158	0.563287
H122	H	1.668104	0.514158	1.063287
H123	H	0.626405	0.132095	-0.156573
H124	H	1.126405	0.632095	0.343427
C125	C	0.521051	0.129989	0.181249
C126	C	1.021051	0.629989	0.681249
N127	N	0.559756	0.130758	0.252756
N128	N	1.059756	0.630758	0.752756
C129	C	1.184034	-0.004234	0.758324
C130	C	1.684034	0.495766	1.258324
N131	N	1.230178	-0.057553	0.799609
N132	N	1.730178	0.442447	1.299609
H133	H	0.795938	0.135496	-0.156581
H134	H	1.295938	0.635496	0.343419
C135	C	0.950128	0.266062	0.758340
C136	C	1.450128	0.766062	1.258340
N137	N	0.903985	0.319380	0.799625
N138	N	1.403985	0.819380	1.299625
