data_functionalizedCrystal
_audit_creation_method	'MofGen! by Chris Wilmer'
_symmetry_space_group_name_H-M	'P1'
_symmetry_Int_Tables_number	1
_symmetry_cell_setting	triclinic
loop_
_symmetry_equiv_pos_as_xyz
  x,y,z
_cell_length_a	16.120530
_cell_length_b	18.050590
_cell_length_c	18.050571
_cell_angle_alpha	89.911758
_cell_angle_beta	87.036394
_cell_angle_gamma	87.114013
loop_
_atom_site_label
_atom_site_type_symbol
_atom_site_fract_x
_atom_site_fract_y
_atom_site_fract_z
Zn1	Zn	1.274992	-0.352840	-0.477429
Zn2	Zn	1.274797	-0.477155	-0.353228
Zn3	Zn	1.135462	-0.346688	-0.346958
Zn4	Zn	1.135546	-0.470692	-0.471095
O5	O	1.205199	-0.411844	-0.412178
O6	O	1.391637	-0.374610	-0.466229
O7	O	1.256197	-0.459979	-0.248466
O8	O	1.154018	-0.243582	-0.364292
O9	O	1.391494	-0.465944	-0.374979
O10	O	1.256530	-0.248102	-0.460149
O11	O	1.153828	-0.364125	-0.243860
O12	O	1.018802	-0.357858	-0.358150
O13	O	1.154161	-0.454929	-0.575865
O14	O	1.018864	-0.448963	-0.449353
O15	O	1.256611	-0.368343	-0.580519
O16	O	1.256278	-0.580221	-0.368837
O17	O	1.153971	-0.575472	-0.455433
C18	C	0.988582	-0.402042	-0.402384
C19	C	0.895912	-0.397867	-0.398212
C20	C	0.726243	-0.390226	-0.390602
C21	C	0.684996	-0.433516	-0.433808
C22	C	0.590587	-0.429265	-0.429573
C23	C	0.820661	-0.394476	-0.394835
C24	C	1.205135	-0.604793	-0.412145
C25	C	1.205184	-0.687341	-0.412160
C26	C	1.260934	-0.889352	-0.365143
C27	C	1.281359	-0.939537	-0.433845
C28	C	1.205231	-0.838474	-0.412191
C29	C	1.184892	-0.935374	-0.343524
C30	C	1.205279	-0.984461	-0.412216
C31	C	1.225695	-0.887573	-0.480930
C32	C	1.129192	-0.883404	-0.390562
C33	C	1.149588	-0.933565	-0.459309
C34	C	1.205206	-0.754374	-0.412176
C35	C	1.205304	-1.068558	-0.412239
C36	C	1.422663	-0.421685	-0.422010
C37	C	1.515333	-0.425878	-0.426199
C38	C	1.205417	-0.411601	-0.605894
C39	C	1.205510	-0.411498	-0.688444
C40	C	1.205286	-0.218142	-0.412228
C41	C	1.205324	-0.135598	-0.412249
C42	C	1.205030	-0.412034	-0.219217
C43	C	1.205099	-0.411936	-0.136675
C44	C	1.149201	-0.359951	0.065253
C45	C	1.225169	-0.344680	0.111037
C46	C	1.205239	-0.411788	0.014449
C47	C	1.129410	-0.426880	0.115739
C48	C	1.205368	-0.411643	0.160428
C49	C	1.281246	-0.396484	0.059144
C50	C	1.185436	-0.478714	0.063844
C51	C	1.261456	-0.463471	0.109604
C52	C	1.205164	-0.411869	-0.069646
C53	C	1.205452	-0.411563	0.244520
H54	H	1.308057	-0.869857	-0.325400
N55	N	0.681614	-0.339724	-0.340209
N56	N	0.691282	-0.271623	-0.345675
H57	H	0.659756	-0.235956	-0.310084
N58	N	1.321051	-0.518378	0.133968
N59	N	1.379545	-0.499693	0.171567
H60	H	1.421637	-0.538467	0.188776
N61	N	1.163283	-0.961736	-0.270657
N62	N	1.148441	-0.916726	-0.218521
H63	H	1.133185	-0.935341	-0.167057
N64	N	1.089768	-0.305001	0.040695
N65	N	1.079764	-0.296619	-0.027069
H66	H	1.037793	-0.257809	-0.044416
H67	H	1.345446	-0.383592	0.034493
H68	H	1.242854	-0.866636	-0.539058
N69	N	1.164312	-0.549773	0.037780
N70	N	1.095508	-0.574743	0.056870
H71	H	1.080581	-0.624929	0.038463
N72	N	1.362048	-0.970362	-0.456782
N73	N	1.423447	-0.957381	-0.420184
H74	H	1.480433	-0.979163	-0.436369
N75	N	1.048893	-0.442960	0.146780
N76	N	0.987172	-0.401168	0.133751
H77	H	0.930306	-0.412517	0.155673
H78	H	0.720588	-0.473770	-0.473979
H79	H	1.064886	-0.858844	-0.372234
N80	N	1.090521	-0.957847	-0.509300
N81	N	1.098163	-0.942089	-0.576683
H82	H	1.056450	-0.959239	-0.611991
H83	H	1.241981	-0.288020	0.131802
