data_functionalizedCrystal
_audit_creation_method	'MofGen! by Chris Wilmer'
_symmetry_space_group_name_H-M	'P1'
_symmetry_Int_Tables_number	1
_symmetry_cell_setting	triclinic
loop_
_symmetry_equiv_pos_as_xyz
  x,y,z
_cell_length_a	6.817900
_cell_length_b	16.305550
_cell_length_c	11.102288
_cell_angle_alpha	93.871970
_cell_angle_beta	108.605689
_cell_angle_gamma	103.455250
loop_
_atom_site_label
_atom_site_type_symbol
_atom_site_fract_x
_atom_site_fract_y
_atom_site_fract_z
V1	V	-4.052585	-0.263031	-0.176912
O2	O	-4.012740	-0.258024	0.007398
O3	O	-4.029765	-0.261233	-0.349725
O4	O	-4.003658	-0.377749	-0.174675
O5	O	-4.039028	-0.140702	-0.168864
V6	V	-4.532967	-0.248400	-0.154809
O7	O	-4.320734	-0.295127	-0.225396
O8	O	-4.715015	-0.216304	-0.106325
O9	O	-4.332580	-0.250199	0.018004
O10	O	-4.690209	-0.253407	-0.339118
O11	O	-4.663921	-0.370729	-0.162856
O12	O	-4.358687	-0.133683	-0.157046
C13	C	-3.881006	-0.257083	-0.391838
C14	C	-3.943632	-0.256377	-0.533118
C15	C	-4.156118	-0.260254	-0.605982
C16	C	-4.214953	-0.259597	-0.738730
C17	C	-3.848792	-0.251183	-0.725738
C18	C	-3.789964	-0.251846	-0.592993
C19	C	-3.847703	-0.405710	-0.168542
C20	C	-3.889152	-0.499492	-0.167857
C21	C	-4.039844	-0.840237	-0.165201
C22	C	-3.802622	-0.799308	-0.157315
C23	C	-3.759612	-0.701814	-0.158554
C24	C	-3.965082	-0.671189	-0.166518
C25	C	-4.150803	-0.721816	-0.292033
C26	C	-4.192561	-0.819365	-0.291323
C27	C	-4.077235	-0.794394	-0.048574
C28	C	-4.029158	-0.696551	-0.047581
C29	C	-3.922844	-0.575651	-0.167267
C30	C	-4.082092	-0.935776	-0.164460
C31	C	-4.144682	-0.254346	0.060110
C32	C	-4.061295	-0.255057	0.201389
C33	C	-4.177985	-0.105717	-0.163182
C34	C	-4.115773	-0.011935	-0.163861
H35	H	-4.387975	-0.262756	-0.798051
H36	H	-3.723689	-0.247491	-0.774504
H37	H	-4.305502	-0.702903	-0.302400
H38	H	-3.770006	-0.830821	-0.241106
O39	O	-4.094807	-0.699562	-0.409025
H40	H	-3.934879	-0.652487	-0.378084
H41	H	-3.616928	-0.248691	-0.533665
H42	H	-4.368036	-0.847357	-0.302331
O43	O	-3.574229	-0.655411	-0.039030
H44	H	-3.514555	-0.702565	0.020178
O45	O	-4.321846	-0.265149	-0.541394
H46	H	-4.335823	-0.323415	-0.495022
O47	O	-3.644136	-0.815685	-0.037211
H48	H	-3.478045	-0.786204	-0.033838
O49	O	-3.937434	-0.812110	0.077400
H50	H	-3.966782	-0.779097	0.158103
H51	H	-4.176213	-0.675203	-0.046019
H52	H	-3.705805	-0.685520	-0.243312
H53	H	-4.169561	-0.849747	-0.379613
O54	O	-4.306062	-0.829915	-0.054731
H55	H	-4.306186	-0.858016	0.033567
O56	O	-3.850514	-0.651026	0.075405
H57	H	-3.716642	-0.610498	0.051935
