data_functionalizedCrystal
_audit_creation_method	'MofGen! by Chris Wilmer'
_symmetry_space_group_name_H-M	'P1'
_symmetry_Int_Tables_number	1
_symmetry_cell_setting	triclinic
loop_
_symmetry_equiv_pos_as_xyz
  x,y,z
_cell_length_a	9.065218
_cell_length_b	10.654550
_cell_length_c	7.540329
_cell_angle_alpha	89.993514
_cell_angle_beta	90.001757
_cell_angle_gamma	95.249606
loop_
_atom_site_label
_atom_site_type_symbol
_atom_site_fract_x
_atom_site_fract_y
_atom_site_fract_z
O1	O	0.207233	-1.668659	0.147621
O2	O	0.226977	-1.303259	0.147592
O3	O	0.002421	-1.493512	0.147603
O4	O	0.431788	-1.478407	0.147609
O5	O	0.002418	-1.493501	-0.147362
O6	O	0.226974	-1.303248	-0.147374
O7	O	0.207230	-1.668648	-0.147344
Cu8	Cu	0.217101	-1.485947	-0.174292
Cu9	Cu	0.217105	-1.485960	0.174539
O10	O	0.431785	-1.478395	-0.147356
C11	C	-0.052559	-1.492055	0.000123
C12	C	-0.216378	-1.487714	0.000131
C13	C	0.225525	-1.256450	0.000105
C14	C	0.221188	-1.116989	0.000094
C15	C	0.208681	-1.715457	0.000146
C16	C	0.213018	-1.854918	0.000168
C17	C	0.486766	-1.479852	0.000128
C18	C	0.650585	-1.484193	0.000131
C19	C	0.353403	-1.038027	0.000122
C20	C	0.349319	-0.906990	0.000153
C21	C	0.080793	-0.933890	0.000135
C22	C	0.084879	-1.064925	0.000092
C23	C	0.508434	-1.022496	0.000140
C24	C	0.504350	-0.891459	0.000170
N25	N	0.217098	-1.485946	-0.419640
N26	N	0.217096	-1.485971	0.419887
H27	H	-0.022783	-1.129212	0.000044
H28	H	0.562765	-0.849962	0.123623
Cl29	Cl	-0.090557	-0.868428	0.000132
H30	H	0.569065	-1.052062	-0.123309
H31	H	0.557800	-1.058352	0.127489
H32	H	0.551201	-0.845968	-0.127173
