data_functionalizedCrystal
_audit_creation_method	'MofGen! by Chris Wilmer'
_symmetry_space_group_name_H-M	'P1'
_symmetry_Int_Tables_number	1
_symmetry_cell_setting	triclinic
loop_
_symmetry_equiv_pos_as_xyz
  x,y,z
_cell_length_a	10.654550
_cell_length_b	10.723024
_cell_length_c	9.130313
_cell_angle_alpha	89.996649
_cell_angle_beta	89.999724
_cell_angle_gamma	84.476400
loop_
_atom_site_label
_atom_site_type_symbol
_atom_site_fract_x
_atom_site_fract_y
_atom_site_fract_z
O1	O	1.667813	0.175275	-0.121686
O2	O	1.302332	0.191974	-0.121712
O3	O	1.493503	0.002049	-0.121693
O4	O	1.476642	0.365199	-0.121705
O5	O	1.493490	0.002044	0.121906
O6	O	1.302319	0.191968	0.121886
O7	O	1.667800	0.175269	0.121913
Cu8	Cu	1.485058	0.183618	0.144142
Cu9	Cu	1.485074	0.183625	-0.143942
O10	O	1.476629	0.365194	0.121894
C11	C	1.255528	0.190745	0.000084
C12	C	1.116085	0.187077	0.000073
C13	C	1.036583	0.298901	0.000074
C14	C	0.905562	0.295447	0.000100
C15	C	0.933560	0.068334	0.000118
C16	C	1.064577	0.071789	0.000103
C17	C	1.492269	-0.044453	0.000104
C18	C	1.488598	-0.183008	0.000099
C19	C	1.595567	-0.257975	0.000105
C20	C	1.591776	-0.401179	0.000099
C21	C	1.714604	0.176498	0.000114
C22	C	1.854047	0.180167	0.000114
C23	C	1.477863	0.411696	0.000093
C24	C	1.481534	0.550251	0.000089
N25	N	1.485056	0.183613	0.346765
N26	N	1.485085	0.183620	-0.346564
C27	C	1.569736	0.099550	0.423425
C28	C	1.569748	0.099550	0.576762
C29	C	1.400397	0.267687	0.576765
C30	C	1.400380	0.267680	0.423431
H31	H	1.078515	0.392775	0.000061
H32	H	1.389955	-0.385337	0.000094
H33	H	0.840836	0.386506	0.000103
O34	O	1.651852	0.017685	0.349049
C35	C	1.630369	-0.106016	0.386616
H36	H	1.529810	-0.107518	0.428761
H37	H	1.699649	-0.142007	0.475647
C38	C	1.772664	-0.188652	0.198694
C39	C	1.649152	-0.190498	0.250445
H40	H	1.784255	-0.240767	0.114700
H41	H	1.787142	-0.105313	0.173387
H42	H	1.830383	-0.218642	0.272899
H43	H	1.591436	-0.160494	0.176247
H44	H	1.634664	-0.273835	0.275736
H45	H	1.331418	0.336135	0.361009
H46	H	1.394211	-0.224844	0.000083
H47	H	1.689955	-0.216138	0.000121
O48	O	1.652061	0.018066	0.651391
C49	C	1.730136	0.085619	0.740041
H50	H	1.680951	0.182807	0.763011
H51	H	1.823019	0.094960	0.680933
C52	C	1.816804	-0.103859	0.857483
C53	C	1.756389	0.015505	0.885705
H54	H	1.833004	-0.147110	0.947333
H55	H	1.764208	-0.149373	0.797754
H56	H	1.894199	-0.096058	0.808223
H57	H	1.678989	0.007702	0.934948
H58	H	1.808973	0.061016	0.945446
H59	H	1.331457	0.336135	0.639201
H60	H	0.891606	-0.025530	0.000151
O61	O	1.141635	-0.036961	0.000036
C62	C	1.068082	-0.139458	0.000089
H63	H	0.970580	-0.108638	-0.046024
H64	H	1.058461	-0.174739	0.116960
C65	C	1.252195	-0.283245	-0.038800
C66	C	1.132445	-0.245394	-0.095448
H67	H	1.291898	-0.348595	-0.097725
H68	H	1.301751	-0.214192	-0.038830
H69	H	1.244161	-0.312638	0.058592
H70	H	1.140481	-0.215987	-0.192831
H71	H	1.082892	-0.314445	-0.095436
H72	H	1.683350	-0.465598	0.000111
