data_functionalizedCrystal
_audit_creation_method	'MofGen! by Chris Wilmer'
_symmetry_space_group_name_H-M	'P1'
_symmetry_Int_Tables_number	1
_symmetry_cell_setting	triclinic
loop_
_symmetry_equiv_pos_as_xyz
  x,y,z
_cell_length_a	12.827893
_cell_length_b	16.625546
_cell_length_c	12.827885
_cell_angle_alpha	89.964876
_cell_angle_beta	89.980728
_cell_angle_gamma	90.022629
loop_
_atom_site_label
_atom_site_type_symbol
_atom_site_fract_x
_atom_site_fract_y
_atom_site_fract_z
Zn1	Zn	1.597620	-0.320959	-0.590805
Zn2	Zn	1.930954	0.012374	-0.257471
Zn3	Zn	2.264287	0.345708	0.075862
Zn4	Zn	1.597492	-0.455813	-0.416049
Zn5	Zn	1.930825	-0.122480	-0.082715
Zn6	Zn	2.264159	0.210853	0.250618
Zn7	Zn	1.422861	-0.320999	-0.416079
Zn8	Zn	1.756194	0.012335	-0.082745
Zn9	Zn	2.089528	0.345668	0.250588
Zn10	Zn	1.422825	-0.455754	-0.590749
Zn11	Zn	1.756159	-0.122420	-0.257416
Zn12	Zn	2.089492	0.210913	0.075917
O13	O	1.510200	-0.388381	-0.503420
O14	O	1.843533	-0.055048	-0.170087
O15	O	2.176866	0.278285	0.163246
O16	O	1.743839	-0.338856	-0.567633
O17	O	2.077173	-0.005523	-0.234300
O18	O	2.410506	0.327811	0.099033
O19	O	1.574288	-0.437971	-0.269816
O20	O	1.907622	-0.104638	0.063517
O21	O	2.240955	0.228695	0.396850
O22	O	1.446112	-0.208161	-0.439292
O23	O	1.779445	0.125172	-0.105959
O24	O	2.112778	0.458506	0.227374
O25	O	1.743745	-0.437933	-0.439241
O26	O	2.077078	-0.104600	-0.105908
O27	O	2.410412	0.228734	0.227426
O28	O	1.574507	-0.208132	-0.567663
O29	O	1.907840	0.125201	-0.234329
O30	O	2.241173	0.458535	0.099004
O31	O	1.445988	-0.338924	-0.269839
O32	O	1.779321	-0.005590	0.063495
O33	O	2.112654	0.327743	0.396828
O34	O	1.276620	-0.338866	-0.439239
O35	O	1.609954	-0.005533	-0.105905
O36	O	1.943287	0.327801	0.227428
O37	O	1.446051	-0.437831	-0.736993
O38	O	1.779384	-0.104498	-0.403659
O39	O	2.112717	0.228835	-0.070326
O40	O	1.276594	-0.437870	-0.567568
O41	O	1.609927	-0.104537	-0.234235
O42	O	1.943261	0.228797	0.099098
O43	O	1.574472	-0.338798	-0.737033
O44	O	1.907805	-0.005465	-0.403700
O45	O	2.241139	0.327868	-0.070367
O46	O	1.574254	-0.568638	-0.439187
O47	O	1.907587	-0.235305	-0.105854
O48	O	2.240920	0.098029	0.227479
O49	O	1.445927	-0.568594	-0.567539
O50	O	1.779260	-0.235261	-0.234206
O51	O	2.112593	0.098073	0.099128
C52	C	1.238690	-0.388366	-0.503401
C53	C	1.572023	-0.055033	-0.170068
C54	C	1.905356	0.278300	0.163265
C55	C	1.122537	-0.388380	-0.503418
C56	C	1.455870	-0.055046	-0.170085
C57	C	1.789203	0.278287	0.163249
C58	C	1.070737	-0.339324	-0.440029
C59	C	1.404071	-0.005991	-0.106696
C60	C	1.737404	0.327342	0.226638
C61	C	0.950687	-0.339337	-0.440045
C62	C	1.284020	-0.006003	-0.106711
C63	C	1.617354	0.327330	0.226622
C64	C	1.510101	-0.597872	-0.503377
C65	C	1.843434	-0.264539	-0.170043
C66	C	2.176767	0.068794	0.163290
C67	C	1.510154	-0.687493	-0.503393
C68	C	1.843487	-0.354160	-0.170059
C69	C	2.176821	-0.020827	0.163274
C70	C	1.510336	-1.015669	-0.503502
C71	C	1.843670	-0.682335	-0.170168
C72	C	2.177003	-0.349002	0.163165
C73	C	1.510282	-0.924360	-0.503474
C74	C	1.843616	-0.591027	-0.170141
C75	C	2.176949	-0.257694	0.163192
C76	C	1.510244	-0.851584	-0.503447
C77	C	1.843578	-0.518251	-0.170113
C78	C	2.176911	-0.184917	0.163220
C79	C	1.510192	-0.760270	-0.503420
C80	C	1.843525	-0.426936	-0.170087
C81	C	2.176859	-0.093603	0.163246
C82	C	1.782770	-0.388397	-0.503440
C83	C	2.116103	-0.055063	-0.170107
C84	C	2.449436	0.278270	0.163227
C85	C	1.898923	-0.388403	-0.503448
C86	C	2.232256	-0.055070	-0.170115
C87	C	2.565590	0.278263	0.163218
C88	C	1.510272	-0.388304	-0.775991
C89	C	1.843605	-0.054971	-0.442657
C90	C	2.176938	0.278363	-0.109324
C91	C	1.510302	-0.388271	-0.892144
C92	C	1.843636	-0.054938	-0.558811
C93	C	2.176969	0.278396	-0.225477
C94	C	1.510327	-0.178072	-0.503487
C95	C	1.843661	0.155261	-0.170154
C96	C	2.176994	0.488594	0.163180
C97	C	1.510382	-0.088451	-0.503516
C98	C	1.843715	0.244882	-0.170182
C99	C	2.177048	0.578215	0.163151
C100	C	1.446835	-0.339249	-0.943940
C101	C	1.780169	-0.005916	-0.610606
C102	C	2.113502	0.327417	-0.277273
C103	C	1.446866	-0.339214	-1.063990
C104	C	1.780199	-0.005881	-0.730657
C105	C	2.113532	0.327453	-0.397323
C106	C	1.510188	-0.388400	-0.231910
C107	C	1.843521	-0.055067	0.101423
C108	C	2.176855	0.278266	0.434756
C109	C	1.510360	-0.388206	-0.115758
C110	C	1.843693	-0.054873	0.217576
C111	C	2.177026	0.278461	0.550909
H112	H	0.943462	-0.430400	-0.557726
H113	H	1.276796	-0.097066	-0.224392
H114	H	1.610129	0.236267	0.108941
C115	C	1.130878	-0.282568	-0.366701
C116	C	1.464211	0.050766	-0.033368
C117	C	1.797544	0.384099	0.299966
H118	H	1.082812	-0.251794	-0.326931
H119	H	1.416145	0.081539	0.006403
H120	H	1.749478	0.414872	0.339736
H121	H	1.173487	-0.247501	-0.406795
H122	H	1.506820	0.085833	-0.073462
H123	H	1.840153	0.419166	0.259871
H124	H	1.173425	-0.313396	-0.321122
H125	H	1.506758	0.019937	0.012211
H126	H	1.840092	0.353271	0.345544
C127	C	1.373400	-0.282584	-0.883790
C128	C	1.706734	0.050749	-0.550457
C129	C	2.040067	0.384082	-0.217123
H130	H	1.383019	-0.290037	-0.810993
H131	H	1.716353	0.043296	-0.477660
H132	H	2.049686	0.376629	-0.144327
H133	H	1.303167	-0.294359	-0.901617
H134	H	1.636501	0.038974	-0.568283
H135	H	1.969834	0.372308	-0.234950
H136	H	1.388726	-0.228390	-0.901643
H137	H	1.722059	0.104944	-0.568310
H138	H	2.055392	0.438277	-0.234977
H139	H	0.906141	-0.297335	-0.385780
H140	H	1.239474	0.035998	-0.052446
H141	H	1.572808	0.369331	0.280887
C142	C	1.062396	-0.445111	-0.576778
C143	C	1.395730	-0.111778	-0.243445
C144	C	1.729063	0.221556	0.089888
H145	H	1.110462	-0.475884	-0.616549
H146	H	1.443796	-0.142551	-0.283216
H147	H	1.777129	0.190783	0.050117
H148	H	1.019860	-0.414265	-0.622339
H149	H	1.353194	-0.080932	-0.289006
H150	H	1.686527	0.252401	0.044328
H151	H	1.019776	-0.480192	-0.536707
H152	H	1.353109	-0.146859	-0.203373
H153	H	1.686443	0.186475	0.129960
H154	H	1.392534	-0.297242	-1.108533
H155	H	1.725867	0.036092	-0.775200
H156	H	2.059200	0.369425	-0.441866
C157	C	1.583771	-0.444909	-1.055604
C158	C	1.917104	-0.111576	-0.722271
C159	C	2.250437	0.221757	-0.388937
H160	H	1.623614	-0.475638	-1.103656
H161	H	1.956947	-0.142305	-0.770323
H162	H	2.290281	0.191029	-0.436989
H163	H	1.543726	-0.480020	-1.013009
H164	H	1.877059	-0.146687	-0.679675
H165	H	2.210392	0.186647	-0.346342
H166	H	1.629278	-0.414046	-1.013041
H167	H	1.962612	-0.080713	-0.679708
H168	H	2.295945	0.252621	-0.346374
H169	H	1.564660	-0.430215	-0.936676
H170	H	1.897993	-0.096881	-0.603343
H171	H	2.231327	0.236452	-0.270010
