data_functionalizedCrystal
_audit_creation_method	'MofGen! by Chris Wilmer'
_symmetry_space_group_name_H-M	'P1'
_symmetry_Int_Tables_number	1
_symmetry_cell_setting	triclinic
loop_
_symmetry_equiv_pos_as_xyz
  x,y,z
_cell_length_a	10.489741
_cell_length_b	16.992694
_cell_length_c	9.565339
_cell_angle_alpha	89.998463
_cell_angle_beta	90.001269
_cell_angle_gamma	92.396301
loop_
_atom_site_label
_atom_site_type_symbol
_atom_site_fract_x
_atom_site_fract_y
_atom_site_fract_z
O1	O	0.270602	-1.041919	-0.116084
O2	O	0.267633	-0.813617	-0.116125
O3	O	0.083971	-0.932963	-0.116095
O4	O	0.454263	-0.922573	-0.116113
O5	O	0.083985	-0.932953	0.116425
O6	O	0.267647	-0.813607	0.116395
O7	O	0.270616	-1.041909	0.116436
Zn8	Zn	0.269134	-0.927756	0.153333
Zn9	Zn	0.269115	-0.927770	-0.153022
O10	O	0.454277	-0.922563	0.116407
C11	C	0.263821	-0.784378	0.000130
C12	C	0.252425	-0.697269	0.000114
C13	C	0.036378	-0.932173	0.000164
C14	C	-0.105455	-0.929826	0.000161
C15	C	0.274428	-1.071148	0.000179
C16	C	0.285823	-1.158257	0.000185
C17	C	-0.180202	-0.853889	0.000137
C18	C	-0.269196	-0.889756	0.114788
C19	C	-0.269183	-0.889784	-0.114458
C20	C	-0.192582	-0.965723	0.114907
C21	C	-0.192560	-0.965741	-0.114443
C22	C	-0.281523	-1.001663	0.000236
C23	C	0.501870	-0.923353	0.000144
C24	C	0.643704	-0.925701	0.000138
N25	N	0.269146	-0.927753	0.362413
C26	C	0.362375	-0.647650	0.000110
C27	C	0.351660	-0.565803	0.000130
C28	C	0.230995	-0.533577	0.000144
C29	C	0.121037	-0.583203	0.000153
C30	C	0.131753	-0.665048	0.000143
C31	C	0.186582	-0.289728	0.000184
C32	C	0.175874	-0.207876	0.000189
C33	C	0.406498	-0.190482	0.000169
C34	C	0.417203	-0.272330	0.000151
C35	C	0.307246	-0.321949	0.000167
N36	N	0.220040	-0.449916	0.000160
N37	N	0.318202	-0.405608	0.000161
N38	N	0.269093	-0.927779	-0.362101
C39	C	0.354823	-0.873019	0.546772
C40	C	0.238242	-0.856501	0.453548
C41	C	0.385714	-0.944235	0.453567
C42	C	0.152451	-0.911226	0.546727
C43	C	0.300001	-0.998992	0.546754
C44	C	0.183340	-0.982504	0.453572
H45	H	-0.302997	-0.857621	0.211706
H46	H	0.212120	-0.796268	0.412598
H47	H	-0.158951	-0.997822	0.211944
C48	C	0.335343	-1.080337	0.602121
C49	C	0.453246	-1.087843	0.696350
C50	C	0.488606	-1.169188	0.751720
C51	C	0.406063	-1.243028	0.712863
C52	C	0.288153	-1.235525	0.618629
C53	C	0.252793	-1.154180	0.563259
H54	H	0.514356	-1.033180	0.725119
H55	H	0.575892	-1.174741	0.821478
H56	H	0.432239	-1.303244	0.753851
H57	H	0.227043	-1.290188	0.589860
H58	H	0.165507	-1.148626	0.493501
H59	H	-0.325510	-1.064153	0.000311
H60	H	0.441193	-0.525405	0.000125
H61	H	-0.135982	-0.791455	0.000241
C62	C	-0.146841	-1.009116	-0.245374
C63	C	-0.176784	-0.977254	-0.391939
C64	C	-0.131060	-1.020622	-0.522884
C65	C	-0.055392	-1.095852	-0.507264
C66	C	-0.025445	-1.127719	-0.360694
C67	C	-0.071169	-1.084351	-0.229749
H68	H	-0.232802	-0.921561	-0.403507
H69	H	-0.153230	-0.997032	-0.631385
H70	H	-0.021545	-1.127956	-0.604198
H71	H	0.030573	-1.183412	-0.349126
H72	H	-0.048999	-1.107941	-0.121248
H73	H	0.427208	-0.826689	0.587694
C74	C	-0.314822	-0.846372	-0.245405
C75	C	-0.271690	-0.759794	-0.270571
C76	C	-0.317324	-0.716376	-0.401509
C77	C	-0.406089	-0.759536	-0.507281
C78	C	-0.449226	-0.846119	-0.482117
C79	C	-0.403592	-0.889537	-0.351179
H80	H	-0.205976	-0.727840	-0.192270
H81	H	-0.285391	-0.652281	-0.420136
H82	H	-0.439870	-0.727395	-0.604209
H83	H	-0.514940	-0.878073	-0.560419
H84	H	-0.435526	-0.953631	-0.332552
H85	H	0.460633	-0.673881	0.000097
H86	H	0.515461	-0.298562	0.000123
H87	H	0.053820	-0.897226	0.587477
H88	H	0.496019	-0.150074	0.000159
H89	H	0.077609	-0.181642	0.000199
H90	H	0.110780	-1.028804	0.412910
H91	H	0.097046	-0.330119	0.000198
C92	C	-0.011698	-0.547757	0.000166
C93	C	-0.023492	-0.457731	0.000167
C94	C	-0.156230	-0.422288	0.000174
C95	C	-0.277173	-0.476871	0.000181
C96	C	-0.265383	-0.566902	0.000181
C97	C	-0.132645	-0.602346	0.000173
H98	H	0.066041	-0.417320	0.000162
H99	H	-0.164957	-0.355640	0.000174
H100	H	-0.375434	-0.450633	0.000186
H101	H	-0.354916	-0.607313	0.000186
H102	H	-0.123918	-0.668993	0.000173
H103	H	0.484322	-0.958175	0.412672
H104	H	0.042220	-0.705449	0.000146
