data_functionalizedCrystal
_audit_creation_method	'MofGen! by Chris Wilmer'
_symmetry_space_group_name_H-M	'P1'
_symmetry_Int_Tables_number	1
_symmetry_cell_setting	triclinic
loop_
_symmetry_equiv_pos_as_xyz
  x,y,z
_cell_length_a	27.732048
_cell_length_b	13.596369
_cell_length_c	14.519709
_cell_angle_alpha	90.006934
_cell_angle_beta	96.838600
_cell_angle_gamma	90.000164
loop_
_atom_site_label
_atom_site_type_symbol
_atom_site_fract_x
_atom_site_fract_y
_atom_site_fract_z
O1	O	0.641452	-0.081667	-0.109733
O2	O	0.974785	0.251666	0.223601
O3	O	1.308119	0.585000	0.556934
O4	O	0.500738	-0.081697	-0.126418
O5	O	0.834072	0.251636	0.206916
O6	O	1.167405	0.584970	0.540249
O7	O	0.574826	-0.081672	0.016228
O8	O	0.908159	0.251661	0.349562
O9	O	1.241493	0.584994	0.682895
O10	O	0.567364	-0.081692	-0.252379
O11	O	0.900698	0.251642	0.080955
O12	O	1.234031	0.584975	0.414288
O13	O	0.574819	0.081911	0.016236
O14	O	0.908152	0.415244	0.349569
O15	O	1.241485	0.748577	0.682902
O16	O	0.500731	0.081886	-0.126410
O17	O	0.834064	0.415219	0.206923
O18	O	1.167398	0.748553	0.540257
O19	O	0.641445	0.081916	-0.109725
O20	O	0.974778	0.415249	0.223608
O21	O	1.308111	0.748583	0.556941
Zn22	Zn	0.571087	0.107873	-0.118067
Zn23	Zn	0.904420	0.441207	0.215267
Zn24	Zn	1.237753	0.774540	0.548600
Zn25	Zn	0.571096	-0.107654	-0.118076
Zn26	Zn	0.904430	0.225679	0.215257
Zn27	Zn	1.237763	0.559012	0.548590
O28	O	0.567357	0.081891	-0.252371
O29	O	0.900690	0.415225	0.080962
O30	O	1.234024	0.748558	0.414296
C31	C	0.482726	0.000091	-0.126064
C32	C	0.816059	0.333424	0.207270
C33	C	1.149393	0.666757	0.540603
C34	C	0.429066	0.000080	-0.125009
C35	C	0.762400	0.333413	0.208324
C36	C	1.095733	0.666746	0.541658
N37	N	0.571084	0.254965	-0.118059
N38	N	0.904417	0.588298	0.215274
N39	N	1.237750	0.921632	0.548607
N40	N	0.571103	-0.254746	-0.118076
N41	N	0.904437	0.078587	0.215257
N42	N	1.237770	0.411921	0.548590
C43	C	0.090622	0.000117	-0.202664
C44	C	0.423956	0.333450	0.130669
C45	C	0.757289	0.666783	0.464003
C46	C	-0.111056	0.000126	-0.198751
C47	C	0.222277	0.333459	0.134582
C48	C	0.555611	0.666792	0.467916
O49	O	-0.141972	0.000163	-0.269761
O50	O	0.191361	0.333497	0.063572
O51	O	0.524694	0.666830	0.396906
N52	N	-0.130584	0.000130	-0.114168
N53	N	0.202749	0.333463	0.219165
N54	N	0.536083	0.666797	0.552499
C55	C	-0.099689	0.000139	-0.030557
C56	C	0.233644	0.333472	0.302776
C57	C	0.566978	0.666805	0.636109
O58	O	-0.120926	0.000153	0.041476
O59	O	0.212407	0.333486	0.374809
O60	O	0.545740	0.666819	0.708142
C61	C	0.101988	0.000137	-0.034471
C62	C	0.435322	0.333470	0.298862
C63	C	0.768655	0.666803	0.632196
C64	C	0.121513	0.000122	-0.119060
C65	C	0.454847	0.333456	0.214274
C66	C	0.788180	0.666789	0.547607
C67	C	0.110148	0.000103	-0.287246
C68	C	0.443481	0.333437	0.046088
C69	C	0.776814	0.666770	0.379421
C70	C	0.160564	0.000096	-0.288223
C71	C	0.493898	0.333429	0.045110
C72	C	0.827231	0.666762	0.378444
C73	C	0.191455	0.000101	-0.204619
C74	C	0.524789	0.333435	0.128715
C75	C	0.858122	0.666768	0.462048
C76	C	0.171930	0.000115	-0.120037
C77	C	0.505263	0.333448	0.213296
C78	C	0.838597	0.666781	0.546630
C79	C	0.132882	0.000152	0.049139
C80	C	0.466216	0.333485	0.382472
C81	C	0.799549	0.666819	0.715805
C82	C	0.183304	0.000154	0.048153
C83	C	0.516638	0.333487	0.381486
C84	C	0.849971	0.666821	0.714819
C85	C	0.202829	0.000140	-0.036436
C86	C	0.536163	0.333473	0.296897
C87	C	0.869496	0.666806	0.630231
C88	C	0.253238	0.000113	-0.037410
C89	C	0.586571	0.333446	0.295923
C90	C	0.919904	0.666779	0.629257
N91	N	0.272766	0.000108	-0.121993
N92	N	0.606099	0.333442	0.211340
N93	N	0.939432	0.666775	0.544674
C94	C	0.241875	0.000103	-0.205597
C95	C	0.575208	0.333436	0.127736
C96	C	0.908541	0.666769	0.461069
C97	C	-0.205573	0.000138	-0.028508
C98	C	0.127760	0.333471	0.304825
C99	C	0.461094	0.666804	0.638158
C100	C	-0.255992	0.000136	-0.027530
C101	C	0.077341	0.333470	0.305804
C102	C	0.410675	0.666803	0.639137
C103	C	-0.267356	0.000125	-0.195724
C104	C	0.065978	0.333459	0.137610
C105	C	0.399311	0.666792	0.470943
C106	C	-0.216936	0.000120	-0.196702
C107	C	0.116398	0.333453	0.136632
C108	C	0.449731	0.666786	0.469965
C109	C	-0.186045	0.000133	-0.113091
C110	C	0.147288	0.333467	0.220242
C111	C	0.480622	0.666800	0.553575
C112	C	0.347754	0.000086	-0.207643
C113	C	0.681087	0.333419	0.125690
C114	C	1.014420	0.666752	0.459023
C115	C	0.398175	0.000074	-0.208613
C116	C	0.731508	0.333407	0.124720
C117	C	1.064842	0.666741	0.458053
C118	C	0.409534	0.000090	-0.040420
C119	C	0.742868	0.333424	0.292914
C120	C	1.076201	0.666757	0.626247
C121	C	0.359117	0.000097	-0.039449
C122	C	0.692450	0.333430	0.293884
C123	C	1.025784	0.666763	0.627217
C124	C	0.328227	0.000098	-0.123069
C125	C	0.661561	0.333431	0.210265
C126	C	0.994894	0.666764	0.543598
O127	O	0.284182	0.000086	0.033562
O128	O	0.617516	0.333419	0.366895
O129	O	0.950849	0.666753	0.700229
O130	O	0.263121	0.000110	-0.277620
O131	O	0.596455	0.333444	0.055714
O132	O	0.929788	0.666777	0.389047
C133	C	0.040206	0.000124	-0.201687
C134	C	0.373539	0.333458	0.131647
C135	C	0.706872	0.666791	0.464980
C136	C	0.020680	0.000137	-0.117105
C137	C	0.354013	0.333471	0.216228
C138	C	0.687347	0.666804	0.549562
C139	C	0.051571	0.000143	-0.033501
C140	C	0.384904	0.333476	0.299833
C141	C	0.718238	0.666810	0.633166
C142	C	-0.029739	0.000136	-0.116126
C143	C	0.303594	0.333470	0.217207
C144	C	0.636928	0.666803	0.550540
C145	C	-0.060630	0.000131	-0.199731
C146	C	0.272703	0.333464	0.133603
C147	C	0.606037	0.666797	0.466936
C148	C	-0.041102	0.000126	-0.284314
C149	C	0.292231	0.333460	0.049020
C150	C	0.625565	0.666793	0.382353
C151	C	0.009315	0.000119	-0.285291
C152	C	0.342648	0.333452	0.048042
C153	C	0.675981	0.666785	0.381376
C154	C	0.032043	0.000147	0.051082
C155	C	0.365376	0.333481	0.384416
C156	C	0.698710	0.666814	0.717749
C157	C	-0.018374	0.000154	0.052053
C158	C	0.314959	0.333487	0.385386
C159	C	0.648293	0.666821	0.718719
C160	C	-0.049265	0.000148	-0.031552
C161	C	0.284068	0.333482	0.301782
C162	C	0.617402	0.666815	0.635115
C163	C	0.659457	0.000126	-0.110079
C164	C	0.992790	0.333459	0.223254
C165	C	1.326124	0.666793	0.556587
C166	C	0.713117	0.000131	-0.111134
C167	C	1.046450	0.333464	0.222199
C168	C	1.379784	0.666797	0.555533
C169	C	0.574475	0.000119	0.050586
C170	C	0.907808	0.333453	0.383919
C171	C	1.241141	0.666786	0.717252
C172	C	0.573433	0.000120	0.152949
C173	C	0.906766	0.333453	0.486282
C174	C	1.240099	0.666786	0.819615
C175	C	0.571096	0.656256	-0.118077
C176	C	0.904429	0.989589	0.215256
C177	C	1.237762	1.322923	0.548589
C178	C	0.571091	0.544605	-0.118075
C179	C	0.904424	0.877938	0.215258
C180	C	1.237758	1.211271	0.548591
C181	C	0.571090	0.455614	-0.118069
C182	C	0.904423	0.788947	0.215264
C183	C	1.237757	1.122281	0.548598
C184	C	0.571085	0.343956	-0.118066
C185	C	0.904418	0.677289	0.215268
C186	C	1.237751	1.010622	0.548601
C187	C	0.567708	0.000098	-0.286729
C188	C	0.901042	0.333431	0.046605
C189	C	1.234375	0.666764	0.379938
C190	C	0.568751	0.000091	-0.389092
C191	C	0.902084	0.333424	-0.055758
C192	C	1.235417	0.666758	0.277575
C193	C	0.569596	0.000093	0.527778
C194	C	0.902930	0.333427	0.861111
C195	C	1.236263	0.666760	1.194444
C196	C	0.570662	0.000101	0.423488
C197	C	0.903995	0.333434	0.756822
C198	C	1.237328	0.666768	1.090155
C199	C	0.571514	0.000107	0.340367
C200	C	0.904848	0.333441	0.673700
C201	C	1.238181	0.666774	1.007033
C202	C	0.572580	0.000113	0.236071
C203	C	0.905913	0.333446	0.569404
C204	C	1.239247	0.666780	0.902737
H205	H	0.414069	0.000062	-0.277498
H206	H	0.747403	0.333395	0.055835
H207	H	1.080736	0.666728	0.389168
H208	H	-0.292516	0.000121	-0.263798
H209	H	0.040817	0.333454	0.069536
H210	H	0.374151	0.666788	0.402869
H211	H	0.085001	0.000102	-0.355330
H212	H	0.418334	0.333436	-0.021997
H213	H	0.751667	0.666769	0.311337
N214	N	0.442860	0.000104	0.049746
N215	N	0.776194	0.333438	0.383079
N216	N	1.109527	0.666771	0.716413
H217	H	0.436572	0.060752	0.086679
H218	H	0.769905	0.394086	0.420012
H219	H	1.103239	0.727419	0.753345
H220	H	0.436559	-0.060568	0.086616
H221	H	0.769892	0.272765	0.419950
H222	H	1.103226	0.606098	0.753283
N223	N	0.030370	0.000097	-0.376526
N224	N	0.363703	0.333430	-0.043192
N225	N	0.697037	0.666763	0.290141
H226	H	0.003144	0.000093	-0.429333
H227	H	0.336478	0.333426	-0.095999
H228	H	0.669811	0.666760	0.237334
H229	H	0.051043	0.060735	-0.380604
H230	H	0.384376	0.394068	-0.047270
H231	H	0.717710	0.727402	0.286063
H232	H	0.322609	0.000090	-0.275734
H233	H	0.655942	0.333423	0.057599
H234	H	0.989275	0.666756	0.390932
H235	H	-0.180425	0.000149	0.039581
H236	H	0.152908	0.333482	0.372914
H237	H	0.486241	0.666816	0.706248
N238	N	0.181620	0.000075	-0.379458
N239	N	0.514953	0.333409	-0.046124
N240	N	0.848287	0.666742	0.287209
H241	H	0.154394	0.000073	-0.432265
H242	H	0.487728	0.333406	-0.098931
H243	H	0.821061	0.666739	0.234402
H244	H	0.202293	0.060715	-0.383534
H245	H	0.535626	0.394048	-0.050201
H246	H	0.868959	0.727381	0.283132
N247	N	-0.195878	0.000101	-0.287934
N248	N	0.137455	0.333434	0.045399
N249	N	0.470789	0.666768	0.378732
H250	H	-0.223102	0.000093	-0.340744
H251	H	0.110231	0.333427	-0.007411
H252	H	0.443564	0.666760	0.325923
H253	H	-0.175207	0.060743	-0.292010
H254	H	0.158126	0.394077	0.041324
H255	H	0.491459	0.727410	0.374657
H256	H	-0.271885	0.000133	0.041351
H257	H	0.061449	0.333466	0.374684
H258	H	0.394782	0.666799	0.708017
H259	H	-0.066263	0.000118	-0.352387
H260	H	0.267071	0.333451	-0.019054
H261	H	0.600404	0.666784	0.314280
H262	H	-0.034266	0.000158	0.120940
H263	H	0.299067	0.333491	0.454273
H264	H	0.632401	0.666824	0.787607
H265	H	0.116994	0.000165	0.118020
H266	H	0.450328	0.333498	0.451353
H267	H	0.783661	0.666831	0.784686
H268	H	0.208454	0.000166	0.116240
H269	H	0.541787	0.333499	0.449573
H270	H	0.875120	0.666833	0.782907
N271	N	0.338054	0.000093	0.051782
N272	N	0.671387	0.333427	0.385115
N273	N	1.004721	0.666760	0.718449
H274	H	0.365276	0.000091	0.104596
H275	H	0.698609	0.333424	0.437929
H276	H	1.031943	0.666757	0.771262
H277	H	0.317387	0.060742	0.055857
H278	H	0.650720	0.394075	0.389190
H279	H	0.984053	0.727408	0.722523
N280	N	0.065358	0.000160	0.141260
N281	N	0.398691	0.333494	0.474593
N282	N	0.732024	0.666827	0.807927
H283	H	0.045332	0.000166	0.194985
H284	H	0.378665	0.333500	0.528318
H285	H	0.711998	0.666833	0.861651
H286	H	0.086523	-0.060484	0.144522
H287	H	0.419856	0.272849	0.477855
H288	H	0.753189	0.606183	0.811188
