data_functionalizedCrystal
_audit_creation_method	'MofGen! by Chris Wilmer'
_symmetry_space_group_name_H-M	'P1'
_symmetry_Int_Tables_number	1
_symmetry_cell_setting	triclinic
loop_
_symmetry_equiv_pos_as_xyz
  x,y,z
_cell_length_a	11.169417
_cell_length_b	17.637651
_cell_length_c	11.169409
_cell_angle_alpha	101.252056
_cell_angle_beta	90.019824
_cell_angle_gamma	101.220276
loop_
_atom_site_label
_atom_site_type_symbol
_atom_site_fract_x
_atom_site_fract_y
_atom_site_fract_z
Zn1	Zn	1.738329	-0.314690	0.581815
Zn2	Zn	1.697610	-0.446936	0.340484
Zn3	Zn	1.537600	-0.314739	0.381135
Zn4	Zn	1.497034	-0.446871	0.541148
O5	O	1.617643	-0.380809	0.461146
O6	O	1.900875	-0.332240	0.549809
O7	O	1.676320	-0.429446	0.177912
O8	O	1.598246	-0.204089	0.441788
O9	O	1.870959	-0.429400	0.372504
O10	O	1.745721	-0.204054	0.589227
O11	O	1.558762	-0.332322	0.207778
O12	O	1.364272	-0.332259	0.402355
O13	O	1.529106	-0.429290	0.714507
O14	O	1.334467	-0.429337	0.519916
O15	O	1.706385	-0.332177	0.744385
O16	O	1.636984	-0.557570	0.333070
O17	O	1.489622	-0.557523	0.480498
C18	C	1.305822	-0.380797	0.461134
C19	C	1.172418	-0.380811	0.461152
C20	C	1.554515	-0.586235	0.397986
C21	C	1.527618	-0.674117	0.371006
C22	C	1.822755	-0.962763	0.666486
C23	C	1.797443	-1.045342	0.641114
C24	C	1.643980	-1.045486	0.487437
C25	C	1.669283	-0.962906	0.512792
C26	C	1.758671	-0.921551	0.602319
C27	C	1.605199	-0.921694	0.448625
C28	C	1.630496	-0.839121	0.473984
C29	C	1.719877	-0.797760	0.563509
C30	C	1.783968	-0.838978	0.627677
C31	C	1.515806	-0.963050	0.359105
C32	C	1.451722	-0.921838	0.294938
C33	C	1.477024	-0.839263	0.320290
C34	C	1.566405	-0.797902	0.409815
C35	C	1.412933	-0.798045	0.256121
C36	C	1.438230	-0.715472	0.281480
C37	C	1.591702	-0.715329	0.435173
C38	C	1.930682	-0.380822	0.461158
C39	C	2.064080	-0.380827	0.461163
C40	C	1.617762	-0.380721	0.774215
C41	C	1.617813	-0.380684	0.907627
C42	C	1.681051	-0.174581	0.524578
C43	C	1.708071	-0.086699	0.551609
C44	C	1.617611	-0.380839	0.149312
C45	C	1.617861	-0.380654	0.015969
H46	H	1.664500	-0.681657	0.508066
H47	H	1.740473	-0.730524	0.584153
C48	C	1.545732	-1.090986	0.388885
N49	N	1.471759	-1.125256	0.314624
C50	C	1.367745	-0.670136	0.210882
N51	N	1.314655	-0.635988	0.157704
H52	H	1.856766	-0.805305	0.700570
C53	C	1.921085	-0.917268	0.764972
N54	N	1.995139	-0.883001	0.839153
H55	H	1.849618	-1.078894	0.693390
H56	H	1.495201	-1.030286	0.338473
H57	H	1.340146	-0.831729	0.183237
H58	H	1.378939	-0.955520	0.222048
