data_functionalizedCrystal
_audit_creation_method	'MofGen! by Chris Wilmer'
_symmetry_space_group_name_H-M	'P1'
_symmetry_Int_Tables_number	1
_symmetry_cell_setting	triclinic
loop_
_symmetry_equiv_pos_as_xyz
  x,y,z
_cell_length_a	19.077236
_cell_length_b	18.101397
_cell_length_c	19.076919
_cell_angle_alpha	92.268541
_cell_angle_beta	89.887323
_cell_angle_gamma	92.313125
loop_
_atom_site_label
_atom_site_type_symbol
_atom_site_fract_x
_atom_site_fract_y
_atom_site_fract_z
Zn1	Zn	1.058310	-0.268826	-0.440528
Zn2	Zn	1.062958	-0.387506	-0.323016
Zn3	Zn	0.945525	-0.268438	-0.318308
Zn4	Zn	0.940778	-0.397386	-0.435753
O5	O	1.001893	-0.330539	-0.379401
O6	O	1.157260	-0.280597	-0.428908
O7	O	1.051312	-0.367414	-0.224061
O8	O	0.960528	-0.164856	-0.334549
O9	O	1.160675	-0.367791	-0.342572
O10	O	1.043390	-0.165141	-0.424344
O11	O	0.965035	-0.279935	-0.220602
O12	O	0.846562	-0.289515	-0.329919
O13	O	0.952437	-0.384630	-0.534717
O14	O	0.843074	-0.384253	-0.416206
O15	O	1.038787	-0.290177	-0.538225
O16	O	1.046709	-0.492450	-0.337942
O17	O	0.956944	-0.499709	-0.420770
C18	C	0.819321	-0.337915	-0.372034
C19	C	0.741216	-0.341089	-0.368899
C20	C	0.702742	-0.297261	-0.412445
C21	C	0.629353	-0.300239	-0.409493
C22	C	0.594441	-0.347050	-0.362998
C23	C	0.632920	-0.390879	-0.319447
C24	C	0.706307	-0.387896	-0.322396
C25	C	0.375148	-0.360827	-0.349348
C26	C	0.301756	-0.363808	-0.346404
C27	C	0.298194	-0.273166	-0.436449
C28	C	0.371583	-0.270191	-0.439397
C29	C	0.410056	-0.314017	-0.395843
N30	N	0.519426	-0.350097	-0.359981
N31	N	0.485069	-0.310966	-0.398857
C32	C	1.001834	-0.522950	-0.379365
C33	C	1.001872	-0.605263	-0.379375
C34	C	1.001959	-0.904353	-0.379443
C35	C	1.058291	-0.868430	-0.327179
C36	C	1.058473	-0.782810	-0.327327
C37	C	1.001916	-0.755971	-0.379409
C38	C	1.019012	-0.789424	-0.454283
C39	C	1.019443	-0.875039	-0.454003
C40	C	0.928361	-0.875038	-0.357469
C41	C	0.928795	-0.789301	-0.355830
C42	C	1.001890	-0.672112	-0.379394
C43	C	1.001987	-0.988213	-0.379463
C44	C	1.185177	-0.323135	-0.386798
C45	C	1.263282	-0.319980	-0.389950
C46	C	0.994564	-0.338549	-0.562680
C47	C	0.991440	-0.341962	-0.640783
C48	C	1.001970	-0.137376	-0.379454
C49	C	1.002003	-0.055061	-0.379477
C50	C	1.034929	-0.294391	-0.679303
C51	C	1.031986	-0.297596	-0.752688
C52	C	0.985557	-0.348375	-0.787552
C53	C	0.942064	-0.395948	-0.749027
C54	C	0.945004	-0.392739	-0.675642
C55	C	0.971940	-0.363242	-1.006831
C56	C	0.969005	-0.366448	-1.080220
C57	C	1.058926	-0.268095	-1.083877
C58	C	1.061864	-0.264894	-1.010491
C59	C	1.018369	-0.312464	-0.971972
N60	N	0.982549	-0.351654	-0.862564
N61	N	1.021374	-0.309181	-0.896962
C62	C	1.009234	-0.322505	-0.196837
C63	C	1.012493	-0.318878	-0.118741
H64	H	0.266862	-0.237484	-0.471907
H65	H	0.904259	-0.437291	-0.777418
H66	H	1.073151	-0.893465	-0.472269
H67	H	0.979108	-0.772445	-0.494400
H68	H	0.273332	-0.401930	-0.308541
H69	H	1.072738	-0.253043	-0.650923
O70	O	0.412552	-0.403293	-0.306975
C71	C	0.499213	-0.405597	-0.215447
C72	C	0.456882	-0.357412	-0.263379
H73	H	0.535076	-0.368523	-0.180198
H74	H	0.461689	-0.439553	-0.181662
H75	H	0.532250	-0.444398	-0.249037
H76	H	0.423843	-0.318569	-0.229844
H77	H	0.494445	-0.323506	-0.297168
H78	H	0.915850	-0.767257	-0.300715
O79	O	1.046157	-0.755643	-0.261160
C80	C	1.023485	-0.783867	-0.140627
C81	C	1.037435	-0.814727	-0.215529
H82	H	1.016415	-0.831622	-0.103717
H83	H	1.069819	-0.746276	-0.122356
H84	H	0.973840	-0.750849	-0.140370
H85	H	1.087057	-0.847779	-0.215845
H86	H	0.991063	-0.852278	-0.233770
O87	O	0.736572	-0.251834	-0.457706
C88	C	0.754302	-0.220423	-0.578202
C89	C	0.715933	-0.271912	-0.527021
H90	H	0.737641	-0.236647	-0.634255
H91	H	0.740357	-0.160730	-0.565444
H92	H	0.813361	-0.225806	-0.572796
H93	H	0.656866	-0.266594	-0.532399
H94	H	0.729936	-0.331584	-0.539793
O95	O	1.082322	-0.762085	-0.476492
C96	C	1.168681	-0.761702	-0.568839
C97	C	1.096964	-0.792704	-0.543787
H98	H	1.180548	-0.786456	-0.623243
H99	H	1.167432	-0.698932	-0.571166
H100	H	1.211184	-0.776803	-0.530625
H101	H	1.054421	-0.777658	-0.581977
H102	H	1.098272	-0.855468	-0.541441
H103	H	0.912233	-0.895103	-0.303662
H104	H	1.112574	-0.888227	-0.341798
O105	O	0.598972	-0.436436	-0.274381
C106	C	0.516448	-0.539326	-0.261424
C107	C	0.554858	-0.487793	-0.312539
H108	H	0.480763	-0.580851	-0.292254
H109	H	0.556522	-0.570194	-0.230816
H110	H	0.483588	-0.505041	-0.223349
H111	H	0.587718	-0.522022	-0.350657
H112	H	0.514748	-0.456921	-0.343096
O113	O	0.743575	-0.430547	-0.280071
C114	C	0.739369	-0.520736	-0.190421
C115	C	0.697078	-0.472488	-0.238329
H116	H	0.701794	-0.554646	-0.156649
H117	H	0.772420	-0.559571	-0.223961
H118	H	0.775212	-0.483665	-0.155149
H119	H	0.661196	-0.509502	-0.273609
H120	H	0.664073	-0.433647	-0.204747
H121	H	0.931195	-0.407801	-1.108604
H122	H	1.067400	-0.258861	-0.784049
H123	H	0.909584	-0.431469	-0.644280
H124	H	0.598031	-0.264551	-0.444954
O125	O	1.046178	-0.890892	-0.260902
C126	C	1.035527	-0.993878	-0.184803
C127	C	1.049279	-0.968536	-0.259890
H128	H	1.038014	-1.056656	-0.183963
H129	H	1.077003	-0.967189	-0.147894
H130	H	0.981326	-0.976547	-0.166972
H131	H	1.103459	-0.985861	-0.277787
H132	H	1.007760	-0.995219	-0.296755
O133	O	0.929655	-0.409516	-0.969527
C134	C	0.840100	-0.507352	-0.973649
C135	C	0.887970	-0.455006	-1.015986
H136	H	0.806376	-0.544132	-1.011192
H137	H	0.873669	-0.543329	-0.940592
H138	H	0.804781	-0.473303	-0.937810
H139	H	0.923298	-0.488996	-1.051863
H140	H	0.854359	-0.419026	-1.048997
O141	O	1.106981	-0.215498	-0.976736
C142	C	1.195889	-0.118313	-0.988111
C143	C	1.144813	-0.174204	-1.026427
H144	H	1.226500	-0.084923	-1.028270
H145	H	1.165053	-0.079341	-0.952482
H146	H	1.233964	-0.149342	-0.955211
H147	H	1.106726	-0.143237	-1.059365
H148	H	1.175694	-0.213175	-1.062014
H149	H	0.400003	-0.232075	-0.477261
H150	H	0.980048	-0.899138	-0.494448
O151	O	1.123612	-0.756420	-0.345002
C152	C	1.241788	-0.786047	-0.376883
C153	C	1.168044	-0.816033	-0.356885
H154	H	1.277736	-0.834229	-0.386482
H155	H	1.238421	-0.753447	-0.426605
H156	H	1.263812	-0.748254	-0.332313
H157	H	1.145977	-0.853857	-0.401409
H158	H	1.171456	-0.848591	-0.307142
O159	O	0.876267	-0.767902	-0.397641
C160	C	0.782909	-0.806541	-0.477476
C161	C	0.842358	-0.830875	-0.430130
H162	H	0.755486	-0.857439	-0.503767
H163	H	0.743437	-0.774794	-0.444403
H164	H	0.805828	-0.769361	-0.519350
H165	H	0.819502	-0.868080	-0.388249
H166	H	0.881820	-0.862581	-0.463250
H167	H	0.886426	-0.898681	-0.395499
H168	H	1.094336	-0.229365	-1.115247
