data_functionalizedCrystal
_audit_creation_method	'MofGen! by Chris Wilmer'
_symmetry_space_group_name_H-M	'P1'
_symmetry_Int_Tables_number	1
_symmetry_cell_setting	triclinic
loop_
_symmetry_equiv_pos_as_xyz
  x,y,z
_cell_length_a	15.944545
_cell_length_b	15.944551
_cell_length_c	16.776229
_cell_angle_alpha	89.992397
_cell_angle_beta	89.995644
_cell_angle_gamma	83.497455
loop_
_atom_site_label
_atom_site_type_symbol
_atom_site_fract_x
_atom_site_fract_y
_atom_site_fract_z
O1	O	1.114530	0.108309	-0.066238
O2	O	0.869980	0.121671	-0.066251
O3	O	0.998933	-0.007285	-0.066237
O4	O	0.985577	0.237265	-0.066252
O5	O	0.998916	-0.007293	0.066339
O6	O	0.869963	0.121663	0.066325
O7	O	1.114513	0.108301	0.066338
Zn8	Zn	0.992235	0.114981	0.087381
Zn9	Zn	0.992258	0.114991	-0.087294
O10	O	0.985560	0.237257	0.066324
C11	C	0.838677	0.121113	0.000035
C12	C	0.745431	0.119453	0.000030
C13	C	0.998370	-0.038583	0.000051
C14	C	0.996708	-0.131829	0.000051
C15	C	0.474798	0.034559	0.000044
C16	C	0.525372	0.075484	0.065411
C17	C	0.409787	0.113532	0.000044
C18	C	0.525369	0.075513	-0.065299
C19	C	0.574701	0.116437	0.000036
C20	C	0.459132	0.154436	0.065465
C21	C	0.459126	0.154453	-0.065304
C22	C	0.509667	0.195436	0.000079
C23	C	0.314785	0.111856	0.000050
C24	C	0.669700	0.118119	0.000036
C25	C	0.912803	-0.346684	0.000036
C26	C	0.951758	-0.407706	0.065406
C27	C	0.993701	-0.302555	0.000045
C28	C	0.951793	-0.407682	-0.065304
C29	C	0.990790	-0.467468	0.000036
C30	C	1.032677	-0.362349	0.065469
C31	C	1.032702	-0.362318	-0.065299
C32	C	1.071715	-0.423322	0.000087
C33	C	0.995375	-0.207553	0.000051
C34	C	0.989122	-0.562469	0.000035
C35	C	1.145816	0.108859	0.000050
C36	C	1.239062	0.110519	0.000049
C37	C	0.986123	0.268555	0.000034
C38	C	0.987785	0.361801	0.000028
N39	N	0.992226	0.114973	0.206592
N40	N	0.992274	0.114992	-0.206506
C41	C	1.049344	0.057895	0.248316
C42	C	1.049349	0.057894	0.331768
C43	C	0.992239	0.114976	0.373495
C44	C	0.935115	0.172057	0.331766
C45	C	0.935107	0.172053	0.248315
C46	C	0.935145	0.172074	0.668313
C47	C	0.935159	0.172075	0.751770
C48	C	1.049387	0.057915	0.751766
C49	C	1.049379	0.057911	0.668315
C50	C	0.992253	0.114988	0.626593
C51	C	0.992247	0.114987	0.536105
C52	C	0.992248	0.114982	0.463982
H53	H	0.459145	-0.033453	0.000112
H54	H	0.554295	0.042128	0.120677
C55	C	0.872279	0.234850	0.202420
N56	N	0.824956	0.282152	0.167853
C57	C	0.905561	-0.434811	-0.139963
N58	N	0.870733	-0.455241	-0.196194
H59	H	0.554294	0.042151	-0.120558
H60	H	1.095886	0.011432	0.634343
C61	C	1.112221	-0.004880	0.797667
N62	N	1.159547	-0.052175	0.832239
H63	H	1.066896	-0.342185	-0.120564
H64	H	1.095853	0.011415	0.214347
H65	H	0.430316	0.187760	0.120787
H66	H	0.845655	-0.313375	0.000098
C67	C	1.112163	-0.004917	0.377660
N68	N	1.159470	-0.052237	0.412225
H69	H	0.888650	0.218560	0.785743
H70	H	0.917534	-0.427817	0.120668
H71	H	0.525159	0.263501	0.000113
H72	H	1.066857	-0.342362	0.120795
H73	H	0.888611	0.218532	0.365745
H74	H	0.430187	0.187780	-0.120572
C75	C	1.162505	-0.468129	0.000144
N76	N	1.230887	-0.501880	0.000191
C77	C	0.872413	0.234970	0.622430
N78	N	0.825199	0.282385	0.587868
