data_functionalizedCrystal
_audit_creation_method	'MofGen! by Chris Wilmer'
_symmetry_space_group_name_H-M	'P1'
_symmetry_Int_Tables_number	1
_symmetry_cell_setting	triclinic
loop_
_symmetry_equiv_pos_as_xyz
  x,y,z
_cell_length_a	18.101395
_cell_length_b	14.908780
_cell_length_c	14.908294
_cell_angle_alpha	90.212329
_cell_angle_beta	93.266411
_cell_angle_gamma	86.679715
loop_
_atom_site_label
_atom_site_type_symbol
_atom_site_fract_x
_atom_site_fract_y
_atom_site_fract_z
Zn1	Zn	-0.259061	-1.345250	-0.587865
Zn2	Zn	-0.375386	-1.353805	-0.437505
Zn3	Zn	-0.258255	-1.203565	-0.428833
Zn4	Zn	-0.389563	-1.194827	-0.579123
O5	O	-0.320566	-1.274362	-0.508332
O6	O	-0.268895	-1.472214	-0.575208
O7	O	-0.353578	-1.341113	-0.310532
O8	O	-0.154727	-1.222436	-0.449958
O9	O	-0.354359	-1.478499	-0.464739
O10	O	-0.155319	-1.326532	-0.566799
O11	O	-0.267522	-1.230732	-0.304160
O12	O	-0.281269	-1.076577	-0.441481
O13	O	-0.378522	-1.207544	-0.706106
O14	O	-0.377741	-1.070157	-0.551898
O15	O	-0.282642	-1.318059	-0.712529
O16	O	-0.480901	-1.332640	-0.456262
O17	O	-0.491317	-1.215839	-0.560308
C18	C	-0.330957	-1.040741	-0.494800
C19	C	-0.335421	-0.940796	-0.489033
C20	C	-0.254954	-0.746431	-0.593402
C21	C	-0.259146	-0.652523	-0.587986
C22	C	-0.347992	-0.659071	-0.472781
C23	C	-0.343800	-0.752979	-0.478197
C24	C	-0.297281	-0.796655	-0.538511
C25	C	-0.293093	-0.890564	-0.543931
C26	C	-0.381934	-0.897111	-0.428721
C27	C	-0.386126	-0.803203	-0.423305
C28	C	-0.512981	-1.274243	-0.508298
C29	C	-0.595294	-1.274273	-0.508319
C30	C	-0.894379	-1.274467	-0.508379
C31	C	-0.869639	-1.201130	-0.574023
C32	C	-0.784025	-1.200814	-0.573786
C33	C	-0.745999	-1.274370	-0.508350
C34	C	-0.773548	-1.254187	-0.412106
C35	C	-0.859234	-1.253716	-0.412497
C36	C	-0.859701	-1.368187	-0.538152
C37	C	-0.774179	-1.367507	-0.540198
C38	C	-0.662141	-1.274318	-0.508328
C39	C	-0.978237	-1.274518	-0.508394
C40	C	-0.127400	-1.274504	-0.508386
C41	C	-0.045084	-1.274565	-0.508409
C42	C	-0.332253	-1.260872	-0.742854
C43	C	-0.337233	-1.255124	-0.842793
C44	C	-0.310129	-0.508895	-0.521910
C45	C	-0.305664	-0.608840	-0.527679
C46	C	-0.394163	-1.189484	-0.980311
C47	C	-0.389489	-1.194884	-0.886409
C48	C	-0.289647	-1.309966	-0.893087
C49	C	-0.294321	-1.304567	-0.986989
C50	C	-0.346581	-1.244325	-1.030598
C51	C	-0.351259	-1.238930	-1.124502
C52	C	-0.251413	-1.354008	-1.131178
C53	C	-0.246739	-1.359407	-1.037276
C54	C	-0.308869	-1.287850	-0.274724
C55	C	-0.303672	-1.293773	-0.174796
H56	H	-0.423999	-0.767629	-0.374197
H57	H	-0.416406	-0.938013	-0.384031
Cl58	Cl	-0.223911	-1.385638	-0.838246
Cl59	Cl	-0.734616	-1.334431	-0.334158
H60	H	-0.436720	-1.140439	-1.015818
H61	H	-0.893009	-1.212952	-0.645433
H62	H	-0.765764	-1.212807	-0.644978
H63	H	-0.428231	-1.150221	-0.845468
Cl64	Cl	-0.191597	-1.422959	-1.194402
Cl65	Cl	-0.234614	-0.945471	-0.619754
Cl66	Cl	-0.196482	-0.801341	-0.669231
H67	H	-0.893552	-1.131970	-0.554095
H68	H	-0.754180	-1.186599	-0.387197
Cl69	Cl	-0.896610	-1.398244	-0.645107
Cl70	Cl	-0.205932	-0.589387	-0.656994
H71	H	-0.881345	-1.185370	-0.387914
Cl72	Cl	-0.756094	-1.093389	-0.542672
Cl73	Cl	-0.883754	-1.333054	-0.333945
H74	H	-0.756446	-1.382827	-0.611055
Cl75	Cl	-0.406459	-0.604149	-0.396954
H76	H	-0.204188	-1.408452	-1.001757
H77	H	-0.747989	-1.424598	-0.496308
H78	H	-0.875110	-1.422758	-0.490408
Cl79	Cl	-0.416958	-1.163200	-1.179323
