data_functionalizedCrystal
_audit_creation_method	'MofGen! by Chris Wilmer'
_symmetry_space_group_name_H-M	'P1'
_symmetry_Int_Tables_number	1
_symmetry_cell_setting	triclinic
loop_
_symmetry_equiv_pos_as_xyz
  x,y,z
_cell_length_a	12.645330
_cell_length_b	14.908571
_cell_length_c	14.908694
_cell_angle_alpha	96.407528
_cell_angle_beta	93.272100
_cell_angle_gamma	93.285920
loop_
_atom_site_label
_atom_site_type_symbol
_atom_site_fract_x
_atom_site_fract_y
_atom_site_fract_z
Zn1	Zn	-0.558110	-1.413365	-0.591537
Zn2	Zn	-0.724539	-1.404540	-0.440180
Zn3	Zn	-0.536427	-1.253266	-0.431471
Zn4	Zn	-0.724457	-1.261972	-0.582779
O5	O	-0.635883	-1.333286	-0.511491
O6	O	-0.589296	-1.538861	-0.578769
O7	O	-0.690546	-1.377136	-0.312359
O8	O	-0.390961	-1.274553	-0.452724
O9	O	-0.711571	-1.532378	-0.467568
O10	O	-0.406891	-1.392177	-0.570324
O11	O	-0.552340	-1.265996	-0.305960
O12	O	-0.552261	-1.127753	-0.444232
O13	O	-0.711431	-1.289391	-0.710606
O14	O	-0.690406	-1.134150	-0.555397
O15	O	-0.589217	-1.400619	-0.717041
O16	O	-0.872871	-1.385578	-0.459076
O17	O	-0.872811	-1.280834	-0.563842
C18	C	-0.618972	-1.098108	-0.497919
C19	C	-0.611764	-0.997499	-0.492135
C20	C	-0.911308	-1.333219	-0.511475
C21	C	-1.029143	-1.333275	-0.511503
C22	C	-0.652733	-1.346960	-0.747585
C23	C	-0.659914	-1.352788	-0.848194
C24	C	-1.196749	-1.267681	-0.577644
C25	C	-1.074148	-1.267312	-0.577398
C26	C	-1.065043	-1.301951	-0.414623
C27	C	-1.187642	-1.301551	-0.415025
C28	C	-1.204873	-1.430573	-0.541493
C29	C	-1.082373	-1.430106	-0.543545
C30	C	-0.359387	-1.333378	-0.511529
C31	C	-0.241561	-1.333418	-0.511545
C32	C	-0.652862	-1.569381	-0.525117
C33	C	-0.660097	-1.669991	-0.530923
C34	C	-0.742270	-0.815145	-0.596865
C35	C	-0.735501	-0.720614	-0.591433
C36	C	-0.591454	-0.713906	-0.475844
C37	C	-0.598223	-0.808437	-0.481276
C38	C	-0.673634	-0.859053	-0.541788
C39	C	-0.680407	-0.953585	-0.547215
C40	C	-0.536356	-0.946875	-0.431630
C41	C	-0.529587	-0.852345	-0.426198
C42	C	-0.529494	-1.247986	-1.030586
C43	C	-0.536237	-1.253459	-1.125117
C44	C	-0.680147	-1.369199	-1.131788
C45	C	-0.673404	-1.363727	-1.037257
C46	C	-0.598074	-1.303120	-0.986659
C47	C	-0.591327	-1.297653	-0.892127
C48	C	-0.735241	-1.413388	-0.898800
C49	C	-0.741984	-1.418860	-0.993330
C50	C	-0.619026	-1.319716	-0.276319
C51	C	-0.611560	-1.314064	-0.175721
H52	H	-1.232399	-1.287781	-0.649530
H53	H	-0.741813	-0.994795	-0.596485
N54	N	-0.809206	-1.472862	-0.851419
H55	H	-0.793605	-1.460104	-0.783851
H56	H	-0.885091	-1.459808	-0.867221
H57	H	-0.803318	-1.468202	-1.034540
H58	H	-1.221439	-1.196221	-0.557601
N59	N	-0.809541	-0.673257	-0.650830
H60	H	-0.793813	-0.605691	-0.638208
H61	H	-0.798956	-0.693543	-0.716450
H62	H	-1.035571	-1.348070	-0.363787
H63	H	-1.027947	-1.231474	-0.389563
N64	N	-1.042479	-1.498981	-0.484999
H65	H	-1.059559	-1.481261	-0.420307
H66	H	-1.078051	-1.560447	-0.507254
N67	N	-0.510158	-0.659304	-0.410550
H68	H	-0.516300	-0.592757	-0.415459
H69	H	-0.523159	-0.672080	-0.346843
H70	H	-0.468187	-0.811120	-0.376933
N71	N	-1.052272	-1.461265	-0.638020
H72	H	-0.972608	-1.463395	-0.638377
H73	H	-1.086804	-1.523563	-0.658209
H74	H	-0.741490	-1.418531	-1.173000
H75	H	-1.233933	-1.479616	-0.493417
N76	N	-0.462327	-0.994232	-0.372213
H77	H	-0.478058	-1.061797	-0.384832
H78	H	-0.386469	-0.978546	-0.385455
H79	H	-1.209823	-1.230366	-0.390296
H80	H	-0.803678	-0.856357	-0.646132
H81	H	-0.529986	-1.248306	-0.850932
H82	H	-0.468149	-1.198646	-0.989389
N83	N	-0.462274	-1.193990	-1.172495
H84	H	-0.386367	-1.207113	-1.156868
H85	H	-0.478069	-1.206679	-1.240043
N86	N	-1.042449	-1.294107	-0.672321
H87	H	-1.108176	-1.306266	-0.714702
H88	H	-0.996142	-1.243428	-0.692148
H89	H	-1.216917	-1.347055	-0.363801
N90	N	-1.027121	-1.172056	-0.550535
H91	H	-1.086045	-1.130143	-0.538802
H92	H	-0.978999	-1.170396	-0.493849
H93	H	-1.242311	-1.458072	-0.611227
