data_functionalizedCrystal
_audit_creation_method	'MofGen! by Chris Wilmer'
_symmetry_space_group_name_H-M	'P1'
_symmetry_Int_Tables_number	1
_symmetry_cell_setting	triclinic
loop_
_symmetry_equiv_pos_as_xyz
  x,y,z
_cell_length_a	13.448316
_cell_length_b	14.971496
_cell_length_c	14.971486
_cell_angle_alpha	83.616127
_cell_angle_beta	89.998199
_cell_angle_gamma	89.992488
loop_
_atom_site_label
_atom_site_type_symbol
_atom_site_fract_x
_atom_site_fract_y
_atom_site_fract_z
O1	O	-0.082580	0.116564	1.186951
O2	O	-0.082607	0.130523	0.926552
O3	O	-0.082584	-0.006656	1.063726
O4	O	-0.082603	0.253743	1.049777
O5	O	0.082800	-0.006664	1.063709
O6	O	0.082777	0.130515	0.926535
O7	O	0.082804	0.116556	1.186934
Cu8	Cu	0.097891	0.123534	1.056733
Cu9	Cu	-0.097694	0.123544	1.056753
O10	O	0.082781	0.253735	1.049760
C11	C	0.000108	-0.039985	1.063092
C12	C	0.000109	-0.139281	1.061218
C13	C	0.000082	0.129895	0.893218
C14	C	0.000071	0.128024	0.793921
N15	N	0.235456	0.123527	1.056725
N16	N	-0.235258	0.123545	1.056768
C17	C	0.287506	0.062809	1.117485
C18	C	0.391610	0.062808	1.117490
C19	C	0.443660	0.123530	1.056740
C20	C	0.391602	0.184251	0.995973
C21	C	0.287501	0.184247	0.995964
C22	C	0.608582	0.184257	0.995998
C23	C	0.712691	0.184263	0.996008
C24	C	0.712691	0.062819	1.117524
C25	C	0.608590	0.062814	1.117515
C26	C	0.556539	0.123536	1.056750
C27	C	-0.090069	-0.566981	1.053160
C28	C	-0.090064	-0.473681	1.054926
C29	C	0.000090	-0.427043	1.055793
C30	C	0.090246	-0.473709	1.054904
C31	C	0.090241	-0.567007	1.053144
C32	C	0.090252	-0.279246	1.058569
C33	C	0.090258	-0.185941	1.060326
C34	C	-0.090053	-0.185920	1.060350
C35	C	-0.090059	-0.279218	1.058590
C36	C	0.000097	-0.325878	1.057700
C37	C	0.000087	0.287063	1.050394
C38	C	0.000080	0.386360	1.052268
C39	C	0.000067	0.208613	0.736699
C40	C	0.000082	0.206850	0.643399
C41	C	0.000094	0.124497	0.607324
C42	C	0.000102	0.043902	0.664554
C43	C	0.000094	0.045666	0.757852
C44	C	0.000116	0.040231	0.470091
C45	C	0.000122	0.038466	0.376787
C46	C	0.000104	0.201414	0.355639
C47	C	0.000096	0.203179	0.448937
C48	C	0.000101	0.122583	0.506160
C49	C	0.000114	0.117184	1.220268
C50	C	0.000117	0.119055	1.319565
H51	H	0.245134	0.013366	1.166959
H52	H	0.433989	0.013367	1.166965
H53	H	-0.163471	-0.317188	1.057879
H54	H	0.000133	-0.028593	0.347418
C55	C	0.000055	0.299209	0.776372
N56	N	0.000051	0.367449	0.806251
H57	H	0.000076	0.270237	0.478306
C58	C	0.189429	-0.330568	1.057586
N59	N	0.264128	-0.369224	1.056840
H60	H	0.000126	-0.023152	0.635174
C61	C	0.189432	-0.134641	1.061294
N62	N	0.264132	-0.096003	1.062026
C63	C	0.189411	-0.618331	1.052160
N64	N	0.264110	-0.656988	1.051421
C65	C	-0.189226	-0.134593	1.061332
N66	N	-0.263921	-0.095929	1.062069
C67	C	0.551336	-0.003983	1.184344
N68	N	0.508213	-0.054298	1.234678
C69	C	0.230246	0.251048	0.929131
N70	N	0.187123	0.301366	0.878790
H71	H	0.000122	-0.025399	0.516681
H72	H	0.000104	0.267038	0.309043
C73	C	0.000096	-0.042988	0.820797
N74	N	0.000100	-0.109766	0.868206
H75	H	0.000077	0.272473	0.596812
C76	C	0.769949	-0.003980	1.184364
N77	N	0.813080	-0.054289	1.234707
H78	H	0.755065	0.233708	0.946538
H79	H	0.566206	0.233701	0.946514
H80	H	-0.163483	-0.604946	1.052445
C81	C	0.448862	0.251038	0.929139
N82	N	0.491989	0.301343	0.878797
H83	H	-0.163473	-0.435696	1.055653
H84	H	0.163652	-0.435729	1.055616
