data_functionalizedCrystal
_audit_creation_method	'MofGen! by Chris Wilmer'
_symmetry_space_group_name_H-M	'P1'
_symmetry_Int_Tables_number	1
_symmetry_cell_setting	triclinic
loop_
_symmetry_equiv_pos_as_xyz
  x,y,z
_cell_length_a	9.065218
_cell_length_b	14.971486
_cell_length_c	13.448316
_cell_angle_alpha	90.006461
_cell_angle_beta	90.007349
_cell_angle_gamma	84.315007
loop_
_atom_site_label
_atom_site_type_symbol
_atom_site_fract_x
_atom_site_fract_y
_atom_site_fract_z
O1	O	-1.957748	-0.131155	-0.082695
O2	O	-1.528245	-0.141913	-0.082697
O3	O	-1.754508	-0.006420	-0.082689
O4	O	-1.731484	-0.266648	-0.082703
O5	O	-1.754477	-0.006412	0.082695
O6	O	-1.528214	-0.141905	0.082687
O7	O	-1.957717	-0.131148	0.082689
Cu8	Cu	-1.742962	-0.136526	0.097789
Cu9	Cu	-1.742999	-0.136535	-0.097797
O10	O	-1.731453	-0.266641	0.082681
C11	C	-1.473263	-0.140875	-0.000005
C12	C	-1.309483	-0.137784	-0.000005
C13	C	-1.753463	0.026916	0.000003
C14	C	-1.750377	0.126237	0.000002
C15	C	-2.012698	-0.132185	-0.000005
C16	C	-2.176478	-0.135277	-0.000011
C17	C	-1.732498	-0.299977	-0.000013
C18	C	-1.735584	-0.399297	-0.000019
N19	N	-1.742947	-0.136519	0.235353
C20	C	-1.883301	0.182471	0.000003
C21	C	-1.880393	0.275792	-0.000007
C22	C	-1.744560	0.312877	-0.000011
C23	C	-1.611626	0.256635	-0.000015
C24	C	-1.614535	0.163316	-0.000012
C25	C	-1.605571	0.451143	-0.000019
C26	C	-1.602660	0.544468	-0.000020
C27	C	-1.871428	0.563619	-0.000013
C28	C	-1.874338	0.470300	-0.000010
C29	C	-1.741403	0.414064	-0.000013
C30	C	-1.843167	-0.076548	0.287397
C31	C	-1.843175	-0.076548	0.391500
C32	C	-1.742969	-0.136524	0.443558
C33	C	-1.642738	-0.196498	0.391507
C34	C	-1.642725	-0.196493	0.287405
C35	C	-1.642776	-0.196505	0.608487
C36	C	-1.642791	-0.196512	0.712595
C37	C	-1.843226	-0.076561	0.712582
C38	C	-1.843212	-0.076556	0.608480
C39	C	-1.742983	-0.136531	0.556436
N40	N	-1.743010	-0.136541	0.764639
H41	H	-1.993912	0.152285	0.000013
H42	H	-1.988633	0.321575	-0.000004
H43	H	-1.924780	-0.027715	0.433874
N44	N	-2.020839	0.430298	0.000006
H45	H	-2.104611	0.480081	0.000006
H46	H	-2.027911	0.391987	-0.061302
N47	N	-1.951221	-0.011851	0.231242
H48	H	-2.016595	-0.046575	0.188028
H49	H	-2.014610	0.026134	0.280066
N50	N	-1.456159	0.584470	-0.000038
H51	H	-1.448939	0.622766	0.061269
H52	H	-1.372475	0.534636	-0.000086
H53	H	-1.979668	0.609411	-0.000015
H54	H	-1.497321	0.405358	-0.000023
H55	H	-1.501028	0.286837	-0.000025
N56	N	-1.471169	0.102658	-0.000019
H57	H	-1.384677	0.140309	-0.000021
H58	H	-1.466506	0.063526	0.061289
H59	H	-1.924815	-0.027724	0.566095
H60	H	-1.924835	-0.027727	0.754962
N61	N	-1.534728	-0.261206	0.768747
H62	H	-1.471229	-0.299198	0.719983
H63	H	-1.469465	-0.226415	0.811964
H64	H	-1.561154	-0.245340	0.566116
N65	N	-1.534654	-0.261180	0.447657
H66	H	-1.591100	-0.301265	0.490830
H67	H	-1.471182	-0.299109	0.398828
H68	H	-1.561114	-0.245326	0.245032
