data_functionalizedCrystal
_audit_creation_method	'MofGen! by Chris Wilmer'
_symmetry_space_group_name_H-M	'P1'
_symmetry_Int_Tables_number	1
_symmetry_cell_setting	triclinic
loop_
_symmetry_equiv_pos_as_xyz
  x,y,z
_cell_length_a	9.482900
_cell_length_b	11.026623
_cell_length_c	10.967829
_cell_angle_alpha	83.619121
_cell_angle_beta	87.494390
_cell_angle_gamma	101.363987
loop_
_atom_site_label
_atom_site_type_symbol
_atom_site_fract_x
_atom_site_fract_y
_atom_site_fract_z
O1	O	-0.244299	-1.652489	0.492571
O2	O	-0.229825	-1.296437	0.434790
O3	O	-0.193393	-1.475836	0.289396
O4	O	-0.280730	-1.473091	0.637966
O5	O	0.040961	-1.439403	0.319081
O6	O	0.004530	-1.260005	0.464475
O7	O	-0.009944	-1.616057	0.522256
Cu8	Cu	0.018691	-1.434704	0.496076
Cu9	Cu	-0.258460	-1.477790	0.460970
O10	O	-0.046376	-1.436658	0.667650
C11	C	-0.109977	-1.232503	0.438973
C12	C	-0.102017	-1.096279	0.407197
N13	N	0.213624	-1.404409	0.520768
N14	N	-0.453391	-1.508095	0.436270
C15	C	-0.064864	-1.454667	0.258920
C16	C	-0.031038	-1.445855	0.123882
C17	C	0.298984	-1.468845	0.468245
C18	C	0.461251	-1.443648	0.488801
C19	C	-0.124001	-1.026645	0.494933
C20	C	-0.115774	-0.885849	0.462093
C21	C	-0.129794	-0.679991	0.518071
C22	C	-0.137761	-0.816217	0.549842
C23	C	-0.137362	-1.460800	0.048306
C24	C	-0.102404	-1.451693	-0.091263
C25	C	-0.174908	-1.457827	0.698126
C26	C	-0.208743	-1.466641	0.833163
H27	H	0.508295	-1.369818	0.548985
O28	O	0.243112	-1.556922	0.396364
C29	C	0.290414	-1.711824	0.270195
C30	C	0.353876	-1.612092	0.351550
H31	H	0.379930	-1.756475	0.233961
H32	H	0.239408	-1.666557	0.189559
H33	H	0.204882	-1.786339	0.326919
H34	H	0.439460	-1.537547	0.294930
H35	H	0.404788	-1.657449	0.432191
H36	H	-0.148905	-1.071261	0.594360
H37	H	0.499567	-1.581916	0.376076
O38	O	0.108487	-1.422702	0.077970
C39	C	0.334274	-1.491745	0.075664
C40	C	0.176299	-1.518103	0.127773
H41	H	0.389138	-1.568873	0.115888
H42	H	0.393029	-1.398388	0.101137
H43	H	0.337575	-1.488498	-0.028694
H44	H	0.172865	-1.521414	0.232135
H45	H	0.117612	-1.611439	0.102204
H46	H	0.260675	-1.330583	0.580948
O47	O	-0.086308	-0.832621	0.343454
C48	C	-0.168089	-0.717609	0.170069
C49	C	-0.201653	-0.777864	0.304415
H50	H	-0.261311	-0.673301	0.138472
H51	H	-0.152894	-0.791900	0.109046
H52	H	-0.065147	-0.642940	0.163258
H53	H	-0.304608	-0.852523	0.311343
H54	H	-0.216757	-0.703501	0.365375
O55	O	-0.167554	-0.869638	0.668394
C56	C	-0.202807	-1.058658	0.809230
C57	C	-0.169072	-0.998322	0.674923
H58	H	-0.204015	-1.162703	0.814557
H59	H	-0.312713	-1.044274	0.843874
H60	H	-0.116556	-1.013632	0.868709
H61	H	-0.255230	-1.043308	0.615348
H62	H	-0.059124	-1.012694	0.640378
H63	H	-0.077141	-1.051667	0.307767
O64	O	0.037027	-1.428217	-0.137477
C65	C	0.223345	-1.290276	-0.271266
C66	C	0.065407	-1.316734	-0.219047
H67	H	0.246348	-1.200130	-0.337205
H68	H	0.242722	-1.370571	-0.322542
H69	H	0.297925	-1.280503	-0.192627
H70	H	-0.009274	-1.326482	-0.297612
H71	H	0.046148	-1.236429	-0.167736
H72	H	-0.254269	-1.480332	0.086930
O73	O	-0.348145	-1.489878	-0.120582
C74	C	-0.510082	-1.519847	0.060674
C75	C	-0.352153	-1.493632	0.008464
H76	H	-0.513374	-1.522865	0.165012
H77	H	-0.568930	-1.613249	0.035375
H78	H	-0.564863	-1.442739	0.020265
H79	H	-0.297247	-1.570663	0.048845
H80	H	-0.293412	-1.400191	0.033751
