data_functionalizedCrystal
_audit_creation_method	'MofGen! by Chris Wilmer'
_symmetry_space_group_name_H-M	'P1'
_symmetry_Int_Tables_number	1
_symmetry_cell_setting	triclinic
loop_
_symmetry_equiv_pos_as_xyz
  x,y,z
_cell_length_a	13.032951
_cell_length_b	13.032868
_cell_length_c	13.032268
_cell_angle_alpha	76.714099
_cell_angle_beta	89.114265
_cell_angle_gamma	90.907752
loop_
_atom_site_label
_atom_site_type_symbol
_atom_site_fract_x
_atom_site_fract_y
_atom_site_fract_z
Zn1	Zn	-1.399325	0.702937	-0.857493
Zn2	Zn	-0.899325	1.202937	-0.357493
Zn3	Zn	-1.399196	0.858001	-0.702415
Zn4	Zn	-0.899196	1.358001	-0.202415
Zn5	Zn	-1.255318	0.659452	-0.658990
Zn6	Zn	-0.755318	1.159452	-0.158990
Zn7	Zn	-1.206239	0.852364	-0.851920
Zn8	Zn	-0.706239	1.352364	-0.351920
O9	O	-1.315019	0.768189	-0.767705
O10	O	-0.815019	1.268189	-0.267705
O11	O	-1.540328	0.744064	-0.857427
O12	O	-1.040328	1.244064	-0.357427
O13	O	-1.400595	0.815824	-0.551012
O14	O	-0.900595	1.315824	-0.051012
O15	O	-1.295014	0.519591	-0.669481
O16	O	-0.795014	1.019591	-0.169481
O17	O	-1.540233	0.857989	-0.743492
O18	O	-1.040233	1.357989	-0.243492
O19	O	-1.400816	0.551539	-0.815320
O20	O	-0.900816	1.051539	-0.315320
O21	O	-1.294888	0.669951	-0.519108
O22	O	-0.794888	1.169951	-0.019108
O23	O	-1.107787	0.664485	-0.664077
O24	O	-0.607787	1.164485	-0.164077
O25	O	-1.211368	0.848382	-0.998302
O26	O	-0.711368	1.348382	-0.498302
O27	O	-1.071729	0.806217	-0.805822
O28	O	-0.571729	1.306217	-0.305822
O29	O	-1.353227	0.738598	-1.002396
O30	O	-0.853227	1.238598	-0.502396
O31	O	-1.353006	1.002883	-0.738088
O32	O	-0.853006	1.502883	-0.238088
O33	O	-1.211242	0.998742	-0.847929
O34	O	-0.711242	1.498742	-0.347929
C35	C	-1.053193	0.730021	-0.729634
C36	C	-0.553193	1.230021	-0.229634
C37	C	-0.941175	0.713721	-0.713374
C38	C	-0.441175	1.213721	-0.213374
C39	C	-1.276808	1.038579	-0.797143
C40	C	-0.776808	1.538579	-0.297143
C41	C	-1.260549	1.154270	-0.809785
C42	C	-0.760549	1.654270	-0.309785
C43	C	-0.873420	0.776671	-0.776174
C44	C	-0.373420	1.276671	-0.276174
C45	C	-0.757644	0.759826	-0.759370
C46	C	-0.257644	1.259826	-0.259370
C47	C	-1.276837	0.797712	-1.039169
C48	C	-0.776837	1.297712	-0.539169
C49	C	-1.260566	0.810293	-1.154851
C50	C	-0.760566	1.310293	-0.654851
C51	C	-0.577871	0.806493	-0.805917
C52	C	-0.077871	1.306493	-0.305917
C53	C	-0.689889	0.822784	-0.822179
C54	C	-0.189889	1.322784	-0.322179
C55	C	-1.323489	1.207877	-0.761129
C56	C	-0.823489	1.707877	-0.261129
C57	C	-1.306686	1.327450	-0.774194
C58	C	-0.806686	1.827450	-0.274194
C59	C	-1.353372	1.496743	-0.738162
C60	C	-0.853372	1.996743	-0.238162
C61	C	-1.369635	1.381054	-0.725531
C62	C	-0.869635	1.881054	-0.225531
C63	C	-1.323501	0.761583	-1.208451
C64	C	-0.823501	1.261583	-0.708451
C65	C	-1.306686	0.774585	-1.328014
C66	C	-0.806686	1.274585	-0.828014
C67	C	-1.353122	0.738714	-0.497297
C68	C	-0.853122	1.238714	0.002703
C69	C	-1.369629	0.725868	-0.381612
C70	C	-0.869629	1.225868	0.118388
H71	H	-0.901125	0.843033	-0.842383
H72	H	-0.401125	1.343033	-0.342383
C73	C	-0.720226	0.670161	-0.669924
C74	C	-0.220226	1.170161	-0.169924
N75	N	-0.692041	0.602628	-0.602553
N76	N	-0.192041	1.102628	-0.102553
C77	C	-1.170952	0.879632	-1.212432
C78	C	-0.670952	1.379632	-0.712432
N79	N	-1.103452	0.931860	-1.255800
N80	N	-0.603452	1.431860	-0.755800
H81	H	-1.389819	1.165251	-0.709805
H82	H	-0.889819	1.665251	-0.209805
C83	C	-1.413110	0.692236	-1.150868
C84	C	-0.913110	1.192236	-0.650868
N85	N	-1.480605	0.640002	-1.107498
N86	N	-0.980605	1.140002	-0.607498
H87	H	-1.240359	1.370076	-0.825531
H88	H	-0.740359	1.870076	-0.325531
C89	C	-1.170942	1.211855	-0.879127
C90	C	-0.670942	1.711855	-0.379127
N91	N	-1.103446	1.255225	-0.931356
N92	N	-0.603446	1.755225	-0.431356
C93	C	-0.727305	0.912448	-0.911628
C94	C	-0.227305	1.412448	-0.411628
N95	N	-0.755487	0.979983	-0.978998
N96	N	-0.255487	1.479983	-0.478998
H97	H	-1.435969	1.338431	-0.674204
H98	H	-0.935969	1.838431	-0.174204
H99	H	-0.913470	0.647352	-0.647172
H100	H	-0.413470	1.147352	-0.147172
H101	H	-1.240346	0.825909	-1.370635
H102	H	-0.740346	1.325909	-0.870635
C103	C	-1.459247	0.656521	-1.324037
C104	C	-0.959247	1.156521	-0.824037
N105	N	-1.526747	0.604292	-1.280671
N106	N	-1.026747	1.104292	-0.780671
