data_functionalizedCrystal
_audit_creation_method	'MofGen! by Chris Wilmer'
_symmetry_space_group_name_H-M	'P1'
_symmetry_Int_Tables_number	1
_symmetry_cell_setting	triclinic
loop_
_symmetry_equiv_pos_as_xyz
  x,y,z
_cell_length_a	14.519709
_cell_length_b	17.666332
_cell_length_c	14.519709
_cell_angle_alpha	90.000270
_cell_angle_beta	83.680144
_cell_angle_gamma	90.003734
loop_
_atom_site_label
_atom_site_type_symbol
_atom_site_fract_x
_atom_site_fract_y
_atom_site_fract_z
O1	O	1.223874	0.062839	0.120893
O2	O	1.557207	0.396172	0.454226
O3	O	1.890540	0.729506	0.787559
O4	O	0.955397	0.062861	0.135129
O5	O	1.288730	0.396194	0.468463
O6	O	1.622064	0.729528	0.801796
O7	O	1.096754	0.062856	-0.006227
O8	O	1.430087	0.396190	0.327106
O9	O	1.763420	0.729523	0.660439
O10	O	1.082517	0.062844	0.262250
O11	O	1.415850	0.396177	0.595583
O12	O	1.749184	0.729510	0.928916
O13	O	1.096729	-0.063040	-0.006235
O14	O	1.430062	0.270293	0.327098
O15	O	1.763395	0.603626	0.660432
O16	O	0.955372	-0.063036	0.135122
O17	O	1.288705	0.270298	0.468455
O18	O	1.622039	0.603631	0.801788
O19	O	1.223849	-0.063058	0.120885
O20	O	1.557182	0.270276	0.454219
O21	O	1.890516	0.603609	0.787552
Cu22	Cu	1.089608	-0.074542	0.128003
Cu23	Cu	1.422942	0.258791	0.461336
Cu24	Cu	1.756275	0.592125	0.794669
Cu25	Cu	1.089638	0.074345	0.128012
Cu26	Cu	1.422971	0.407679	0.461345
Cu27	Cu	1.756304	0.741012	0.794678
O28	O	1.082492	-0.063053	0.262242
O29	O	1.415826	0.270280	0.595575
O30	O	1.749159	0.603614	0.928909
C31	C	0.921025	-0.000084	0.134462
C32	C	1.254358	0.333249	0.467795
C33	C	1.587691	0.666582	0.801129
C34	C	0.818643	-0.000076	0.132474
C35	C	1.151977	0.333258	0.465807
C36	C	1.485310	0.666591	0.799141
N37	N	1.089594	-0.179262	0.127996
N38	N	1.422928	0.154072	0.461329
N39	N	1.756261	0.487405	0.794663
C40	C	0.443748	-0.000110	0.125154
C41	C	0.777081	0.333224	0.458488
C42	C	1.110414	0.666557	0.791821
C43	C	0.548056	-0.000100	0.127187
C44	C	0.881389	0.333233	0.460520
C45	C	1.214722	0.666567	0.793854
C46	C	0.631192	-0.000092	0.128814
C47	C	0.964526	0.333241	0.462147
C48	C	1.297859	0.666575	0.795481
C49	C	0.735507	-0.000084	0.130847
C50	C	1.068840	0.333250	0.464180
C51	C	1.402173	0.666583	0.797514
C52	C	1.152207	-0.218873	0.065434
C53	C	1.485541	0.114460	0.398767
C54	C	1.818874	0.447793	0.732101
C55	C	1.152213	-0.298121	0.065429
C56	C	1.485546	0.035212	0.398763
C57	C	1.818879	0.368546	0.732096
C58	C	1.089614	-0.337754	0.128003
C59	C	1.422947	-0.004420	0.461336
C60	C	1.756280	0.328913	0.794670
C61	C	1.026989	-0.298132	0.190570
C62	C	1.360322	0.035201	0.523903
C63	C	1.693656	0.368534	0.857236
C64	C	1.026979	-0.218886	0.190566
C65	C	1.360312	0.114447	0.523900
C66	C	1.693646	0.447780	0.857233
N67	N	1.078009	-0.462176	0.209587
N68	N	1.411342	-0.128842	0.542920
N69	N	1.744676	0.204491	0.876253
N70	N	1.078024	-0.537456	0.209587
N71	N	1.411357	-0.204123	0.542920
N72	N	1.744691	0.129211	0.876254
C73	C	1.089638	-0.576518	0.128016
C74	C	1.422971	-0.243184	0.461349
C75	C	1.756305	0.090149	0.794683
N76	N	1.101255	-0.537455	0.046442
N77	N	1.434588	-0.204122	0.379775
N78	N	1.767922	0.129212	0.713108
N79	N	1.101245	-0.462168	0.046442
N80	N	1.434578	-0.128834	0.379775
N81	N	1.767912	0.204499	0.713109
C82	C	1.089617	-0.423683	0.128013
C83	C	1.422950	-0.090350	0.461347
C84	C	1.756284	0.242984	0.794680
C85	C	1.152261	-0.702059	0.065444
C86	C	1.485594	-0.368726	0.398777
C87	C	1.818927	-0.035392	0.732111
C88	C	1.152259	-0.781308	0.065438
C89	C	1.485593	-0.447975	0.398772
C90	C	1.818926	-0.114641	0.732105
C91	C	1.027040	-0.781318	0.190587
C92	C	1.360373	-0.447984	0.523920
C93	C	1.693707	-0.114651	0.857253
C94	C	1.027037	-0.702070	0.190584
C95	C	1.360370	-0.368737	0.523918
C96	C	1.693703	-0.035404	0.857251
C97	C	1.089652	-0.662446	0.128014
C98	C	1.422985	-0.329112	0.461347
C99	C	1.756318	0.004221	0.794681
C100	C	1.258221	-0.000111	0.121553
C101	C	1.591554	0.333223	0.454886
C102	C	1.924888	0.666556	0.788219
C103	C	1.360602	-0.000115	0.123541
C104	C	1.693936	0.333219	0.456874
C105	C	2.027269	0.666552	0.790207
N106	N	1.089659	0.179065	0.128011
N107	N	1.422992	0.512398	0.461345
N108	N	1.756326	0.845731	0.794678
C109	C	1.083168	-0.000106	0.296605
C110	C	1.416501	0.333227	0.629939
C111	C	1.749835	0.666560	0.963272
C112	C	1.085156	-0.000112	0.398987
C113	C	1.418490	0.333222	0.732320
C114	C	1.751823	0.666555	1.065653
C115	C	1.096078	-0.000089	-0.040591
C116	C	1.429411	0.333245	0.292742
C117	C	1.762744	0.666578	0.626076
C118	C	1.094090	-0.000078	-0.142972
C119	C	1.427423	0.333255	0.190361
C120	C	1.760756	0.666588	0.523694
C121	C	1.092476	-0.000082	0.773883
C122	C	1.425809	0.333251	1.107216
C123	C	1.759142	0.666584	1.440549
C124	C	1.090443	-0.000091	0.669575
C125	C	1.423777	0.333243	1.002908
C126	C	1.757110	0.666576	1.336241
C127	C	1.088816	-0.000098	0.586438
C128	C	1.422150	0.333236	0.919771
C129	C	1.755483	0.666569	1.253105
C130	C	1.086783	-0.000105	0.482123
C131	C	1.420117	0.333229	0.815457
C132	C	1.753450	0.666562	1.148790
H133	H	1.203190	-0.186613	0.014483
H134	H	1.536523	0.146720	0.347817
H135	H	1.869857	0.480053	0.681150
O136	O	1.219795	-0.824032	-0.002049
O137	O	1.553129	-0.490699	0.331284
O138	O	1.886462	-0.157365	0.664618
H139	H	1.209276	-0.885795	0.008455
H140	H	1.542610	-0.552461	0.341788
H141	H	1.875943	-0.219128	0.675121
H142	H	1.203243	-0.669795	0.014492
H143	H	1.536576	-0.336462	0.347826
H144	H	1.869910	-0.003128	0.681159
H145	H	0.976067	-0.813586	0.241532
H146	H	1.309401	-0.480253	0.574865
H147	H	1.642734	-0.146920	0.908198
H148	H	1.203202	-0.330379	0.014482
H149	H	1.536535	0.002954	0.347815
H150	H	1.869868	0.336288	0.681149
H151	H	0.976018	-0.330405	0.241517
H152	H	1.309352	0.002928	0.574850
H153	H	1.642685	0.336261	0.908183
O154	O	0.959451	-0.176154	0.258053
O155	O	1.292785	0.157179	0.591386
O156	O	1.626118	0.490512	0.924720
H157	H	0.915924	-0.217023	0.301569
H158	H	1.249257	0.116310	0.634902
H159	H	1.582591	0.449643	0.968236
H160	H	0.976055	-0.669816	0.241532
H161	H	1.309388	-0.336483	0.574865
H162	H	1.642721	-0.003150	0.908198
