data_functionalizedCrystal
_audit_creation_method	'MofGen! by Chris Wilmer'
_symmetry_space_group_name_H-M	'P1'
_symmetry_Int_Tables_number	1
_symmetry_cell_setting	triclinic
loop_
_symmetry_equiv_pos_as_xyz
  x,y,z
_cell_length_a	13.635800
_cell_length_b	11.168121
_cell_length_c	11.102300
_cell_angle_alpha	88.015986
_cell_angle_beta	108.605850
_cell_angle_gamma	71.491504
loop_
_atom_site_label
_atom_site_type_symbol
_atom_site_fract_x
_atom_site_fract_y
_atom_site_fract_z
V1	V	2.055512	-0.174704	0.396267
O2	O	2.035294	0.008396	0.388713
O3	O	2.043652	-0.346410	0.393567
O4	O	2.043907	-0.172017	0.569088
O5	O	2.035037	-0.167204	0.211977
V6	V	2.294095	-0.152803	0.374223
O7	O	2.193114	-0.222746	0.444622
O8	O	2.381592	-0.104762	0.325868
O9	O	2.194352	0.018902	0.376923
O10	O	2.373012	-0.335903	0.381777
O11	O	2.373268	-0.160303	0.558513
O12	O	2.194098	-0.155491	0.201402
V13	V	2.555512	-0.174704	0.396267
O14	O	2.535294	0.008396	0.388713
O15	O	2.543652	-0.346410	0.393567
O16	O	2.543907	-0.172017	0.569088
O17	O	2.535037	-0.167204	0.211977
V18	V	2.794095	-0.152803	0.374223
O19	O	2.693114	-0.222746	0.444622
O20	O	2.881592	-0.104762	0.325868
O21	O	2.694352	0.018902	0.376923
O22	O	2.873012	-0.335903	0.381777
O23	O	2.873268	-0.160303	0.558513
O24	O	2.694098	-0.155491	0.201402
C25	C	1.968747	-0.388268	0.387319
C26	C	1.999777	-0.528639	0.386263
C27	C	2.101040	-0.597331	0.391821
C28	C	2.133113	-0.742413	0.390730
C29	C	1.969071	-0.165811	0.611211
C30	C	2.000305	-0.164750	0.752493
C31	C	2.100928	0.060753	0.383168
C32	C	2.059518	0.201123	0.384232
C33	C	2.100604	-0.161701	0.159272
C34	C	2.058988	-0.162756	0.017989
C35	C	2.468747	-0.388268	0.387319
C36	C	2.499777	-0.528639	0.386263
C37	C	2.106976	-0.170557	0.825342
C38	C	2.136317	-0.169556	0.958091
C39	C	1.952308	-0.156944	0.945129
C40	C	1.922966	-0.157936	0.812382
C41	C	2.484297	-0.576554	0.269382
C42	C	2.513465	-0.708449	0.268395
C43	C	2.573590	-0.744504	0.501181
C44	C	2.544429	-0.612612	0.502167
C45	C	2.469071	-0.165811	0.611211
C46	C	2.500305	-0.164750	0.752493
C47	C	2.600928	0.060753	0.383168
C48	C	2.559518	0.201123	0.384232
C49	C	2.600604	-0.161701	0.159272
C50	C	2.558988	-0.162756	0.017989
C51	C	2.606976	-0.170557	0.825342
C52	C	2.636317	-0.169556	0.958091
C53	C	2.452308	-0.156944	0.945129
C54	C	2.422966	-0.157936	0.812382
H55	H	2.219857	-0.801461	0.395473
H56	H	2.336096	-0.153197	0.753064
H57	H	2.447939	-0.508186	0.175005
N58	N	2.251364	-0.175805	1.036663
H59	H	2.295900	-0.180267	0.978575
H60	H	2.287896	-0.254303	1.104377
N61	N	1.868909	-0.149614	1.009740
H62	H	1.843925	-0.225669	0.996147
H63	H	1.803296	-0.068345	0.971435
H64	H	2.557043	-0.573602	0.597352
H65	H	1.972767	-0.739833	0.379470
N66	N	2.690385	-0.177902	0.760744
H67	H	2.762412	-0.181426	0.827042
H68	H	2.661873	-0.099948	0.693601
H69	H	1.936830	-0.577238	0.380705
N70	N	2.496774	-0.760130	0.142331
H71	H	2.464064	-0.686917	0.069062
H72	H	2.445003	-0.809703	0.132540
N73	N	2.621736	-0.835060	0.626195
H74	H	2.692364	-0.824352	0.681557
H75	H	2.637791	-0.925848	0.607743
N76	N	2.751374	-0.175827	1.036651
H77	H	2.787995	-0.254332	1.104367
H78	H	2.747221	-0.096999	1.079580
H79	H	1.836096	-0.153197	0.753064
N80	N	2.368898	-0.149618	1.009723
H81	H	2.303225	-0.068396	0.971445
H82	H	2.403760	-0.149931	1.104864
N83	N	2.184438	-0.532978	0.399206
H84	H	2.149705	-0.438459	0.398942
H85	H	2.209278	-0.546511	0.322653
N86	N	2.190385	-0.177902	0.760744
H87	H	2.262412	-0.181426	0.827042
H88	H	2.161873	-0.099948	0.693601
