data_functionalizedCrystal
_audit_creation_method	'MofGen! by Chris Wilmer'
_symmetry_space_group_name_H-M	'P1'
_symmetry_Int_Tables_number	1
_symmetry_cell_setting	triclinic
loop_
_symmetry_equiv_pos_as_xyz
  x,y,z
_cell_length_a	19.077105
_cell_length_b	16.959454
_cell_length_c	19.076919
_cell_angle_alpha	87.724511
_cell_angle_beta	89.923776
_cell_angle_gamma	87.716588
loop_
_atom_site_label
_atom_site_type_symbol
_atom_site_fract_x
_atom_site_fract_y
_atom_site_fract_z
Zn1	Zn	1.058295	-0.382399	0.440440
Zn2	Zn	1.062944	-0.509490	0.322940
Zn3	Zn	0.945513	-0.371810	0.318233
Zn4	Zn	0.940765	-0.509013	0.435693
O5	O	1.001879	-0.443178	0.379326
O6	O	1.157244	-0.403889	0.428810
O7	O	1.051298	-0.486995	0.223984
O8	O	0.960515	-0.262606	0.334460
O9	O	1.160659	-0.497262	0.342484
O10	O	1.043376	-0.270386	0.424245
O11	O	0.965022	-0.385842	0.220526
O12	O	0.846551	-0.385379	0.329857
O13	O	0.952424	-0.496450	0.534654
O14	O	0.843063	-0.486182	0.416155
O15	O	1.038773	-0.403426	0.538142
O16	O	1.046695	-0.620035	0.337881
O17	O	0.956931	-0.619685	0.420720
C18	C	0.819311	-0.434581	0.371980
C19	C	0.741206	-0.430922	0.368854
C20	C	0.702718	-0.481759	0.412246
C21	C	0.629330	-0.478312	0.409312
C22	C	0.594433	-0.424030	0.362983
C23	C	0.632926	-0.373188	0.319590
C24	C	0.706312	-0.376632	0.322528
C25	C	0.375144	-0.408090	0.349389
C26	C	0.301753	-0.404651	0.346453
C27	C	0.298162	-0.509774	0.436177
C28	C	0.371550	-0.513217	0.439107
C29	C	0.410037	-0.462372	0.395717
N30	N	0.519419	-0.420507	0.359981
N31	N	0.485049	-0.465892	0.398723
C32	C	1.001821	-0.648541	0.379312
C33	C	1.001859	-0.736400	0.379332
C34	C	0.955205	-1.107727	0.422458
C35	C	1.048747	-1.108038	0.336274
C36	C	1.048723	-1.025491	0.336266
C37	C	1.001938	-0.984058	0.379355
C38	C	0.955178	-1.025172	0.422451
C39	C	1.095477	-0.984370	0.293166
C40	C	1.095454	-0.901818	0.293156
C41	C	1.048672	-0.860383	0.336249
C42	C	1.001911	-0.901503	0.379347
C43	C	0.955126	-0.860069	0.422436
C44	C	0.908367	-0.901187	0.465538
C45	C	0.908396	-0.983737	0.465543
C46	C	1.048644	-0.777834	0.336244
C47	C	0.955099	-0.777514	0.422428
C48	C	1.185161	-0.451810	0.386702
C49	C	1.263265	-0.455488	0.389844
C50	C	0.994550	-0.451066	0.562607
C51	C	0.991427	-0.454427	0.640710
C52	C	1.001956	-0.237015	0.379357
C53	C	1.001989	-0.149160	0.379370
C54	C	1.009220	-0.435266	0.196760
C55	C	1.012479	-0.431688	0.118663
C56	C	1.034915	-0.407577	0.679220
C57	C	1.031972	-0.410731	0.752606
C58	C	0.985544	-0.460742	0.787481
C59	C	0.942052	-0.507595	0.748966
C60	C	0.944992	-0.504435	0.675581
C61	C	0.971927	-0.475381	1.006763
C62	C	0.968992	-0.478539	1.080153
C63	C	1.058911	-0.381674	1.083788
C64	C	1.061850	-0.378523	1.010402
C65	C	1.018355	-0.425372	0.971893
N66	N	0.982536	-0.463970	0.862493
N67	N	1.021360	-0.422140	0.896882
H68	H	0.597996	-0.519710	0.444645
H69	H	0.904247	-0.548311	0.777367
H70	H	1.067386	-0.372582	0.783958
H71	H	0.870272	-0.867443	0.500618
H72	H	0.931183	-0.519265	1.108546
O73	O	0.743728	-0.327173	0.280476
C74	C	0.827009	-0.223959	0.274500
C75	C	0.784666	-0.279919	0.322204
H76	H	0.860129	-0.185752	0.308218
H77	H	0.789492	-0.184517	0.240896
H78	H	0.862791	-0.260226	0.239062
H79	H	0.748882	-0.243715	0.357685
H80	H	0.822223	-0.319364	0.355761
H81	H	0.917003	-0.743785	0.457519
O82	O	0.909810	-1.147784	0.464260
C83	C	0.868422	-1.274817	0.502509
C84	C	0.919858	-1.229551	0.455123
H85	H	0.876539	-1.340935	0.495150
H86	H	0.812246	-1.255499	0.487840
H87	H	0.878437	-1.261525	0.559664
H88	H	0.909907	-1.242821	0.397955
H89	H	0.976017	-1.248875	0.469852
O90	O	0.902676	-0.549834	0.638140
C91	C	0.811145	-0.552444	0.551436
C92	C	0.859018	-0.500935	0.593800
H93	H	0.775845	-0.512931	0.515566
H94	H	0.777410	-0.588713	0.588937
H95	H	0.844779	-0.593833	0.518405
H96	H	0.825437	-0.459500	0.626834
H97	H	0.892756	-0.464720	0.556261
H98	H	0.870326	-1.017223	0.500634
O99	O	0.405336	-0.565969	0.484174
C100	C	0.394029	-0.669908	0.572825
C101	C	0.355677	-0.610188	0.521834
H102	H	0.353897	-0.705687	0.603276
H103	H	0.426913	-0.636922	0.611045
H104	H	0.429680	-0.711367	0.541862
H105	H	0.319990	-0.568714	0.552739
H106	H	0.322838	-0.643226	0.483614
O107	O	0.260668	-0.559077	0.478301
C108	C	0.146023	-0.600393	0.513516
C109	C	0.188397	-0.544500	0.465778
H110	H	0.087585	-0.588639	0.503398
H111	H	0.158149	-0.589723	0.570788
H112	H	0.160972	-0.664243	0.501668
H113	H	0.173472	-0.480630	0.477564
H114	H	0.176267	-0.555238	0.408521
O115	O	1.094140	-1.148405	0.294458
C116	C	1.135547	-1.275711	0.256177
C117	C	1.084127	-1.230094	0.303599
H118	H	1.127459	-1.341764	0.263541
H119	H	1.191727	-1.262712	0.270810
H120	H	1.125488	-1.256417	0.199030
H121	H	1.094122	-1.249361	0.360761
H122	H	1.027963	-1.243095	0.288907
H123	H	0.731126	-0.525964	0.449970
O124	O	1.140907	-0.861798	0.251392
C125	C	1.236162	-0.772621	0.245835
C126	C	1.184716	-0.817887	0.293210
H127	H	1.271605	-0.737120	0.279627
H128	H	1.205429	-0.730857	0.207780
H129	H	1.269572	-0.816427	0.215023
H130	H	1.151294	-0.774139	0.324068
H131	H	1.215491	-0.859663	0.331221
H132	H	1.133562	-1.018111	0.258080
O133	O	0.267962	-0.351846	0.301430
C134	C	0.279264	-0.247970	0.212720
C135	C	0.317621	-0.307714	0.263685
H136	H	0.319397	-0.212284	0.182179
H137	H	0.243648	-0.206428	0.243638
H138	H	0.246343	-0.281014	0.174575
H139	H	0.350579	-0.274736	0.301842
H140	H	0.353194	-0.349254	0.232721
O141	O	0.929610	-0.520770	0.969320
C142	C	0.838086	-0.523355	0.882606
C143	C	0.885958	-0.471859	0.924984
H144	H	0.802792	-0.483832	0.846739
H145	H	0.804346	-0.559629	0.920098
H146	H	0.871722	-0.564739	0.849571
H147	H	0.852376	-0.430430	0.958022
H148	H	0.919701	-0.435639	0.887455
O149	O	0.412600	-0.358816	0.307204
C150	C	0.499189	-0.347811	0.215627
C151	C	0.456827	-0.403706	0.263375
H152	H	0.534946	-0.384082	0.180169
H153	H	0.532319	-0.309548	0.249285
H154	H	0.461620	-0.308414	0.182043
H155	H	0.494345	-0.443153	0.296968
H156	H	0.423688	-0.441915	0.229676
H157	H	1.072724	-0.366855	0.650831
O158	O	0.598998	-0.320565	0.274512
C159	C	0.519883	-0.301786	0.176371
C160	C	0.558275	-0.361468	0.227365
H161	H	0.486937	-0.334832	0.138249
H162	H	0.559968	-0.266049	0.145810
H163	H	0.484280	-0.260281	0.207340
H164	H	0.593876	-0.403022	0.196451
H165	H	0.518152	-0.397148	0.257927
H166	H	1.086711	-0.744359	0.301147
H167	H	1.099658	-0.337801	0.982012
H168	H	1.094322	-0.343531	1.115150
