data_functionalizedCrystal
_audit_creation_method	'MofGen! by Chris Wilmer'
_symmetry_space_group_name_H-M	'P1'
_symmetry_Int_Tables_number	1
_symmetry_cell_setting	triclinic
loop_
_symmetry_equiv_pos_as_xyz
  x,y,z
_cell_length_a	12.759401
_cell_length_b	21.395361
_cell_length_c	12.759393
_cell_angle_alpha	89.961845
_cell_angle_beta	89.979062
_cell_angle_gamma	90.032233
loop_
_atom_site_label
_atom_site_type_symbol
_atom_site_fract_x
_atom_site_fract_y
_atom_site_fract_z
Zn1	Zn	1.606150	-0.249383	-0.593964
Zn2	Zn	2.106150	0.250617	-0.093964
Zn3	Zn	1.605992	-0.354173	-0.418261
Zn4	Zn	2.105992	0.145827	0.081739
Zn5	Zn	1.430448	-0.249416	-0.418299
Zn6	Zn	1.930448	0.250584	0.081701
Zn7	Zn	1.430391	-0.354129	-0.593898
Zn8	Zn	1.930391	0.145871	-0.093898
O9	O	1.518245	-0.301775	-0.506106
O10	O	2.018245	0.198225	-0.006106
O11	O	1.753150	-0.263288	-0.570668
O12	O	2.253150	0.236712	-0.070668
O13	O	1.582663	-0.340309	-0.271245
O14	O	2.082663	0.159691	0.228755
O15	O	1.453845	-0.161734	-0.441645
O16	O	1.953845	0.338266	0.058355
O17	O	1.753033	-0.340277	-0.441580
O18	O	2.253033	0.159723	0.058420
O19	O	1.582932	-0.161709	-0.570706
O20	O	2.082932	0.338291	-0.070706
O21	O	1.453692	-0.263345	-0.271273
O22	O	1.953692	0.236655	0.228727
O23	O	1.283420	-0.263302	-0.441581
O24	O	1.783420	0.236698	0.058419
O25	O	1.453748	-0.340202	-0.740928
O26	O	1.953748	0.159798	-0.240928
O27	O	1.283378	-0.340234	-0.570593
O28	O	1.783378	0.159766	-0.070593
O29	O	1.582877	-0.263245	-0.740977
O30	O	2.082877	0.236755	-0.240977
O31	O	1.582608	-0.441845	-0.441516
O32	O	2.082608	0.058155	0.058484
O33	O	1.453595	-0.441813	-0.570556
O34	O	1.953595	0.058187	-0.070556
C35	C	1.245278	-0.301768	-0.506085
C36	C	1.745278	0.198232	-0.006085
C37	C	1.128501	-0.301779	-0.506101
C38	C	1.628501	0.198221	-0.006101
C39	C	1.073645	-0.341899	-0.573171
C40	C	1.573645	0.158101	-0.073171
C41	C	0.963921	-0.341901	-0.573192
C42	C	1.463921	0.158099	-0.073192
C43	C	0.963919	-0.261663	-0.439063
C44	C	1.463919	0.238337	0.060937
C45	C	1.073641	-0.261658	-0.439048
C46	C	1.573641	0.238342	0.060952
C47	C	1.518106	-0.464563	-0.506047
C48	C	2.018106	0.035437	-0.006047
C49	C	1.518143	-0.534204	-0.506057
C50	C	2.018143	-0.034204	-0.006057
C51	C	1.585380	-0.566913	-0.438935
C52	C	2.085380	-0.066913	0.061065
C53	C	1.585429	-0.632349	-0.438958
C54	C	2.085429	-0.132349	0.061042
C55	C	1.518222	-0.665072	-0.506093
C56	C	2.018222	-0.165072	-0.006093
C57	C	1.450981	-0.632355	-0.573229
C58	C	1.950981	-0.132355	-0.073229
C59	C	1.450941	-0.566921	-0.573211
C60	C	1.950941	-0.066921	-0.073211
C61	C	1.423624	-0.768788	-0.514329
C62	C	1.923624	-0.268788	-0.014329
C63	C	1.423662	-0.834221	-0.514340
C64	C	1.923662	-0.334221	-0.014340
C65	C	1.518345	-0.866893	-0.506155
C66	C	2.018345	-0.366893	-0.006155
C67	C	1.612993	-0.834125	-0.497937
C68	C	2.112993	-0.334125	0.002063
C69	C	1.612953	-0.768691	-0.497919
C70	C	2.112953	-0.268691	0.002081
C71	C	1.518258	-0.736025	-0.506121
C72	C	2.018258	-0.236025	-0.006121
C73	C	1.585640	-0.970555	-0.439054
C74	C	2.085640	-0.470555	0.060946
C75	C	1.585690	-1.035991	-0.439085
C76	C	2.085690	-0.535991	0.060915
C77	C	1.451233	-1.035997	-0.573350
C78	C	1.951233	-0.535997	-0.073350
C79	C	1.451192	-0.970562	-0.573325
C80	C	1.951192	-0.470562	-0.073325
C81	C	1.518394	-0.937844	-0.506171
C82	C	2.018394	-0.437844	-0.006171
C83	C	1.792278	-0.301783	-0.506127
C84	C	2.292278	0.198217	-0.006127
C85	C	1.909055	-0.301787	-0.506136
C86	C	2.409055	0.198213	-0.006136
C87	C	1.518324	-0.301715	-0.780139
C88	C	2.018324	0.198285	-0.280139
C89	C	1.518357	-0.301689	-0.896916
C90	C	2.018357	0.198311	-0.396916
C91	C	1.518413	-0.138352	-0.506187
C92	C	2.018413	0.361648	-0.006187
C93	C	1.518484	-0.068711	-0.506222
C94	C	2.018484	0.431289	-0.006222
C95	C	1.585600	-0.261612	-0.951805
C96	C	2.085600	0.238388	-0.451805
C97	C	1.585617	-0.261585	-1.061529
C98	C	2.085617	0.238415	-0.561529
C99	C	1.451147	-0.341719	-1.061465
C100	C	1.951147	0.158281	-0.561465
C101	C	1.451125	-0.341742	-0.951743
C102	C	1.951125	0.158258	-0.451743
C103	C	1.518227	-0.301790	-0.233138
C104	C	2.018227	0.198210	0.266862
C105	C	1.518397	-0.301639	-0.116362
C106	C	2.018397	0.198361	0.383638
H107	H	0.919261	-0.374570	-0.627809
H108	H	1.419261	0.125430	-0.127809
H109	H	1.690018	-0.742012	-0.491231
H110	H	2.190018	-0.242012	0.008769
C111	C	1.377156	-0.385828	-0.891356
C112	C	1.877156	0.114172	-0.391356
H113	H	1.386765	-0.380100	-0.818158
H114	H	1.886765	0.119900	-0.318158
H115	H	1.392485	-0.427924	-0.909314
H116	H	1.892485	0.072076	-0.409314
H117	H	1.306576	-0.376646	-0.909331
H118	H	1.806576	0.123354	-0.409331
H119	H	1.118309	-0.374567	-0.627773
H120	H	1.618309	0.125433	-0.127773
C121	C	1.377205	-0.385779	-1.121774
C122	C	1.877205	0.114221	-0.621774
H123	H	1.337148	-0.409647	-1.073366
H124	H	1.837148	0.090353	-0.573366
H125	H	1.417374	-0.413071	-1.164568
H126	H	1.917374	0.086929	-0.664568
H127	H	1.331458	-0.361797	-1.164581
H128	H	1.831458	0.138203	-0.664581
H129	H	0.919239	-0.228998	-0.384469
H130	H	1.419239	0.271002	0.115531
C131	C	1.377312	-1.071985	-0.647202
C132	C	1.877312	-0.571985	-0.147202
H133	H	1.386962	-1.115641	-0.637598
H134	H	1.886962	-0.615641	-0.137598
H135	H	1.392646	-1.061216	-0.717802
H136	H	1.892646	-0.561216	-0.217802
H137	H	1.306718	-1.061310	-0.631756
H138	H	1.806718	-0.561310	-0.131756
C139	C	1.659538	-0.217548	-0.891498
C140	C	2.159538	0.282452	-0.391498
H141	H	1.699579	-0.193671	-0.939907
H142	H	2.199579	0.306329	-0.439907
H143	H	1.705284	-0.241522	-0.848687
H144	H	2.205284	0.258478	-0.348687
H145	H	1.619356	-0.190255	-0.848707
H146	H	2.119356	0.309745	-0.348707
C147	C	1.133987	-0.217525	-0.365265
C148	C	1.633987	0.282475	0.134735
H149	H	1.085602	-0.193637	-0.325323
H150	H	1.585602	0.306363	0.174677
H151	H	1.176833	-0.190254	-0.405536
H152	H	1.676833	0.309746	0.094464
H153	H	1.176746	-0.241462	-0.319405
H154	H	1.676746	0.258538	0.180595
H155	H	1.640449	-1.062622	-0.384428
H156	H	2.140449	-0.562622	0.115572
C157	C	1.659310	-0.530928	-0.365081
C158	C	2.159310	-0.030928	0.134919
H159	H	1.699368	-0.559784	-0.325116
H160	H	2.199368	-0.059784	0.174884
H161	H	1.619135	-0.505444	-0.319262
H162	H	2.119135	-0.005444	0.180738
H163	H	1.705056	-0.505360	-0.405314
H164	H	2.205056	-0.005360	0.094686
C165	C	1.659589	-0.217502	-1.121902
C166	C	2.159589	0.282498	-0.621902
H167	H	1.699629	-0.193657	-1.073531
H168	H	2.199629	0.306343	-0.573531
H169	H	1.619442	-0.190189	-1.164712
H170	H	2.119442	0.309811	-0.664712
H171	H	1.705351	-0.241468	-1.164699
H172	H	2.205351	0.258532	-0.664699
C173	C	1.319555	-0.870260	-0.523379
C174	C	1.819555	-0.370260	-0.023379
H175	H	1.263162	-0.841431	-0.528271
H176	H	1.763162	-0.341431	-0.028271
H177	H	1.310359	-0.895820	-0.463167
H178	H	1.810359	-0.395820	0.036833
H179	H	1.320912	-0.895755	-0.584294
H180	H	1.820912	-0.395755	-0.084294
H181	H	1.690092	-0.860725	-0.491272
H182	H	2.190092	-0.360725	0.008728
C183	C	1.659383	-0.668336	-0.365113
C184	C	2.159383	-0.168336	0.134887
H185	H	1.699394	-0.639479	-0.325112
H186	H	2.199394	-0.139479	0.174888
H187	H	1.705157	-0.693821	-0.405341
H188	H	2.205157	-0.193821	0.094659
H189	H	1.619214	-0.693903	-0.319310
H190	H	2.119214	-0.193903	0.180690
H191	H	1.640363	-0.943915	-0.384377
H192	H	2.140363	-0.443915	0.115623
C193	C	1.377225	-0.934577	-0.647151
C194	C	1.877225	-0.434577	-0.147151
H195	H	1.386833	-0.890921	-0.637531
H196	H	1.886833	-0.390921	-0.137531
H197	H	1.306649	-0.945346	-0.631718
H198	H	1.806649	-0.445346	-0.131718
H199	H	1.392580	-0.945257	-0.717761
H200	H	1.892580	-0.445257	-0.217761
H201	H	1.346516	-0.742192	-0.520999
H202	H	1.846516	-0.242192	-0.020999
H203	H	1.396263	-0.659003	-0.627892
H204	H	1.896263	-0.159003	-0.127892
C205	C	1.376972	-0.530940	-0.647042
C206	C	1.876972	-0.030940	-0.147042
H207	H	1.336949	-0.559798	-0.687028
H208	H	1.836949	-0.059798	-0.187028
H209	H	1.417120	-0.505366	-0.692844
H210	H	1.917120	-0.005366	-0.192844
H211	H	1.331196	-0.505463	-0.606795
H212	H	1.831196	-0.005463	-0.106795
