data_functionalizedCrystal
_audit_creation_method	'MofGen! by Chris Wilmer'
_symmetry_space_group_name_H-M	'P1'
_symmetry_Int_Tables_number	1
_symmetry_cell_setting	triclinic
loop_
_symmetry_equiv_pos_as_xyz
  x,y,z
_cell_length_a	12.594516
_cell_length_b	12.827893
_cell_length_c	12.827885
_cell_angle_alpha	90.019272
_cell_angle_beta	89.971946
_cell_angle_gamma	89.983977
loop_
_atom_site_label
_atom_site_type_symbol
_atom_site_fract_x
_atom_site_fract_y
_atom_site_fract_z
Zn1	Zn	-0.423691	-1.597665	-0.590861
Zn2	Zn	0.076309	-1.097665	-0.090861
Zn3	Zn	-0.601707	-1.597557	-0.416127
Zn4	Zn	-0.101707	-1.097557	0.083873
Zn5	Zn	-0.423743	-1.422906	-0.416135
Zn6	Zn	0.076257	-0.922906	0.083865
Zn7	Zn	-0.601628	-1.422889	-0.590827
Zn8	Zn	-0.101628	-0.922889	-0.090827
O9	O	-0.512693	-1.510254	-0.503487
O10	O	-0.012693	-1.010254	-0.003487
O11	O	-0.447317	-1.743887	-0.567693
O12	O	0.052683	-1.243887	-0.067693
O13	O	-0.578155	-1.574351	-0.269892
O14	O	-0.078155	-1.074351	0.230108
O15	O	-0.274791	-1.446140	-0.439330
O16	O	0.225209	-0.946140	0.060670
O17	O	-0.578105	-1.743807	-0.439317
O18	O	-0.078105	-1.243807	0.060683
O19	O	-0.274752	-1.574535	-0.567701
O20	O	0.225248	-1.074535	-0.067701
O21	O	-0.447405	-1.446036	-0.269898
O22	O	0.052595	-0.946036	0.230102
O23	O	-0.447329	-1.276668	-0.439297
O24	O	0.052671	-0.776668	0.060703
O25	O	-0.577970	-1.446112	-0.737067
O26	O	-0.077970	-0.946112	-0.237067
O27	O	-0.578020	-1.276656	-0.567642
O28	O	-0.078020	-0.776656	-0.067642
O29	O	-0.447240	-1.574519	-0.737093
O30	O	0.052760	-1.074519	-0.237093
O31	O	-0.750643	-1.574335	-0.439283
O32	O	-0.250643	-1.074335	0.060717
O33	O	-0.750584	-1.446007	-0.567635
O34	O	-0.250584	-0.946007	-0.067635
C35	C	-0.512672	-1.238744	-0.503468
C36	C	-0.012672	-0.738744	-0.003468
C37	C	-0.512689	-1.122591	-0.503484
C38	C	-0.012689	-0.622591	-0.003484
C39	C	-0.789234	-1.510186	-0.503477
C40	C	-0.289234	-1.010186	-0.003477
C41	C	-0.907539	-1.510252	-0.503508
C42	C	-0.407539	-1.010252	-0.003508
C43	C	-0.512590	-1.510325	-0.776058
C44	C	-0.012590	-1.010325	-0.276058
C45	C	-0.512547	-1.510356	-0.892211
C46	C	-0.012547	-1.010356	-0.392211
C47	C	-0.976799	-1.440448	-0.573269
C48	C	-0.476799	-0.940448	-0.073269
C49	C	-1.047668	-1.414986	-0.477914
C50	C	-0.547668	-0.914986	0.022086
C51	C	-1.047469	-1.535809	-0.598879
C52	C	-0.547469	-1.035809	-0.098879
C53	C	-0.976849	-1.484740	-0.408102
C54	C	-0.476849	-0.984740	0.091898
C55	C	-0.976645	-1.605607	-0.529132
C56	C	-0.476645	-1.105607	-0.029132
C57	C	-1.047481	-1.580182	-0.433711
C58	C	-0.547481	-1.080182	0.066289
C59	C	-0.235072	-1.510352	-0.503521
C60	C	0.264928	-1.010352	-0.003521
C61	C	-0.116766	-1.510393	-0.503535
C62	C	0.383234	-1.010393	-0.003535
C63	C	-0.512714	-1.782824	-0.503508
C64	C	-0.012714	-1.282824	-0.003508
C65	C	-0.512723	-1.898978	-0.503517
C66	C	-0.012723	-1.398978	-0.003517
C67	C	-0.577460	-1.070828	-0.566895
C68	C	-0.077460	-0.570828	-0.066895
C69	C	-0.577479	-0.950778	-0.566914
C70	C	-0.077479	-0.450778	-0.066914
C71	C	-0.447845	-1.573902	-0.944008
C72	C	0.052155	-1.073902	-0.444008
C73	C	-0.447799	-1.573935	-1.064059
C74	C	0.052201	-1.073935	-0.564059
C75	C	-0.512718	-1.510244	-0.231978
C76	C	-0.012718	-1.010244	0.268022
C77	C	-0.512461	-1.510416	-0.115825
C78	C	-0.012461	-1.010416	0.384175
H79	H	-0.945763	-1.381312	-0.632178
H80	H	-0.445763	-0.881312	-0.132178
Cl81	Cl	-0.663063	-1.139617	-0.650692
Cl82	Cl	-0.163063	-0.639617	-0.150692
H83	H	-0.945428	-1.686164	-0.550829
H84	H	-0.445428	-1.186164	-0.050829
Cl85	Cl	-1.095830	-1.290580	-0.444457
Cl86	Cl	-0.595830	-0.790580	0.055543
Cl87	Cl	-0.929160	-1.451311	-0.283558
Cl88	Cl	-0.429160	-0.951311	0.216442
Cl89	Cl	-0.362276	-1.657942	-1.132826
Cl90	Cl	0.137724	-1.157942	-0.632826
Cl91	Cl	-1.095369	-1.569095	-0.723384
Cl92	Cl	-0.595369	-1.069095	-0.223384
Cl93	Cl	-1.095099	-1.671417	-0.342545
Cl94	Cl	-0.595099	-1.171417	0.157455
H95	H	-0.632935	-0.906263	-0.621199
H96	H	-0.132935	-0.406263	-0.121199
H97	H	-0.567862	-1.456012	-1.071287
H98	H	-0.067862	-0.956012	-0.571287
Cl99	Cl	-0.427106	-0.967693	-0.419686
Cl100	Cl	0.072894	-0.467693	0.080314
Cl101	Cl	-0.427085	-1.053803	-0.419688
Cl102	Cl	0.072915	-0.553803	0.080312
H103	H	-0.567899	-1.455969	-0.936742
H104	H	-0.067899	-0.955969	-0.436742
H105	H	-0.392482	-1.628279	-0.899477
H106	H	0.107518	-1.128279	-0.399477
