data_functionalizedCrystal
_audit_creation_method	'MofGen! by Chris Wilmer'
_symmetry_space_group_name_H-M	'P1'
_symmetry_Int_Tables_number	1
_symmetry_cell_setting	triclinic
loop_
_symmetry_equiv_pos_as_xyz
  x,y,z
_cell_length_a	10.967819
_cell_length_b	13.596369
_cell_length_c	11.026607
_cell_angle_alpha	89.997861
_cell_angle_beta	96.381100
_cell_angle_gamma	102.135272
loop_
_atom_site_label
_atom_site_type_symbol
_atom_site_fract_x
_atom_site_fract_y
_atom_site_fract_z
O1	O	1.694042	0.368924	0.170518
O2	O	2.194042	0.868924	0.670518
O3	O	1.334403	0.307968	0.186839
O4	O	1.834403	0.807968	0.686839
O5	O	1.484416	0.333391	0.001777
O6	O	1.984416	0.833391	0.501777
O7	O	1.544029	0.343502	0.355580
O8	O	2.044029	0.843502	0.855580
O9	O	1.484395	0.169804	0.001787
O10	O	1.984395	0.669804	0.501787
O11	O	1.334382	0.144381	0.186849
O12	O	1.834382	0.644381	0.686849
O13	O	1.694021	0.205338	0.170528
O14	O	2.194021	0.705338	0.670528
Zn15	Zn	1.514198	0.148887	0.178690
Zn16	Zn	2.014198	0.648887	0.678690
Zn17	Zn	1.514226	0.364419	0.178677
Zn18	Zn	2.014226	0.864419	0.678677
O19	O	1.544008	0.179915	0.355590
O20	O	2.044008	0.679915	0.855590
C21	C	1.287635	0.218250	0.185656
C22	C	1.787635	0.718250	0.685656
C23	C	1.148310	0.194635	0.182102
C24	C	1.648310	0.694635	0.682102
N25	N	1.514188	0.001793	0.178699
N26	N	2.014188	0.501793	0.678699
C27	C	0.942214	0.244462	0.176851
C28	C	1.442214	0.744462	0.676851
C29	C	1.086213	0.268863	0.180516
C30	C	1.586213	0.768863	0.680516
C31	C	1.514195	-0.087204	0.178701
C32	C	2.014195	0.412796	0.678701
C33	C	1.514205	-0.198853	0.178693
C34	C	2.014205	0.301147	0.678693
C35	C	1.514218	-0.287842	0.178679
C36	C	2.014218	0.212158	0.678679
C37	C	1.514231	-0.399498	0.178672
C38	C	2.014231	0.100502	0.678672
C39	C	1.740789	0.295058	0.171711
C40	C	2.240789	0.795058	0.671711
C41	C	1.880114	0.318679	0.175265
C42	C	2.380114	0.818679	0.675265
C43	C	1.473408	0.249734	-0.043520
C44	C	1.973408	0.749734	0.456480
C45	C	1.440624	0.244181	-0.178507
C46	C	1.940624	0.744181	0.321493
N47	N	1.514244	0.511514	0.178659
N48	N	2.014244	1.011514	0.678659
C49	C	1.531146	0.259526	-0.251559
C50	C	2.031146	0.759526	0.248441
C51	C	1.497264	0.253786	-0.391076
C52	C	1.997264	0.753786	0.108924
C53	C	1.555016	0.263573	0.400887
C54	C	2.055016	0.763573	0.900887
C55	C	1.587800	0.269133	0.535874
C56	C	2.087800	0.769133	1.035874
H57	H	0.888774	0.162858	0.175502
H58	H	1.388774	0.662858	0.675502
F59	F	1.306537	0.221464	-0.231758
F60	F	1.806537	0.721464	0.268242
F61	F	1.721894	0.291866	-0.410884
F62	F	2.221894	0.791866	0.089116
F63	F	1.078474	0.087964	0.180338
F64	F	1.578474	0.587964	0.680338
F65	F	1.156053	0.375534	0.182296
F66	F	1.656053	0.875534	0.682296
H67	H	1.633729	0.276907	-0.210814
H68	H	2.133729	0.776907	0.289186
F69	F	0.949959	0.425345	0.177045
F70	F	1.449959	0.925345	0.677045
F71	F	1.363171	0.231068	-0.444321
F72	F	1.863171	0.731068	0.055679
