data_functionalizedCrystal
_audit_creation_method	'MofGen! by Chris Wilmer'
_symmetry_space_group_name_H-M	'P1'
_symmetry_Int_Tables_number	1
_symmetry_cell_setting	triclinic
loop_
_symmetry_equiv_pos_as_xyz
  x,y,z
_cell_length_a	19.188930
_cell_length_b	16.974800
_cell_length_c	16.053789
_cell_angle_alpha	89.238068
_cell_angle_beta	92.901023
_cell_angle_gamma	83.267966
loop_
_atom_site_label
_atom_site_type_symbol
_atom_site_fract_x
_atom_site_fract_y
_atom_site_fract_z
O1	O	0.088883	1.048779	-0.001452
O2	O	0.588883	1.548779	0.498548
O3	O	0.100815	0.819196	0.014070
O4	O	0.600815	1.319196	0.514070
O5	O	-0.006813	0.940612	0.005845
O6	O	0.493187	1.440612	0.505845
O7	O	0.196511	0.927363	0.006773
O8	O	0.696511	1.427363	0.506773
O9	O	-0.012045	0.934689	-0.132615
O10	O	0.487955	1.434689	0.367385
O11	O	0.095582	0.813273	-0.124390
O12	O	0.595582	1.313273	0.375610
O13	O	0.083651	1.042856	-0.139911
O14	O	0.583651	1.542856	0.360089
Zn15	Zn	0.088786	0.927124	-0.154134
Zn16	Zn	0.588786	1.427124	0.345866
Zn17	Zn	0.095680	0.934928	0.028293
Zn18	Zn	0.595680	1.434928	0.528293
O19	O	0.191278	0.921440	-0.131687
O20	O	0.691278	1.421440	0.368313
C21	C	0.097844	0.786862	-0.053175
C22	C	0.597844	1.286862	0.446825
C23	C	0.096779	0.699342	-0.047259
C24	C	0.596779	1.199342	0.452741
C25	C	0.093424	0.655002	-0.119955
C26	C	0.593424	1.155002	0.380045
C27	C	0.092412	0.572769	-0.114399
C28	C	0.592412	1.072769	0.385601
C29	C	0.094759	0.534878	-0.036145
C30	C	0.594759	1.034878	0.463855
C31	C	0.098112	0.579225	0.036558
C32	C	0.598112	1.079225	0.536558
C33	C	0.099119	0.661457	0.031000
C34	C	0.599119	1.161457	0.531000
C35	C	0.092048	0.289288	-0.011431
C36	C	0.592048	0.789288	0.488569
C37	C	0.091042	0.207050	-0.005879
C38	C	0.591042	0.707050	0.494121
C39	C	0.085341	0.200600	-0.156836
C40	C	0.585341	0.700600	0.343164
C41	C	0.086352	0.282833	-0.162387
C42	C	0.586352	0.782833	0.337613
C43	C	0.089701	0.327174	-0.089684
C44	C	0.589701	0.827174	0.410316
N45	N	0.093727	0.450823	-0.030463
N46	N	0.593727	0.950823	0.469537
N47	N	0.090729	0.411228	-0.095367
N48	N	0.590729	0.911228	0.404633
C49	C	-0.035440	0.937221	-0.063358
C50	C	0.464560	1.437221	0.436642
C51	C	-0.112943	0.935933	-0.063279
C52	C	0.387057	1.435933	0.436721
C53	C	-0.157929	1.007176	-0.068099
C54	C	0.342071	1.507176	0.431901
C55	C	-0.230751	1.005967	-0.068004
C56	C	0.269249	1.505967	0.431996
C57	C	-0.258585	0.933509	-0.063105
C58	C	0.241415	1.433509	0.436895
C59	C	-0.213590	0.862256	-0.058279
C60	C	0.286410	1.362256	0.441721
C61	C	-0.140769	0.863468	-0.058366
C62	C	0.359231	1.363468	0.441634
N63	N	-0.368323	0.876108	-0.106481
N64	N	0.131677	1.376108	0.393519
N65	N	-0.437501	0.874962	-0.106400
N66	N	0.062499	1.374962	0.393600
C67	C	-0.477990	0.929853	-0.062841
C68	C	0.022010	1.429853	0.437159
N69	N	-0.446690	0.985946	-0.019376
N70	N	0.053310	1.485946	0.480624
N71	N	-0.377507	0.987095	-0.019460
N72	N	0.122493	1.487095	0.480540
C73	C	-0.337546	0.932187	-0.063009
C74	C	0.162454	1.432187	0.436991
C75	C	-0.601938	0.999790	-0.067557
C76	C	-0.101938	1.499790	0.432443
C77	C	-0.674761	0.998577	-0.067457
C78	C	-0.174761	1.498577	0.432543
C79	C	-0.657599	0.854865	-0.057740
C80	C	-0.157599	1.354865	0.442260
C81	C	-0.584777	0.856080	-0.057832
C82	C	-0.084777	1.356080	0.442168
C83	C	-0.556952	0.928544	-0.062745
C84	C	-0.056952	1.428544	0.437255
C85	C	0.219906	0.924831	-0.062481
C86	C	0.719906	1.424831	0.437519
C87	C	0.297410	0.926119	-0.062556
C88	C	0.797410	1.426119	0.437444
C89	C	0.086622	1.075190	-0.072665
C90	C	0.586622	1.575190	0.427335
C91	C	0.087687	1.162710	-0.078576
C92	C	0.587687	1.662710	0.421424
N93	N	0.084080	0.921804	-0.278636
N94	N	0.584080	1.421804	0.221364
C95	C	0.124636	0.967613	-0.325417
C96	C	0.624636	1.467613	0.174583
C97	C	0.121340	0.963902	-0.412573
C98	C	0.621340	1.463902	0.087427
C99	C	0.077490	0.914378	-0.452948
C100	C	0.577490	1.414378	0.047052
C101	C	0.036929	0.868568	-0.406161
C102	C	0.536929	1.368568	0.093839
C103	C	0.040222	0.872284	-0.319006
C104	C	0.540222	1.372284	0.180994
C105	C	0.063112	0.898159	-0.713265
C106	C	0.563112	1.398159	-0.213265
C107	C	0.059824	0.894445	-0.800426
C108	C	0.559824	1.394445	-0.300426
C109	C	0.144234	0.989781	-0.806832
C110	C	0.644234	1.489781	-0.306832
C111	C	0.147527	0.993488	-0.719675
C112	C	0.647527	1.493488	-0.219675
C113	C	0.106963	0.947681	-0.672896
C114	C	0.606963	1.447681	-0.172896
N115	N	0.074121	0.910582	-0.542036
N116	N	0.574121	1.410582	-0.042036
N117	N	0.110328	0.951482	-0.583810
N118	N	0.610328	1.451482	-0.083810
N119	N	0.100380	0.940254	0.152794
N120	N	0.600380	1.440254	0.652794
H121	H	0.092956	0.176202	0.057848
H122	H	0.592956	0.676202	0.557848
N123	N	-0.686010	0.780844	-0.052725
N124	N	-0.186010	1.280844	0.447275
N125	N	-0.669913	0.735367	0.008884
N126	N	-0.169913	1.235367	0.508884
H127	H	-0.689979	0.683086	0.012430
H128	H	-0.189979	1.183086	0.512430
N129	N	-0.242021	0.788243	-0.053297
N130	N	0.257979	1.288243	0.446703
N131	N	-0.230357	0.737774	-0.108421
N132	N	0.269643	1.237774	0.391579
H133	H	-0.250437	0.685499	-0.104902
H134	H	0.249563	1.185499	0.395098
N135	N	-0.720727	1.071347	-0.072374
N136	N	-0.220727	1.571347	0.427626
N137	N	-0.761061	1.089203	-0.015045
N138	N	-0.261061	1.589203	0.484955
H139	H	-0.793528	1.140597	-0.018519
H140	H	-0.293528	1.640597	0.481481
H141	H	0.154364	1.001206	-0.450659
H142	H	0.654364	1.501206	0.049341
N143	N	-0.538831	0.783298	-0.052910
N144	N	-0.038831	1.283298	0.447090
N145	N	-0.563689	0.718607	-0.048533
N146	N	-0.063689	1.218607	0.451467
H147	H	-0.531240	0.667201	-0.045055
H148	H	-0.031240	1.167201	0.454945
H149	H	0.160348	1.007936	-0.292550
H150	H	0.660348	1.507936	0.207450
H151	H	0.001222	0.828249	-0.439041
H152	H	0.501222	1.328249	0.060959
N153	N	-0.001225	0.825503	-0.271232
N154	N	0.498775	1.325503	0.228768
N155	N	-0.040383	0.781298	-0.307289
N156	N	0.459617	1.281298	0.192711
H157	H	-0.069663	0.748264	-0.273550
H158	H	0.430337	1.248264	0.226450
N159	N	0.081920	0.155320	-0.231104
N160	N	0.581920	0.655320	0.268896
N161	N	0.129333	0.154906	-0.281752
N162	N	0.629333	0.654906	0.218248
H163	H	0.126915	0.122928	-0.334208
H164	H	0.626915	0.622928	0.165792
N165	N	0.192347	1.044052	-0.678448
N166	N	0.692347	1.544052	-0.178448
N167	N	0.228571	1.084932	-0.720226
N168	N	0.728571	1.584932	-0.220226
H169	H	0.260237	1.120633	-0.691109
H170	H	0.760237	1.620633	-0.191109
H171	H	-0.135278	1.066182	-0.072097
H172	H	0.364722	1.566182	0.427903
N173	N	0.089011	0.527478	-0.188661
N174	N	0.589011	1.027478	0.311339
N175	N	0.137032	0.473438	-0.201883
N176	N	0.637032	0.973438	0.298117
H177	H	0.134635	0.441452	-0.254336
H178	H	0.634635	0.941452	0.245664
H179	H	-0.104141	0.805452	-0.054440
H180	H	0.395859	1.305452	0.445560
H181	H	0.091518	0.685845	-0.183679
H182	H	0.591518	1.185845	0.316321
N183	N	0.185663	1.036562	-0.854628
N184	N	0.685663	1.536562	-0.354628
N185	N	0.182721	1.033239	-0.932444
N186	N	0.682721	1.533239	-0.432444
H187	H	0.211980	1.066282	-0.966201
H188	H	0.711980	1.566282	-0.466201
N189	N	-0.573496	1.073798	-0.072572
N190	N	-0.073496	1.573798	0.427428
N191	N	-0.536992	1.088008	-0.132071
N192	N	-0.036992	1.588008	0.367929
H193	H	-0.516904	1.140276	-0.135613
H194	H	-0.016904	1.640276	0.364387
H195	H	-0.267385	1.063983	-0.071926
H196	H	0.232615	1.563983	0.428074
N197	N	0.015032	0.843845	-0.841655
N198	N	0.515032	1.343845	-0.341655
N199	N	-0.021179	0.802947	-0.799880
N200	N	0.478821	1.302947	-0.299880
H201	H	-0.052810	0.767209	-0.828997
H202	H	0.447190	1.267209	-0.328997
H203	H	0.030082	0.860860	-0.675187
H204	H	0.530082	1.360860	-0.175187
H205	H	0.084437	0.313679	-0.226110
H206	H	0.584437	0.813679	0.273890
N207	N	0.095469	0.334562	0.062838
N208	N	0.595469	0.834562	0.562838
N209	N	0.097566	0.300718	0.132701
N210	N	0.597566	0.800718	0.632701
H211	H	0.099983	0.332694	0.185158
H212	H	0.599983	0.832694	0.685158
H213	H	0.100018	0.548368	0.100274
H214	H	0.600018	1.048368	0.600274
H215	H	0.101852	0.697558	0.090198
H216	H	0.601852	1.197558	0.590198
