data_functionalizedCrystal
_audit_creation_method	'MofGen! by Chris Wilmer'
_symmetry_space_group_name_H-M	'P1'
_symmetry_Int_Tables_number	1
_symmetry_cell_setting	triclinic
loop_
_symmetry_equiv_pos_as_xyz
  x,y,z
_cell_length_a	8.597340
_cell_length_b	8.559649
_cell_length_c	7.088929
_cell_angle_alpha	95.344185
_cell_angle_beta	103.954719
_cell_angle_gamma	102.374957
loop_
_atom_site_label
_atom_site_type_symbol
_atom_site_fract_x
_atom_site_fract_y
_atom_site_fract_z
O1	O	2.074465	-0.219480	0.182749
O2	O	1.606585	-0.245569	0.105672
O3	O	1.881746	0.000135	0.151003
O4	O	1.799304	-0.465184	0.137418
O5	O	1.918527	0.033046	0.475038
O6	O	1.643366	-0.212659	0.429707
O7	O	2.111247	-0.186570	0.506784
Cu8	Cu	1.880665	-0.196609	0.497833
Cu9	Cu	1.837167	-0.235529	0.114624
O10	O	1.836086	-0.432274	0.461453
C11	C	1.565631	-0.228145	0.257914
C12	C	1.388806	-0.225241	0.228784
C13	C	1.906384	0.076129	0.314046
C14	C	1.924980	0.253534	0.317099
C15	C	2.152200	-0.203994	0.354539
C16	C	2.329024	-0.206900	0.383656
N17	N	1.911271	-0.169234	0.767363
C18	C	1.811447	-0.508268	0.298406
C19	C	1.792850	-0.685674	0.295340
N20	N	1.806574	-0.262892	-0.154904
H21	H	1.413123	-0.193407	0.538542
H22	H	2.019794	-0.072183	0.866897
H23	H	1.304701	-0.238722	0.073888
O24	O	1.641026	0.214276	0.270235
C25	C	1.655632	0.053479	0.272677
H26	H	1.773317	0.041193	0.231866
H27	H	1.661372	0.021043	0.426167
C28	C	1.360319	-0.046664	0.173255
C29	C	1.504855	-0.061757	0.123114
H30	H	1.267310	-0.117749	0.081005
H31	H	1.350477	0.061668	0.171617
H32	H	1.365125	-0.073691	0.301166
H33	H	1.500056	-0.034710	-0.004784
H34	H	1.514693	-0.170088	0.124727
H35	H	2.052339	0.337220	0.338095
H36	H	1.698069	-0.359948	0.745574
