data_functionalizedCrystal
_audit_creation_method	'MofGen! by Chris Wilmer'
_symmetry_space_group_name_H-M	'P1'
_symmetry_Int_Tables_number	1
_symmetry_cell_setting	triclinic
loop_
_symmetry_equiv_pos_as_xyz
  x,y,z
_cell_length_a	11.026607
_cell_length_b	14.519709
_cell_length_c	10.065875
_cell_angle_alpha	98.804604
_cell_angle_beta	79.302338
_cell_angle_gamma	96.133081
loop_
_atom_site_label
_atom_site_type_symbol
_atom_site_fract_x
_atom_site_fract_y
_atom_site_fract_z
O1	O	1.628737	0.375708	-0.113512
O2	O	2.128737	0.875708	0.386488
O3	O	1.275335	0.331718	-0.113511
O4	O	1.775335	0.831718	0.386489
O5	O	1.461404	0.221020	-0.113499
O6	O	1.961404	0.721020	0.386501
O7	O	1.442668	0.486407	-0.113524
O8	O	1.942668	0.986407	0.386476
O9	O	1.425923	0.242237	0.113487
O10	O	1.925923	0.742237	0.613487
O11	O	1.239855	0.352935	0.113475
O12	O	1.739855	0.852935	0.613475
O13	O	1.593256	0.396926	0.113475
O14	O	2.093256	0.896926	0.613475
Zn15	Zn	1.410922	0.378299	0.149514
Zn16	Zn	1.910922	0.878299	0.649514
Zn17	Zn	1.457669	0.350345	-0.149550
Zn18	Zn	1.957669	0.850345	0.350450
O19	O	1.407187	0.507624	0.113463
O20	O	1.907187	1.007624	0.613463
C21	C	1.212366	0.334211	-0.000018
C22	C	1.712366	0.834211	0.499982
C23	C	1.077600	0.310019	-0.000017
C24	C	1.577600	0.810019	0.499983
C25	C	1.003940	0.376818	-0.000024
C26	C	1.503940	0.876818	0.499976
C27	C	0.864652	0.351815	-0.000024
C28	C	1.364652	0.851815	0.499976
C29	C	1.442790	0.197125	-0.000006
C30	C	1.942790	0.697125	0.499994
C31	C	1.440173	0.094312	-0.000005
C32	C	1.940173	0.594312	0.499995
C33	C	1.430544	-0.282174	-0.000040
C34	C	1.930544	0.217826	0.499960
C35	C	1.433218	-0.177425	-0.000030
C36	C	1.933218	0.322575	0.499970
C37	C	1.435358	-0.093934	-0.000021
C38	C	1.935358	0.406066	0.499979
C39	C	1.438033	0.010822	-0.000014
C40	C	1.938033	0.510822	0.499986
C41	C	1.656225	0.394432	-0.000022
C42	C	2.156225	0.894432	0.499978
C43	C	1.790993	0.418624	-0.000031
C44	C	2.290993	0.918624	0.499969
C45	C	1.425802	0.531519	-0.000034
C46	C	1.925802	1.031519	0.499966
C47	C	1.428420	0.634330	-0.000043
C48	C	1.928420	1.134330	0.499957
N49	N	1.379027	0.397378	0.353617
N50	N	1.879027	0.897378	0.853617
N51	N	1.489574	0.331260	-0.353654
N52	N	1.989574	0.831260	0.146346
C53	C	1.446564	0.356976	0.421401
C54	C	1.946564	0.856976	0.921401
C55	C	1.422027	0.371668	0.578566
C56	C	1.922027	0.871668	1.078566
H57	H	1.037548	0.234317	-0.000045
H58	H	1.537548	0.734317	0.499955
H59	H	1.303036	0.442841	0.411939
H60	H	1.803036	0.942841	0.911939
H61	H	1.522548	0.311504	0.363081
H62	H	2.022548	0.811504	0.863081
O63	O	1.321368	0.431905	0.655795
O64	O	1.821368	0.931905	1.155795
H65	H	1.317898	0.433999	0.767120
H66	H	1.817898	0.933999	1.267120
O67	O	0.811604	0.251537	-0.000004
O68	O	1.311604	0.751537	0.499996
H69	H	0.886748	0.206409	0.000014
H70	H	1.386748	0.706409	0.500014
H71	H	1.565562	0.285786	0.588030
H72	H	2.065562	0.785786	1.088030
O73	O	1.056980	0.477094	-0.000033
O74	O	1.556980	0.977094	0.499967
H75	H	1.158061	0.480995	-0.000040
H76	H	1.658061	0.980995	0.499960
O77	O	0.844026	0.518906	-0.000044
O78	O	1.344026	1.018906	0.499956
H79	H	0.945107	0.522809	-0.000054
H80	H	1.445107	1.022809	0.499946
