data_functionalizedCrystal
_audit_creation_method	'MofGen! by Chris Wilmer'
_symmetry_space_group_name_H-M	'P1'
_symmetry_Int_Tables_number	1
_symmetry_cell_setting	triclinic
loop_
_symmetry_equiv_pos_as_xyz
  x,y,z
_cell_length_a	18.215405
_cell_length_b	11.169417
_cell_length_c	18.215385
_cell_angle_alpha	90.061455
_cell_angle_beta	89.904210
_cell_angle_gamma	89.974236
loop_
_atom_site_label
_atom_site_type_symbol
_atom_site_fract_x
_atom_site_fract_y
_atom_site_fract_z
Zn1	Zn	-0.292501	-1.835334	-0.416035
Zn2	Zn	-0.415712	-1.835027	-0.292963
Zn3	Zn	-0.292666	-1.634474	-0.292990
Zn4	Zn	-0.415532	-1.634577	-0.415996
O5	O	-0.354103	-1.734853	-0.354496
O6	O	-0.308851	-2.003243	-0.399715
O7	O	-0.399534	-1.808251	-0.189982
O8	O	-0.189660	-1.661205	-0.309340
O9	O	-0.399374	-2.003017	-0.309294
O10	O	-0.189538	-1.808776	-0.399741
O11	O	-0.309133	-1.660906	-0.190001
O12	O	-0.308958	-1.466538	-0.309301
O13	O	-0.399067	-1.661379	-0.518985
O14	O	-0.399227	-1.466613	-0.399673
O15	O	-0.308677	-1.808875	-0.519014
O16	O	-0.518673	-1.808351	-0.309256
O17	O	-0.518540	-1.661081	-0.399647
C18	C	-0.545309	-1.734726	-0.354460
C19	C	-0.627108	-1.734782	-0.354470
C20	C	-0.354092	-1.423028	-0.354486
C21	C	-0.354105	-1.289628	-0.354500
C22	C	-0.353833	-1.735173	-0.546449
C23	C	-0.353719	-1.735309	-0.628248
C24	C	-0.815346	-1.811646	-0.307490
C25	C	-0.892205	-1.811699	-0.307507
C26	C	-0.892107	-1.658214	-0.401555
C27	C	-0.815250	-1.658167	-0.401540
C28	C	-0.776871	-1.734881	-0.354503
C29	C	-0.930587	-1.734982	-0.354536
C30	C	-1.013921	-1.735039	-0.354556
C31	C	-0.693532	-1.734826	-0.354485
C32	C	-0.162150	-1.735013	-0.354547
C33	C	-0.080351	-1.735081	-0.354569
C34	C	-0.354114	-2.047895	-0.354506
C35	C	-0.354119	-2.181295	-0.354510
C36	C	-0.354318	-1.734604	-0.163289
C37	C	-0.354225	-1.734700	-0.081490
C38	C	-0.307290	-1.657686	0.106658
C39	C	-0.307202	-1.657791	0.183517
C40	C	-0.400656	-1.812332	0.183598
C41	C	-0.400740	-1.812232	0.106740
C42	C	-0.354058	-1.734902	0.068273
C43	C	-0.353886	-1.735107	0.221988
C44	C	-0.353792	-1.735221	0.305322
C45	C	-0.354151	-1.734789	-0.015066
H46	H	-0.784100	-1.874112	-0.269190
H47	H	-0.269118	-1.594915	0.214767
H48	H	-0.783921	-1.595657	-0.439828
H49	H	-0.923528	-1.874210	-0.269225
C50	C	-0.451315	-1.896146	0.225497
C51	C	-0.441249	-1.879684	0.301022
C52	C	-0.487914	-1.956860	0.339640
H53	H	-0.440253	-1.976700	0.212869
H54	H	-0.500867	-1.879093	0.213098
H55	H	-0.391709	-1.896746	0.313416
H56	H	-0.452317	-1.799146	0.313672
H57	H	-0.537465	-1.939807	0.327241
H58	H	-0.476847	-2.037409	0.327006
H59	H	-0.481095	-1.945693	0.390888
C60	C	-0.451600	-1.896118	0.065192
C61	C	-0.492483	-1.963832	0.115328
C62	C	-0.539344	-2.041108	0.077080
H63	H	-0.423331	-1.948168	0.035070
H64	H	-0.483937	-1.850546	0.035366
H65	H	-0.460149	-2.009401	0.145141
H66	H	-0.520766	-1.911814	0.145452
H67	H	-0.571681	-1.995537	0.047254
H68	H	-0.511070	-2.093150	0.046960
H69	H	-0.567093	-2.087054	0.111092
H70	H	-0.923364	-1.595755	-0.439850
H71	H	-0.269276	-1.594723	0.075340
