data_functionalizedCrystal
_audit_creation_method	'MofGen! by Chris Wilmer'
_symmetry_space_group_name_H-M	'P1'
_symmetry_Int_Tables_number	1
_symmetry_cell_setting	triclinic
loop_
_symmetry_equiv_pos_as_xyz
  x,y,z
_cell_length_a	20.875652
_cell_length_b	20.875641
_cell_length_c	14.560438
_cell_angle_alpha	57.589682
_cell_angle_beta	89.999507
_cell_angle_gamma	64.820212
loop_
_atom_site_label
_atom_site_type_symbol
_atom_site_fract_x
_atom_site_fract_y
_atom_site_fract_z
Zr1	Zr	0.622544	0.747791	-0.192502
O2	O	0.528241	0.874690	-0.340862
O3	O	0.648158	0.615852	-0.141961
O4	O	0.652911	0.750020	-0.340861
O5	O	0.523487	0.740523	0.009177
O6	O	0.754999	0.757511	-0.346616
O7	O	0.523489	0.740523	-0.141962
O8	O	0.746498	0.517510	0.009180
O9	O	0.531988	0.980524	-0.346618
O10	O	0.739250	0.677578	-0.130814
O11	O	0.663061	0.671987	-0.013726
O12	O	0.668656	0.829952	-0.247905
O13	O	0.592467	0.824362	-0.130816
Zr14	Zr	0.785360	0.759739	0.039370
Zr15	Zr	0.785363	0.759739	-0.201680
Zr16	Zr	0.622540	0.747791	0.048549
Zr17	Zr	0.628519	0.916584	-0.201682
Zr18	Zr	0.779384	0.590947	0.048551
O19	O	0.759745	0.891678	-0.011171
O20	O	0.759750	0.891678	-0.353913
O21	O	0.528237	0.874690	0.001880
O22	O	0.879663	0.632840	0.187731
O23	O	0.879667	0.632840	-0.155012
O24	O	0.648154	0.615852	0.200782
O25	O	0.884417	0.767007	-0.162309
O26	O	0.754993	0.757511	0.187729
O27	O	0.652904	0.750019	0.193484
O28	O	0.884415	0.767007	-0.011169
O29	O	0.661408	0.990021	-0.353914
O30	O	0.746496	0.517510	0.200783
O31	O	0.875916	0.527006	0.193487
O32	O	0.875918	0.527006	0.001884
O33	O	0.531986	0.980524	-0.155016
O34	O	0.661405	0.990020	-0.162311
O35	O	0.739247	0.677578	0.094773
O36	O	0.815436	0.683169	-0.022315
O37	O	0.744843	0.835543	-0.139406
O38	O	0.668654	0.829952	-0.022317
C39	C	0.696477	0.542632	-0.065082
C40	C	0.693940	0.470975	-0.061185
C41	C	0.500289	0.738820	-0.065085
C42	C	0.431168	0.733748	-0.061188
C43	C	0.046059	0.696630	-0.032660
C44	C	0.111002	0.701402	-0.036333
C45	C	0.106621	0.783328	-0.099284
C46	C	0.037290	0.860486	-0.158574
C47	C	-0.027651	0.855712	-0.154907
C48	C	0.296896	0.806133	-0.116811
C49	C	0.361845	0.810900	-0.120471
C50	C	0.435552	0.651817	0.001769
C51	C	0.370606	0.647050	0.005436
C52	C	0.301281	0.724208	-0.053860
N53	N	0.173003	0.788208	-0.103037
N54	N	0.234901	0.719327	-0.050112
C55	C	0.732516	0.440229	-0.120473
C56	C	0.730134	0.372895	-0.116800
C57	C	0.689171	0.336313	-0.053845
C58	C	0.650594	0.367062	0.005450
C59	C	0.652981	0.434390	0.001783
C60	C	0.677773	0.134633	-0.036318
C61	C	0.675388	0.067302	-0.032658
C62	C	0.754929	0.073138	-0.154907
C63	C	0.757308	0.140471	-0.158574
C64	C	0.718734	0.171211	-0.099274
N65	N	0.686734	0.267489	-0.050092
N66	N	0.721177	0.240030	-0.103021
C67	C	0.907614	0.768710	-0.088047
C68	C	0.976735	0.773782	-0.091943
C69	C	0.703956	0.753765	-0.378083
C70	C	0.703957	0.753765	-0.480415
C71	C	0.711427	0.964899	-0.088049
C72	C	0.713964	1.036555	-0.091946
C73	C	0.740797	0.674226	-0.563524
C74	C	0.740804	0.674226	-0.467372
C75	C	0.667106	0.833310	-0.589619
C76	C	0.667103	0.833310	-0.685769
C77	C	0.783344	0.582380	-0.492944
C78	C	0.783351	0.582380	-0.396792
C79	C	0.703948	0.753765	0.224951
C80	C	0.703947	0.753765	0.327283
C81	C	0.900139	0.557576	-0.076563
C82	C	0.966724	0.490992	-0.076563
C83	C	0.696473	0.542631	0.236435
C84	C	0.693935	0.470975	0.342664
C85	C	0.900136	0.557576	0.224954
C86	C	0.966718	0.490991	0.327287
C87	C	0.507768	0.949954	-0.378085
C88	C	0.441185	1.016539	-0.480418
C89	C	0.507764	0.949954	-0.076568
C90	C	0.441180	1.016539	-0.076569
C91	C	0.711431	0.964899	-0.389566
C92	C	0.713969	1.036556	-0.495796
C93	C	0.958224	0.456805	-0.133208
C94	C	1.020781	0.394250	-0.133230
C95	C	1.091837	0.365879	-0.076599
C96	C	1.100335	0.400073	-0.019952
C97	C	1.037779	0.462631	-0.019938
C98	C	0.732511	0.440242	0.449196
C99	C	0.730124	0.372922	0.549019
C100	C	0.689164	0.336332	0.542307
C101	C	0.650583	0.367070	0.435764
C102	C	0.652966	0.434394	0.335944
C103	C	1.037763	0.462641	0.314224
C104	C	1.100332	0.400088	0.410366
C105	C	1.091853	0.365881	0.519571
C106	C	1.020801	0.394237	0.532632
C107	C	0.958235	0.456794	0.436490
C108	C	0.370141	1.044897	-0.467356
C109	C	0.307573	1.107472	-0.563499
C110	C	0.316051	1.141682	-0.672704
C111	C	0.387103	1.113322	-0.685765
C112	C	0.449670	1.050753	-0.589622
C113	C	0.449680	1.050733	-0.019934
C114	C	0.387124	1.113306	-0.019940
C115	C	0.316068	1.141679	-0.076574
C116	C	0.307569	1.107482	-0.133216
C117	C	0.370125	1.044915	-0.133216
C118	C	0.754936	1.073125	-0.489047
C119	C	0.757335	1.140447	-0.588852
C120	C	0.718763	1.171201	-0.695405
C121	C	0.677794	1.134625	-0.702150
C122	C	0.675400	1.067300	-0.602347
H123	H	0.049635	0.629917	0.018607
H124	H	0.492002	0.588999	0.050042
C125	C	1.047104	0.500261	0.194111
H126	H	1.098381	0.474417	0.200117
H127	H	1.023037	0.487486	0.156085
H128	H	1.025670	0.562092	0.152036
H129	H	0.358270	0.877617	-0.171706
C130	C	0.396481	1.150914	0.042367
H131	H	0.349053	1.192251	0.034248
H132	H	0.421752	1.104558	0.120935
H133	H	0.424405	1.179152	0.010333
H134	H	0.240457	0.868960	-0.165091
C135	C	0.229407	1.138690	-0.195500
H136	H	0.233297	1.109371	-0.229240
H137	H	0.202035	1.125675	-0.142545
H138	H	0.204672	1.200279	-0.253155
H139	H	0.374181	0.580338	0.056698
C140	C	0.861405	0.548040	-0.330112
H141	H	0.858757	0.549134	-0.265790
H142	H	0.893301	0.489488	-0.305343
H143	H	0.880313	0.584256	-0.378012
C144	C	0.797363	0.039320	-0.220124
H145	H	0.822097	0.070753	-0.258147
H146	H	0.832745	-0.021484	-0.167967
H147	H	0.763423	0.047842	-0.274511
H148	H	1.013909	0.366376	0.621559
C149	C	0.797371	1.039302	-0.371851
H150	H	0.790078	0.993971	-0.313366
H151	H	0.848762	1.016872	-0.364940
H152	H	0.779442	1.086200	-0.364939
C153	C	1.160644	0.297060	-0.076610
H154	H	1.204183	0.285058	-0.034776
H155	H	1.158777	0.244536	-0.042236
H156	H	1.161424	0.319139	-0.152833
C157	C	0.802392	1.180678	-0.581411
H158	H	0.825007	1.152727	-0.503657
H159	H	0.839646	1.172403	-0.617976
H160	H	0.770311	1.241728	-0.617995
C161	C	0.721399	1.245258	-0.805182
H162	H	0.692564	1.258338	-0.869613
H163	H	0.701972	1.296222	-0.806834
H164	H	0.771293	1.226893	-0.806829
H165	H	0.637104	0.898078	-0.774676
H166	H	0.761544	0.347903	0.635761
C167	C	0.635362	1.168468	-0.819361
H168	H	0.642653	1.213809	-0.877825
H169	H	0.653279	1.121588	-0.826298
H170	H	0.583966	1.190910	-0.826279
C171	C	0.032470	0.950602	-0.227848
H172	H	0.081075	0.942396	-0.221542
H173	H	0.006685	0.982487	-0.305625
H174	H	0.006684	0.982514	-0.199103
C175	C	0.777579	0.480459	-0.189719
H176	H	0.800218	0.452495	-0.224491
H177	H	0.745509	0.541506	-0.246961
H178	H	0.814826	0.472177	-0.140409
C179	C	0.360804	1.007277	-0.347241
H180	H	0.408237	0.965945	-0.291841
H181	H	0.335535	1.053633	-0.339915
H182	H	0.332884	0.979033	-0.335859
C183	C	0.527835	1.019534	0.042361
H184	H	0.563881	0.977368	0.034265
H185	H	0.535242	1.068288	0.010328
H186	H	0.532600	0.993687	0.120934
H187	H	0.617246	0.337267	0.056716
C188	C	0.229424	1.138655	-0.549119
H189	H	0.193371	1.180826	-0.622012
H190	H	0.222019	1.089898	-0.506224
H191	H	0.224667	1.164493	-0.510260
H192	H	0.265100	1.192629	-0.750980
C193	C	0.396424	1.150947	-0.805890
H194	H	0.447696	1.125103	-0.799912
H195	H	0.372340	1.138173	-0.843896
H196	H	0.374992	1.212778	-0.847966
H197	H	0.507515	1.027664	-0.600271
H198	H	0.761546	0.347861	-0.165076
C199	C	0.247263	1.210499	-0.076561
H200	H	0.262508	1.226790	-0.034708
H201	H	0.219739	1.260880	-0.152771
H202	H	0.217100	1.186273	-0.042168
H203	H	0.642037	1.037532	-0.607857
C204	C	0.187257	0.616538	0.028885
H205	H	0.225308	0.631111	0.017678
H206	H	0.191755	0.583076	0.107868
H207	H	0.191756	0.583073	0.001327
H208	H	0.363194	1.017075	-0.179332
C209	C	0.741054	0.539397	-0.500206
H210	H	0.722219	0.520262	-0.436908
H211	H	0.701104	0.580941	-0.568873
H212	H	0.773772	0.490438	-0.499280
H213	H	0.617234	0.337269	0.430316
C214	C	0.610535	0.468187	0.218765
H215	H	0.585807	0.436743	0.229075
H216	H	0.575149	0.528990	0.177457
H217	H	0.644477	0.459656	0.177480
C218	C	0.686552	0.262273	0.652116
H219	H	0.715402	0.249209	0.716520
H220	H	0.636668	0.280614	0.653793
H221	H	0.705995	0.211295	0.653789
C222	C	1.178498	0.368851	0.042347
H223	H	1.214531	0.326690	0.034231
H224	H	1.185923	0.417592	0.010338
H225	H	1.183267	0.342988	0.120923
C226	C	0.802367	0.180706	-0.227824
H227	H	0.825005	0.152747	-0.262603
H228	H	0.770291	0.241752	-0.285062
H229	H	0.839615	0.172428	-0.178522
H230	H	-0.084097	0.918538	-0.203185
H231	H	0.756500	0.543960	-0.341169
C232	C	0.630377	0.027012	0.036672
H233	H	0.607765	0.054942	0.071495
H234	H	0.593124	0.035253	-0.012567
H235	H	0.662497	-0.034032	0.093898
H236	H	1.044710	0.490458	0.026196
C237	C	1.011419	0.356639	-0.195529
H238	H	0.960140	0.382486	-0.229232
H239	H	1.035481	0.369414	-0.253195
H240	H	1.032851	0.294807	-0.142579
H241	H	0.646367	0.159650	0.011973
H242	H	0.621566	0.459425	0.050059
H243	H	0.637109	0.898073	-0.600233
H244	H	0.842859	0.550280	-0.494373
H245	H	0.900372	0.479904	-0.179337
C246	C	1.160681	0.297063	0.625317
H247	H	1.204204	0.285075	0.601887
H248	H	1.161476	0.319121	0.667624
H249	H	1.158830	0.244523	0.671668
H250	H	0.765866	0.470027	0.454683
H251	H	0.900389	0.479868	0.447142
H252	H	1.158180	0.377007	0.399712
