data_functionalizedCrystal
_audit_creation_method	'MofGen! by Chris Wilmer'
_symmetry_space_group_name_H-M	'P1'
_symmetry_Int_Tables_number	1
_symmetry_cell_setting	triclinic
loop_
_symmetry_equiv_pos_as_xyz
  x,y,z
_cell_length_a	15.995300
_cell_length_b	14.472310
_cell_length_c	10.654541
_cell_angle_alpha	89.999243
_cell_angle_beta	96.022132
_cell_angle_gamma	90.014612
loop_
_atom_site_label
_atom_site_type_symbol
_atom_site_fract_x
_atom_site_fract_y
_atom_site_fract_z
O1	O	1.111960	0.076874	-0.161563
O2	O	0.868295	0.076869	-0.181619
O3	O	0.995731	0.076866	0.011223
O4	O	0.984524	0.076877	-0.354405
O5	O	0.995698	-0.076816	0.011212
O6	O	0.868262	-0.076813	-0.181630
O7	O	1.111927	-0.076808	-0.161575
Cu8	Cu	0.990092	-0.090843	-0.171603
Cu9	Cu	0.990131	0.090904	-0.171590
O10	O	0.984491	-0.076805	-0.354417
C11	C	0.837079	0.000027	-0.180806
C12	C	0.744112	0.000025	-0.178354
C13	C	0.573903	0.000032	-0.173825
C14	C	0.527233	0.000034	-0.311133
C15	C	0.430531	0.000385	-0.308628
C16	C	0.406320	0.000038	-0.169368
C17	C	0.447076	0.087622	-0.101239
C18	C	0.543730	0.087694	-0.104713
C19	C	0.543960	-0.087078	-0.102693
C20	C	0.447015	-0.088226	-0.102705
C21	C	0.311610	0.000044	-0.166842
C22	C	0.668613	0.000032	-0.176348
N23	N	0.990070	-0.218674	-0.171612
C24	C	0.990130	-0.592765	-0.171585
C25	C	0.921709	-0.553598	-0.274425
C26	C	0.921870	-0.446510	-0.274800
C27	C	0.990099	-0.407174	-0.171598
C28	C	1.077632	-0.446008	-0.200194
C29	C	1.077248	-0.553129	-0.200925
C30	C	0.971796	-0.553299	-0.039844
C31	C	0.969797	-0.446171	-0.040723
C32	C	0.990088	-0.302286	-0.171603
C33	C	0.990147	-0.697653	-0.171583
C34	C	1.143144	0.000036	-0.162387
C35	C	1.236111	0.000045	-0.164839
C36	C	0.994892	0.000026	0.058005
C37	C	0.992432	0.000027	0.197415
N38	N	0.990159	0.218735	-0.171572
C39	C	0.985330	0.000038	-0.401198
C40	C	0.987791	0.000042	-0.540609
C41	C	1.144816	0.000019	0.227418
C42	C	1.219848	0.000013	0.307913
C43	C	1.217531	0.000016	0.438900
C44	C	1.140173	0.000027	0.489394
C45	C	1.065140	0.000033	0.408899
C46	C	1.067466	0.000028	0.277911
C47	C	0.912758	0.000048	0.378897
C48	C	0.915074	0.000039	0.247909
C49	C	0.835400	0.000060	0.429390
C50	C	0.760366	0.000059	0.348895
C51	C	0.762686	0.000055	0.217901
C52	C	0.840041	0.000045	0.167414
H53	H	0.562348	0.153416	-0.153805
O54	O	0.571434	-0.175049	-0.162565
H55	H	0.543839	-0.177894	-0.262517
H56	H	1.016336	-0.419399	0.039389
H57	H	0.431087	-0.093777	-0.001175
O58	O	1.037865	-0.586853	0.061541
H59	H	1.083544	-0.631422	0.018393
H60	H	0.575153	-0.087923	-0.001458
O61	O	0.681755	0.000052	0.131086
H62	H	0.644790	0.062691	0.149037
O63	O	0.393216	-0.082759	-0.379539
H64	H	0.348254	-0.059412	-0.459695
H65	H	1.094036	-0.419167	-0.295176
H66	H	0.432384	0.090631	0.001086
O67	O	0.676940	0.000074	0.403362
H68	H	0.625153	0.000078	0.325387
H69	H	1.093288	-0.578102	-0.297002
H70	H	1.278629	0.000018	0.504440
O71	O	1.147312	0.000010	0.086138
H72	H	1.213705	0.000005	0.064550
O73	O	0.585716	0.092653	0.028834
H74	H	0.536960	0.094996	0.095610
O75	O	0.409899	0.174298	-0.163134
H76	H	0.362407	0.155218	-0.242407
H77	H	0.833519	0.000068	0.536048
H78	H	1.282832	-0.000005	0.266786
H79	H	0.856460	-0.579388	-0.257671
O80	O	0.411182	-0.174064	-0.168610
H81	H	0.364576	-0.153959	-0.248506
O82	O	0.842551	0.000039	0.026137
H83	H	0.810259	-0.062601	-0.014876
O84	O	0.552136	-0.083138	-0.384254
H85	H	0.598045	-0.125366	-0.323520
O86	O	0.835716	-0.411721	-0.252263
H87	H	0.793559	-0.471410	-0.241002
H88	H	0.905403	-0.420791	-0.019021
H89	H	1.138293	0.000041	0.596052
O90	O	0.553618	0.083118	-0.383135
H91	H	0.599826	0.124411	-0.321551
O92	O	0.937107	-0.589224	-0.403204
H93	H	0.993281	-0.634703	-0.394282
H94	H	0.403006	0.063538	-0.361921
O95	O	0.937487	-0.412536	-0.404292
H96	H	0.944963	-0.472619	-0.466886
H97	H	1.129793	-0.579036	-0.128974
H98	H	1.129794	-0.420525	-0.127283
H99	H	0.909312	-0.580369	-0.012341
