data_functionalizedCrystal
_audit_creation_method	'MofGen! by Chris Wilmer'
_symmetry_space_group_name_H-M	'P1'
_symmetry_Int_Tables_number	1
_symmetry_cell_setting	triclinic
loop_
_symmetry_equiv_pos_as_xyz
  x,y,z
_cell_length_a	12.837943
_cell_length_b	14.853567
_cell_length_c	11.892095
_cell_angle_alpha	93.898435
_cell_angle_beta	85.689438
_cell_angle_gamma	89.231935
loop_
_atom_site_label
_atom_site_type_symbol
_atom_site_fract_x
_atom_site_fract_y
_atom_site_fract_z
O1	O	1.382409	0.229205	-0.093964
O2	O	1.080587	0.217625	-0.093972
O3	O	1.239561	0.092869	-0.093971
O4	O	1.223436	0.353961	-0.093965
O5	O	1.226306	0.103253	0.094036
O6	O	1.067332	0.228009	0.094035
O7	O	1.369154	0.239589	0.094043
Zn8	Zn	1.216139	0.235448	0.123889
Zn9	Zn	1.233603	0.221766	-0.123818
O10	O	1.210181	0.364345	0.094042
C11	C	1.035334	0.218906	0.000031
C12	C	0.920240	0.207240	0.000027
C13	C	1.232203	0.064410	0.000029
C14	C	1.230014	-0.035860	0.000019
C15	C	0.679482	0.347487	0.000047
C16	C	0.571341	0.336530	0.000045
C17	C	0.595813	0.174369	0.000029
C18	C	0.703955	0.185327	0.000031
C19	C	0.745785	0.271888	0.000038
C20	C	0.853929	0.282844	0.000032
C21	C	0.878399	0.120685	0.000024
C22	C	0.770257	0.109727	0.000022
C23	C	1.126324	-0.457187	0.000038
C24	C	1.315188	-0.462449	0.000043
C25	C	1.317247	-0.368241	0.000036
C26	C	1.223843	-0.318502	0.000032
C27	C	1.128380	-0.362970	0.000035
C28	C	1.412707	-0.323765	0.000045
C29	C	1.414770	-0.229551	0.000040
C30	C	1.321366	-0.179810	0.000028
C31	C	1.225899	-0.224285	0.000029
C32	C	1.132495	-0.174546	0.000025
C33	C	1.037028	-0.219019	0.000018
C34	C	1.034976	-0.313230	0.000023
C35	C	1.323418	-0.085599	0.000023
C36	C	1.134551	-0.080329	0.000022
C37	C	1.414408	0.238308	0.000038
C38	C	1.529502	0.249974	0.000034
C39	C	1.217539	0.392804	0.000040
C40	C	1.219728	0.493073	0.000042
N41	N	1.204228	0.244785	0.292943
N42	N	1.245522	0.212422	-0.292873
C43	C	1.328405	0.147396	0.529592
C44	C	1.320087	0.153930	0.647934
C45	C	1.179269	0.264382	0.647971
C46	C	1.187587	0.257848	0.529629
C47	C	1.262159	0.199354	0.470444
C48	C	1.270481	0.192826	0.352100
C49	C	1.129659	0.303272	0.352140
C50	C	1.121341	0.309806	0.470481
H51	H	0.713541	0.417969	0.000051
H52	H	0.517360	0.398091	0.000055
O53	O	0.729787	0.025585	0.000058
C54	C	0.765482	-0.134104	-0.000048
C55	C	0.811446	-0.038862	-0.000055
H56	H	0.831482	-0.186237	-0.000164
H57	H	0.709956	-0.139011	0.078649
H58	H	0.720973	-0.147576	-0.078713
H59	H	0.856006	-0.025327	0.078556
H60	H	0.866917	-0.034002	-0.078804
O61	O	1.048766	0.366517	0.527931
C62	C	0.866037	0.405818	0.564133
C63	C	0.948115	0.341514	0.499023
H64	H	0.784643	0.385638	0.540767
H65	H	0.871378	0.401554	0.658888
H66	H	0.881339	0.477917	0.540885
H67	H	0.932866	0.269387	0.522176
H68	H	0.942754	0.345856	0.404283
H69	H	0.561729	0.103900	0.000116
H70	H	1.075720	0.345582	0.303968
H71	H	1.401145	-0.049393	0.000036
H72	H	1.389131	0.099775	0.481402
H73	H	1.048598	-0.493402	0.000028
O74	O	1.384403	0.103326	0.705268
C75	C	1.442328	-0.046214	0.741509
C76	C	1.369454	0.010992	0.676488
H77	H	1.430251	-0.120877	0.718282
H78	H	1.527041	-0.028656	0.718203
H79	H	1.423589	-0.031451	0.836252
H80	H	1.388099	-0.003740	0.581730
H81	H	1.284762	-0.006575	0.699888
H82	H	1.391232	-0.502952	0.000055
H83	H	0.932395	0.059126	0.000010
H84	H	1.118548	0.312000	0.696175
O85	O	0.942333	-0.356569	0.000077
C86	C	0.855474	-0.499381	0.000032
C87	C	0.960461	-0.450409	-0.000010
H88	H	0.870096	-0.575260	-0.000062
H89	H	0.803750	-0.475274	0.078731
H90	H	0.814853	-0.483860	-0.078631
H91	H	1.001170	-0.465907	0.078600
H92	H	1.012110	-0.474521	-0.078760
H93	H	0.887985	0.353327	0.000040
O94	O	1.503510	-0.371993	-0.000102
C95	C	1.671140	-0.410759	-0.097535
C96	C	1.568363	-0.356069	-0.097491
H97	H	1.723593	-0.397918	-0.176277
H98	H	1.712643	-0.389182	-0.018905
H99	H	1.653235	-0.485724	-0.097486
H100	H	1.586177	-0.281092	-0.097580
H101	H	1.526890	-0.377721	-0.176114
O102	O	1.507409	-0.186210	0.000083
C103	C	1.594290	-0.043412	-0.000014
C104	C	1.489304	-0.092380	-0.000029
H105	H	1.579690	0.032456	-0.000129
H106	H	1.634926	-0.058812	0.078685
H107	H	1.645991	-0.067643	-0.078676
H108	H	1.437522	-0.068178	0.078580
H109	H	1.448750	-0.076981	-0.078781
O110	O	1.342941	0.135932	0.294779
C111	C	1.481770	0.027104	0.307238
C112	C	1.399740	0.091487	0.372289
H113	H	1.527729	-0.008834	0.369877
H114	H	1.440890	-0.024919	0.251872
H115	H	1.537470	0.067454	0.251794
H116	H	1.344017	0.051212	0.427795
H117	H	1.440690	0.143511	0.427584
H118	H	1.058490	-0.039837	0.000014
H119	H	0.960979	-0.178508	0.000023
