data_functionalizedCrystal
_audit_creation_method	'MofGen! by Chris Wilmer'
_symmetry_space_group_name_H-M	'P1'
_symmetry_Int_Tables_number	1
_symmetry_cell_setting	triclinic
loop_
_symmetry_equiv_pos_as_xyz
  x,y,z
_cell_length_a	16.956984
_cell_length_b	27.731996
_cell_length_c	26.210047
_cell_angle_alpha	89.989354
_cell_angle_beta	89.983218
_cell_angle_gamma	79.337403
loop_
_atom_site_label
_atom_site_type_symbol
_atom_site_fract_x
_atom_site_fract_y
_atom_site_fract_z
O1	O	1.057800	0.020036	-0.042434
O2	O	1.391134	0.353369	0.290900
O3	O	1.724467	0.686703	0.624233
O4	O	0.825428	0.037015	-0.042436
O5	O	1.158761	0.370349	0.290897
O6	O	1.492095	0.703682	0.624231
O7	O	0.948853	-0.042129	-0.042424
O8	O	1.282186	0.291204	0.290910
O9	O	1.615520	0.624537	0.624243
O10	O	0.934376	0.099181	-0.042446
O11	O	1.267709	0.432514	0.290888
O12	O	1.601042	0.765847	0.624221
O13	O	0.948814	-0.042128	0.042434
O14	O	1.282148	0.291205	0.375768
O15	O	1.615481	0.624539	0.709101
O16	O	0.825390	0.037017	0.042422
O17	O	1.158723	0.370350	0.375755
O18	O	1.492056	0.703683	0.709089
O19	O	1.057762	0.020037	0.042425
O20	O	1.391095	0.353371	0.375758
O21	O	1.724428	0.686704	0.709091
Cu22	Cu	0.941572	0.028527	0.050172
Cu23	Cu	1.274905	0.361861	0.383505
Cu24	Cu	1.608239	0.695194	0.716838
Cu25	Cu	0.941618	0.028526	-0.050183
Cu26	Cu	1.274951	0.361859	0.283150
Cu27	Cu	1.608284	0.695192	0.616484
O28	O	0.934337	0.099182	0.042412
O29	O	1.267670	0.432515	0.375746
O30	O	1.601004	0.765849	0.709079
C31	C	0.795690	0.037886	-0.000007
C32	C	1.129023	0.371219	0.333326
C33	C	1.462356	0.704552	0.666660
C34	C	0.707136	0.040471	-0.000007
C35	C	1.040470	0.373804	0.333326
C36	C	1.373803	0.707137	0.666659
C37	C	0.948536	-0.060125	0.000007
C38	C	1.281870	0.273208	0.333340
C39	C	1.615203	0.606541	0.666674
C40	C	0.947640	-0.113750	0.000012
C41	C	1.280974	0.219583	0.333346
C42	C	1.614307	0.552917	0.666679
C43	C	0.675598	-0.002750	0.000000
C44	C	1.008931	0.330584	0.333334
C45	C	1.342265	0.663917	0.666667
C46	C	0.592392	-0.000318	-0.000004
C47	C	0.925726	0.333015	0.333330
C48	C	1.259059	0.666349	0.666663
C49	C	0.540726	0.045334	-0.000012
C50	C	0.874059	0.378668	0.333321
C51	C	1.207393	0.712001	0.666655
C52	C	0.572269	0.088558	-0.000021
C53	C	0.905603	0.421891	0.333312
C54	C	1.238936	0.755225	0.666646
C55	C	0.655474	0.086126	-0.000021
C56	C	0.988807	0.419459	0.333313
C57	C	1.322141	0.752792	0.666646
C58	C	0.290801	0.057374	-0.000017
C59	C	0.624135	0.390707	0.333316
C60	C	0.957468	0.724040	0.666649
C61	C	0.207592	0.059803	-0.000016
C62	C	0.540925	0.393136	0.333317
C63	C	0.874258	0.726469	0.666651
C64	C	0.227720	-0.029074	0.000000
C65	C	0.561054	0.304260	0.333334
C66	C	0.894387	0.637593	0.666667
C67	C	0.310925	-0.031502	0.000004
C68	C	0.644259	0.301831	0.333337
C69	C	0.977592	0.635165	0.666670
C70	C	0.342462	0.011721	-0.000008
C71	C	0.675795	0.345055	0.333325
C72	C	1.009128	0.678388	0.666658
N73	N	0.455676	0.047821	-0.000014
N74	N	0.789009	0.381155	0.333319
N75	N	1.122343	0.714488	0.666652
N76	N	0.427510	0.009234	-0.000009
N77	N	0.760844	0.342568	0.333324
N78	N	1.094177	0.675901	0.666657
C79	C	0.942026	-0.446267	-0.046269
C80	C	1.275359	-0.112934	0.287065
C81	C	1.608692	0.220399	0.620398
C82	C	0.938624	-0.647805	-0.046278
C83	C	1.271957	-0.314472	0.287056
C84	C	1.605291	0.018862	0.620389
O85	O	0.938168	-0.673860	-0.085617
O86	O	1.271501	-0.340526	0.247716
O87	O	1.604835	-0.007193	0.581050
N88	N	0.938181	-0.673006	-0.000022
N89	N	1.271514	-0.339673	0.333311
N90	N	1.604847	-0.006340	0.666645
C91	C	0.938582	-0.647820	0.046239
C92	C	1.271916	-0.314486	0.379572
C93	C	1.605249	0.018847	0.712906
O94	O	0.938119	-0.673878	0.085582
O95	O	1.271452	-0.340545	0.418916
O96	O	1.604785	-0.007212	0.752249
C97	C	0.941978	-0.446282	0.046248
C98	C	1.275311	-0.112949	0.379581
C99	C	1.608645	0.220384	0.712914
C100	C	0.942430	-0.421084	-0.000011
C101	C	1.275763	-0.087751	0.333322
C102	C	1.609096	0.245582	0.666656
C103	C	0.942476	-0.421069	-0.092524
C104	C	1.275810	-0.087736	0.240810
C105	C	1.609143	0.245597	0.574143
C106	C	0.943331	-0.370688	-0.092521
C107	C	1.276664	-0.037355	0.240812
C108	C	1.609998	0.295978	0.574146
C109	C	0.943735	-0.345506	-0.046263
C110	C	1.277068	-0.012172	0.287070
C111	C	1.610402	0.321161	0.620403
C112	C	0.943284	-0.370704	-0.000008
C113	C	1.276618	-0.037370	0.333325
C114	C	1.609951	0.295963	0.666658
C115	C	0.942374	-0.421096	0.092508
C116	C	1.275707	-0.087762	0.425842
C117	C	1.609041	0.245571	0.759175
C118	C	0.943221	-0.370708	0.092506
C119	C	1.276554	-0.037375	0.425840
C120	C	1.609888	0.295959	0.759173
C121	C	0.943673	-0.345510	0.046248
C122	C	1.277006	-0.012177	0.379581
C123	C	1.610339	0.321157	0.712914
C124	C	0.944543	-0.295140	0.046252
C125	C	1.277876	0.038194	0.379585
C126	C	1.611210	0.371527	0.712919
N127	N	0.944987	-0.269938	-0.000004
N128	N	1.278320	0.063395	0.333330
N129	N	1.611653	0.396728	0.666663
C130	C	0.944583	-0.295121	-0.046261
C131	C	1.277916	0.038212	0.287072
C132	C	1.611249	0.371545	0.620405
C133	C	0.936801	-0.753630	0.046231
C134	C	1.270134	-0.420297	0.379565
C135	C	1.603468	-0.086963	0.712898
C136	C	0.935954	-0.804014	0.046229
C137	C	1.269287	-0.470681	0.379563
C138	C	1.602620	-0.137348	0.712896
C139	C	0.935994	-0.803996	-0.046288
C140	C	1.269327	-0.470663	0.287046
C141	C	1.602661	-0.137329	0.620379
C142	C	0.936847	-0.753611	-0.046285
C143	C	1.270180	-0.420278	0.287048
C144	C	1.603514	-0.086945	0.620382
C145	C	0.937245	-0.728429	-0.000024
C146	C	1.270578	-0.395095	0.333309
C147	C	1.603911	-0.061762	0.666642
C148	C	0.946378	-0.189318	-0.046252
C149	C	1.279712	0.144015	0.287081
C150	C	1.613045	0.477349	0.620415
C151	C	0.947236	-0.138933	-0.046245
C152	C	1.280570	0.194400	0.287088
C153	C	1.613903	0.527734	0.620421
C154	C	0.947192	-0.138955	0.046271
C155	C	1.280525	0.194378	0.379605
C156	C	1.613858	0.527712	0.712938
C157	C	0.946338	-0.189336	0.046265
C158	C	1.279671	0.143997	0.379598
C159	C	1.613005	0.477330	0.712932
C160	C	0.945929	-0.214516	-0.000001
C161	C	1.279262	0.118817	0.333332
C162	C	1.612595	0.452151	0.666666
O163	O	0.944991	-0.269053	0.085571
O164	O	1.278324	0.064280	0.418904
O165	O	1.611658	0.397614	0.752237
O166	O	0.945029	-0.269052	-0.085599
O167	O	1.278362	0.064282	0.247735
O168	O	1.611695	0.397615	0.581068
C169	C	0.941171	-0.496648	-0.046271
C170	C	1.274504	-0.163315	0.287062
C171	C	1.607838	0.170018	0.620395
C172	C	0.940720	-0.521846	-0.000017
C173	C	1.274054	-0.188513	0.333317
C174	C	1.607387	0.144820	0.666650
C175	C	0.941124	-0.496663	0.046241
C176	C	1.274458	-0.163330	0.379574
C177	C	1.607791	0.170003	0.712908
C178	C	0.939873	-0.572231	-0.000019
C179	C	1.273206	-0.238897	0.333315
C180	C	1.606539	0.094436	0.666648
C181	C	0.939469	-0.597413	-0.046276
C182	C	1.272802	-0.264080	0.287057
C183	C	1.606135	0.069253	0.620390
C184	C	0.939912	-0.572212	-0.092532
C185	C	1.273246	-0.238879	0.240801
C186	C	1.606579	0.094455	0.574135
C187	C	0.940767	-0.521831	-0.092529
C188	C	1.274100	-0.188498	0.240804
C189	C	1.607434	0.144836	0.574138
C190	C	0.940681	-0.521865	0.092497
C191	C	1.274014	-0.188531	0.425830
C192	C	1.607347	0.144802	0.759163
C193	C	0.939827	-0.572246	0.092490
C194	C	1.273160	-0.238912	0.425824
C195	C	1.606494	0.094421	0.759157
C196	C	0.939423	-0.597429	0.046233
C197	C	1.272756	-0.264095	0.379566
C198	C	1.606090	0.069238	0.712899
C199	C	1.087500	0.019167	-0.000005
C200	C	1.420833	0.352501	0.333328
C201	C	1.754167	0.685834	0.666661
C202	C	1.176053	0.016582	-0.000008
C203	C	1.509387	0.349916	0.333325
C204	C	1.842720	0.683249	0.666658
C205	C	0.934654	0.117178	-0.000020
C206	C	1.267987	0.450512	0.333314
C207	C	1.601320	0.783845	0.666647
C208	C	0.935549	0.170803	-0.000028
C209	C	1.268883	0.504136	0.333305
C210	C	1.602216	0.837469	0.666638
N211	N	0.941546	0.028528	0.120755
N212	N	1.274879	0.361861	0.454089
N213	N	1.608213	0.695194	0.787422
N214	N	0.941650	0.028521	-0.120767
N215	N	1.274984	0.361854	0.212566
N216	N	1.608317	0.695188	0.545900
C217	C	0.989623	0.055936	0.473265
C218	C	1.322956	0.389269	0.806599
C219	C	1.656290	0.722603	1.139932
C220	C	0.989647	0.055935	0.686924
C221	C	1.322980	0.389268	1.020257
C222	C	1.656313	0.722602	1.353590
O223	O	1.030505	0.079234	0.714542
O224	O	1.363838	0.412567	1.047875
O225	O	1.697172	0.745900	1.381209
N226	N	0.941637	0.028520	0.713649
N227	N	1.274970	0.361853	1.046983
N228	N	1.608303	0.695187	1.380316
C229	C	0.893622	0.001101	0.686957
C230	C	1.226955	0.334434	1.020290
C231	C	1.560288	0.667768	1.353624
O232	O	0.852793	-0.022221	0.714591
O233	O	1.186126	0.311112	1.047925
O234	O	1.519460	0.644445	1.381258
C235	C	0.893603	0.001100	0.473299
C236	C	1.226936	0.334433	0.806633
C237	C	1.560269	0.667766	1.139966
C238	C	0.941610	0.028520	0.446577
C239	C	1.274943	0.361854	0.779910
C240	C	1.608276	0.695187	1.113243
C241	C	1.037627	0.083354	0.446542
C242	C	1.370960	0.416687	0.779876
C243	C	1.704293	0.750021	1.113209
C244	C	1.037617	0.083356	0.393131
C245	C	1.370950	0.416690	0.726464
C246	C	1.704284	0.750023	1.059798
C247	C	0.989604	0.055940	0.366442
C248	C	1.322937	0.389274	0.699776
C249	C	1.656270	0.722607	1.033109
C250	C	0.941600	0.028522	0.393165
C251	C	1.274933	0.361856	0.726499
C252	C	1.608267	0.695189	1.059832
C253	C	0.845592	-0.026322	0.446608
C254	C	1.178926	0.307012	0.779941
C255	C	1.512259	0.640345	1.113275
C256	C	0.845594	-0.026321	0.393190
C257	C	1.178927	0.307013	0.726524
C258	C	1.512260	0.640346	1.059857
C259	C	0.893600	0.001100	0.366467
C260	C	1.226934	0.334433	0.699801
C261	C	1.560267	0.667767	1.033134
C262	C	0.893577	0.001109	0.313065
C263	C	1.226910	0.334442	0.646398
C264	C	1.560244	0.667776	0.979732
N265	N	0.941587	0.028524	0.286340
N266	N	1.274920	0.361857	0.619673
N267	N	1.608253	0.695190	0.953006
C268	C	0.989600	0.055940	0.313028
C269	C	1.322933	0.389273	0.646361
C270	C	1.656267	0.722606	0.979695
C271	C	0.893634	0.001104	0.799130
C272	C	1.226967	0.334438	1.132464
C273	C	1.560300	0.667771	1.465797
C274	C	0.893637	0.001105	0.852545
C275	C	1.226970	0.334438	1.185878
C276	C	1.560304	0.667772	1.519211
C277	C	0.989663	0.055938	0.852508
C278	C	1.322997	0.389272	1.185841
C279	C	1.656330	0.722605	1.519174
C280	C	0.989655	0.055940	0.799092
C281	C	1.322988	0.389273	1.132426
C282	C	1.656322	0.722607	1.465759
C283	C	0.941643	0.028519	0.772405
C284	C	1.274977	0.361852	1.105738
C285	C	1.608310	0.695186	1.439071
C286	C	0.989576	0.055942	0.200860
C287	C	1.322909	0.389276	0.534194
C288	C	1.656242	0.722609	0.867527
C289	C	0.989559	0.055944	0.147444
C290	C	1.322893	0.389277	0.480777
C291	C	1.656226	0.722610	0.814111
C292	C	0.893536	0.001108	0.147486
C293	C	1.226870	0.334442	0.480819
C294	C	1.560203	0.667775	0.814152
C295	C	0.893549	0.001109	0.200897
C296	C	1.226883	0.334442	0.534231
C297	C	1.560216	0.667776	0.867564
C298	C	0.941575	0.028527	0.227583
C299	C	1.274909	0.361860	0.560916
C300	C	1.608242	0.695194	0.894250
O301	O	0.852747	-0.022182	0.285414
O302	O	1.186080	0.311151	0.618747
O303	O	1.519413	0.644485	0.952081
O304	O	1.030436	0.079250	0.285385
O305	O	1.363769	0.412583	0.618718
O306	O	1.697103	0.745916	0.952051
C307	C	0.989633	0.055934	0.526677
C308	C	1.322966	0.389267	0.860010
C309	C	1.656299	0.722601	1.193343
C310	C	0.941629	0.028516	0.553400
C311	C	1.274962	0.361849	0.886733
C312	C	1.608296	0.695183	1.220066
C313	C	0.893616	0.001100	0.526711
C314	C	1.226949	0.334434	0.860044
C315	C	1.560282	0.667767	1.193378
C316	C	0.941633	0.028517	0.606814
C317	C	1.274966	0.361850	0.940147
C318	C	1.608299	0.695184	1.273480
C319	C	0.989646	0.055933	0.633502
C320	C	1.322979	0.389266	0.966836
C321	C	1.656312	0.722599	1.300169
C322	C	1.037656	0.083348	0.606777
C323	C	1.370989	0.416681	0.940110
C324	C	1.704322	0.750014	1.273443
C325	C	1.037646	0.083350	0.553365
C326	C	1.370979	0.416683	0.886699
C327	C	1.704313	0.750016	1.220032
C328	C	0.845606	-0.026315	0.553436
C329	C	1.178939	0.307019	0.886770
C330	C	1.512273	0.640352	1.220103
C331	C	0.845619	-0.026314	0.606848
C332	C	1.178952	0.307019	0.940181
C333	C	1.512285	0.640353	1.273515
C334	C	0.893632	0.001102	0.633537
C335	C	1.226965	0.334435	0.966870
C336	C	1.560299	0.667768	1.300203
H337	H	0.717660	-0.039925	0.000009
H338	H	1.050993	0.293408	0.333342
H339	H	1.384327	0.626742	0.666676
Cl340	Cl	0.142640	0.117199	-0.000022
Cl341	Cl	0.475973	0.450532	0.333312
Cl342	Cl	0.809307	0.783865	0.666645
H343	H	0.854535	-0.021217	0.874298
H344	H	1.187869	0.312116	1.207631
H345	H	1.521202	0.645449	1.540964
Cl346	Cl	1.049951	0.090412	0.234400
Cl347	Cl	1.383284	0.423745	0.567733
Cl348	Cl	1.716618	0.757079	0.901067
H349	H	1.028746	0.078269	0.777338
H350	H	1.362079	0.411602	1.110672
H351	H	1.695413	0.744935	1.444005
H352	H	0.352988	-0.068677	0.000013
H353	H	0.686321	0.264656	0.333346
H354	H	1.019654	0.597990	0.666679
H355	H	0.943696	-0.350177	-0.130190
H356	H	1.277029	-0.016843	0.203144
H357	H	1.610363	0.316490	0.536477
H358	H	0.806501	-0.048651	0.468357
H359	H	1.139834	0.284682	0.801690
H360	H	1.473168	0.618015	1.135023
Cl361	Cl	1.097960	0.117838	0.359545
Cl362	Cl	1.431293	0.451171	0.692878
Cl363	Cl	1.764626	0.784504	1.026211
Cl364	Cl	0.188069	-0.083408	0.000012
Cl365	Cl	0.521403	0.249925	0.333346
Cl366	Cl	0.854736	0.583258	0.666679
Cl367	Cl	0.507317	0.145950	-0.000036
Cl368	Cl	0.840651	0.479283	0.333297
Cl369	Cl	1.173984	0.812617	0.666630
H370	H	0.941011	-0.501366	0.130166
H371	H	1.274344	-0.168033	0.463500
H372	H	1.607678	0.165301	0.796833
H373	H	1.028755	0.078264	0.874247
H374	H	1.362088	0.411597	1.207580
H375	H	1.695421	0.744930	1.540913
Cl376	Cl	0.552748	-0.054655	-0.000009
Cl377	Cl	0.886081	0.278678	0.333325
Cl378	Cl	1.219415	0.612012	0.666658
H379	H	0.316468	0.092569	-0.000030
H380	H	0.649801	0.425902	0.333303
H381	H	0.983134	0.759236	0.666636
Cl382	Cl	0.695122	0.140462	-0.000033
Cl383	Cl	1.028455	0.473796	0.333301
Cl384	Cl	1.361789	0.807129	0.666634
Cl385	Cl	0.947806	-0.107259	-0.104404
Cl386	Cl	1.281139	0.226074	0.228930
Cl387	Cl	1.614473	0.559408	0.562263
Cl388	Cl	1.097994	0.117825	0.480084
Cl389	Cl	1.431327	0.451158	0.813417
Cl390	Cl	1.764660	0.784492	1.146751
Cl391	Cl	0.945865	-0.220965	-0.104416
Cl392	Cl	1.279199	0.112369	0.228918
Cl393	Cl	1.612532	0.445702	0.562251
H394	H	0.942144	-0.441568	-0.130194
H395	H	1.275478	-0.108234	0.203139
H396	H	1.608811	0.225099	0.536472
Cl397	Cl	1.049910	0.090421	0.113853
Cl398	Cl	1.383243	0.423755	0.447186
Cl399	Cl	1.716576	0.757088	0.780520
H400	H	0.937214	-0.733099	-0.083953
H401	H	1.270547	-0.399765	0.249380
H402	H	1.603880	-0.066432	0.582714
H403	H	0.935666	-0.824509	-0.083953
H404	H	1.268999	-0.491175	0.249381
H405	H	1.602332	-0.157842	0.582714
Cl406	Cl	0.833179	-0.033355	0.113924
Cl407	Cl	1.166512	0.299979	0.447258
Cl408	Cl	1.499846	0.633312	0.780591
H409	H	0.935598	-0.824528	0.083898
H410	H	1.268931	-0.491194	0.417231
H411	H	1.602265	-0.157861	0.750565
H412	H	0.937128	-0.733131	0.083905
H413	H	1.270462	-0.399798	0.417238
H414	H	1.603795	-0.066465	0.750571
Cl415	Cl	0.941801	-0.452760	0.150666
Cl416	Cl	1.275134	-0.119427	0.483999
Cl417	Cl	1.608468	0.213907	0.817333
H418	H	0.943533	-0.350205	0.130178
H419	H	1.276866	-0.016872	0.463512
H420	H	1.610199	0.316461	0.796845
H421	H	0.854535	-0.021226	0.777406
H422	H	1.187868	0.312107	1.110739
H423	H	1.521201	0.645440	1.444073
H424	H	0.945978	-0.209854	0.083933
H425	H	1.279311	0.123479	0.417266
H426	H	1.612644	0.456812	0.750599
H427	H	0.947524	-0.118443	0.083933
H428	H	1.280858	0.214891	0.417267
H429	H	1.614191	0.548224	0.750600
H430	H	0.939587	-0.592725	-0.130197
H431	H	1.272920	-0.259392	0.203137
H432	H	1.606254	0.073941	0.536470
H433	H	0.806496	-0.048651	0.371464
H434	H	1.139830	0.284682	0.704797
H435	H	1.473163	0.618016	1.038131
H436	H	0.941134	-0.501319	-0.130198
H437	H	1.274468	-0.167986	0.203136
H438	H	1.607801	0.165347	0.536469
Cl439	Cl	0.939263	-0.603917	0.150650
Cl440	Cl	1.272597	-0.270584	0.483984
Cl441	Cl	1.605930	0.062749	0.817317
Cl442	Cl	0.833190	-0.033358	0.234492
Cl443	Cl	1.166523	0.299975	0.567826
Cl444	Cl	1.499856	0.633308	0.901159
Cl445	Cl	1.097996	0.117826	0.519779
Cl446	Cl	1.431329	0.451160	0.853112
Cl447	Cl	1.764663	0.784493	1.186446
H448	H	1.076746	0.105673	0.628516
H449	H	1.410079	0.439006	0.961849
H450	H	1.743412	0.772340	1.295183
H451	H	0.806518	-0.048642	0.628601
H452	H	1.139851	0.284691	0.961934
H453	H	1.473185	0.618025	1.295268
H454	H	0.806508	-0.048641	0.531712
H455	H	1.139842	0.284692	0.865045
H456	H	1.473175	0.618025	1.198379
