data_functionalizedCrystal
_audit_creation_method	'MofGen! by Chris Wilmer'
_symmetry_space_group_name_H-M	'P1'
_symmetry_Int_Tables_number	1
_symmetry_cell_setting	triclinic
loop_
_symmetry_equiv_pos_as_xyz
  x,y,z
_cell_length_a	21.295420
_cell_length_b	25.639240
_cell_length_c	21.295411
_cell_angle_alpha	89.966217
_cell_angle_beta	89.983421
_cell_angle_gamma	90.031008
loop_
_atom_site_label
_atom_site_type_symbol
_atom_site_fract_x
_atom_site_fract_y
_atom_site_fract_z
Zn1	Zn	0.962295	-0.208198	-0.355891
Zn2	Zn	1.295628	0.125135	-0.022558
Zn3	Zn	1.628962	0.458468	0.310775
Zn4	Zn	0.962208	-0.295629	-0.250608
Zn5	Zn	1.295542	0.037704	0.082726
Zn6	Zn	1.628875	0.371038	0.416059
Zn7	Zn	0.857033	-0.208207	-0.250636
Zn8	Zn	1.190367	0.125127	0.082697
Zn9	Zn	1.523700	0.458460	0.416030
Zn10	Zn	0.856984	-0.295602	-0.355839
Zn11	Zn	1.190317	0.037731	-0.022506
Zn12	Zn	1.523650	0.371065	0.310828
O13	O	0.909630	-0.251909	-0.303244
O14	O	1.242963	0.081424	0.030090
O15	O	1.576297	0.414758	0.363423
O16	O	1.050373	-0.219804	-0.341935
O17	O	1.383706	0.113529	-0.008602
O18	O	1.717040	0.446863	0.324731
O19	O	0.948241	-0.284047	-0.162522
O20	O	1.281574	0.049286	0.170811
O21	O	1.614908	0.382619	0.504145
O22	O	0.871054	-0.135040	-0.264633
O23	O	1.204387	0.198293	0.068701
O24	O	1.537720	0.531626	0.402034
O25	O	1.050309	-0.284039	-0.264584
O26	O	1.383642	0.049294	0.068750
O27	O	1.716976	0.382628	0.402083
O28	O	0.948389	-0.135034	-0.341963
O29	O	1.281722	0.198299	-0.008630
O30	O	1.615056	0.531632	0.324704
O31	O	0.870969	-0.219818	-0.162543
O32	O	1.204303	0.113515	0.170790
O33	O	1.537636	0.446848	0.504124
O34	O	0.768937	-0.219792	-0.264582
O35	O	1.102271	0.113541	0.068752
O36	O	1.435604	0.446875	0.402085
O37	O	0.870969	-0.283993	-0.443935
O38	O	1.204302	0.049341	-0.110602
O39	O	1.537636	0.382674	0.222731
O40	O	0.768901	-0.284001	-0.341874
O41	O	1.102234	0.049332	-0.008540
O42	O	1.435567	0.382666	0.324793
O43	O	0.948341	-0.219778	-0.443974
O44	O	1.281674	0.113556	-0.110641
O45	O	1.615008	0.446889	0.222693
O46	O	0.948193	-0.368791	-0.264533
O47	O	1.281526	-0.035457	0.068801
O48	O	1.614860	0.297876	0.402134
O49	O	0.870885	-0.368771	-0.341846
O50	O	1.204218	-0.035437	-0.008513
O51	O	1.537551	0.297896	0.324821
C52	C	0.746078	-0.251895	-0.303225
C53	C	1.079412	0.081438	0.030108
C54	C	1.412745	0.414772	0.363441
C55	C	0.676110	-0.251901	-0.303233
C56	C	1.009444	0.081432	0.030101
C57	C	1.342777	0.414765	0.363434
C58	C	0.176650	-0.285404	-0.343450
C59	C	0.509983	0.047929	-0.010117
C60	C	0.843317	0.381263	0.323216
C61	C	0.242392	-0.285404	-0.343444
C62	C	0.575726	0.047929	-0.010110
C63	C	0.909059	0.381262	0.323223
C64	C	0.275271	-0.251921	-0.303263
C65	C	0.608604	0.081412	0.030070
C66	C	0.941938	0.414746	0.363403
C67	C	0.242401	-0.218444	-0.263075
C68	C	0.575735	0.114889	0.070258
C69	C	0.909068	0.448222	0.403592
C70	C	0.176660	-0.218449	-0.263078
C71	C	0.509994	0.114885	0.070255
C72	C	0.843327	0.448218	0.403588
N73	N	0.378514	-0.206142	-0.298536
N74	N	0.711848	0.127191	0.034798
N75	N	1.045181	0.460525	0.368131
N76	N	0.440966	-0.206139	-0.298536
N77	N	0.774299	0.127194	0.034797
N78	N	1.107633	0.460528	0.368131
C79	C	0.473346	-0.251906	-0.303250
C80	C	0.806679	0.081427	0.030083
C81	C	1.140012	0.414761	0.363417
N82	N	0.440915	-0.297677	-0.307976
N83	N	0.774248	0.035656	0.025358
N84	N	1.107581	0.368990	0.358691
N85	N	0.378457	-0.297679	-0.307978
N86	N	0.711791	0.035654	0.025355
N87	N	1.045124	0.368987	0.358688
C88	C	0.346556	-0.251913	-0.303255
C89	C	0.679890	0.081421	0.030078
C90	C	1.013223	0.414754	0.363412
C91	C	0.577493	-0.285383	-0.343425
C92	C	0.910826	0.047950	-0.010092
C93	C	1.244159	0.381283	0.323241
C94	C	0.643236	-0.285384	-0.343414
C95	C	0.976570	0.047949	-0.010081
C96	C	1.309903	0.381282	0.323252
C97	C	0.643244	-0.218420	-0.263049
C98	C	0.976578	0.114913	0.070284
C99	C	1.309911	0.448247	0.403618
C100	C	0.577502	-0.218423	-0.263057
C101	C	0.910835	0.114910	0.070277
C102	C	1.244168	0.448243	0.403610
C103	C	0.544630	-0.251905	-0.303248
C104	C	0.877963	0.081429	0.030085
C105	C	1.211297	0.414762	0.363418
C106	C	0.909541	-0.387752	-0.303194
C107	C	1.242874	-0.054418	0.030139
C108	C	1.576208	0.278915	0.363472
C109	C	0.909561	-0.445866	-0.303194
C110	C	1.242894	-0.112532	0.030139
C111	C	1.576227	0.220801	0.363472
C112	C	0.949919	-0.806187	-0.343582
C113	C	1.283252	-0.472854	-0.010249
C114	C	1.616585	-0.139520	0.323084
C115	C	0.949937	-0.860791	-0.343595
C116	C	1.283270	-0.527458	-0.010262
C117	C	1.616604	-0.194125	0.323072
O118	O	0.984145	-0.888992	-0.377884
O119	O	1.317478	-0.555659	-0.044550
O120	O	1.650812	-0.222326	0.288783
N121	N	0.909717	-0.888148	-0.303304
N122	N	1.243051	-0.554815	0.030029
N123	N	1.576384	-0.221481	0.363362
C124	C	0.869472	-0.860898	-0.263003
C125	C	1.202805	-0.527564	0.070330
C126	C	1.536139	-0.194231	0.403664
O127	O	0.835263	-0.889181	-0.228734
O128	O	1.168596	-0.555847	0.104599
O129	O	1.501930	-0.222514	0.437932
C130	C	0.869451	-0.806294	-0.262994
C131	C	1.202784	-0.472961	0.070340
C132	C	1.536117	-0.139628	0.403673
C133	C	0.909678	-0.778940	-0.303282
C134	C	1.243011	-0.445607	0.030051
C135	C	1.576344	-0.112274	0.363384
C136	C	0.990142	-0.778833	-0.383868
C137	C	1.323475	-0.445500	-0.050535
C138	C	1.656808	-0.112166	0.282798
C139	C	0.990124	-0.724232	-0.383854
C140	C	1.323457	-0.390899	-0.050521
C141	C	1.656791	-0.057566	0.282812
C142	C	0.949883	-0.696986	-0.343555
C143	C	1.283216	-0.363653	-0.010221
C144	C	1.616549	-0.030319	0.323112
C145	C	0.909660	-0.724340	-0.303269
C146	C	1.242993	-0.391007	0.030065
C147	C	1.576326	-0.057673	0.363398
C148	C	0.829202	-0.779045	-0.222696
C149	C	1.162536	-0.445712	0.110637
C150	C	1.495869	-0.112378	0.443971
C151	C	0.829184	-0.724438	-0.222691
C152	C	1.162518	-0.391105	0.110643
C153	C	1.495851	-0.057771	0.443976
C154	C	0.869411	-0.697084	-0.262979
C155	C	1.202745	-0.363751	0.070354
C156	C	1.536078	-0.030417	0.403687
C157	C	0.869401	-0.642493	-0.262955
C158	C	1.202734	-0.309160	0.070378
C159	C	1.536067	0.024174	0.403711
N160	N	0.909620	-0.615136	-0.303246
N161	N	1.242954	-0.281803	0.030088
N162	N	1.576287	0.051531	0.363421
C163	C	0.949862	-0.642383	-0.343546
C164	C	1.283195	-0.309049	-0.010212
C165	C	1.616528	0.024284	0.323121
C166	C	0.869519	-0.975568	-0.263026
C167	C	1.202852	-0.642235	0.070307
C168	C	1.536186	-0.308902	0.403641
C169	C	0.869543	-1.030171	-0.263031
C170	C	1.202876	-0.696837	0.070302
C171	C	1.536209	-0.363504	0.403635
C172	C	0.950007	-1.030060	-0.343625
C173	C	1.283341	-0.696727	-0.010291
C174	C	1.616674	-0.363394	0.323042
C175	C	0.949986	-0.975457	-0.343615
C176	C	1.283319	-0.642124	-0.010282
C177	C	1.616653	-0.308790	0.323051
C178	C	0.909739	-0.948212	-0.303317
C179	C	1.243072	-0.614878	0.030017
C180	C	1.576405	-0.281545	0.363350
C181	C	0.949821	-0.527717	-0.343513
C182	C	1.283155	-0.194384	-0.010180
C183	C	1.616488	0.138949	0.323154
C184	C	0.949802	-0.473112	-0.343494
C185	C	1.283135	-0.139779	-0.010161
C186	C	1.616468	0.193555	0.323173
C187	C	0.869335	-0.473227	-0.262903
C188	C	1.202668	-0.139894	0.070430
C189	C	1.536002	0.193440	0.403763
C190	C	0.869357	-0.527828	-0.262920
C191	C	1.202690	-0.194494	0.070413
C192	C	1.536023	0.138839	0.403747
C193	C	0.909602	-0.555072	-0.303230
C194	C	1.242935	-0.221738	0.030103
C195	C	1.576269	0.111595	0.363437
O196	O	0.835208	-0.614257	-0.228686
O197	O	1.168542	-0.280924	0.104647
O198	O	1.501875	0.052410	0.437981
O199	O	0.984059	-0.614093	-0.377814
O200	O	1.317392	-0.280759	-0.044481
O201	O	1.650725	0.052574	0.288852
C202	C	1.073820	-0.251924	-0.303262
C203	C	1.407154	0.081410	0.030071
C204	C	1.740487	0.414743	0.363405
C205	C	1.143788	-0.251930	-0.303270
C206	C	1.477122	0.081404	0.030063
C207	C	1.810455	0.414737	0.363397
C208	C	0.909659	-0.251881	-0.467434
C209	C	1.242992	0.081452	-0.134101
C210	C	1.576326	0.414786	0.199233
C211	C	0.909671	-0.251869	-0.537402
C212	C	1.243005	0.081464	-0.204069
C213	C	1.576338	0.414797	0.129265
C214	C	0.909736	-0.115536	-0.303307
C215	C	1.243070	0.217797	0.030026
C216	C	1.576403	0.551131	0.363360
C217	C	0.909782	-0.057422	-0.303334
C218	C	1.243115	0.275911	0.030000
C219	C	1.576449	0.609245	0.363333
C220	C	0.949977	-0.285205	-1.036850
C221	C	1.283310	0.048129	-0.703516
C222	C	1.616644	0.381462	-0.370183
C223	C	0.949966	-0.285221	-0.971107
C224	C	1.283299	0.048112	-0.637774
C225	C	1.616632	0.381445	-0.304441
C226	C	0.909731	-0.251788	-0.938242
C227	C	1.243064	0.081546	-0.604908
C228	C	1.576398	0.414879	-0.271575
C229	C	0.869493	-0.218344	-0.971124
C230	C	1.202826	0.114989	-0.637791
C231	C	1.536160	0.448322	-0.304457
C232	C	0.869501	-0.218332	-1.036865
C233	C	1.202834	0.115001	-0.703532
C234	C	1.536168	0.448334	-0.370199
N235	N	0.904925	-0.206040	-0.835041
N236	N	1.238258	0.127294	-0.501708
N237	N	1.571591	0.460627	-0.168375
N238	N	0.904921	-0.206053	-0.772590
N239	N	1.238254	0.127281	-0.439256
N240	N	1.571587	0.460614	-0.105923
C241	C	0.909703	-0.251823	-0.740167
C242	C	1.243037	0.081510	-0.406834
C243	C	1.576370	0.414844	-0.073500
N244	N	0.914502	-0.297581	-0.772555
N245	N	1.247835	0.035753	-0.439221
N246	N	1.581169	0.369086	-0.105888
N247	N	0.914509	-0.297567	-0.835012
N248	N	1.247843	0.035766	-0.501679
N249	N	1.581176	0.369099	-0.168345
C250	C	0.909717	-0.251797	-0.866956
C251	C	1.243051	0.081536	-0.533623
C252	C	1.576384	0.414869	-0.200290
C253	C	0.949923	-0.285285	-0.636007
C254	C	1.283256	0.048048	-0.302673
C255	C	1.616590	0.381382	0.030660
C256	C	0.949907	-0.285303	-0.570263
C257	C	1.283241	0.048031	-0.236930
C258	C	1.616574	0.381364	0.096404
C259	C	0.869438	-0.218421	-0.570281
C260	C	1.202771	0.114912	-0.236948
C261	C	1.536105	0.448246	0.096386
C262	C	0.869451	-0.218408	-0.636024
C263	C	1.202784	0.114925	-0.302690
C264	C	1.536117	0.448259	0.030643
C265	C	0.909696	-0.251839	-0.668883
C266	C	1.243030	0.081494	-0.335549
C267	C	1.576363	0.414827	-0.002216
C268	C	0.909637	-0.251899	-0.139692
C269	C	1.242971	0.081434	0.193641
C270	C	1.576304	0.414768	0.526975
C271	C	0.909747	-0.251764	-0.069724
C272	C	1.243080	0.081570	0.263609
C273	C	1.576414	0.414903	0.596942
H274	H	0.982561	-0.450842	-0.376302
H275	H	1.315895	-0.117509	-0.042968
H276	H	1.649228	0.215825	0.290365
H277	H	0.836606	-0.550101	-0.230109
H278	H	1.169939	-0.216767	0.103225
H279	H	1.503272	0.116566	0.436558
H280	H	0.836733	-0.191123	-0.944361
H281	H	1.170066	0.142210	-0.611027
H282	H	1.503400	0.475544	-0.277694
H283	H	0.982664	-0.312539	-0.543498
H284	H	1.315998	0.020794	-0.210164
H285	H	1.649331	0.354127	0.123169
H286	H	0.982692	-0.312508	-0.662762
H287	H	1.316025	0.020825	-0.329429
H288	H	1.649359	0.354158	0.003905
H289	H	0.149905	-0.191189	-0.230358
H290	H	0.483238	0.142145	0.102975
H291	H	0.816571	0.475478	0.436308
C292	C	0.825251	-0.181542	-1.073029
C293	C	1.158584	0.151792	-0.739695
C294	C	1.491917	0.485125	-0.406362
H295	H	0.801288	-0.161629	-1.044042
H296	H	1.134621	0.171704	-0.710709
H297	H	1.467954	0.505037	-0.377375
H298	H	0.797814	-0.201534	-1.098665
H299	H	1.131147	0.131799	-0.765331
H300	H	1.464480	0.465133	-0.431998
H301	H	0.849357	-0.158755	-1.098684
H302	H	1.182691	0.174578	-0.765351
H303	H	1.516024	0.507912	-0.432018
H304	H	0.269175	-0.191183	-0.230359
H305	H	0.602509	0.142151	0.102974
H306	H	0.935842	0.475484	0.436308
C307	C	0.825298	-1.060257	-0.218712
C308	C	1.158631	-0.726923	0.114622
C309	C	1.491965	-0.393590	0.447955
H310	H	0.831071	-1.096680	-0.224484
H311	H	1.164404	-0.763346	0.108849
H312	H	1.497737	-0.430013	0.442183
H313	H	0.782996	-1.051327	-0.227884
H314	H	1.116329	-0.717994	0.105449
H315	H	1.449662	-0.384661	0.438783
H316	H	0.834539	-1.051328	-0.176421
H317	H	1.167872	-0.717994	0.156912
H318	H	1.501206	-0.384661	0.490246
H319	H	0.836677	-0.191200	-0.543523
H320	H	1.170010	0.142134	-0.210189
H321	H	1.503343	0.475467	0.123144
H322	H	0.836573	-0.451035	-0.230090
H323	H	1.169906	-0.117701	0.103243
H324	H	1.503240	0.215632	0.436577
H325	H	0.982735	-0.312447	-0.944336
H326	H	1.316068	0.020886	-0.611002
H327	H	1.649402	0.354219	-0.277669
H328	H	0.796446	-0.801307	-0.189888
H329	H	1.129779	-0.467974	0.143445
H330	H	1.463112	-0.134641	0.476779
H331	H	0.836693	-0.191174	-0.662790
H332	H	1.170027	0.142159	-0.329457
H333	H	1.503360	0.475492	0.003876
H334	H	0.269153	-0.312663	-0.376166
H335	H	0.602487	0.020670	-0.042832
H336	H	0.935820	0.354004	0.290501
C337	C	0.140494	-0.322256	-0.387630
C338	C	0.473828	0.011077	-0.054297
C339	C	0.807161	0.344411	0.279037
H340	H	0.169485	-0.342201	-0.411548
H341	H	0.502818	-0.008868	-0.078215
H342	H	0.836152	0.324465	0.255119
H343	H	0.114854	-0.302308	-0.415112
H344	H	0.448188	0.031026	-0.081779
H345	H	0.781521	0.364359	0.251555
H346	H	0.114843	-0.345009	-0.363472
H347	H	0.448177	-0.011676	-0.030139
H348	H	0.781510	0.321658	0.303194
H349	H	0.796408	-0.702257	-0.189875
H350	H	1.129741	-0.368924	0.143458
H351	H	1.463075	-0.035591	0.476792
H352	H	0.550746	-0.191163	-0.230339
H353	H	0.884079	0.142170	0.102994
H354	H	1.217412	0.475503	0.436327
H355	H	0.669991	-0.312647	-0.376132
H356	H	1.003324	0.020686	-0.042799
H357	H	1.336658	0.354020	0.290534
C358	C	0.541331	-0.322180	-0.387669
C359	C	0.874664	0.011153	-0.054336
C360	C	1.207998	0.344487	0.278997
H361	H	0.570321	-0.342112	-0.411606
H362	H	0.903654	-0.008779	-0.078272
H363	H	1.236987	0.324555	0.255061
H364	H	0.515729	-0.302179	-0.415131
H365	H	0.849063	0.031155	-0.081798
H366	H	1.182396	0.364488	0.251535
H367	H	0.515642	-0.344949	-0.363575
H368	H	0.848975	-0.011616	-0.030241
H369	H	1.182308	0.321718	0.303092
H370	H	0.982747	-0.312429	-1.063599
H371	H	1.316080	0.020905	-0.730266
H372	H	1.649413	0.354238	-0.396933
C373	C	1.034372	-0.694150	-0.428175
C374	C	1.367705	-0.360816	-0.094841
C375	C	1.701038	-0.027483	0.238492
H376	H	1.058334	-0.718204	-0.452177
H377	H	1.391667	-0.384870	-0.118844
H378	H	1.725000	-0.051537	0.214489
H379	H	1.061810	-0.672845	-0.404119
H380	H	1.395143	-0.339512	-0.070786
H381	H	1.728476	-0.006178	0.262547
H382	H	1.010266	-0.672850	-0.455582
H383	H	1.343599	-0.339516	-0.122248
H384	H	1.676932	-0.006183	0.211085
H385	H	0.982588	-0.549893	-0.376342
H386	H	1.315922	-0.216560	-0.043008
H387	H	1.649255	0.116774	0.290325
C388	C	0.679403	-0.181588	-0.218852
C389	C	1.012736	0.151745	0.114482
C390	C	1.346069	0.485079	0.447815
H391	H	0.723263	-0.186377	-0.224606
H392	H	1.056596	0.146956	0.108727
H393	H	1.389929	0.480290	0.442060
H394	H	0.668609	-0.189193	-0.176540
H395	H	1.001943	0.144141	0.156794
H396	H	1.335276	0.477474	0.490127
H397	H	0.668651	-0.146468	-0.228151
H398	H	1.001985	0.186866	0.105182
H399	H	1.335318	0.520199	0.438516
C400	C	1.034415	-0.808796	-0.428198
C401	C	1.367748	-0.475462	-0.094865
C402	C	1.701081	-0.142129	0.238469
H403	H	1.058366	-0.784677	-0.452182
H404	H	1.391700	-0.451344	-0.118849
H405	H	1.725033	-0.118010	0.214485
H406	H	1.010335	-0.830100	-0.455613
H407	H	1.343669	-0.496766	-0.122279
H408	H	1.677002	-0.163433	0.211054
H409	H	1.061871	-0.830088	-0.404142
H410	H	1.395204	-0.496754	-0.070809
H411	H	1.728538	-0.163421	0.262525
C412	C	0.994224	-0.945372	-0.387943
C413	C	1.327557	-0.612039	-0.054610
C414	C	1.660891	-0.278706	0.278723
H415	H	1.018187	-0.969425	-0.411948
H416	H	1.351520	-0.636091	-0.078615
H417	H	1.684853	-0.302758	0.254719
H418	H	1.021662	-0.924062	-0.363896
H419	H	1.354996	-0.590728	-0.030562
H420	H	1.688329	-0.257395	0.302771
H421	H	0.970109	-0.924078	-0.415348
H422	H	1.303442	-0.590745	-0.082015
H423	H	1.636775	-0.257412	0.251318
C424	C	0.994269	-1.060038	-0.387958
C425	C	1.327602	-0.726705	-0.054624
C426	C	1.660936	-0.393372	0.278709
H427	H	0.988512	-1.096475	-0.382194
H428	H	1.321846	-0.763142	-0.048861
H429	H	1.655179	-0.429808	0.284472
H430	H	1.036568	-1.051069	-0.378787
H431	H	1.369902	-0.717736	-0.045453
H432	H	1.703235	-0.384403	0.287880
H433	H	0.985020	-1.051072	-0.430245
H434	H	1.318354	-0.717738	-0.096912
H435	H	1.651687	-0.384405	0.236422
H436	H	0.836746	-0.953388	-0.230205
H437	H	1.170080	-0.620054	0.103129
H438	H	1.503413	-0.286721	0.436462
