data_functionalizedCrystal
_audit_creation_method	'MofGen! by Chris Wilmer'
_symmetry_space_group_name_H-M	'P1'
_symmetry_Int_Tables_number	1
_symmetry_cell_setting	triclinic
loop_
_symmetry_equiv_pos_as_xyz
  x,y,z
_cell_length_a	20.919309
_cell_length_b	14.446369
_cell_length_c	14.446369
_cell_angle_alpha	60.000250
_cell_angle_beta	90.000599
_cell_angle_gamma	57.442498
loop_
_atom_site_label
_atom_site_type_symbol
_atom_site_fract_x
_atom_site_fract_y
_atom_site_fract_z
Zr1	Zr	0.641770	0.940909	-0.085371
O2	O	0.535401	1.146008	-0.239172
O3	O	0.674378	0.744118	-0.038216
O4	O	0.674379	0.937226	-0.231335
O5	O	0.535399	0.952908	0.106276
O6	O	0.784009	0.924871	-0.225160
O7	O	0.535399	0.952899	-0.046053
O8	O	0.784006	0.579435	0.120295
O9	O	0.535402	1.298343	-0.239179
O10	O	0.770101	0.812764	-0.013504
O11	O	0.688285	0.821990	0.095569
O12	O	0.688287	1.049350	-0.131804
O13	O	0.606471	1.058577	-0.022731
Zr14	Zr	0.816617	0.921217	0.167425
Zr15	Zr	0.816617	0.921204	-0.075522
Zr16	Zr	0.641770	0.940922	0.157576
Zr17	Zr	0.641772	1.183867	-0.085382
Zr18	Zr	0.816615	0.678260	0.167436
O19	O	0.784009	1.118009	0.120270
O20	O	0.784010	1.117990	-0.225169
O21	O	0.535400	1.146027	0.106267
O22	O	0.922986	0.716119	0.321227
O23	O	0.922987	0.716100	-0.024213
O24	O	0.674377	0.744137	0.307223
O25	O	0.922988	0.909219	-0.024221
O26	O	0.784008	0.924901	0.313389
O27	O	0.674378	0.937256	0.307214
O28	O	0.922988	0.909227	0.128107
O29	O	0.674381	1.282681	-0.231351
O30	O	0.784006	0.579446	0.313405
O31	O	0.922985	0.563783	0.321233
O32	O	0.922986	0.563773	0.128123
O33	O	0.535401	1.298354	-0.046069
O34	O	0.674381	1.282691	-0.038241
O35	O	0.770100	0.812776	0.213858
O36	O	0.851916	0.803549	0.104786
O37	O	0.770102	1.040136	-0.013514
O38	O	0.688287	1.049363	0.095558
C39	C	0.729192	0.627160	0.041041
C40	C	0.729191	0.524018	0.041046
C41	C	0.677837	0.382800	0.110180
C42	C	0.677558	0.490451	0.109873
C43	C	0.691549	0.577250	-0.084610
C44	C	0.691163	0.470060	-0.084257
C45	C	0.818223	0.280529	0.096505
C46	C	0.818092	0.386695	0.099019
C47	C	0.510487	0.955711	0.028708
C48	C	0.436260	0.964076	0.024527
C49	C	0.444092	0.844513	0.084308
C50	C	0.374345	0.852382	0.080377
C51	C	0.296767	0.979814	0.016657
C52	C	0.288937	1.099385	-0.043126
C53	C	0.358683	1.091516	-0.039187
C54	C	0.084043	1.009753	0.001683
C55	C	0.014295	1.017613	-0.002254
C56	C	0.099708	0.770608	0.121251
C57	C	0.169452	0.762750	0.125178
C58	C	0.161616	0.882322	0.065400
C59	C	0.225474	0.987859	0.012635
C60	C	0.232908	0.874275	0.069430
C61	C	0.947900	0.906415	0.053346
C62	C	1.022127	0.898050	0.057527
C63	C	0.729194	0.931047	-0.262862
C64	C	0.729194	0.931041	-0.366000
C65	C	0.729195	1.234966	0.041013
C66	C	0.729196	1.338108	0.041009
C67	C	0.781051	0.781812	-0.438054
C68	C	0.780826	0.781740	-0.330738
C69	C	0.640296	1.012287	-0.445570
C70	C	0.640580	1.011345	-0.552413
C71	C	0.765517	1.000218	-0.546949
C72	C	0.767316	0.997313	-0.438176
C73	C	0.729193	0.931080	0.344917
C74	C	0.729193	0.931086	0.448054
C75	C	0.947898	0.602512	0.053360
C76	C	1.022124	0.491005	0.057546
C77	C	0.729191	0.627177	0.344930
C78	C	0.729190	0.524041	0.448072
C79	C	0.947898	0.602529	0.357250
C80	C	1.022124	0.491028	0.464572
C81	C	0.510489	1.259597	-0.275195
C82	C	0.436263	1.371099	-0.382518
C83	C	0.510489	1.259614	0.028694
C84	C	0.436263	1.371121	0.024508
C85	C	0.729196	1.234950	-0.262876
C86	C	0.729197	1.338086	-0.366018
C87	C	1.014275	0.443450	-0.002245
C88	C	1.084012	0.338691	0.001665
C89	C	1.161597	0.281483	0.065373
C90	C	1.169445	0.329048	0.125165
C91	C	1.099709	0.433812	0.121248
C92	C	1.099695	0.433848	0.458038
C93	C	1.169445	0.329094	0.558870
C94	C	1.161622	0.281513	0.666236
C95	C	1.084042	0.338703	0.672768
C96	C	1.014294	0.443463	0.571937
C97	C	0.358692	1.428290	-0.375984
C98	C	0.288942	1.533075	-0.476816
C99	C	0.296765	1.580660	-0.584182
C100	C	0.374345	1.523464	-0.590714
C101	C	0.444093	1.418688	-0.489882
C102	C	0.444112	1.418687	0.084289
C103	C	0.374375	1.523472	0.080352
C104	C	0.296790	1.580684	0.016641
C105	C	0.288943	1.533114	-0.043146
C106	C	0.358678	1.428337	-0.039216
C107	C	0.677339	0.383570	0.520141
C108	C	0.677559	0.490466	0.412820
C109	C	0.818090	0.387169	0.527639
C110	C	0.817811	0.279825	0.634487
C111	C	0.692875	0.468878	0.629028
C112	C	0.691072	0.577551	0.520250
H113	H	0.625651	0.518139	-0.128360
Cl114	Cl	0.348835	1.368491	-0.241023
Cl115	Cl	0.576008	0.452481	0.510822
Cl116	Cl	0.109552	0.620300	0.196401
Cl117	Cl	0.191423	1.604952	-0.468578
Cl118	Cl	0.880339	0.414496	0.573188
Cl119	Cl	0.576171	0.638989	0.050116
Cl120	Cl	0.074182	1.160073	-0.073472
H121	H	0.612555	0.425918	0.071798
H122	H	1.106081	0.472572	0.370625
H123	H	0.296075	0.770520	0.121315
Cl124	Cl	0.741867	0.699381	-0.249927
Cl125	Cl	0.541640	1.346791	0.164385
Cl126	Cl	0.127943	1.148055	-0.067468
Cl127	Cl	0.577683	1.180899	-0.677286
Cl128	Cl	0.191400	1.605046	-0.123230
H129	H	0.727159	0.602019	-0.138619
Cl130	Cl	0.882381	0.683466	-0.428733
H131	H	0.380781	1.562185	0.129044
H132	H	0.352276	1.389613	-0.087894
H133	H	0.240013	1.665999	0.013450
Cl134	Cl	0.750906	0.424068	0.753064
Cl135	Cl	0.745194	0.430032	-0.168602
H136	H	0.611501	0.964003	-0.553779
Cl137	Cl	1.074127	0.278912	-0.073503
Cl138	Cl	0.576489	0.639803	0.323327
H139	H	0.849673	0.183243	0.187843
Cl140	Cl	1.266964	0.257213	0.550632
H141	H	0.507253	1.372123	-0.495216
H142	H	0.832812	0.937986	-0.383067
H143	H	0.859583	0.403519	0.054327
Cl144	Cl	0.715872	0.240793	0.520715
Cl145	Cl	0.916778	0.515325	0.580172
Cl146	Cl	0.862703	0.134648	0.636600
Cl147	Cl	0.716647	0.429312	0.252512
Cl148	Cl	1.266987	0.257109	0.205256
H149	H	0.239965	1.665976	-0.666276
Cl150	Cl	0.589944	0.728632	0.435177
H151	H	0.702756	0.450157	0.360455
H152	H	0.352301	1.188877	-0.087853
Cl153	Cl	1.249258	0.149777	0.070288
Cl154	Cl	0.578046	1.182183	-0.491127
H155	H	0.846214	0.343930	0.191612
H156	H	1.106111	0.472517	0.169944
H157	H	0.856669	0.250219	0.046432
Cl158	Cl	0.716627	0.241239	0.253174
Cl159	Cl	1.249315	0.149811	0.792987
H160	H	0.858551	0.245281	0.715363
H161	H	0.225767	1.203143	-0.095001
H162	H	0.847373	0.345308	0.477683
Cl163	Cl	0.881895	0.684054	-0.241235
Cl164	Cl	1.074221	0.278871	0.807752
Cl165	Cl	0.593333	0.541193	0.629776
Cl166	Cl	0.742513	0.699667	-0.438619
H167	H	0.507256	0.740744	0.136201
Cl168	Cl	0.743323	0.621277	0.562590
Cl169	Cl	0.595078	0.941004	-0.368449
Cl170	Cl	0.591369	0.731050	-0.153077
H171	H	0.380729	0.755021	0.129059
Cl172	Cl	0.384166	1.583296	-0.725698
H173	H	0.232616	0.658981	0.177043
H174	H	0.829991	0.947053	-0.547432
Cl175	Cl	-0.083235	1.177826	-0.082377
H176	H	0.727912	1.110127	-0.627271
Cl177	Cl	0.715058	1.164824	-0.480538
H178	H	0.951107	0.490028	-0.054136
