data_functionalizedCrystal
_audit_creation_method	'MofGen! by Chris Wilmer'
_symmetry_space_group_name_H-M	'P1'
_symmetry_Int_Tables_number	1
_symmetry_cell_setting	triclinic
loop_
_symmetry_equiv_pos_as_xyz
  x,y,z
_cell_length_a	14.853566
_cell_length_b	15.995350
_cell_length_c	13.330367
_cell_angle_alpha	89.997588
_cell_angle_beta	89.995295
_cell_angle_gamma	83.563394
loop_
_atom_site_label
_atom_site_type_symbol
_atom_site_fract_x
_atom_site_fract_y
_atom_site_fract_z
O1	O	1.196222	0.109312	-0.083352
O2	O	1.696222	0.609312	0.416648
O3	O	0.933745	0.122335	-0.083368
O4	O	1.433745	0.622335	0.416632
O5	O	1.072159	-0.006056	-0.083359
O6	O	1.572159	0.493944	0.416641
O7	O	1.057809	0.237703	-0.083361
O8	O	1.557809	0.737703	0.416639
O9	O	1.072138	-0.006059	0.083488
O10	O	1.572138	0.493941	0.583488
O11	O	0.933725	0.122332	0.083479
O12	O	1.433725	0.622332	0.583479
O13	O	1.196202	0.109309	0.083495
O14	O	1.696202	0.609309	0.583495
Cu15	Cu	1.064962	0.115820	0.098722
Cu16	Cu	1.564962	0.615820	0.598722
Cu17	Cu	1.064985	0.115824	-0.098595
Cu18	Cu	1.564985	0.615824	0.401405
O19	O	1.057789	0.237700	0.083486
O20	O	1.557789	0.737700	0.583486
C21	C	0.900147	0.121744	0.000053
C22	C	1.400147	0.621744	0.500053
C23	C	0.800066	0.119976	0.000047
C24	C	1.300066	0.619976	0.500047
C25	C	0.376902	0.112501	-0.090884
C26	C	0.876902	0.612501	0.409116
C27	C	0.376901	0.112498	0.091020
C28	C	0.876901	0.612498	0.591020
C29	C	0.470933	0.114158	0.091017
C30	C	0.970933	0.614158	0.591017
C31	C	0.517953	0.114991	0.000062
C32	C	1.017953	0.614991	0.500062
C33	C	0.470942	0.114163	-0.090889
C34	C	0.970942	0.614163	0.409111
C35	C	0.517950	0.114994	0.181966
C36	C	1.017950	0.614994	0.681966
C37	C	0.611988	0.116655	0.181967
C38	C	1.111988	0.616655	0.681967
C39	C	0.659011	0.117482	0.091011
C40	C	1.159011	0.617482	0.591011
C41	C	0.611994	0.116653	0.000056
C42	C	1.111994	0.616653	0.500056
C43	C	0.659014	0.117486	-0.090898
C44	C	1.159014	0.617486	0.409102
C45	C	0.611999	0.116652	-0.181855
C46	C	1.111999	0.616652	0.318145
C47	C	0.517965	0.114990	-0.181845
C48	C	1.017965	0.614990	0.318155
C49	C	0.753045	0.119144	0.091002
C50	C	1.253045	0.619144	0.591002
C51	C	0.753054	0.119149	-0.090904
C52	C	1.253054	0.619149	0.409096
C53	C	1.071555	-0.037253	0.000063
C54	C	1.571555	0.462747	0.500063
C55	C	1.069777	-0.130205	0.000057
C56	C	1.569777	0.369795	0.500057
C57	C	1.063389	-0.467960	0.000060
C58	C	1.563389	0.032040	0.500060
C59	C	0.964814	-0.420640	-0.000320
C60	C	1.464814	0.079360	0.499680
C61	C	0.966593	-0.323948	0.000056
C62	C	1.466593	0.176052	0.500056
C63	C	1.066558	-0.300396	0.000058
C64	C	1.566558	0.199604	0.500058
C65	C	1.115167	-0.341419	0.095337
C66	C	1.615167	0.158581	0.595337
C67	C	1.112691	-0.438057	0.095417
C68	C	1.612691	0.061943	0.595417
C69	C	1.114750	-0.438410	-0.094320
C70	C	1.614750	0.061590	0.405680
C71	C	1.114727	-0.341464	-0.095579
C72	C	1.614727	0.158536	0.404421
C73	C	1.068353	-0.205696	0.000060
C74	C	1.568353	0.294304	0.500060
C75	C	1.061597	-0.562660	0.000065
C76	C	1.561597	-0.062660	0.500065
C77	C	1.229800	0.109900	0.000071
C78	C	1.729800	0.609900	0.500071
C79	C	1.329881	0.111668	0.000071
C80	C	1.829881	0.611668	0.500071
C81	C	1.058392	0.268897	0.000062
C82	C	1.558392	0.768897	0.500062
C83	C	1.060170	0.361849	0.000061
C84	C	1.560170	0.861849	0.500061
N85	N	1.064952	0.115818	0.237503
N86	N	1.564952	0.615818	0.737503
N87	N	1.065003	0.115820	-0.237376
N88	N	1.565003	0.615820	0.262624
C89	C	1.003693	0.172653	0.710122
C90	C	1.503693	0.672653	1.210122
C91	C	1.126302	0.058988	0.710098
C92	C	1.626302	0.558988	1.210098
C93	C	1.126292	0.058986	0.605080
C94	C	1.626292	0.558986	1.105080
C95	C	1.064982	0.115818	0.552578
C96	C	1.564982	0.615818	1.052578
C97	C	1.003683	0.172654	0.605094
C98	C	1.503683	0.672654	1.105094
C99	C	1.187596	0.002157	0.552556
C100	C	1.687596	0.502157	1.052556
C101	C	1.187589	0.002153	0.447531
C102	C	1.687589	0.502153	0.947531
C103	C	1.126274	0.058982	0.395027
C104	C	1.626274	0.558982	0.895027
C105	C	1.064972	0.115819	0.447549
C106	C	1.564972	0.615819	0.947549
C107	C	1.003663	0.172652	0.395047
C108	C	1.503663	0.672652	0.895047
C109	C	0.942355	0.229486	0.447568
C110	C	1.442355	0.729486	0.947568
C111	C	0.942368	0.229483	0.552590
C112	C	1.442368	0.729483	1.052590
C113	C	1.126261	0.058985	0.290005
C114	C	1.626261	0.558985	0.790005
C115	C	1.003652	0.172653	0.290019
C116	C	1.503652	0.672653	0.790019
H117	H	0.338611	0.111826	0.165071
H118	H	0.838611	0.611826	0.665071
F119	F	1.252848	-0.058321	0.608432
F120	F	1.752848	0.441679	1.108432
H121	H	1.187626	-0.326018	-0.101330
H122	H	1.687626	0.173982	0.398670
H123	H	0.953723	0.218931	0.247278
H124	H	1.453723	0.718931	0.747278
F125	F	0.916648	-0.286852	-0.089217
F126	F	1.416648	0.213148	0.410783
F127	F	1.071018	-0.304378	0.188013
F128	F	1.571018	0.195622	0.688013
H129	H	0.650259	0.117333	0.256029
H130	H	1.150259	0.617333	0.756029
H131	H	0.479659	0.114322	0.256017
H132	H	0.979659	0.614322	0.756017
F133	F	1.068631	-0.305511	-0.187722
F134	F	1.568631	0.194489	0.312278
F135	F	1.211161	-0.322846	0.099974
F136	F	1.711161	0.177154	0.599974
F137	F	0.877112	0.289975	0.391680
F138	F	1.377112	0.789975	0.891680
H139	H	0.791319	0.119831	0.165057
H140	H	1.291319	0.619831	0.665057
F141	F	0.467927	0.114076	-0.278638
F142	F	0.967927	0.614076	0.221362
H143	H	1.187429	-0.470086	-0.094958
H144	H	1.687429	0.029914	0.405042
F145	F	1.252834	-0.058335	0.391642
F146	F	1.752834	0.441665	0.891642
F147	F	0.877127	0.289967	0.608489
F148	F	1.377127	0.789967	1.108489
F149	F	0.938445	0.233134	0.766016
F150	F	1.438445	0.733134	1.266016
F151	F	0.662052	0.117544	-0.278652
F152	F	1.162052	0.617544	0.221348
F153	F	0.916288	-0.287582	0.089473
F154	F	1.416288	0.212418	0.589473
H155	H	1.176223	0.012720	0.752849
H156	H	1.676223	0.512720	1.252849
F157	F	0.913323	-0.444918	-0.089629
F158	F	1.413323	0.055082	0.410371
F159	F	1.191510	-0.001493	0.234115
F160	F	1.691510	0.498507	0.734115
F161	F	1.072630	-0.465294	-0.188712
F162	F	1.572630	0.034706	0.311288
F163	F	0.913401	-0.446593	0.088240
F164	F	1.413401	0.053407	0.588240
H165	H	1.077228	-0.456401	0.166638
H166	H	1.577228	0.043599	0.666638
H167	H	0.791332	0.119824	-0.164972
H168	H	1.291332	0.619824	0.335028
F169	F	1.207284	-0.480101	0.101080
F170	F	1.707284	0.019899	0.601080
H171	H	0.338619	0.111818	-0.164938
H172	H	0.838619	0.611818	0.335062
