data_functionalizedCrystal
_audit_creation_method	'MofGen! by Chris Wilmer'
_symmetry_space_group_name_H-M	'P1'
_symmetry_Int_Tables_number	1
_symmetry_cell_setting	triclinic
loop_
_symmetry_equiv_pos_as_xyz
  x,y,z
_cell_length_a	14.519709
_cell_length_b	19.288865
_cell_length_c	17.766277
_cell_angle_alpha	89.992086
_cell_angle_beta	89.992699
_cell_angle_gamma	83.408196
loop_
_atom_site_label
_atom_site_type_symbol
_atom_site_fract_x
_atom_site_fract_y
_atom_site_fract_z
O1	O	0.115045	0.921767	-0.062570
O2	O	0.130564	0.719562	-0.062577
O3	O	-0.011468	0.826026	-0.062567
O4	O	0.257077	0.815303	-0.062581
O5	O	-0.011475	0.826007	0.062622
O6	O	0.130557	0.719543	0.062611
O7	O	0.115038	0.921748	0.062618
Cu8	Cu	0.122797	0.820644	0.074045
Cu9	Cu	0.122805	0.820666	-0.074005
O10	O	0.257070	0.815285	0.062608
C11	C	-0.045828	0.825517	0.000028
C12	C	-0.148200	0.824019	0.000028
C13	C	0.115541	0.947636	0.000023
C14	C	0.117040	1.024745	0.000021
C15	C	0.130061	0.693675	0.000016
C16	C	0.128562	0.616566	0.000013
C17	C	-0.523061	0.818507	0.000008
C18	C	-0.418762	0.820037	0.000014
C19	C	-0.335633	0.821263	0.000019
C20	C	-0.231329	0.822794	0.000023
C21	C	0.291430	0.815794	0.000012
C22	C	0.393802	0.817291	0.000006
N23	N	0.122790	0.820634	0.178176
C24	C	0.033702	1.069141	0.000019
C25	C	0.035110	1.141593	0.000023
C26	C	0.119861	1.169646	0.000015
C27	C	0.203210	1.125240	0.000021
C28	C	0.201799	1.052789	0.000024
C29	C	0.186488	1.278169	-0.043852
C30	C	0.187895	1.350619	-0.043860
C31	C	0.124216	1.393107	0.000008
C32	C	0.059113	1.363139	0.043874
C33	C	0.057703	1.290688	0.043878
C34	C	0.121400	1.248205	0.000012
C35	C	0.042399	1.516065	0.000012
C36	C	0.043811	1.588518	0.000021
C37	C	0.211913	1.572163	0.000011
C38	C	0.210499	1.499711	0.000010
C39	C	0.125739	1.471667	0.000006
N40	N	0.122805	0.820682	-0.178135
C41	C	0.059929	0.867791	0.217567
C42	C	0.059925	0.867795	0.296369
C43	C	0.122798	0.820648	0.335776
C44	C	0.185664	0.773482	0.296375
C45	C	0.185660	0.773475	0.217575
C46	C	0.206826	0.811652	0.460610
C47	C	0.206831	0.811664	0.539409
C48	C	0.122809	0.820667	0.578823
C49	C	0.038778	0.829672	0.539428
C50	C	0.038775	0.829665	0.460628
C51	C	0.122808	0.820651	0.421222
C52	C	0.059938	0.867831	0.703660
C53	C	0.059932	0.867830	0.782463
C54	C	0.185679	0.773521	0.782468
C55	C	0.185676	0.773518	0.703666
C56	C	0.122807	0.820677	0.664267
H57	H	-0.035316	1.046313	0.000019
H58	H	0.269665	1.016641	0.000027
Cl59	Cl	-0.020955	1.416546	0.099019
Cl60	Cl	-0.066857	0.840996	0.588968
Cl61	Cl	-0.066858	0.840977	0.411106
Cl62	Cl	0.312466	0.800398	0.411069
Cl63	Cl	0.315273	1.443896	0.000004
Cl64	Cl	-0.019103	0.927113	0.654129
H65	H	-0.024056	1.624666	0.000024
Cl66	Cl	-0.019105	0.927115	0.831987
Cl67	Cl	0.264710	0.714235	0.654140
Cl68	Cl	0.309754	1.160505	0.000013
Cl69	Cl	0.264712	0.714245	0.832003
Cl70	Cl	0.269729	1.388287	-0.099012
H71	H	0.275253	0.804336	0.571477
Cl72	Cl	0.264700	0.714209	0.345914
Cl73	Cl	0.264693	0.714187	0.168051
H74	H	0.008735	0.906189	0.185491
H75	H	-0.032756	1.177748	0.000019
H76	H	0.238350	1.243579	-0.079574
H77	H	-0.026618	1.493230	0.000012
H78	H	0.008734	0.906197	0.328448
H79	H	0.280919	1.595002	0.000009
Cl80	Cl	-0.024118	1.253014	0.099038
