data_functionalizedCrystal
_audit_creation_method	'MofGen! by Chris Wilmer'
_symmetry_space_group_name_H-M	'P1'
_symmetry_Int_Tables_number	1
_symmetry_cell_setting	triclinic
loop_
_symmetry_equiv_pos_as_xyz
  x,y,z
_cell_length_a	12.478026
_cell_length_b	21.606444
_cell_length_c	21.606444
_cell_angle_alpha	59.991153
_cell_angle_beta	84.703659
_cell_angle_gamma	57.043788
loop_
_atom_site_label
_atom_site_type_symbol
_atom_site_fract_x
_atom_site_fract_y
_atom_site_fract_z
Zr1	Zr	1.036839	0.677516	-0.136627
O2	O	0.864977	0.806650	-0.226311
O3	O	1.089522	0.548384	-0.109119
O4	O	1.089512	0.677520	-0.238263
O5	O	0.864996	0.677510	0.004686
O6	O	1.266631	0.677520	-0.247708
O7	O	0.864987	0.677514	-0.097167
O8	O	1.266649	0.446520	-0.016694
O9	O	0.864978	0.908510	-0.226328
O10	O	1.244174	0.601497	-0.104454
O11	O	1.111999	0.601494	-0.021393
O12	O	1.111987	0.753534	-0.173443
O13	O	0.979813	0.753531	-0.090382
Zr14	Zr	1.319336	0.677509	0.010754
Zr15	Zr	1.319322	0.677516	-0.151691
Zr16	Zr	1.036853	0.677509	0.025818
Zr17	Zr	1.036840	0.839971	-0.136654
Zr18	Zr	1.319335	0.515054	0.010781
O19	O	1.266652	0.806641	-0.016754
O20	O	1.266632	0.806651	-0.247730
O21	O	0.864997	0.806640	0.004665
O22	O	1.491198	0.548375	0.100437
O23	O	1.491178	0.548385	-0.130538
O24	O	1.089543	0.548374	0.121856
O25	O	1.491179	0.677515	-0.130560
O26	O	1.266663	0.677505	0.112389
O27	O	1.089544	0.677505	0.121835
O28	O	1.491188	0.677511	-0.028706
O29	O	1.089515	0.908510	-0.238302
O30	O	1.266660	0.446515	0.112428
O31	O	1.491197	0.446515	0.100454
O32	O	1.491186	0.446521	-0.028667
O33	O	0.864989	0.908504	-0.097206
O34	O	1.089526	0.908505	-0.109180
O35	O	1.244188	0.601491	0.047570
O36	O	1.376362	0.601494	-0.035491
O37	O	1.244176	0.753531	-0.104480
O38	O	1.112001	0.753528	-0.021419
C39	C	1.178086	0.474306	-0.062903
C40	C	1.178085	0.405339	-0.062891
C41	C	1.080500	0.429076	-0.113815
C42	C	1.080504	0.364287	-0.113831
C43	C	1.178087	0.275761	-0.062919
C44	C	1.275682	0.252025	-0.011992
C45	C	1.275683	0.316813	-0.011980
C46	C	1.275681	-0.009262	-0.012040
C47	C	1.275670	-0.074051	-0.012054
C48	C	1.080502	0.038212	-0.113891
C49	C	1.080503	0.103001	-0.113879
C50	C	1.178101	0.079258	-0.062955
C51	C	1.178097	0.149511	-0.062939
C52	C	1.178086	0.205510	-0.062931
C53	C	0.824744	0.677512	-0.044094
C54	C	0.704822	0.677511	-0.037699
C55	C	1.531431	0.677513	-0.081779
C56	C	1.651353	0.677514	-0.088174
C57	C	1.178070	0.677521	-0.266130
C58	C	1.178063	0.677524	-0.335092
C59	C	1.178089	0.880719	-0.062971
C60	C	1.178090	0.949686	-0.062982
C61	C	1.109063	0.756885	-0.403503
C62	C	1.109074	0.756883	-0.468298
C63	C	1.178079	0.677518	-0.464681
C64	C	1.247089	0.598151	-0.396264
C65	C	1.247084	0.598154	-0.331471
C66	C	1.247110	0.598136	-0.657568
C67	C	1.247105	0.598139	-0.722369
C68	C	1.109099	0.756864	-0.794396
C69	C	1.109095	0.756868	-0.729602
C70	C	1.178109	0.677501	-0.661191
C71	C	1.178098	0.677505	-0.590933
C72	C	1.178083	0.677514	-0.534937
C73	C	1.178105	0.677504	0.140257
C74	C	1.178111	0.677501	0.209219
C75	C	1.531429	0.474307	-0.081745
C76	C	1.651350	0.405340	-0.088129
C77	C	1.178103	0.474297	0.140291
C78	C	1.178109	0.405328	0.209265
C79	C	1.531447	0.474298	0.121448
C80	C	1.651374	0.405329	0.184027
C81	C	0.824728	0.880727	-0.247322
C82	C	0.704801	0.949696	-0.309900
C83	C	0.824746	0.880718	-0.044128
C84	C	0.704825	0.949685	-0.037745
C85	C	1.178071	0.880728	-0.266164
C86	C	1.178066	0.949697	-0.335138
C87	C	1.638666	0.372955	-0.127131
C88	C	1.751333	0.308163	-0.133144
C89	C	1.876685	0.275753	-0.100149
C90	C	1.889367	0.308145	-0.061145
C91	C	1.776700	0.372940	-0.055137
C92	C	1.247112	0.372937	0.277660
C93	C	1.247112	0.308142	0.342475
C94	C	1.178116	0.275734	0.338892
C95	C	1.109104	0.308131	0.270489
C96	C	1.109097	0.372929	0.205676
C97	C	1.776699	0.372942	0.170057
C98	C	1.889394	0.308147	0.228849
C99	C	1.876762	0.275736	0.301611
C100	C	1.751424	0.308129	0.315581
C101	C	1.638731	0.372927	0.256789
C102	C	0.579476	0.982091	-0.295930
C103	C	0.466781	1.046906	-0.354723
C104	C	0.479413	1.079321	-0.427485
C105	C	0.604751	1.046923	-0.441454
C106	C	0.717444	0.982114	-0.382662
C107	C	0.717509	0.982077	0.001251
C108	C	0.604842	1.046887	0.007246
C109	C	0.479490	1.079299	-0.025752
C110	C	0.466808	1.046904	-0.064753
C111	C	0.579475	0.982099	-0.070751
C112	C	1.247076	0.982085	-0.331531
C113	C	1.247097	1.046880	-0.396335
C114	C	1.178099	1.079292	-0.464743
C115	C	1.109087	1.046898	-0.468349
C116	C	1.109075	0.982099	-0.403547
H117	H	1.355140	-0.146136	0.029407
Br118	Br	0.948046	0.070432	-0.183004
H119	H	0.697323	0.677511	-0.136281
H120	H	1.052911	0.399293	0.149988
H121	H	1.303315	0.281772	0.398165
H122	H	0.615193	1.073252	0.039007
Br123	Br	0.887523	0.938153	-0.401635
Br124	Br	0.628217	0.677497	0.042497
H125	H	1.052929	0.281735	0.267582
Br126	Br	1.178138	0.187793	0.426860
Br127	Br	1.015397	0.938159	-0.408454
H128	H	0.387641	1.132092	-0.475350
Br129	Br	0.562236	0.938142	-0.123675
H130	H	1.787047	0.399301	-0.023373
Br131	Br	1.408125	0.131882	0.057101
H132	H	1.052862	0.821513	-0.406456
H133	H	1.052911	1.073297	-0.524056
Br134	Br	1.015426	0.864592	-0.561141
Br135	Br	0.887615	0.938107	0.046038
H136	H	0.364736	1.073273	-0.343335
H137	H	1.052898	0.821495	-0.732554
H138	H	1.052908	0.821489	-0.850106
H139	H	1.787010	0.399322	0.110815
H140	H	1.001023	0.501156	-0.155266
H141	H	1.991443	0.281748	-0.034282
Br142	Br	1.340760	0.490422	-0.717457
Br143	Br	1.734091	0.264214	-0.186078
H144	H	1.303298	0.399317	0.280592
Br145	Br	1.468652	0.416869	0.275762
Br146	Br	1.340727	0.938113	-0.238699
Br147	Br	0.326597	1.167249	-0.017603
H148	H	1.741157	0.281730	0.374831
H149	H	1.991440	0.281779	0.217462
Br150	Br	0.296678	1.090899	-0.109529
H151	H	1.178119	1.132055	-0.517504
Br152	Br	1.468560	0.416927	-0.171920
Br153	Br	2.029716	0.187794	0.381393
Br154	Br	1.340713	0.490424	-0.564729
H155	H	1.303292	1.073249	-0.393384
H156	H	1.303281	0.533531	-0.393324
Br157	Br	0.621873	1.090922	-0.540208
Br158	Br	0.948059	0.396507	-0.182945
Br159	Br	0.562295	0.938111	-0.197188
Br160	Br	1.408133	0.284597	0.057129
Br161	Br	1.340753	0.490446	-0.238626
H162	H	1.355152	-0.028604	0.029426
Br163	Br	0.948056	0.223142	-0.182972
Br164	Br	2.029578	0.187815	-0.108309
