data_functionalizedCrystal
_audit_creation_method	'MofGen! by Chris Wilmer'
_symmetry_space_group_name_H-M	'P1'
_symmetry_Int_Tables_number	1
_symmetry_cell_setting	triclinic
loop_
_symmetry_equiv_pos_as_xyz
  x,y,z
_cell_length_a	6.817900
_cell_length_b	9.514072
_cell_length_c	16.255661
_cell_angle_alpha	91.323020
_cell_angle_beta	103.488922
_cell_angle_gamma	118.843421
loop_
_atom_site_label
_atom_site_type_symbol
_atom_site_fract_x
_atom_site_fract_y
_atom_site_fract_z
V1	V	-4.111881	-0.223505	-0.264538
O2	O	-4.010606	0.009405	-0.258820
O3	O	-4.146651	-0.441889	-0.263385
O4	O	-4.062356	-0.220653	-0.379613
O5	O	-4.095485	-0.213362	-0.141788
V6	V	-4.584878	-0.195577	-0.249776
O7	O	-4.396230	-0.284767	-0.296919
O8	O	-4.750727	-0.134315	-0.217395
O9	O	-4.326902	0.022807	-0.250929
O10	O	-4.803550	-0.428487	-0.255494
O11	O	-4.718672	-0.205720	-0.372527
O12	O	-4.411196	-0.198429	-0.134702
C13	C	-4.011921	-0.495108	-0.259381
C14	C	-4.121629	-0.673643	-0.259205
C15	C	-3.904393	-0.212897	-0.407640
C16	C	-3.945735	-0.212010	-0.501719
C17	C	-3.852254	-0.201415	-0.724506
C18	C	-4.060779	-0.338160	-0.794390
C19	C	-4.021486	-0.210347	-0.673962
C20	C	-3.886655	-0.072037	-0.771711
C21	C	-4.094639	-0.208733	-0.840341
C22	C	-4.229538	-0.347214	-0.742617
C23	C	-4.055307	-0.080971	-0.719922
C24	C	-4.263983	-0.217754	-0.789787
C25	C	-3.979340	-0.211278	-0.578116
C26	C	-4.136807	-0.207815	-0.936187
C27	C	-4.124977	0.076017	-0.254931
C28	C	-3.994508	0.254551	-0.255112
C29	C	-4.232504	-0.206190	-0.106670
C30	C	-4.170397	-0.207069	-0.012590
H31	H	-4.314425	-0.748769	-0.262605
O32	O	-3.644467	-0.193666	-0.690558
C33	C	-3.647827	-0.329565	-0.728882
H34	H	-3.835994	-0.432095	-0.755726
H35	H	-3.561353	-0.294620	-0.783039
C36	C	-3.283015	-0.260786	-0.628354
C37	C	-3.514125	-0.386721	-0.661318
H38	H	-3.200533	-0.296040	-0.586679
H39	H	-3.280745	-0.169225	-0.602536
H40	H	-3.210985	-0.231678	-0.673492
H41	H	-3.586159	-0.415813	-0.616182
H42	H	-3.516404	-0.478289	-0.687127
O43	O	-4.063826	-0.467696	-0.833147
C44	C	-3.887252	-0.412180	-0.875365
H45	H	-3.840788	-0.284864	-0.889740
H46	H	-3.726153	-0.408805	-0.832580
C47	C	-4.031822	-0.684451	-0.942203
C48	C	-3.974768	-0.528084	-0.959865
H49	H	-4.085799	-0.755948	-0.994325
H50	H	-4.150779	-0.721855	-0.913758
H51	H	-3.897561	-0.681615	-0.906548
H52	H	-4.109035	-0.530918	-0.995511
H53	H	-3.855835	-0.490683	-0.988319
O54	O	-4.401752	-0.486215	-0.726936
C55	C	-4.303963	-0.572883	-0.682058
H56	H	-4.128665	-0.535432	-0.694378
H57	H	-4.277662	-0.544483	-0.610499
C58	C	-4.684775	-0.802509	-0.697925
C59	C	-4.469480	-0.756520	-0.713063
H60	H	-4.786875	-0.915785	-0.717047
H61	H	-4.750660	-0.744118	-0.728158
H62	H	-4.662826	-0.778829	-0.638293
H63	H	-4.491428	-0.780181	-0.772695
H64	H	-4.403603	-0.814920	-0.682841
O65	O	-4.051927	0.048629	-0.681085
C66	C	-4.014709	0.045091	-0.592305
H67	H	-4.070727	-0.084551	-0.580016
H68	H	-3.821758	0.127810	-0.557979
C69	C	-4.090230	0.263838	-0.573389
C70	C	-4.159050	0.104607	-0.558297
H71	H	-4.179256	0.300557	-0.552410
H72	H	-4.115296	0.266227	-0.633201
H73	H	-3.929436	0.332751	-0.544783
H74	H	-4.319833	0.035694	-0.586911
H75	H	-4.134014	0.102207	-0.498488
H76	H	-3.801719	-0.670327	-0.251700
O77	O	-3.714351	0.066591	-0.787647
C78	C	-3.757207	0.066240	-0.876821
H79	H	-3.873567	-0.064173	-0.911811
H80	H	-3.847896	0.139190	-0.896711
C81	C	-3.381416	0.303657	-0.857122
C82	C	-3.524315	0.143479	-0.900097
H83	H	-3.237759	0.351308	-0.871480
H84	H	-3.352545	0.303898	-0.797043
H85	H	-3.457018	0.364428	-0.873701
H86	H	-3.448726	0.082707	-0.883509
H87	H	-3.553168	0.143230	-0.960173
H88	H	-4.438502	-0.224699	-0.818154
