data_functionalizedCrystal
_audit_creation_method	'MofGen! by Chris Wilmer'
_symmetry_space_group_name_H-M	'P1'
_symmetry_Int_Tables_number	1
_symmetry_cell_setting	triclinic
loop_
_symmetry_equiv_pos_as_xyz
  x,y,z
_cell_length_a	15.944551
_cell_length_b	11.026607
_cell_length_c	9.482900
_cell_angle_alpha	101.363848
_cell_angle_beta	99.334197
_cell_angle_gamma	83.957623
loop_
_atom_site_label
_atom_site_type_symbol
_atom_site_fract_x
_atom_site_fract_y
_atom_site_fract_z
O1	O	0.341447	-1.629108	-0.120915
O2	O	0.674780	-1.295774	0.212419
O3	O	1.008113	-0.962441	0.545752
O4	O	0.301394	-1.275798	-0.120914
O5	O	0.634727	-0.942465	0.212419
O6	O	0.968061	-0.609132	0.545752
O7	O	0.200605	-1.462099	-0.120901
O8	O	0.533938	-1.128766	0.212432
O9	O	0.867272	-0.795432	0.545765
O10	O	0.442235	-1.442807	-0.120927
O11	O	0.775569	-1.109474	0.212406
O12	O	1.108902	-0.776140	0.545739
O13	O	0.221183	-1.424257	0.120889
O14	O	0.554516	-1.090924	0.454222
O15	O	0.887849	-0.757591	0.787555
O16	O	0.321972	-1.237956	0.120876
O17	O	0.655305	-0.904623	0.454209
O18	O	0.988638	-0.571290	0.787542
O19	O	0.362024	-1.591266	0.120875
O20	O	0.695357	-1.257933	0.454209
O21	O	1.028691	-0.924599	0.787542
Cu22	Cu	0.343877	-1.411156	0.142953
Cu23	Cu	0.677210	-1.077823	0.476286
Cu24	Cu	1.010543	-0.744489	0.809620
Cu25	Cu	0.319541	-1.455908	-0.142992
Cu26	Cu	0.652875	-1.122575	0.190342
Cu27	Cu	0.986208	-0.789242	0.523675
O28	O	0.462813	-1.404965	0.120862
O29	O	0.796146	-1.071632	0.454196
O30	O	1.129480	-0.738298	0.787529
C31	C	0.179479	-1.442377	-0.000006
C32	C	0.512812	-1.109044	0.333327
C33	C	0.846145	-0.775710	0.666661
C34	C	0.085870	-1.439975	-0.000005
C35	C	0.419203	-1.106642	0.333328
C36	C	0.752536	-0.773309	0.666661
C37	C	0.304294	-1.211666	-0.000019
C38	C	0.637627	-0.878333	0.333314
C39	C	0.970961	-0.544999	0.666648
C40	C	0.282267	-1.076950	-0.000019
C41	C	0.615600	-0.743617	0.333315
C42	C	0.948934	-0.410283	0.666648
N43	N	0.360994	-1.379688	0.344071
N44	N	0.694327	-1.046355	0.677404
N45	N	1.027661	-0.713022	1.010737
C46	C	-0.147313	-1.318759	-0.000025
C47	C	0.186020	-0.985426	0.333308
C48	C	0.519354	-0.652092	0.666641
C49	C	-0.189675	-1.356391	0.119192
C50	C	0.143658	-1.023058	0.452525
C51	C	0.476992	-0.689724	0.785858
C52	C	-0.085514	-1.435632	-0.000016
C53	C	0.247820	-1.102299	0.333317
C54	C	0.581153	-0.768966	0.666650
C55	C	-0.209942	-1.393728	-0.119194
C56	C	0.123391	-1.060394	0.214139
C57	C	0.456724	-0.727061	0.547473
C58	C	-0.251064	-1.431430	-0.000034
C59	C	0.082270	-1.098096	0.333300
C60	C	0.415603	-0.764763	0.666633
C61	C	-0.126634	-1.473281	0.119299
C62	C	0.206699	-1.139948	0.452632
C63	C	0.540032	-0.806614	0.785966
C64	C	-0.146907	-1.510618	-0.119194
C65	C	0.186427	-1.177285	0.214139
C66	C	0.519760	-0.843952	0.547473
C67	C	-0.189236	-1.548331	0.000052
C68	C	0.144097	-1.214997	0.333385
C69	C	0.477431	-0.881664	0.666719
C70	C	0.009855	-1.438050	-0.000005
C71	C	0.343188	-1.104717	0.333328
C72	C	0.676522	-0.771383	0.666661
C73	C	-0.346429	-1.429020	-0.000034
C74	C	-0.013096	-1.095686	0.333299
C75	C	0.320237	-0.762353	0.666632
C76	C	0.483939	-1.424688	-0.000036
C77	C	0.817272	-1.091354	0.333297
C78	C	1.150606	-0.758021	0.666631
C79	C	0.577547	-1.427091	-0.000046
C80	C	0.910881	-1.093758	0.333287
C81	C	1.244214	-0.760424	0.666620
C82	C	0.359124	-1.655399	-0.000023
C83	C	0.692457	-1.322066	0.333310
C84	C	1.025791	-0.988732	0.666644
C85	C	0.381150	-1.790116	-0.000033
C86	C	0.714483	-1.456783	0.333300
C87	C	1.047817	-1.123450	0.666634
C88	C	0.343086	-1.003151	-0.000026
C89	C	0.676420	-0.669817	0.333307
C90	C	1.009753	-0.336484	0.666641
C91	C	0.320322	-0.863914	-0.000026
C92	C	0.653655	-0.530581	0.333308
C93	C	0.986989	-0.197248	0.666641
N94	N	0.302419	-1.487386	-0.344110
N95	N	0.635752	-1.154052	-0.010776
N96	N	0.969086	-0.820719	0.322557
C97	C	0.324584	-1.446618	0.416275
C98	C	0.657918	-1.113285	0.749608
C99	C	0.991251	-0.779952	1.082941
C100	C	0.338834	-1.420446	0.583690
C101	C	0.672167	-1.087112	0.917024
C102	C	1.005501	-0.753779	1.250357
H103	H	-0.128660	-1.221729	0.000094
H104	H	0.204673	-0.888395	0.333427
H105	H	0.538006	-0.555062	0.666761
Br106	Br	-0.270187	-1.337590	-0.287166
Br107	Br	0.063147	-1.004256	0.046167
Br108	Br	0.396480	-0.670923	0.379501
Br109	Br	-0.221347	-1.247713	0.287183
Br110	Br	0.111987	-0.914380	0.620517
Br111	Br	0.445320	-0.581046	0.953850
Br112	Br	0.430526	-1.251873	0.447603
Br113	Br	0.763859	-0.918539	0.780936
Br114	Br	1.097192	-0.585206	1.114270
H115	H	-0.090590	-1.506881	0.220198
H116	H	0.242743	-1.173548	0.553531
H117	H	0.576076	-0.840215	0.886865
Br118	Br	0.408368	-1.292625	0.687217
Br119	Br	0.741702	-0.959292	1.020550
Br120	Br	1.075035	-0.625958	1.353884
H121	H	-0.207711	-1.645417	0.000119
H122	H	0.125622	-1.312083	0.333453
H123	H	0.458956	-0.978750	0.666786
H124	H	0.213341	-1.037058	-0.000048
H125	H	0.546675	-0.703724	0.333285
H126	H	0.880008	-0.370391	0.666618
Br127	Br	0.496038	-0.856588	-0.000018
Br128	Br	0.829371	-0.523255	0.333315
Br129	Br	1.162704	-0.189921	0.666649
Br130	Br	0.233116	-1.615482	0.552368
Br131	Br	0.566449	-1.282149	0.885702
Br132	Br	0.899783	-0.948816	1.219035
H133	H	0.282860	-1.523292	0.354152
H134	H	0.616193	-1.189959	0.687485
H135	H	0.949526	-0.856626	1.020819
H136	H	-0.127888	-1.575784	-0.219988
H137	H	0.205445	-1.242451	0.113346
H138	H	0.538778	-0.909117	0.446679
Br139	Br	0.457967	-1.069634	-0.000029
Br140	Br	0.791300	-0.736301	0.333304
Br141	Br	1.124633	-0.402968	0.666638
H142	H	0.251392	-0.824028	-0.000055
H143	H	0.584725	-0.490694	0.333278
H144	H	0.918058	-0.157361	0.666611
