data_functionalizedCrystal
_audit_creation_method	'MofGen! by Chris Wilmer'
_symmetry_space_group_name_H-M	'P1'
_symmetry_Int_Tables_number	1
_symmetry_cell_setting	triclinic
loop_
_symmetry_equiv_pos_as_xyz
  x,y,z
_cell_length_a	13.339071
_cell_length_b	10.723024
_cell_length_c	9.198806
_cell_angle_alpha	90.002012
_cell_angle_beta	90.004424
_cell_angle_gamma	100.048571
loop_
_atom_site_label
_atom_site_type_symbol
_atom_site_fract_x
_atom_site_fract_y
_atom_site_fract_z
O1	O	-1.346634	-0.627072	-0.120925
O2	O	-1.051536	-0.544764	-0.120920
O3	O	-1.205892	-0.406627	-0.120917
O4	O	-1.192278	-0.765209	-0.120928
O5	O	-1.205879	-0.406622	0.120868
O6	O	-1.051523	-0.544760	0.120865
O7	O	-1.346621	-0.627067	0.120860
Cu8	Cu	-1.199071	-0.585913	0.142939
Cu9	Cu	-1.199086	-0.585919	-0.142999
O10	O	-1.192265	-0.765205	0.120857
C11	C	-1.013744	-0.530859	-0.000027
C12	C	-0.901154	-0.489416	-0.000024
C13	C	-0.859559	-0.360180	-0.000015
C14	C	-0.753776	-0.321239	-0.000020
C15	C	-0.689578	-0.411530	-0.000023
C16	C	-0.731173	-0.540769	-0.000022
C17	C	-0.836966	-0.579714	-0.000029
C18	C	-0.666984	-0.631063	-0.000037
C19	C	-0.708579	-0.760302	-0.000036
C20	C	-0.814362	-0.799240	-0.000042
C21	C	-0.878561	-0.708950	-0.000038
C22	C	-0.561191	-0.592118	-0.000030
C23	C	-0.538598	-0.811651	-0.000044
C24	C	-0.644380	-0.850592	-0.000039
C25	C	-0.384413	-0.640973	-0.000033
C26	C	-0.497003	-0.682415	-0.000034
C27	C	-1.204895	-0.359792	-0.000026
C28	C	-1.201931	-0.220243	-0.000032
C29	C	-1.193262	-0.812039	-0.000037
C30	C	-1.196226	-0.951588	-0.000041
N31	N	-1.199068	-0.585911	0.344053
C32	C	-1.288300	-0.174254	-0.000035
C33	C	-1.285239	-0.030023	-0.000040
N34	N	-1.199097	-0.585914	-0.344113
C35	C	-1.263878	-0.527559	0.416251
C36	C	-1.263894	-0.527560	0.583664
H37	H	-0.603445	-0.379816	-0.000026
H38	H	-1.125720	-0.152838	-0.000040
H39	H	-0.719918	-0.216014	-0.000022
F40	F	-1.387917	-0.262351	-0.000046
F41	F	-0.927888	-0.264102	-0.000020
H42	H	-1.319349	-0.477595	0.354126
H43	H	-1.319384	-0.477609	0.645751
H44	H	-1.143611	-0.635879	0.593809
F45	F	-1.126552	-0.651204	0.425252
H46	H	-0.527336	-0.486892	-0.000031
F47	F	-0.858627	-0.936788	-0.000065
F48	F	-0.991150	-0.750389	-0.000154
H49	H	-1.122283	0.008808	-0.000028
F50	F	-0.688661	-0.988135	-0.000043
H51	H	-1.359178	0.009590	-0.000037
F52	F	-0.470278	-0.907753	-0.000053
