data_functionalizedCrystal
_audit_creation_method	'MofGen! by Chris Wilmer'
_symmetry_space_group_name_H-M	'P1'
_symmetry_Int_Tables_number	1
_symmetry_cell_setting	triclinic
loop_
_symmetry_equiv_pos_as_xyz
  x,y,z
_cell_length_a	18.101398
_cell_length_b	18.101397
_cell_length_c	18.101389
_cell_angle_alpha	90.021047
_cell_angle_beta	90.024327
_cell_angle_gamma	90.015732
loop_
_atom_site_label
_atom_site_type_symbol
_atom_site_fract_x
_atom_site_fract_y
_atom_site_fract_z
Zn1	Zn	1.132176	-0.295001	0.418825
Zn2	Zn	1.632176	0.204999	0.918825
Zn3	Zn	1.132095	-0.418826	0.294978
Zn4	Zn	1.632095	0.081174	0.794978
Zn5	Zn	1.008335	-0.294993	0.294986
Zn6	Zn	1.508335	0.205007	0.794986
Zn7	Zn	1.008308	-0.418795	0.418767
Zn8	Zn	1.508308	0.081205	0.918767
O9	O	1.070228	-0.356904	0.356889
O10	O	1.570228	0.143096	0.856889
O11	O	1.235798	-0.311443	0.402418
O12	O	1.735798	0.188557	0.902418
O13	O	1.115655	-0.402410	0.191346
O14	O	1.615655	0.097590	0.691346
O15	O	1.024807	-0.191361	0.311442
O16	O	1.524807	0.308639	0.811442
O17	O	1.235738	-0.402417	0.311428
O18	O	1.735738	0.097583	0.811428
O19	O	1.115793	-0.191367	0.402426
O20	O	1.615793	0.308633	0.902426
O21	O	1.024729	-0.311430	0.191352
O22	O	1.524729	0.188570	0.691352
O23	O	0.904698	-0.311399	0.311385
O24	O	1.404698	0.188601	0.811385
O25	O	1.024763	-0.402363	0.522407
O26	O	1.524763	0.097637	1.022407
O27	O	0.904679	-0.402356	0.402326
O28	O	1.404679	0.097644	0.902326
O29	O	1.115767	-0.311412	0.522450
O30	O	1.615767	0.188588	1.022450
O31	O	1.115629	-0.522455	0.311371
O32	O	1.615629	-0.022455	0.811371
O33	O	1.024684	-0.522432	0.402318
O34	O	1.524684	-0.022432	0.902318
C35	C	0.877818	-0.356874	0.356850
C36	C	1.377818	0.143126	0.856850
C37	C	0.795504	-0.356879	0.356851
C38	C	1.295504	0.143121	0.856851
C39	C	1.070165	-0.549314	0.356853
C40	C	1.570165	-0.049314	0.856853
C41	C	1.070206	-0.631628	0.356863
C42	C	1.570206	-0.131628	0.856863
C43	C	0.496413	-0.356925	0.356914
C44	C	0.996413	0.143075	0.856914
C45	C	0.527725	-0.299411	0.299975
C46	C	1.027725	0.200589	0.799975
C47	C	0.613344	-0.299566	0.299732
C48	C	1.113344	0.200434	0.799732
C49	C	0.644795	-0.356901	0.356883
C50	C	1.144795	0.143099	0.856883
C51	C	0.613692	-0.434909	0.335555
C52	C	1.113692	0.065091	0.835555
C53	C	0.528046	-0.434590	0.335159
C54	C	1.028046	0.065410	0.835159
C55	C	0.528024	-0.337109	0.435314
C56	C	1.028024	0.162891	0.935314
C57	C	0.613674	-0.335371	0.434886
C58	C	1.113674	0.164629	0.934886
C59	C	0.728655	-0.356893	0.356867
C60	C	1.228655	0.143107	0.856867
C61	C	0.412553	-0.356939	0.356928
C62	C	0.912553	0.143061	0.856928
C63	C	1.070300	-0.930719	0.356930
C64	C	1.570300	-0.430719	0.856930
C65	C	1.127361	-0.899378	0.299555
C66	C	1.627361	-0.399378	0.799555
C67	C	1.127559	-0.813759	0.299704
C68	C	1.627559	-0.313759	0.799704
C69	C	1.070253	-0.782337	0.356896
C70	C	1.570253	-0.282337	0.856896
C71	C	1.091409	-0.813359	0.434959
C72	C	1.591409	-0.313359	0.934959
C73	C	1.091851	-0.899004	0.434646
C74	C	1.591851	-0.399004	0.934646
C75	C	0.991931	-0.899218	0.336918
C76	C	1.491931	-0.399218	0.836918
C77	C	0.992318	-0.813569	0.335175
C78	C	1.492318	-0.313569	0.835175
C79	C	1.070226	-0.698477	0.356881
C80	C	1.570226	-0.198477	0.856881
C81	C	1.070330	-1.014579	0.356950
C82	C	1.570330	-0.514579	0.856950
C83	C	1.263390	-0.356934	0.356928
C84	C	1.763390	0.143066	0.856928
C85	C	1.345704	-0.356948	0.356945
C86	C	1.845704	0.143052	0.856945
C87	C	1.070271	-0.356885	0.550051
C88	C	1.570271	0.143115	1.050051
C89	C	1.070289	-0.356877	0.632365
C90	C	1.570289	0.143123	1.132365
C91	C	1.070312	-0.163742	0.356941
C92	C	1.570312	0.336258	0.856941
C93	C	1.070348	-0.081428	0.356964
C94	C	1.570348	0.418572	0.856964
C95	C	1.070228	-0.356869	0.164479
C96	C	1.570228	0.143131	0.664479
C97	C	1.070354	-0.356668	0.082165
C98	C	1.570354	0.143332	0.582165
C99	C	1.070333	-0.356738	0.931456
C100	C	1.570333	0.143262	1.431456
C101	C	1.012878	-0.413780	0.900104
C102	C	1.512878	0.086220	1.400104
C103	C	1.013033	-0.414045	0.814486
C104	C	1.513033	0.085955	1.314486
C105	C	1.070310	-0.356807	0.783074
C106	C	1.570310	0.143193	1.283074
C107	C	1.148340	-0.377998	0.814178
C108	C	1.648340	0.122002	1.314178
C109	C	1.148020	-0.378372	0.899823
C110	C	1.648020	0.121628	1.399823
C111	C	1.050437	-0.278379	0.899884
C112	C	1.550437	0.221621	1.399884
C113	C	1.048701	-0.278832	0.814233
C114	C	1.548701	0.221168	1.314233
C115	C	1.070303	-0.356845	0.699214
C116	C	1.570303	0.143155	1.199214
C117	C	1.070345	-0.356702	1.015316
C118	C	1.570345	0.143298	1.515316
H119	H	0.634373	-0.241719	0.313102
H120	H	1.134373	0.258281	0.813102
F121	F	0.937017	-0.396622	0.927005
F122	F	1.437017	0.103378	1.427005
F123	F	1.099411	-0.220332	0.786294
F124	F	1.599411	0.279668	1.286294
H125	H	1.149135	-0.918930	0.451597
H126	H	1.649135	-0.418930	0.951597
H127	H	0.635110	-0.452008	0.278859
H128	H	1.135110	0.047992	0.778859
F129	F	0.971463	-0.787072	0.260089
F130	F	1.471463	-0.287072	0.760089
F131	F	0.973641	-0.257946	0.787667
F132	F	1.473641	0.242054	1.287667
F133	F	0.500970	-0.492498	0.386996
F134	F	1.000970	0.007502	0.886996
F135	F	0.933758	-0.785621	0.385795
F136	F	1.433758	-0.285621	0.885795
H137	H	1.165496	-0.434671	0.792734
H138	H	1.665496	0.065329	1.292734
F139	F	1.039881	-0.926103	0.492421
F140	F	1.539881	-0.426103	0.992421
F141	F	0.641657	-0.386137	0.493310
F142	F	1.141657	0.113863	0.993310
H143	H	1.185095	-0.920853	0.312645
H144	H	1.685095	-0.420853	0.812645
F145	F	0.936361	-0.925713	0.391536
F146	F	1.436361	-0.425713	0.891536
H147	H	0.955171	-0.400783	0.793454
H148	H	1.455171	0.099217	1.293454
F149	F	0.640312	-0.492420	0.388067
F150	F	1.140312	0.007580	0.888067
H151	H	0.506441	-0.281216	0.454705
H152	H	1.006441	0.218784	0.954705
F153	F	1.203435	-0.786913	0.317015
F154	F	1.703435	-0.286913	0.817015
H155	H	1.051120	-0.793003	0.478857
H156	H	1.551120	-0.293003	0.978857
H157	H	1.025884	-0.471508	0.921627
H158	H	1.525884	0.028492	1.421627
F159	F	1.105134	-0.222829	0.926388
F160	F	1.605134	0.277171	1.426388
H161	H	0.634008	-0.277966	0.450968
H162	H	1.134008	0.222034	0.950968
F163	F	0.501557	-0.391861	0.490766
F164	F	1.001557	0.108139	0.990766
H165	H	1.192280	-0.338629	0.920566
H166	H	1.692280	0.161371	1.420566
F167	F	0.966774	-0.927516	0.263805
F168	F	1.466774	-0.427516	0.763805
F169	F	0.500825	-0.223569	0.317256
F170	F	1.000825	0.276431	0.817256
H171	H	1.114323	-0.792787	0.241822
H172	H	1.614323	-0.292787	0.741822
F173	F	1.165446	-0.785259	0.457491
F174	F	1.665446	-0.285259	0.957491
H175	H	1.114285	-0.920010	0.241500
H176	H	1.614285	-0.420010	0.741500
H177	H	1.026170	-0.472127	0.794001
H178	H	1.526170	0.027873	1.294001
F179	F	1.170062	-0.453243	0.925942
F180	F	1.670062	0.046757	1.425942
F181	F	1.205799	-0.325401	0.787590
F182	F	1.705799	0.174599	1.287590
F183	F	0.977356	-0.253146	0.928097
F184	F	1.477356	0.246854	1.428097
H185	H	0.506178	-0.312363	0.242220
H186	H	1.006178	0.187637	0.742220
H187	H	0.508038	-0.451397	0.277844
H188	H	1.008038	0.048603	0.777844
F189	F	0.640084	-0.316684	0.223799
F190	F	1.140084	0.183316	0.723799
