data_functionalizedCrystal
_audit_creation_method	'MofGen! by Chris Wilmer'
_symmetry_space_group_name_H-M	'P1'
_symmetry_Int_Tables_number	1
_symmetry_cell_setting	triclinic
loop_
_symmetry_equiv_pos_as_xyz
  x,y,z
_cell_length_a	15.698487
_cell_length_b	17.052862
_cell_length_c	17.052832
_cell_angle_alpha	77.972775
_cell_angle_beta	67.550917
_cell_angle_gamma	109.734559
loop_
_atom_site_label
_atom_site_type_symbol
_atom_site_fract_x
_atom_site_fract_y
_atom_site_fract_z
Zr1	Zr	0.949904	-0.053448	0.764990
O2	O	1.084555	0.077975	0.657115
O3	O	0.785393	-0.093734	0.798060
O4	O	0.916924	0.047207	0.819818
O5	O	0.989453	-0.174146	0.618193
O6	O	0.924876	0.022934	0.948160
O7	O	0.953024	-0.062966	0.635357
O8	O	0.689592	-0.229184	0.909239
O9	O	1.224737	0.077973	0.657115
O10	O	0.870053	-0.129033	0.907943
O11	O	0.891305	-0.193890	0.799354
O12	O	1.046165	-0.027950	0.824971
O13	O	1.067417	-0.092808	0.716382
Zr14	Zr	1.020686	-0.269479	0.942307
Zr15	Zr	0.962587	-0.092160	0.969681
Zr16	Zr	1.008004	-0.230767	0.737616
Zr17	Zr	1.173479	-0.053452	0.764989
Zr18	Zr	0.797112	-0.269475	0.942308
O19	O	1.185197	-0.229193	0.909237
O20	O	1.102588	0.022931	0.948160
O21	O	1.167164	-0.174149	0.618192
O22	O	0.886036	-0.400902	1.050181
O23	O	0.803426	-0.148778	1.089104
O24	O	0.868003	-0.345858	0.759137
O25	O	0.981138	-0.148781	1.089103
O26	O	1.053667	-0.370134	0.887479
O27	O	1.045715	-0.345861	0.759136
O28	O	1.017567	-0.259961	1.071940
O29	O	1.234818	0.047201	0.819817
O30	O	0.735773	-0.370128	0.887480
O31	O	0.745854	-0.400899	1.050182
O32	O	0.699673	-0.259955	1.071941
O33	O	1.270918	-0.062972	0.635356
O34	O	1.280999	-0.093743	0.798058
O35	O	0.924426	-0.294977	0.882325
O36	O	0.903174	-0.230119	0.990915
O37	O	1.079286	-0.129037	0.907943
O38	O	1.100538	-0.193894	0.799353
C39	C	0.705638	-0.161458	0.853649
C40	C	0.610725	-0.161457	0.853650
C41	C	0.912622	0.060335	0.887889
C42	C	0.887957	0.135611	0.899511
C43	C	1.057969	-0.383262	0.819407
C44	C	1.082634	-0.458538	0.807786
C45	C	0.436947	-0.161471	0.853645
C46	C	0.533650	-0.161465	0.853645
C47	C	1.264953	-0.161468	0.853647
C48	C	1.359866	-0.161470	0.853647
C49	C	0.969431	-0.113040	0.597611
C50	C	0.964047	-0.096606	0.510714
C51	C	1.186154	0.558866	0.759012
C52	C	1.209331	0.488143	0.748088
C53	C	1.128990	0.400007	0.785943
C54	C	1.025467	0.382600	0.834723
C55	C	1.002288	0.453332	0.845642
C56	C	0.945123	0.294473	0.872573
C57	C	0.841601	0.277066	0.921354
C58	C	0.818426	0.347791	0.932271
C59	C	0.898767	0.435927	0.894416
C60	C	0.968303	0.223741	0.861654
C61	C	0.784437	0.118207	0.948285
C62	C	0.761260	0.188930	0.959209
C63	C	1.029140	-0.295296	0.227950
C64	C	1.034193	-0.310742	0.309597
C65	C	1.016657	-0.257210	0.359880
C66	C	0.994067	-0.188228	0.328509
C67	C	0.989006	-0.172785	0.246858
C68	C	0.976523	-0.134699	0.378788
C69	C	0.953933	-0.065717	0.347417
C70	C	0.948874	-0.050277	0.265773
C71	C	0.966410	-0.103810	0.215490
C72	C	0.981584	-0.150141	0.460439
C73	C	0.941451	-0.027631	0.479347
C74	C	0.936398	-0.012185	0.397700
C75	C	1.001159	-0.209886	1.109686
C76	C	1.006543	-0.226321	1.196582
C77	C	0.721502	-0.209881	1.109687
C78	C	0.631973	-0.226314	1.196584
C79	C	0.778311	-0.383257	0.819408
C80	C	0.708063	-0.458531	0.807787
C81	C	0.794175	-0.431680	1.075446
C82	C	0.729311	-0.523389	1.150722
C83	C	1.176415	0.108753	0.631851
C84	C	1.241280	0.200462	0.556575
C85	C	1.249089	-0.113045	0.597610
C86	C	1.338618	-0.096613	0.510713
C87	C	1.192279	0.060330	0.887888
C88	C	1.262528	0.135605	0.899509
C89	C	0.572638	-0.181258	1.194083
C90	C	0.488522	-0.196680	1.275726
C91	C	0.463739	-0.257164	1.359870
C92	C	0.523083	-0.302221	1.362369
C93	C	0.607201	-0.286794	1.280727
C94	C	0.692365	-0.546655	0.845639
C95	C	0.626373	-0.617389	0.834716
C96	C	0.576076	-0.600000	0.785946
C97	C	0.591779	-0.511867	0.748089
C98	C	0.657776	-0.441133	0.759007
C99	C	0.687757	-0.532603	1.242763
C100	C	0.626821	-0.618768	1.313502
C101	C	0.607434	-0.695718	1.292197
C102	C	0.648995	-0.686500	1.200146
C103	C	0.709936	-0.600336	1.129409
C104	C	1.282844	0.209676	0.464533
C105	C	1.343808	0.295841	0.393795
C106	C	1.363200	0.372791	0.415100
C107	C	1.321633	0.363573	0.507151
C108	C	1.260676	0.277409	0.577887
C109	C	1.397960	-0.141662	0.513215
C110	C	1.482093	-0.126220	0.431574
C111	C	1.506879	-0.065734	0.347432
C112	C	1.447532	-0.020680	0.344932
C113	C	1.363404	-0.036117	0.426572
C114	C	1.312806	0.118187	0.948285
C115	C	1.378804	0.188905	0.959221
C116	C	1.394527	0.277041	0.921376
C117	C	1.344239	0.294458	0.872598
C118	C	1.278238	0.223739	0.861668
H119	H	1.052592	0.237923	0.821935
O120	O	0.741267	-0.563408	0.893019
C121	C	0.802912	-0.482085	0.894528
H122	H	0.771760	-0.431722	0.883366
H123	H	0.800245	-0.496034	0.963996
H124	H	0.886575	-0.452740	0.837446
H125	H	0.613597	-0.689145	0.865548
O126	O	0.381958	-0.272076	1.439082
C127	C	0.334923	-0.219317	1.418822
H128	H	0.353774	-0.201815	1.343956
H129	H	0.247149	-0.259052	1.465765
H130	H	0.365809	-0.154424	1.430362
H131	H	0.918005	0.043980	0.372148
O132	O	0.924297	0.024240	0.528325
C133	C	0.838664	-0.031158	0.617262
H134	H	0.827731	-0.103366	0.635000
H135	H	0.853370	-0.004819	0.669424
H136	H	0.765648	-0.030086	0.619278
O137	O	1.588605	-0.050881	0.268210
C138	C	1.635673	-0.103604	0.288475
H139	H	1.577122	-0.163646	0.356774
H140	H	1.662557	-0.129116	0.231459
H141	H	1.705400	-0.060685	0.293579
H142	H	1.267058	0.147030	0.447169
O143	O	0.498828	-0.360979	1.444181
C144	C	0.411871	-0.364911	1.515696
H145	H	0.365695	-0.342927	1.486319
H146	H	0.360476	-0.437098	1.569355
H147	H	0.439124	-0.317889	1.549244
H148	H	1.251556	0.630629	0.728191
H149	H	1.300018	0.046427	0.979105
O150	O	0.586424	-0.627870	1.402962
C151	C	0.528468	-0.720417	1.460839
H152	H	0.556488	-0.761293	1.421791
H153	H	0.539383	-0.731521	1.523905
H154	H	0.442670	-0.743273	1.483621
H155	H	1.315089	0.000568	0.424522
H156	H	1.357052	0.366228	0.841788
O157	O	1.471725	0.038012	0.263109
C158	C	1.558716	0.041980	0.191600
H159	H	1.565201	-0.022535	0.214411
H160	H	1.549214	0.048912	0.127867
H161	H	1.632076	0.102770	0.174696
H162	H	0.734130	0.333614	0.971984
H163	H	1.377642	0.303329	0.318849
H164	H	1.043408	-0.338881	0.187009
H165	H	0.557810	-0.765873	1.349804
H166	H	1.419744	0.174707	0.998938
H167	H	1.377789	-0.190920	0.581720
H168	H	0.655505	-0.323491	1.282775
H169	H	0.719016	0.046443	0.979106
O170	O	1.003724	-0.217044	0.490782
C171	C	1.102029	-0.200406	0.423912
H172	H	1.149935	-0.125282	0.378238
H173	H	1.143786	-0.221511	0.459498
H174	H	1.091859	-0.240971	0.379927
O175	O	0.511963	-0.668827	0.775467
C176	C	0.508919	-0.750330	0.819321
H177	H	0.531453	-0.744077	0.874689
H178	H	0.427017	-0.807984	0.852317
H179	H	0.565823	-0.764833	0.766421
O180	O	1.229525	0.240831	0.814215
C181	C	1.257547	0.333785	0.783178
H182	H	1.334959	0.373358	0.779123
H183	H	1.265207	0.357396	0.712065
H184	H	1.195135	0.345766	0.833247
H185	H	0.550818	-0.497721	0.708380
H186	H	0.879903	0.493520	0.903310
H187	H	1.337430	0.426236	0.524487
O188	O	0.673184	-0.355492	0.722126
C189	C	0.779541	-0.298690	0.658683
H190	H	0.817862	-0.341051	0.633008
H191	H	0.788209	-0.246964	0.597956
H192	H	0.818553	-0.262124	0.693781
O193	O	0.706433	-0.457956	1.263632
C194	C	0.656616	-0.484584	1.360044
H195	H	0.643341	-0.555897	1.393848
H196	H	0.707522	-0.435954	1.379267
H197	H	0.578703	-0.483433	1.384978
H198	H	1.448273	0.334617	0.930282
O199	O	0.630192	-0.761322	1.179577
C200	C	0.668998	-0.813179	1.217086
H201	H	0.674724	-0.796668	1.276878
H202	H	0.614317	-0.888102	1.242860
H203	H	0.749329	-0.796701	1.161851
O204	O	1.151623	0.331398	0.775173
C205	C	1.205601	0.349398	0.680591
H206	H	1.244533	0.425203	0.639190
H207	H	1.267239	0.325167	0.667101
H208	H	1.148680	0.312382	0.658999
H209	H	0.962300	-0.091233	0.149005
H210	H	0.930469	0.005885	0.240237
H211	H	1.226832	0.269917	0.652831
H212	H	1.530403	-0.162915	0.433627
H213	H	1.293619	0.502322	0.708371
O214	O	1.021652	-0.272305	0.439150
C215	C	1.045325	-0.344682	0.456069
H216	H	1.085697	-0.352148	0.388622
H217	H	1.098892	-0.330635	0.487048
H218	H	0.970530	-0.409787	0.506217
O219	O	1.056178	-0.377765	0.339924
C220	C	1.070537	-0.421722	0.278054
H221	H	1.092996	-0.374427	0.207577
H222	H	1.134978	-0.440943	0.271977
H223	H	0.995250	-0.485339	0.304577
H224	H	0.440212	-0.159985	1.273674
H225	H	1.412836	0.442946	0.357493
H226	H	0.676971	0.174769	0.998925
H227	H	0.592811	-0.131997	1.125578
H228	H	0.743761	-0.592846	1.054466
