data_functionalizedCrystal
_audit_creation_method	'MofGen! by Chris Wilmer'
_symmetry_space_group_name_H-M	'P1'
_symmetry_Int_Tables_number	1
_symmetry_cell_setting	triclinic
loop_
_symmetry_equiv_pos_as_xyz
  x,y,z
_cell_length_a	13.339070
_cell_length_b	12.837943
_cell_length_c	11.892083
_cell_angle_alpha	85.686224
_cell_angle_beta	85.051828
_cell_angle_gamma	74.770883
loop_
_atom_site_label
_atom_site_type_symbol
_atom_site_fract_x
_atom_site_fract_y
_atom_site_fract_z
O1	O	0.264497	-1.458160	0.093975
O2	O	0.764497	-0.958160	0.593975
O3	O	0.251135	-1.152511	0.093982
O4	O	0.751135	-0.652511	0.593982
O5	O	0.107171	-1.270257	0.093976
O6	O	0.607171	-0.770257	0.593976
O7	O	0.408461	-1.340414	0.093981
O8	O	0.908461	-0.840414	0.593981
O9	O	0.119145	-1.260421	-0.094032
O10	O	0.619145	-0.760421	0.405968
O11	O	0.263109	-1.142676	-0.094025
O12	O	0.763109	-0.642676	0.405975
O13	O	0.276471	-1.448324	-0.094033
O14	O	0.776471	-0.948324	0.405967
Zn15	Zn	0.271691	-1.293938	-0.123879
Zn16	Zn	0.771691	-0.793938	0.376121
Zn17	Zn	0.255915	-1.306897	0.123828
Zn18	Zn	0.755915	-0.806897	0.623828
O19	O	0.420435	-1.330579	-0.094026
O20	O	0.920435	-0.830579	0.405974
C21	C	0.252608	-1.107675	-0.000021
C22	C	0.752608	-0.607675	0.499979
C23	C	0.239146	-0.988726	-0.000018
C24	C	0.739146	-0.488726	0.499982
C25	C	0.074327	-1.253488	-0.000026
C26	C	0.574327	-0.753488	0.499974
C27	C	-0.041381	-1.218164	-0.000021
C28	C	0.458619	-0.718164	0.499979
N29	N	0.282459	-1.285102	-0.292933
N30	N	0.782459	-0.785102	0.207067
C31	C	-0.379696	-1.492830	-0.000028
C32	C	0.120304	-0.992830	0.499972
C33	C	-0.270983	-1.526022	-0.000039
C34	C	0.229017	-1.026022	0.499961
C35	C	-0.213577	-1.449060	-0.000034
C36	C	0.286423	-0.949060	0.499966
C37	C	-0.264895	-1.338901	-0.000018
C38	C	0.235105	-0.838901	0.499982
C39	C	-0.373618	-1.305705	-0.000016
C40	C	0.126382	-0.805705	0.499984
C41	C	-0.207499	-1.261935	-0.000022
C42	C	0.292501	-0.761935	0.499978
C43	C	-0.258817	-1.151776	-0.000007
C44	C	0.241183	-0.651776	0.499993
C45	C	-0.367530	-1.118585	-0.000003
C46	C	0.132470	-0.618585	0.499997
C47	C	-0.424936	-1.195547	-0.000008
C48	C	0.075064	-0.695547	0.499992
C49	C	-0.098776	-1.295131	-0.000025
C50	C	0.401224	-0.795131	0.499975
C51	C	-0.092698	-1.108006	-0.000013
C52	C	0.407302	-0.608006	0.499987
C53	C	-0.201411	-1.074814	-0.000002
C54	C	0.298589	-0.574814	0.499998
C55	C	0.453280	-1.347347	-0.000022
C56	C	0.953280	-0.847347	0.499978
C57	C	0.568986	-1.382672	-0.000020
C58	C	1.068986	-0.882672	0.499980
C59	C	0.274998	-1.493161	-0.000027
C60	C	0.774998	-0.993161	0.499973
C61	C	0.288460	-1.612110	-0.000023
C62	C	0.788460	-1.112110	0.499977
C63	C	0.400986	-0.794315	-0.000032
C64	C	0.900986	-0.294315	0.499968
C65	C	0.388342	-0.682553	-0.000030
C66	C	0.888342	-0.182553	0.499970
C67	C	0.201215	-0.653436	-0.000021
C68	C	0.701215	-0.153436	0.499979
C69	C	0.213859	-0.765199	-0.000023
C70	C	0.713859	-0.265199	0.499977
C71	C	0.313748	-0.835635	-0.000026
C72	C	0.813748	-0.335635	0.499974
C73	C	0.326390	-0.947400	-0.000020
C74	C	0.826390	-0.447400	0.499980
C75	C	0.139265	-0.918281	-0.000019
C76	C	0.639265	-0.418281	0.499981
C77	C	0.126621	-0.806519	-0.000017
C78	C	0.626621	-0.306519	0.499983
C79	C	0.357496	-1.223710	-0.470468
C80	C	0.857496	-0.723710	0.029532
C81	C	0.349952	-1.229863	-0.352126
C82	C	0.849952	-0.729863	0.147874
C83	C	0.222503	-1.334190	-0.352090
C84	C	0.722503	-0.834190	0.147910
C85	C	0.230047	-1.328037	-0.470432
C86	C	0.730047	-0.828037	0.029568
C87	C	0.297547	-1.272797	-0.529617
C88	C	0.797547	-0.772797	-0.029617
C89	C	0.305096	-1.266652	-0.647961
C90	C	0.805096	-0.766652	-0.147961
C91	C	0.177642	-1.370972	-0.647922
C92	C	0.677642	-0.870972	-0.147922
C93	C	0.170098	-1.377124	-0.529581
C94	C	0.670098	-0.877124	-0.029581
N95	N	0.245140	-1.315739	0.292882
N96	N	0.745140	-0.815739	0.792882
H97	H	-0.057004	-1.384823	-0.000038
H98	H	0.442996	-0.884823	0.499962
H99	H	0.167539	-1.379156	-0.303886
H100	H	0.667539	-0.879156	0.196114
H101	H	0.482319	-0.851666	-0.000033
H102	H	0.982319	-0.351666	0.499967
F103	F	0.046413	-0.962264	0.000001
F104	F	0.546413	-0.462264	0.500001
H105	H	0.119896	-0.596064	-0.000111
H106	H	0.619896	-0.096064	0.499889
F107	F	0.413755	-1.177615	-0.289180
F108	F	0.913755	-0.677615	0.210820
F109	F	0.113843	-1.423222	-0.710884
F110	F	0.613843	-0.923222	-0.210884
H111	H	-0.125058	-1.476092	-0.000044
H112	H	0.374942	-0.976092	0.499956
H113	H	0.045295	-0.749154	-0.000027
H114	H	0.545295	-0.249154	0.499973
F115	F	0.376937	-1.207865	-0.710947
F116	F	0.876937	-0.707865	-0.210947
H117	H	0.115138	-1.422096	-0.481379
H118	H	0.615138	-0.922096	0.018621
H119	H	-0.045958	-1.045336	-0.000015
H120	H	0.454042	-0.545336	0.499985
H121	H	-0.229208	-1.615714	-0.000053
H122	H	0.270792	-1.115714	0.499947
H123	H	-0.426445	-1.555480	-0.000041
H124	H	0.073555	-1.055480	0.499959
F125	F	-0.540649	-1.160231	0.000110
F126	F	-0.040649	-0.660231	0.500110
H127	H	-0.409309	-1.028886	0.000001
H128	H	0.090691	-0.528886	0.500001
F129	F	0.432699	-1.022362	-0.000020
F130	F	0.932699	-0.522362	0.499980
H131	H	0.412464	-1.178741	-0.518657
H132	H	0.912464	-0.678741	-0.018657
H133	H	-0.243210	-0.985120	0.000010
H134	H	0.256790	-0.485120	0.500010
F135	F	0.481193	-0.638582	-0.000039
F136	F	0.981193	-0.138582	0.499961
