data_functionalizedCrystal
_audit_creation_method	'MofGen! by Chris Wilmer'
_symmetry_space_group_name_H-M	'P1'
_symmetry_Int_Tables_number	1
_symmetry_cell_setting	triclinic
loop_
_symmetry_equiv_pos_as_xyz
  x,y,z
_cell_length_a	20.919320
_cell_length_b	18.426585
_cell_length_c	18.426585
_cell_angle_alpha	90.000127
_cell_angle_beta	122.543347
_cell_angle_gamma	117.395194
loop_
_atom_site_label
_atom_site_type_symbol
_atom_site_fract_x
_atom_site_fract_y
_atom_site_fract_z
Zr1	Zr	-0.700525	0.730357	-0.125896
O2	O	-0.834029	0.620437	-0.247609
O3	O	-0.567015	0.759924	-0.084534
O4	O	-0.700522	0.765881	-0.241773
O5	O	-0.700527	0.614479	0.029056
O6	O	-0.700527	0.885307	-0.241776
O7	O	-0.700522	0.614480	-0.090370
O8	O	-0.461707	0.874651	0.039495
O9	O	-0.939346	0.625135	-0.252215
O10	O	-0.621936	0.866649	-0.071789
O11	O	-0.621936	0.777522	0.017339
O12	O	-0.779123	0.784536	-0.167789
O13	O	-0.779123	0.695408	-0.078660
Zr14	Zr	-0.700540	0.920826	0.064570
Zr15	Zr	-0.700532	0.920828	-0.125901
Zr16	Zr	-0.700532	0.730355	0.064575
Zr17	Zr	-0.868494	0.737849	-0.133243
Zr18	Zr	-0.532571	0.913334	0.071917
O19	O	-0.834049	0.891259	0.023208
O20	O	-0.834039	0.891262	-0.247616
O21	O	-0.834039	0.620434	0.023215
O22	O	-0.567036	1.030746	0.186283
O23	O	-0.567026	1.030749	-0.084541
O24	O	-0.567026	0.759921	0.186290
O25	O	-0.700538	1.036704	-0.090382
O26	O	-0.700543	0.885302	0.180447
O27	O	-0.700538	0.765876	0.180450
O28	O	-0.700543	1.036702	0.029044
O29	O	-0.939352	0.776533	-0.252220
O30	O	-0.461713	0.874649	0.190894
O31	O	-0.461719	1.026048	0.190889
O32	O	-0.461713	1.026050	0.039491
O33	O	-0.939352	0.625133	-0.100817
O34	O	-0.939358	0.776531	-0.100821
O35	O	-0.621942	0.866647	0.106463
O36	O	-0.621942	0.955775	0.017334
O37	O	-0.779129	0.873661	-0.078665
O38	O	-0.779129	0.784533	0.010463
C39	C	-0.490429	0.816220	-0.021473
C40	C	-0.419122	0.813040	-0.018354
C41	C	-0.015536	0.793015	0.001977
C42	C	-0.082581	0.795959	-0.001010
C43	C	-0.116105	0.843950	-0.049034
C44	C	-0.082575	0.889007	-0.094066
C45	C	-0.015526	0.886067	-0.091073
C46	C	-0.318543	0.855157	-0.060393
C47	C	-0.385598	0.858091	-0.063385
C48	C	-0.385599	0.765044	0.029673
C49	C	-0.318553	0.762105	0.032657
C50	C	-0.285025	0.807165	-0.012371
C51	C	-0.184638	0.846958	-0.052091
C52	C	-0.216489	0.804161	-0.009308
C53	C	-0.700524	0.587341	-0.030657
C54	C	-0.700521	0.506482	-0.030654
C55	C	0.089347	0.834943	-0.039874
C56	C	0.017988	0.838066	-0.043054
C57	C	-0.700548	0.210368	-0.030671
C58	C	-0.700544	0.292754	-0.030669
C59	C	-0.700534	0.358422	-0.030664
C60	C	-0.700530	0.440813	-0.030660
C61	C	-0.700524	0.825594	-0.268912
C62	C	-0.700521	0.825595	-0.349772
C63	C	-0.700541	1.063841	-0.030669
C64	C	-0.700544	1.144701	-0.030672
C65	C	-0.700517	0.825596	-0.415438
C66	C	-0.700521	0.825596	-0.497824
C67	C	-0.700531	0.825592	-0.563494
C68	C	-0.700535	0.825591	-0.645885
C69	C	-0.700541	0.825588	0.207586
C70	C	-0.700544	0.825587	0.288446
C71	C	-0.490438	1.054470	-0.021479
C72	C	-0.419134	1.132150	-0.018362
C73	C	-0.490438	0.816217	0.216777
C74	C	-0.419134	0.813036	0.300755
C75	C	-0.490447	1.054467	0.216770
C76	C	-0.419146	1.132145	0.300747
C77	C	-0.910618	0.596716	-0.278096
C78	C	-0.981919	0.519037	-0.362073
C79	C	-0.910627	0.596712	-0.039847
C80	C	-0.981931	0.519033	-0.042964
C81	C	-0.910627	0.834966	-0.278103
C82	C	-0.981931	0.838147	-0.362081
C83	C	-0.385646	1.122106	-0.063428
C84	C	-0.318657	1.195087	-0.060518
C85	C	-0.285154	1.278111	-0.012535
C86	C	-0.318649	1.288153	0.032532
C87	C	-0.385641	1.215173	0.029615
C88	C	-0.385653	0.858064	0.386722
C89	C	-0.318664	0.855072	0.465636
C90	C	-0.285154	0.807056	0.458581
C91	C	-0.318643	0.762022	0.372605
C92	C	-0.385634	0.765010	0.293693
C93	C	-0.385663	1.215156	0.293659
C94	C	-0.318677	1.288150	0.372556
C95	C	-0.285172	1.278133	0.458540
C96	C	-0.318662	1.195114	0.465626
C97	C	-0.385651	1.122121	0.386730
C98	C	-1.015410	0.436027	-0.354985
C99	C	-1.082417	0.363034	-0.433883
C100	C	-1.115926	0.373051	-0.519868
C101	C	-1.082431	0.456070	-0.526953
C102	C	-1.015430	0.529062	-0.448056
C103	C	-1.015426	0.529077	0.002094
C104	C	-1.082433	0.456096	-0.000839
C105	C	-1.115939	0.373073	-0.048823
C106	C	-1.082440	0.363031	-0.093887
C107	C	-1.015439	0.436011	-0.090959
C108	C	-1.015419	0.886171	-0.354997
C109	C	-1.082408	0.889178	-0.433896
C110	C	-1.115911	0.844154	-0.519879
C111	C	-1.082416	0.796128	-0.526961
C112	C	-1.015424	0.793127	-0.448063
H113	H	-0.412891	0.897174	-0.102495
H114	H	-0.291406	0.891747	0.535633
H115	H	-0.412923	1.054511	-0.102512
H116	H	-0.988162	0.596650	-0.453838
Cl117	Cl	-0.427727	1.227814	0.086284
Cl118	Cl	-0.973332	0.423369	-0.147603
H119	H	-1.170461	0.846604	-0.584116
H120	H	-0.109870	0.928087	-0.133164
Cl121	Cl	-1.124567	0.258652	-0.154203
H122	H	-0.291416	1.355741	0.366770
Cl123	Cl	-0.276517	1.392532	0.092853
H124	H	-0.988151	0.596672	0.041174
Cl125	Cl	-0.973314	0.942782	-0.246914
H126	H	-0.412933	1.223329	0.223653
H127	H	-1.170495	0.313655	-0.051200
Cl128	Cl	-0.200954	1.369905	0.557717
H129	H	-1.109696	0.464290	0.035861
H130	H	-1.109677	0.295443	-0.428096
H131	H	-1.109722	0.464216	-0.596971
H132	H	-1.109673	0.928284	-0.428112
Cl133	Cl	0.026626	0.942714	-0.147678
Cl134	Cl	-1.200154	0.281280	-0.619045
Cl135	Cl	-1.124553	0.739522	-0.635062
H136	H	0.011750	0.753930	0.041078
Cl137	Cl	-0.276530	1.182535	0.573728
Cl138	Cl	-0.973340	0.732739	-0.456985
Cl139	Cl	-0.427731	1.017768	0.395656
Cl140	Cl	-0.174338	0.743838	0.051070
Cl141	Cl	-0.427748	0.708405	0.086282
H142	H	-0.988131	0.427854	-0.284979
H143	H	-0.109869	0.759278	0.035665
H144	H	-0.291252	0.891846	-0.097059
Cl145	Cl	-0.226794	0.907281	-0.112469
Cl146	Cl	-0.276559	1.182443	-0.117174
Cl147	Cl	-0.276414	0.701770	0.093033
H148	H	-0.230604	1.337529	-0.010167
H149	H	-0.412929	0.897164	0.392484
H150	H	-0.230605	0.804630	0.522844
H151	H	-0.291349	0.722928	0.366874
H152	H	-0.412886	0.728344	0.223698
