data_functionalizedCrystal
_audit_creation_method	'MofGen! by Chris Wilmer'
_symmetry_space_group_name_H-M	'P1'
_symmetry_Int_Tables_number	1
_symmetry_cell_setting	triclinic
loop_
_symmetry_equiv_pos_as_xyz
  x,y,z
_cell_length_a	19.077236
_cell_length_b	16.625545
_cell_length_c	19.077174
_cell_angle_alpha	92.273408
_cell_angle_beta	85.294282
_cell_angle_gamma	92.318364
loop_
_atom_site_label
_atom_site_type_symbol
_atom_site_fract_x
_atom_site_fract_y
_atom_site_fract_z
Zn1	Zn	1.093734	-0.291123	-0.441975
Zn2	Zn	1.088917	-0.420758	-0.324088
Zn3	Zn	0.971115	-0.291135	-0.319358
Zn4	Zn	0.975807	-0.431113	-0.437192
O5	O	1.032393	-0.358532	-0.380653
O6	O	1.191748	-0.303980	-0.430318
O7	O	1.069311	-0.399234	-0.224810
O8	O	0.987433	-0.178300	-0.335646
O9	O	1.188209	-0.399222	-0.343707
O10	O	1.077521	-0.178291	-0.425732
O11	O	0.982762	-0.304001	-0.221335
O12	O	0.873085	-0.314043	-0.331008
O13	O	0.995430	-0.416872	-0.536477
O14	O	0.876532	-0.416884	-0.417580
O15	O	1.082070	-0.314022	-0.539991
O16	O	1.073860	-0.534965	-0.339069
O17	O	0.990759	-0.542573	-0.422166
C18	C	0.849229	-0.366589	-0.373262
C19	C	0.770871	-0.370056	-0.370117
C20	C	0.735904	-0.322182	-0.413802
C21	C	0.662278	-0.325436	-0.410841
C22	C	0.623620	-0.376567	-0.364198
C23	C	0.658592	-0.424443	-0.320508
C24	C	0.732216	-0.421185	-0.323466
C25	C	0.403228	-0.391616	-0.350504
C26	C	0.329599	-0.394872	-0.347550
C27	C	0.333290	-0.295863	-0.437883
C28	C	0.406916	-0.292613	-0.440840
C29	C	0.441881	-0.340486	-0.397148
N30	N	0.548363	-0.379896	-0.361171
N31	N	0.517137	-0.337152	-0.400171
C32	C	1.032316	-0.568026	-0.380628
C33	C	1.032348	-0.657646	-0.380643
C34	C	1.032376	-0.730428	-0.380658
C35	C	1.032418	-0.821735	-0.380676
C36	C	1.032455	-0.894510	-0.380686
C37	C	1.032496	-0.985823	-0.380702
C38	C	1.216273	-0.350445	-0.388074
C39	C	1.294632	-0.346998	-0.391236
C40	C	1.039811	-0.366601	-0.564528
C41	C	1.042972	-0.370039	-0.642884
C42	C	1.032491	-0.148221	-0.380695
C43	C	1.032533	-0.058599	-0.380713
C44	C	0.999398	-0.322073	-0.677887
C45	C	1.002365	-0.325310	-0.751511
C46	C	1.048910	-0.376510	-0.790132
C47	C	1.092486	-0.424482	-0.755124
C48	C	1.089515	-0.421248	-0.681501
C49	C	1.062625	-0.391502	-1.010515
C50	C	1.065595	-0.394731	-1.084143
C51	C	0.975472	-0.295559	-1.080524
C52	C	0.972508	-0.292326	-1.006900
C53	C	1.016081	-0.340301	-0.971899
N54	N	1.051946	-0.379819	-0.865387
N55	N	1.013042	-0.336997	-0.896645
C56	C	1.025045	-0.350435	-0.197496
C57	C	1.022021	-0.346764	-0.119145
H58	H	0.304813	-0.256887	-0.473454
C59	C	1.110597	-0.444230	-0.972024
N60	N	1.146746	-0.483930	-0.943032
C61	C	0.770679	-0.473852	-0.275410
N62	N	0.799648	-0.513521	-0.239212
C63	C	0.778421	-0.265932	-0.465114
N64	N	0.810442	-0.223559	-0.503760
H65	H	0.627111	-0.466072	-0.282526
C66	C	0.623818	-0.272773	-0.458901
N67	N	0.594851	-0.233105	-0.495102
H68	H	0.298125	-0.436514	-0.309567
C69	C	0.954437	-0.272534	-0.790010
N70	N	0.918337	-0.232778	-0.819008
C71	C	0.921303	-0.236004	-0.964423
N72	N	0.882736	-0.193580	-0.932429
H73	H	0.961499	-0.280375	-0.646447
C74	C	1.143527	-0.480992	-0.797603
N75	N	1.181916	-0.523623	-0.829594
C76	C	1.137453	-0.474012	-0.642999
N77	N	1.173561	-0.513755	-0.614000
C78	C	0.927541	-0.242796	-1.119032
N79	N	0.891434	-0.203055	-1.148035
H80	H	0.431688	-0.430598	-0.314927
H81	H	0.438386	-0.250979	-0.478825
C82	C	1.116798	-0.451060	-1.126624
N83	N	1.155363	-0.493486	-1.158621
