data_functionalizedCrystal
_audit_creation_method	'MofGen! by Chris Wilmer'
_symmetry_space_group_name_H-M	'P1'
_symmetry_Int_Tables_number	1
_symmetry_cell_setting	triclinic
loop_
_symmetry_equiv_pos_as_xyz
  x,y,z
_cell_length_a	27.731993
_cell_length_b	10.654550
_cell_length_c	9.730223
_cell_angle_alpha	90.001139
_cell_angle_beta	89.991245
_cell_angle_gamma	96.447352
loop_
_atom_site_label
_atom_site_type_symbol
_atom_site_fract_x
_atom_site_fract_y
_atom_site_fract_z
O1	O	0.641872	-0.149081	0.113917
O2	O	0.501217	-0.171872	0.114000
O3	O	0.574778	0.022400	0.113952
O4	O	0.568311	-0.343354	0.113966
O5	O	0.574774	0.022389	-0.114628
O6	O	0.501212	-0.171883	-0.114580
O7	O	0.641867	-0.149092	-0.114663
Zn8	Zn	0.571539	-0.160489	-0.150913
Zn9	Zn	0.571545	-0.160475	0.150251
O10	O	0.568306	-0.343364	-0.114614
C11	C	0.483204	-0.171410	-0.000279
C12	C	0.429539	-0.170001	-0.000247
C13	C	0.046318	-0.159784	0.124285
C14	C	0.248009	-0.165154	0.124322
O15	O	0.274088	-0.165792	0.230291
N16	N	0.273231	-0.165831	-0.000274
C17	C	0.248027	-0.165158	-0.124888
O18	O	0.274108	-0.165845	-0.230864
C19	C	0.046338	-0.159780	-0.124924
C20	C	0.021118	-0.159115	-0.000320
C21	C	0.021098	-0.159118	0.248879
C22	C	-0.029322	-0.157782	0.248868
C23	C	-0.054522	-0.157113	0.124263
C24	C	-0.029302	-0.157779	-0.000331
C25	C	0.021135	-0.159098	-0.249537
C26	C	-0.029290	-0.157750	-0.249535
C27	C	-0.054510	-0.157085	-0.124931
C28	C	-0.104923	-0.155775	-0.124946
N29	N	-0.130144	-0.155097	-0.000350
C30	C	-0.104944	-0.155766	0.124255
C31	C	0.353917	-0.167985	-0.124861
C32	C	0.404339	-0.169332	-0.124852
C33	C	0.404317	-0.169325	0.124359
C34	C	0.353894	-0.167987	0.124349
C35	C	0.328695	-0.167307	-0.000265
C36	C	-0.210830	-0.152963	0.124223
C37	C	-0.261255	-0.151632	0.124201
C38	C	-0.261228	-0.151633	-0.125009
C39	C	-0.210808	-0.152970	-0.124988
C40	C	-0.185610	-0.153631	-0.000361
O41	O	-0.131032	-0.155121	-0.230860
O42	O	-0.131033	-0.155051	0.230215
C43	C	0.096738	-0.161119	0.124295
C44	C	0.121958	-0.161786	-0.000299
C45	C	0.096758	-0.161117	-0.124904
C46	C	0.172380	-0.163133	-0.000290
C47	C	0.197580	-0.163802	0.124315
C48	C	0.172358	-0.163124	0.248911
C49	C	0.121938	-0.161789	0.248900
C50	C	0.121979	-0.161794	-0.249500
C51	C	0.172399	-0.163131	-0.249479
C52	C	0.197600	-0.163800	-0.124874
C53	C	0.574301	0.069173	-0.000336
C54	C	0.572880	0.208555	-0.000331
C55	C	0.659880	-0.149555	-0.000381
C56	C	0.713545	-0.150963	-0.000403
C57	C	0.568783	-0.390137	-0.000323
C58	C	0.570204	-0.529519	-0.000320
N59	N	0.571538	-0.160498	-0.356450
C60	C	0.616192	0.289884	-0.000361
C61	C	0.614854	0.420848	-0.000350
C62	C	0.526889	0.389142	-0.000286
C63	C	0.528227	0.258180	-0.000287
C64	C	0.666978	0.308190	-0.000404
C65	C	0.665641	0.439154	-0.000393
C66	C	0.601106	-0.236115	-0.428404
C67	C	0.601114	-0.236091	-0.572287
C68	C	0.541980	-0.084831	-0.572248
C69	C	0.541976	-0.084849	-0.428368
C70	C	0.635245	-0.323448	-0.428428
C71	C	0.635252	-0.323424	-0.572311
N72	N	0.571550	-0.160456	0.355787
H73	H	0.192885	-0.163676	0.350368
H74	H	0.684774	0.481724	-0.096063
H75	H	0.517904	-0.023261	-0.369788
H76	H	-0.049805	-0.157207	-0.351013
C77	C	0.614693	-0.452080	-0.368147
N78	N	0.599214	-0.548967	-0.322743
H79	H	0.671656	-0.282398	-0.616936
C80	C	0.688824	0.260977	-0.133749
N81	N	0.705277	0.225415	-0.234187
C82	C	-0.288993	-0.150891	0.261281
N83	N	-0.309884	-0.150328	0.364528
C84	C	-0.183120	-0.153697	0.261319
N85	N	-0.162249	-0.154259	0.364580
C86	C	-0.057056	-0.157024	0.385944
N87	N	-0.077942	-0.156442	0.489197
C88	C	0.619168	-0.457894	-0.625090
N89	N	0.607053	-0.559172	-0.664844
H90	H	0.492958	0.191966	-0.000243
C91	C	0.048810	-0.159851	0.385966
N92	N	0.069680	-0.160412	0.489230
H93	H	0.424843	-0.169873	0.225817
H94	H	0.192929	-0.163683	-0.350954
H95	H	0.680991	0.485455	0.098292
C96	C	0.326157	-0.167242	0.261422
N97	N	0.305269	-0.166675	0.364671
C98	C	0.432074	-0.170077	-0.261926
N99	N	0.452963	-0.170630	-0.365176
C100	C	0.509461	-0.001629	-0.651372
N101	N	0.484965	0.061038	-0.710967
C102	C	-0.183066	-0.153711	-0.262058
N103	N	-0.162173	-0.154256	-0.365302
H104	H	0.101467	-0.161243	-0.350970
H105	H	0.673365	-0.290969	-0.389386
H106	H	0.101408	-0.161247	0.350366
C107	C	0.326203	-0.167264	-0.261954
N108	N	0.305331	-0.166734	-0.365215
C109	C	0.477773	0.443742	-0.000253
N110	N	0.440777	0.484866	-0.000235
H111	H	-0.281756	-0.151093	-0.226459
C112	C	0.693814	0.269669	0.128806
N113	N	0.714025	0.240655	0.226127
H114	H	0.041661	-0.159635	-0.351004
