data_functionalizedCrystal
_audit_creation_method	'MofGen! by Chris Wilmer'
_symmetry_space_group_name_H-M	'P1'
_symmetry_Int_Tables_number	1
_symmetry_cell_setting	triclinic
loop_
_symmetry_equiv_pos_as_xyz
  x,y,z
_cell_length_a	14.628931
_cell_length_b	18.426585
_cell_length_c	18.426585
_cell_angle_alpha	90.000127
_cell_angle_beta	60.001519
_cell_angle_gamma	60.001356
loop_
_atom_site_label
_atom_site_type_symbol
_atom_site_fract_x
_atom_site_fract_y
_atom_site_fract_z
Zr1	Zr	1.000611	0.699113	-0.095254
O2	O	1.191304	0.583239	-0.211128
O3	O	0.809909	0.734635	-0.059733
O4	O	1.000606	0.734637	-0.211131
O5	O	1.000613	0.583235	0.059697
O6	O	1.000613	0.854063	-0.211134
O7	O	1.000606	0.583236	-0.059729
O8	O	0.659490	0.854059	0.059690
O9	O	1.341736	0.583239	-0.211128
O10	O	0.888355	0.838911	-0.044585
O11	O	0.888355	0.749783	0.044543
O12	O	1.112877	0.749786	-0.133710
O13	O	1.112877	0.660659	-0.044581
Zr14	Zr	1.000631	0.889581	0.095211
Zr15	Zr	1.000621	0.889584	-0.095259
Zr16	Zr	1.000621	0.699110	0.095216
Zr17	Zr	1.240532	0.699114	-0.095254
Zr18	Zr	0.760709	0.889581	0.095212
O19	O	1.191333	0.854059	0.059690
O20	O	1.191318	0.854063	-0.211135
O21	O	1.191318	0.583235	0.059697
O22	O	0.809938	1.005455	0.211085
O23	O	0.809923	1.005459	-0.059739
O24	O	0.809923	0.734631	0.211092
O25	O	1.000629	1.005460	-0.059740
O26	O	1.000635	0.854057	0.211089
O27	O	1.000629	0.734631	0.211092
O28	O	1.000635	1.005458	0.059686
O29	O	1.341744	0.734638	-0.211132
O30	O	0.659498	0.854057	0.211089
O31	O	0.659506	1.005455	0.211085
O32	O	0.659498	1.005457	0.059687
O33	O	1.341744	0.583237	-0.059729
O34	O	1.341752	0.734635	-0.059733
O35	O	0.888365	0.838908	0.133667
O36	O	0.888365	0.928036	0.044538
O37	O	1.112886	0.838911	-0.044586
O38	O	1.112886	0.749783	0.044543
C39	C	0.700516	0.794347	-0.000021
C40	C	0.598663	0.794347	-0.000021
C41	C	0.447988	0.750134	0.044192
C42	C	0.553259	0.750133	0.044193
C43	C	1.000608	0.556098	-0.000015
C44	C	1.000604	0.475238	-0.000013
C45	C	1.000643	0.179123	-0.000029
C46	C	1.000637	0.261509	-0.000027
C47	C	1.000623	0.327178	-0.000022
C48	C	1.000618	0.409569	-0.000018
C49	C	1.300726	0.794347	-0.000022
C50	C	1.402579	0.794348	-0.000022
C51	C	1.000608	0.794351	-0.238271
C52	C	1.000604	0.794352	-0.319131
C53	C	1.000634	1.032597	-0.000027
C54	C	1.000638	1.113456	-0.000029
C55	C	1.000599	0.794352	-0.384797
C56	C	1.000604	0.794352	-0.467183
C57	C	1.000618	0.794348	-0.532852
C58	C	1.000624	0.794346	-0.615243
C59	C	1.000634	0.794344	0.238228
C60	C	1.000638	0.794342	0.319088
C61	C	0.700528	1.032596	-0.000027
C62	C	0.598680	1.113456	-0.000029
C63	C	0.700528	0.794343	0.238229
C64	C	0.598680	0.794342	0.319088
C65	C	0.700541	1.032593	0.238222
C66	C	0.598697	1.113451	0.319080
C67	C	1.300701	0.556101	-0.238265
C68	C	1.402545	0.475243	-0.319123
C69	C	1.300713	0.556098	-0.000016
C70	C	1.402562	0.475238	-0.000014
C71	C	1.300713	0.794351	-0.238271
C72	C	1.402562	0.794352	-0.319131
C73	C	0.550845	1.104906	-0.046560
C74	C	0.455161	1.180875	-0.046579
C75	C	0.407306	1.265393	-0.000063
C76	C	0.455150	1.273941	0.046470
C77	C	0.550839	1.197973	0.046483
C78	C	0.550855	0.840864	0.403591
C79	C	0.455171	0.840859	0.479574
C80	C	0.407306	0.794337	0.471054
C81	C	0.455140	0.747810	0.386543
C82	C	0.550829	0.747810	0.310561
C83	C	0.550870	1.197955	0.310528
C84	C	0.455189	1.273937	0.386495
C85	C	0.407331	1.265414	0.471014
C86	C	0.455168	1.180901	0.479565
C87	C	0.550853	1.104921	0.403598
C88	C	1.450384	0.390739	-0.310571
C89	C	1.546094	0.314757	-0.386538
C90	C	1.593957	0.323280	-0.471057
C91	C	1.546114	0.407793	-0.479607
C92	C	1.450412	0.483773	-0.403641
C93	C	1.450406	0.483788	0.046509
C94	C	1.546117	0.407819	0.046508
C95	C	1.593975	0.323301	-0.000012
C96	C	1.546127	0.314753	-0.046540
C97	C	1.450425	0.390721	-0.046544
C98	C	1.450396	0.840883	-0.310582
C99	C	1.546081	0.840902	-0.386551
C100	C	1.593937	0.794384	-0.471068
C101	C	1.546093	0.747852	-0.479616
C102	C	1.450403	0.747839	-0.403648
H103	H	0.592315	0.712277	0.082042
H104	H	1.671883	0.261405	-0.532906
F105	F	1.399482	0.890397	-0.220639
H106	H	1.411419	0.383783	-0.241758
F107	F	1.399501	0.573706	-0.412757
H108	H	0.416154	0.709933	0.379618
F109	F	0.601711	0.698297	0.220629
F110	F	0.547636	0.843821	-0.049507
F111	F	1.695782	0.794404	-0.551914
F112	F	0.601762	1.014963	-0.096075
F113	F	1.399492	0.573731	0.096023
H114	H	0.589782	1.036117	0.410574
F115	F	1.597064	0.416850	-0.569566
H116	H	0.589773	1.204947	0.084379
H117	H	0.329418	1.327289	0.532863
F118	F	0.601792	1.207046	0.220584
F119	F	0.453620	0.843830	-0.049494
F120	F	1.597045	0.698341	-0.569573
F121	F	0.404256	1.171759	-0.096104
H122	H	1.585031	0.245951	-0.379558
F123	F	0.305463	1.346238	-0.000084
F124	F	0.404221	1.171844	0.569523
F125	F	0.404203	1.363898	0.095975
H126	H	1.585059	0.414796	0.084400
H127	H	1.671902	0.261450	-0.000002
H128	H	1.585108	0.245929	-0.084415
F129	F	0.404277	0.890384	0.569509
F130	F	1.596989	0.890425	-0.377436
H131	H	1.411473	0.383748	-0.084425
H132	H	0.589816	0.878747	0.410546
H133	H	1.411467	0.709944	-0.410621
F134	F	0.305464	0.794346	0.551929
F135	F	0.404291	1.363873	0.377376
H136	H	0.408924	0.712287	0.082049
