data_functionalizedCrystal
_audit_creation_method	'MofGen! by Chris Wilmer'
_symmetry_space_group_name_H-M	'P1'
_symmetry_Int_Tables_number	1
_symmetry_cell_setting	triclinic
loop_
_symmetry_equiv_pos_as_xyz
  x,y,z
_cell_length_a	19.188925
_cell_length_b	18.266242
_cell_length_c	14.853567
_cell_angle_alpha	90.001325
_cell_angle_beta	83.388740
_cell_angle_gamma	90.009890
loop_
_atom_site_label
_atom_site_type_symbol
_atom_site_fract_x
_atom_site_fract_y
_atom_site_fract_z
O1	O	0.926527	0.060891	0.112529
O2	O	0.723266	0.060888	0.127686
O3	O	0.830326	0.060892	-0.011153
O4	O	0.819467	0.060887	0.251367
O5	O	0.830307	-0.060870	-0.011157
O6	O	0.723247	-0.060874	0.127682
O7	O	0.926509	-0.060871	0.112525
Zn8	Zn	0.824875	-0.080205	0.120103
Zn9	Zn	0.824899	0.080222	0.120108
O10	O	0.819449	-0.060875	0.251364
C11	C	0.697244	0.000007	0.127194
C12	C	0.619734	0.000006	0.125723
N13	N	0.824864	-0.189692	0.120099
C14	C	0.058203	0.000006	0.197339
C15	C	0.131031	0.000010	0.198729
C16	C	0.175693	0.000010	0.117263
C17	C	0.147523	0.000025	0.034401
C18	C	0.074696	0.000029	0.033014
N19	N	0.296168	-0.041437	0.058284
N20	N	0.365349	-0.041442	0.059608
C21	C	0.395117	0.000002	0.121439
N22	N	0.353087	0.041441	0.181911
N23	N	0.283899	0.041443	0.180589
C24	C	0.254663	0.000007	0.118759
C25	C	0.502247	-0.000004	0.205803
C26	C	0.575076	0.000005	0.207190
C27	C	0.591568	0.000012	0.042859
C28	C	0.518739	0.000011	0.041475
C29	C	0.474083	-0.000000	0.122950
C30	C	0.867255	-0.227995	0.174646
C31	C	0.867267	-0.304640	0.174643
C32	C	0.824874	-0.342979	0.120104
C33	C	0.782480	-0.304666	0.065546
C34	C	0.782475	-0.228023	0.065543
N35	N	0.763719	-0.463332	0.117885
N36	N	0.763725	-0.536140	0.117893
C37	C	0.824888	-0.573901	0.120108
N38	N	0.886044	-0.536104	0.122332
N39	N	0.886037	-0.463289	0.122329
C40	C	0.824875	-0.426086	0.120101
C41	C	0.867295	-0.695312	0.174655
C42	C	0.867308	-0.771958	0.174646
C43	C	0.782515	-0.771983	0.065554
C44	C	0.782509	-0.695338	0.065557
C45	C	0.824898	-0.657007	0.120113
C46	C	0.952531	0.000012	0.113017
C47	C	1.030040	0.000017	0.114488
C48	C	0.829825	0.000013	-0.044741
C49	C	0.828350	0.000019	-0.144816
N50	N	0.824916	0.189709	0.120105
C51	C	0.758522	0.000004	-0.556960
C52	C	0.885711	0.000006	-0.578951
C53	C	0.887098	0.000010	-0.484925
C54	C	0.824195	0.000010	-0.426912
C55	C	0.759906	0.000006	-0.462925
C56	C	0.951386	0.000007	-0.448905
C57	C	0.952774	0.000011	-0.354874
C58	C	0.889871	0.000016	-0.296859
C59	C	0.825579	0.000013	-0.332877
C60	C	0.762677	0.000013	-0.274864
C61	C	0.698384	0.000015	-0.310880
C62	C	0.697003	0.000012	-0.404910
C63	C	0.891253	0.000019	-0.202829
C64	C	0.764061	0.000015	-0.180829
C65	C	0.819950	0.000005	0.284951
C66	C	0.821424	0.000004	0.385027
H67	H	0.021848	0.000000	0.263682
H68	H	0.901811	-0.664101	0.219077
N69	N	0.913043	-0.813257	0.233485
H70	H	0.882697	-0.845067	0.277713
H71	H	0.947184	-0.845001	0.194065
N72	N	0.627663	0.000002	-0.443753
H73	H	0.600105	0.045139	-0.422589
H74	H	0.636390	-0.000032	-0.512116
N75	N	0.639729	0.000021	-0.045010
H76	H	0.690139	0.000019	-0.031561
H77	H	0.630593	-0.045115	-0.081138
H78	H	1.002597	0.000000	-0.496146
H79	H	0.747999	-0.803198	0.021146
N80	N	0.161418	-0.000001	0.288093
H81	H	0.122078	-0.000006	0.339495
H82	H	0.191266	-0.045142	0.292235
H83	H	0.747986	-0.664151	0.021143
H84	H	0.901774	-0.196791	0.219066
H85	H	0.183892	0.000027	-0.031929
N86	N	0.696218	0.000005	-0.118253
H87	H	0.693963	0.045139	-0.078745
H88	H	0.655319	-0.000025	-0.155397
N89	N	0.488355	0.000013	-0.047884
H90	H	0.504642	0.045150	-0.083562
H91	H	0.504633	-0.045154	-0.083492
N92	N	0.044316	0.000040	-0.056351
H93	H	0.083658	0.000043	-0.107751
H94	H	0.014452	-0.045099	-0.060509
N95	N	0.454076	-0.000008	0.293673
H96	H	0.482971	-0.000007	0.346372
H97	H	0.423509	0.045131	0.296675
H98	H	0.647169	0.000010	-0.263634
N99	N	0.689180	0.000010	-0.595798
H100	H	0.697844	0.000011	-0.664168
H101	H	0.661645	-0.045129	-0.574559
H102	H	0.598004	0.000002	0.274660
N103	N	0.953553	-0.000006	-0.641516
H104	H	0.942921	-0.000012	-0.706549
H105	H	0.981576	0.045133	-0.629891
H106	H	0.901787	-0.335833	0.219065
H107	H	0.747965	-0.335887	0.021139
H108	H	0.747954	-0.196837	0.021123
N109	N	1.022114	0.000008	-0.316030
H110	H	1.061751	0.000007	-0.367050
H111	H	1.025466	0.045150	-0.277500
N112	N	0.960587	0.000009	-0.163980
H113	H	1.000225	0.000004	-0.215000
H114	H	0.963943	0.045149	-0.125449
