data_functionalizedCrystal
_audit_creation_method	'MofGen! by Chris Wilmer'
_symmetry_space_group_name_H-M	'P1'
_symmetry_Int_Tables_number	1
_symmetry_cell_setting	triclinic
loop_
_symmetry_equiv_pos_as_xyz
  x,y,z
_cell_length_a	16.120484
_cell_length_b	16.625548
_cell_length_c	16.625539
_cell_angle_alpha	89.979432
_cell_angle_beta	92.868615
_cell_angle_gamma	92.926626
loop_
_atom_site_label
_atom_site_type_symbol
_atom_site_fract_x
_atom_site_fract_y
_atom_site_fract_z
Zn1	Zn	-0.331882	1.216388	-0.472167
Zn2	Zn	0.168118	1.716388	0.027833
Zn3	Zn	-0.471307	1.209447	-0.344164
Zn4	Zn	0.028693	1.709447	0.155836
Zn5	Zn	-0.331914	1.081548	-0.337349
Zn6	Zn	0.168086	1.581548	0.162651
Zn7	Zn	-0.471259	1.074678	-0.478951
Zn8	Zn	0.028741	1.574678	0.021049
O9	O	-0.401591	1.145515	-0.408158
O10	O	0.098409	1.645515	0.091842
O11	O	-0.350384	1.328299	-0.455200
O12	O	0.149616	1.828299	0.044800
O13	O	-0.452849	1.192451	-0.230429
O14	O	0.047151	1.692451	0.269571
O15	O	-0.215244	1.105215	-0.349541
O16	O	0.284756	1.605215	0.150459
O17	O	-0.452819	1.323200	-0.361156
O18	O	0.047181	1.823200	0.138844
O19	O	-0.215221	1.204281	-0.448592
O20	O	0.284779	1.704281	0.051408
O21	O	-0.350438	1.098484	-0.225422
O22	O	0.149562	1.598484	0.274578
O23	O	-0.350392	0.967805	-0.356120
O24	O	0.149608	1.467805	0.143880
O25	O	-0.452737	1.093506	-0.590882
O26	O	0.047263	1.593506	-0.090882
O27	O	-0.452768	0.962757	-0.460155
O28	O	0.047232	1.462757	0.039845
O29	O	-0.350338	1.197620	-0.585898
O30	O	0.149662	1.697620	-0.085898
O31	O	-0.587966	1.185789	-0.367735
O32	O	-0.087966	1.685789	0.132265
O33	O	-0.587931	1.086775	-0.466763
O34	O	-0.087931	1.586775	0.033237
C35	C	-0.401579	0.936025	-0.408135
C36	C	0.098421	1.436025	0.091865
C37	C	-0.401594	0.846403	-0.408145
C38	C	0.098406	1.346403	0.091855
C39	C	-0.618199	1.134805	-0.418742
C40	C	-0.118199	1.634805	0.081258
C41	C	-0.710865	1.130297	-0.423297
C42	C	-0.210865	1.630297	0.076703
C43	C	-0.880527	1.122072	-0.431630
C44	C	-0.380527	1.622072	0.068370
C45	C	-0.921814	1.169103	-0.384698
C46	C	-0.421814	1.669103	0.115302
C47	C	-1.016220	1.164526	-0.389335
C48	C	-0.516220	1.664526	0.110665
C49	C	-0.786113	1.126648	-0.426995
C50	C	-0.286113	1.626648	0.073005
C51	C	-0.401599	0.518227	-0.408180
C52	C	0.098401	1.018227	0.091820
C53	C	-0.401595	0.609536	-0.408167
C54	C	0.098405	1.109536	0.091833
C55	C	-0.401597	0.682312	-0.408162
C56	C	0.098403	1.182312	0.091838
C57	C	-0.401592	0.773627	-0.408150
C58	C	0.098408	1.273627	0.091850
C59	C	-0.184136	1.156289	-0.397549
C60	C	0.315864	1.656289	0.102451
C61	C	-0.091470	1.160880	-0.393029
C62	C	0.408530	1.660880	0.106971
C63	C	-0.401529	1.145571	-0.618464
C64	C	0.098471	1.645571	-0.118464
C65	C	-0.401502	1.145594	-0.708084
C66	C	0.098498	1.645594	-0.208084
C67	C	-0.401603	1.355823	-0.408181
C68	C	0.098397	1.855823	0.091819
C69	C	-0.401609	1.445444	-0.408192
C70	C	0.098391	1.945444	0.091808
C71	C	-0.401409	1.145636	-1.036255
C72	C	0.098591	1.645636	-0.536255
C73	C	-0.401437	1.145622	-0.944948
C74	C	0.098563	1.645622	-0.444948
C75	C	-0.401456	1.145616	-0.872172
C76	C	0.098544	1.645616	-0.372172
C77	C	-0.401483	1.145601	-0.780859
C78	C	0.098517	1.645601	-0.280859
C79	C	-0.401592	1.145509	-0.198667
C80	C	0.098408	1.645509	0.301333
C81	C	-0.401384	1.145653	-0.109036
C82	C	0.098616	1.645653	0.390964
H83	H	-0.886260	1.212805	-0.341036
H84	H	-0.386260	1.712805	0.158964
O85	O	-0.922842	1.069826	-0.483669
O86	O	-0.422842	1.569826	0.016331
C87	C	-0.949832	0.931362	-0.523935
C88	C	-0.449832	1.431362	-0.023935
C89	C	-0.901832	0.990443	-0.464964
C90	C	-0.401832	1.490443	0.035036
H91	H	-0.932877	0.867167	-0.508822
H92	H	-0.432877	1.367167	-0.008822
H93	H	-0.932696	0.946225	-0.588154
H94	H	-0.432696	1.446225	-0.088154
H95	H	-1.019512	0.936956	-0.518451
H96	H	-0.519512	1.436956	-0.018451
H97	H	-0.832141	0.984881	-0.470376
H98	H	-0.332141	1.484881	0.029624
H99	H	-0.919037	0.975562	-0.400768
H100	H	-0.419037	1.475562	0.099232
