data_functionalizedCrystal
_audit_creation_method	'MofGen! by Chris Wilmer'
_symmetry_space_group_name_H-M	'P1'
_symmetry_Int_Tables_number	1
_symmetry_cell_setting	triclinic
loop_
_symmetry_equiv_pos_as_xyz
  x,y,z
_cell_length_a	14.519709
_cell_length_b	11.026607
_cell_length_c	9.482900
_cell_angle_alpha	78.599815
_cell_angle_beta	80.698649
_cell_angle_gamma	83.866919
loop_
_atom_site_label
_atom_site_type_symbol
_atom_site_fract_x
_atom_site_fract_y
_atom_site_fract_z
O1	O	1.261291	-0.140186	-0.120696
O2	O	1.761291	0.359814	0.379304
O3	O	0.995906	-0.158920	-0.120740
O4	O	1.495906	0.341080	0.379260
O5	O	1.106603	0.027148	-0.120716
O6	O	1.606603	0.527148	0.379284
O7	O	1.150594	-0.326254	-0.120720
O8	O	1.650594	0.173746	0.379280
O9	O	1.084143	-0.010799	0.121071
O10	O	1.584143	0.489201	0.621071
O11	O	0.973446	-0.196866	0.121048
O12	O	1.473446	0.303134	0.621048
O13	O	1.238831	-0.178133	0.121091
O14	O	1.738831	0.321867	0.621091
Cu15	Cu	1.104088	-0.190964	0.143147
Cu16	Cu	1.604088	0.309036	0.643147
Cu17	Cu	1.130649	-0.146088	-0.142795
Cu18	Cu	1.630649	0.353912	0.357205
O19	O	1.128134	-0.364200	0.121068
O20	O	1.628134	0.135800	0.621068
C21	C	0.950173	-0.177018	0.000148
C22	C	1.450173	0.322982	0.500148
C23	C	0.847362	-0.174399	0.000132
C24	C	1.347362	0.325601	0.500132
C25	C	1.087258	0.053403	0.000174
C26	C	1.587258	0.553403	0.500174
C27	C	1.063067	0.188171	0.000165
C28	C	1.563067	0.688171	0.500165
C29	C	1.147479	-0.390455	0.000174
C30	C	1.647479	0.109545	0.500174
C31	C	1.171672	-0.525222	0.000174
C32	C	1.671672	-0.025222	0.500174
C33	C	0.470873	-0.164774	0.000198
C34	C	0.970873	0.335226	0.500198
C35	C	0.575623	-0.167447	0.000179
C36	C	1.075623	0.332553	0.500179
C37	C	0.659114	-0.169586	0.000163
C38	C	1.159114	0.330414	0.500163
C39	C	0.763871	-0.172260	0.000147
C40	C	1.263871	0.327740	0.500147
C41	C	1.284565	-0.160033	0.000200
C42	C	1.784565	0.339967	0.500200
C43	C	1.387377	-0.162652	0.000207
C44	C	1.887377	0.337348	0.500207
N45	N	1.085413	-0.222527	0.344263
N46	N	1.585413	0.277473	0.844263
C47	C	1.129865	0.261831	0.000174
C48	C	1.629865	0.761831	0.500174
C49	C	1.104864	0.401121	0.000165
C50	C	1.604864	0.901121	0.500165
N51	N	1.149330	-0.114516	-0.343911
N52	N	1.649330	0.385484	0.156089
C53	C	1.125134	-0.155391	0.416471
C54	C	1.625134	0.344609	0.916471
C55	C	1.109604	-0.181661	0.583885
C56	C	1.609604	0.318339	1.083885
H57	H	1.205563	0.221771	0.000196
H58	H	1.705563	0.721771	0.500196
C59	C	1.210814	-0.010590	0.572180
C60	C	1.710814	0.489410	1.072180
N61	N	1.257125	0.067682	0.508980
N62	N	1.757125	0.567682	1.008980
H63	H	1.039905	-0.299448	0.406383
H64	H	1.539905	0.200552	0.906383
C65	C	1.002591	0.455224	0.000150
C66	C	1.502591	0.955224	0.500150
N67	N	0.925560	0.495977	0.000143
N68	N	1.425560	0.995977	0.500143
H69	H	0.987369	0.228230	0.000143
H70	H	1.487369	0.728230	0.500143
C71	C	1.273945	0.420677	0.000192
C72	C	1.773945	0.920677	0.500192
N73	N	1.350976	0.379926	0.000208
N74	N	1.850976	0.879926	0.500208
C75	C	1.186589	-0.051445	0.332554
C76	C	1.686589	0.448555	0.832554
N77	N	1.232874	0.026855	0.269349
N78	N	1.732874	0.526855	0.769349
C79	C	1.048122	-0.285587	0.667796
C80	C	1.548122	0.214413	1.167796
N81	N	1.001815	-0.363863	0.731000
N82	N	1.501815	0.136137	1.231000
