data_functionalizedCrystal
_audit_creation_method	'MofGen! by Chris Wilmer'
_symmetry_space_group_name_H-M	'P1'
_symmetry_Int_Tables_number	1
_symmetry_cell_setting	triclinic
loop_
_symmetry_equiv_pos_as_xyz
  x,y,z
_cell_length_a	14.908520
_cell_length_b	14.908618
_cell_length_c	19.076919
_cell_angle_alpha	89.118213
_cell_angle_beta	84.570994
_cell_angle_gamma	89.795563
loop_
_atom_site_label
_atom_site_type_symbol
_atom_site_fract_x
_atom_site_fract_y
_atom_site_fract_z
Zn1	Zn	-0.460603	-1.327960	0.478378
Zn2	Zn	-0.605580	-1.325226	0.367085
Zn3	Zn	-0.445899	-1.184379	0.353580
Zn4	Zn	-0.602183	-1.168933	0.477561
O5	O	-0.528566	-1.251624	0.419151
O6	O	-0.487410	-1.453096	0.469608
O7	O	-0.579666	-1.311863	0.266831
O8	O	-0.321771	-1.211033	0.364825
O9	O	-0.593923	-1.451088	0.387842
O10	O	-0.332574	-1.316522	0.456513
O11	O	-0.462349	-1.208382	0.256909
O12	O	-0.459055	-1.056831	0.364033
O13	O	-0.588134	-1.184708	0.576132
O14	O	-0.573876	-1.045483	0.455121
O15	O	-0.484116	-1.301545	0.576732
O16	O	-0.731208	-1.296885	0.387050
O17	O	-0.728712	-1.182057	0.468216
C18	C	-0.514502	-1.018616	0.408023
C19	C	-0.508508	-0.918932	0.403281
C20	C	-0.762653	-1.237522	0.429027
C21	C	-0.862802	-1.231569	0.433279
C22	C	-0.616981	-0.719843	0.489105
C23	C	-0.611352	-0.626180	0.484651
C24	C	-0.491617	-0.637943	0.389923
C25	C	-0.497246	-0.731606	0.394377
C26	C	-0.559931	-0.772552	0.443969
C27	C	-0.565564	-0.866216	0.448419
C28	C	-0.445826	-0.877977	0.353694
C29	C	-0.440197	-0.784315	0.349241
C30	C	-1.053542	-1.340069	0.356829
C31	C	-1.147641	-1.334479	0.360822
C32	C	-1.145103	-1.214806	0.445262
C33	C	-1.051003	-1.220395	0.441268
C34	C	-1.005226	-1.283028	0.397050
C35	C	-0.911125	-1.288613	0.393053
C36	C	-0.908588	-1.168944	0.477496
C37	C	-1.002688	-1.163354	0.481489
C38	C	-0.293567	-1.265806	0.409254
C39	C	-0.193425	-1.271849	0.405036
C40	C	-0.537386	-1.241708	0.602676
C41	C	-0.541145	-1.237483	0.680884
C42	C	-0.542678	-0.485543	0.430317
C43	C	-0.548673	-0.585227	0.435061
C44	C	-0.519718	-1.261557	0.236339
C45	C	-0.515717	-1.265972	0.158130
C46	C	-0.488756	-1.296325	0.717940
C47	C	-0.492284	-1.292344	0.791423
C48	C	-0.548205	-1.229524	0.827850
C49	C	-0.600596	-1.170675	0.790789
C50	C	-0.597063	-1.174653	0.717307
C51	C	-0.564574	-1.211101	1.047586
C52	C	-0.568105	-1.207130	1.121074
C53	C	-0.459791	-1.328798	1.121703
C54	C	-0.456268	-1.332773	1.048219
C55	C	-0.508654	-1.273922	1.011164
N56	N	-0.551814	-1.225455	0.902963
N57	N	-0.505040	-1.277987	0.936053
H58	H	-0.616607	-0.899553	0.488798
H59	H	-0.668026	-0.753181	0.529481
O60	O	-0.666864	-0.575110	0.528529
C61	C	-0.723376	-0.631340	0.573266
H62	H	-0.729070	-0.699469	0.547745
H63	H	-0.793108	-0.599612	0.582398
H64	H	-0.693650	-0.640408	0.625830
O65	O	-0.430778	-0.598015	0.341797
C66	C	-0.438013	-0.504045	0.347575
H67	H	-0.507937	-0.485832	0.372831
H68	H	-0.427076	-0.471631	0.292933
H69	H	-0.384877	-0.478684	0.381631
H70	H	-1.016269	-1.391061	0.320819
H71	H	-1.186977	-1.380930	0.328071
H72	H	-0.389158	-0.750964	0.308866
H73	H	-0.399373	-0.920904	0.316940
H74	H	-0.639713	-1.126729	0.687136
H75	H	-0.417140	-1.376710	1.151881
O76	O	-0.866745	-1.349407	0.350006
C77	C	-0.885225	-1.332295	0.279909
H78	H	-0.951429	-1.293842	0.279681
H79	H	-0.890791	-1.398570	0.251632
H80	H	-0.828398	-1.290639	0.251730
O81	O	-0.622299	-1.146052	1.156526
C82	C	-0.569538	-1.088919	1.194088
H83	H	-0.503705	-1.124085	1.203735
H84	H	-0.607992	-1.071881	1.246731
H85	H	-0.554253	-1.024592	1.162172
H86	H	-1.182391	-1.163819	0.481267
O87	O	-0.401983	-1.393734	1.012726
C88	C	-0.410063	-1.384594	0.939919
H89	H	-0.477358	-1.351615	0.931401
H90	H	-0.406605	-1.453639	0.914928
H91	H	-0.352762	-1.341141	0.914555
O92	O	-1.047268	-1.102632	0.524484
C93	C	-1.106876	-1.147953	0.574721
H94	H	-1.123831	-1.216451	0.553799
H95	H	-1.171325	-1.106973	0.585188
H96	H	-1.073675	-1.157081	0.625799
O97	O	-0.615538	-1.153885	1.011707
C98	C	-0.665627	-1.097569	1.059617
H99	H	-0.673502	-1.131291	1.113881
H100	H	-0.735008	-1.084839	1.040911
H101	H	-0.628879	-1.031038	1.062800
O102	O	-0.861626	-1.113655	0.516650
C103	C	-0.812367	-1.165438	0.562242
H104	H	-0.845124	-1.234151	0.571213
H105	H	-0.811948	-1.130077	0.614771
H106	H	-0.740200	-1.173958	0.537611
O107	O	-0.654898	-1.109730	0.826284
C108	C	-0.646768	-1.118821	0.899087
H109	H	-0.621924	-1.189270	0.911191
H110	H	-0.715230	-1.107152	0.929564
H111	H	-0.596579	-1.067395	0.915377
O112	O	-0.434356	-1.357377	0.682664
C113	C	-0.388889	-1.408472	0.731133
H114	H	-0.386072	-1.369090	0.781626
H115	H	-0.317459	-1.423471	0.707371
H116	H	-0.426369	-1.474170	0.743595
O117	O	-0.441283	-1.349378	0.827434
C118	C	-0.382061	-1.299526	0.865053
H119	H	-0.371180	-1.230425	0.839297
H120	H	-0.314719	-1.336095	0.864507
H121	H	-0.412395	-1.291745	0.921773
