data_functionalizedCrystal
_audit_creation_method	'MofGen! by Chris Wilmer'
_symmetry_space_group_name_H-M	'P1'
_symmetry_Int_Tables_number	1
_symmetry_cell_setting	triclinic
loop_
_symmetry_equiv_pos_as_xyz
  x,y,z
_cell_length_a	16.120847
_cell_length_b	14.908571
_cell_length_c	16.120297
_cell_angle_alpha	89.752096
_cell_angle_beta	90.163930
_cell_angle_gamma	90.570554
loop_
_atom_site_label
_atom_site_type_symbol
_atom_site_fract_x
_atom_site_fract_y
_atom_site_fract_z
Zn1	Zn	0.429203	1.327271	-0.520324
Zn2	Zn	0.561252	1.327985	-0.374273
Zn3	Zn	0.414226	1.185244	-0.374125
Zn4	Zn	0.559421	1.170100	-0.505327
O5	O	0.491026	1.252650	-0.443512
O6	O	0.453753	1.452880	-0.507288
O7	O	0.536248	1.315687	-0.258222
O8	O	0.300185	1.210124	-0.399734
O9	O	0.550770	1.453404	-0.399984
O10	O	0.311188	1.314470	-0.507145
O11	O	0.428228	1.210816	-0.258114
O12	O	0.426452	1.057722	-0.385192
O13	O	0.547649	1.184312	-0.623348
O14	O	0.533127	1.046595	-0.481585
O15	O	0.451978	1.299785	-0.634366
O16	O	0.677037	1.301002	-0.385442
O17	O	0.675692	1.185004	-0.481728
C18	C	0.477966	1.019614	-0.431746
C19	C	0.472400	0.919918	-0.426730
C20	C	0.274760	1.263907	-0.455096
C21	C	0.182601	1.268704	-0.460032
C22	C	0.573179	0.721040	-0.517529
C23	C	0.567952	0.627366	-0.512820
C24	C	0.456716	0.638895	-0.412607
C25	C	0.461943	0.732568	-0.417316
C26	C	0.520177	0.773638	-0.469778
C27	C	0.525408	0.867313	-0.474483
C28	C	0.414168	0.878840	-0.374275
C29	C	0.408941	0.785166	-0.369565
C30	C	0.013865	1.277478	-0.469043
C31	C	-0.032651	1.227983	-0.418089
C32	C	-0.126542	1.232864	-0.423102
C33	C	0.107764	1.272597	-0.464030
C34	C	0.706452	1.241461	-0.431993
C35	C	0.798618	1.236754	-0.427097
C36	C	0.501280	1.240280	-0.659784
C37	C	0.505649	1.235008	-0.751946
C38	C	0.504136	1.486596	-0.455325
C39	C	0.509723	1.586290	-0.460359
C40	C	0.513607	1.225352	-0.920687
C41	C	0.468206	1.280138	-0.967212
C42	C	0.472633	1.274765	-1.061105
C43	C	0.509180	1.230724	-0.826785
C44	C	0.480754	1.265027	-0.228088
C45	C	0.476161	1.270484	-0.135948
H46	H	0.572826	0.900750	-0.517199
O47	O	0.400078	0.599136	-0.361637
C48	C	0.290329	0.620444	-0.262700
C49	C	0.354421	0.665587	-0.320403
H50	H	0.253410	0.674149	-0.229334
H51	H	0.246338	0.576694	-0.300918
H52	H	0.323839	0.577059	-0.215085
H53	H	0.320981	0.709016	-0.368029
H54	H	0.398409	0.709283	-0.282131
O55	O	0.362638	0.929801	-0.327805
C56	C	0.251719	0.931346	-0.227950
C57	C	0.310035	0.873527	-0.280517
H58	H	0.209164	0.885873	-0.189718
H59	H	0.290066	0.975684	-0.184650
H60	H	0.212716	0.975297	-0.270619
H61	H	0.349051	0.829523	-0.237911
H62	H	0.271641	0.829248	-0.323825
O63	O	-0.022607	1.332421	-0.525646
C64	C	-0.002347	1.439788	-0.636083
C65	C	0.039077	1.377588	-0.572035
H66	H	0.047505	1.476337	-0.673594
H67	H	-0.043127	1.398234	-0.679538
H68	H	-0.042097	1.490890	-0.602486
H69	H	0.078868	1.326476	-0.605562
H70	H	0.079808	1.419201	-0.528583
O71	O	0.619524	0.576406	-0.559234
C72	C	0.730367	0.574860	-0.659173
C73	C	0.672026	0.632679	-0.606634
H74	H	0.772818	0.620333	-0.697522
H75	H	0.769471	0.530951	-0.616558
H76	H	0.691956	0.530481	-0.702379
H77	H	0.710372	0.677111	-0.563423
H78	H	0.632919	0.676529	-0.649298
H79	H	0.620600	0.754479	-0.560241
O80	O	0.004089	1.173131	-0.361577
C81	C	0.132529	1.118127	-0.305052
C82	C	0.091025	1.180296	-0.369074
H83	H	0.202823	1.123884	-0.311103
H84	H	0.113339	1.138567	-0.239855
H85	H	0.112142	1.045849	-0.316843
H86	H	0.111391	1.252592	-0.357360
H87	H	0.110214	1.159780	-0.434250
O88	O	0.417927	1.340874	-0.930478
C89	C	0.367541	1.401593	-0.802040
C90	C	0.424534	1.332793	-0.843537
H91	H	0.372850	1.395071	-0.731742
H92	H	0.386926	1.472236	-0.821826
H93	H	0.300601	1.388364	-0.821842
H94	H	0.491490	1.345939	-0.823756
H95	H	0.405078	1.262173	-0.823752
H96	H	0.361527	0.751715	-0.326855
O97	O	0.563965	1.164512	-0.957152
C98	C	0.662421	1.045796	-0.936877
C99	C	0.605410	1.114634	-0.895460
H100	H	0.695958	1.005464	-0.887019
H101	H	0.623640	0.998541	-0.977063
H102	H	0.709918	1.082470	-0.977221
H103	H	0.557903	1.078035	-0.855075
H104	H	0.644245	1.161886	-0.855323
