data_functionalizedCrystal
_audit_creation_method	'MofGen! by Chris Wilmer'
_symmetry_space_group_name_H-M	'P1'
_symmetry_Int_Tables_number	1
_symmetry_cell_setting	triclinic
loop_
_symmetry_equiv_pos_as_xyz
  x,y,z
_cell_length_a	13.635800
_cell_length_b	9.108949
_cell_length_c	9.514088
_cell_angle_alpha	86.834231
_cell_angle_beta	118.843545
_cell_angle_gamma	68.235414
loop_
_atom_site_label
_atom_site_type_symbol
_atom_site_fract_x
_atom_site_fract_y
_atom_site_fract_z
V1	V	2.142882	-0.228437	0.532236
O2	O	2.099485	0.008003	0.490108
O3	O	2.151116	-0.450092	0.559370
O4	O	2.159940	-0.226228	0.750323
O5	O	2.090600	-0.217410	0.297833
V6	V	2.375147	-0.200002	0.500461
O7	O	2.294342	-0.290812	0.601937
O8	O	2.448785	-0.137627	0.430760
O9	O	2.255309	0.021653	0.473328
O10	O	2.477242	-0.436442	0.542590
O11	O	2.486127	-0.211028	0.734865
O12	O	2.246484	-0.202211	0.282375
V13	V	2.642882	-0.228437	0.532236
O14	O	2.599485	0.008003	0.490108
O15	O	2.651116	-0.450092	0.559370
O16	O	2.659940	-0.226228	0.750323
O17	O	2.590600	-0.217410	0.297833
V18	V	2.875147	-0.200002	0.500461
O19	O	2.794342	-0.290812	0.601937
O20	O	2.948785	-0.137627	0.430760
O21	O	2.755309	0.021653	0.473328
O22	O	2.977242	-0.436442	0.542590
O23	O	2.986127	-0.211028	0.734865
O24	O	2.746484	-0.202211	0.282375
C25	C	2.080172	-0.504086	0.558915
C26	C	2.127823	-0.685300	0.582553
C27	C	2.091427	-0.218523	0.802492
C28	C	2.146231	-0.218184	0.980981
C29	C	2.157924	0.075639	0.473780
C30	C	2.099894	0.256851	0.450152
C31	C	2.146668	-0.209921	0.230198
C32	C	2.081482	-0.210252	0.051706
C33	C	2.657924	0.075639	0.473780
C34	C	2.599894	0.256851	0.450152
C35	C	2.580172	-0.504086	0.558915
C36	C	2.627823	-0.685300	0.582553
C37	C	2.591427	-0.218523	0.802492
C38	C	2.646231	-0.218184	0.980981
C39	C	2.646668	-0.209921	0.230198
C40	C	2.581482	-0.210252	0.051706
C41	C	2.656168	0.350308	0.429879
C42	C	2.601645	0.520582	0.407651
C43	C	2.490854	0.597393	0.405708
C44	C	2.434575	0.503924	0.425978
C45	C	2.489093	0.333655	0.448194
C46	C	2.744044	-0.778758	0.602831
C47	C	2.788841	-0.949033	0.625067
C48	C	2.717410	-1.025845	0.627014
C49	C	2.601180	-0.932374	0.606739
C50	C	2.556390	-0.762104	0.584515
H51	H	2.188190	-0.774406	0.713987
C52	C	2.277767	-0.226997	1.083654
N53	N	2.376838	-0.233631	1.160988
H54	H	2.746381	0.287792	0.431459
H55	H	2.484126	-0.203736	0.975712
C56	C	2.312701	0.588443	0.423835
N57	N	2.220907	0.652108	0.422228
H58	H	2.647488	0.596662	0.391151
C59	C	1.949953	-0.201439	0.949040
N60	N	1.850880	-0.194798	0.871701
C61	C	2.522609	-1.016889	0.608855
N62	N	2.463426	-1.080548	0.610432
H63	H	2.743600	-0.224718	1.056989
C64	C	2.427183	0.230866	0.470516
N65	N	2.380546	0.153452	0.487331
H66	H	2.446474	0.736038	0.387616
C67	C	2.018339	-0.622764	0.272576
N68	N	1.956909	-0.532088	0.138828
H69	H	2.883481	-1.025113	0.641569
C70	C	2.822646	-0.694301	0.600707
N71	N	2.881861	-0.630700	0.599120
H72	H	2.753896	-1.164491	0.645112
H73	H	2.461749	-0.686021	0.567997
