data_functionalizedCrystal
_audit_creation_method	'MofGen! by Chris Wilmer'
_symmetry_space_group_name_H-M	'P1'
_symmetry_Int_Tables_number	1
_symmetry_cell_setting	triclinic
loop_
_symmetry_equiv_pos_as_xyz
  x,y,z
_cell_length_a	8.597226
_cell_length_b	10.065875
_cell_length_c	8.597304
_cell_angle_alpha	88.649997
_cell_angle_beta	95.704897
_cell_angle_gamma	73.515003
loop_
_atom_site_label
_atom_site_type_symbol
_atom_site_fract_x
_atom_site_fract_y
_atom_site_fract_z
O1	O	-2.163055	0.386355	0.157007
O2	O	-1.696110	0.334765	0.185299
O3	O	-1.933429	0.334768	-0.052013
O4	O	-1.925736	0.386352	0.394319
O5	O	-1.888183	0.107801	-0.006581
O6	O	-1.650863	0.107797	0.230731
O7	O	-2.117809	0.159388	0.202439
Zn8	Zn	-1.877152	0.097556	0.223798
Zn9	Zn	-1.936766	0.396596	0.163940
O10	O	-1.880489	0.159384	0.439751
C11	C	-1.613568	0.214174	0.207506
C12	C	-1.435030	0.192996	0.205971
N13	N	-1.836479	-0.106529	0.264649
C14	C	-1.922604	-0.174351	0.178143
C15	C	-1.891314	-0.331500	0.209595
C16	C	-1.200350	0.279974	0.180229
C17	C	-1.378888	0.301140	0.181755
C18	C	-1.907460	0.214181	-0.086376
C19	C	-1.897470	0.193014	-0.256454
N20	N	-1.977452	0.600681	0.123076
C21	C	-1.906459	0.279974	0.474113
C22	C	-1.916451	0.301150	0.644189
H23	H	-1.794401	-0.389771	0.306942
H24	H	-1.739572	-0.164805	0.361990
C25	C	-2.034703	-0.260437	-0.118005
C26	C	-2.108048	-0.320899	-0.008647
H27	H	-2.115262	-0.212087	-0.199406
H28	H	-1.954190	-0.330830	-0.160933
H29	H	-1.984937	-0.197371	-0.067842
H30	H	-2.157803	-0.383974	-0.058807
H31	H	-2.188590	-0.250498	0.034284
H32	H	-1.940340	0.409933	-0.310760
C33	C	-1.411174	0.543807	0.132662
C34	C	-1.498383	0.448005	0.155349
H35	H	-1.484946	0.634473	0.116373
H36	H	-1.353403	0.521483	0.043719
H37	H	-1.336044	0.540451	0.222526
H38	H	-1.573504	0.451354	0.065480
H39	H	-1.556181	0.470336	0.244301
C40	C	-1.715132	-0.038006	-0.245338
C41	C	-1.865192	0.046143	-0.317254
H42	H	-1.695202	-0.128673	-0.282881
H43	H	-1.717864	-0.042549	-0.135205
H44	H	-1.630555	0.000129	-0.269181
H45	H	-1.949770	0.008014	-0.293401
H46	H	-1.862472	0.050681	-0.427412
H47	H	-2.019500	-0.116080	0.080791
C48	C	-1.155872	0.052890	0.225692
C49	C	-1.315541	0.046140	0.232373
H50	H	-1.082102	-0.037777	0.241980
H51	H	-1.129937	0.109985	0.304679
H52	H	-1.147290	0.091022	0.125871
H53	H	-1.324126	0.008018	0.332199
H54	H	-1.341484	-0.010976	0.153381
