data_functionalizedCrystal
_audit_creation_method	'MofGen! by Chris Wilmer'
_symmetry_space_group_name_H-M	'P1'
_symmetry_Int_Tables_number	1
_symmetry_cell_setting	triclinic
loop_
_symmetry_equiv_pos_as_xyz
  x,y,z
_cell_length_a	17.019282
_cell_length_b	16.098538
_cell_length_c	10.654550
_cell_angle_alpha	92.750495
_cell_angle_beta	96.064404
_cell_angle_gamma	88.859428
loop_
_atom_site_label
_atom_site_type_symbol
_atom_site_fract_x
_atom_site_fract_y
_atom_site_fract_z
O1	O	1.047258	-0.005880	-0.160380
O2	O	0.818534	0.010531	-0.179469
O3	O	0.938155	0.001945	0.012867
O4	O	0.927638	0.002706	-0.352716
O5	O	0.931167	-0.136066	0.001676
O6	O	0.811546	-0.127481	-0.190660
O7	O	1.040270	-0.143892	-0.171571
Zn8	Zn	0.924799	-0.157598	-0.182893
Zn9	Zn	0.934006	0.024238	-0.168148
O10	O	0.920650	-0.135306	-0.363907
C11	C	0.785753	-0.056374	-0.184123
C12	C	0.698487	-0.050112	-0.181303
C13	C	0.653684	-0.122402	-0.186075
C14	C	0.571690	-0.116522	-0.183404
C15	C	0.534498	-0.038350	-0.175971
C16	C	0.579307	0.033946	-0.171195
C17	C	0.661301	0.028064	-0.173856
C18	C	0.287121	-0.016827	-0.167622
C19	C	0.205121	-0.010951	-0.164965
C20	C	0.197509	-0.161419	-0.177173
C21	C	0.279504	-0.167294	-0.179841
C22	C	0.324306	-0.094999	-0.175058
C23	C	0.450686	-0.032337	-0.173245
C24	C	0.408118	-0.101012	-0.177774
N25	N	0.918521	-0.281697	-0.192955
C26	C	0.969312	-0.328928	-0.111349
C27	C	0.964928	-0.415802	-0.118400
C28	C	0.909756	-0.455444	-0.207064
C29	C	0.858960	-0.408207	-0.288673
C30	C	0.863341	-0.321334	-0.281615
C31	C	0.893875	-0.717554	-0.232627
C32	C	0.889499	-0.804434	-0.239682
C33	C	0.995466	-0.812022	-0.069406
C34	C	0.999846	-0.725148	-0.062361
C35	C	0.949047	-0.677918	-0.143966
C36	C	0.905275	-0.544244	-0.214276
C37	C	0.953524	-0.589120	-0.136747
C38	C	1.073052	-0.076985	-0.166917
C39	C	1.160318	-0.083241	-0.169737
C40	C	0.933889	-0.067004	0.054062
C41	C	0.931579	-0.066836	0.193482
N42	N	0.940290	0.148336	-0.158076
C43	C	0.924916	-0.066355	-0.405102
C44	C	0.927227	-0.066518	-0.544522
C45	C	1.002009	-0.071892	0.273671
C46	C	0.999834	-0.071730	0.404670
C47	C	0.856791	-0.061459	0.375279
C48	C	0.858967	-0.061615	0.244283
C49	C	1.074620	-0.077112	0.222870
C50	C	1.145057	-0.082170	0.303060
C51	C	1.142882	-0.082008	0.434059
C52	C	1.070270	-0.076789	0.484869
H53	H	0.535216	-0.175388	-0.187270
F54	F	0.784007	-0.056234	0.158936
F55	F	0.539726	0.117143	-0.163245
F56	F	0.779518	-0.055906	0.429360
F57	F	0.809280	-0.271069	-0.368469
F58	F	1.217845	-0.087381	0.519401
H59	H	0.683959	-0.186059	-0.192138
H60	H	1.044771	-0.692873	0.009837
H61	H	0.161023	-0.220278	-0.181064
H62	H	0.309780	-0.230950	-0.185888
F63	F	1.012237	-0.546928	-0.042382
H64	H	1.068505	-0.076648	0.591540
H65	H	1.036823	-0.850485	-0.002965
F66	F	0.165541	0.072254	-0.157056
H67	H	0.323589	0.042041	-0.163723
H68	H	1.076400	-0.077247	0.116205
H69	H	1.006285	-0.454257	-0.051949
H70	H	0.697778	0.086931	-0.169972
F71	F	0.839813	-0.667296	-0.319480
F72	F	0.447701	-0.184206	-0.185680
F73	F	0.411101	0.050857	-0.165290
F74	F	1.028038	-0.286746	-0.016985
F75	F	0.830775	-0.846618	-0.334058
F76	F	0.846559	-0.586439	-0.308640
F77	F	0.800238	-0.450398	-0.383032
H78	H	1.204176	-0.086398	0.261683
