data_functionalizedCrystal
_audit_creation_method	'MofGen! by Chris Wilmer'
_symmetry_space_group_name_H-M	'P1'
_symmetry_Int_Tables_number	1
_symmetry_cell_setting	triclinic
loop_
_symmetry_equiv_pos_as_xyz
  x,y,z
_cell_length_a	10.654550
_cell_length_b	14.519709
_cell_length_c	9.130313
_cell_angle_alpha	89.997798
_cell_angle_beta	89.996220
_cell_angle_gamma	84.082524
loop_
_atom_site_label
_atom_site_type_symbol
_atom_site_fract_x
_atom_site_fract_y
_atom_site_fract_z
O1	O	1.666589	0.129528	-0.121923
O2	O	1.300991	0.141869	-0.121900
O3	O	1.493483	0.001510	-0.121899
O4	O	1.474097	0.269887	-0.121924
O5	O	1.493481	0.001514	0.121700
O6	O	1.300989	0.141873	0.121699
O7	O	1.666586	0.129532	0.121676
Cu8	Cu	1.483787	0.135703	0.143930
Cu9	Cu	1.483790	0.135698	-0.144154
O10	O	1.474094	0.269891	0.121675
C11	C	1.254201	0.140965	-0.000098
C12	C	1.114784	0.138254	-0.000088
C13	C	1.034504	0.220895	-0.000117
C14	C	0.903507	0.218342	-0.000143
C15	C	0.933085	0.050500	-0.000116
C16	C	1.064078	0.053054	-0.000080
C17	C	1.085209	0.306095	-0.000126
C18	C	1.004928	0.388743	-0.000157
C19	C	0.873931	0.386190	-0.000182
C20	C	0.823217	0.300989	-0.000176
C21	C	1.492579	-0.032852	-0.000099
C22	C	1.489871	-0.135247	-0.000098
C23	C	1.479904	-0.510195	-0.000136
C24	C	1.482672	-0.405873	-0.000125
C25	C	1.484887	-0.322725	-0.000116
C26	C	1.487656	-0.218396	-0.000108
C27	C	1.713377	0.130436	-0.000130
C28	C	1.852794	0.133147	-0.000149
C29	C	1.474999	0.304253	-0.000128
C30	C	1.477707	0.406648	-0.000139
N31	N	1.483795	0.135705	0.346552
N32	N	1.483793	0.135688	-0.346777
C33	C	1.569052	0.073576	0.423205
C34	C	1.569048	0.073565	0.576542
C35	C	1.398527	0.197821	0.576560
C36	C	1.398525	0.197827	0.423226
C37	C	1.654321	0.011454	0.346531
C38	C	1.739586	-0.050679	0.423184
C39	C	1.739583	-0.050691	0.576520
C40	C	1.654315	0.011432	0.653205
H41	H	1.046228	0.458110	-0.000149
O42	O	0.796124	0.466555	-0.000269
C43	C	0.868975	0.542297	-0.000229
H44	H	0.966697	0.519510	-0.046322
H45	H	0.878333	0.568378	0.116635
C46	C	0.683879	0.648567	-0.039176
C47	C	0.803900	0.620583	-0.095799
H48	H	0.643737	0.696860	-0.098122
H49	H	0.634797	0.597539	-0.039197
H50	H	0.691695	0.670296	0.058210
H51	H	0.796082	0.598844	-0.193176
H52	H	0.852980	0.671609	-0.095797
H53	H	1.654334	0.011460	0.221677
O54	O	1.315658	0.258040	0.651210
C55	C	1.238063	0.208115	0.739885
H56	H	1.287923	0.136288	0.762844
H57	H	1.145235	0.201219	0.680805
C58	C	1.150106	0.348141	0.857346
C59	C	1.211350	0.259924	0.885555
H60	H	1.133622	0.380100	0.947199
H61	H	1.202380	0.381777	0.797601
H62	H	1.072757	0.342381	0.808109
H63	H	1.288704	0.265685	0.934775
H64	H	1.159088	0.226290	0.945312
O65	O	0.883615	-0.032179	-0.000188
C66	C	0.750781	-0.016711	-0.000193
H67	H	0.720197	0.055062	-0.046321
H68	H	0.714275	-0.021413	0.116663
C69	C	0.733873	-0.178572	-0.039084
C70	C	0.696309	-0.090421	-0.095751
H71	H	0.700270	-0.224041	-0.098022
H72	H	0.823366	-0.188994	-0.039075
H73	H	0.703449	-0.182476	0.058295
H74	H	0.726746	-0.086514	-0.193120
H75	H	0.606820	-0.080000	-0.095778
O76	O	1.315665	0.258270	0.348983
C77	C	1.240392	0.313090	0.449534
H78	H	1.291877	0.314483	0.558834
H79	H	1.147041	0.282505	0.465845
C80	C	1.151490	0.410693	0.255444
C81	C	1.214729	0.412410	0.389685
H82	H	1.135654	0.471958	0.218525
H83	H	1.202199	0.373758	0.187700
H84	H	1.073704	0.385202	0.269055
H85	H	1.292520	0.437890	0.376069
H86	H	1.164032	0.449352	0.457426
H87	H	1.654311	0.011412	0.778062
H88	H	1.129445	-0.014240	-0.000060
H89	H	0.716549	0.298917	-0.000174
H90	H	1.809002	-0.101263	0.360739
H91	H	1.191871	0.308183	-0.000112
H92	H	1.809000	-0.101288	0.638929
