data_functionalizedCrystal
_audit_creation_method	'MofGen! by Chris Wilmer'
_symmetry_space_group_name_H-M	'P1'
_symmetry_Int_Tables_number	1
_symmetry_cell_setting	triclinic
loop_
_symmetry_equiv_pos_as_xyz
  x,y,z
_cell_length_a	14.908571
_cell_length_b	25.639239
_cell_length_c	14.908694
_cell_angle_alpha	93.266315
_cell_angle_beta	83.592472
_cell_angle_gamma	86.734636
loop_
_atom_site_label
_atom_site_type_symbol
_atom_site_fract_x
_atom_site_fract_y
_atom_site_fract_z
Zn1	Zn	1.413187	-0.275253	-0.591468
Zn2	Zn	1.913187	0.224747	-0.091468
Zn3	Zn	1.404309	-0.357334	-0.440091
Zn4	Zn	1.904309	0.142666	0.059909
Zn5	Zn	1.253095	-0.264559	-0.431405
Zn6	Zn	1.753095	0.235441	0.068595
Zn7	Zn	1.261741	-0.357293	-0.582690
Zn8	Zn	1.761741	0.142707	-0.082690
O9	O	1.333083	-0.313610	-0.511414
O10	O	1.833083	0.186390	-0.011414
O11	O	1.538674	-0.290634	-0.578697
O12	O	2.038674	0.209366	-0.078697
O13	O	1.376916	-0.340569	-0.312274
O14	O	1.876916	0.159431	0.187726
O15	O	1.274428	-0.192817	-0.452676
O16	O	1.774428	0.307183	0.047324
O17	O	1.532151	-0.350938	-0.467481
O18	O	2.032151	0.149062	0.032519
O19	O	1.392047	-0.200674	-0.570274
O20	O	1.892047	0.299326	-0.070274
O21	O	1.265820	-0.272407	-0.305892
O22	O	1.765820	0.227593	0.194108
O23	O	1.127577	-0.272368	-0.444164
O24	O	1.627577	0.227632	0.055836
O25	O	1.289164	-0.350869	-0.710519
O26	O	1.789164	0.149131	-0.210519
O27	O	1.133929	-0.340499	-0.555312
O28	O	1.633929	0.159501	-0.055312
O29	O	1.400431	-0.290594	-0.716969
O30	O	1.900431	0.209406	-0.216969
O31	O	1.385300	-0.430489	-0.458969
O32	O	1.885300	0.069511	0.041031
O33	O	1.280555	-0.430459	-0.563735
O34	O	1.780555	0.069541	-0.063735
C35	C	1.097911	-0.305269	-0.497844
C36	C	1.597911	0.194731	0.002156
C37	C	0.997304	-0.301715	-0.492060
C38	C	1.497304	0.198285	0.007940
C39	C	0.814908	-0.366078	-0.596774
C40	C	1.314908	0.133922	-0.096774
C41	C	0.720379	-0.362740	-0.591343
C42	C	1.220379	0.137260	-0.091343
C43	C	0.713717	-0.291698	-0.475771
C44	C	1.213717	0.208302	0.024229
C45	C	0.808246	-0.295036	-0.481202
C46	C	1.308246	0.204964	0.018798
C47	C	0.858838	-0.332228	-0.541705
C48	C	1.358838	0.167772	-0.041705
C49	C	0.953368	-0.335568	-0.547131
C50	C	1.453368	0.164432	-0.047131
C51	C	0.946704	-0.264524	-0.431564
C52	C	1.446704	0.235476	0.068436
C53	C	0.852176	-0.261186	-0.426133
C54	C	1.352176	0.238814	0.073867
C55	C	1.332928	-0.449446	-0.511363
C56	C	1.832928	0.050554	-0.011363
C57	C	1.332947	-0.507561	-0.511377
C58	C	1.832947	-0.007561	-0.011377
C59	C	1.387780	-0.867941	-0.456969
C60	C	1.887780	-0.367941	0.043031
C61	C	1.387816	-0.922547	-0.456983
C62	C	1.887816	-0.422547	0.043017
O63	O	1.434276	-0.950792	-0.410669
O64	O	1.934276	-0.450792	0.089331
N65	N	1.333245	-0.949857	-0.511483
N66	N	1.833245	-0.449857	-0.011483
C67	C	1.278643	-0.922558	-0.565979
C68	C	1.778643	-0.422558	-0.065979
O69	O	1.232230	-0.950801	-0.612337
O70	O	1.732230	-0.450801	-0.112337
C71	C	1.278612	-0.867953	-0.565969
C72	C	1.778612	-0.367953	-0.065969
C73	C	1.333179	-0.840646	-0.511459
C74	C	1.833179	-0.340646	-0.011459
C75	C	1.442343	-0.840634	-0.402464
C76	C	1.942343	-0.340634	0.097536
C77	C	1.442306	-0.786032	-0.402449
C78	C	1.942306	-0.286032	0.097551
C79	C	1.387705	-0.758737	-0.456939
C80	C	1.887705	-0.258737	0.043061
C81	C	1.333142	-0.786044	-0.511443
C82	C	1.833142	-0.286044	-0.011443
C83	C	1.224015	-0.840655	-0.620469
C84	C	1.724015	-0.340655	-0.120469
C85	C	1.223990	-0.786047	-0.620454
C86	C	1.723990	-0.286047	-0.120454
C87	C	1.278557	-0.758740	-0.565945
C88	C	1.778557	-0.258740	-0.065945
C89	C	1.278504	-0.704146	-0.565918
C90	C	1.778504	-0.204146	-0.065918
N91	N	1.333074	-0.676837	-0.511418
N92	N	1.833074	-0.176837	-0.011418
C93	C	1.387675	-0.704132	-0.456929
C94	C	1.887675	-0.204132	0.043071
C95	C	1.278712	-1.037231	-0.565996
C96	C	1.778712	-0.537231	-0.065996
C97	C	1.278736	-1.091834	-0.566002
C98	C	1.778736	-0.591834	-0.066002
C99	C	1.387911	-1.091820	-0.457008
C100	C	1.887911	-0.591820	0.042992
C101	C	1.387881	-1.037216	-0.456998
C102	C	1.887881	-0.537216	0.043002
C103	C	1.333282	-1.009922	-0.511497
C104	C	1.833282	-0.509922	-0.011497
C105	C	1.387592	-0.589463	-0.456900
C106	C	1.887592	-0.089463	0.043100
C107	C	1.387547	-0.534856	-0.456887
C108	C	1.887547	-0.034856	0.043113
C109	C	1.278377	-0.534875	-0.565885
C110	C	1.778377	-0.034875	-0.065885
C111	C	1.278417	-0.589477	-0.565895
C112	C	1.778417	-0.089477	-0.065895
C113	C	1.333032	-0.616770	-0.511400
C114	C	1.833032	-0.116770	-0.011400
O115	O	1.232070	-0.675867	-0.612211
O116	O	1.732070	-0.175867	-0.112211
O117	O	1.434088	-0.675883	-0.410587
O118	O	1.934088	-0.175883	0.089413
C119	C	1.569173	-0.321983	-0.525037
C120	C	2.069173	0.178017	-0.025037
C121	C	1.669781	-0.325552	-0.530843
C122	C	2.169781	0.174448	-0.030843
C123	C	1.346752	-0.321920	-0.747505
C124	C	1.846752	0.178080	-0.247505
C125	C	1.352577	-0.325461	-0.848113
C126	C	1.852577	0.174539	-0.348113
C127	C	1.333264	-0.177245	-0.511485
C128	C	1.833264	0.322755	-0.011485
C129	C	1.333341	-0.119135	-0.511516
C130	C	1.833341	0.380865	-0.011516
C131	C	1.247818	-0.261140	-1.030521
C132	C	1.747818	0.238860	-0.530521
C133	C	1.253288	-0.264466	-1.125051
C134	C	1.753288	0.235534	-0.625051
C135	C	1.368982	-0.335440	-1.131705
C136	C	1.868982	0.164560	-0.631705
C137	C	1.363512	-0.332114	-1.037175
C138	C	1.863512	0.167886	-0.537175
C139	C	1.302929	-0.294963	-0.986586
C140	C	1.802929	0.205037	-0.486586
C141	C	1.297464	-0.291635	-0.892055
C142	C	1.797464	0.208365	-0.392055
C143	C	1.413153	-0.362612	-0.898709
C144	C	1.913153	0.137388	-0.398709
C145	C	1.418624	-0.365937	-0.993240
C146	C	1.918624	0.134063	-0.493240
C147	C	1.319519	-0.305296	-0.276244
C148	C	1.819519	0.194704	0.223756
C149	C	1.313869	-0.301614	-0.175646
C150	C	1.813869	0.198386	0.324354
H151	H	0.982482	-0.236962	-0.386721
H152	H	1.482482	0.263038	0.113279
H153	H	1.418294	-0.365694	-1.172909
H154	H	1.918294	0.134306	-0.672909
H155	H	1.234243	-1.015011	-0.610373
H156	H	1.734243	-0.515011	-0.110373
H157	H	1.467946	-0.396186	-1.034441
H158	H	1.967946	0.103814	-0.534441
H159	H	1.431982	-0.512624	-0.412496
H160	H	1.931982	-0.012624	0.087504
C161	C	1.278814	-0.217120	-0.785060
C162	C	1.778814	0.282880	-0.285060
C163	C	1.230870	-0.250799	-0.836447
C164	C	1.730870	0.249201	-0.336447
H165	H	1.237697	-0.191908	-0.750737
H166	H	1.737697	0.308092	-0.250737
H167	H	1.310844	-0.236785	-0.745363
H168	H	1.810844	0.263215	-0.245363
H169	H	1.320405	-0.199817	-0.824233
H170	H	1.820405	0.300183	-0.324233
H171	H	1.189282	-0.268105	-0.797273
H172	H	1.689282	0.231895	-0.297273
H173	H	1.198825	-0.231131	-0.876147
H174	H	1.698825	0.268869	-0.376147
C175	C	1.456143	-0.389032	-0.756758
C176	C	1.956143	0.110968	-0.256758
C177	C	1.473734	-0.399794	-0.850414
C178	C	1.973734	0.100206	-0.350414
H179	H	1.493540	-0.411988	-0.726944
H180	H	1.993540	0.088012	-0.226944
H181	H	1.468540	-0.353833	-0.742055
H182	H	1.968540	0.146167	-0.242055
H183	H	1.394418	-0.393984	-0.737758
H184	H	1.894418	0.106016	-0.237758
H185	H	1.535458	-0.394838	-0.869415
H186	H	2.035458	0.105162	-0.369415
H187	H	1.461344	-0.435002	-0.865124
H188	H	1.961344	0.064998	-0.365124
C189	C	1.495492	-0.583949	-0.349151
C190	C	1.995492	-0.083949	0.150849
C191	C	1.447618	-0.619458	-0.396992
C192	C	1.947618	-0.119458	0.103008
H193	H	1.532541	-0.602466	-0.312160
H194	H	2.032541	-0.102466	0.187840
H195	H	1.532353	-0.565238	-0.390609
H196	H	2.032353	-0.065238	0.109391
H197	H	1.454046	-0.560064	-0.312227
H198	H	1.954046	-0.060064	0.187773
H199	H	1.489064	-0.643340	-0.433922
H200	H	1.989064	-0.143340	0.066078
H201	H	1.410754	-0.638177	-0.355530
H202	H	1.910754	-0.138177	0.144470
H203	H	0.994559	-0.365853	-0.596394
H204	H	1.494559	0.134147	-0.096394
H205	H	0.810971	-0.230904	-0.376876
H206	H	1.310971	0.269096	0.123124
C207	C	0.812002	-0.435967	-0.710465
C208	C	1.312002	0.064033	-0.210465
C209	C	0.870525	-0.406958	-0.663276
C210	C	1.370525	0.093042	-0.163276
H211	H	0.846339	-0.461202	-0.751524
H212	H	1.346339	0.038798	-0.251524
H213	H	0.772822	-0.453238	-0.668846
H214	H	1.272822	0.046762	-0.168846
H215	H	0.777166	-0.413133	-0.743040
H216	H	1.277166	0.086867	-0.243040
H217	H	0.905356	-0.429792	-0.630695
H218	H	1.405356	0.070208	-0.130695
H219	H	0.909720	-0.389686	-0.704900
H220	H	1.409720	0.110314	-0.204900
H221	H	1.233988	-0.611712	-0.610284
H222	H	1.733988	-0.111712	-0.110284
H223	H	1.486810	-0.862852	-0.358092
H224	H	1.986810	-0.362852	0.141908
C225	C	1.550235	-0.791521	-0.294733
C226	C	2.050235	-0.291521	0.205267
C227	C	1.502303	-0.756022	-0.342544
C228	C	2.002303	-0.256022	0.157456
H229	H	1.587283	-0.772996	-0.257756
H230	H	2.087283	-0.272996	0.242244
H231	H	1.508831	-0.810229	-0.257806
H232	H	2.008831	-0.310229	0.242194
H233	H	1.587109	-0.815408	-0.336216
H234	H	2.087109	-0.315408	0.163784
H235	H	1.465423	-0.732137	-0.301060
H236	H	1.965423	-0.232137	0.198940
H237	H	1.543711	-0.737305	-0.379474
H238	H	2.043711	-0.237305	0.120526
H239	H	1.198496	-0.230885	-0.989331
H240	H	1.698496	0.269115	-0.489331
H241	H	1.179576	-0.862879	-0.664852
H242	H	1.679576	-0.362879	-0.164852
H243	H	1.233918	-0.512643	-0.610247
H244	H	1.733918	-0.012643	-0.110247
C245	C	1.138386	-0.193974	-1.108976
C246	C	1.638386	0.306026	-0.608976
C247	C	1.192712	-0.227284	-1.173346
C248	C	1.692712	0.272716	-0.673346
H249	H	1.100991	-0.171018	-1.138793
H250	H	1.600991	0.328982	-0.638793
H251	H	1.101602	-0.214229	-1.070099
H252	H	1.601602	0.285771	-0.570099
H253	H	1.175724	-0.174079	-1.074389
H254	H	1.675724	0.325921	-0.574389
H255	H	1.155374	-0.247183	-1.207928
H256	H	1.655374	0.252817	-0.707928
H257	H	1.229499	-0.207027	-1.212238
H258	H	1.729499	0.292973	-0.712238
H259	H	0.684616	-0.390304	-0.636188
H260	H	1.184616	0.109696	-0.136188
H261	H	1.432314	-1.014986	-0.412612
H262	H	1.932314	-0.514986	0.087388
C263	C	0.565852	-0.255011	-0.416191
C264	C	1.065852	0.244989	0.083809
C265	C	0.658098	-0.250799	-0.409307
C266	C	1.158098	0.249201	0.090693
H267	H	0.531518	-0.229758	-0.375165
H268	H	1.031518	0.270242	0.124835
H269	H	0.553936	-0.249026	-0.476150
H270	H	1.053936	0.250974	0.023850
H271	H	0.549542	-0.289104	-0.401912
H272	H	1.049542	0.210896	0.098088
H273	H	0.674410	-0.216707	-0.423593
H274	H	1.174410	0.283293	0.076407
H275	H	0.670020	-0.256780	-0.349335
H276	H	1.170020	0.243220	0.150665
H277	H	1.432373	-1.114054	-0.412643
H278	H	1.932373	-0.614054	0.087357
C279	C	1.170822	-1.086350	-0.673737
C280	C	1.670822	-0.586350	-0.173737
C281	C	1.218749	-1.121846	-0.625916
C282	C	1.718749	-0.621846	-0.125916
H283	H	1.133795	-1.104878	-0.710732
H284	H	1.633795	-0.604878	-0.210732
H285	H	1.133936	-1.062470	-0.632267
H286	H	1.633936	-0.562470	-0.132267
H287	H	1.212236	-1.067635	-0.710655
H288	H	1.712236	-0.567635	-0.210655
H289	H	1.177335	-1.140559	-0.588992
H290	H	1.677335	-0.640559	-0.088992
H291	H	1.255639	-1.145736	-0.667391
H292	H	1.755639	-0.645736	-0.167391
C293	C	1.116090	-0.791551	-0.728206
C294	C	1.616090	-0.291551	-0.228206
C295	C	1.163972	-0.756047	-0.680364
C296	C	1.663972	-0.256047	-0.180364
H297	H	1.079035	-0.773029	-0.765186
H298	H	1.579035	-0.273029	-0.265186
H299	H	1.157523	-0.815432	-0.765132
H300	H	1.657523	-0.315432	-0.265132
H301	H	1.079226	-0.810264	-0.686741
H302	H	1.579226	-0.310264	-0.186741
H303	H	1.200841	-0.737336	-0.721829
H304	H	1.700841	-0.237336	-0.221829
H305	H	1.122533	-0.732156	-0.643434
H306	H	1.622533	-0.232156	-0.143434
