data_functionalizedCrystal
_audit_creation_method	'MofGen! by Chris Wilmer'
_symmetry_space_group_name_H-M	'P1'
_symmetry_Int_Tables_number	1
_symmetry_cell_setting	triclinic
loop_
_symmetry_equiv_pos_as_xyz
  x,y,z
_cell_length_a	10.489741
_cell_length_b	14.853567
_cell_length_c	13.930277
_cell_angle_alpha	90.004245
_cell_angle_beta	89.995758
_cell_angle_gamma	95.912948
loop_
_atom_site_label
_atom_site_type_symbol
_atom_site_fract_x
_atom_site_fract_y
_atom_site_fract_z
O1	O	0.166528	-1.197302	-0.079764
O2	O	0.186365	-0.934954	-0.079780
O3	O	-0.009218	-1.072098	-0.079766
O4	O	0.362111	-1.060158	-0.079778
O5	O	-0.009222	-1.072078	0.079896
O6	O	0.186361	-0.934935	0.079881
O7	O	0.166524	-1.197283	0.079898
Zn8	Zn	0.176442	-1.066106	0.105239
Zn9	Zn	0.176447	-1.066131	-0.105122
O10	O	0.362107	-1.060139	0.079883
C11	C	0.185464	-0.901351	0.000048
C12	C	0.182771	-0.801252	0.000042
C13	C	-0.056742	-1.071186	0.000064
C14	C	-0.198341	-1.068488	0.000062
C15	C	0.167425	-1.230886	0.000067
C16	C	0.170118	-1.330985	0.000067
C17	C	-0.265502	-0.981228	0.000050
C18	C	-0.358089	-1.022439	0.078774
C19	C	-0.358060	-1.022479	-0.078640
C20	C	-0.289063	-1.109736	0.078851
C21	C	-0.289024	-1.109763	-0.078633
C22	C	-0.381585	-1.151038	0.000110
C23	C	0.409631	-1.061051	0.000051
C24	C	0.551230	-1.063748	0.000047
N25	N	0.176437	-1.066095	0.248805
C26	C	0.055204	-0.388003	0.000068
C27	C	0.287562	-0.368025	0.000059
C28	C	0.290094	-0.462072	0.000056
C29	C	0.175180	-0.519090	0.000057
C30	C	0.057733	-0.482060	0.000062
C31	C	0.407539	-0.499110	0.000042
C32	C	0.410077	-0.593163	0.000038
C33	C	0.295161	-0.650183	0.000046
C34	C	0.177709	-0.613147	0.000051
C35	C	0.062795	-0.670164	0.000053
C36	C	-0.054658	-0.633130	0.000065
C37	C	-0.057183	-0.539079	0.000070
C38	C	0.297685	-0.744234	0.000041
C39	C	0.065324	-0.764221	0.000047
N40	N	0.176442	-1.066149	-0.248688
C41	C	0.263018	-1.005401	0.701068
C42	C	0.089867	-1.126886	0.701050
C43	C	0.089863	-1.126875	0.600555
C44	C	0.176439	-1.066127	0.550311
C45	C	0.263019	-1.005390	0.600563
C46	C	0.003293	-1.187617	0.550295
C47	C	0.003287	-1.187609	0.449793
C48	C	0.089858	-1.126857	0.399548
C49	C	0.176440	-1.066117	0.449806
C50	C	0.263016	-1.005369	0.399563
C51	C	0.349593	-0.944624	0.449819
C52	C	0.349590	-0.944638	0.550318
C53	C	0.089861	-1.126843	0.299049
C54	C	0.263017	-1.005358	0.299058
H55	H	-0.215045	-0.909483	0.000125
O56	O	0.536749	-0.633107	0.000031
H57	H	0.543445	-0.675480	0.065104
O58	O	-0.090108	-1.253111	0.395594
H59	H	-0.036315	-1.297275	0.349792
H60	H	-0.067188	-1.237080	0.591206
O61	O	-0.398547	-0.973574	-0.166804
H62	H	-0.351589	-0.903107	-0.166635
O63	O	-0.003538	-1.192342	0.244858
H64	H	-0.065626	-1.153975	0.199093
H65	H	-0.258647	-1.146618	0.145481
H66	H	-0.028255	-0.810640	0.000051
H67	H	0.333514	-0.955886	0.258155
O68	O	-0.398624	-0.973534	0.166935
H69	H	-0.351687	-0.903060	0.166773
O70	O	-0.448142	-1.246152	0.000168
H71	H	-0.420517	-1.282136	0.065579
H72	H	-0.148221	-0.679566	0.000060
H73	H	0.393314	-0.774383	0.000033
H74	H	-0.152807	-0.508917	0.000103
O75	O	-0.248426	-1.158641	-0.166786
H76	H	-0.275737	-1.122290	-0.232044
O77	O	-0.071471	-0.348062	0.000081
H78	H	-0.126685	-0.370903	0.065163
O79	O	0.411502	-0.306535	0.000068
H80	H	0.390012	-0.234913	0.000081
H81	H	0.501096	-0.452680	0.000031
H82	H	0.420090	-0.895166	0.408899
H83	H	0.420079	-0.895182	0.591243
H84	H	0.333505	-0.955941	0.741990
O85	O	-0.003508	-1.192406	0.755234
H86	H	0.011033	-1.182207	0.833560
