data_functionalizedCrystal
_audit_creation_method	'MofGen! by Chris Wilmer'
_symmetry_space_group_name_H-M	'P1'
_symmetry_Int_Tables_number	1
_symmetry_cell_setting	triclinic
loop_
_symmetry_equiv_pos_as_xyz
  x,y,z
_cell_length_a	15.944551
_cell_length_b	27.732048
_cell_length_c	14.421503
_cell_angle_alpha	89.999321
_cell_angle_beta	89.996859
_cell_angle_gamma	83.070697
loop_
_atom_site_label
_atom_site_type_symbol
_atom_site_fract_x
_atom_site_fract_y
_atom_site_fract_z
O1	O	1.113714	0.062334	-0.077025
O2	O	0.869064	0.070020	-0.077050
O3	O	0.998987	-0.004187	-0.077019
O4	O	0.983791	0.136540	-0.077056
O5	O	0.998966	-0.004176	0.077204
O6	O	0.869042	0.070031	0.077174
O7	O	1.113693	0.062345	0.077198
Cu8	Cu	0.991366	0.066189	0.091268
Cu9	Cu	0.991391	0.066176	-0.091119
O10	O	0.983769	0.136552	0.077168
C11	C	0.837763	0.069706	0.000059
C12	C	0.744530	0.068749	0.000051
C13	C	0.530305	0.020466	0.000081
C14	C	0.469002	0.042882	-0.075965
C15	C	0.573827	0.067019	0.000062
C16	C	0.469003	0.042904	0.076087
C17	C	0.408936	0.065344	0.000077
C18	C	0.513752	0.089447	-0.076047
C19	C	0.513759	0.089463	0.076074
C20	C	0.452474	0.111912	0.000009
C21	C	0.668816	0.067983	0.000053
C22	C	0.313947	0.064384	0.000080
C23	C	0.998658	-0.022190	0.000095
C24	C	0.997697	-0.075849	0.000103
C25	C	1.068426	-0.414358	0.000062
C26	C	1.064862	-0.616033	0.000049
O27	O	1.129539	-0.647008	0.000015
N28	N	0.987823	-0.635490	0.000042
C29	C	0.911669	-0.604525	0.000032
O30	O	0.846061	-0.625703	0.000017
C31	C	0.915234	-0.402851	0.000039
C32	C	0.992278	-0.383397	0.000055
C33	C	1.145464	-0.394903	0.000077
C34	C	1.146354	-0.344487	0.000086
C35	C	1.070206	-0.313526	0.000079
C36	C	0.993168	-0.332981	0.000064
C37	C	0.839081	-0.371887	0.000023
C38	C	0.839979	-0.321466	0.000022
C39	C	0.917024	-0.302012	0.000038
C40	C	0.917911	-0.251604	0.000065
N41	N	0.994950	-0.232147	0.000072
C42	C	1.071098	-0.263108	0.000079
C43	C	0.909803	-0.710408	0.000031
C44	C	0.908912	-0.760826	0.000031
C45	C	1.062105	-0.772330	0.000045
C46	C	1.062995	-0.721911	0.000052
C47	C	0.986842	-0.690950	0.000038
C48	C	1.072961	-0.157231	0.000097
C49	C	1.073845	-0.106810	0.000109
C50	C	0.920652	-0.095310	0.000090
C51	C	0.919768	-0.145727	0.000083
C52	C	0.995930	-0.176686	0.000083
O53	O	0.853269	-0.220600	0.000089
O54	O	1.136697	-0.241921	0.000074
C55	C	1.067536	-0.464774	0.000054
C56	C	0.990498	-0.484228	0.000039
C57	C	0.914350	-0.453268	0.000032
C58	C	0.989607	-0.534647	0.000039
C59	C	1.065754	-0.565608	0.000045
C60	C	1.142794	-0.546150	0.000052
C61	C	1.143684	-0.495734	0.000061
C62	C	0.837311	-0.472725	0.000025
C63	C	0.836427	-0.523141	0.000018
C64	C	0.912575	-0.554102	0.000024
C65	C	1.144993	0.062658	0.000087
C66	C	1.238227	0.063615	0.000090
C67	C	0.984099	0.154554	0.000051
C68	C	0.985059	0.208213	0.000038
N69	N	0.991354	0.066198	0.219549
N70	N	0.991409	0.066163	-0.219401
C71	C	0.931267	0.100495	0.469189
C72	C	1.007044	0.109880	0.530996
C73	C	0.991374	0.066186	0.408710
C74	C	0.915616	0.056813	0.530997
C75	C	0.991387	0.066176	0.591432
C76	C	1.067190	0.075592	0.469157
C77	C	0.975712	0.022507	0.469153
C78	C	1.051545	0.031872	0.530932
C79	C	0.991366	0.066193	0.303449
C80	C	0.991405	0.066169	0.696691
H81	H	0.533491	0.109118	-0.140408
C82	C	0.754327	-0.393275	-0.000001
C83	C	0.691241	-0.381586	0.080067
C84	C	0.606479	-0.402970	0.080042
C85	C	0.584802	-0.436043	-0.000051
C86	C	0.647890	-0.447733	-0.080125
C87	C	0.732652	-0.426349	-0.080100
H88	H	0.707286	-0.357102	0.139363
H89	H	0.559778	-0.394316	0.139319
H90	H	0.522056	-0.451873	-0.000070
H91	H	0.631845	-0.472217	-0.139421
H92	H	0.779353	-0.435003	-0.139376
C93	C	0.406977	0.164155	-0.000064
C94	C	0.420941	0.198779	-0.080580
C95	C	0.375438	0.251020	-0.080661
C96	C	0.315970	0.268636	-0.000226
C97	C	0.302003	0.234010	0.080295
C98	C	0.347507	0.181770	0.080376
H99	H	0.464965	0.185740	-0.140127
H100	H	0.385777	0.276652	-0.140269
H101	H	0.282286	0.307307	-0.000287
H102	H	0.257979	0.247050	0.139843
H103	H	0.337167	0.156138	0.139984
C104	C	0.540612	0.116045	0.162915
C105	C	0.523285	0.096509	0.260128
C106	C	0.550143	0.123085	0.346977
C107	C	0.594329	0.169198	0.336614
C108	C	0.611658	0.188737	0.239397
C109	C	0.584800	0.162160	0.152547
H110	H	0.490574	0.062371	0.267803
H111	H	0.537315	0.108621	0.418944
H112	H	0.614211	0.188872	0.400905
H113	H	0.644369	0.222874	0.231722
H114	H	0.597629	0.176624	0.080581
H115	H	0.851544	0.048890	0.558163
H116	H	1.020304	0.146814	0.558160
C117	C	0.442204	0.016303	0.162942
C118	C	0.477115	-0.037217	0.179639
C119	C	0.450321	-0.063822	0.266488
C120	C	0.388616	-0.036906	0.336642
C121	C	0.353702	0.016617	0.319947
C122	C	0.380496	0.043222	0.233098
H123	H	0.522795	-0.057144	0.127705
H124	H	0.476167	-0.103443	0.278846
H125	H	0.368782	-0.056600	0.400933
H126	H	0.308022	0.036544	0.371881
H127	H	0.354650	0.082843	0.220740
C128	C	1.158598	-0.085411	0.000123
C129	C	1.180289	-0.052328	-0.079953
C130	C	1.265039	-0.030931	-0.079941
C131	C	1.328097	-0.042615	0.000146
C132	C	1.306407	-0.075699	0.080228
C133	C	1.221658	-0.097097	0.080216
H134	H	1.133608	-0.043677	-0.139244
H135	H	1.281095	-0.006440	-0.139223
H136	H	1.390834	-0.026776	0.000155
H137	H	1.353088	-0.084350	0.139519
H138	H	1.205602	-0.121588	0.139499
H139	H	1.134979	-0.182432	0.000094
C140	C	1.231107	-0.323093	0.000085
C141	C	1.294173	-0.334780	0.080165
C142	C	1.378931	-0.313391	0.080157
C143	C	1.400623	-0.280317	0.000070
C144	C	1.337555	-0.268629	-0.080016
C145	C	1.252797	-0.290017	-0.080008
H146	H	1.278116	-0.359265	0.139456
H147	H	1.425618	-0.322044	0.139442
H148	H	1.463366	-0.264484	0.000064
H149	H	1.353612	-0.244144	-0.139307
H150	H	1.206111	-0.281365	-0.139294
C151	C	1.229236	-0.428954	0.000090
C152	C	1.292527	-0.426758	0.080188
C153	C	1.376306	-0.460805	0.080209
C154	C	1.396794	-0.497049	0.000132
C155	C	1.333502	-0.499247	-0.079972
C156	C	1.249723	-0.465200	-0.079993
H157	H	1.277362	-0.399926	0.139471
H158	H	1.423159	-0.459178	0.139508
H159	H	1.458813	-0.522253	0.000148
H160	H	1.348667	-0.526079	-0.139255
H161	H	1.202870	-0.466827	-0.139292
H162	H	1.125732	-0.706075	0.000065
C163	C	1.153767	0.086358	0.432624
C164	C	1.169746	0.088373	0.327464
C165	C	1.256320	0.099141	0.290930
C166	C	1.326915	0.107892	0.359555
C167	C	1.310938	0.105877	0.464721
C168	C	1.224364	0.095109	0.501256
H169	H	1.117486	0.081895	0.276658
H170	H	1.268147	0.100633	0.213078
H171	H	1.391002	0.115863	0.332510
H172	H	1.363198	0.112355	0.515527
H173	H	1.212537	0.093618	0.579107
H174	H	0.775301	-0.447521	0.000017
H175	H	1.124107	-0.797547	0.000051
C176	C	0.824161	-0.782221	0.000024
C177	C	0.761081	-0.770537	0.080099
C178	C	0.676327	-0.791930	0.080087
C179	C	0.654653	-0.825007	-0.000000
C180	C	0.717734	-0.836693	-0.080081
C181	C	0.802488	-0.815300	-0.080069
H182	H	0.777125	-0.746050	0.139390
H183	H	0.629631	-0.783279	0.139368
H184	H	0.591913	-0.840843	-0.000009
H185	H	0.701691	-0.861180	-0.139372
H186	H	0.849185	-0.823951	-0.139350
C187	C	0.575990	-0.031733	-0.000002
C188	C	0.635459	-0.049293	0.080459
C189	C	0.681145	-0.101491	0.080372
C190	C	0.667362	-0.136129	-0.000177
C191	C	0.607890	-0.118569	-0.080644
C192	C	0.562204	-0.066372	-0.080556
H193	H	0.645665	-0.023651	0.140092
H194	H	0.725170	-0.114489	0.139939
H195	H	0.701182	-0.174768	-0.000242
H196	H	0.597685	-0.144211	-0.140276
H197	H	0.518179	-0.053373	-0.140124
H198	H	0.449158	0.023187	-0.140246
H199	H	0.847786	-0.685203	0.000019
H200	H	0.962429	-0.014416	0.441967
H201	H	0.858655	-0.070093	0.000088
H202	H	1.206421	-0.479900	0.000073
H203	H	0.880487	0.129533	0.442079
C204	C	1.120290	-0.007332	0.567336
C205	C	1.213661	-0.004907	0.542689
C206	C	1.282408	-0.044109	0.579095
C207	C	1.257784	-0.085737	0.640148
C208	C	1.164408	-0.088164	0.664799
C209	C	1.095661	-0.048962	0.628393
H210	H	1.231894	0.025910	0.497490
H211	H	1.351531	-0.042312	0.560846
H212	H	1.308675	-0.114757	0.667098
H213	H	1.146176	-0.118981	0.709997
H214	H	1.026538	-0.050759	0.646641
H215	H	0.777965	-0.296260	0.000009
H216	H	1.204796	-0.571368	0.000062
C217	C	0.835018	-0.167126	0.000061
C218	C	0.813354	-0.200194	-0.080045
C219	C	0.728601	-0.221588	-0.080082
C220	C	0.665511	-0.209913	-0.000014
C221	C	0.687173	-0.176843	0.080098
C222	C	0.771926	-0.155450	0.080136
H223	H	0.860059	-0.208838	-0.139322
H224	H	0.712566	-0.246069	-0.139387
H225	H	0.602771	-0.225750	-0.000042
H226	H	0.640468	-0.168199	0.139375
H227	H	0.787961	-0.130969	0.139440
C228	C	0.751670	-0.544536	0.000001
C229	C	0.688584	-0.532856	0.080071
C230	C	0.603830	-0.554248	0.080045
C231	C	0.582161	-0.587321	-0.000053
C232	C	0.645248	-0.599002	-0.080129
C233	C	0.730003	-0.577610	-0.080103
H234	H	0.704623	-0.508372	0.139369
H235	H	0.557128	-0.545601	0.139323
H236	H	0.519420	-0.603156	-0.000072
H237	H	0.629209	-0.623486	-0.139427
H238	H	0.776704	-0.586258	-0.139381
