data_functionalizedCrystal
_audit_creation_method	'MofGen! by Chris Wilmer'
_symmetry_space_group_name_H-M	'P1'
_symmetry_Int_Tables_number	1
_symmetry_cell_setting	triclinic
loop_
_symmetry_equiv_pos_as_xyz
  x,y,z
_cell_length_a	14.519709
_cell_length_b	17.699083
_cell_length_c	12.996460
_cell_angle_alpha	90.006875
_cell_angle_beta	89.999498
_cell_angle_gamma	96.518420
loop_
_atom_site_label
_atom_site_type_symbol
_atom_site_fract_x
_atom_site_fract_y
_atom_site_fract_z
O1	O	1.223448	-0.099215	-0.085435
O2	O	1.556781	0.234119	0.247898
O3	O	1.890114	0.567452	0.581232
O4	O	0.954921	-0.110898	-0.085467
O5	O	1.288255	0.222435	0.247867
O6	O	1.621588	0.555768	0.581200
O7	O	1.096771	0.005111	-0.085441
O8	O	1.430104	0.338444	0.247892
O9	O	1.763438	0.671778	0.581226
O10	O	1.081598	-0.215224	-0.085461
O11	O	1.414931	0.118109	0.247873
O12	O	1.748265	0.451443	0.581206
O13	O	1.096755	0.005117	0.085693
O14	O	1.430088	0.338450	0.419026
O15	O	1.763421	0.671783	0.752360
O16	O	0.954905	-0.110893	0.085667
O17	O	1.288238	0.222441	0.419000
O18	O	1.621572	0.555774	0.752334
O19	O	1.223432	-0.099209	0.085699
O20	O	1.556765	0.234125	0.419032
O21	O	1.890098	0.567458	0.752365
Cu22	Cu	1.089167	-0.105050	0.101309
Cu23	Cu	1.422500	0.228283	0.434642
Cu24	Cu	1.755833	0.561617	0.767976
Cu25	Cu	1.089186	-0.105057	-0.101077
Cu26	Cu	1.422519	0.228276	0.232257
Cu27	Cu	1.755853	0.561610	0.565590
O28	O	1.081582	-0.215218	0.085673
O29	O	1.414915	0.118115	0.419006
O30	O	1.748248	0.451449	0.752340
C31	C	0.920556	-0.110351	0.000096
C32	C	1.253889	0.222982	0.333430
C33	C	1.587222	0.556316	0.666763
C34	C	0.818181	-0.108719	0.000084
C35	C	1.151515	0.224614	0.333418
C36	C	1.484848	0.557947	0.666751
C37	C	1.096219	0.033312	0.000126
C38	C	1.429553	0.366646	0.333459
C39	C	1.762886	0.699979	0.666793
C40	C	1.094588	0.117335	0.000126
C41	C	1.427922	0.450668	0.333460
C42	C	1.761255	0.784002	0.666793
C43	C	1.082134	-0.243420	0.000104
C44	C	1.415467	0.089914	0.333437
C45	C	1.748800	0.423247	0.666770
C46	C	1.083765	-0.327442	0.000097
C47	C	1.417098	0.005891	0.333430
C48	C	1.750431	0.339224	0.666763
C49	C	0.443311	-0.102712	0.000132
C50	C	0.776644	0.230621	0.333465
C51	C	1.109978	0.563954	0.666798
C52	C	0.547612	-0.104380	0.000118
C53	C	0.880945	0.228953	0.333452
C54	C	1.214279	0.562286	0.666785
C55	C	0.630743	-0.105716	0.000107
C56	C	0.964076	0.227618	0.333440
C57	C	1.297410	0.560951	0.666774
C58	C	0.735050	-0.107384	0.000096
C59	C	1.068384	0.225949	0.333429
C60	C	1.401717	0.559283	0.666762
C61	C	1.257797	-0.099756	0.000134
C62	C	1.591130	0.233577	0.333467
C63	C	1.924464	0.566910	0.666800
C64	C	1.360171	-0.101388	0.000139
C65	C	1.693505	0.231945	0.333472
C66	C	2.026838	0.565279	0.666805
N67	N	1.089160	-0.105045	0.243656
N68	N	1.422493	0.228289	0.576989
N69	N	1.755827	0.561622	0.910323
C70	C	1.177851	0.165718	0.000138
C71	C	1.511184	0.499051	0.333471
C72	C	1.844518	0.832384	0.666804
C73	C	1.176313	0.244665	0.000128
C74	C	1.509646	0.577999	0.333462
C75	C	1.842980	0.911332	0.666795
C76	C	1.091511	0.275229	0.000115
C77	C	1.424844	0.608562	0.333448
C78	C	1.758178	0.941896	0.666782
C79	C	1.008242	0.226840	0.000101
C80	C	1.341575	0.560174	0.333434
C81	C	1.674909	0.893507	0.666767
C82	C	1.009781	0.147894	0.000103
C83	C	1.343114	0.481227	0.333436
C84	C	1.676448	0.814561	0.666769
C85	C	1.002033	0.545221	0.000092
C86	C	1.335367	0.878554	0.333425
C87	C	1.668700	1.211888	0.666758
C88	C	1.000501	0.624173	0.000093
C89	C	1.333834	0.957507	0.333426
C90	C	1.667167	1.290840	0.666760
C91	C	1.168566	0.641992	0.000117
C92	C	1.501899	0.975326	0.333451
C93	C	1.835232	1.308659	0.666784
C94	C	1.170105	0.563046	0.000119
C95	C	1.503438	0.896380	0.333453
C96	C	1.836771	1.229713	0.666786
C97	C	1.086836	0.514664	0.000099
C98	C	1.420169	0.847998	0.333433
C99	C	1.753502	1.181331	0.666766
C100	C	1.088505	0.429060	0.000108
C101	C	1.421838	0.762394	0.333441
C102	C	1.755171	1.095727	0.666774
C103	C	1.089841	0.360831	0.000114
C104	C	1.423175	0.694165	0.333448
C105	C	1.756508	1.027498	0.666781
C106	C	1.089178	-0.105060	0.663470
C107	C	1.422511	0.228273	0.996804
C108	C	1.755845	0.561607	1.330137
C109	C	1.089170	-0.105058	0.546665
C110	C	1.422504	0.228275	0.879998
C111	C	1.755837	0.561608	1.213332
C112	C	1.089169	-0.105053	0.453567
C113	C	1.422503	0.228280	0.786900
C114	C	1.755836	0.561614	1.120233
C115	C	1.089161	-0.105050	0.336754
C116	C	1.422494	0.228283	0.670088
C117	C	1.755828	0.561617	1.003421
N118	N	1.089191	-0.105059	0.756576
N119	N	1.422525	0.228274	1.089910
N120	N	1.755858	0.561607	1.423243
H121	H	1.246907	0.140840	0.000155
H122	H	1.580240	0.474173	0.333488
H123	H	1.913573	0.807506	0.666821
H124	H	1.244114	0.284056	0.000140
H125	H	1.577447	0.617389	0.333473
H126	H	1.910781	0.950723	0.666806
Cl127	Cl	0.901633	0.265263	0.000071
Cl128	Cl	1.234966	0.598596	0.333405
Cl129	Cl	1.568300	0.931930	0.666738
H130	H	1.236367	0.681395	0.000128
H131	H	1.569700	1.014728	0.333462
H132	H	1.903034	1.348062	0.666795
H133	H	0.934231	0.505837	0.000076
H134	H	1.267564	0.839171	0.333409
H135	H	1.600897	1.172504	0.666743
Cl136	Cl	0.905103	0.087069	0.000085
Cl137	Cl	1.238436	0.420403	0.333418
Cl138	Cl	1.571770	0.753736	0.666751
Cl139	Cl	0.893884	0.662594	0.000074
Cl140	Cl	1.227218	0.995928	0.333407
Cl141	Cl	1.560551	1.329261	0.666741
H142	H	1.239159	0.538166	0.000135
H143	H	1.572492	0.871500	0.333468
H144	H	1.905825	1.204833	0.666802
