data_functionalizedCrystal
_audit_creation_method	'MofGen! by Chris Wilmer'
_symmetry_space_group_name_H-M	'P1'
_symmetry_Int_Tables_number	1
_symmetry_cell_setting	triclinic
loop_
_symmetry_equiv_pos_as_xyz
  x,y,z
_cell_length_a	12.811438
_cell_length_b	15.995350
_cell_length_c	11.892295
_cell_angle_alpha	93.891509
_cell_angle_beta	99.325151
_cell_angle_gamma	96.229932
loop_
_atom_site_label
_atom_site_type_symbol
_atom_site_fract_x
_atom_site_fract_y
_atom_site_fract_z
O1	O	1.396167	-0.110008	0.049155
O2	O	1.088334	-0.124056	0.017593
O3	O	1.250665	0.004875	0.034232
O4	O	1.233836	-0.238939	0.032515
O5	O	1.264168	0.015609	0.223618
O6	O	1.101837	-0.113322	0.206979
O7	O	1.409670	-0.099274	0.238541
Zn8	Zn	1.257897	-0.104594	0.252829
Zn9	Zn	1.240106	-0.118736	0.003305
O10	O	1.247339	-0.228205	0.221902
C11	C	1.055693	-0.118230	0.108247
C12	C	0.938318	-0.116853	0.096212
C13	C	0.765520	-0.120762	-0.023973
C14	C	0.875804	-0.122056	-0.012674
C15	C	0.890541	-0.110353	0.193806
C16	C	0.780257	-0.109059	0.182508
C17	C	0.717749	-0.114265	0.073615
C18	C	0.607462	-0.112977	0.062317
C19	C	0.622202	-0.101269	0.268797
C20	C	0.732486	-0.102563	0.280096
C21	C	1.241283	-0.264765	0.127281
C22	C	1.243369	-0.357711	0.127498
C23	C	1.250859	-0.695441	0.128248
C24	C	1.366439	-0.647761	0.139679
C25	C	1.364383	-0.551051	0.139898
C26	C	1.247144	-0.527889	0.127875
C27	C	1.197832	-0.562976	0.230174
C28	C	1.200742	-0.659600	0.230556
C29	C	1.182998	-0.672160	0.014943
C30	C	1.182924	-0.575295	0.013523
C31	C	1.245038	-0.433196	0.127668
C32	C	1.252962	-0.790134	0.128463
C33	C	1.442310	-0.105100	0.147885
C34	C	1.559685	-0.106478	0.159912
C35	C	1.256720	0.041435	0.128850
C36	C	1.254634	0.134380	0.128626
N37	N	1.270047	-0.094942	0.423124
N38	N	1.227965	-0.128381	-0.166989
C39	C	1.143298	-0.195587	0.646830
C40	C	1.151816	-0.188833	0.766042
C41	C	1.295604	-0.074682	0.780761
C42	C	1.287086	-0.081437	0.661549
C43	C	1.210930	-0.141891	0.594588
C44	C	1.202408	-0.148641	0.475374
C45	C	1.346201	-0.034495	0.490095
C46	C	1.354718	-0.027741	0.609307
H47	H	0.583296	-0.095983	0.348260
H48	H	1.357616	-0.025468	0.835297
N49	N	1.413717	-0.520765	0.048441
N50	N	1.494112	-0.466815	0.069563
H51	H	1.528966	-0.445429	0.004973
N52	N	1.260149	-0.676715	0.337303
N53	N	1.273041	-0.751036	0.356883
H54	H	1.315001	-0.763121	0.432275
H55	H	1.401268	0.009230	0.447546
H56	H	1.416726	0.021477	0.663840
H57	H	1.116215	-0.691769	0.226768
H58	H	0.941454	-0.106105	0.282462
H59	H	0.714624	-0.125010	-0.112638
H60	H	1.417976	-0.662961	0.221446
H61	H	1.097702	-0.704148	0.005484
N62	N	0.924616	-0.128698	-0.112346
N63	N	1.023084	-0.129852	-0.102247
H64	H	1.057561	-0.134541	-0.172643
N65	N	1.065521	-0.257333	0.578408
N66	N	1.057929	-0.263357	0.471972
H67	H	1.002998	-0.306966	0.423647
N68	N	0.543597	-0.118281	-0.048900
N69	N	0.445131	-0.117123	-0.058978
H70	H	0.400027	-0.120865	-0.137528
N71	N	1.090139	-0.545224	0.224128
N72	N	1.048432	-0.506420	0.144166
H73	H	0.972372	-0.493881	0.139892
H74	H	1.096745	-0.232559	0.808574
N75	N	0.796361	-0.097262	0.391307
N76	N	0.849801	-0.155689	0.419628
H77	H	0.894915	-0.151950	0.498172
N78	N	1.417461	-0.676384	0.048323
N79	N	1.369242	-0.732262	-0.026276
H80	H	1.405275	-0.752482	-0.090802
H81	H	1.415042	-0.518683	0.222184
N82	N	1.254701	-0.521531	0.336234
N83	N	1.259058	-0.443278	0.354984
H84	H	1.299226	-0.414005	0.429887
N85	N	1.223103	-0.703624	-0.083020
N86	N	1.316665	-0.679880	-0.094675
H87	H	1.345002	-0.702098	-0.163856
N88	N	1.227815	-0.546425	-0.081506
N89	N	1.306812	-0.491152	-0.065163
H90	H	1.338445	-0.470689	-0.132285
H91	H	1.096965	-0.560499	-0.001778
N92	N	1.124624	-0.210402	0.406990
N93	N	1.127033	-0.287037	0.420459
H94	H	1.072099	-0.330661	0.372166
