data_functionalizedCrystal
_audit_creation_method	'MofGen! by Chris Wilmer'
_symmetry_space_group_name_H-M	'P1'
_symmetry_Int_Tables_number	1
_symmetry_cell_setting	triclinic
loop_
_symmetry_equiv_pos_as_xyz
  x,y,z
_cell_length_a	14.519709
_cell_length_b	12.996460
_cell_length_c	10.654541
_cell_angle_alpha	89.999963
_cell_angle_beta	95.917963
_cell_angle_gamma	90.000602
loop_
_atom_site_label
_atom_site_type_symbol
_atom_site_fract_x
_atom_site_fract_y
_atom_site_fract_z
O1	O	1.224723	0.085432	-0.164615
O2	O	0.956346	0.085464	-0.184001
O3	O	1.096706	0.085441	0.008491
O4	O	1.084363	0.085455	-0.357107
O5	O	1.096688	-0.085693	0.008480
O6	O	0.956328	-0.085670	-0.184012
O7	O	1.224705	-0.085702	-0.164626
Cu8	Cu	1.090515	-0.101312	-0.174320
Cu9	Cu	1.090536	0.101074	-0.174307
O10	O	1.084345	-0.085679	-0.357118
C11	C	0.921973	-0.000099	-0.183103
C12	C	0.819578	-0.000087	-0.180396
N13	N	1.090506	-0.243659	-0.174329
C14	C	0.444630	-0.000135	-0.170429
C15	C	0.548952	-0.000121	-0.173197
C16	C	0.632101	-0.000110	-0.175412
C17	C	0.736429	-0.000098	-0.178181
C18	C	1.090511	-0.336765	-0.174332
C19	C	1.090519	-0.453570	-0.174323
C20	C	1.090531	-0.546668	-0.174310
C21	C	1.090540	-0.663481	-0.174302
C22	C	1.259078	-0.000136	-0.165524
C23	C	1.361474	-0.000141	-0.168231
C24	C	1.095791	-0.000125	0.055275
C25	C	1.093081	-0.000123	0.194692
N26	N	1.090552	0.243421	-0.174289
C27	C	1.085260	-0.000110	-0.403902
C28	C	1.087970	-0.000106	-0.543319
C29	C	1.260920	-0.000156	0.224277
C30	C	1.343562	-0.000174	0.304566
C31	C	1.341010	-0.000171	0.435559
C32	C	1.255806	-0.000146	0.486265
C33	C	1.173164	-0.000127	0.405976
C34	C	1.175725	-0.000134	0.274981
C35	C	1.005328	-0.000087	0.376392
C36	C	1.007878	-0.000098	0.245398
C37	C	0.920124	-0.000063	0.427098
C38	C	0.837480	-0.000052	0.346809
C39	C	0.840036	-0.000056	0.215808
C40	C	0.925236	-0.000080	0.165109
H41	H	1.263006	-0.000173	0.117616
H42	H	0.918052	-0.000053	0.533761
N43	N	0.750447	-0.000019	0.398578
N44	N	0.694552	0.072126	0.374034
H45	H	0.633082	0.072147	0.410597
H46	H	1.253736	-0.000130	0.592928
N47	N	0.755608	-0.000022	0.133816
N48	N	0.679548	0.000008	0.179112
H49	H	0.619918	0.000034	0.121211
H50	H	0.927325	-0.000090	0.058449
H51	H	1.412933	-0.000203	0.263266
H52	H	1.408304	-0.000177	0.500931
