data_functionalizedCrystal
_audit_creation_method	'MofGen! by Chris Wilmer'
_symmetry_space_group_name_H-M	'P1'
_symmetry_Int_Tables_number	1
_symmetry_cell_setting	triclinic
loop_
_symmetry_equiv_pos_as_xyz
  x,y,z
_cell_length_a	15.297327
_cell_length_b	14.908618
_cell_length_c	14.908308
_cell_angle_alpha	89.826377
_cell_angle_beta	102.308214
_cell_angle_gamma	83.009950
loop_
_atom_site_label
_atom_site_type_symbol
_atom_site_fract_x
_atom_site_fract_y
_atom_site_fract_z
Zn1	Zn	-0.470288	-1.259446	-0.664000
Zn2	Zn	-0.612817	-1.242009	-0.536789
Zn3	Zn	-0.452976	-1.120922	-0.502182
Zn4	Zn	-0.611742	-1.083234	-0.678262
O5	O	-0.536956	-1.176403	-0.595308
O6	O	-0.496890	-1.381554	-0.655640
O7	O	-0.584819	-1.234422	-0.405271
O8	O	-0.329180	-1.162368	-0.503196
O9	O	-0.601606	-1.368743	-0.562179
O10	O	-0.341899	-1.264141	-0.622083
O11	O	-0.467384	-1.145460	-0.379845
O12	O	-0.466342	-0.991501	-0.517025
O13	O	-0.599773	-1.098133	-0.803298
O14	O	-0.582986	-0.963812	-0.646390
O15	O	-0.495848	-1.227596	-0.792820
O16	O	-0.738767	-1.197877	-0.576008
O17	O	-0.737977	-1.081225	-0.679948
C18	C	-0.522669	-0.945395	-0.579501
C19	C	-0.516580	-0.846564	-0.572763
C20	C	-0.626771	-0.632043	-0.694684
C21	C	-0.621053	-0.539181	-0.688357
C22	C	-0.499422	-0.567978	-0.553787
C23	C	-0.505140	-0.660840	-0.560114
C24	C	-0.568818	-0.692868	-0.630564
C25	C	-0.574540	-0.785731	-0.636886
C26	C	-0.452906	-0.814527	-0.502321
C27	C	-0.447187	-0.721665	-0.495994
C28	C	-0.771069	-1.133592	-0.633302
C29	C	-0.871231	-1.115357	-0.649592
C30	C	-1.155109	-1.307079	-0.479217
C31	C	-1.061003	-1.324212	-0.463908
C32	C	-1.013555	-1.272000	-0.510328
C33	C	-1.060223	-1.202651	-0.572060
C34	C	-1.154339	-1.185512	-0.587365
C35	C	-1.012785	-1.150433	-0.618476
C36	C	-1.059453	-1.081085	-0.680207
C37	C	-1.153559	-1.063949	-0.695511
C38	C	-1.201007	-1.116161	-0.649091
C39	C	-0.918669	-1.167572	-0.603170
C40	C	-0.917899	-1.046006	-0.711318
C41	C	-1.012005	-1.028873	-0.726627
C42	C	-0.301931	-1.219404	-0.557188
C43	C	-0.201777	-1.237728	-0.540943
C44	C	-0.549621	-1.160606	-0.831890
C45	C	-0.555019	-1.153874	-0.932708
C46	C	-0.551292	-0.408314	-0.611171
C47	C	-0.557381	-0.507145	-0.617910
C48	C	-0.456922	-1.276035	-1.111241
C49	C	-0.461990	-1.269713	-1.205967
C50	C	-0.570218	-1.134906	-1.216887
C51	C	-0.565150	-1.141227	-1.122161
C52	C	-0.508501	-1.211795	-1.069341
C53	C	-0.503438	-1.218120	-0.974614
C54	C	-0.611660	-1.083309	-0.985535
C55	C	-0.616729	-1.076988	-1.080261
C56	C	-0.524278	-1.192201	-0.359640
C57	C	-0.518637	-1.199152	-0.258794
H58	H	-0.405718	-0.864061	-0.450108
H59	H	-0.457313	-1.275581	-0.931609
F60	F	-1.011342	-1.398020	-0.398218
H61	H	-0.662849	-1.019532	-1.123280
F62	F	-0.694547	-0.666131	-0.769653
F63	F	-0.867406	-0.990430	-0.760719
H64	H	-0.653662	-1.031002	-0.951411
H65	H	-0.668242	-0.489659	-0.740571
H66	H	-0.447574	-0.541884	-0.496435
H67	H	-1.050016	-0.972409	-0.776890
F68	F	-1.301134	-1.097667	-0.665074
F69	F	-0.379418	-0.687568	-0.421024
F70	F	-0.913420	-1.290413	-0.494240
F71	F	-0.642312	-0.819816	-0.711862
H72	H	-0.410801	-1.333498	-1.068235
F73	F	-1.205611	-1.362636	-0.429819
F74	F	-0.869012	-1.241375	-0.537472
F75	F	-0.630496	-1.059804	-1.273115
F76	F	-1.203224	-0.990139	-0.761207
H77	H	-0.419987	-1.322022	-1.240077
