data_functionalizedCrystal
_audit_creation_method	'MofGen! by Chris Wilmer'
_symmetry_space_group_name_H-M	'P1'
_symmetry_Int_Tables_number	1
_symmetry_cell_setting	triclinic
loop_
_symmetry_equiv_pos_as_xyz
  x,y,z
_cell_length_a	11.792241
_cell_length_b	27.732048
_cell_length_c	10.268362
_cell_angle_alpha	89.989776
_cell_angle_beta	89.999626
_cell_angle_gamma	83.418036
loop_
_atom_site_label
_atom_site_type_symbol
_atom_site_fract_x
_atom_site_fract_y
_atom_site_fract_z
O1	O	1.504790	0.066248	-0.108189
O2	O	1.174230	0.073076	-0.108221
O3	O	1.349776	-0.000675	-0.108179
O4	O	1.329243	0.139999	-0.108231
O5	O	1.349761	-0.000678	0.108421
O6	O	1.174215	0.073073	0.108379
O7	O	1.504775	0.066245	0.108411
Cu8	Cu	1.339493	0.069659	0.128173
Cu9	Cu	1.339511	0.069662	-0.127983
O10	O	1.329228	0.139996	0.108370
C11	C	1.131945	0.072645	0.000075
C12	C	1.005973	0.071362	0.000064
C13	C	0.775336	0.069001	0.000103
C14	C	0.903679	0.070313	0.000082
C15	C	1.349338	-0.018686	0.000124
C16	C	1.348040	-0.072348	0.000135
C17	C	1.443606	-0.410609	0.000077
C18	C	1.438790	-0.612297	0.000059
O19	O	1.526178	-0.643045	0.000010
N20	N	1.334698	-0.632024	0.000050
C21	C	1.231803	-0.601327	0.000037
O22	O	1.143157	-0.622734	0.000016
C23	C	1.236620	-0.399640	0.000046
C24	C	1.340718	-0.379915	0.000069
C25	C	1.547695	-0.390884	0.000098
C26	C	1.548898	-0.340465	0.000110
C27	C	1.446011	-0.309771	0.000101
C28	C	1.341921	-0.329496	0.000080
C29	C	1.133726	-0.368943	0.000024
C30	C	1.134940	-0.318519	0.000023
C31	C	1.239038	-0.298794	0.000045
C32	C	1.240237	-0.248384	0.000083
N33	N	1.344328	-0.228656	0.000092
C34	C	1.447215	-0.259350	0.000101
C35	C	1.229282	-0.707215	0.000035
C36	C	1.228077	-0.757637	0.000035
C37	C	1.435065	-0.768603	0.000054
C38	C	1.436268	-0.718181	0.000063
C39	C	1.333374	-0.687488	0.000044
C40	C	1.449733	-0.153466	0.000127
C41	C	1.450927	-0.103042	0.000144
C42	C	1.243941	-0.092080	0.000118
C43	C	1.242746	-0.142500	0.000108
C44	C	1.345652	-0.173192	0.000108
O45	O	1.152896	-0.217607	0.000117
O46	O	1.535849	-0.237933	0.000093
C47	C	1.442403	-0.461028	0.000066
C48	C	1.338313	-0.480753	0.000045
C49	C	1.235426	-0.450060	0.000036
C50	C	1.337108	-0.531175	0.000045
C51	C	1.439996	-0.561868	0.000054
C52	C	1.544087	-0.542141	0.000063
C53	C	1.545290	-0.491722	0.000074
C54	C	1.131334	-0.469787	0.000027
C55	C	1.130140	-0.520207	0.000017
C56	C	1.233027	-0.550900	0.000026
C57	C	1.547059	0.066676	0.000112
C58	C	1.673032	0.067959	0.000114
C59	C	1.329667	0.158007	0.000063
C60	C	1.330965	0.211669	0.000044
N61	N	1.339489	0.069656	0.308339
N62	N	1.339525	0.069661	-0.308148
C63	C	1.339506	0.069661	0.574009
C64	C	1.339493	0.069660	0.426171
H65	H	1.535700	-0.086985	0.000165
H66	H	1.533529	-0.178450	0.000122
O67	O	1.031459	-0.439925	0.000196
C68	C	1.025937	-0.410451	0.112400
H69	H	1.115969	-0.407658	0.149806
H70	H	0.974406	-0.427188	0.190945
C71	C	0.857318	-0.362850	0.032392
C72	C	0.967898	-0.359416	0.078329
H73	H	0.821512	-0.331369	0.011379
H74	H	0.861035	-0.382708	-0.043199
H75	H	0.814390	-0.376799	0.097854
H76	H	1.010828	-0.345472	0.012862
H77	H	0.964187	-0.339554	0.153909
H78	H	1.518839	-0.793603	0.000062
O79	O	1.126856	-0.776714	-0.000030
C80	C	1.036312	-0.738805	-0.000008
H81	H	1.067524	-0.704470	-0.041008
H82	H	1.004610	-0.731762	0.103902
C83	C	0.899732	-0.795461	-0.034609
C84	C	0.938065	-0.753291	-0.084976
H85	H	0.839126	-0.804397	-0.087016
H86	H	0.960733	-0.821002	-0.034619
H87	H	0.873322	-0.789587	0.051982
H88	H	0.964488	-0.759168	-0.171559
H89	H	0.877067	-0.727752	-0.084983
H90	H	1.631483	-0.415870	0.000100
H91	H	1.145488	-0.682229	0.000019
H92	H	1.048958	-0.384994	-0.000001
H93	H	1.521034	-0.702125	0.000080
O94	O	1.029040	-0.539387	0.000225
C95	C	1.022132	-0.568247	0.112373
H96	H	1.081212	-0.556177	0.190803
H97	H	1.049019	-0.607932	0.087001
C98	C	0.825898	-0.577295	0.066875
C99	C	0.898453	-0.562467	0.163208
H100	H	0.749607	-0.573731	0.098231
H101	H	0.830552	-0.557853	-0.008684
H102	H	0.848318	-0.610364	0.045740
H103	H	0.876042	-0.529396	0.184330
H104	H	0.893792	-0.581903	0.238773
O105	O	1.649950	-0.321252	-0.000060
C106	C	1.656865	-0.292419	-0.112258
H107	H	1.567193	-0.280093	-0.149656
H108	H	1.707460	-0.314558	-0.190810
C109	C	1.827339	-0.262808	-0.032252
C110	C	1.717202	-0.247665	-0.078179
H111	H	1.864562	-0.235202	-0.011234
H112	H	1.822684	-0.282234	0.043336
H113	H	1.869487	-0.281257	-0.097720
H114	H	1.675052	-0.229222	-0.012706
H115	H	1.721852	-0.228234	-0.153756
H116	H	1.051148	-0.293530	0.000006
H117	H	1.157981	-0.158560	0.000126
H118	H	1.160173	-0.067080	0.000115
O119	O	1.646512	-0.472645	0.000029
C120	C	1.737052	-0.510556	0.000066
H121	H	1.705841	-0.544884	-0.040945
H122	H	1.768738	-0.517614	0.103983
C123	C	1.873645	-0.453898	-0.034497
C124	C	1.835313	-0.496060	-0.084878
H125	H	1.934260	-0.444957	-0.086889
H126	H	1.812648	-0.428357	-0.034517
H127	H	1.900042	-0.459786	0.052099
H128	H	1.808904	-0.490170	-0.171466
H129	H	1.896309	-0.521601	-0.084875
H130	H	1.627862	-0.567140	0.000076
