data_functionalizedCrystal
_audit_creation_method	'MofGen! by Chris Wilmer'
_symmetry_space_group_name_H-M	'P1'
_symmetry_Int_Tables_number	1
_symmetry_cell_setting	triclinic
loop_
_symmetry_equiv_pos_as_xyz
  x,y,z
_cell_length_a	16.109302
_cell_length_b	11.026607
_cell_length_c	14.586319
_cell_angle_alpha	89.998207
_cell_angle_beta	89.994552
_cell_angle_gamma	96.023899
loop_
_atom_site_label
_atom_site_type_symbol
_atom_site_fract_x
_atom_site_fract_y
_atom_site_fract_z
O1	O	1.126504	0.155976	-0.076280
O2	O	1.459837	0.489309	0.257054
O3	O	1.793170	0.822643	0.590387
O4	O	0.887350	0.175385	-0.076272
O5	O	1.220684	0.508719	0.257061
O6	O	1.554017	0.842052	0.590394
O7	O	0.987106	-0.010965	-0.076272
O8	O	1.320439	0.322369	0.257061
O9	O	1.653773	0.655702	0.590394
O10	O	1.026748	0.342326	-0.076280
O11	O	1.360081	0.675659	0.257053
O12	O	1.693414	1.008993	0.590387
O13	O	0.987097	-0.010967	0.076209
O14	O	1.320430	0.322366	0.409542
O15	O	1.653763	0.655699	0.742875
O16	O	0.887341	0.175383	0.076208
O17	O	1.220674	0.508716	0.409542
O18	O	1.554008	0.842049	0.742875
O19	O	1.126494	0.155973	0.076201
O20	O	1.459828	0.489306	0.409534
O21	O	1.793161	0.822640	0.742868
Cu22	Cu	1.006917	0.165678	0.090127
Cu23	Cu	1.340250	0.499011	0.423461
Cu24	Cu	1.673583	0.832344	0.756794
Cu25	Cu	1.006928	0.165681	-0.090199
Cu26	Cu	1.340261	0.499014	0.243134
Cu27	Cu	1.673594	0.832348	0.576468
O28	O	1.026738	0.342323	0.076201
O29	O	1.360072	0.675656	0.409534
O30	O	1.693405	1.008990	0.742867
C31	C	0.856253	0.174598	-0.000031
C32	C	1.189586	0.507931	0.333302
C33	C	1.522920	0.841264	0.666636
C34	C	0.763604	0.172240	-0.000028
C35	C	1.096938	0.505573	0.333305
C36	C	1.430271	0.838907	0.666638
C37	C	0.550441	0.166787	0.083080
C38	C	0.883775	0.500120	0.416413
C39	C	1.217108	0.833454	0.749747
C40	C	0.463387	0.164559	0.083077
C41	C	0.796721	0.497892	0.416410
C42	C	1.130054	0.831225	0.749744
C43	C	0.463409	0.164568	-0.083166
C44	C	0.796742	0.497901	0.250167
C45	C	1.130076	0.831235	0.583501
C46	C	0.550461	0.166787	-0.083162
C47	C	0.883794	0.500121	0.250171
C48	C	1.217127	0.833454	0.583505
C49	C	0.593975	0.167903	-0.000036
C50	C	0.927308	0.501236	0.333297
C51	C	1.260642	0.834570	0.666631
C52	C	0.419869	0.163455	-0.000043
C53	C	0.753203	0.496789	0.333290
C54	C	1.086536	0.830122	0.666623
C55	C	0.325482	0.161039	-0.000047
C56	C	0.658815	0.494373	0.333286
C57	C	0.992148	0.827706	0.666619
C58	C	0.688369	0.170317	-0.000032
C59	C	1.021702	0.503650	0.333302
C60	C	1.355035	0.836984	0.666635
C61	C	0.979788	-0.056174	-0.000033
C62	C	1.313122	0.277159	0.333301
C63	C	1.646455	0.610493	0.666634
C64	C	0.957987	-0.190880	-0.000035
C65	C	1.291321	0.142454	0.333298
C66	C	1.624654	0.475787	0.666631
C67	C	1.018183	-0.264709	-0.000038
C68	C	1.351517	0.068625	0.333295
C69	C	1.684850	0.401958	0.666628
C70	C	0.995652	-0.403934	-0.000041
C71	C	1.328986	-0.070601	0.333292
C72	C	1.662319	0.262732	0.666626
C73	C	1.157592	0.156761	-0.000042
C74	C	1.490925	0.490094	0.333291
C75	C	1.824258	0.823427	0.666624
C76	C	1.250240	0.159118	-0.000051
C77	C	1.583574	0.492452	0.333282
C78	C	1.916907	0.825785	0.666615
C79	C	1.034056	0.387533	-0.000041
C80	C	1.367390	0.720866	0.333293
C81	C	1.700723	1.054199	0.666626
C82	C	1.055857	0.522238	-0.000044
C83	C	1.389190	0.855571	0.333289
C84	C	1.722524	1.188905	0.666622
N85	N	1.006915	0.165675	0.216959
N86	N	1.340248	0.499008	0.550292
N87	N	1.673582	0.832341	0.883626
N88	N	1.006935	0.165674	-0.217031
N89	N	1.340268	0.499008	0.116303
N90	N	1.673601	0.832341	0.449636
C91	C	1.051110	0.083186	0.451966
C92	C	1.384443	0.416520	0.785299
C93	C	1.717776	0.749853	1.118632
C94	C	1.051112	0.083183	0.547947
C95	C	1.384445	0.416517	0.881280
C96	C	1.717778	0.749850	1.214614
C97	C	0.962734	0.248166	0.547956
C98	C	1.296068	0.581500	0.881289
C99	C	1.629401	0.914833	1.214623
C100	C	0.962728	0.248163	0.451977
C101	C	1.296061	0.581496	0.785310
C102	C	1.629395	0.914829	1.118643
C103	C	1.006921	0.165674	0.403984
C104	C	1.340254	0.499007	0.737317
C105	C	1.673587	0.832341	1.070651
C106	C	1.006929	0.165675	0.595945
C107	C	1.340262	0.499008	0.929278
C108	C	1.673596	0.832342	1.262611
C109	C	1.006931	0.165672	0.700012
C110	C	1.340264	0.499006	1.033345
C111	C	1.673597	0.832339	1.366678
C112	C	1.006918	0.165675	0.299910
C113	C	1.340251	0.499008	0.633243
C114	C	1.673584	0.832341	0.966577
H115	H	0.585907	0.167693	-0.150849
H116	H	0.919240	0.501026	0.182484
H117	H	1.252573	0.834360	0.515817
Cl118	Cl	1.106664	-0.020522	0.608264
Cl119	Cl	1.439997	0.312811	0.941598
Cl120	Cl	1.773330	0.646145	1.274931
Cl121	Cl	0.852664	-0.252416	-0.000041
Cl122	Cl	1.185997	0.080917	0.333292
Cl123	Cl	1.519331	0.414250	0.666625
Cl124	Cl	1.106662	-0.020518	0.391636
Cl125	Cl	1.439995	0.312815	0.724969
Cl126	Cl	1.773329	0.646148	1.058303
Cl127	Cl	0.907185	0.351866	0.608294
Cl128	Cl	1.240518	0.685200	0.941627
Cl129	Cl	1.573851	1.018533	1.274961
H130	H	0.926740	0.315334	0.412907
H131	H	1.260074	0.648668	0.746241
H132	H	1.593407	0.982001	1.079574
Cl133	Cl	0.890324	-0.465465	-0.000047
Cl134	Cl	1.223658	-0.132132	0.333286
Cl135	Cl	1.556991	0.201201	0.666620
H136	H	0.427946	0.163650	0.150759
H137	H	0.761279	0.496983	0.484092
H138	H	1.094613	0.830317	0.817425
Cl139	Cl	0.408698	0.163136	-0.187661
Cl140	Cl	0.742031	0.496469	0.145672
Cl141	Cl	1.075364	0.829803	0.479006
Cl142	Cl	1.123507	-0.203172	-0.000047
Cl143	Cl	1.456840	0.130161	0.333286
Cl144	Cl	1.790173	0.463495	0.666619
Cl145	Cl	0.605142	0.168182	0.187581
Cl146	Cl	0.938475	0.501515	0.520914
Cl147	Cl	1.271808	0.834848	0.854247
Cl148	Cl	1.161186	-0.416234	-0.000052
Cl149	Cl	1.494519	-0.082901	0.333282
Cl150	Cl	1.827852	0.250432	0.666615
