data_functionalizedCrystal
_audit_creation_method	'MofGen! by Chris Wilmer'
_symmetry_space_group_name_H-M	'P1'
_symmetry_Int_Tables_number	1
_symmetry_cell_setting	triclinic
loop_
_symmetry_equiv_pos_as_xyz
  x,y,z
_cell_length_a	15.944551
_cell_length_b	14.044220
_cell_length_c	12.503572
_cell_angle_alpha	93.835250
_cell_angle_beta	93.522593
_cell_angle_gamma	91.656192
loop_
_atom_site_label
_atom_site_type_symbol
_atom_site_fract_x
_atom_site_fract_y
_atom_site_fract_z
O1	O	0.198062	-1.263178	-0.089210
O2	O	0.698062	-0.763178	0.410790
O3	O	0.190753	-0.987210	-0.089237
O4	O	0.690753	-0.487210	0.410763
O5	O	0.072697	-1.132730	-0.089213
O6	O	0.572697	-0.632730	0.410787
O7	O	0.316117	-1.117659	-0.089234
O8	O	0.816117	-0.617659	0.410766
O9	O	0.081592	-1.121786	0.089427
O10	O	0.581592	-0.621786	0.589427
O11	O	0.199647	-0.976267	0.089403
O12	O	0.699647	-0.476267	0.589403
O13	O	0.206956	-1.252235	0.089430
O14	O	0.706956	-0.752235	0.589430
Cu15	Cu	0.204114	-1.113251	0.105728
Cu16	Cu	0.704114	-0.613251	0.605728
Cu17	Cu	0.193595	-1.126194	-0.105535
Cu18	Cu	0.693595	-0.626194	0.394465
O19	O	0.325012	-1.106715	0.089406
O20	O	0.825012	-0.606715	0.589406
C21	C	0.192001	-0.946424	0.000079
C22	C	0.692001	-0.446424	0.500079
C23	C	0.182459	-0.841198	0.000069
C24	C	0.682459	-0.341198	0.500069
C25	C	0.045804	-1.126632	0.000107
C26	C	0.545804	-0.626632	0.500107
C27	C	-0.047583	-1.124756	0.000107
C28	C	0.452417	-0.624756	0.500107
C29	C	0.205708	-1.293021	0.000111
C30	C	0.705708	-0.793021	0.500111
C31	C	0.215249	-1.398247	0.000114
C32	C	0.715249	-0.898247	0.500114
C33	C	-0.269530	-1.030073	0.000083
C34	C	0.230470	-0.530073	0.500083
C35	C	-0.322870	-1.068645	0.088168
C36	C	0.177130	-0.568645	0.588168
C37	C	-0.218563	-1.121363	0.000099
C38	C	0.281437	-0.621363	0.500099
C39	C	-0.331621	-1.079457	-0.087957
C40	C	0.168379	-0.579457	0.412043
C41	C	-0.383722	-1.118079	0.000086
C42	C	0.116278	-0.618079	0.500086
C43	C	-0.270669	-1.159956	0.088256
C44	C	0.229331	-0.659956	0.588256
C45	C	-0.279418	-1.170759	-0.087948
C46	C	0.220582	-0.670759	0.412052
C47	C	-0.332734	-1.209396	0.000158
C48	C	0.167266	-0.709396	0.500158
C49	C	-0.123419	-1.123252	0.000107
C50	C	0.376581	-0.623252	0.500107
C51	C	-0.478865	-1.116197	0.000085
C52	C	0.021135	-0.616197	0.500085
C53	C	0.351905	-1.112813	0.000083
C54	C	0.851905	-0.612813	0.500083
C55	C	0.445291	-1.114689	0.000076
C56	C	0.945291	-0.614689	0.500076
N57	N	0.211512	-1.104155	0.254318
N58	N	0.711512	-0.604155	0.754318
C59	C	0.165017	-0.648534	0.000092
C60	C	0.665017	-0.148534	0.500092
C61	C	0.232688	-0.590906	0.000091
C62	C	0.732688	-0.090906	0.500091
C63	C	0.222983	-0.483701	0.000104
C64	C	0.722983	0.016299	0.500104
C65	C	0.174721	-0.755749	0.000079
C66	C	0.674721	-0.255749	0.500079
N67	N	0.186191	-1.135297	-0.254126
N68	N	0.686191	-0.635297	0.245874
C69	C	0.222403	-1.090774	0.473431
C70	C	0.722403	-0.590774	0.973431
C71	C	0.175303	-1.148675	0.526768
C72	C	0.675303	-0.648675	1.026768
C73	C	0.181362	-1.141230	0.648690
C74	C	0.681362	-0.641230	1.148690
C75	C	0.216344	-1.098218	0.351498
C76	C	0.716344	-0.598218	0.851498
H77	H	-0.342162	-1.025471	0.162629
H78	H	0.157838	-0.525471	0.662629
C79	C	0.283028	-1.016268	0.535435
C80	C	0.783028	-0.516268	1.035435
H81	H	0.279204	-1.020985	0.610433
H82	H	0.779204	-0.520985	1.110433
H83	H	0.268341	-0.954079	0.517080
H84	H	0.768341	-0.454079	1.017080
H85	H	0.338949	-1.027793	0.517065
H86	H	0.838949	-0.527793	1.017065
C87	C	-0.234753	-1.205896	0.188973
C88	C	0.265247	-0.705896	0.688973
H89	H	-0.175226	-1.206771	0.188383
H90	H	0.324774	-0.706771	0.688383
H91	H	-0.256913	-1.269390	0.189239
H92	H	0.243087	-0.769390	0.689239
H93	H	-0.249950	-1.169847	0.251438
H94	H	0.250050	-0.669847	0.751438
H95	H	-0.241893	-0.954293	0.000164
H96	H	0.258107	-0.454293	0.500164
H97	H	-0.360211	-1.285235	0.000215
H98	H	0.139789	-0.785235	0.500215
H99	H	-0.260107	-1.213901	-0.162413
H100	H	0.239893	-0.713901	0.337587
C101	C	-0.367669	-1.033444	-0.188557
C102	C	0.132331	-0.533444	0.311443
H103	H	-0.345916	-0.969740	-0.188448
H104	H	0.154084	-0.469740	0.311552
H105	H	-0.427219	-1.033107	-0.188190
H106	H	0.072781	-0.533107	0.311810
H107	H	-0.352092	-1.069088	-0.251101
H108	H	0.147908	-0.569088	0.248899
H109	H	0.297911	-0.622081	0.000080
H110	H	0.797911	-0.122081	0.500080
C111	C	0.076911	-0.606426	0.000093
C112	C	0.576911	-0.106426	0.500093
H113	H	0.081865	-0.538851	0.000089
H114	H	0.581865	-0.038851	0.500089
H115	H	0.050351	-0.623406	0.062384
H116	H	0.550351	-0.123406	0.562384
H117	H	0.044164	-0.631023	-0.062216
H118	H	0.544164	-0.131023	0.437784
H119	H	0.130429	-1.203838	0.480864
H120	H	0.630429	-0.703838	0.980864
