data_functionalizedCrystal
_audit_creation_method	'MofGen! by Chris Wilmer'
_symmetry_space_group_name_H-M	'P1'
_symmetry_Int_Tables_number	1
_symmetry_cell_setting	triclinic
loop_
_symmetry_equiv_pos_as_xyz
  x,y,z
_cell_length_a	15.625020
_cell_length_b	17.699083
_cell_length_c	16.176319
_cell_angle_alpha	90.007696
_cell_angle_beta	71.909127
_cell_angle_gamma	96.219031
loop_
_atom_site_label
_atom_site_type_symbol
_atom_site_fract_x
_atom_site_fract_y
_atom_site_fract_z
O1	O	1.196083	-0.098812	-0.427362
O2	O	0.933563	-0.110584	-0.348654
O3	O	1.072240	0.005472	-0.390224
O4	O	1.057406	-0.214868	-0.385791
O5	O	1.072221	0.005479	-0.252725
O6	O	0.933544	-0.110577	-0.211155
O7	O	1.196064	-0.098805	-0.289863
Cu8	Cu	1.064802	-0.104690	-0.237954
Cu9	Cu	1.064825	-0.104699	-0.400563
O10	O	1.057387	-0.214861	-0.248293
C11	C	0.899964	-0.110047	-0.269834
C12	C	0.799880	-0.108449	-0.239827
C13	C	0.658804	-0.106192	-0.122588
C14	C	0.752848	-0.107694	-0.150793
C15	C	0.752879	-0.107699	-0.300691
C16	C	0.658833	-0.106194	-0.272499
C17	C	0.611803	-0.105441	-0.183446
C18	C	0.611832	-0.105442	-0.333358
C19	C	0.517794	-0.103941	-0.305167
C20	C	0.470757	-0.103191	-0.216118
C21	C	0.517765	-0.103940	-0.155256
C22	C	0.658863	-0.106200	-0.422410
C23	C	0.611862	-0.105449	-0.483268
C24	C	0.517823	-0.103942	-0.455078
C25	C	0.470786	-0.103192	-0.366029
C26	C	0.470815	-0.103193	-0.515941
C27	C	0.376777	-0.101692	-0.487750
C28	C	0.376748	-0.101691	-0.337839
C29	C	1.071699	0.033674	-0.321315
C30	C	1.070104	0.117696	-0.320837
C31	C	1.229662	-0.099341	-0.368685
C32	C	1.329747	-0.100939	-0.398697
C33	C	1.057928	-0.243063	-0.317203
C34	C	1.059523	-0.327085	-0.317687
N35	N	1.064793	-0.104683	-0.123586
C36	C	1.151505	0.166106	-0.345241
C37	C	1.150001	0.245053	-0.344797
C38	C	1.067096	0.275589	-0.319944
C39	C	0.985689	0.227173	-0.295540
C40	C	0.987194	0.148227	-0.295990
C41	C	0.979620	0.545552	-0.293727
C42	C	0.978121	0.624503	-0.293277
C43	C	1.142427	0.642378	-0.342535
C44	C	1.143931	0.563432	-0.342984
C45	C	1.062525	0.515023	-0.318586
C46	C	1.064157	0.429419	-0.319068
C47	C	1.065464	0.361191	-0.319455
N48	N	1.064841	-0.104699	-0.514933
C49	C	1.126217	-0.053315	-0.098735
C50	C	1.126222	-0.053314	-0.012189
C51	C	1.064806	-0.104686	0.049503
C52	C	1.003375	-0.156057	0.024647
C53	C	1.003366	-0.156054	-0.061896
C54	C	1.003405	-0.156071	0.373666
C55	C	1.003420	-0.156072	0.460213
C56	C	1.126261	-0.053332	0.423373
C57	C	1.126253	-0.053328	0.336830
C58	C	1.064819	-0.104696	0.311983
C59	C	1.064814	-0.104696	0.218140
C60	C	1.064815	-0.104691	0.143342
H61	H	0.479468	-0.103336	-0.082740
H62	H	0.953404	-0.197907	0.510444
Br63	Br	0.919995	-0.225766	-0.095620
Br64	Br	1.260478	0.310751	-0.377919
Br65	Br	0.869140	0.479863	-0.260620
Br66	Br	1.256449	0.521995	-0.376716
Br67	Br	0.534651	-0.104225	-0.636793
Br68	Br	0.816633	-0.108717	-0.068188
Br69	Br	1.209580	0.016403	-0.182454
H70	H	0.918186	0.252041	-0.275309
Br71	Br	0.876717	0.082526	-0.262876
Br72	Br	1.264025	0.124673	-0.378961
Br73	Br	1.252909	0.708081	-0.375649
H74	H	1.176238	-0.011485	0.008043
Br75	Br	1.209610	0.016389	0.253106
H76	H	0.338507	-0.101082	-0.537307
H77	H	0.791183	-0.108315	-0.373199
H78	H	0.910606	0.649362	-0.273035
H79	H	0.650167	-0.106065	-0.555776
H80	H	1.176281	-0.011503	0.443612
Br81	Br	0.343130	-0.101161	-0.177855
H82	H	0.953385	-0.197898	0.353443
Br83	Br	0.920015	-0.225773	0.108371
Br84	Br	0.594972	-0.105145	-0.001730
H85	H	0.338451	-0.101087	-0.265323
H86	H	0.735434	-0.107428	-0.445360
