data_functionalizedCrystal
_audit_creation_method	'MofGen! by Chris Wilmer'
_symmetry_space_group_name_H-M	'P1'
_symmetry_Int_Tables_number	1
_symmetry_cell_setting	triclinic
loop_
_symmetry_equiv_pos_as_xyz
  x,y,z
_cell_length_a	16.120490
_cell_length_b	12.594516
_cell_length_c	12.594517
_cell_angle_alpha	90.001327
_cell_angle_beta	92.896298
_cell_angle_gamma	87.108688
loop_
_atom_site_label
_atom_site_type_symbol
_atom_site_fract_x
_atom_site_fract_y
_atom_site_fract_z
Zn1	Zn	1.274435	-0.506707	0.684237
Zn2	Zn	1.774435	-0.006707	1.184237
Zn3	Zn	1.274397	-0.684637	0.506262
Zn4	Zn	1.774397	-0.184637	1.006262
Zn5	Zn	1.135063	-0.497628	0.497259
Zn6	Zn	1.635063	0.002372	0.997259
Zn7	Zn	1.135002	-0.675592	0.675184
Zn8	Zn	1.635002	-0.175592	1.175184
O9	O	1.204724	-0.591141	0.590736
O10	O	1.704724	-0.091141	1.090736
O11	O	1.391095	-0.537895	0.668185
O12	O	1.891095	-0.037895	1.168185
O13	O	1.255923	-0.659816	0.356123
O14	O	1.755923	-0.159816	0.856123
O15	O	1.153592	-0.349889	0.522083
O16	O	1.653592	0.150111	1.022083
O17	O	1.391067	-0.668620	0.537428
O18	O	1.891067	-0.168620	1.037428
O19	O	1.255989	-0.356559	0.659455
O20	O	1.755989	0.143441	1.159455
O21	O	1.153555	-0.522421	0.349508
O22	O	1.653555	-0.022421	0.849508
O23	O	1.018389	-0.513650	0.513304
O24	O	1.518389	-0.013650	1.013304
O25	O	1.153489	-0.653203	0.825330
O26	O	1.653489	-0.153203	1.325330
O27	O	1.018345	-0.644399	0.644025
O28	O	1.518345	-0.144399	1.144025
O29	O	1.255930	-0.529124	0.831981
O30	O	1.755930	-0.029124	1.331981
O31	O	1.255864	-0.832380	0.528649
O32	O	1.755864	-0.332380	1.028649
O33	O	1.153451	-0.825735	0.652755
O34	O	1.653451	-0.325735	1.152755
C35	C	0.988117	-0.577059	0.576706
C36	C	1.488117	-0.077059	1.076706
C37	C	0.895452	-0.571060	0.570729
C38	C	1.395452	-0.071060	1.070729
C39	C	0.684503	-0.622250	0.621740
C40	C	1.184503	-0.122250	1.121740
C41	C	0.725796	-0.560117	0.559815
C42	C	1.225796	-0.060117	1.059815
C43	C	0.820201	-0.566207	0.565889
C44	C	1.320201	-0.066207	1.065889
C45	C	0.590090	-0.616161	0.615667
C46	C	1.090090	-0.116161	1.115667
C47	C	1.204670	-0.867678	0.590722
C48	C	1.704670	-0.367678	1.090722
C49	C	1.204722	-0.985987	0.590756
C50	C	1.704722	-0.485987	1.090756
C51	C	1.149015	-1.051664	0.658207
C52	C	1.649015	-0.551664	1.158207
C53	C	1.128727	-1.121170	0.559773
C54	C	1.628727	-0.621170	1.059773
C55	C	1.225086	-1.127285	0.689212
C56	C	1.725086	-0.627285	1.189212
C57	C	1.184395	-1.053933	0.492268
C58	C	1.684395	-0.553933	0.992268
C59	C	1.280789	-1.060043	0.621775
C60	C	1.780789	-0.560043	1.121775
C61	C	1.260530	-1.129519	0.523276
C62	C	1.760530	-0.629519	1.023276
C63	C	1.422177	-0.605279	0.604821
C64	C	1.922177	-0.105279	1.104821
C65	C	1.514842	-0.611304	0.610823
C66	C	2.014842	-0.111304	1.110823
C67	C	1.204707	-0.591167	0.868355
C68	C	1.704707	-0.091167	1.368355
C69	C	1.204700	-0.591178	0.986660
C70	C	1.704700	-0.091178	1.486660
C71	C	1.204802	-0.313525	0.590774
C72	C	1.704802	0.186475	1.090774
C73	C	1.204835	-0.195222	0.590791
C74	C	1.704835	0.304778	1.090791
C75	C	1.148981	-0.658655	1.052296
C76	C	1.648981	-0.158655	1.552296
C77	C	1.225034	-0.689629	1.128002
C78	C	1.725034	-0.189629	1.628002
C79	C	1.128650	-0.560232	1.121753
C80	C	1.628650	-0.060232	1.621753
C81	C	1.280793	-0.622205	1.060811
C82	C	1.780793	-0.122205	1.560811
C83	C	1.184357	-0.492760	1.054552
C84	C	1.684357	0.007240	1.554552
C85	C	1.260463	-0.523701	1.130230
C86	C	1.760463	-0.023701	1.630230
C87	C	1.204723	-0.591146	1.314195
C88	C	1.704723	-0.091146	1.814195
C89	C	1.204695	-0.591158	1.195887
C90	C	1.704695	-0.091158	1.695887
H91	H	0.720049	-0.680013	0.679312
H92	H	1.220049	-0.180013	1.179312
H93	H	1.101922	-0.715775	1.018199
H94	H	1.601922	-0.215775	1.518199
H95	H	1.242244	-0.772851	1.160222
H96	H	1.742244	-0.272851	1.660222
H97	H	1.101820	-1.017592	0.715155
H98	H	1.601820	-0.517592	1.215155
H99	H	1.242264	-1.159460	0.772461
H100	H	1.742264	-0.659460	1.272461
H101	H	1.167126	-0.409560	1.022308
H102	H	1.667126	0.090440	1.522308
H103	H	1.345124	-0.648466	1.034010
H104	H	1.845124	-0.148466	1.534010
H105	H	1.307635	-0.466633	1.164139
H106	H	1.807635	0.033367	1.664139
H107	H	1.167143	-1.021881	0.408992
H108	H	1.667143	-0.521881	0.908992
H109	H	1.064452	-1.148207	0.533563
H110	H	1.564452	-0.648207	1.033563
H111	H	1.345049	-1.033009	0.648030
H112	H	1.845049	-0.533009	1.148030
H113	H	0.690248	-0.502350	0.502238
H114	H	1.190248	-0.002350	1.002238
H115	H	1.307688	-1.163393	0.466180
H116	H	1.807688	-0.663393	0.966180
H117	H	1.064338	-0.534066	1.148686
H118	H	1.564338	-0.034066	1.648686
