data_functionalizedCrystal
_audit_creation_method	'MofGen! by Chris Wilmer'
_symmetry_space_group_name_H-M	'P1'
_symmetry_Int_Tables_number	1
_symmetry_cell_setting	triclinic
loop_
_symmetry_equiv_pos_as_xyz
  x,y,z
_cell_length_a	12.759394
_cell_length_b	14.908571
_cell_length_c	14.908308
_cell_angle_alpha	90.175053
_cell_angle_beta	93.268403
_cell_angle_gamma	86.711101
loop_
_atom_site_label
_atom_site_type_symbol
_atom_site_fract_x
_atom_site_fract_y
_atom_site_fract_z
Zn1	Zn	-0.548282	1.345341	-0.587592
Zn2	Zn	-0.048282	1.845341	-0.087592
Zn3	Zn	-0.714462	1.353935	-0.437236
Zn4	Zn	-0.214462	1.853935	0.062764
Zn5	Zn	-0.528102	1.203654	-0.428590
Zn6	Zn	-0.028102	1.703654	0.071410
Zn7	Zn	-0.713213	1.194963	-0.578887
Zn8	Zn	-0.213213	1.694963	-0.078887
O9	O	-0.626015	1.274473	-0.508076
O10	O	-0.126015	1.774473	-0.008076
O11	O	-0.579294	1.472308	-0.574908
O12	O	-0.079294	1.972308	-0.074908
O13	O	-0.681818	1.341234	-0.310264
O14	O	-0.181818	1.841234	0.189736
O15	O	-0.383762	1.222490	-0.449706
O16	O	0.116238	1.722490	0.050294
O17	O	-0.701385	1.478622	-0.464442
O18	O	-0.201385	1.978622	0.035558
O19	O	-0.398588	1.326587	-0.566525
O20	O	0.101412	1.826587	-0.066525
O21	O	-0.544900	1.230824	-0.303912
O22	O	-0.044900	1.730824	0.196088
O23	O	-0.543690	1.076675	-0.441266
O24	O	-0.043690	1.576675	0.058734
O25	O	-0.699258	1.207676	-0.705867
O26	O	-0.199258	1.707676	-0.205867
O27	O	-0.679690	1.070289	-0.551688
O28	O	-0.179690	1.570289	-0.051688
O29	O	-0.578083	1.318159	-0.712262
O30	O	-0.078083	1.818159	-0.212262
O31	O	-0.861313	1.332806	-0.456001
O32	O	-0.361313	1.832806	0.043999
O33	O	-0.860396	1.216010	-0.560072
O34	O	-0.360396	1.716010	-0.060072
C35	C	-0.609365	1.040856	-0.494595
C36	C	-0.109365	1.540856	0.005405
C37	C	-0.602270	0.940913	-0.488849
C38	C	-0.102270	1.440913	0.011151
C39	C	-0.730752	0.746516	-0.592880
C40	C	-0.230752	1.246516	-0.092880
C41	C	-0.724088	0.652610	-0.587484
C42	C	-0.224088	1.152610	-0.087484
C43	C	-0.582274	0.659192	-0.472666
C44	C	-0.082274	1.159192	0.027334
C45	C	-0.588938	0.753098	-0.478062
C46	C	-0.088938	1.253098	0.021938
C47	C	-0.663180	0.796757	-0.538170
C48	C	-0.163180	1.296757	-0.038170
C49	C	-0.669848	0.890665	-0.543561
C50	C	-0.169848	1.390665	-0.043561
C51	C	-0.528030	0.897246	-0.428748
C52	C	-0.028030	1.397246	0.071252
C53	C	-0.521366	0.803340	-0.423352
C54	C	-0.021366	1.303340	0.076648
C55	C	-0.898977	1.274420	-0.508051
C56	C	-0.398977	1.774420	-0.008051
C57	C	-1.015759	1.274478	-0.508075
C58	C	-0.515759	1.774478	-0.008075
C59	C	-1.016672	1.396180	-0.399798
C60	C	-0.516672	1.896180	0.100202
C61	C	-1.071992	1.457053	-0.345671
C62	C	-0.571992	1.957053	0.154329
C63	C	-1.181719	1.457105	-0.345698
C64	C	-0.681719	1.957105	0.154302
C65	C	-1.236129	1.396278	-0.399860
C66	C	-0.736129	1.896278	0.100140
C67	C	-1.180809	1.335404	-0.453987
C68	C	-0.680809	1.835404	0.046013
C69	C	-1.071079	1.335358	-0.453952
C70	C	-0.571079	1.835358	0.046048
C71	C	-1.179897	1.213709	-0.562269
C72	C	-0.679897	1.713709	-0.062269
C73	C	-1.070169	1.213651	-0.562238
C74	C	-0.570169	1.713651	-0.062238
C75	C	-1.234306	1.152882	-0.616431
C76	C	-0.734306	1.652882	-0.116431
C77	C	-1.178986	1.092002	-0.670555
C78	C	-0.678986	1.592002	-0.170555
C79	C	-1.069252	1.091953	-0.670524
C80	C	-0.569252	1.591953	-0.170524
C81	C	-1.014849	1.152778	-0.616365
C82	C	-0.514849	1.652778	-0.116365
C83	C	-0.351989	1.274549	-0.508122
C84	C	0.148011	1.774549	-0.008122
C85	C	-0.235216	1.274582	-0.508142
C86	C	0.264784	1.774582	-0.008142
C87	C	-0.640782	1.260989	-0.742602
C88	C	-0.140782	1.760989	-0.242602
C89	C	-0.647075	1.255243	-0.842543
C90	C	-0.147075	1.755243	-0.342543
C91	C	-0.642730	1.509002	-0.521611
C92	C	-0.142730	2.009002	-0.021611
C93	C	-0.649853	1.608945	-0.527378
C94	C	-0.149853	2.108945	-0.027378
C95	C	-0.532697	1.359488	-1.037003
C96	C	-0.032697	1.859488	-0.537003
C97	C	-0.538606	1.354092	-1.130907
C98	C	-0.038606	1.854092	-0.630907
C99	C	-0.664798	1.239051	-1.124254
C100	C	-0.164798	1.739051	-0.624254
C101	C	-0.658888	1.244447	-1.030351
C102	C	-0.158888	1.744447	-0.530351
C103	C	-0.592837	1.304669	-0.986729
C104	C	-0.092837	1.804669	-0.486729
C105	C	-0.586934	1.310069	-0.892824
C106	C	-0.086934	1.810069	-0.392824
C107	C	-0.713118	1.195024	-0.886173
C108	C	-0.213118	1.695024	-0.386173
C109	C	-0.719028	1.189627	-0.980077
C110	C	-0.219028	1.689627	-0.480077
C111	C	-0.611232	1.287956	-0.274466
C112	C	-0.111232	1.787956	0.225534
C113	C	-0.604656	1.293877	-0.174536
C114	C	-0.104656	1.793877	0.325464
H115	H	-0.779110	0.611707	-0.632037
H116	H	-0.279110	1.111707	-0.132037
H117	H	-1.027682	1.506580	-0.301574
H118	H	-0.527682	2.006580	0.198426
Br119	Br	-0.754420	1.157319	-1.183471
Br120	Br	-0.254420	1.657319	-0.683471
H121	H	-0.473010	0.938162	-0.384197
H122	H	0.026990	1.438162	0.115803
H123	H	-0.772803	1.140595	-1.015607
H124	H	-0.272803	1.640595	-0.515607
Br125	Br	-0.443075	1.441228	-0.977798
Br126	Br	0.056925	1.941228	-0.477798
Br127	Br	-0.481506	0.599925	-0.391115
Br128	Br	0.018494	1.099925	0.108885
Br129	Br	-0.794758	1.120634	-0.817940
Br130	Br	-0.294758	1.620634	-0.317940
Br131	Br	-0.420607	0.744081	-0.341787
Br132	Br	0.079393	1.244081	0.158213
Br133	Br	-0.831519	0.805772	-0.674440
Br134	Br	-0.331519	1.305772	-0.174440
Br135	Br	-0.497299	1.391801	-0.833623
Br136	Br	0.002701	1.891801	-0.333623
Br137	Br	-0.867794	1.396377	-0.400051
Br138	Br	-0.367794	1.896377	0.099949
Br139	Br	-0.770609	0.949916	-0.625130
Br140	Br	-0.270609	1.449916	-0.125130
Br141	Br	-1.252833	1.009469	-0.744062
Br142	Br	-0.752833	1.509469	-0.244062
H143	H	-1.226761	1.506677	-0.301628
H144	H	-0.726761	2.006677	0.198372
Br145	Br	-1.384987	1.395952	-0.399451
Br146	Br	-0.884987	1.895952	0.100549
H147	H	-1.323652	1.152931	-0.616454
H148	H	-0.823652	1.652931	-0.116454
Br149	Br	-0.865972	1.152988	-0.616625
Br150	Br	-0.365972	1.652988	-0.116625
Br151	Br	-0.456981	1.428490	-1.199134
Br152	Br	0.043019	1.928490	-0.699134
Br153	Br	-0.994186	1.009341	-0.743995
Br154	Br	-0.494186	1.509341	-0.243995
