data_functionalizedCrystal
_audit_creation_method	'MofGen! by Chris Wilmer'
_symmetry_space_group_name_H-M	'P1'
_symmetry_Int_Tables_number	1
_symmetry_cell_setting	triclinic
loop_
_symmetry_equiv_pos_as_xyz
  x,y,z
_cell_length_a	19.805407
_cell_length_b	16.625545
_cell_length_c	19.805398
_cell_angle_alpha	90.026602
_cell_angle_beta	90.013957
_cell_angle_gamma	90.027498
loop_
_atom_site_label
_atom_site_type_symbol
_atom_site_fract_x
_atom_site_fract_y
_atom_site_fract_z
Zn1	Zn	1.034697	-0.320970	0.382744
Zn2	Zn	1.034626	-0.455810	0.269560
Zn3	Zn	0.921524	-0.321000	0.269567
Zn4	Zn	0.921476	-0.455769	0.382705
O5	O	0.978081	-0.388387	0.326144
O6	O	1.129404	-0.338862	0.367743
O7	O	1.019613	-0.437956	0.174844
O8	O	0.936586	-0.208163	0.284600
O9	O	1.129352	-0.437928	0.284587
O10	O	1.019734	-0.208142	0.367750
O11	O	0.936517	-0.338912	0.174850
O12	O	0.826801	-0.338872	0.284562
O13	O	0.936505	-0.437859	0.477427
O14	O	0.826766	-0.437887	0.367684
O15	O	1.019687	-0.338823	0.477456
O16	O	1.019567	-0.568637	0.284549
O17	O	0.936436	-0.568607	0.367677
C18	C	0.802225	-0.388379	0.326120
C19	C	0.726993	-0.388395	0.326125
C20	C	0.978007	-0.597878	0.326123
C21	C	0.978038	-0.687499	0.326136
C22	C	0.265232	-0.336900	0.369536
C23	C	0.335921	-0.336902	0.369531
C24	C	0.371231	-0.388400	0.326166
C25	C	0.335849	-0.439905	0.282808
C26	C	0.265162	-0.439907	0.282817
C27	C	0.620923	-0.439899	0.282772
C28	C	0.691615	-0.439891	0.282765
C29	C	0.691681	-0.336893	0.369486
C30	C	0.620994	-0.336895	0.369495
C31	C	0.585618	-0.388404	0.326140
C32	C	0.508970	-0.388403	0.326147
C33	C	0.447878	-0.388397	0.326155
C34	C	0.978064	-0.760282	0.326150
C35	C	0.978103	-0.851590	0.326165
C36	C	0.978138	-0.924367	0.326173
C37	C	0.978177	-1.015681	0.326187
C38	C	1.154623	-0.388396	0.326169
C39	C	1.229855	-0.388400	0.326180
C40	C	0.978099	-0.388333	0.502687
C41	C	0.978107	-0.388310	0.577919
C42	C	0.978173	-0.178078	0.326180
C43	C	0.978212	-0.088457	0.326196
C44	C	0.978102	-0.388383	0.150288
C45	C	0.978225	-0.388180	0.075056
C46	C	1.021481	-0.439754	1.039705
C47	C	1.021462	-0.439776	0.969016
C48	C	0.978191	-0.388219	0.933681
C49	C	0.934930	-0.336642	0.969037
C50	C	0.934946	-0.336625	1.039724
C51	C	0.934865	-0.336711	0.683964
C52	C	0.934853	-0.336731	0.613272
C53	C	1.021381	-0.439862	0.613256
C54	C	1.021397	-0.439845	0.683943
C55	C	0.978134	-0.388272	0.719293
C56	C	0.978154	-0.388250	0.795942
C57	C	0.978174	-0.388236	0.857034
H58	H	0.236488	-0.294959	0.404845
H59	H	0.364605	-0.481839	0.247502
H60	H	1.056636	-0.481825	0.712710
C61	C	0.226872	-0.495853	0.235669
C62	C	0.272923	-0.540938	0.197677
C63	C	0.237676	-0.592480	0.154233
H64	H	0.199292	-0.531095	0.261439
H65	H	0.199311	-0.464984	0.206190
H66	H	0.300472	-0.571804	0.227152
H67	H	0.300505	-0.505716	0.171893
H68	H	0.210115	-0.561612	0.124754
H69	H	0.210097	-0.627717	0.180009
H70	H	0.268916	-0.623071	0.128446
C71	C	0.887909	-0.280796	0.930587
C72	C	0.844511	-0.326458	0.889980
C73	C	0.801193	-0.275038	0.854544
H74	H	0.862083	-0.250059	0.961688
H75	H	0.913793	-0.245685	0.902982
H76	H	0.818630	-0.361555	0.917582
H77	H	0.870318	-0.357193	0.858866
H78	H	0.827077	-0.239926	0.826939
H79	H	0.775372	-0.244303	0.885650
H80	H	0.771747	-0.306011	0.826983
C81	C	1.068275	-0.495835	0.574752
C82	C	1.058988	-0.484837	0.505284
C83	C	1.102168	-0.536389	0.469796
H84	H	1.113787	-0.484082	0.586258
H85	H	1.058342	-0.550024	0.586289
H86	H	1.068925	-0.430660	0.493752
H87	H	1.013485	-0.496595	0.493758
H88	H	1.092236	-0.590578	0.481332
H89	H	1.147678	-0.524632	0.481307
H90	H	1.095869	-0.528939	0.422658
C91	C	0.887791	-0.280726	0.575028
C92	C	0.849891	-0.235573	0.621114
C93	C	0.806527	-0.183985	0.585909
H94	H	0.913614	-0.245528	0.547459
H95	H	0.858249	-0.311564	0.547459
H96	H	0.879429	-0.204737	0.648672
H97	H	0.824054	-0.270750	0.648685
H98	H	0.776985	-0.214823	0.558340
H99	H	0.832356	-0.148792	0.558341
H100	H	0.780803	-0.153347	0.617173
C101	C	1.068439	-0.495642	1.078188
C102	C	1.059211	-0.484575	1.147660
C103	C	1.102464	-0.536039	1.183130
H104	H	1.058551	-0.549853	1.066674
H105	H	1.113933	-0.483837	1.066644
H106	H	1.013728	-0.496385	1.159200
H107	H	1.069104	-0.430375	1.159195
H108	H	1.147958	-0.524234	1.171586
H109	H	1.092572	-0.590247	1.171610
H110	H	1.096213	-0.528532	1.230270
C111	C	0.887873	-0.280674	1.078022
C112	C	0.820894	-0.298221	1.060807
C113	C	0.777509	-0.246691	1.096066
H114	H	0.893985	-0.287997	1.125192
H115	H	0.897758	-0.226488	1.066436
H116	H	0.811013	-0.352394	1.072398
H117	H	0.814760	-0.290893	1.013644
H118	H	0.787394	-0.192504	1.084480
H119	H	0.783627	-0.254018	1.143234
H120	H	0.732060	-0.258584	1.084386
C121	C	0.374208	-0.280891	0.416624
C122	C	0.328155	-0.235771	0.454585
C123	C	0.363400	-0.184156	0.497969
H124	H	0.401785	-0.311683	0.446131
H125	H	0.401772	-0.245680	0.390791
H126	H	0.300603	-0.270979	0.480417
H127	H	0.300576	-0.204963	0.425096
H128	H	0.390964	-0.148944	0.472136
H129	H	0.390976	-0.214954	0.527471
H130	H	0.332159	-0.153530	0.523726
C131	C	1.068508	-0.495794	0.930757
C132	C	1.106424	-0.540919	0.976832
C133	C	1.149779	-0.592524	0.941612
H134	H	1.042677	-0.531008	0.903170
H135	H	1.098039	-0.464969	0.903205
H136	H	1.076897	-0.571742	1.004372
H137	H	1.132269	-0.505726	1.004420
H138	H	1.179311	-0.561699	0.914060
H139	H	1.123943	-0.627733	0.914026
H140	H	1.175515	-0.623143	0.972868
H141	H	0.720362	-0.481831	0.247451
H142	H	0.899636	-0.294718	0.712738
H143	H	0.592248	-0.294957	0.404805
C144	C	0.730212	-0.281063	0.416540
C145	C	0.799675	-0.292096	0.407269
C146	C	0.835188	-0.240687	0.450606
H147	H	0.718727	-0.226840	0.406756
H148	H	0.718676	-0.292940	0.462016
H149	H	0.811207	-0.280213	0.361804
H150	H	0.811181	-0.346308	0.417058
H151	H	0.823652	-0.252564	0.496082
H152	H	0.823698	-0.186467	0.440819
H153	H	0.882322	-0.248171	0.444327
H154	H	0.592128	-0.481838	0.247467
