data_functionalizedCrystal
_audit_creation_method	'MofGen! by Chris Wilmer'
_symmetry_space_group_name_H-M	'P1'
_symmetry_Int_Tables_number	1
_symmetry_cell_setting	triclinic
loop_
_symmetry_equiv_pos_as_xyz
  x,y,z
_cell_length_a	6.817900
_cell_length_b	12.200863
_cell_length_c	16.255661
_cell_angle_alpha	94.285294
_cell_angle_beta	103.488922
_cell_angle_gamma	107.143441
loop_
_atom_site_label
_atom_site_type_symbol
_atom_site_fract_x
_atom_site_fract_y
_atom_site_fract_z
V1	V	-4.045305	-0.159639	-0.263958
V2	V	-3.711972	0.173694	0.069376
V3	V	-3.378639	0.507027	0.402709
O4	O	-4.013408	0.006718	-0.258844
O5	O	-3.680075	0.340051	0.074489
O6	O	-3.346741	0.673384	0.407822
O7	O	-4.015024	-0.315621	-0.262237
O8	O	-3.681691	0.017712	0.071096
O9	O	-3.348358	0.351046	0.404429
O10	O	-3.996630	-0.157602	-0.379040
O11	O	-3.663297	0.175731	-0.045706
O12	O	-3.329963	0.509064	0.287627
O13	O	-4.031930	-0.152395	-0.141233
O14	O	-3.698596	0.180938	0.192100
O15	O	-3.365263	0.514272	0.525433
V16	V	-4.526621	-0.139692	-0.249268
V17	V	-4.193288	0.193642	0.084065
V18	V	-3.859954	0.526975	0.417398
O19	O	-4.311405	-0.203396	-0.296179
O20	O	-3.978072	0.129937	0.037154
O21	O	-3.644739	0.463270	0.370487
O22	O	-4.710718	-0.095935	-0.217047
O23	O	-4.377385	0.237398	0.116287
O24	O	-4.044052	0.570732	0.449620
O25	O	-4.333695	0.016290	-0.250989
O26	O	-4.000362	0.349623	0.082345
O27	O	-3.667029	0.682957	0.415678
O28	O	-4.675915	-0.306049	-0.254382
O29	O	-4.342582	0.027284	0.078952
O30	O	-4.009249	0.360618	0.412285
O31	O	-4.657393	-0.146936	-0.371993
O32	O	-4.324060	0.186397	-0.038659
O33	O	-3.990727	0.519730	0.294674
O34	O	-4.352090	-0.141729	-0.134186
O35	O	-4.018756	0.191604	0.199147
O36	O	-3.685423	0.524938	0.532480
C37	C	-3.864442	-0.353633	-0.258095
C38	C	-3.531109	-0.020300	0.075238
C39	C	-3.197775	0.313034	0.408571
C40	C	-3.920969	-0.481153	-0.257456
C41	C	-3.587635	-0.147819	0.075877
C42	C	-3.254302	0.185514	0.409211
C43	C	-4.024424	-0.714625	-0.256292
C44	C	-3.691091	-0.381292	0.077041
C45	C	-3.357757	-0.047959	0.410374
C46	C	-3.966846	-0.584704	-0.256940
C47	C	-3.633513	-0.251371	0.076393
C48	C	-3.300179	0.081962	0.409727
C49	C	-3.840977	-0.152063	-0.407087
C50	C	-3.507644	0.181271	-0.073754
C51	C	-3.174310	0.514604	0.259579
C52	C	-3.882583	-0.151429	-0.501168
C53	C	-3.549250	0.181904	-0.167835
C54	C	-3.215916	0.515237	0.165499
C55	C	-3.792258	-0.143862	-0.723983
C56	C	-3.458925	0.189472	-0.390649
C57	C	-3.125591	0.522805	-0.057316
C58	C	-3.960050	-0.241532	-0.793512
C59	C	-3.626716	0.091801	-0.460178
C60	C	-3.293383	0.425134	-0.126845
C61	C	-3.958829	-0.150241	-0.673416
C62	C	-3.625496	0.183092	-0.340083
C63	C	-3.292162	0.516425	-0.006749
C64	C	-3.865197	-0.051453	-0.771524
C65	C	-3.531864	0.281880	-0.438190
C66	C	-3.198531	0.615214	-0.104857
C67	C	-4.032463	-0.149089	-0.839799
C68	C	-3.699129	0.184245	-0.506466
C69	C	-3.365796	0.517578	-0.173132
C70	C	-4.126113	-0.247999	-0.741715
C71	C	-3.792780	0.085334	-0.408382
C72	C	-3.459446	0.418668	-0.075049
C73	C	-4.031188	-0.057834	-0.719712
C74	C	-3.697855	0.275500	-0.386378
C75	C	-3.364522	0.608833	-0.053045
C76	C	-4.199120	-0.155532	-0.789221
C77	C	-3.865787	0.177801	-0.455888
C78	C	-3.532453	0.511135	-0.122555
C79	C	-3.916406	-0.150906	-0.577567
C80	C	-3.583072	0.182427	-0.244234
C81	C	-3.249739	0.515760	0.089099
C82	C	-4.074904	-0.148433	-0.935647
C83	C	-3.741571	0.184901	-0.602314
C84	C	-3.408238	0.518234	-0.268981
C85	C	-4.147621	0.054296	-0.255128
C86	C	-3.814287	0.387629	0.078205
C87	C	-3.480954	0.720962	0.411538
C88	C	-4.070332	0.181814	-0.255773
C89	C	-3.736999	0.515148	0.077560
C90	C	-3.403665	0.848481	0.410893
C91	C	-4.171085	-0.147272	-0.106134
C92	C	-3.837752	0.186061	0.227199
C93	C	-3.504419	0.519395	0.560532
C94	C	-4.108717	-0.147900	-0.012053
C95	C	-3.775384	0.185434	0.321281
C96	C	-3.442051	0.518767	0.654614
H97	H	-3.619944	-0.139054	-0.695500
H98	H	-3.286611	0.194279	-0.362166
H99	H	-2.953277	0.527612	-0.028833
F100	F	-4.269768	-0.356688	-0.724176
F101	F	-3.936434	-0.023354	-0.390842
F102	F	-3.603101	0.309979	-0.057509
H103	H	-3.930422	-0.319197	-0.825640
H104	H	-3.597089	0.014137	-0.492306
H105	H	-3.263756	0.347470	-0.158973
F106	F	-4.424522	-0.162011	-0.826277
F107	F	-4.091188	0.171322	-0.492944
F108	F	-3.757855	0.504656	-0.159610
F109	F	-4.069809	0.043684	-0.677685
F110	F	-3.736476	0.377018	-0.344352
F111	F	-3.403143	0.710351	-0.011018
H112	H	-3.755291	0.031589	-0.785088
H113	H	-3.421957	0.364923	-0.451755
H114	H	-3.088624	0.698256	-0.118422
