data_functionalizedCrystal
_audit_creation_method	'MofGen! by Chris Wilmer'
_symmetry_space_group_name_H-M	'P1'
_symmetry_Int_Tables_number	1
_symmetry_cell_setting	triclinic
loop_
_symmetry_equiv_pos_as_xyz
  x,y,z
_cell_length_a	16.992694
_cell_length_b	13.262508
_cell_length_c	16.053934
_cell_angle_alpha	103.311106
_cell_angle_beta	92.746741
_cell_angle_gamma	87.430197
loop_
_atom_site_label
_atom_site_type_symbol
_atom_site_fract_x
_atom_site_fract_y
_atom_site_fract_z
O1	O	1.040238	0.223717	-0.018519
O2	O	0.811918	0.221309	-0.019091
O3	O	0.930208	0.072243	-0.052924
O4	O	0.921948	0.372784	0.015315
O5	O	0.936683	0.064065	0.084076
O6	O	0.818393	0.213131	0.117909
O7	O	1.046713	0.215540	0.118481
Zn8	Zn	0.933581	0.213037	0.139947
Zn9	Zn	0.925050	0.223812	-0.040557
O10	O	0.928423	0.364606	0.152315
C11	C	0.785899	0.214121	0.048702
C12	C	0.698725	0.204872	0.046593
C13	C	0.932387	0.029520	0.006802
C14	C	0.929223	-0.085597	-0.019342
C15	C	0.649737	0.294111	0.066856
C16	C	0.567829	0.285414	0.064892
C17	C	0.534910	0.187478	0.042660
C18	C	0.583903	0.098232	0.022399
C19	C	0.665810	0.106930	0.024368
C20	C	0.290807	0.151429	0.034498
C21	C	0.208893	0.142738	0.032528
C22	C	0.192825	0.329921	0.075023
C23	C	0.274734	0.338610	0.076985
C24	C	0.323721	0.249365	0.056728
N25	N	0.451186	0.178586	0.040651
N26	N	0.407443	0.258257	0.058744
C27	C	0.934421	-0.427936	0.205688
C28	C	0.937387	-0.319778	0.230252
C29	C	0.935347	-0.261227	0.167856
C30	C	0.930339	-0.310846	0.080891
C31	C	0.927366	-0.419014	0.056324
C32	C	0.928292	-0.252305	0.018492
C33	C	0.923284	-0.301923	-0.068473
C34	C	0.920312	-0.410081	-0.093035
C35	C	0.922353	-0.468632	-0.030639
C36	C	0.931265	-0.144137	0.043059
C37	C	0.924210	-0.135214	-0.106305
C38	C	0.921244	-0.243373	-0.130869
C39	C	1.072732	0.222728	0.050686
C40	C	1.159906	0.231977	0.052790
C41	C	0.926244	0.407329	0.092587
C42	C	0.929407	0.522446	0.118725
N43	N	0.939410	0.205684	0.263136
N44	N	0.919228	0.231158	-0.163747
C45	C	0.889067	0.269086	0.321241
C46	C	0.893167	0.263939	0.407478
C47	C	0.947606	0.195385	0.435607
C48	C	0.997954	0.131980	0.377495
C49	C	0.993858	0.137132	0.291261
C50	C	0.965479	0.172905	0.691907
C51	C	0.969571	0.167755	0.778148
C52	C	0.864783	0.299717	0.808125
C53	C	0.860688	0.304859	0.721887
C54	C	0.911039	0.241458	0.663783
N55	N	0.951796	0.190120	0.523754
N56	N	0.906852	0.246728	0.575639
H57	H	0.676534	0.373861	0.084958
C58	C	0.138934	0.428084	0.097314
N59	N	0.098343	0.502023	0.114110
H60	H	0.844733	0.324906	0.298344
H61	H	0.935335	-0.103748	0.113866
C62	C	0.513947	0.383584	0.087198
N63	N	0.473363	0.457529	0.104005
H64	H	0.182094	0.062983	0.014422
C65	C	0.938618	-0.142251	0.194880
N66	N	0.941087	-0.052633	0.215238
H67	H	0.919942	-0.556704	-0.050635
C68	C	0.800915	0.380431	0.690988
N69	N	0.755932	0.437407	0.667728
C70	C	0.942896	-0.265206	0.325910
N71	N	0.947046	-0.224102	0.397965
C72	C	0.809401	0.369454	0.872044
N73	N	0.767686	0.421983	0.920190
H74	H	0.936076	-0.475617	0.256482
C75	C	1.057838	0.056568	0.408440
N76	N	1.102941	-0.000238	0.431746
C77	C	1.029475	0.092357	0.809091
N78	N	1.074598	0.035575	0.832399
H79	H	0.705695	0.034262	0.007868
C80	C	0.914845	-0.464662	-0.188700
N81	N	0.910746	-0.505772	-0.260755
C82	C	0.915729	-0.297967	-0.226529
N83	N	0.911573	-0.339088	-0.298580
H84	H	0.922543	-0.087542	-0.157113
C85	C	0.837781	0.333682	0.471389
N86	N	0.796060	0.386213	0.519527
C87	C	1.049237	0.067382	0.227344
N88	N	1.090953	0.014846	0.179203
H89	H	0.301530	0.418361	0.095079
C90	C	0.344682	0.053255	0.012208
N91	N	0.385263	-0.020694	-0.004582
H92	H	1.006476	0.121280	0.644605
H93	H	0.557094	0.018490	0.004309
