data_functionalizedCrystal
_audit_creation_method	'MofGen! by Chris Wilmer'
_symmetry_space_group_name_H-M	'P1'
_symmetry_Int_Tables_number	1
_symmetry_cell_setting	triclinic
loop_
_symmetry_equiv_pos_as_xyz
  x,y,z
_cell_length_a	15.944551
_cell_length_b	9.730223
_cell_length_c	10.654550
_cell_angle_alpha	89.999807
_cell_angle_beta	83.991821
_cell_angle_gamma	90.004286
loop_
_atom_site_label
_atom_site_type_symbol
_atom_site_fract_x
_atom_site_fract_y
_atom_site_fract_z
O1	O	1.115457	-0.114143	0.161961
O2	O	0.871023	-0.114177	0.181930
O3	O	0.998860	-0.114154	-0.010867
O4	O	0.987620	-0.114166	0.354757
O5	O	0.998858	0.114426	-0.010862
O6	O	0.871021	0.114403	0.181934
O7	O	1.115455	0.114437	0.161966
Zn8	Zn	0.993238	0.150712	0.171951
Zn9	Zn	0.993240	-0.150452	0.171944
O10	O	0.987618	0.114414	0.354762
C11	C	0.839723	0.000109	0.181103
C12	C	0.746463	0.000096	0.178618
N13	N	0.993243	0.356249	0.171954
C14	C	0.998034	0.000134	-0.057652
C15	C	0.995565	0.000129	-0.197063
C16	C	0.530880	0.000127	0.053173
C17	C	0.470198	-0.112577	0.111423
C18	C	0.575711	0.000112	0.174122
C19	C	0.470219	0.112785	0.111456
C20	C	0.410773	0.000134	0.169770
C21	C	0.516257	-0.112684	0.232405
C22	C	0.516284	0.112779	0.232421
C23	C	0.455620	0.000047	0.290759
C24	C	0.670728	0.000099	0.176625
C25	C	0.315757	0.000138	0.167276
C26	C	1.146755	0.000148	0.162792
C27	C	1.240015	0.000152	0.165278
N28	N	0.993242	-0.355988	0.171931
C29	C	1.049864	0.428185	0.086613
C30	C	1.049862	0.572068	0.086598
C31	C	0.936615	0.572066	0.257276
C32	C	0.936614	0.428185	0.257285
C33	C	1.115248	0.428187	-0.011924
C34	C	1.115246	0.572070	-0.011939
C35	C	1.070833	0.000144	-0.277522
C36	C	1.068508	0.000134	-0.408513
C37	C	0.915639	0.000100	-0.378572
C38	C	0.917965	0.000101	-0.247584
C39	C	1.159090	0.000169	-0.294810
C40	C	1.156765	0.000159	-0.425801
C41	C	0.988444	0.000123	0.401547
C42	C	0.990913	0.000119	0.540958
H43	H	0.563632	-0.000009	-0.047204
H44	H	0.449792	-0.207857	0.060265
C45	C	0.543893	0.241495	0.301476
C46	C	0.637751	0.264366	0.317456
C47	C	0.665363	0.393094	0.386500
C48	C	0.599118	0.498950	0.439564
C49	C	0.505254	0.476082	0.423586
C50	C	0.477641	0.347354	0.354542
H51	H	0.686795	0.186002	0.278174
H52	H	0.734848	0.410021	0.398328
H53	H	0.619558	0.594242	0.490675
H54	H	0.456210	0.554446	0.462868
H55	H	0.408157	0.330426	0.342714
H56	H	0.890501	0.369616	0.326766
H57	H	0.856674	0.000070	-0.182077
C58	C	0.411592	-0.000045	0.426490
C59	C	0.426519	-0.119369	0.516461
C60	C	0.382485	-0.119474	0.652186
C61	C	0.323523	-0.000254	0.697941
C62	C	0.308593	0.119079	0.607969
C63	C	0.352627	0.119184	0.472244
H64	H	0.470169	-0.207631	0.482592
H65	H	0.393537	-0.207813	0.718789
H66	H	0.290926	-0.000331	0.798413
H67	H	0.264943	0.207341	0.641838
H68	H	0.341575	0.207523	0.405641
H69	H	1.176233	0.383568	0.017876
C70	C	0.830284	0.000077	-0.434150
C71	C	0.767542	0.118759	-0.403795
C72	C	0.682185	0.118737	-0.459370
C73	C	0.659569	0.000033	-0.545302
C74	C	0.722313	-0.118658	-0.575662
C75	C	0.807670	-0.118636	-0.520086
H76	H	0.784282	0.206638	-0.340179
H77	H	0.635738	0.206600	-0.436895
H78	H	0.596383	0.000017	-0.586442
H79	H	0.705573	-0.206537	-0.639277
H80	H	0.854117	-0.206499	-0.542561
H81	H	0.890508	0.630652	0.326749
C82	C	1.192796	-0.133160	-0.487944
C83	C	1.226066	-0.247390	-0.406239
C84	C	1.262091	-0.380707	-0.468384
C85	C	1.264847	-0.399794	-0.612235
C86	C	1.231576	-0.285560	-0.693949
C87	C	1.195551	-0.152243	-0.631804
H88	H	1.224026	-0.233264	-0.299744
H89	H	1.286720	-0.465271	-0.407893
H90	H	1.291515	-0.498483	-0.658239
H91	H	1.233615	-0.299685	-0.800443
H92	H	1.170921	-0.067679	-0.692294
H93	H	1.094839	0.616685	-0.102898
H94	H	1.100907	0.389134	-0.108271
H95	H	1.179794	0.611129	0.008744
H96	H	0.536541	-0.208071	0.283521
C97	C	0.442684	0.241508	0.042332
C98	C	0.476091	0.266238	-0.096721
C99	C	0.448560	0.394952	-0.165856
C100	C	0.387622	0.498937	-0.095937
C101	C	0.354210	0.474210	0.043123
C102	C	0.381741	0.345495	0.112258
H103	H	0.521205	0.189259	-0.148486
H104	H	0.473294	0.413256	-0.268798
H105	H	0.367242	0.594220	-0.147115
H106	H	0.309097	0.551189	0.094888
H107	H	0.357008	0.327191	0.215200
H108	H	1.193612	-0.095480	-0.265901
H109	H	1.187194	0.098869	-0.259545
H110	H	1.190019	0.095822	-0.467989
