data_functionalizedCrystal
_audit_creation_method	'MofGen! by Chris Wilmer'
_symmetry_space_group_name_H-M	'P1'
_symmetry_Int_Tables_number	1
_symmetry_cell_setting	triclinic
loop_
_symmetry_equiv_pos_as_xyz
  x,y,z
_cell_length_a	14.446369
_cell_length_b	14.446369
_cell_length_c	14.446369
_cell_angle_alpha	90.002885
_cell_angle_beta	60.000743
_cell_angle_gamma	59.996622
loop_
_atom_site_label
_atom_site_type_symbol
_atom_site_fract_x
_atom_site_fract_y
_atom_site_fract_z
Zr1	Zr	1.013214	-0.121488	0.891766
O2	O	1.206347	-0.269313	0.743952
O3	O	0.820091	-0.076166	0.937078
O4	O	1.013221	-0.269295	0.937069
O5	O	1.013209	0.076154	0.743968
O6	O	1.013215	-0.269289	1.089405
O7	O	1.013217	-0.076183	0.743960
O8	O	0.667741	0.076185	1.089420
O9	O	1.358683	-0.269320	0.743953
O10	O	0.899517	-0.056839	1.070091
O11	O	0.899516	0.056844	0.956410
O12	O	1.126901	-0.170541	0.956400
O13	O	1.126899	-0.056859	0.842720
Zr14	Zr	1.013192	0.121483	1.134737
Zr15	Zr	1.013205	-0.121477	1.134724
Zr16	Zr	1.013201	0.121472	0.891779
Zr17	Zr	1.256172	-0.121499	0.891768
Zr18	Zr	0.770234	0.121494	1.134735
O19	O	1.206315	0.076160	1.089425
O20	O	1.206334	-0.269298	1.089407
O21	O	1.206328	0.076145	0.743970
O22	O	0.820059	0.269307	1.282551
O23	O	0.820078	-0.076151	1.282533
O24	O	0.820072	0.269292	0.937096
O25	O	1.013197	-0.076159	1.282535
O26	O	1.013185	0.269290	1.089434
O27	O	1.013191	0.269284	0.937098
O28	O	1.013189	0.076178	1.282543
O29	O	1.358676	-0.269311	0.937072
O30	O	0.667730	0.269306	1.089431
O31	O	0.667723	0.269314	1.282550
O32	O	0.667734	0.076194	1.282540
O33	O	1.358672	-0.076199	0.743963
O34	O	1.358665	-0.076190	0.937083
O35	O	0.899505	0.170536	1.070103
O36	O	0.899507	0.056854	1.183783
O37	O	1.126890	-0.056849	1.070093
O38	O	1.126889	0.056834	0.956412
C39	C	0.709300	0.000011	1.013249
C40	C	0.606158	0.000016	1.013248
C41	C	1.013215	-0.000016	0.709348
C42	C	1.013219	-0.000020	0.606206
C43	C	1.013186	0.303904	1.013268
C44	C	1.013181	0.407046	1.013273
C45	C	0.459147	0.072044	0.941893
C46	C	0.566767	0.071753	0.941505
C47	C	0.655163	-0.123528	0.960935
C48	C	0.547930	-0.123154	0.960399
C49	C	0.372692	0.050469	1.136966
C50	C	0.478843	0.052990	1.136784
C51	C	1.317106	-0.000017	1.013254
C52	C	1.420248	-0.000021	1.013255
C53	C	1.013220	-0.303909	1.013235
C54	C	1.013225	-0.407052	1.013230
C55	C	0.869785	0.625425	1.084606
C56	C	0.869688	0.518193	1.085015
C57	C	1.084410	0.410377	1.065571
C58	C	1.083500	0.518146	1.066087
C59	C	1.086460	0.516759	0.889528
C60	C	1.083758	0.410790	0.889730
C61	C	1.156644	-0.071736	0.495208
C62	C	1.156695	-0.071402	0.387902
C63	C	0.941540	0.123582	0.495086
C64	C	0.942493	0.123169	0.601923
C65	C	0.940398	-0.050869	0.603066
C66	C	0.943063	-0.053344	0.494412
C67	C	1.013191	0.000011	1.317155
C68	C	1.013187	0.000015	1.420297
C69	C	0.709288	0.000025	1.317152
C70	C	0.606142	0.000034	1.420293
C71	C	0.709283	0.303917	1.013265
C72	C	0.606135	0.407065	1.013270
C73	C	0.709271	0.303931	1.317169
C74	C	0.606120	0.407083	1.420315
C75	C	1.317135	-0.303936	0.709334
C76	C	1.420286	-0.407088	0.606188
C77	C	1.317118	-0.000030	0.709351
C78	C	1.420264	-0.000039	0.606209
C79	C	1.317123	-0.303923	1.013238
C80	C	1.420271	-0.407070	1.013233
C81	C	0.459817	0.071378	1.638663
C82	C	0.566743	0.071779	1.531433
C83	C	0.479280	0.052339	1.423623
C84	C	0.371899	0.052862	1.531391
C85	C	0.546888	-0.123707	1.530009
C86	C	0.655364	-0.123512	1.424042
C87	C	0.459815	0.482055	0.941224
C88	C	0.566748	0.374716	0.941523
C89	C	0.479270	0.481634	1.136804
C90	C	0.371883	0.588504	1.136422
C91	C	0.546862	0.590074	0.962818
C92	C	0.655344	0.481392	0.960305
C93	C	0.459763	0.625462	1.495312
C94	C	0.566717	0.518220	1.387973
C95	C	0.479268	0.410403	1.494857
C96	C	0.371860	0.518181	1.601726
C97	C	0.546804	0.516835	1.603341
C98	C	0.655307	0.410856	1.494660
H99	H	0.530050	0.162726	0.976596
H100	H	0.834742	0.001115	0.681302
Cl101	Cl	1.008021	0.407102	1.204786
H102	H	0.837254	0.179649	0.680533
Cl103	Cl	0.783400	0.520680	1.030864
Cl104	Cl	0.227990	0.188790	1.204421
H105	H	0.745845	0.429961	0.869297
Cl106	Cl	0.231767	0.193411	1.609135
H107	H	0.341896	0.491532	1.680307
H108	H	1.212368	-0.036774	0.494310
Cl109	Cl	1.249605	0.474366	0.807037
Cl110	Cl	0.704969	-0.212529	1.301827
H111	H	0.439235	0.144006	1.175865
Cl112	Cl	0.704740	0.017536	1.533875
Cl113	Cl	0.782859	0.708737	1.030726
Cl114	Cl	1.015595	0.593977	0.822073
H115	H	0.745855	-0.162584	1.424562
H116	H	0.836009	0.179369	0.522360
H117	H	1.031818	0.411308	0.850662
Cl118	Cl	0.231747	0.595907	1.601292
H119	H	0.522102	-0.177135	1.502558
Cl120	Cl	0.704952	0.520794	1.032913
H121	H	0.529271	0.163037	1.533895
Cl122	Cl	1.005335	0.595899	1.206627
Cl123	Cl	0.512034	-0.019620	1.225796
H124	H	0.341949	0.004232	1.504734
Cl125	Cl	0.231763	0.588091	1.198802
Cl126	Cl	0.332592	-0.030184	1.219442
H127	H	0.525962	-0.179765	1.009019
H128	H	0.990682	0.164557	0.443635
Cl129	Cl	0.321940	0.212863	0.995801
H130	H	0.586461	-0.167398	1.580025
Cl131	Cl	0.513628	-0.024052	1.302781
Cl132	Cl	0.513620	0.289563	1.536895
Cl133	Cl	0.321379	0.480461	0.994767
Cl134	Cl	1.243033	-0.016891	0.305085
Cl135	Cl	1.245537	0.288744	0.800815
H136	H	0.586356	0.566863	1.607474
H137	H	1.212885	-0.162381	0.333460
H138	H	0.440716	0.142508	1.421495
Cl139	Cl	0.517224	0.708792	1.491725
Cl140	Cl	0.704709	0.290905	0.801077
H141	H	0.813445	0.520657	1.176270
Cl142	Cl	1.247304	0.289529	0.989182
H143	H	0.497058	0.479715	0.850027
Cl144	Cl	0.508914	0.291666	0.995572
Cl145	Cl	0.325606	0.709839	1.223838
Cl146	Cl	0.321374	0.211430	1.723546
Cl147	Cl	0.321330	0.710352	1.493702
H148	H	0.501513	0.508868	1.192826
Cl149	Cl	0.703890	0.017697	0.800619
H150	H	0.745766	0.411418	1.443264
H151	H	0.440729	0.408256	1.443236
Cl152	Cl	0.699682	-0.210035	1.037283
Cl153	Cl	0.419735	0.401963	1.199628
H154	H	0.586437	0.594185	0.873228
Cl155	Cl	0.508575	0.710851	1.043461
H156	H	0.992679	0.163959	0.601859
H157	H	0.687437	0.331699	1.520183
Cl158	Cl	0.704660	0.520720	1.304190
H159	H	0.494915	0.037333	0.851179
Cl160	Cl	0.508906	0.521987	1.304903
Cl161	Cl	1.244058	-0.212588	0.491310
Cl162	Cl	0.797685	-0.186362	0.821728
H163	H	0.522007	0.489393	1.681559
H164	H	0.588633	-0.163573	0.869365
H165	H	1.188740	0.491485	1.017454
Cl166	Cl	0.783278	0.710342	1.224641
H167	H	0.986637	-0.140518	0.606999
Cl168	Cl	1.023720	-0.193899	0.414759
H169	H	0.838390	-0.006563	0.519959
H170	H	0.497058	0.036474	1.692618
