data_functionalizedCrystal
_audit_creation_method	'MofGen! by Chris Wilmer'
_symmetry_space_group_name_H-M	'P1'
_symmetry_Int_Tables_number	1
_symmetry_cell_setting	triclinic
loop_
_symmetry_equiv_pos_as_xyz
  x,y,z
_cell_length_a	18.101398
_cell_length_b	19.805405
_cell_length_c	19.805398
_cell_angle_alpha	90.030326
_cell_angle_beta	89.982499
_cell_angle_gamma	89.978323
loop_
_atom_site_label
_atom_site_type_symbol
_atom_site_fract_x
_atom_site_fract_y
_atom_site_fract_z
Zn1	Zn	1.132095	0.269557	-0.382791
Zn2	Zn	1.465429	0.602891	-0.049457
Zn3	Zn	1.798762	0.936224	0.283876
Zn4	Zn	1.132016	0.382748	-0.269599
Zn5	Zn	1.465349	0.716081	0.063734
Zn6	Zn	1.798683	1.049415	0.397068
Zn7	Zn	1.008269	0.269569	-0.269607
Zn8	Zn	1.341602	0.602902	0.063727
Zn9	Zn	1.674936	0.936235	0.397060
Zn10	Zn	1.008215	0.382701	-0.382737
Zn11	Zn	1.341548	0.716034	-0.049404
Zn12	Zn	1.674882	1.049367	0.283930
O13	O	1.070149	0.326144	-0.326183
O14	O	1.403482	0.659477	0.007150
O15	O	1.736816	0.992810	0.340483
O16	O	1.235718	0.284587	-0.367795
O17	O	1.569051	0.617921	-0.034461
O18	O	1.902384	0.951254	0.298872
O19	O	1.115590	0.367759	-0.174883
O20	O	1.448923	0.701092	0.158450
O21	O	1.782257	1.034426	0.491783
O22	O	1.024750	0.174851	-0.284646
O23	O	1.358084	0.508184	0.048687
O24	O	1.691417	0.841517	0.382020
O25	O	1.235659	0.367748	-0.284633
O26	O	1.568993	0.701081	0.048700
O27	O	1.902326	1.034415	0.382033
O28	O	1.115725	0.174842	-0.367802
O29	O	1.449058	0.508176	-0.034469
O30	O	1.782392	0.841509	0.298865
O31	O	1.024674	0.284607	-0.174889
O32	O	1.358007	0.617940	0.158444
O33	O	1.691340	0.951273	0.491778
O34	O	0.904629	0.284561	-0.284594
O35	O	1.237962	0.617894	0.048739
O36	O	1.571296	0.951228	0.382072
O37	O	1.024659	0.367667	-0.477461
O38	O	1.357992	0.701001	-0.144127
O39	O	1.691325	1.034334	0.189206
O40	O	0.904589	0.367678	-0.367711
O41	O	1.237923	0.701012	-0.034377
O42	O	1.571256	1.034345	0.298956
O43	O	1.115673	0.284542	-0.477500
O44	O	1.449006	0.617875	-0.144167
O45	O	1.782340	0.951208	0.189167
O46	O	1.115538	0.477458	-0.284581
O47	O	1.448871	0.810792	0.048752
O48	O	1.782205	1.144125	0.382085
O49	O	1.024582	0.477423	-0.367703
O50	O	1.357915	0.810757	-0.034370
O51	O	1.691249	1.144090	0.298963
C52	C	1.070066	0.502000	-0.326151
C53	C	1.403399	0.835333	0.007183
C54	C	1.736732	1.168666	0.340516
C55	C	1.070098	0.577232	-0.326159
C56	C	1.403431	0.910565	0.007174
C57	C	1.736764	1.243898	0.340508
C58	C	0.877738	0.326116	-0.326148
C59	C	1.211072	0.659450	0.007185
C60	C	1.544405	0.992783	0.340519
C61	C	0.795424	0.326121	-0.326149
C62	C	1.128758	0.659454	0.007184
C63	C	1.462091	0.992787	0.340518
C64	C	1.070169	0.326098	-0.502726
C65	C	1.403502	0.659431	-0.169393
C66	C	1.736835	0.992765	0.163941
C67	C	1.070177	0.326078	-0.577958
C68	C	1.403510	0.659412	-0.244625
C69	C	1.736844	0.992745	0.088709
C70	C	0.496333	0.326163	-0.326206
C71	C	0.829667	0.659496	0.007128
C72	C	1.163000	0.992830	0.340461
C73	C	0.527659	0.273606	-0.274166
C74	C	0.860992	0.606940	0.059167
C75	C	1.194325	0.940273	0.392500
C76	C	0.613277	0.273747	-0.273944
C77	C	0.946610	0.607081	0.059389
C78	C	1.279943	0.940414	0.392722
C79	C	0.644716	0.326141	-0.326178
C80	C	0.978049	0.659475	0.007156
C81	C	1.311382	0.992808	0.340489
C82	C	0.613607	0.397441	-0.306685
C83	C	0.946940	0.730774	0.026649
C84	C	1.280273	1.064108	0.359982
C85	C	0.527961	0.397149	-0.306323
C86	C	0.861295	0.730482	0.027011
C87	C	1.194628	1.063816	0.360344
C88	C	0.527937	0.308040	-0.397861
C89	C	0.861270	0.641373	-0.064527
C90	C	1.194604	0.974707	0.268806
C91	C	0.613588	0.306452	-0.397470
C92	C	0.946921	0.639786	-0.064136
C93	C	1.280254	0.973119	0.269197
C94	C	0.728575	0.326134	-0.326163
C95	C	1.061909	0.659467	0.007171
C96	C	1.395242	0.992800	0.340504
C97	C	0.412474	0.326176	-0.326219
C98	C	0.745807	0.659509	0.007114
C99	C	1.079140	0.992842	0.340448
C100	C	1.263311	0.326172	-0.326219
C101	C	1.596644	0.659505	0.007114
C102	C	1.929977	0.992838	0.340448
C103	C	1.345625	0.326184	-0.326234
C104	C	1.678958	0.659517	0.007099
C105	C	2.012291	0.992850	0.340432
C106	C	1.070253	0.149601	-0.326231
C107	C	1.403586	0.482934	0.007102
C108	C	1.736919	0.816268	0.340436
C109	C	1.070297	0.074369	-0.326251
C110	C	1.403630	0.407702	0.007082
C111	C	1.736964	0.741036	0.340415
C112	C	1.117504	0.612571	-0.282923
C113	C	1.450838	0.945905	0.050411
C114	C	1.784171	1.279238	0.383744
C115	C	1.117536	0.683260	-0.282938
C116	C	1.450869	1.016593	0.050396
C117	C	1.784203	1.349927	0.383729
C118	C	1.070156	0.718607	-0.326186
C119	C	1.403490	1.051941	0.007147
C120	C	1.736823	1.385274	0.340480
C121	C	1.022747	0.683263	-0.369427
C122	C	1.356081	1.016596	-0.036094
C123	C	1.689414	1.349929	0.297239
C124	C	1.022720	0.612575	-0.369415
C125	C	1.356054	0.945909	-0.036082
C126	C	1.689387	1.279242	0.297251
C127	C	1.022857	0.968336	-0.369477
C128	C	1.356190	1.301669	-0.036144
C129	C	1.689523	1.635002	0.297189
C130	C	1.022886	1.039028	-0.369485
C131	C	1.356219	1.372361	-0.036151
C132	C	1.689553	1.705695	0.297182
C133	C	1.117672	1.039020	-0.283000
C134	C	1.451006	1.372354	0.050333
C135	C	1.784339	1.705687	0.383667
C136	C	1.117645	0.968333	-0.282988
C137	C	1.450978	1.301666	0.050345
C138	C	1.784312	1.635000	0.383679
C139	C	1.070239	0.932995	-0.326231
C140	C	1.403573	1.266328	0.007102
C141	C	1.736906	1.599661	0.340435
C142	C	1.070207	0.856346	-0.326215
C143	C	1.403540	1.189680	0.007118
C144	C	1.736873	1.523013	0.340451
C145	C	1.070185	0.795254	-0.326199
C146	C	1.403518	1.128588	0.007134
C147	C	1.736851	1.461921	0.340468
C148	C	1.117634	0.369268	-1.039744
C149	C	1.450967	0.702601	-0.706411
C150	C	1.784301	1.035935	-0.373077
C151	C	1.117614	0.369286	-0.969056
C152	C	1.450947	0.702620	-0.635722
C153	C	1.784280	1.035953	-0.302389
C154	C	1.070269	0.326002	-0.933720
C155	C	1.403602	0.659335	-0.600387
C156	C	1.736936	0.992669	-0.267053
C157	C	1.022937	0.282701	-0.969077
C158	C	1.356270	0.616035	-0.635743
C159	C	1.689603	0.949368	-0.302410
C160	C	1.022954	0.282687	-1.039764
C161	C	1.356287	0.616020	-0.706431
C162	C	1.689621	0.949354	-0.373097
C163	C	1.022865	0.282759	-0.684003
C164	C	1.356198	0.616093	-0.350670
C165	C	1.689532	0.949426	-0.017337
C166	C	1.022853	0.282776	-0.613311
C167	C	1.356186	0.616109	-0.279978
C168	C	1.689520	0.949442	0.053356
C169	C	1.117525	0.369359	-0.613295
C170	C	1.450858	0.702692	-0.279962
C171	C	1.784191	1.036026	0.053372
C172	C	1.117542	0.369344	-0.683982
C173	C	1.450875	0.702678	-0.350649
C174	C	1.784209	1.036011	-0.017315
C175	C	1.070207	0.326047	-0.719333
C176	C	1.403541	0.659380	-0.385999
C177	C	1.736874	0.992713	-0.052666
C178	C	1.070229	0.326028	-0.795981
C179	C	1.403562	0.659361	-0.462648
C180	C	1.736896	0.992695	-0.129314
C181	C	1.070250	0.326017	-0.857073
C182	C	1.403584	0.659350	-0.523740
C183	C	1.736917	0.992683	-0.190406
C184	C	1.070172	0.326140	-0.150327
C185	C	1.403505	0.659474	0.183006
C186	C	1.736838	0.992807	0.516339
C187	C	1.070307	0.325969	-0.075096
C188	C	1.403640	0.659303	0.258238
C189	C	1.736973	0.992636	0.591571
H190	H	0.634311	0.220876	-0.286163
H191	H	0.967644	0.554209	0.047170
H192	H	1.300978	0.887542	0.380504
Cl193	Cl	0.495890	0.191724	-0.292821
Cl194	Cl	0.829224	0.525057	0.040513
Cl195	Cl	1.162557	0.858391	0.373846
H196	H	0.984297	0.247526	-0.584543
H197	H	1.317630	0.580860	-0.251210
H198	H	1.650964	0.914193	0.082124
H199	H	0.984321	0.247504	-0.712777
H200	H	1.317654	0.580838	-0.379444
H201	H	1.650988	0.914171	-0.046110
Cl202	Cl	0.963427	0.228277	-0.924655
Cl203	Cl	1.296761	0.561610	-0.591321
Cl204	Cl	1.630094	0.894944	-0.257988
H205	H	1.156275	1.067801	-0.247792
H206	H	1.489609	1.401135	0.085542
H207	H	1.822942	1.734468	0.418875
Cl208	Cl	0.495963	0.459656	-0.362284
Cl209	Cl	0.829296	0.792990	-0.028950
Cl210	Cl	1.162630	1.126323	0.304383
H211	H	0.635029	0.413077	-0.254867
H212	H	0.968363	0.746410	0.078466
H213	H	1.301696	1.079744	0.411800
Cl214	Cl	0.494625	0.229164	-0.425222
Cl215	Cl	0.827959	0.562498	-0.091888
Cl216	Cl	1.161292	0.895831	0.241445
Cl217	Cl	0.645000	0.225451	-0.420173
Cl218	Cl	0.978333	0.558784	-0.086840
Cl219	Cl	1.311666	0.892118	0.246494
H220	H	0.984256	0.939569	-0.404686
H221	H	1.317589	1.272902	-0.071353
H222	H	1.650922	1.606235	0.261980
H223	H	0.633738	0.285728	-0.220849
H224	H	0.967072	0.619061	0.112485
H225	H	1.300405	0.952395	0.445818
H226	H	0.506117	0.285452	-0.221380
H227	H	0.839451	0.618785	0.111954
H228	H	1.172784	0.952118	0.445287
Cl229	Cl	0.963123	0.568148	-0.423774
Cl230	Cl	1.296456	0.901481	-0.090441
Cl231	Cl	1.629790	1.234815	0.242893
H232	H	0.984305	1.067806	-0.404708
H233	H	1.317638	1.401139	-0.071375
H234	H	1.650971	1.734472	0.261959
Cl235	Cl	1.177064	0.423761	-0.728400
Cl236	Cl	1.510397	0.757094	-0.395067
Cl237	Cl	1.843731	1.090427	-0.061733
Cl238	Cl	0.645035	0.459520	-0.363376
Cl239	Cl	0.978368	0.792854	-0.030042
Cl240	Cl	1.311702	1.126187	0.303291
Cl241	Cl	0.963188	0.727699	-0.423801
Cl242	Cl	1.296522	1.061033	-0.090468
Cl243	Cl	1.629855	1.394366	0.242866
Cl244	Cl	0.963458	0.228248	-1.084206
Cl245	Cl	1.296791	0.561581	-0.750873
Cl246	Cl	1.630125	0.894915	-0.417540
H247	H	1.156191	0.404512	-1.068509
H248	H	1.489524	0.737846	-0.735176
H249	H	1.822858	1.071179	-0.401842
Cl250	Cl	1.177115	0.423720	-0.924616
Cl251	Cl	1.510448	0.757054	-0.591283
Cl252	Cl	1.843782	1.090387	-0.257950
H253	H	0.507958	0.412518	-0.253939
H254	H	0.841291	0.745852	0.079394
H255	H	1.174625	1.079185	0.412727
Cl256	Cl	1.177138	0.727684	-0.228583
Cl257	Cl	1.510471	1.061017	0.104750
Cl258	Cl	1.843805	1.394351	0.438084
H259	H	1.156065	0.404616	-0.584504
H260	H	1.489398	0.737950	-0.251171
H261	H	1.822731	1.071283	0.082163
H262	H	0.634991	0.341942	-0.438321
H263	H	0.968324	0.675276	-0.104988
H264	H	1.301657	1.008609	0.228346
H265	H	0.507679	0.346320	-0.436635
H266	H	0.841012	0.679654	-0.103302
H267	H	1.174345	1.012987	0.230032
Cl268	Cl	1.177066	0.568142	-0.228546
Cl269	Cl	1.510400	0.901475	0.104788
Cl270	Cl	1.843733	1.234808	0.438121
H271	H	1.156223	0.939556	-0.247769
H272	H	1.489557	1.272889	0.085565
H273	H	1.822890	1.606222	0.418898
