data_functionalizedCrystal
_audit_creation_method	'MofGen! by Chris Wilmer'
_symmetry_space_group_name_H-M	'P1'
_symmetry_Int_Tables_number	1
_symmetry_cell_setting	triclinic
loop_
_symmetry_equiv_pos_as_xyz
  x,y,z
_cell_length_a	18.050591
_cell_length_b	18.050590
_cell_length_c	18.050582
_cell_angle_alpha	90.023337
_cell_angle_beta	90.010544
_cell_angle_gamma	90.017393
loop_
_atom_site_label
_atom_site_type_symbol
_atom_site_fract_x
_atom_site_fract_y
_atom_site_fract_z
Zn1	Zn	1.135342	-0.295730	0.419822
Zn2	Zn	1.385342	-0.045730	0.669822
Zn3	Zn	1.635342	0.204270	0.919822
Zn4	Zn	1.885342	0.454270	1.169822
Zn5	Zn	1.135274	-0.419913	0.295630
Zn6	Zn	1.385274	-0.169913	0.545630
Zn7	Zn	1.635274	0.080087	0.795630
Zn8	Zn	1.885274	0.330087	1.045630
Zn9	Zn	1.011162	-0.295739	0.295655
Zn10	Zn	1.261162	-0.045739	0.545655
Zn11	Zn	1.511162	0.204261	0.795655
Zn12	Zn	1.761162	0.454261	1.045655
Zn13	Zn	1.011131	-0.419880	0.419788
Zn14	Zn	1.261131	-0.169880	0.669788
Zn15	Zn	1.511131	0.080120	0.919788
Zn16	Zn	1.761131	0.330120	1.169788
O17	O	1.073227	-0.357815	0.357724
O18	O	1.323227	-0.107815	0.607724
O19	O	1.573227	0.142185	0.857724
O20	O	1.823227	0.392185	1.107724
O21	O	1.239258	-0.312213	0.403351
O22	O	1.489258	-0.062213	0.653351
O23	O	1.739258	0.187787	0.903351
O24	O	1.989258	0.437787	1.153351
O25	O	1.118795	-0.403459	0.191709
O26	O	1.368795	-0.153459	0.441709
O27	O	1.618795	0.096541	0.691709
O28	O	1.868795	0.346541	0.941709
O29	O	1.027676	-0.191813	0.312151
O30	O	1.277676	0.058187	0.562151
O31	O	1.527676	0.308187	0.812151
O32	O	1.777676	0.558187	1.062151
O33	O	1.239208	-0.403450	0.312108
O34	O	1.489208	-0.153450	0.562108
O35	O	1.739208	0.096550	0.812108
O36	O	1.989208	0.346550	1.062108
O37	O	1.118911	-0.191806	0.403376
O38	O	1.368911	0.058194	0.653376
O39	O	1.618911	0.308194	0.903376
O40	O	1.868911	0.558194	1.153376
O41	O	1.027610	-0.312228	0.191727
O42	O	1.277610	-0.062228	0.441727
O43	O	1.527610	0.187772	0.691727
O44	O	1.777610	0.437772	0.941727
O45	O	0.907233	-0.312196	0.312118
O46	O	1.157233	-0.062196	0.562118
O47	O	1.407233	0.187804	0.812118
O48	O	1.657233	0.437804	1.062118
O49	O	1.027623	-0.403393	0.523717
O50	O	1.277623	-0.153393	0.773717
O51	O	1.527623	0.096607	1.023717
O52	O	1.777623	0.346607	1.273717
O53	O	0.907210	-0.403402	0.403318
O54	O	1.157210	-0.153402	0.653318
O55	O	1.407210	0.096598	0.903318
O56	O	1.657210	0.346598	1.153318
O57	O	1.118881	-0.312181	0.523742
O58	O	1.368881	-0.062181	0.773742
O59	O	1.618881	0.187819	1.023742
O60	O	1.868881	0.437819	1.273742
O61	O	1.118764	-0.523833	0.312075
O62	O	1.368764	-0.273833	0.562075
O63	O	1.618764	-0.023833	0.812075
O64	O	1.868764	0.226167	1.062075
O65	O	1.027557	-0.523809	0.403294
O66	O	1.277557	-0.273809	0.653294
O67	O	1.527557	-0.023809	0.903294
O68	O	1.777557	0.226191	1.153294
C69	C	0.880275	-0.357797	0.357718
C70	C	1.130275	-0.107797	0.607718
C71	C	1.380275	0.142203	0.857718
C72	C	1.630275	0.392203	1.107718
C73	C	0.797729	-0.357807	0.357733
C74	C	1.047729	-0.107807	0.607733
C75	C	1.297729	0.142193	0.857733
C76	C	1.547729	0.392193	1.107733
C77	C	1.073170	-0.550767	0.357694
C78	C	1.323170	-0.300767	0.607694
C79	C	1.573170	-0.050767	0.857694
C80	C	1.823170	0.199233	1.107694
C81	C	1.073214	-0.633313	0.357706
C82	C	1.323214	-0.383313	0.607706
C83	C	1.573214	-0.133313	0.857706
C84	C	1.823214	0.116687	1.107706
C85	C	0.548913	-0.407508	0.407260
C86	C	0.798913	-0.157508	0.657260
C87	C	1.048913	0.092492	0.907260
C88	C	1.298913	0.342492	1.157260
C89	C	0.598286	-0.425579	0.339473
C90	C	0.848286	-0.175579	0.589473
C91	C	1.098286	0.074421	0.839473
C92	C	1.348286	0.324421	1.089473
C93	C	0.500609	-0.357831	0.357731
C94	C	0.750609	-0.107831	0.607731
C95	C	1.000609	0.142169	0.857731
C96	C	1.250609	0.392169	1.107731
C97	C	0.598317	-0.339783	0.425514
C98	C	0.848317	-0.089783	0.675514
C99	C	1.098317	0.160217	0.925514
C100	C	1.348317	0.410217	1.175514
C101	C	0.646594	-0.357821	0.357736
C102	C	0.896594	-0.107821	0.607736
C103	C	1.146594	0.142179	0.857736
C104	C	1.396594	0.392179	1.107736
C105	C	0.548895	-0.375937	0.289909
C106	C	0.798895	-0.125937	0.539909
C107	C	1.048895	0.124063	0.789909
C108	C	1.298895	0.374063	1.039909
C109	C	0.548922	-0.290110	0.375996
C110	C	0.798922	-0.040110	0.625996
C111	C	1.048922	0.209890	0.875996
C112	C	1.298922	0.459890	1.125996
C113	C	0.598273	-0.308155	0.308163
C114	C	0.848273	-0.058155	0.558163
C115	C	1.098273	0.191845	0.808163
C116	C	1.348273	0.441845	1.058163
C117	C	0.416511	-0.357838	0.357730
C118	C	0.666511	-0.107838	0.607730
C119	C	0.916511	0.142162	0.857730
C120	C	1.166511	0.392162	1.107730
C121	C	0.730690	-0.357813	0.357730
C122	C	0.980690	-0.107813	0.607730
C123	C	1.230690	0.142187	0.857730
C124	C	1.480690	0.392187	1.107730
C125	C	1.122915	-0.832750	0.308171
C126	C	1.372915	-0.582750	0.558171
C127	C	1.622915	-0.332750	0.808171
C128	C	1.872915	-0.082750	1.058171
C129	C	1.141051	-0.882089	0.375950
C130	C	1.391051	-0.632089	0.625950
C131	C	1.641051	-0.382089	0.875950
C132	C	1.891051	-0.132089	1.125950
C133	C	1.073256	-0.784444	0.357736
C134	C	1.323256	-0.534444	0.607736
C135	C	1.573256	-0.284444	0.857736
C136	C	1.823256	-0.034444	1.107736
C137	C	1.055196	-0.882186	0.289988
C138	C	1.305196	-0.632186	0.539988
C139	C	1.555196	-0.382186	0.789988
C140	C	1.805196	-0.132186	1.039988
C141	C	1.073298	-0.930429	0.357759
C142	C	1.323298	-0.680429	0.607759
C143	C	1.573298	-0.430429	0.857759
C144	C	1.823298	-0.180429	1.107759
C145	C	1.091426	-0.832695	0.425550
C146	C	1.341426	-0.582695	0.675550
C147	C	1.591426	-0.332695	0.925550
C148	C	1.841426	-0.082695	1.175550
C149	C	1.005539	-0.832788	0.339543
C150	C	1.255539	-0.582788	0.589543
C151	C	1.505539	-0.332788	0.839543
C152	C	1.755539	-0.082788	1.089543
C153	C	1.023649	-0.882105	0.407368
C154	C	1.273649	-0.632105	0.657368
C155	C	1.523649	-0.382105	0.907368
C156	C	1.773649	-0.132105	1.157368
C157	C	1.073233	-0.700345	0.357722
C158	C	1.323233	-0.450345	0.607722
C159	C	1.573233	-0.200345	0.857722
C160	C	1.823233	0.049655	1.107722
C161	C	1.073320	-1.014525	0.357780
C162	C	1.323320	-0.764525	0.607780
C163	C	1.573320	-0.514525	0.857780
C164	C	1.823320	-0.264525	1.107780
C165	C	1.266933	-0.357834	0.357730
C166	C	1.516933	-0.107834	0.607730
C167	C	1.766933	0.142166	0.857730
C168	C	2.016933	0.392166	1.107730
C169	C	1.349478	-0.357842	0.357733
C170	C	1.599478	-0.107842	0.607733
C171	C	1.849478	0.142158	0.857733
C172	C	2.099478	0.392158	1.107733
C173	C	1.073256	-0.357782	0.551430
C174	C	1.323256	-0.107782	0.801430
C175	C	1.573256	0.142218	1.051430
C176	C	1.823256	0.392218	1.301430
C177	C	1.073269	-0.357768	0.633975
C178	C	1.323269	-0.107768	0.883975
C179	C	1.573269	0.142232	1.133975
C180	C	1.823269	0.392232	1.383975
C181	C	1.073305	-0.164110	0.357770
C182	C	1.323305	0.085890	0.607770
C183	C	1.573305	0.335890	0.857770
C184	C	1.823305	0.585890	1.107770
C185	C	1.073338	-0.081564	0.357789
C186	C	1.323338	0.168436	0.607789
C187	C	1.573338	0.418436	0.857789
C188	C	1.823338	0.668436	1.107789
C189	C	1.073241	-0.357794	0.164772
C190	C	1.323241	-0.107794	0.414772
C191	C	1.573241	0.142206	0.664772
C192	C	1.823241	0.392206	0.914772
C193	C	1.073372	-0.357599	0.082226
C194	C	1.323372	-0.107599	0.332226
C195	C	1.573372	0.142401	0.582226
C196	C	1.823372	0.392401	0.832226
C197	C	1.023680	-0.407302	0.833413
C198	C	1.273680	-0.157302	1.083413
C199	C	1.523680	0.092698	1.333413
C200	C	1.773680	0.342698	1.583413
C201	C	1.091439	-0.425457	0.882799
C202	C	1.341439	-0.175457	1.132799
C203	C	1.591439	0.074543	1.382799
C204	C	1.841439	0.324543	1.632799
C205	C	1.073305	-0.357712	0.785106
C206	C	1.323305	-0.107712	1.035106
C207	C	1.573305	0.142288	1.285106
C208	C	1.823305	0.392288	1.535106
C209	C	1.005584	-0.339536	0.882802
C210	C	1.255584	-0.089536	1.132802
C211	C	1.505584	0.160464	1.382802
C212	C	1.755584	0.410464	1.632802
C213	C	1.073335	-0.357658	0.931091
C214	C	1.323335	-0.107658	1.181091
C215	C	1.573335	0.142342	1.431091
C216	C	1.823335	0.392342	1.681091
C217	C	1.141099	-0.375902	0.833405
C218	C	1.391099	-0.125902	1.083405
C219	C	1.641099	0.124098	1.333405
C220	C	1.891099	0.374098	1.583405
C221	C	1.055199	-0.289950	0.833403
C222	C	1.305199	-0.039950	1.083403
C223	C	1.555199	0.210050	1.333403
C224	C	1.805199	0.460050	1.583403
C225	C	1.123004	-0.308079	0.882767
C226	C	1.373004	-0.058079	1.132767
C227	C	1.623004	0.191921	1.382767
C228	C	1.873004	0.441921	1.632767
C229	C	1.073287	-0.357744	0.701008
C230	C	1.323287	-0.107744	0.951008
C231	C	1.573287	0.142256	1.201008
C232	C	1.823287	0.392256	1.451008
C233	C	1.073360	-0.357626	1.015188
C234	C	1.323360	-0.107626	1.265188
C235	C	1.573360	0.142374	1.515188
C236	C	1.823360	0.392374	1.765188
H237	H	0.527240	-0.449554	0.449090
H238	H	0.777240	-0.199554	0.699090
H239	H	1.027240	0.050446	0.949090
H240	H	1.277240	0.300446	1.199090
H241	H	1.198335	-0.903747	0.391353
H242	H	1.448335	-0.653747	0.641353
H243	H	1.698335	-0.403747	0.891353
H244	H	1.948335	-0.153747	1.141353
F245	F	1.035207	-0.910601	0.215089
F246	F	1.285207	-0.660601	0.465089
F247	F	1.535207	-0.410601	0.715089
F248	F	1.785207	-0.160601	0.965089
H249	H	0.619809	-0.266140	0.266232
H250	H	0.869809	-0.016140	0.516232
H251	H	1.119809	0.233860	0.766232
H252	H	1.369809	0.483860	1.016232
H253	H	0.981672	-0.903639	0.449342
H254	H	1.231672	-0.653639	0.699342
H255	H	1.481672	-0.403639	0.949342
H256	H	1.731672	-0.153639	1.199342
H257	H	0.981754	-0.449294	0.811743
H258	H	1.231754	-0.199294	1.061743
H259	H	1.481754	0.050706	1.311743
H260	H	1.731754	0.300706	1.561743
F261	F	1.111510	-0.804404	0.500470
F262	F	1.361510	-0.554404	0.750470
F263	F	1.611510	-0.304404	1.000470
F264	F	1.861510	-0.054404	1.250470
H265	H	0.948301	-0.324186	0.904500
H266	H	1.198301	-0.074186	1.154500
H267	H	1.448301	0.175814	1.404500
H268	H	1.698301	0.425814	1.654500
F269	F	0.626631	-0.500428	0.319277
F270	F	0.876631	-0.250428	0.569277
F271	F	1.126631	-0.000428	0.819277
F272	F	1.376631	0.249572	1.069277
H273	H	1.106771	-0.482739	0.904496
H274	H	1.356771	-0.232739	1.154496
H275	H	1.606771	0.017261	1.404496
H276	H	1.856771	0.267261	1.654496
H277	H	0.948271	-0.811114	0.324120
H278	H	1.198271	-0.561114	0.574120
H279	H	1.448271	-0.311114	0.824120
H280	H	1.698271	-0.061114	1.074120
H281	H	1.198399	-0.391318	0.811797
H282	H	1.448399	-0.141318	1.061797
H283	H	1.698399	0.108682	1.311797
H284	H	1.948399	0.358682	1.561797
F285	F	1.177934	-0.253235	0.910917
F286	F	1.427934	-0.003235	1.160917
F287	F	1.677934	0.246765	1.410917
F288	F	1.927934	0.496765	1.660917
F289	F	0.626694	-0.319836	0.500436
F290	F	0.876694	-0.069836	0.750436
F291	F	1.126694	0.180164	1.000436
F292	F	1.376694	0.430164	1.250436
H293	H	0.527277	-0.391267	0.232572
H294	H	0.777277	-0.141267	0.482572
H295	H	1.027277	0.108733	0.732572
H296	H	1.277277	0.358733	0.982572
F297	F	0.520556	-0.215280	0.396218
F298	F	0.770556	0.034720	0.646218
F299	F	1.020556	0.284720	0.896218
F300	F	1.270556	0.534720	1.146218
F301	F	1.177823	-0.804422	0.253440
F302	F	1.427823	-0.554422	0.503440
F303	F	1.677823	-0.304422	0.753440
F304	F	1.927823	-0.054422	1.003440
H305	H	1.039846	-0.232684	0.811690
H306	H	1.289846	0.017316	1.061690
H307	H	1.539846	0.267316	1.311690
H308	H	1.789846	0.517316	1.561690
