data_functionalizedCrystal
_audit_creation_method	'MofGen! by Chris Wilmer'
_symmetry_space_group_name_H-M	'P1'
_symmetry_Int_Tables_number	1
_symmetry_cell_setting	triclinic
loop_
_symmetry_equiv_pos_as_xyz
  x,y,z
_cell_length_a	16.109302
_cell_length_b	22.610064
_cell_length_c	16.109301
_cell_angle_alpha	89.994133
_cell_angle_beta	96.538369
_cell_angle_gamma	90.017225
loop_
_atom_site_label
_atom_site_type_symbol
_atom_site_fract_x
_atom_site_fract_y
_atom_site_fract_z
O1	O	1.103145	0.049213	-0.106868
O2	O	0.861083	0.049209	-0.120167
O3	O	0.988763	0.049205	0.007513
O4	O	0.975464	0.049217	-0.234548
O5	O	0.988726	-0.049164	0.007514
O6	O	0.861045	-0.049161	-0.120167
O7	O	1.103107	-0.049156	-0.106868
Zn8	Zn	0.982070	-0.064777	-0.113517
Zn9	Zn	0.982120	0.064829	-0.113518
O10	O	0.975427	-0.049152	-0.234548
C11	C	0.830089	0.000023	-0.119628
C12	C	0.737794	0.000021	-0.118013
N13	N	0.982043	-0.153229	-0.113517
C14	C	0.525433	-0.053594	-0.114277
C15	C	0.438713	-0.053592	-0.112751
C16	C	0.438764	0.053656	-0.112755
C17	C	0.525483	0.053653	-0.114276
C18	C	0.568815	0.000027	-0.115041
C19	C	0.395375	0.000031	-0.111994
C20	C	0.301350	0.000034	-0.110338
C21	C	0.662847	0.000024	-0.116695
C22	C	1.032529	-0.561867	-0.163950
C23	C	1.032539	-0.623787	-0.163948
O24	O	1.075431	-0.655803	-0.206822
N25	N	0.982136	-0.654766	-0.113508
C26	C	0.931725	-0.623822	-0.063061
O27	O	0.888854	-0.655858	-0.020157
C28	C	0.931719	-0.561904	-0.063059
C29	C	0.982120	-0.530928	-0.113508
C30	C	1.082926	-0.530891	-0.214394
C31	C	1.082914	-0.468975	-0.214397
C32	C	1.032505	-0.438036	-0.163956
C33	C	0.982108	-0.469012	-0.113511
C34	C	0.881313	-0.530961	-0.012608
C35	C	0.881312	-0.469038	-0.012610
C36	C	0.931713	-0.438062	-0.063059
C37	C	0.931687	-0.376157	-0.063073
N38	N	0.982091	-0.345177	-0.113512
C39	C	1.032500	-0.376117	-0.163954
C40	C	0.931741	-0.753856	-0.063067
C41	C	0.931741	-0.815774	-0.063073
C42	C	1.032557	-0.815734	-0.163959
C43	C	1.032552	-0.753815	-0.163957
C44	C	0.982145	-0.722877	-0.113507
C45	C	1.032471	-0.246090	-0.163957
C46	C	1.032452	-0.184169	-0.163958
C47	C	0.931639	-0.184214	-0.063069
C48	C	0.931655	-0.246129	-0.063071
C49	C	0.982077	-0.277066	-0.113517
O50	O	0.888820	-0.344102	-0.020217
O51	O	1.075372	-0.344073	-0.206842
C52	C	1.134101	0.000030	-0.107407
C53	C	1.226396	0.000036	-0.109022
C54	C	0.988206	0.000020	0.038488
C55	C	0.986591	0.000019	0.130784
N56	N	0.982154	0.153281	-0.113512
C57	C	0.975984	0.000034	-0.265523
C58	C	0.977599	0.000038	-0.357819
C59	C	1.058599	0.000030	0.353056
C60	C	1.057074	0.000035	0.439776
C61	C	0.905586	0.000030	0.419902
C62	C	0.907111	0.000029	0.333184
C63	C	0.983620	0.000026	0.299763
C64	C	0.980571	0.000032	0.473202
C65	C	0.978918	0.000037	0.567228
C66	C	0.985273	0.000022	0.205731
H67	H	0.560711	-0.097260	-0.114900
O68	O	0.396448	-0.105626	-0.111967
C69	C	0.262828	-0.153156	-0.109657
C70	C	0.310589	-0.094183	-0.110528
H71	H	0.193400	-0.143925	-0.108511
H72	H	0.287438	-0.179607	-0.051791
H73	H	0.272287	-0.179599	-0.168092
H74	H	0.301150	-0.067691	-0.052133
H75	H	0.285970	-0.067776	-0.168433
O76	O	0.396743	0.105782	-0.112136
C77	C	0.360769	0.197428	-0.183698
C78	C	0.408411	0.138421	-0.184489
H79	H	0.370171	0.223827	-0.242197
H80	H	0.385464	0.223914	-0.125891
H81	H	0.291346	0.188203	-0.182444
H82	H	0.477841	0.147592	-0.185772
H83	H	0.383648	0.111953	-0.242290
H84	H	0.560806	0.097320	-0.114896
O85	O	1.081493	-0.154171	-0.212988
C86	C	1.181451	-0.160678	-0.313090
C87	C	1.125969	-0.194720	-0.257594
H88	H	1.217411	-0.193447	-0.349182
H89	H	1.227431	-0.131694	-0.272253
H90	H	1.140533	-0.131683	-0.358965
H91	H	1.166820	-0.223747	-0.211711
H92	H	1.079984	-0.223667	-0.298483
H93	H	0.843295	0.000031	0.447124
H94	H	1.073530	-0.271271	-0.205035
H95	H	0.846050	0.000028	0.289790
O96	O	0.832337	-0.560952	0.036480
C97	C	0.732323	-0.554438	0.136526
C98	C	0.787763	-0.520399	0.080984
H99	H	0.696257	-0.521666	0.172508
H100	H	0.773197	-0.583400	0.182486
H101	H	0.686424	-0.583455	0.095650
H102	H	0.833669	-0.491351	0.121793
H103	H	0.746836	-0.491475	0.035018
H104	H	0.890604	-0.271351	-0.022001
O105	O	1.131959	-0.438981	-0.263419
C106	C	1.231927	-0.445500	-0.363510
C107	C	1.176431	-0.479536	-0.308020
H108	H	1.267884	-0.478274	-0.399599
H109	H	1.277910	-0.416520	-0.322670
H110	H	1.191019	-0.416501	-0.409389
H111	H	1.217273	-0.508567	-0.262134
H112	H	1.130443	-0.508478	-0.348913
H113	H	1.123980	-0.556075	-0.255470
O114	O	1.132988	0.000060	0.320728
C115	C	1.283083	0.000040	0.349597
C116	C	1.198893	0.000015	0.386316
H117	H	1.336389	-0.000009	0.402607
H118	H	1.287651	0.041218	0.309521
H119	H	1.287531	-0.041117	0.309471
H120	H	1.194389	0.041145	0.426480
H121	H	1.194362	-0.041190	0.426345
H122	H	1.073592	-0.728598	-0.205038
O123	O	1.081652	-0.845729	-0.212907
C124	C	1.221571	-0.864668	-0.245373
C125	C	1.166073	-0.830651	-0.189900
H126	H	1.289838	-0.852500	-0.226781
H127	H	1.203086	-0.852486	-0.313650
H128	H	1.212873	-0.914240	-0.236719
H129	H	1.174743	-0.781071	-0.198482
H130	H	1.184571	-0.842881	-0.121644
H131	H	0.890690	-0.840989	-0.022002
O132	O	0.882634	-0.723834	-0.014162
C133	C	0.742716	-0.704979	0.018374
C134	C	0.798230	-0.738999	-0.037080
H135	H	0.674466	-0.717237	-0.000122
H136	H	0.751284	-0.655394	0.009714
H137	H	0.761315	-0.717151	0.086635
H138	H	0.779667	-0.726876	-0.105361
H139	H	0.789655	-0.788576	-0.028348
O140	O	0.832293	-0.438921	0.036278
C141	C	0.719987	-0.369081	0.041115
C142	C	0.775458	-0.403139	-0.014341
H143	H	0.674011	-0.340152	0.000211
H144	H	0.760837	-0.340042	0.087006
H145	H	0.684010	-0.401873	0.077188
H146	H	0.811445	-0.370390	-0.050468
H147	H	0.734564	-0.432186	-0.060180
H148	H	0.890595	-0.159012	-0.022003
H149	H	1.118130	0.000039	0.483165
