data_functionalizedCrystal
_audit_creation_method	'MofGen! by Chris Wilmer'
_symmetry_space_group_name_H-M	'P1'
_symmetry_Int_Tables_number	1
_symmetry_cell_setting	triclinic
loop_
_symmetry_equiv_pos_as_xyz
  x,y,z
_cell_length_a	25.639242
_cell_length_b	29.839131
_cell_length_c	25.639233
_cell_angle_alpha	89.980415
_cell_angle_beta	89.977834
_cell_angle_gamma	90.036947
loop_
_atom_site_label
_atom_site_type_symbol
_atom_site_fract_x
_atom_site_fract_y
_atom_site_fract_z
Zn1	Zn	0.799215	-0.178962	-0.295739
Zn2	Zn	1.132548	0.154372	0.037594
Zn3	Zn	1.465882	0.487705	0.370927
Zn4	Zn	0.799134	-0.254076	-0.208302
Zn5	Zn	1.132468	0.079257	0.125031
Zn6	Zn	1.465801	0.412591	0.458364
Zn7	Zn	0.711791	-0.178955	-0.208303
Zn8	Zn	1.045125	0.154378	0.125030
Zn9	Zn	1.378458	0.487712	0.458363
Zn10	Zn	0.711732	-0.254059	-0.295692
Zn11	Zn	1.045066	0.079274	0.037641
Zn12	Zn	1.378399	0.412607	0.370975
O13	O	0.755468	-0.216513	-0.252009
O14	O	1.088802	0.116820	0.081324
O15	O	1.422135	0.450154	0.414657
O16	O	0.872370	-0.188935	-0.284160
O17	O	1.205703	0.144398	0.049174
O18	O	1.539036	0.477731	0.382507
O19	O	0.787539	-0.244115	-0.135137
O20	O	1.120872	0.089218	0.198196
O21	O	1.454206	0.422551	0.531530
O22	O	0.723447	-0.116089	-0.219922
O23	O	1.056780	0.217245	0.113411
O24	O	1.390114	0.550578	0.446745
O25	O	0.872310	-0.244122	-0.219920
O26	O	1.205644	0.089212	0.113413
O27	O	1.538977	0.422545	0.446746
O28	O	0.787677	-0.116094	-0.284161
O29	O	1.121010	0.217240	0.049173
O30	O	1.454343	0.550573	0.382506
O31	O	0.723369	-0.188924	-0.135138
O32	O	1.056702	0.144409	0.198195
O33	O	1.390035	0.477742	0.531529
O34	O	0.638618	-0.188908	-0.219876
O35	O	0.971952	0.144425	0.113457
O36	O	1.305285	0.477759	0.446790
O37	O	0.723346	-0.244093	-0.368864
O38	O	1.056680	0.089240	-0.035530
O39	O	1.390013	0.422573	0.297803
O40	O	0.638575	-0.244087	-0.284081
O41	O	0.971908	0.089246	0.049253
O42	O	1.305242	0.422580	0.382586
O43	O	0.787619	-0.188919	-0.368898
O44	O	1.120953	0.144414	-0.035565
O45	O	1.454286	0.477747	0.297769
O46	O	0.787482	-0.316941	-0.219875
O47	O	1.120815	0.016392	0.113459
O48	O	1.454149	0.349726	0.446792
O49	O	0.723268	-0.316929	-0.284080
O50	O	1.056601	0.016405	0.049254
O51	O	1.389935	0.349738	0.382587
C52	C	0.619626	-0.216495	-0.251974
C53	C	0.952959	0.116838	0.081360
C54	C	1.286292	0.450171	0.414693
C55	C	0.561512	-0.216499	-0.251971
C56	C	0.894845	0.116835	0.081362
C57	C	1.228178	0.450168	0.414696
C58	C	0.201135	-0.245293	-0.285409
C59	C	0.534468	0.088041	0.047925
C60	C	0.867802	0.421374	0.381258
C61	C	0.146531	-0.245295	-0.285417
C62	C	0.479864	0.088038	0.047916
C63	C	0.813197	0.421371	0.381250
O64	O	0.118282	-0.269755	-0.313817
O65	O	0.451616	0.063578	0.019517
O66	O	0.784949	0.396911	0.352850
N67	N	0.119229	-0.216525	-0.252043
N68	N	0.452563	0.116808	0.081290
N69	N	0.785896	0.450141	0.414623
C70	C	0.146535	-0.187748	-0.218663
C71	C	0.479868	0.145586	0.114670
C72	C	0.813202	0.478919	0.448004
O73	O	0.118299	-0.163276	-0.190277
O74	O	0.451632	0.170057	0.143056
O75	O	0.784966	0.503390	0.476389
C76	C	0.201138	-0.187743	-0.218658
C77	C	0.534472	0.145590	0.114676
C78	C	0.867805	0.478924	0.448009
C79	C	0.228437	-0.216518	-0.252030
C80	C	0.561770	0.116815	0.081303
C81	C	0.895104	0.450149	0.414637
C82	C	0.228434	-0.274065	-0.318778
C83	C	0.561767	0.059268	0.014555
C84	C	0.895100	0.392602	0.347888
C85	C	0.283034	-0.274063	-0.318769
C86	C	0.616367	0.059270	0.014564
C87	C	0.949701	0.392604	0.347897
C88	C	0.310336	-0.245288	-0.285390
C89	C	0.643669	0.088045	0.047943
C90	C	0.977003	0.421379	0.381276
C91	C	0.283037	-0.216516	-0.252021
C92	C	0.616371	0.116818	0.081313
C93	C	0.949704	0.450151	0.414646
C94	C	0.228443	-0.158963	-0.185281
C95	C	0.561776	0.174370	0.148053
C96	C	0.895110	0.507704	0.481386
C97	C	0.283050	-0.158961	-0.185279
C98	C	0.616383	0.174373	0.148055
C99	C	0.949717	0.507706	0.481388
C100	C	0.310349	-0.187736	-0.218651
C101	C	0.643682	0.145598	0.114683
C102	C	0.977015	0.478931	0.448016
C103	C	0.364940	-0.187739	-0.218633
C104	C	0.698273	0.145595	0.114700
C105	C	1.031607	0.478928	0.448034
N106	N	0.392241	-0.216509	-0.252006
N107	N	0.725575	0.116825	0.081327
N108	N	1.058908	0.450158	0.414660
C109	C	0.364939	-0.245283	-0.285385
C110	C	0.698273	0.088050	0.047948
C111	C	1.031606	0.421383	0.381281
C112	C	0.031864	-0.187759	-0.218677
C113	C	0.365198	0.145574	0.114656
C114	C	0.698531	0.478908	0.447989
C115	C	-0.022738	-0.187766	-0.218679
C116	C	0.310595	0.145568	0.114654
C117	C	0.643929	0.478901	0.447987
C118	C	-0.022739	-0.245313	-0.285434
C119	C	0.310595	0.088020	0.047899
C120	C	0.643928	0.421354	0.381233
C121	C	0.031865	-0.245308	-0.285429
C122	C	0.365198	0.088025	0.047904
C123	C	0.698531	0.421358	0.381238
C124	C	0.059166	-0.216529	-0.252051
C125	C	0.392499	0.116804	0.081283
C126	C	0.725832	0.450138	0.414616
C127	C	0.479604	-0.245277	-0.285363
C128	C	0.812938	0.088057	0.047970
C129	C	1.146271	0.421390	0.381303
C130	C	0.534210	-0.245273	-0.285350
C131	C	0.867543	0.088060	0.047984
C132	C	1.200876	0.421393	0.381317
C133	C	0.534206	-0.187724	-0.218597
C134	C	0.867539	0.145609	0.114736
C135	C	1.200872	0.478942	0.448069
C136	C	0.479605	-0.187729	-0.218609
C137	C	0.812938	0.145604	0.114725
C138	C	1.146272	0.478937	0.448058
C139	C	0.452306	-0.216507	-0.251996
C140	C	0.785639	0.116826	0.081337
C141	C	1.118972	0.450160	0.414671
O142	O	0.393223	-0.163290	-0.190249
O143	O	0.726556	0.170043	0.143084
O144	O	1.059890	0.503377	0.476418
O145	O	0.393182	-0.269746	-0.313771
O146	O	0.726515	0.063587	0.019562
O147	O	1.059849	0.396920	0.352896
C148	C	0.755374	-0.333236	-0.251983
C149	C	1.088707	0.000098	0.081350
C150	C	1.422041	0.333431	0.414683
C151	C	0.755381	-0.383170	-0.251990
C152	C	1.088715	-0.049837	0.081344
C153	C	1.422048	0.283497	0.414677
C154	C	0.788965	-0.692807	-0.218627
C155	C	1.122299	-0.359474	0.114707
C156	C	1.455632	-0.026140	0.448040
C157	C	0.789030	-0.880480	-0.218647
C158	C	1.122363	-0.547147	0.114686
C159	C	1.455696	-0.213814	0.448020
O160	O	0.817509	-0.904740	-0.190260
O161	O	1.150843	-0.571406	0.143073
O162	O	1.484176	-0.238073	0.476406
N163	N	0.755577	-0.903955	-0.252049
N164	N	1.088910	-0.570622	0.081285
N165	N	1.422243	-0.237288	0.414618
C166	C	0.722108	-0.880509	-0.285450
C167	C	1.055441	-0.547176	0.047883
C168	C	1.388774	-0.213842	0.381216
O169	O	0.693659	-0.904782	-0.313865
O170	O	1.026992	-0.571449	0.019469
O171	O	1.360326	-0.238115	0.352802
C172	C	0.722046	-0.692837	-0.285432
C173	C	1.055379	-0.359503	0.047901
C174	C	1.388713	-0.026170	0.381235
C175	C	0.755498	-0.669364	-0.252024
C176	C	1.088831	-0.336031	0.081309
C177	C	1.422164	-0.002698	0.414642
C178	C	0.822415	-0.669335	-0.185222
C179	C	1.155748	-0.336001	0.148111
C180	C	1.489081	-0.002668	0.481445
C181	C	0.822396	-0.622419	-0.185215
C182	C	1.155729	-0.289086	0.148118
C183	C	1.489063	0.044247	0.481451
C184	C	0.788928	-0.598976	-0.218613
C185	C	1.122262	-0.265643	0.114720
C186	C	1.455595	0.067690	0.448054
C187	C	0.755479	-0.622449	-0.252018
C188	C	1.088812	-0.289115	0.081316
C189	C	1.422146	0.044218	0.414649
C190	C	0.688580	-0.669391	-0.318836
C191	C	1.021913	-0.336058	0.014497
C192	C	1.355247	-0.002725	0.347831
C193	C	0.688568	-0.622470	-0.318829
C194	C	1.021902	-0.289137	0.014504
C195	C	1.355235	0.044196	0.347837
C196	C	0.722020	-0.598998	-0.285422
C197	C	1.055353	-0.265664	0.047912
C198	C	1.388687	0.067669	0.381245
C199	C	0.721993	-0.552090	-0.285409
C200	C	1.055326	-0.218757	0.047925
C201	C	1.388660	0.114576	0.381258
N202	N	0.755446	-0.528615	-0.252007
N203	N	1.088779	-0.195282	0.081326
N204	N	1.422113	0.138051	0.414660
C205	C	0.788914	-0.552058	-0.218609
C206	C	1.122247	-0.218725	0.114724
C207	C	1.455580	0.114608	0.448058
C208	C	0.722141	-0.979039	-0.285457
C209	C	1.055475	-0.645706	0.047877
C210	C	1.388808	-0.312373	0.381210
C211	C	0.722156	-1.025957	-0.285461
C212	C	1.055489	-0.692624	0.047873
C213	C	1.388823	-0.359291	0.381206
C214	C	0.789079	-1.025925	-0.218658
C215	C	1.122413	-0.692592	0.114676
C216	C	1.455746	-0.359259	0.448009
C217	C	0.789062	-0.979007	-0.218652
C218	C	1.122395	-0.645673	0.114682
C219	C	1.455728	-0.312340	0.448015
C220	C	0.755595	-0.955565	-0.252055
C221	C	1.088928	-0.622231	0.081279
C222	C	1.422261	-0.288898	0.414612
C223	C	0.788872	-0.453533	-0.218597
C224	C	1.122205	-0.120199	0.114736
C225	C	1.455539	0.213134	0.448070
C226	C	0.788849	-0.406613	-0.218592
C227	C	1.122182	-0.073280	0.114742
C228	C	1.455516	0.260054	0.448075
C229	C	0.721928	-0.406649	-0.285396
C230	C	1.055261	-0.073316	0.047937
C231	C	1.388595	0.260018	0.381270
C232	C	0.721949	-0.453564	-0.285400
C233	C	1.055282	-0.120231	0.047933
C234	C	1.388616	0.213102	0.381267
C235	C	0.755425	-0.477005	-0.251999
C236	C	1.088758	-0.143672	0.081335
C237	C	1.422092	0.189662	0.414668
O238	O	0.693533	-0.527802	-0.313784
O239	O	1.026866	-0.194469	0.019549
O240	O	1.360199	0.138865	0.352882
O241	O	0.817366	-0.527777	-0.190207
O242	O	1.150700	-0.194444	0.143126
O243	O	1.484033	0.138889	0.476460
C244	C	0.788984	-0.739723	-0.218633
C245	C	1.122317	-0.406389	0.114700
C246	C	1.455650	-0.073056	0.448033
C247	C	0.755535	-0.763195	-0.252038
C248	C	1.088868	-0.429862	0.081295
C249	C	1.422201	-0.096528	0.414629
C250	C	0.722067	-0.739752	-0.285436
C251	C	1.055400	-0.406419	0.047898
C252	C	1.388733	-0.073085	0.381231
C253	C	0.755549	-0.810113	-0.252042
C254	C	1.088882	-0.476780	0.081291
C255	C	1.422216	-0.143446	0.414625
C256	C	0.789017	-0.833556	-0.218644
C257	C	1.122350	-0.500223	0.114689
C258	C	1.455684	-0.166889	0.448023
C259	C	0.822470	-0.810081	-0.185242
C260	C	1.155803	-0.476748	0.148091
C261	C	1.489137	-0.143414	0.481424
C262	C	0.822451	-0.763166	-0.185235
C263	C	1.155785	-0.429832	0.148098
C264	C	1.489118	-0.096499	0.481431
C265	C	0.688614	-0.763227	-0.318838
C266	C	1.021947	-0.429894	0.014496
C267	C	1.355280	-0.096560	0.347829
C268	C	0.688635	-0.810143	-0.318841
C269	C	1.021968	-0.476809	0.014492
C270	C	1.355301	-0.143476	0.347825
C271	C	0.722102	-0.833585	-0.285443
C272	C	1.055436	-0.500252	0.047890
C273	C	1.388769	-0.166919	0.381223
C274	C	0.891841	-0.216531	-0.252045
C275	C	1.225175	0.116802	0.081288
C276	C	1.558508	0.450136	0.414622
C277	C	0.949955	-0.216539	-0.252060
C278	C	1.283289	0.116794	0.081273
C279	C	1.616622	0.450128	0.414606
C280	C	0.755485	-0.216505	-0.388382
C281	C	1.088819	0.116828	-0.055049
C282	C	1.422152	0.450162	0.278284
C283	C	0.755492	-0.216502	-0.446496
C284	C	1.088826	0.116832	-0.113163
C285	C	1.422159	0.450165	0.220170
C286	C	0.755577	-0.099335	-0.252047
C287	C	1.088911	0.233999	0.081287
C288	C	1.422244	0.567332	0.414620
C289	C	0.755624	-0.049400	-0.252063
C290	C	1.088957	0.283933	0.081271
C291	C	1.422290	0.617266	0.414604
C292	C	0.789002	-0.187687	-0.806883
C293	C	1.122335	0.145646	-0.473550
C294	C	1.455669	0.478979	-0.140217
C295	C	0.789008	-0.187675	-0.861488
C296	C	1.122342	0.145658	-0.528154
C297	C	1.455675	0.478992	-0.194821
O298	O	0.817457	-0.163229	-0.889744
O299	O	1.150790	0.170105	-0.556411
O300	O	1.484124	0.503438	-0.223078
N301	N	0.755550	-0.216396	-0.888779
N302	N	1.088883	0.116937	-0.555446
N303	N	1.422217	0.450270	-0.222112
C304	C	0.722079	-0.245129	-0.861463
C305	C	1.055413	0.088204	-0.528130
C306	C	1.388746	0.421538	-0.194797
O307	O	0.693621	-0.269558	-0.889691
O308	O	1.026954	0.063776	-0.556358
O309	O	1.360287	0.397109	-0.223024
C310	C	0.722071	-0.245139	-0.806860
C311	C	1.055404	0.088194	-0.473527
C312	C	1.388737	0.421528	-0.140193
C313	C	0.755535	-0.216419	-0.779571
C314	C	1.088868	0.116915	-0.446238
C315	C	1.422202	0.450248	-0.112905
C316	C	0.822463	-0.158969	-0.779594
C317	C	1.155796	0.174364	-0.446261
C318	C	1.489130	0.507698	-0.112928
C319	C	0.822457	-0.158982	-0.724994
C320	C	1.155790	0.174351	-0.391661
C321	C	1.489124	0.507685	-0.058327
C322	C	0.788990	-0.187714	-0.697682
C323	C	1.122323	0.145620	-0.364349
C324	C	1.455657	0.478953	-0.031015
C325	C	0.755529	-0.216432	-0.724971
C326	C	1.088862	0.116901	-0.391637
C327	C	1.422196	0.450235	-0.058304
C328	C	0.688598	-0.273869	-0.779545
C329	C	1.021931	0.059464	-0.446212
C330	C	1.355264	0.392798	-0.112879
C331	C	0.688592	-0.273876	-0.724938
C332	C	1.021925	0.059457	-0.391605
C333	C	1.355258	0.392791	-0.058272
C334	C	0.722056	-0.245156	-0.697650
C335	C	1.055389	0.088177	-0.364316
C336	C	1.388722	0.421511	-0.030983
C337	C	0.722056	-0.245176	-0.643058
C338	C	1.055389	0.088157	-0.309725
C339	C	1.388723	0.421490	0.023608
N340	N	0.755514	-0.216455	-0.615767
N341	N	1.088848	0.116879	-0.282434
N342	N	1.422181	0.450212	0.050900
C343	C	0.788981	-0.187723	-0.643079
C344	C	1.122315	0.145610	-0.309745
C345	C	1.455648	0.478943	0.023588
C346	C	0.722100	-0.245106	-0.976134
C347	C	1.055433	0.088228	-0.642801
C348	C	1.388766	0.421561	-0.309467
C349	C	0.722110	-0.245099	-1.030736
C350	C	1.055444	0.088235	-0.697403
C351	C	1.388777	0.421568	-0.364070
C352	C	0.789039	-0.187644	-1.030757
C353	C	1.122372	0.145690	-0.697423
C354	C	1.455706	0.479023	-0.364090
C355	C	0.789030	-0.187653	-0.976153
C356	C	1.122364	0.145680	-0.642820
C357	C	1.455697	0.479013	-0.309487
C358	C	0.755558	-0.216384	-0.948843
C359	C	1.088891	0.116949	-0.615509
C360	C	1.422224	0.450282	-0.282176
C361	C	0.788967	-0.187753	-0.528414
C362	C	1.122300	0.145580	-0.195080
C363	C	1.455633	0.478913	0.138253
C364	C	0.788959	-0.187770	-0.473808
C365	C	1.122293	0.145563	-0.140475
C366	C	1.455626	0.478896	0.192859
C367	C	0.722029	-0.245223	-0.473793
C368	C	1.055363	0.088110	-0.140459
C369	C	1.388696	0.421443	0.192874
C370	C	0.722038	-0.245208	-0.528393
C371	C	1.055372	0.088125	-0.195060
C372	C	1.388705	0.421458	0.138274
C373	C	0.755509	-0.216470	-0.555702
C374	C	1.088842	0.116864	-0.222369
C375	C	1.422175	0.450197	0.110964
O376	O	0.693620	-0.269609	-0.614767
O377	O	1.026954	0.063725	-0.281433
O378	O	1.360287	0.397058	0.051900
O379	O	0.817430	-0.163295	-0.614845
O380	O	1.150764	0.170039	-0.281511
O381	O	1.484097	0.503372	0.051822
C382	C	0.755482	-0.216488	-0.116167
C383	C	1.088815	0.116845	0.217167
C384	C	1.422148	0.450178	0.550500
C385	C	0.755576	-0.216365	-0.058053
C386	C	1.088909	0.116968	0.275280
C387	C	1.422242	0.450301	0.608614
H388	H	0.816089	-0.387503	-0.191385
H389	H	1.149423	-0.054170	0.141948
H390	H	1.482756	0.279164	0.475281
H391	H	0.305256	-0.297494	-0.345945
H392	H	0.638589	0.035840	-0.012612
H393	H	0.971922	0.369173	0.320721
C394	C	-0.017239	-0.130883	-0.152696
C395	C	0.316094	0.202451	0.180637
C396	C	0.649428	0.535784	0.513970
C397	C	-0.052741	-0.156138	-0.181993
C398	C	0.280593	0.177195	0.151341
C399	C	0.613926	0.510529	0.484674
H400	H	-0.035761	-0.111353	-0.130051
H401	H	0.297572	0.221980	0.203282
H402	H	0.630905	0.555313	0.536616
H403	H	0.004032	-0.150431	-0.132654
H404	H	0.337365	0.182902	0.200679
H405	H	0.670698	0.516235	0.534012
H406	H	0.004084	-0.113729	-0.175517
H407	H	0.337417	0.219604	0.157816
H408	H	0.670750	0.552937	0.491149
H409	H	-0.074061	-0.173294	-0.159172
H410	H	0.259272	0.160040	0.174162
H411	H	0.592605	0.493373	0.507495
H412	H	-0.074021	-0.136587	-0.202036
H413	H	0.259313	0.196747	0.131297
H414	H	0.592646	0.530080	0.464631
H415	H	0.694842	-0.268504	-0.953901
H416	H	1.028175	0.064829	-0.620568
H417	H	1.361508	0.398162	-0.287234
C418	C	0.093236	-0.181423	-0.148347
C419	C	0.426569	0.151911	0.184986
C420	C	0.759902	0.485244	0.518319
C421	C	0.061873	-0.156128	-0.181979
C422	C	0.395206	0.177205	0.151355
C423	C	0.728540	0.510539	0.484688
H424	H	0.111762	-0.161894	-0.125694
H425	H	0.445095	0.171439	0.207639
H426	H	0.778428	0.504773	0.540972
H427	H	0.071911	-0.200970	-0.128314
H428	H	0.405244	0.132363	0.205019
H429	H	0.738577	0.465696	0.538353
H430	H	0.117310	-0.198552	-0.168227
H431	H	0.450644	0.134781	0.165107
H432	H	0.783977	0.468115	0.498440
H433	H	0.037795	-0.139001	-0.162099
H434	H	0.371129	0.194332	0.171234
H435	H	0.704462	0.527666	0.504568
H436	H	0.083200	-0.136572	-0.202014
H437	H	0.416533	0.196761	0.131320
H438	H	0.749866	0.530094	0.464653
H439	H	0.206226	-0.135532	-0.158104
H440	H	0.539559	0.197801	0.175229
H441	H	0.872893	0.531134	0.508563
C442	C	0.418243	-0.251620	-0.355700
C443	C	0.751576	0.081714	-0.022366
C444	C	1.084909	0.415047	0.310967
C445	C	0.449601	-0.276910	-0.322061
C446	C	0.782935	0.056423	0.011272
C447	C	1.116268	0.389757	0.344606
H448	H	0.399723	-0.271150	-0.378355
H449	H	0.733056	0.062183	-0.045022
H450	H	1.066389	0.395516	0.288312
H451	H	0.394167	-0.234491	-0.335829
H452	H	0.727501	0.098843	-0.002496
H453	H	1.060834	0.432176	0.330837
H454	H	0.439573	-0.232071	-0.375735
H455	H	0.772907	0.101262	-0.042402
H456	H	1.106240	0.434596	0.290932
H457	H	0.428270	-0.296457	-0.302023
H458	H	0.761604	0.036877	0.031310
H459	H	1.094937	0.370210	0.364643
H460	H	0.473680	-0.294047	-0.341934
H461	H	0.807013	0.039287	-0.008600
H462	H	1.140346	0.372620	0.324733
C463	C	0.622488	-0.805450	-0.384881
C464	C	0.955821	-0.472116	-0.051547
C465	C	1.289154	-0.138783	0.281786
C466	C	0.651862	-0.835940	-0.355568
C467	C	0.985195	-0.502607	-0.022235
C468	C	1.318529	-0.169274	0.311099
H469	H	0.599792	-0.821376	-0.407558
H470	H	0.933125	-0.488042	-0.074224
H471	H	1.266459	-0.154709	0.259109
H472	H	0.602495	-0.787179	-0.362076
H473	H	0.935829	-0.453846	-0.028743
H474	H	1.269162	-0.120513	0.304591
H475	H	0.645256	-0.787120	-0.404895
H476	H	0.978589	-0.453787	-0.071561
H477	H	1.311922	-0.120453	0.261772
H478	H	0.629094	-0.854268	-0.335551
H479	H	0.962427	-0.520934	-0.002218
H480	H	1.295760	-0.187601	0.331116
H481	H	0.671856	-0.854218	-0.378375
H482	H	1.005189	-0.520885	-0.045042
H483	H	1.338522	-0.187551	0.288291
H484	H	0.206210	-0.297497	-0.345962
H485	H	0.539543	0.035836	-0.012629
H486	H	0.872877	0.369170	0.320704
C487	C	0.026367	-0.302189	-0.351413
C488	C	0.359700	0.031144	-0.018080
C489	C	0.693034	0.364477	0.315253
C490	C	0.061869	-0.276934	-0.322117
C491	C	0.395202	0.056399	0.011216
C492	C	0.728535	0.389732	0.344550
H493	H	0.044889	-0.321712	-0.374067
H494	H	0.378222	0.011622	-0.040734
H495	H	0.711556	0.344955	0.292600
H496	H	0.005051	-0.319346	-0.328597
H497	H	0.338385	0.013987	0.004736
H498	H	0.671718	0.347321	0.338070
H499	H	0.005089	-0.282637	-0.371452
H500	H	0.338422	0.050697	-0.038118
H501	H	0.671755	0.384030	0.295215
H502	H	0.083144	-0.296487	-0.302076
H503	H	0.416478	0.036847	0.031257
H504	H	0.749811	0.370180	0.364591
H505	H	0.083193	-0.259776	-0.344936
H506	H	0.416526	0.073557	-0.011603
H507	H	0.749860	0.406890	0.321730
C508	C	0.277562	-0.102078	-0.119293
C509	C	0.610895	0.231255	0.214040
C510	C	0.944228	0.564589	0.547374
C511	C	0.313058	-0.127329	-0.148582
C512	C	0.646392	0.206004	0.184751
C513	C	0.979725	0.539338	0.518085
H514	H	0.296088	-0.082554	-0.096635
H515	H	0.629421	0.250779	0.236698
H516	H	0.962755	0.584113	0.570031
H517	H	0.256292	-0.084924	-0.142114
H518	H	0.589625	0.248410	0.191220
H519	H	0.922959	0.581743	0.524553
H520	H	0.256237	-0.121633	-0.099260
H521	H	0.589571	0.211700	0.234074
H522	H	0.922904	0.545033	0.567407
H523	H	0.334380	-0.107774	-0.168618
H524	H	0.667714	0.225560	0.164715
H525	H	1.001047	0.558893	0.498048
H526	H	0.334337	-0.144485	-0.125759
H527	H	0.667670	0.188849	0.207575
H528	H	1.001004	0.522182	0.540908
H529	H	0.694866	-0.268490	-1.052950
H530	H	1.028200	0.064843	-0.719617
H531	H	1.361533	0.398176	-0.386284
C532	C	0.681238	-0.569690	-0.389151
C533	C	1.014572	-0.236357	-0.055817
C534	C	1.347905	0.096977	0.277516
C535	C	0.651780	-0.596703	-0.355548
C536	C	0.985113	-0.263369	-0.022215
C537	C	1.318446	0.069964	0.311119
H538	H	0.658526	-0.553785	-0.411820
H539	H	0.991859	-0.220452	-0.078486
H540	H	1.325192	0.112882	0.254847
H541	H	0.701150	-0.548996	-0.369255
H542	H	1.034484	-0.215663	-0.035922
H543	H	1.367817	0.117671	0.297412
H544	H	0.704011	-0.587971	-0.409173
H545	H	1.037345	-0.254638	-0.075839
H546	H	1.370678	0.078695	0.257494
H547	H	0.629009	-0.578421	-0.335523
H548	H	0.962342	-0.245087	-0.002190
H549	H	1.295676	0.088246	0.331144
H550	H	0.631859	-0.617399	-0.375446
H551	H	0.965192	-0.284066	-0.042113
H552	H	1.298525	0.049268	0.291221
H553	H	0.816288	-0.164248	-1.053004
H554	H	1.149622	0.169086	-0.719671
H555	H	1.482955	0.502419	-0.386337
C556	C	-0.106447	-0.270861	-0.315087
C557	C	0.226886	0.062473	0.018246
C558	C	0.560220	0.395806	0.351579
C559	C	-0.052756	-0.276939	-0.322131
C560	C	0.280577	0.056394	0.011203
C561	C	0.613910	0.389727	0.344536
H562	H	-0.124978	-0.290383	-0.337744
H563	H	0.208355	0.042951	-0.004410
H564	H	0.541688	0.376284	0.328923
H565	H	-0.115414	-0.277395	-0.279950
H566	H	0.217920	0.055939	0.053384
H567	H	0.551253	0.389272	0.386717
H568	H	-0.115362	-0.240683	-0.322801
H569	H	0.217971	0.092650	0.010532
H570	H	0.551305	0.425984	0.343865
H571	H	-0.043841	-0.307116	-0.314413
H572	H	0.289493	0.026217	0.018920
H573	H	0.622826	0.359550	0.352254
H574	H	-0.043786	-0.270409	-0.357277
H575	H	0.289547	0.062925	-0.023943
H576	H	0.622881	0.396258	0.309390
H577	H	0.849716	-0.135570	-0.801826
H578	H	1.183049	0.197763	-0.468493
H579	H	1.516383	0.531097	-0.135159
C580	C	0.618271	-0.280093	-0.840932
C581	C	0.951605	0.053240	-0.507598
C582	C	1.284938	0.386573	-0.174265
C583	C	0.651818	-0.305440	-0.809538
C584	C	0.985151	0.027893	-0.476204
C585	C	1.318484	0.361226	-0.142871
H586	H	0.595568	-0.299587	-0.859450
H587	H	0.928901	0.033746	-0.526117
H588	H	1.262235	0.367080	-0.192784
H589	H	0.598288	-0.260525	-0.819629
H590	H	0.931621	0.072808	-0.486296
H591	H	1.264954	0.406141	-0.152962
H592	H	0.638209	-0.262983	-0.865013
H593	H	0.971543	0.070350	-0.531680
H594	H	1.304876	0.403683	-0.198346
H595	H	0.631880	-0.322548	-0.785454
H596	H	0.965213	0.010785	-0.452120
H597	H	1.298546	0.344119	-0.118787
H598	H	0.671803	-0.325017	-0.830842
H599	H	1.005137	0.008317	-0.497509
H600	H	1.338470	0.341650	-0.164175
H601	H	0.457377	-0.164299	-0.191433
H602	H	0.790711	0.169034	0.141900
H603	H	1.124044	0.502367	0.475233
H604	H	0.556445	-0.164298	-0.191419
H605	H	0.889778	0.169035	0.141914
H606	H	1.223111	0.502368	0.475247
H607	H	0.816133	-0.472612	-0.191400
H608	H	1.149466	-0.139279	0.141934
H609	H	1.482799	0.194054	0.475267
C610	C	0.814493	-0.111701	-0.457019
C611	C	1.147827	0.221632	-0.123685
C612	C	1.481160	0.554965	0.209648
C613	C	0.825743	-0.156194	-0.443816
C614	C	1.159076	0.177139	-0.110482
C615	C	1.492409	0.510472	0.222851
H616	H	0.837199	-0.092208	-0.438502
H617	H	1.170532	0.241125	-0.105169
H618	H	1.503865	0.574459	0.228165
H619	H	0.819285	-0.107589	-0.493444
H620	H	1.152618	0.225745	-0.160111
H621	H	1.485952	0.559078	0.173223
H622	H	0.779368	-0.105131	-0.448056
H623	H	1.112701	0.228202	-0.114722
H624	H	1.446035	0.561535	0.218611
H625	H	0.860867	-0.162766	-0.452782
H626	H	1.194200	0.170568	-0.119449
H627	H	1.527534	0.503901	0.213885
H628	H	0.820956	-0.160309	-0.407382
H629	H	1.154289	0.173024	-0.074049
H630	H	1.487622	0.506358	0.259284
H631	H	0.849637	-0.603311	-0.158013
H632	H	1.182970	-0.269977	0.175320
H633	H	1.516303	0.063356	0.508653
H634	H	0.849671	-0.688417	-0.158025
H635	H	1.183004	-0.355084	0.175308
H636	H	1.516337	-0.021750	0.508641
H637	H	0.816279	-0.164266	-0.953939
H638	H	1.149612	0.169067	-0.620605
H639	H	1.482946	0.502401	-0.287272
H640	H	0.661328	-0.297268	-0.702705
H641	H	0.994661	0.036065	-0.369371
H642	H	1.327995	0.369399	-0.036038
C643	C	0.681269	-0.710450	-0.389160
C644	C	1.014602	-0.377116	-0.055827
C645	C	1.347935	-0.043783	0.277507
C646	C	0.651820	-0.737464	-0.355550
C647	C	0.985154	-0.404131	-0.022217
C648	C	1.318487	-0.070798	0.311116
H649	H	0.658550	-0.694549	-0.411827
H650	H	0.991883	-0.361216	-0.078493
H651	H	1.325216	-0.027882	0.254840
H652	H	0.701180	-0.689752	-0.369269
H653	H	1.034514	-0.356419	-0.035936
H654	H	1.367847	-0.023085	0.297398
H655	H	0.704042	-0.728729	-0.409184
H656	H	1.037375	-0.395396	-0.075851
H657	H	1.370709	-0.062063	0.257483
H658	H	0.629050	-0.719184	-0.335523
H659	H	0.962383	-0.385851	-0.002190
H660	H	1.295716	-0.052517	0.331143
H661	H	0.631900	-0.758164	-0.375444
H662	H	0.965233	-0.424831	-0.042110
H663	H	1.298567	-0.091498	0.291223
C664	C	0.796306	-0.127299	-0.589814
C665	C	1.129640	0.206035	-0.256481
C666	C	1.462973	0.539368	0.076852
C667	C	0.825759	-0.156165	-0.558425
C668	C	1.159093	0.177169	-0.225092
C669	C	1.492426	0.510502	0.108241
H670	H	0.819023	-0.107797	-0.608339
H671	H	1.152356	0.225536	-0.275006
H672	H	1.485689	0.558869	0.058328
H673	H	0.776387	-0.144398	-0.613885
H674	H	1.109721	0.188936	-0.280552
H675	H	1.443054	0.522269	0.052781
H676	H	0.773540	-0.110119	-0.568503
H677	H	1.106873	0.223214	-0.235170
H678	H	1.440206	0.556548	0.098163
H679	H	0.848523	-0.173347	-0.579737
H680	H	1.181857	0.159987	-0.246404
H681	H	1.515190	0.493320	0.086930
H682	H	0.845687	-0.139064	-0.534352
H683	H	1.179020	0.194270	-0.201018
H684	H	1.512354	0.527603	0.132315
H685	H	0.849706	-0.135594	-0.702780
H686	H	1.183039	0.197739	-0.369447
H687	H	1.516373	0.531072	-0.036114
C688	C	0.656008	-1.021264	-0.351494
C689	C	0.989342	-0.687931	-0.018160
C690	C	1.322675	-0.354598	0.315173
C691	C	0.685382	-1.051755	-0.322180
C692	C	1.018715	-0.718422	0.011153
C693	C	1.352049	-0.385088	0.344486
H694	H	0.633309	-1.037191	-0.374167
H695	H	0.966643	-0.703857	-0.040834
H696	H	1.299976	-0.370524	0.292499
H697	H	0.636020	-1.002991	-0.328689
H698	H	0.969353	-0.669658	0.004644
H699	H	1.302687	-0.336324	0.337977
H700	H	0.678777	-1.002938	-0.371511
H701	H	1.012110	-0.669605	-0.038178
H702	H	1.345443	-0.336271	0.295155
H703	H	0.662614	-1.070079	-0.302160
H704	H	0.995947	-0.736746	0.031174
H705	H	1.329280	-0.403413	0.364507
H706	H	0.705372	-1.070036	-0.344988
H707	H	1.038705	-0.736703	-0.011654
H708	H	1.372039	-0.403369	0.321679
H709	H	0.694794	-0.268599	-0.550613
H710	H	1.028127	0.064734	-0.217279
H711	H	1.361461	0.398068	0.116054
H712	H	0.694887	-0.959956	-0.312658
H713	H	1.028221	-0.626623	0.020675
H714	H	1.361554	-0.293289	0.354008
C715	C	0.692303	-0.270741	-0.390075
C716	C	1.025636	0.062592	-0.056742
C717	C	1.358969	0.395925	0.276591
C718	C	0.685241	-0.276802	-0.443764
C719	C	1.018574	0.056532	-0.110431
C720	C	1.351907	0.389865	0.222903
H721	H	0.669586	-0.290233	-0.371537
H722	H	1.002919	0.043100	-0.038204
H723	H	1.336252	0.376434	0.295129
H724	H	0.727420	-0.277327	-0.381139
H725	H	1.060753	0.056006	-0.047806
H726	H	1.394087	0.389340	0.285527
H727	H	0.684682	-0.240554	-0.381138
H728	H	1.018016	0.092780	-0.047804
H729	H	1.351349	0.426113	0.285529
H730	H	0.692865	-0.306989	-0.452702
H731	H	1.026198	0.026345	-0.119369
H732	H	1.359531	0.359678	0.213964
H733	H	0.650115	-0.270219	-0.452704
H734	H	0.983448	0.063114	-0.119370
H735	H	1.316782	0.396448	0.213963
H736	H	0.556434	-0.268707	-0.312526
H737	H	0.889767	0.064626	0.020808
H738	H	1.223101	0.397960	0.354141
H739	H	0.816301	-0.959898	-0.191448
H740	H	1.149634	-0.626565	0.141885
H741	H	1.482968	-0.293231	0.475218
H742	H	0.661337	-0.688495	-0.346038
H743	H	0.994671	-0.355161	-0.012704
H744	H	1.328004	-0.021828	0.320629
C745	C	0.818869	-1.097837	-0.189066
C746	C	1.152203	-0.764503	0.144267
C747	C	1.485536	-0.431170	0.477601
C748	C	0.825908	-1.051700	-0.181985
C749	C	1.159241	-0.718366	0.151348
C750	C	1.492574	-0.385033	0.484681
H751	H	0.841620	-1.113749	-0.166442
H752	H	1.174953	-0.780416	0.166891
H753	H	1.508286	-0.447083	0.500225
H754	H	0.783765	-1.105569	-0.181337
H755	H	1.117098	-0.772235	0.151997
H756	H	1.450432	-0.438902	0.485330
H757	H	0.826459	-1.105482	-0.224221
H758	H	1.159793	-0.772149	0.109113
H759	H	1.493126	-0.438816	0.442446
H760	H	0.818314	-1.044054	-0.146831
H761	H	1.151647	-0.710720	0.186502
H762	H	1.484980	-0.377387	0.519835
H763	H	0.861020	-1.043965	-0.189711
H764	H	1.194353	-0.710631	0.143622
H765	H	1.527687	-0.377298	0.476956
C766	C	0.655800	-0.448881	-0.351434
C767	C	0.989133	-0.115547	-0.018101
C768	C	1.322467	0.217786	0.315233
C769	C	0.685179	-0.479368	-0.322122
C770	C	1.018512	-0.146035	0.011212
C771	C	1.351846	0.187298	0.344545
H772	H	0.633105	-0.464810	-0.374110
H773	H	0.966439	-0.131476	-0.040776
H774	H	1.299772	0.201857	0.292557
H775	H	0.635806	-0.430612	-0.328629
H776	H	0.969140	-0.097279	0.004704
H777	H	1.302473	0.236055	0.338037
H778	H	0.678565	-0.430550	-0.371449
H779	H	1.011898	-0.097216	-0.038116
H780	H	1.345232	0.236117	0.295217
H781	H	0.662414	-0.497697	-0.302103
H782	H	0.995747	-0.164364	0.031230
H783	H	1.329081	0.168969	0.364563
H784	H	0.705174	-0.497645	-0.344929
H785	H	1.038508	-0.164311	-0.011596
H786	H	1.371841	0.169022	0.321737
C787	C	0.714614	-0.353862	-0.355705
C788	C	1.047948	-0.020529	-0.022372
C789	C	1.381281	0.312804	0.310961
C790	C	0.685146	-0.380873	-0.322109
C791	C	1.018479	-0.047540	0.011224
C792	C	1.351812	0.285794	0.344557
H793	H	0.691908	-0.337951	-0.378374
H794	H	1.025241	-0.004617	-0.045041
H795	H	1.358575	0.328716	0.288293
H796	H	0.734530	-0.333175	-0.335805
H797	H	1.067864	0.000159	-0.002471
H798	H	1.401197	0.333492	0.330862
H799	H	0.737384	-0.372146	-0.375728
H800	H	1.070718	-0.038813	-0.042395
H801	H	1.404051	0.294520	0.290939
H802	H	0.662378	-0.362589	-0.302084
H803	H	0.995711	-0.029255	0.031250
H804	H	1.329045	0.304078	0.364583
H805	H	0.665221	-0.401563	-0.342012
H806	H	0.998554	-0.068230	-0.008679
H807	H	1.331888	0.265103	0.324655
C808	C	0.888604	-0.767861	-0.119209
C809	C	1.221937	-0.434528	0.214124
C810	C	1.555271	-0.101195	0.547458
C811	C	0.859227	-0.737369	-0.148516
C812	C	1.192560	-0.404035	0.184817
C813	C	1.525894	-0.070702	0.518151
H814	H	0.911311	-0.751937	-0.096542
H815	H	1.244645	-0.418603	0.236791
H816	H	1.577978	-0.085270	0.570125
H817	H	0.865842	-0.786185	-0.099189
H818	H	1.199175	-0.452851	0.234144
H819	H	1.532509	-0.119518	0.567477
H820	H	0.908589	-0.786137	-0.142022
H821	H	1.241922	-0.452804	0.191312
H822	H	1.575255	-0.119471	0.524645
H823	H	0.839239	-0.719095	-0.125704
H824	H	1.172572	-0.385761	0.207630
H825	H	1.505906	-0.052428	0.540963
H826	H	0.881992	-0.719037	-0.168537
H827	H	1.215325	-0.385704	0.164796
H828	H	1.548658	-0.052371	0.498129
C829	C	0.852230	-0.881993	-0.155621
C830	C	1.185563	-0.548659	0.177712
C831	C	1.518897	-0.215326	0.511045
C832	C	0.859276	-0.835856	-0.148548
C833	C	1.192609	-0.502522	0.184786
C834	C	1.525942	-0.169189	0.518119
H835	H	0.874960	-0.897906	-0.132977
H836	H	1.208293	-0.564572	0.200356
H837	H	1.541626	-0.231239	0.533690
H838	H	0.817118	-0.889716	-0.147915
H839	H	1.150451	-0.556383	0.185418
H840	H	1.483784	-0.223049	0.518751
H841	H	0.859843	-0.889646	-0.190769
H842	H	1.193176	-0.556313	0.142565
H843	H	1.526510	-0.222980	0.475898
H844	H	0.851659	-0.828201	-0.113401
H845	H	1.184992	-0.494868	0.219932
H846	H	1.518325	-0.161535	0.553266
H847	H	0.894396	-0.828129	-0.156250
H848	H	1.227729	-0.494796	0.177083
H849	H	1.561063	-0.161463	0.510417
