data_functionalizedCrystal
_audit_creation_method	'MofGen! by Chris Wilmer'
_symmetry_space_group_name_H-M	'P1'
_symmetry_Int_Tables_number	1
_symmetry_cell_setting	triclinic
loop_
_symmetry_equiv_pos_as_xyz
  x,y,z
_cell_length_a	18.101397
_cell_length_b	29.839134
_cell_length_c	18.101389
_cell_angle_alpha	90.020208
_cell_angle_beta	89.981649
_cell_angle_gamma	90.001922
loop_
_atom_site_label
_atom_site_type_symbol
_atom_site_fract_x
_atom_site_fract_y
_atom_site_fract_z
Zn1	Zn	-0.295336	-0.686817	-0.418758
Zn2	Zn	0.204664	-0.186817	0.081242
Zn3	Zn	-0.419161	-0.686769	-0.294916
Zn4	Zn	0.080839	-0.186769	0.205084
Zn5	Zn	-0.295291	-0.611691	-0.294928
Zn6	Zn	0.204709	-0.111691	0.205072
Zn7	Zn	-0.419093	-0.611676	-0.418714
Zn8	Zn	0.080907	-0.111676	0.081286
O9	O	-0.357220	-0.649238	-0.356829
O10	O	0.142780	-0.149238	0.143171
O11	O	-0.311809	-0.749678	-0.402343
O12	O	0.188191	-0.249678	0.097657
O13	O	-0.402740	-0.676796	-0.191285
O14	O	0.097260	-0.176796	0.308715
O15	O	-0.191664	-0.621683	-0.311377
O16	O	0.308336	-0.121683	0.188623
O17	O	-0.402783	-0.749642	-0.311358
O18	O	0.097217	-0.249642	0.188642
O19	O	-0.191697	-0.676878	-0.402354
O20	O	0.308303	-0.176878	0.097646
O21	O	-0.311733	-0.621636	-0.191293
O22	O	0.188267	-0.121636	0.308707
O23	O	-0.311667	-0.548822	-0.311335
O24	O	0.188333	-0.048822	0.188665
O25	O	-0.402666	-0.621658	-0.522352
O26	O	0.097334	-0.121658	-0.022352
O27	O	-0.402623	-0.548811	-0.402280
O28	O	0.097377	-0.048811	0.097720
O29	O	-0.311742	-0.676863	-0.522385
O30	O	0.188258	-0.176863	-0.022385
O31	O	-0.522785	-0.676781	-0.311315
O32	O	-0.022785	-0.176781	0.188685
O33	O	-0.522735	-0.621611	-0.402269
O34	O	-0.022735	-0.121611	0.097731
C35	C	-0.549631	-0.649201	-0.356802
C36	C	-0.049631	-0.149201	0.143198
C37	C	-0.631945	-0.649227	-0.356815
C38	C	-0.131945	-0.149227	0.143185
C39	C	-0.357133	-0.532516	-0.356804
C40	C	0.142867	-0.032516	0.143196
C41	C	-0.357114	-0.482581	-0.356811
C42	C	0.142886	0.017419	0.143189
C43	C	-0.782653	-0.649254	-0.356840
C44	C	-0.282653	-0.149254	0.143160
C45	C	-0.814008	-0.684000	-0.299670
C46	C	-0.314008	-0.184000	0.200330
C47	C	-0.899626	-0.683913	-0.299460
C48	C	-0.399626	-0.183913	0.200540
C49	C	-0.931036	-0.649281	-0.356865
C50	C	-0.431036	-0.149281	0.143135
C51	C	-0.899986	-0.601902	-0.335856
C52	C	-0.399986	-0.101902	0.164144
C53	C	-0.814342	-0.602087	-0.335427
C54	C	-0.314342	-0.102087	0.164573
C55	C	-0.814169	-0.661479	-0.435168
C56	C	-0.314169	-0.161479	0.064832
C57	C	-0.899819	-0.662539	-0.434765
C58	C	-0.399819	-0.162539	0.065235
C59	C	-1.014896	-0.649294	-0.356880
C60	C	-0.514896	-0.149294	0.143120
C61	C	-0.698794	-0.649238	-0.356823
C62	C	-0.198794	-0.149238	0.143177
C63	C	-0.309915	-0.126008	-0.404279
C64	C	0.190085	0.373992	0.095721
C65	C	-0.309868	-0.313682	-0.404269
C66	C	0.190132	0.186318	0.095731
O67	O	-0.269664	-0.337958	-0.444637
O68	O	0.230336	0.162042	0.055363
N69	N	-0.357153	-0.337136	-0.356823
N70	N	0.142847	0.162864	0.143177
C71	C	-0.404457	-0.313670	-0.309380
C72	C	0.095543	0.186330	0.190620
O73	O	-0.444681	-0.337925	-0.269029
O74	O	0.055319	0.162075	0.230971
C75	C	-0.404508	-0.125997	-0.309394
C76	C	0.095492	0.374003	0.190606
C77	C	-0.357214	-0.102545	-0.356838
C78	C	0.142786	0.397455	0.143162
C79	C	-0.262625	-0.102556	-0.451720
C80	C	0.237375	0.397444	0.048280
C81	C	-0.262635	-0.055641	-0.451719
C82	C	0.237365	0.444359	0.048281
C83	C	-0.309934	-0.032178	-0.404278
C84	C	0.190066	0.467822	0.095722
C85	C	-0.357223	-0.055630	-0.356837
C86	C	0.142777	0.444370	0.143163
C87	C	-0.451815	-0.102532	-0.261955
C88	C	0.048185	0.397468	0.238045
C89	C	-0.451825	-0.055611	-0.261965
C90	C	0.048175	0.444389	0.238035
C91	C	-0.404531	-0.032158	-0.309408
C92	C	0.095469	0.467842	0.190592
C93	C	-0.404532	0.014749	-0.309395
C94	C	0.095468	0.514749	0.190605
N95	N	-0.357246	0.038204	-0.356841
N96	N	0.142754	0.538204	0.143159
C97	C	-0.309947	0.014740	-0.404282
C98	C	0.190053	0.514740	0.095718
C99	C	-0.404426	-0.412200	-0.309375
C100	C	0.095574	0.087800	0.190625
C101	C	-0.404413	-0.459118	-0.309370
C102	C	0.095587	0.040882	0.190630
C103	C	-0.309824	-0.459127	-0.404260
C104	C	0.190176	0.040873	0.095740
C105	C	-0.309834	-0.412208	-0.404261
C106	C	0.190166	0.087792	0.095739
C107	C	-0.357141	-0.388746	-0.356820
C108	C	0.142859	0.111254	0.143180
C109	C	-0.309970	0.113266	-0.404277
C110	C	0.190030	0.613266	0.095723
C111	C	-0.309982	0.160186	-0.404270
C112	C	0.190018	0.660186	0.095730
C113	C	-0.404573	0.160190	-0.309382
C114	C	0.095427	0.660190	0.190618
C115	C	-0.404559	0.113275	-0.309386
C116	C	0.095441	0.613275	0.190614
C117	C	-0.357255	0.089814	-0.356840
C118	C	0.142745	0.589814	0.143160
O119	O	-0.444720	0.039055	-0.269055
O120	O	0.055280	0.539055	0.230945
O121	O	-0.269741	0.039004	-0.444638
O122	O	0.230259	0.539004	0.055362
C123	C	-0.309905	-0.172924	-0.404280
C124	C	0.190095	0.327076	0.095720
C125	C	-0.357195	-0.196376	-0.356840
C126	C	0.142805	0.303624	0.143160
C127	C	-0.404494	-0.172913	-0.309398
C128	C	0.095506	0.327087	0.190602
C129	C	-0.357182	-0.243294	-0.356835
C130	C	0.142818	0.256706	0.143165
C131	C	-0.309883	-0.266757	-0.404276
C132	C	0.190117	0.233243	0.095724
C133	C	-0.262597	-0.243303	-0.451722
C134	C	0.237403	0.256697	0.048278
C135	C	-0.262606	-0.196387	-0.451721
C136	C	0.237394	0.303613	0.048279
C137	C	-0.451780	-0.196367	-0.261952
C138	C	0.048220	0.303633	0.238048
C139	C	-0.451766	-0.243283	-0.261957
C140	C	0.048234	0.256717	0.238043
C141	C	-0.404467	-0.266746	-0.309398
C142	C	0.095533	0.233254	0.190602
C143	C	-0.164059	-0.649288	-0.356872
C144	C	0.335941	-0.149288	0.143128
C145	C	-0.081744	-0.649309	-0.356890
C146	C	0.418256	-0.149309	0.143110
C147	C	-0.357202	-0.649264	-0.549991
C148	C	0.142798	-0.149264	-0.049991
C149	C	-0.357194	-0.649275	-0.632305
C150	C	0.142806	-0.149275	-0.132305
C151	C	-0.357292	0.233583	-0.356845
C152	C	0.142708	0.733583	0.143155
C153	C	-0.357281	0.183649	-0.356828
C154	C	0.142719	0.683649	0.143172
C155	C	-0.357055	-0.649301	-0.931396
C156	C	0.142945	-0.149301	-0.431396
C157	C	-0.414080	-0.614448	-0.900051
C158	C	0.085920	-0.114448	-0.400051
C159	C	-0.414344	-0.614542	-0.814432
C160	C	0.085656	-0.114542	-0.314432
C161	C	-0.357124	-0.649288	-0.783013
C162	C	0.142876	-0.149288	-0.283013
C163	C	-0.378337	-0.696623	-0.814114
C164	C	0.121663	-0.196623	-0.314114
C165	C	-0.378712	-0.696429	-0.899759
C166	C	0.121288	-0.196429	-0.399759
C167	C	-0.278690	-0.637231	-0.899822
C168	C	0.221310	-0.137231	-0.399822
C169	C	-0.279142	-0.636178	-0.814171
C170	C	0.220858	-0.136178	-0.314171
C171	C	-0.357162	-0.649283	-0.699154
C172	C	0.142838	-0.149283	-0.199154
C173	C	-0.357019	-0.649309	-1.015256
C174	C	0.142981	-0.149309	-0.515256
C175	C	-0.357186	-0.649238	-0.164418
C176	C	0.142814	-0.149238	0.335582
C177	C	-0.356985	-0.649314	-0.082105
C178	C	0.143015	-0.149314	0.417895
H179	H	-0.920619	-0.719042	-0.312583
H180	H	-0.420619	-0.219042	0.187417
Br181	Br	-0.780355	-0.619309	-0.506165
Br182	Br	-0.280355	-0.119309	-0.006165
Br183	Br	-0.779646	-0.742723	-0.321282
Br184	Br	-0.279646	-0.242723	0.178718
H185	H	-0.792538	-0.695431	-0.454316
H186	H	-0.292538	-0.195431	0.045684
Br187	Br	-0.198403	-0.275155	-0.516102
Br188	Br	0.301597	0.224845	-0.016102
H189	H	-0.271451	0.094170	-0.442917
H190	H	0.228549	0.594170	0.057083
H191	H	-0.471811	-0.622338	-0.921575
H192	H	0.028189	-0.122338	-0.421575
Br193	Br	-0.392172	-0.555764	-0.934358
Br194	Br	0.107828	-0.055764	-0.434358
Br195	Br	-0.778200	-0.670664	-0.203486
Br196	Br	-0.278200	-0.170664	0.296514
H197	H	-0.793601	-0.575311	-0.375267
H198	H	-0.293601	-0.075311	0.124733
H199	H	-0.271466	0.179278	-0.442904
H200	H	0.228534	0.679278	0.057096
Br201	Br	-0.933892	-0.557587	-0.403135
Br202	Br	-0.433892	-0.057587	0.096865
H203	H	-0.435015	-0.707031	-0.792670
H204	H	0.064985	-0.207031	-0.292670
H205	H	-0.271309	-0.478239	-0.442887
H206	H	0.228691	0.021761	0.057113
Br207	Br	-0.246486	-0.580699	-0.935803
Br208	Br	0.253514	-0.080699	-0.435803
H209	H	-0.921475	-0.591386	-0.279242
H210	H	-0.421475	-0.091386	0.220758
Br211	Br	-0.392208	-0.556039	-0.779379
Br212	Br	0.107792	-0.056039	-0.279379
Br213	Br	-0.515969	-0.164532	-0.197553
Br214	Br	-0.015969	0.335468	0.302447
H215	H	-0.920110	-0.697407	-0.450610
H216	H	-0.420110	-0.197407	0.049390
Br217	Br	-0.252481	-0.578114	-0.780303
Br218	Br	0.247519	-0.078114	-0.280303
Br219	Br	-0.935452	-0.623468	-0.509556
Br220	Br	-0.435452	-0.123468	-0.009556
Br221	Br	-0.198453	-0.023820	-0.516116
Br222	Br	0.301547	0.476180	-0.016116
Br223	Br	-0.198419	-0.164567	-0.516113
Br224	Br	0.301581	0.335433	-0.016113
Br225	Br	-0.511149	-0.627852	-0.780285
Br226	Br	-0.011149	-0.127852	-0.280285
H227	H	-0.338982	-0.723278	-0.920496
H228	H	0.161018	-0.223278	-0.420496
Br229	Br	-0.474192	-0.713482	-0.933068
Br230	Br	0.025808	-0.213482	-0.433068
Br231	Br	-0.781106	-0.584842	-0.240009
Br232	Br	-0.281106	-0.084842	0.259991
Br233	Br	-0.311289	-0.741072	-0.780203
Br234	Br	0.188711	-0.241072	-0.280203
H235	H	-0.234398	-0.659711	-0.792784
H236	H	0.265602	-0.159711	-0.292784
Br237	Br	-0.933845	-0.670423	-0.202739
Br238	Br	-0.433845	-0.170423	0.297261
H239	H	-0.236203	-0.662617	-0.920094
H240	H	0.263797	-0.162617	-0.420094
H241	H	-0.224108	-0.121655	-0.490356
H242	H	0.275892	0.378345	0.009644
H243	H	-0.442917	-0.478209	-0.270728
H244	H	0.057083	0.021791	0.229272
H245	H	-0.442951	-0.393101	-0.270740
H246	H	0.057049	0.106899	0.229260
H247	H	-0.271323	-0.393116	-0.442893
H248	H	0.228677	0.106884	0.057107
Br249	Br	-0.516037	-0.023771	-0.197584
Br250	Br	-0.016037	0.476229	0.302416
H251	H	-0.490327	-0.121618	-0.223322
H252	H	0.009673	0.378382	0.276678
Br253	Br	-0.468749	0.081446	-0.245003
Br254	Br	0.031251	0.581446	0.254997
H255	H	-0.443080	0.179303	-0.270754
H256	H	0.056920	0.679303	0.229246
Br257	Br	-0.515947	-0.275105	-0.197553
Br258	Br	-0.015947	0.224895	0.302447
