data_functionalizedCrystal
_audit_creation_method	'MofGen! by Chris Wilmer'
_symmetry_space_group_name_H-M	'P1'
_symmetry_Int_Tables_number	1
_symmetry_cell_setting	triclinic
loop_
_symmetry_equiv_pos_as_xyz
  x,y,z
_cell_length_a	19.188930
_cell_length_b	10.654551
_cell_length_c	17.666332
_cell_angle_alpha	90.002776
_cell_angle_beta	90.019704
_cell_angle_gamma	83.815105
loop_
_atom_site_label
_atom_site_type_symbol
_atom_site_fract_x
_atom_site_fract_y
_atom_site_fract_z
O1	O	-0.927172	-0.156779	-0.063189
O2	O	-0.723999	-0.177884	-0.063137
O3	O	-0.830256	0.015506	-0.063162
O4	O	-0.820914	-0.350170	-0.063163
O5	O	-0.830244	0.015511	0.062734
O6	O	-0.723987	-0.177880	0.062760
O7	O	-0.927160	-0.156775	0.062708
Cu8	Cu	-0.825572	-0.167327	0.074229
Cu9	Cu	-0.825586	-0.167332	-0.074658
O10	O	-0.820902	-0.350165	0.062733
C11	C	-0.697977	-0.177199	-0.000182
C12	C	-0.620459	-0.175147	-0.000162
C13	C	-0.829564	0.062292	-0.000215
C14	C	-0.827511	0.201692	-0.000218
C15	C	-0.953181	-0.157460	-0.000249
C16	C	-1.030699	-0.159512	-0.000274
C17	C	-0.576278	-0.288622	-0.000174
C18	C	-0.503441	-0.286695	-0.000182
C19	C	-0.474790	-0.171285	-0.000194
C20	C	-0.518981	-0.057795	-0.000177
C21	C	-0.591816	-0.059726	-0.000161
N22	N	-0.366236	-0.083071	-0.043072
N23	N	-0.297046	-0.081245	-0.043089
C24	C	-0.255343	-0.165461	-0.000240
N25	N	-0.285443	-0.251593	0.042617
N26	N	-0.354640	-0.253423	0.042630
C27	C	-0.395813	-0.169179	-0.000211
C28	C	-0.132183	-0.276855	-0.000260
C29	C	-0.059346	-0.274922	-0.000264
C30	C	-0.074887	-0.046020	-0.000266
C31	C	-0.147723	-0.047955	-0.000255
C32	C	-0.176367	-0.163376	-0.000256
C33	C	-0.821595	-0.396951	-0.000216
C34	C	-0.823647	-0.536351	-0.000218
N35	N	-0.825567	-0.167322	0.178949
C36	C	-0.826555	0.267173	-0.068845
C37	C	-0.824620	0.398152	-0.068845
C38	C	-0.824602	0.398159	0.068414
C39	C	-0.826532	0.267181	0.068414
C40	C	-0.781160	0.567301	-0.151284
C41	C	-0.780216	0.632790	-0.219915
C42	C	-0.821688	0.600125	-0.280517
C43	C	-0.864123	0.501977	-0.272491
C44	C	-0.865074	0.436497	-0.203860
C45	C	-0.823585	0.469157	-0.143260
C46	C	-0.869997	0.098030	0.150848
C47	C	-0.870953	0.032549	0.219481
C48	C	-0.829485	0.065213	0.280089
C49	C	-0.787060	0.163367	0.272071
C50	C	-0.786104	0.228848	0.203439
C51	C	-0.827572	0.196175	0.142830
N52	N	-0.825597	-0.167327	-0.179378
C53	C	-0.872649	-0.081717	0.780987
C54	C	-0.872650	-0.081720	0.701740
C55	C	-0.825587	-0.167321	0.662130
C56	C	-0.778531	-0.252947	0.701775
C57	C	-0.778536	-0.252950	0.781021
N58	N	-0.763882	-0.183595	0.537733
N59	N	-0.763879	-0.183585	0.462453
C60	C	-0.825571	-0.167319	0.423366
N61	N	-0.887266	-0.151039	0.462404
N62	N	-0.887268	-0.151043	0.537691
C63	C	-0.825577	-0.167328	0.576201
C64	C	-0.872628	-0.081707	0.297802
C65	C	-0.872630	-0.081719	0.218553
C66	C	-0.778505	-0.252940	0.218589
C67	C	-0.778509	-0.252934	0.297837
C68	C	-0.825570	-0.167311	0.337438
H69	H	-0.599594	-0.382607	-0.000176
Cl70	Cl	-0.203269	0.094708	-0.000244
H71	H	-0.910950	-0.011991	0.330047
H72	H	-0.751556	0.308768	0.196913
H73	H	-0.827350	0.213855	-0.124730
Cl74	Cl	-0.922146	0.056980	0.074659
Cl75	Cl	-0.918415	0.313120	-0.193767
H76	H	-0.740188	-0.322643	0.186340
Cl77	Cl	-0.916272	0.460933	-0.348679
Cl78	Cl	-0.719351	-0.360557	0.347668
Cl79	Cl	-0.647362	0.082941	-0.000147
Cl80	Cl	-0.820508	0.682469	-0.366790
H81	H	-0.495648	0.036172	-0.000197
H82	H	-0.910949	-0.012009	0.186281
Cl83	Cl	-0.003802	-0.417591	-0.000275
Cl84	Cl	-0.719369	-0.360565	0.651982
H85	H	-0.747380	0.593896	-0.101945
Cl86	Cl	-0.931806	0.025915	0.651905
Cl87	Cl	-0.830696	-0.017098	0.366375
H88	H	-0.823806	0.451496	0.124292
H89	H	-0.753278	0.189938	0.321416
Cl90	Cl	-0.447888	-0.429360	-0.000196
Cl91	Cl	-0.726869	0.756167	-0.230004
Cl92	Cl	-0.168196	-0.421952	-0.000253
Cl93	Cl	-0.038875	0.099068	-0.000272
Cl94	Cl	-0.924296	-0.090835	0.229564
Cl95	Cl	-0.931813	0.025914	0.830772
H96	H	-0.740220	-0.322665	0.813292
