data_functionalizedCrystal
_audit_creation_method	'MofGen! by Chris Wilmer'
_symmetry_space_group_name_H-M	'P1'
_symmetry_Int_Tables_number	1
_symmetry_cell_setting	triclinic
loop_
_symmetry_equiv_pos_as_xyz
  x,y,z
_cell_length_a	12.759400
_cell_length_b	12.759401
_cell_length_c	21.395355
_cell_angle_alpha	89.976122
_cell_angle_beta	90.013847
_cell_angle_gamma	89.986380
loop_
_atom_site_label
_atom_site_type_symbol
_atom_site_fract_x
_atom_site_fract_y
_atom_site_fract_z
Zn1	Zn	-0.418418	-1.606285	0.354270
Zn2	Zn	0.081582	-1.106285	0.854270
Zn3	Zn	-0.594082	-1.606171	0.249502
Zn4	Zn	-0.094082	-1.106171	0.749502
Zn5	Zn	-0.418415	-1.430578	0.249508
Zn6	Zn	0.081585	-0.930578	0.749508
Zn7	Zn	-0.594052	-1.430576	0.354243
Zn8	Zn	-0.094052	-0.930576	0.854243
O9	O	-0.506242	-1.518402	0.301881
O10	O	-0.006242	-1.018402	0.801881
O11	O	-0.441734	-1.753291	0.340381
O12	O	0.058266	-1.253291	0.840381
O13	O	-0.570791	-1.582831	0.161825
O14	O	-0.070791	-1.082831	0.661825
O15	O	-0.271394	-1.453935	0.263420
O16	O	0.228606	-0.953935	0.763420
O17	O	-0.570794	-1.753207	0.263408
O18	O	-0.070794	-1.253207	0.763408
O19	O	-0.271396	-1.583026	0.340388
O20	O	0.228604	-1.083026	0.840388
O21	O	-0.441729	-1.453824	0.161830
O22	O	0.058271	-0.953824	0.661830
O23	O	-0.441699	-1.283557	0.263393
O24	O	0.058301	-0.783557	0.763393
O25	O	-0.570742	-1.453931	0.441925
O26	O	-0.070742	-0.953931	0.941925
O27	O	-0.570739	-1.283555	0.340341
O28	O	-0.070739	-0.783555	0.840341
O29	O	-0.441705	-1.583024	0.441945
O30	O	0.058295	-1.083024	0.941945
O31	O	-0.741099	-1.582829	0.263381
O32	O	-0.241099	-1.082829	0.763381
O33	O	-0.741077	-1.453820	0.340334
O34	O	-0.241077	-0.953820	0.840334
C35	C	-0.506217	-1.245435	0.301865
C36	C	-0.006217	-0.745435	0.801865
C37	C	-0.506231	-1.128658	0.301873
C38	C	-0.006231	-0.628658	0.801873
C39	C	-0.573324	-1.073756	0.261738
C40	C	-0.073324	-0.573756	0.761738
C41	C	-0.573339	-0.964032	0.261747
C42	C	-0.073339	-0.464032	0.761747
C43	C	-0.439161	-0.964122	0.342029
C44	C	0.060839	-0.464122	0.842029
C45	C	-0.439151	-1.073844	0.342023
C46	C	0.060849	-0.573844	0.842023
C47	C	-0.640403	-1.128571	0.221589
C48	C	-0.140403	-0.628571	0.721589
C49	C	-0.707501	-1.073668	0.181449
C50	C	-0.207501	-0.573668	0.681449
C51	C	-0.707516	-0.963944	0.181459
C52	C	-0.207516	-0.463944	0.681459
C53	C	-0.640435	-0.909122	0.221607
C54	C	-0.140435	-0.409122	0.721607
C55	C	-0.779209	-1.518340	0.301868
C56	C	-0.279209	-1.018340	0.801868
C57	C	-0.895986	-1.518410	0.301883
C58	C	-0.395986	-1.018410	0.801883
C59	C	-0.950825	-1.585659	0.261858
C60	C	-0.450825	-1.085659	0.761858
C61	C	-1.060549	-1.585724	0.261877
C62	C	-0.560549	-1.085724	0.761877
C63	C	-1.060585	-1.451280	0.341949
C64	C	-0.560585	-0.951280	0.841949
C65	C	-0.950863	-1.451222	0.341932
C66	C	-0.450863	-0.951222	0.841932
C67	C	-0.895947	-1.652847	0.221809
C68	C	-0.395947	-1.152847	0.721809
C69	C	-0.950786	-1.720101	0.181780
C70	C	-0.450786	-1.220101	0.681780
C71	C	-1.060510	-1.720166	0.181799
C72	C	-0.560510	-1.220166	0.681799
C73	C	-1.115395	-1.652976	0.221848
C74	C	-0.615395	-1.152976	0.721848
C75	C	-0.232208	-1.518494	0.301908
C76	C	0.267792	-1.018494	0.801908
C77	C	-0.115432	-1.518533	0.301919
C78	C	0.384568	-1.018533	0.801919
C79	C	-0.506221	-1.518490	0.465304
C80	C	-0.006221	-1.018490	0.965304
C81	C	-0.506211	-1.518527	0.534945
C82	C	-0.006211	-1.018527	1.034945
C83	C	-0.506262	-0.792436	0.301893
C84	C	-0.006262	-0.292436	0.801893
C85	C	-0.506256	-0.909212	0.301889
C86	C	-0.006256	-0.409212	0.801889
C87	C	-0.506187	-1.518376	0.139093
C88	C	-0.006187	-1.018376	0.639093
C89	C	-0.505900	-1.518542	0.069452
C90	C	-0.005900	-1.018542	0.569452
C91	C	-0.439019	-1.585743	0.567670
C92	C	0.060981	-1.085743	1.067670
C93	C	-0.438974	-1.585741	0.633106
C94	C	0.061026	-1.085741	1.133106
C95	C	-0.506140	-1.518535	0.665814
C96	C	-0.006140	-1.018535	1.165814
C97	C	-0.573337	-1.451306	0.633081
C98	C	-0.073337	-0.951306	1.133081
C99	C	-0.573373	-1.451302	0.567647
C100	C	-0.073373	-0.951302	1.067647
C101	C	-0.600739	-1.510218	0.769484
C102	C	-0.100739	-1.010218	1.269484
C103	C	-0.600705	-1.510229	0.834917
C104	C	-0.100705	-1.010229	1.334917
C105	C	-0.506029	-1.518542	0.867635
C106	C	-0.006029	-1.018542	1.367635
C107	C	-0.411384	-1.526864	0.834911
C108	C	0.088616	-1.026864	1.334911
C109	C	-0.411420	-1.526860	0.769477
C110	C	0.088580	-1.026860	1.269477
C111	C	-0.506108	-1.518532	0.736766
C112	C	-0.006108	-1.018532	1.236766
C113	C	-0.438781	-1.585759	0.971312
C114	C	0.061219	-1.085759	1.471312
C115	C	-0.438734	-1.585751	1.036749
C116	C	0.061266	-1.085751	1.536749
C117	C	-0.573108	-1.451321	1.036723
C118	C	-0.073108	-0.951321	1.536723
C119	C	-0.573145	-1.451324	0.971288
C120	C	-0.073145	-0.951324	1.471288
C121	C	-0.505984	-1.518549	0.938586
C122	C	-0.005984	-1.018549	1.438586
H123	H	-0.384545	-0.919478	0.374715
H124	H	0.115455	-0.419478	0.874715
H125	H	-0.762157	-0.919246	0.148780
H126	H	-0.262157	-0.419246	0.648780
F127	F	-0.367745	-1.132279	0.384740
F128	F	0.132255	-0.632279	0.884740
H129	H	-0.806604	-1.652799	0.221787
H130	H	-0.306604	-1.152799	0.721787
H131	H	-1.204740	-1.653042	0.221865
H132	H	-0.704740	-1.153042	0.721865
F133	F	-0.892372	-1.791613	0.139166
F134	F	-0.392372	-1.291613	0.639166
H135	H	-0.906213	-1.396462	0.374525
H136	H	-0.406213	-0.896462	0.874525
F137	F	-0.367438	-1.657267	0.667941
F138	F	0.132562	-1.157267	1.167941
F139	F	-0.644817	-1.379777	0.667893
F140	F	-0.144817	-0.879777	1.167893
F141	F	-0.310695	-1.535713	0.734653
F142	F	0.189305	-1.035713	1.234653
H143	H	-1.105157	-1.774934	0.149211
H144	H	-0.605157	-1.274934	0.649211
F145	F	-0.640391	-1.245348	0.221575
F146	F	-0.140391	-0.745348	0.721575
F147	F	-1.119002	-1.379776	0.384567
F148	F	-0.619002	-0.879776	0.884567
H149	H	-0.628088	-1.396562	0.541003
H150	H	-0.128088	-0.896562	1.041003
H151	H	-0.384329	-1.640481	0.541048
H152	H	0.115671	-1.140481	1.041048
F153	F	-0.310615	-1.535716	0.869726
F154	F	0.189385	-1.035716	1.369726
F155	F	-0.367299	-1.657300	0.936506
F156	F	0.132701	-1.157300	1.436506
H157	H	-0.384012	-1.640484	1.063392
H158	H	0.115988	-1.140484	1.563392
F159	F	-0.644584	-1.379787	1.071529
F160	F	-0.144584	-0.879787	1.571529
H161	H	-0.762123	-1.118311	0.148766
H162	H	-0.262123	-0.618311	0.648766
F163	F	-0.644666	-1.379787	0.936458
F164	F	-0.144666	-0.879787	1.436458
H165	H	-0.677770	-1.503458	0.861555
H166	H	-0.177770	-1.003458	1.361555
F167	F	-0.701515	-1.501394	0.734670
F168	F	-0.201515	-1.001394	1.234670
H169	H	-0.640460	-0.819778	0.221616
H170	H	-0.140460	-0.319778	0.721616
