data_functionalizedCrystal
_audit_creation_method	'MofGen! by Chris Wilmer'
_symmetry_space_group_name_H-M	'P1'
_symmetry_Int_Tables_number	1
_symmetry_cell_setting	triclinic
loop_
_symmetry_equiv_pos_as_xyz
  x,y,z
_cell_length_a	15.995350
_cell_length_b	10.654549
_cell_length_c	9.730223
_cell_angle_alpha	89.996580
_cell_angle_beta	90.000357
_cell_angle_gamma	83.988576
loop_
_atom_site_label
_atom_site_type_symbol
_atom_site_fract_x
_atom_site_fract_y
_atom_site_fract_z
O1	O	1.111924	0.161873	-0.114170
O2	O	0.868265	0.181862	-0.114198
O3	O	0.995697	-0.010945	-0.114178
O4	O	0.984492	0.354680	-0.114191
O5	O	0.995688	-0.010950	0.114402
O6	O	0.868256	0.181857	0.114382
O7	O	1.111916	0.161867	0.114410
Zn8	Zn	0.990085	0.171861	0.150688
Zn9	Zn	0.990096	0.171868	-0.150476
O10	O	0.984484	0.354675	0.114389
C11	C	0.837061	0.181033	0.000088
C12	C	0.744096	0.178555	0.000077
C13	C	0.994870	-0.057735	0.000110
C14	C	0.992409	-0.197146	0.000106
C15	C	1.065120	-0.408611	0.000105
C16	C	1.067439	-0.277620	0.000116
C17	C	0.915055	-0.247668	0.000099
C18	C	0.912737	-0.378656	0.000097
C19	C	0.406297	0.169658	0.000106
C20	C	0.452934	0.032344	0.000621
C21	C	0.549639	0.034822	0.000096
C22	C	0.573883	0.174071	0.000093
C23	C	0.533194	0.241802	-0.130434
C24	C	0.436538	0.238353	-0.130534
C25	C	0.436207	0.241184	0.129404
C26	C	0.533152	0.241151	0.131120
C27	C	0.668595	0.176573	0.000081
C28	C	0.311585	0.167161	0.000109
C29	C	1.143119	0.162696	0.000120
C30	C	1.236084	0.165174	0.000122
C31	C	0.985311	0.401464	0.000098
C32	C	0.987772	0.540875	0.000093
N33	N	0.990083	0.171856	0.356224
N34	N	0.990104	0.171864	-0.356013
C35	C	1.046530	0.086517	0.428159
C36	C	1.046538	0.086517	0.572042
C37	C	0.933651	0.257207	0.572042
C38	C	0.933639	0.257199	0.428162
H39	H	1.130423	-0.236499	0.000127
H40	H	0.417947	0.188965	-0.228104
H41	H	1.126218	-0.474125	0.000101
N42	N	0.570415	0.179504	-0.259114
H43	H	0.613624	0.107423	-0.233156
H44	H	0.524349	0.146174	-0.315042
N45	N	0.872747	0.349246	0.350575
H46	H	0.882901	0.438391	0.375593
H47	H	0.881330	0.336179	0.248536
H48	H	0.853964	-0.182135	0.000098
H49	H	0.849747	-0.419783	0.000094
H50	H	0.434090	-0.022545	0.094227
N51	N	0.586890	-0.035690	0.124038
H52	H	0.540494	-0.068668	0.179505
H53	H	0.627824	-0.108716	0.092763
H54	H	0.404875	0.339166	-0.136460
H55	H	1.092501	0.017025	0.630607
N56	N	0.426548	-0.040049	-0.122650
H57	H	0.384518	0.015716	-0.178829
H58	H	0.477487	-0.067447	-0.180852
H59	H	0.577189	-0.018773	-0.093631
H60	H	0.547913	0.344105	-0.135290
N61	N	0.408661	0.181723	0.260463
H62	H	0.376510	0.107811	0.237343
H63	H	0.459744	0.151472	0.317098
N64	N	0.568944	0.175667	0.259037
H65	H	0.611367	0.102852	0.232241
H66	H	0.597303	0.237520	0.316929
H67	H	0.549106	0.342696	0.139001
N68	N	0.394920	0.375289	0.130579
H69	H	0.357023	0.389697	0.047811
H70	H	0.360567	0.390286	0.217233
H71	H	1.092489	0.017023	0.369590
H72	H	0.887697	0.326694	0.630628
