data_functionalizedCrystal
_audit_creation_method	'MofGen! by Chris Wilmer'
_symmetry_space_group_name_H-M	'P1'
_symmetry_Int_Tables_number	1
_symmetry_cell_setting	triclinic
loop_
_symmetry_equiv_pos_as_xyz
  x,y,z
_cell_length_a	14.044220
_cell_length_b	15.944551
_cell_length_c	12.503552
_cell_angle_alpha	86.481026
_cell_angle_beta	93.839891
_cell_angle_gamma	88.343808
loop_
_atom_site_label
_atom_site_type_symbol
_atom_site_fract_x
_atom_site_fract_y
_atom_site_fract_z
O1	O	1.263185	0.198066	0.089211
O2	O	1.763185	0.698066	0.589211
O3	O	0.987217	0.190757	0.089238
O4	O	1.487217	0.690757	0.589238
O5	O	1.132736	0.072701	0.089214
O6	O	1.632736	0.572701	0.589214
O7	O	1.117665	0.316122	0.089235
O8	O	1.617665	0.816122	0.589235
O9	O	1.121780	0.081588	-0.089427
O10	O	1.621780	0.581588	0.410573
O11	O	0.976260	0.199643	-0.089403
O12	O	1.476260	0.699643	0.410597
O13	O	1.252228	0.206952	-0.089430
O14	O	1.752228	0.706952	0.410570
Cu15	Cu	1.113244	0.204109	-0.105728
Cu16	Cu	1.613244	0.704109	0.394272
Cu17	Cu	1.126201	0.193600	0.105535
Cu18	Cu	1.626201	0.693600	0.605535
O19	O	1.106709	0.325008	-0.089406
O20	O	1.606709	0.825008	0.410594
C21	C	0.946424	0.192001	-0.000079
C22	C	1.446424	0.692001	0.499921
C23	C	0.841198	0.182459	-0.000069
C24	C	1.341198	0.682459	0.499931
C25	C	1.126632	0.045804	-0.000107
C26	C	1.626632	0.545804	0.499893
C27	C	1.124756	-0.047583	-0.000107
C28	C	1.624756	0.452417	0.499893
C29	C	0.648534	0.165017	-0.000092
C30	C	1.148534	0.665017	0.499908
C31	C	0.590906	0.232688	-0.000091
C32	C	1.090906	0.732688	0.499909
C33	C	0.483701	0.222983	-0.000104
C34	C	0.983701	0.722983	0.499896
C35	C	0.755749	0.174721	-0.000079
C36	C	1.255749	0.674721	0.499921
C37	C	1.030073	-0.269530	-0.000083
C38	C	1.530073	0.230470	0.499917
C39	C	1.068639	-0.322874	-0.088168
C40	C	1.568639	0.177126	0.411832
C41	C	1.121363	-0.218563	-0.000099
C42	C	1.621363	0.281437	0.499901
C43	C	1.079463	-0.331617	0.087958
C44	C	1.579463	0.168383	0.587958
C45	C	1.118079	-0.383722	-0.000086
C46	C	1.618079	0.116278	0.499914
C47	C	1.159950	-0.270673	-0.088256
C48	C	1.659950	0.229327	0.411744
C49	C	1.170766	-0.279414	0.087949
C50	C	1.670766	0.220586	0.587949
C51	C	1.209396	-0.332734	-0.000158
C52	C	1.709396	0.167266	0.499842
C53	C	1.123252	-0.123419	-0.000107
C54	C	1.623252	0.376581	0.499893
C55	C	1.116197	-0.478865	-0.000085
C56	C	1.616197	0.021135	0.499915
C57	C	1.293021	0.205708	-0.000111
C58	C	1.793021	0.705708	0.499889
C59	C	1.398247	0.215249	-0.000114
C60	C	1.898247	0.715249	0.499886
C61	C	1.112813	0.351905	-0.000083
C62	C	1.612813	0.851905	0.499917
C63	C	1.114689	0.445291	-0.000076
C64	C	1.614689	0.945291	0.499924
N65	N	1.104137	0.211500	-0.254319
N66	N	1.604137	0.711500	0.245681
C67	C	1.148707	0.175327	-0.526760
C68	C	1.648707	0.675327	-0.026760
C69	C	1.090749	0.222374	-0.473426
C70	C	1.590749	0.722374	0.026574
C71	C	1.098200	0.216322	-0.351504
C72	C	1.598200	0.716322	0.148496
C73	C	1.141257	0.181377	-0.648693
C74	C	1.641257	0.681377	-0.148693
N75	N	1.135315	0.186203	0.254127
N76	N	1.635315	0.686203	0.754127
H77	H	0.617360	0.099799	-0.000104
H78	H	1.117360	0.599799	0.499896
C79	C	0.874535	-0.253921	-0.092537
C80	C	1.374535	0.246079	0.407463
C81	C	0.927778	-0.232212	-0.000187
C82	C	1.427778	0.267788	0.499813
H83	H	0.811386	-0.230875	-0.092606
H84	H	1.311386	0.269125	0.407394
H85	H	0.872605	-0.313386	-0.093168
H86	H	1.372605	0.186614	0.406832
H87	H	0.903500	-0.232210	-0.154470
H88	H	1.403500	0.267790	0.345530
H89	H	0.898816	-0.253928	0.061746
H90	H	1.398816	0.246072	0.561746
H91	H	0.929703	-0.172734	0.000453
H92	H	1.429703	0.327266	0.500453
H93	H	1.213912	-0.260099	0.162414
H94	H	1.713912	0.239901	0.662414
H95	H	1.203918	0.130508	-0.480858
H96	H	1.703918	0.630508	0.019142
H97	H	1.025460	-0.342169	-0.162629
H98	H	1.525460	0.157831	0.337371
C99	C	1.023168	0.277256	-0.645927
C100	C	1.523168	0.777256	-0.145927
C101	C	1.016216	0.282891	-0.535390
C102	C	1.516216	0.782891	-0.035390
H103	H	0.977161	0.314622	-0.684182
H104	H	1.477161	0.814622	-0.184182
H105	H	1.011718	0.221332	-0.664292
H106	H	1.511718	0.721332	-0.164292
H107	H	1.085339	0.292008	-0.664275
H108	H	1.585339	0.792008	-0.164275
H109	H	0.954047	0.268134	-0.517041
H110	H	1.454047	0.768134	-0.017041
H111	H	1.027659	0.338828	-0.517018
H112	H	1.527659	0.838828	-0.017018
C113	C	1.286826	-0.190608	-0.157866
C114	C	1.786826	0.309392	0.342134
C115	C	1.205855	-0.234787	-0.188901
C116	C	1.705855	0.265213	0.311099
H117	H	1.315158	-0.168449	-0.220001
H118	H	1.815158	0.331551	0.279999
H119	H	1.331419	-0.227543	-0.116710
H120	H	1.831419	0.272457	0.383290
H121	H	1.268807	-0.145862	-0.115852
H122	H	1.768807	0.354138	0.384148
H123	H	1.223875	-0.279537	-0.230909
H124	H	1.723875	0.220463	0.269091
H125	H	1.161253	-0.197850	-0.230075
H126	H	1.661253	0.302150	0.269925
C127	C	0.732585	0.313436	-0.000012
C128	C	1.232585	0.813436	0.499988
C129	C	0.632986	0.320738	-0.000040
C130	C	1.132986	0.820738	0.499960
H131	H	0.758565	0.367792	0.000036
H132	H	1.258565	0.867792	0.500036
H133	H	0.749567	0.286910	-0.062317
H134	H	1.249567	0.786910	0.437683
H135	H	0.757169	0.280665	0.062275
H136	H	1.257169	0.780665	0.562275
H137	H	0.608402	0.353505	-0.062332
H138	H	1.108402	0.853505	0.437668
H139	H	0.615996	0.347276	0.062272
H140	H	1.115996	0.847276	0.562272
C141	C	1.365510	-0.346795	0.091123
C142	C	1.865510	0.153205	0.591123
C143	C	1.311785	-0.369806	-0.000231
C144	C	1.811785	0.130194	0.499769
H145	H	1.428723	-0.369670	0.091068
H146	H	1.928723	0.130330	0.591068
H147	H	1.337086	-0.367856	0.153725
H148	H	1.837086	0.132144	0.653725
H149	H	1.367168	-0.287251	0.090519
H150	H	1.867168	0.212749	0.590519
H151	H	1.310121	-0.429350	0.000377
H152	H	1.810121	0.070650	0.500377
H153	H	1.340217	-0.348749	-0.062850
H154	H	1.840217	0.151251	0.437150
C155	C	0.939597	-0.335576	0.188318
C156	C	1.439597	0.164424	0.688318
C157	C	1.033490	-0.367635	0.188490
C158	C	1.533490	0.132365	0.688490
H159	H	0.911216	-0.357807	0.250383
H160	H	1.411216	0.142193	0.750383
H161	H	0.903958	-0.351152	0.125784
H162	H	1.403958	0.148848	0.625784
H163	H	0.939945	-0.276026	0.188687
H164	H	1.439945	0.223974	0.688687
H165	H	1.033142	-0.427185	0.188113
H166	H	1.533142	0.072815	0.688113
H167	H	1.069138	-0.352065	0.251040
H168	H	1.569138	0.147935	0.751040
