data_functionalizedCrystal
_audit_creation_method	'MofGen! by Chris Wilmer'
_symmetry_space_group_name_H-M	'P1'
_symmetry_Int_Tables_number	1
_symmetry_cell_setting	triclinic
loop_
_symmetry_equiv_pos_as_xyz
  x,y,z
_cell_length_a	19.805407
_cell_length_b	13.032721
_cell_length_c	19.805398
_cell_angle_alpha	97.157086
_cell_angle_beta	89.984135
_cell_angle_gamma	97.204665
loop_
_atom_site_label
_atom_site_type_symbol
_atom_site_fract_x
_atom_site_fract_y
_atom_site_fract_z
Zn1	Zn	1.000506	-0.416087	-0.416945
Zn2	Zn	0.986062	-0.590842	-0.318131
Zn3	Zn	0.887326	-0.416110	-0.303772
Zn4	Zn	0.872923	-0.590791	-0.431274
O5	O	0.936704	-0.503457	-0.367530
O6	O	1.093306	-0.439279	-0.403850
O7	O	0.972948	-0.567694	-0.221512
O8	O	0.914412	-0.269867	-0.306778
O9	O	1.082694	-0.567671	-0.331252
O10	O	0.997565	-0.269849	-0.389926
O11	O	0.900407	-0.439320	-0.210962
O12	O	0.790700	-0.439271	-0.320672
O13	O	0.889864	-0.567585	-0.524087
O14	O	0.780118	-0.567608	-0.414348
O15	O	0.983599	-0.439230	-0.513560
O16	O	0.958981	-0.737075	-0.345146
O17	O	0.875858	-0.737038	-0.428272
C18	C	0.760850	-0.503437	-0.367507
C19	C	0.685617	-0.503454	-0.367515
C20	C	0.644772	-0.570380	-0.416230
C21	C	0.574083	-0.570382	-0.416240
C22	C	0.544240	-0.503462	-0.367531
C23	C	0.585091	-0.436529	-0.318813
C24	C	0.655778	-0.436523	-0.318807
C25	C	0.300016	-0.436552	-0.318838
C26	C	0.229322	-0.436566	-0.318846
C27	C	0.218320	-0.570411	-0.416270
C28	C	0.289008	-0.570405	-0.416264
C29	C	0.329852	-0.503468	-0.367549
C30	C	0.406501	-0.503466	-0.367540
C31	C	0.467593	-0.503469	-0.367536
C32	C	0.914308	-0.774975	-0.389837
C33	C	0.904788	-0.891132	-0.399402
C34	C	0.941708	-0.942902	-0.362569
C35	C	0.931871	-1.062956	-0.372454
C36	C	1.113245	-0.503478	-0.367554
C37	C	1.188477	-0.503487	-0.367565
C38	C	0.936736	-0.503400	-0.544068
C39	C	0.936749	-0.503375	-0.619298
C40	C	0.959207	-0.230879	-0.345152
C41	C	0.968796	-0.114723	-0.335615
C42	C	0.985654	-0.436356	-1.075594
C43	C	0.985640	-0.436388	-1.004908
C44	C	0.936830	-0.503230	-0.975048
C45	C	0.888034	-0.570051	-1.015879
C46	C	0.888051	-0.570024	-1.086564
C47	C	0.887966	-0.570165	-0.730815
C48	C	0.887952	-0.570185	-0.660125
C49	C	0.985555	-0.436528	-0.649159
C50	C	0.985572	-0.436501	-0.719844
C51	C	0.936779	-0.503326	-0.760669
C52	C	0.936795	-0.503292	-0.837315
C53	C	0.936811	-0.503259	-0.898404
C54	C	0.936718	-0.503440	-0.191673
C55	C	0.936860	-0.503170	-0.116419
H56	H	0.313302	-0.624901	-0.455926
H57	H	0.980603	-0.898347	-0.323718
C58	C	0.852245	-0.951321	-0.451891
N59	N	0.812666	-0.996655	-0.491426
C60	C	0.879324	-1.123141	-0.424946
N61	N	0.839746	-1.168475	-0.464481
H62	H	0.560788	-0.382037	-0.279156
H63	H	0.540830	-0.624881	-0.455908
H64	H	0.689034	-0.382019	-0.279141
H65	H	0.205028	-0.382065	-0.279181
H66	H	0.333262	-0.382056	-0.279166
H67	H	1.025374	-0.381983	-0.971671
C68	C	1.021342	-1.054540	-0.283122
N69	N	1.060918	-1.009209	-0.243584
C70	C	1.039350	-0.362823	-1.108433
N71	N	1.079797	-0.307439	-1.133165
H72	H	1.025316	-0.382067	-0.744151
C73	C	1.039234	-0.363026	-0.604246
N74	N	1.079662	-0.307664	-0.570418
H75	H	0.185056	-0.624910	-0.455938
C76	C	0.834257	-0.643724	-0.627281
N77	N	0.793816	-0.699110	-0.602544
C78	C	0.834286	-0.643664	-0.775713
N79	N	0.793850	-0.699025	-0.809532
C80	C	0.834373	-0.643523	-1.131472
N81	N	0.793942	-0.698886	-1.165296
C82	C	0.677592	-0.643999	-0.469814
N83	N	0.702310	-0.699447	-0.510178
C84	C	0.834342	-0.643577	-0.983031
N85	N	0.793897	-0.698954	-0.958290
