data_functionalizedCrystal
_audit_creation_method	'MofGen! by Chris Wilmer'
_symmetry_space_group_name_H-M	'P1'
_symmetry_Int_Tables_number	1
_symmetry_cell_setting	triclinic
loop_
_symmetry_equiv_pos_as_xyz
  x,y,z
_cell_length_a	23.532361
_cell_length_b	14.519709
_cell_length_c	22.010155
_cell_angle_alpha	89.999101
_cell_angle_beta	89.989902
_cell_angle_gamma	96.745093
loop_
_atom_site_label
_atom_site_type_symbol
_atom_site_fract_x
_atom_site_fract_y
_atom_site_fract_z
O1	O	0.755790	-0.111734	-0.050466
O2	O	0.589996	-0.127977	-0.050480
O3	O	0.677289	0.014436	-0.050467
O4	O	0.668497	-0.254147	-0.050479
O5	O	0.677263	0.014419	0.050583
O6	O	0.589971	-0.127994	0.050570
O7	O	0.755764	-0.111751	0.050585
Cu8	Cu	0.672865	-0.119874	0.059804
Cu9	Cu	0.672895	-0.119854	-0.059700
O10	O	0.668472	-0.254164	0.050572
C11	C	0.568765	-0.127579	0.000043
C12	C	0.505541	-0.126356	0.000038
C13	C	0.232287	-0.120997	-0.055041
C14	C	0.291692	-0.122155	-0.055043
O15	O	0.322432	-0.122714	-0.101887
N16	N	0.321386	-0.122749	0.000040
C17	C	0.291673	-0.122176	0.055128
O18	O	0.322386	-0.122786	0.101980
C19	C	0.232270	-0.121011	0.055129
C20	C	0.202578	-0.120427	0.000043
C21	C	0.202595	-0.120412	-0.110123
C22	C	0.143194	-0.119256	-0.110121
C23	C	0.113485	-0.118686	-0.055038
C24	C	0.143177	-0.119271	0.000044
C25	C	0.202559	-0.120432	0.110216
C26	C	0.143152	-0.119267	0.110212
C27	C	0.113459	-0.118682	0.055126
C28	C	0.054067	-0.117545	0.055130
N29	N	0.024373	-0.116951	0.000047
C30	C	0.054081	-0.117521	-0.055037
C31	C	0.416425	-0.124619	0.055122
C32	C	0.475826	-0.125790	0.055122
C33	C	0.475841	-0.125768	-0.055049
C34	C	0.416437	-0.124603	-0.055048
C35	C	0.386730	-0.124025	0.000039
C36	C	-0.070665	-0.115095	-0.055029
C37	C	-0.130072	-0.113943	-0.055022
C38	C	-0.130080	-0.113960	0.055148
C39	C	-0.070679	-0.115117	0.055142
C40	C	-0.040973	-0.115681	0.000049
O41	O	0.023289	-0.116981	0.101950
O42	O	0.023363	-0.116898	-0.101881
C43	C	0.676866	0.048782	0.000058
C44	C	0.675638	0.151149	0.000058
C45	C	0.776995	-0.112149	0.000060
C46	C	0.840219	-0.113372	0.000062
C47	C	0.668894	-0.288510	0.000045
C48	C	0.670122	-0.390877	0.000041
N49	N	0.672848	-0.119887	0.143857
C50	C	0.671118	0.525990	0.000042
C51	C	0.672374	0.421697	0.000047
C52	C	0.673378	0.338573	0.000051
C53	C	0.674634	0.234273	0.000054
N54	N	0.672917	-0.119833	-0.143752
C55	C	0.638287	-0.064207	0.436461
C56	C	0.638282	-0.064211	0.372853
O57	O	0.608875	-0.016871	0.339955
N58	N	0.672871	-0.119858	0.341041
C59	C	0.707471	-0.175498	0.372839
O60	O	0.736891	-0.222831	0.339940
C61	C	0.707479	-0.175489	0.436446
C62	C	0.672883	-0.119844	0.468255
C63	C	0.603695	-0.008566	0.468270
C64	C	0.603699	-0.008564	0.531873
C65	C	0.638296	-0.064201	0.563667
C66	C	0.672888	-0.119842	0.531858
C67	C	0.742082	-0.231123	0.468243
C68	C	0.742087	-0.231108	0.531854
C69	C	0.707491	-0.175464	0.563663
C70	C	0.707488	-0.175477	0.627255
N71	N	0.672900	-0.119829	0.659068
C72	C	0.638303	-0.064191	0.627274
C73	C	0.707453	-0.175514	0.239261
C74	C	0.707443	-0.175529	0.175656
C75	C	0.638254	-0.064240	0.175675
C76	C	0.638262	-0.064230	0.239281
C77	C	0.672864	-0.119866	0.271074
C78	C	0.638315	-0.064191	0.760845
C79	C	0.638320	-0.064196	0.824454
C80	C	0.707511	-0.175481	0.824430
C81	C	0.707503	-0.175480	0.760827
C82	C	0.672903	-0.119827	0.729036
O83	O	0.736882	-0.222789	0.660194
O84	O	0.608893	-0.016858	0.660181
H85	H	-0.154245	-0.113469	-0.099882
H86	H	-0.154280	-0.113500	0.099996
H87	H	0.575522	0.036745	0.442390
H88	H	-0.046485	-0.115555	-0.099891
H89	H	0.770266	-0.276413	0.557736
H90	H	0.392266	-0.124127	-0.099905
H91	H	0.500041	-0.126231	-0.099901
H92	H	0.735665	-0.220803	0.734926
H93	H	0.226724	-0.120905	0.155073
H94	H	0.499996	-0.126281	0.099978
H95	H	0.735677	-0.220782	0.850328
H96	H	0.770254	-0.276433	0.442355
H97	H	0.610146	-0.018884	0.850350
H98	H	0.118966	-0.118804	0.155072
H99	H	0.119024	-0.118776	-0.154978
H100	H	0.392240	-0.124161	0.099984
H101	H	0.226778	-0.120873	-0.154981
H102	H	-0.046504	-0.115612	0.099998
H103	H	0.610140	-0.018873	0.734968
H104	H	0.575530	0.036751	0.557767
H105	H	0.610091	-0.018920	0.265176
H106	H	0.610084	-0.018937	0.149776
H107	H	0.735607	-0.220851	0.149762
H108	H	0.735629	-0.220828	0.265143
