data_functionalizedCrystal
_audit_creation_method	'MofGen! by Chris Wilmer'
_symmetry_space_group_name_H-M	'P1'
_symmetry_Int_Tables_number	1
_symmetry_cell_setting	triclinic
loop_
_symmetry_equiv_pos_as_xyz
  x,y,z
_cell_length_a	6.817900
_cell_length_b	16.305550
_cell_length_c	11.102233
_cell_angle_alpha	93.874116
_cell_angle_beta	108.604751
_cell_angle_gamma	103.455250
loop_
_atom_site_label
_atom_site_type_symbol
_atom_site_fract_x
_atom_site_fract_y
_atom_site_fract_z
V1	V	-4.052583	-0.263036	-0.176913
O2	O	-4.012740	-0.258024	0.007398
O3	O	-4.029761	-0.261241	-0.349726
O4	O	-4.003656	-0.377753	-0.174676
O5	O	-4.039026	-0.140706	-0.168865
V6	V	-4.532965	-0.248404	-0.154810
O7	O	-4.320732	-0.295133	-0.225397
O8	O	-4.715014	-0.216307	-0.106325
O9	O	-4.332580	-0.250198	0.018004
O10	O	-4.690205	-0.253415	-0.339120
O11	O	-4.663919	-0.370733	-0.162857
O12	O	-4.358685	-0.133687	-0.157047
C13	C	-3.881002	-0.257093	-0.391840
C14	C	-3.943625	-0.256390	-0.533120
C15	C	-4.214954	-0.259600	-0.738732
C16	C	-4.156116	-0.260265	-0.605985
C17	C	-3.789958	-0.251840	-0.593007
C18	C	-3.848793	-0.251168	-0.725750
C19	C	-4.426354	-0.264468	-0.746225
C20	C	-4.367517	-0.265133	-0.613478
C21	C	-3.847701	-0.405714	-0.168543
C22	C	-3.889150	-0.499496	-0.167858
C23	C	-4.039842	-0.840241	-0.165201
C24	C	-3.802620	-0.799312	-0.157315
C25	C	-3.759611	-0.701817	-0.158555
C26	C	-3.965080	-0.671193	-0.166518
C27	C	-4.150799	-0.721823	-0.292035
C28	C	-4.192557	-0.819372	-0.291325
C29	C	-4.077234	-0.794395	-0.048574
C30	C	-4.029157	-0.696552	-0.047581
C31	C	-3.922842	-0.575655	-0.167267
C32	C	-4.082091	-0.935780	-0.164461
C33	C	-4.144683	-0.254344	0.060111
C34	C	-4.061297	-0.255052	0.201390
C35	C	-4.177984	-0.105721	-0.163183
C36	C	-4.115772	-0.011939	-0.163862
H37	H	-3.619678	-0.666792	-0.068309
C38	C	-4.500017	-0.348028	-0.587844
C39	C	-4.666269	-0.414184	-0.701298
C40	C	-4.798757	-0.497076	-0.675663
C41	C	-4.764993	-0.513811	-0.536573
C42	C	-4.598734	-0.447653	-0.423109
C43	C	-4.466245	-0.364761	-0.448744
H44	H	-4.691270	-0.401798	-0.804270
H45	H	-4.921833	-0.546051	-0.759658
H46	H	-4.863069	-0.575173	-0.517597
H47	H	-4.573733	-0.460040	-0.320138
H48	H	-4.343169	-0.315787	-0.364750
C49	C	-4.585498	-0.348887	-0.824782
C50	C	-4.809036	-0.349002	-0.916800
C51	C	-4.968178	-0.433420	-0.995362
C52	C	-4.903782	-0.517723	-0.981905
C53	C	-4.680233	-0.517611	-0.889882
C54	C	-4.521091	-0.433193	-0.811320
H55	H	-4.856716	-0.286593	-0.926766
H56	H	-5.133664	-0.433502	-1.063484
H57	H	-5.021588	-0.580214	-1.040061
H58	H	-4.632553	-0.580020	-0.879917
H59	H	-4.355605	-0.433110	-0.743199
C60	C	-4.513115	-0.186620	-0.779625
C61	C	-4.589383	-0.170858	-0.920220
C62	C	-4.676140	-0.093013	-0.953621
C63	C	-4.686628	-0.030928	-0.846428
C64	C	-4.610357	-0.046688	-0.705824
C65	C	-4.523601	-0.124534	-0.672423
H66	H	-4.581621	-0.216818	-0.999579
H67	H	-4.732600	-0.081346	-1.057706
H68	H	-4.750850	0.026698	-0.871154
H69	H	-4.618119	-0.000728	-0.626465
H70	H	-4.467141	-0.136200	-0.568338
H71	H	-4.380930	-0.205656	-0.559997
C72	C	-3.640978	-0.816012	-0.034829
C73	C	-3.722396	-0.867020	0.059535
C74	C	-3.560754	-0.883725	0.182026
C75	C	-3.317693	-0.849424	0.210153
C76	C	-3.236263	-0.798413	0.115787
C77	C	-3.397906	-0.781707	-0.006704
H78	H	-3.902335	-0.892415	0.038715
H79	H	-3.621035	-0.921487	0.251881
H80	H	-3.198036	-0.861790	0.300829
H81	H	-3.056324	-0.773018	0.136607
H82	H	-3.337624	-0.743946	-0.076560
C83	C	-3.686917	-0.679800	-0.273056
C84	C	-3.667880	-0.750982	-0.363656
C85	C	-3.595187	-0.728965	-0.478163
C86	C	-3.541530	-0.635767	-0.502072
C87	C	-3.560566	-0.564578	-0.411469
C88	C	-3.633260	-0.586595	-0.296962
H89	H	-3.707601	-0.819979	-0.345960
H90	H	-3.581095	-0.781664	-0.545233
H91	H	-3.487718	-0.619469	-0.586837
H92	H	-3.520845	-0.495582	-0.429165
H93	H	-3.647351	-0.533896	-0.229892
H94	H	-3.770004	-0.830826	-0.241107
C95	C	-3.934609	-0.812426	0.079916
C96	C	-3.688359	-0.785637	0.117297
C97	C	-3.545703	-0.803661	0.245783
C98	C	-3.649297	-0.848474	0.336889
C99	C	-3.895560	-0.875265	0.299510
C100	C	-4.038216	-0.857241	0.171024
H101	H	-3.611661	-0.752462	0.049853
H102	H	-3.363403	-0.783828	0.273452
H103	H	-3.543695	-0.861816	0.432002
H104	H	-3.972258	-0.908440	0.366954
H105	H	-4.220516	-0.877074	0.143355
H106	H	-4.169556	-0.849756	-0.379615
H107	H	-4.368032	-0.847364	-0.302333
H108	H	-4.305499	-0.702910	-0.302402
H109	H	-3.723657	-0.247449	-0.774493
H110	H	-3.616936	-0.248677	-0.533667
H111	H	-4.108513	-0.705012	-0.380349
H112	H	-3.894289	-0.662172	0.045258
H113	H	-4.176212	-0.675204	-0.046019
H114	H	-4.249993	-0.821211	-0.053235
