data_functionalizedCrystal
_audit_creation_method	'MofGen! by Chris Wilmer'
_symmetry_space_group_name_H-M	'P1'
_symmetry_Int_Tables_number	1
_symmetry_cell_setting	triclinic
loop_
_symmetry_equiv_pos_as_xyz
  x,y,z
_cell_length_a	11.026607
_cell_length_b	8.559649
_cell_length_c	7.681452
_cell_angle_alpha	97.064711
_cell_angle_beta	95.023480
_cell_angle_gamma	89.182341
loop_
_atom_site_label
_atom_site_type_symbol
_atom_site_fract_x
_atom_site_fract_y
_atom_site_fract_z
O1	O	-1.540674	-0.635627	0.146413
O2	O	-1.194282	-0.561425	0.146417
O3	O	-1.397995	-0.374703	0.146413
O4	O	-1.336961	-0.822350	0.146417
O5	O	-1.415503	-0.406706	-0.146445
O6	O	-1.211790	-0.593429	-0.146441
O7	O	-1.558181	-0.667630	-0.146445
Zn8	Zn	-1.387766	-0.635611	-0.192941
Zn9	Zn	-1.364698	-0.593445	0.192913
O10	O	-1.354468	-0.854353	-0.146441
C11	C	-1.411375	-0.332504	-0.000013
C12	C	-1.425142	-0.159083	-0.000003
C13	C	-1.159101	-0.563738	-0.000011
C14	C	-1.028190	-0.522931	-0.000009
C15	C	-1.593362	-0.665317	-0.000013
C16	C	-1.724273	-0.706123	-0.000003
C17	C	-0.943883	-0.635606	-0.000007
C18	C	-0.808579	-0.593432	-0.000005
C19	C	-1.341089	-0.896551	-0.000011
C20	C	-1.327321	-1.069971	-0.000009
N21	N	-1.403517	-0.664389	-0.456275
N22	N	-1.348957	-0.564657	0.456247
H23	H	-0.780592	-0.465732	0.000039
C24	C	-1.478766	-0.801898	-0.557853
H25	H	-1.477066	-0.798748	-0.680813
H26	H	-1.445144	-0.898799	-0.527730
H27	H	-1.560528	-0.792961	-0.527708
C28	C	-1.273687	-0.427157	-0.442168
H29	H	-1.275394	-0.430297	-0.319207
H30	H	-1.191936	-0.436098	-0.472330
H31	H	-1.307311	-0.330243	-0.472278
H32	H	-0.971876	-0.763293	-0.000016
H33	H	-1.233039	-0.126349	-0.000014
C34	C	-1.552522	-0.082935	-0.000015
H35	H	-1.612044	-0.162096	-0.000021
H36	H	-1.555953	-0.008703	0.102101
H37	H	-1.568160	-0.031048	-0.102164
C38	C	-0.762059	-0.878632	-0.000008
H39	H	-0.691619	-0.943853	-0.000019
H40	H	-0.802827	-0.888082	0.102113
H41	H	-0.815030	-0.910394	-0.102152
C42	C	-0.990388	-0.350434	-0.000001
H43	H	-0.904406	-0.344717	0.000014
H44	H	-1.027818	-0.311234	-0.102123
H45	H	-1.015605	-0.288931	0.102142
