data_functionalizedCrystal
_audit_creation_method	'MofGen! by Chris Wilmer'
_symmetry_space_group_name_H-M	'P1'
_symmetry_Int_Tables_number	1
_symmetry_cell_setting	triclinic
loop_
_symmetry_equiv_pos_as_xyz
  x,y,z
_cell_length_a	14.044220
_cell_length_b	15.944499
_cell_length_c	12.503572
_cell_angle_alpha	93.526055
_cell_angle_beta	86.164750
_cell_angle_gamma	88.333243
loop_
_atom_site_label
_atom_site_type_symbol
_atom_site_fract_x
_atom_site_fract_y
_atom_site_fract_z
O1	O	1.263136	0.198064	-0.089192
O2	O	0.987169	0.190755	-0.089219
O3	O	1.132714	0.072698	-0.089207
O4	O	1.117591	0.316121	-0.089205
O5	O	1.121768	0.081593	0.089434
O6	O	0.976224	0.199650	0.089422
O7	O	1.252190	0.206959	0.089449
Cu8	Cu	1.113207	0.204117	0.105747
Cu9	Cu	1.126152	0.193598	-0.105517
O10	O	1.106645	0.325016	0.089436
C11	C	0.946383	0.192004	0.000097
C12	C	0.841159	0.182462	0.000086
C13	C	0.648499	0.165019	0.000108
C14	C	0.590856	0.232691	0.000113
C15	C	0.483653	0.222986	0.000124
C16	C	0.755712	0.174723	0.000096
C17	C	1.126622	0.045804	0.000111
C18	C	1.124767	-0.047583	0.000103
C19	C	1.209324	-0.332787	0.000117
C20	C	1.159972	-0.270668	0.088196
C21	C	1.118022	-0.383724	0.000115
C22	C	1.170739	-0.279445	-0.087930
C23	C	1.121341	-0.218567	0.000107
C24	C	1.068640	-0.322831	0.088266
C25	C	1.079425	-0.331618	-0.087939
C26	C	1.030005	-0.269520	0.000161
C27	C	1.116113	-0.478867	0.000120
C28	C	1.123243	-0.123426	0.000109
C29	C	1.292977	0.205710	0.000130
C30	C	1.398201	0.215252	0.000134
C31	C	1.112737	0.351910	0.000116
C32	C	1.114593	0.445297	0.000118
N33	N	1.104110	0.211515	0.254338
N34	N	1.135257	0.186193	-0.254108
C35	C	1.090726	0.222406	0.473452
C36	C	1.148637	0.175305	0.526784
C37	C	1.141191	0.181365	0.648707
C38	C	1.098172	0.216347	0.351519
H39	H	1.285090	-0.360439	0.000209
H40	H	1.194027	-0.243977	0.162665
H41	H	1.035559	0.267278	0.519355
O42	O	1.227942	-0.253932	-0.186569
H43	H	1.302333	-0.279379	-0.186372
H44	H	0.617339	0.099800	0.000113
H45	H	0.954164	-0.242014	0.000205
O46	O	0.632121	0.319092	0.000092
H47	H	0.711069	0.313257	0.000072
O48	O	1.011489	-0.348198	0.187018
H49	H	1.010570	-0.417816	0.186269
H50	H	1.203809	0.130431	0.480876
H51	H	1.045402	-0.358328	-0.162412
