data_functionalizedCrystal
_audit_creation_method	'MofGen! by Chris Wilmer'
_symmetry_space_group_name_H-M	'P1'
_symmetry_Int_Tables_number	1
_symmetry_cell_setting	triclinic
loop_
_symmetry_equiv_pos_as_xyz
  x,y,z
_cell_length_a	14.044220
_cell_length_b	14.044191
_cell_length_c	12.503572
_cell_angle_alpha	86.162165
_cell_angle_beta	93.843168
_cell_angle_gamma	93.190327
loop_
_atom_site_label
_atom_site_type_symbol
_atom_site_fract_x
_atom_site_fract_y
_atom_site_fract_z
O1	O	0.225145	1.282208	-0.089273
O2	O	0.725145	1.782208	0.410727
O3	O	0.216832	1.005536	-0.089287
O4	O	0.716832	1.505536	0.410713
O5	O	0.082653	1.139719	-0.089269
O6	O	0.582653	1.639719	0.410731
O7	O	0.359324	1.148026	-0.089290
O8	O	0.859324	1.648026	0.410710
O9	O	0.092762	1.129629	0.089371
O10	O	0.592762	1.629629	0.589371
O11	O	0.226941	0.995447	0.089354
O12	O	0.726941	1.495447	0.589354
O13	O	0.235254	1.272118	0.089368
O14	O	0.735254	1.772118	0.589368
Cu15	Cu	0.232021	1.132861	0.105672
Cu16	Cu	0.732021	1.632861	0.605672
Cu17	Cu	0.220065	1.144794	-0.105591
Cu18	Cu	0.720065	1.644794	0.394409
O19	O	0.369433	1.137936	0.089350
O20	O	0.869433	1.637936	0.589350
C21	C	0.218250	0.964870	0.000032
C22	C	0.718250	1.464870	0.500032
C23	C	0.207402	0.858727	0.000027
C24	C	0.707402	1.358727	0.500027
C25	C	0.264503	0.613268	0.000034
C26	C	0.764503	1.113268	0.500034
C27	C	0.187587	0.664393	0.000038
C28	C	0.687587	1.164393	0.500038
C29	C	0.198615	0.772531	0.000032
C30	C	0.698615	1.272531	0.500032
C31	C	0.253477	0.505121	0.000040
C32	C	0.753477	1.005121	0.500040
C33	C	0.052086	1.131038	0.000051
C34	C	0.552086	1.631038	0.500051
C35	C	-0.054057	1.120194	0.000052
C36	C	0.445943	1.620194	0.500052
C37	C	-0.248396	1.100368	0.000036
C38	C	0.251604	1.600368	0.500036
C39	C	-0.299524	1.177283	0.000036
C40	C	0.200476	1.677283	0.500036
C41	C	-0.407661	1.166252	0.000027
C42	C	0.092339	1.666252	0.500027
C43	C	-0.140249	1.111398	0.000045
C44	C	0.359751	1.611398	0.500045
C45	C	0.400000	1.146617	0.000027
C46	C	0.900000	1.646617	0.500027
C47	C	0.506143	1.157462	0.000020
C48	C	1.006143	1.657462	0.500020
C49	C	0.233836	1.312785	0.000046
C50	C	0.733836	1.812785	0.500046
C51	C	0.244683	1.418929	0.000044
C52	C	0.744683	1.918929	0.500044
N53	N	0.240429	1.124476	0.254263
N54	N	0.740429	1.624476	0.754263
N55	N	0.211650	1.153186	-0.254182
N56	N	0.711650	1.653186	0.245818
C57	C	0.252807	1.112141	0.473377
C58	C	0.752807	1.612141	0.973377
C59	C	0.199275	1.165518	0.526711
C60	C	0.699275	1.665518	1.026711
C61	C	0.206162	1.158655	0.648633
C62	C	0.706162	1.658655	1.148633
C63	C	0.245921	1.119003	0.351444
C64	C	0.745921	1.619003	0.851444
H65	H	0.338629	0.650710	0.000025
H66	H	0.838629	1.150710	0.500025
O67	O	0.313672	1.051399	0.527966
O68	O	0.813672	1.551399	1.027966
C69	C	0.362118	1.003132	0.454372
C70	C	0.862118	1.503132	0.954372
H71	H	0.318430	1.003118	0.374172
H72	H	0.818430	1.503118	0.874172
H73	H	0.372136	0.926336	0.486979
H74	H	0.872136	1.426336	0.986979
H75	H	0.434960	1.040911	0.442455
H76	H	0.934960	1.540911	0.942455
O77	O	0.099212	0.619583	-0.000014
O78	O	0.599212	1.119583	0.499986
C79	C	0.107729	0.520023	0.000012
C80	C	0.607729	1.020023	0.500012
H81	H	0.178382	0.504971	-0.033800
H82	H	0.678382	1.004971	0.466200
H83	H	0.046049	0.487528	-0.051860
H84	H	0.546049	0.987528	0.448140
H85	H	0.105641	0.487065	0.085714
H86	H	0.605641	0.987065	0.585714
O87	O	0.138200	1.225954	0.471947
O88	O	0.638200	1.725954	0.971947
C89	C	0.071413	1.173188	0.407079
C90	C	0.571413	1.673188	0.907079
H91	H	0.102425	1.102786	0.390260
H92	H	0.602425	1.602786	0.890260
H93	H	0.054963	1.216094	0.327984
H94	H	0.554963	1.716094	0.827984
H95	H	0.002849	1.158018	0.450535
H96	H	0.502849	1.658018	0.950535
O97	O	-0.254710	1.265653	0.000099
O98	O	0.245290	1.765653	0.500099
C99	C	-0.155153	1.257142	0.000080
C100	C	0.344847	1.757142	0.500080
H101	H	-0.136280	1.182668	0.033890
H102	H	0.363720	1.682668	0.533890
H103	H	-0.116802	1.312960	0.051957
H104	H	0.383198	1.812960	0.551957
H105	H	-0.131871	1.268916	-0.085619
H106	H	0.368129	1.768916	0.414381
H107	H	-0.285835	1.026241	0.000029
H108	H	0.214165	1.526241	0.500029
