data_functionalizedCrystal
_audit_creation_method	'MofGen! by Chris Wilmer'
_symmetry_space_group_name_H-M	'P1'
_symmetry_Int_Tables_number	1
_symmetry_cell_setting	triclinic
loop_
_symmetry_equiv_pos_as_xyz
  x,y,z
_cell_length_a	14.044220
_cell_length_b	14.044220
_cell_length_c	13.101018
_cell_angle_alpha	86.320065
_cell_angle_beta	86.337807
_cell_angle_gamma	86.811123
loop_
_atom_site_label
_atom_site_type_symbol
_atom_site_fract_x
_atom_site_fract_y
_atom_site_fract_z
O1	O	1.272353	-0.234994	0.085219
O2	O	1.772353	0.265006	0.585219
O3	O	0.995682	-0.226689	0.085221
O4	O	1.495682	0.273311	0.585221
O5	O	1.129865	-0.092505	0.085210
O6	O	1.629865	0.407495	0.585210
O7	O	1.138170	-0.369178	0.085230
O8	O	1.638170	0.130822	0.585230
O9	O	1.139481	-0.082847	-0.085221
O10	O	1.639481	0.417153	0.414779
O11	O	1.005298	-0.217030	-0.085210
O12	O	1.505298	0.282970	0.414790
O13	O	1.281969	-0.225336	-0.085212
O14	O	1.781969	0.274664	0.414788
Zn15	Zn	1.145160	-0.219649	-0.112271
Zn16	Zn	1.645160	0.280351	0.387729
Zn17	Zn	1.132491	-0.232375	0.112279
Zn18	Zn	1.632491	0.267625	0.612279
O19	O	1.147786	-0.359519	-0.085201
O20	O	1.647786	0.140481	0.414799
C21	C	0.964868	-0.218224	0.000006
C22	C	1.464868	0.281776	0.500006
C23	C	0.858725	-0.207379	0.000006
C24	C	1.358725	0.292621	0.500006
C25	C	1.312783	-0.233801	0.000005
C26	C	1.812783	0.266199	0.500005
C27	C	1.418925	-0.244646	0.000011
C28	C	1.918925	0.255354	0.500011
C29	C	1.131038	-0.052054	-0.000006
C30	C	1.631038	0.447946	0.499994
C31	C	1.120193	0.054089	-0.000007
C32	C	1.620193	0.554089	0.499993
C33	C	1.613263	-0.264472	0.000012
C34	C	2.113263	0.235528	0.500012
C35	C	1.664393	-0.187557	0.000006
C36	C	2.164393	0.312443	0.500006
C37	C	1.772529	-0.198589	0.000006
C38	C	2.272529	0.301411	0.500006
C39	C	1.505117	-0.253442	0.000012
C40	C	2.005117	0.246558	0.500012
C41	C	1.146613	-0.399970	0.000017
C42	C	1.646613	0.100030	0.500017
C43	C	1.157457	-0.506114	0.000025
C44	C	1.657457	-0.006114	0.500025
N45	N	1.153814	-0.210965	-0.265521
N46	N	1.653814	0.289035	0.234479
C47	C	1.100366	0.248426	0.000008
C48	C	1.600366	0.748426	0.500008
C49	C	1.177280	0.299555	0.000010
C50	C	1.677280	0.799555	0.500010
C51	C	1.166248	0.407691	0.000018
C52	C	1.666248	0.907691	0.500018
C53	C	1.111397	0.140280	-0.000001
C54	C	1.611397	0.640280	0.499999
N55	N	1.123844	-0.241053	0.265529
N56	N	1.623844	0.258947	0.765529
C57	C	1.165582	-0.199163	0.525435
C58	C	1.665582	0.300837	1.025435
C59	C	1.112079	-0.252851	0.474567
C60	C	1.612079	0.247149	0.974567
C61	C	1.118627	-0.246285	0.358247
C62	C	1.618627	0.253715	0.858247
C63	C	1.159035	-0.205729	0.641765
C64	C	1.659035	0.294271	1.141765
H65	H	1.650700	-0.338600	0.000018
H66	H	2.150700	0.161400	0.500018
N67	N	1.275485	0.249979	-0.000013
N68	N	1.775485	0.749979	0.499987
H69	H	1.307792	0.265447	0.063162
H70	H	1.807792	0.765447	0.563162
H71	H	1.269477	0.178654	-0.000062
H72	H	1.769477	0.678654	0.499938
H73	H	1.626950	-0.113428	0.000075
H74	H	2.126950	0.386572	0.500075
N75	N	1.002172	0.298008	0.000010
N76	N	1.502172	0.798008	0.500010
H77	H	1.008112	0.369347	0.000012
H78	H	1.508112	0.869347	0.500012
H79	H	0.969930	0.282465	-0.063176
H80	H	1.469930	0.782465	0.436824
N81	N	1.044887	-0.320269	0.532586
N82	N	1.544887	0.179731	1.032586
H83	H	1.049670	-0.315463	0.608661
H84	H	1.549670	0.184537	1.108661
H85	H	0.977240	-0.302560	0.513896
H86	H	1.477240	0.197440	1.013896
N87	N	1.232769	-0.131750	0.467417
N88	N	1.732769	0.368250	0.967417
H89	H	1.227978	-0.136557	0.391343
H90	H	1.727978	0.363443	0.891343
H91	H	1.214847	-0.064145	0.486089
H92	H	1.714847	0.435855	0.986089
