data_functionalizedCrystal
_audit_creation_method	'MofGen! by Chris Wilmer'
_symmetry_space_group_name_H-M	'P1'
_symmetry_Int_Tables_number	1
_symmetry_cell_setting	triclinic
loop_
_symmetry_equiv_pos_as_xyz
  x,y,z
_cell_length_a	8.559649
_cell_length_b	8.559649
_cell_length_c	7.088929
_cell_angle_alpha	95.325015
_cell_angle_beta	84.655815
_cell_angle_gamma	69.778664
loop_
_atom_site_label
_atom_site_type_symbol
_atom_site_fract_x
_atom_site_fract_y
_atom_site_fract_z
O1	O	-0.036318	2.108185	-0.158958
O2	O	0.047464	1.632699	-0.158965
O3	O	-0.232170	1.912333	-0.158959
O4	O	0.243315	1.828551	-0.158964
O5	O	-0.269616	1.949712	0.159017
O6	O	0.010018	1.670079	0.159011
O7	O	-0.073764	2.145564	0.159018
Cu8	Cu	-0.035292	1.911235	0.188048
Cu9	Cu	0.008992	1.867029	-0.187995
O10	O	0.205870	1.865931	0.159012
C11	C	0.035090	1.591080	0.000022
C12	C	0.053990	1.411380	0.000019
C13	C	-0.311201	1.937372	0.000026
C14	C	-0.490899	1.956269	0.000015
C15	C	0.284902	1.840892	0.000023
C16	C	0.464601	1.821992	0.000021
C17	C	-0.061390	2.187183	0.000027
C18	C	-0.080288	2.366881	0.000017
N19	N	-0.066441	1.942338	0.452537
N20	N	0.040127	1.835940	-0.452484
H21	H	-0.209706	1.466259	0.000009
H22	H	0.183419	1.311991	0.000007
H23	H	-0.436021	1.692573	0.000025
Br24	Br	-0.656545	2.172001	0.000053
Br25	Br	0.224203	1.652147	0.411434
Br26	Br	-0.250503	2.126162	0.588626
