data_functionalizedCrystal
_audit_creation_method	'MofGen! by Chris Wilmer'
_symmetry_space_group_name_H-M	'P1'
_symmetry_Int_Tables_number	1
_symmetry_cell_setting	triclinic
loop_
_symmetry_equiv_pos_as_xyz
  x,y,z
_cell_length_a	15.298206
_cell_length_b	15.298853
_cell_length_c	12.759393
_cell_angle_alpha	80.294511
_cell_angle_beta	99.668792
_cell_angle_gamma	72.672311
loop_
_atom_site_label
_atom_site_type_symbol
_atom_site_fract_x
_atom_site_fract_y
_atom_site_fract_z
Zn1	Zn	1.485679	-0.615938	-0.170017
Zn2	Zn	1.512501	-0.771458	0.042404
Zn3	Zn	1.330185	-0.589104	-0.031149
Zn4	Zn	1.357070	-0.744518	-0.170040
O5	O	1.421359	-0.680255	-0.082201
O6	O	1.619360	-0.659074	-0.111047
O7	O	1.488290	-0.747313	0.179671
O8	O	1.328335	-0.462536	-0.080343
O9	O	1.639066	-0.773333	0.045017
O10	O	1.442576	-0.482252	-0.182369
O11	O	1.354344	-0.613338	0.125632
O12	O	1.203629	-0.587214	-0.080365
O13	O	1.374157	-0.727417	-0.317061
O14	O	1.223381	-0.701397	-0.182407
O15	O	1.468645	-0.632950	-0.317045
O16	O	1.514360	-0.898012	0.044995
O17	O	1.400165	-0.878219	-0.111086
C18	C	1.179765	-0.638471	-0.139370
C19	C	1.076414	-0.620618	-0.163847
C20	C	1.017623	-0.552834	-0.256689
C21	C	0.920518	-0.536051	-0.279691
C22	C	0.882196	-0.587057	-0.209859
C23	C	0.940989	-0.654847	-0.117019
C24	C	1.038103	-0.671626	-0.094010
C25	C	0.902676	-0.705849	-0.047179
C26	C	0.961469	-0.773639	0.045660
C27	C	1.058573	-0.790415	0.068665
C28	C	1.096894	-0.739410	-0.001168
C29	C	0.805563	-0.689070	-0.070188
C30	C	0.826042	-0.807862	0.092491
C31	C	0.923147	-0.824644	0.115493
C32	C	1.463116	-0.921860	-0.025083
C33	C	1.481064	-1.025235	-0.000663
C34	C	1.548995	-1.084079	0.092025
C35	C	1.565867	-1.181206	0.114966
C36	C	1.514804	-1.219497	0.045227
C37	C	1.446867	-1.160652	-0.047459
C38	C	1.429999	-1.063516	-0.070407
C39	C	1.395808	-1.198935	-0.117205
C40	C	1.327872	-1.140090	-0.209890
C41	C	1.311006	-1.042964	-0.232834
C42	C	1.362069	-1.004672	-0.163095
C43	C	1.412677	-1.296070	-0.094256
C44	C	1.293681	-1.275508	-0.256688
C45	C	1.276809	-1.178381	-0.279630
C46	C	1.663896	-0.722202	-0.024808
C47	C	1.767251	-0.740078	-0.000351
C48	C	1.421408	-0.680172	-0.356241
C49	C	1.421429	-0.680137	-0.473020
C50	C	1.379464	-0.437710	-0.139558
C51	C	1.361612	-0.334352	-0.164000
C52	C	1.470636	-0.630944	-0.527875
C53	C	1.470652	-0.630914	-0.637602
C54	C	1.372253	-0.729278	-0.637609
C55	C	1.372231	-0.729302	-0.527886
C56	C	1.519833	-0.581779	-0.473009
C57	C	1.569045	-0.532583	-0.527864
C58	C	1.569061	-0.532553	-0.637591
C59	C	1.519865	-0.581719	-0.692463
C60	C	1.421352	-0.680279	0.190770
C61	C	1.421466	-0.680083	0.307530
H62	H	1.106439	-0.845607	0.144268
H63	H	1.252104	-1.306684	-0.313478
O64	O	1.616706	-0.484671	-0.474671
C65	C	1.580396	-0.388473	-0.528231
H66	H	1.505304	-0.370922	-0.577078
H67	H	1.626060	-0.372774	-0.585878
C68	C	1.672715	-0.349865	-0.382887
C69	C	1.580482	-0.328307	-0.442874
H70	H	1.672771	-0.312750	-0.330236
H71	H	1.697181	-0.414675	-0.346803
H72	H	1.710758	-0.336782	-0.430937
H73	H	1.542444	-0.341401	-0.394826
H74	H	1.556010	-0.263497	-0.478948
H75	H	1.467992	-1.343973	-0.018792
H76	H	1.609124	-0.492487	-0.682253
O77	O	1.245082	-0.985673	-0.322852
C78	C	1.241128	-0.891731	-0.328137
H79	H	1.310593	-0.890835	-0.279950
H80	H	1.181227	-0.854722	-0.291676
C81	C	1.138571	-0.841418	-0.507438
C82	C	1.223893	-0.840318	-0.448262
H83	H	1.127935	-0.809701	-0.581537
H84	H	1.141231	-0.904707	-0.503877
H85	H	1.088664	-0.810578	-0.477042
H86	H	1.273799	-0.871167	-0.478650
H87	H	1.221240	-0.777032	-0.451832
H88	H	1.528545	-1.298583	0.063912
O89	O	0.980374	-0.890553	0.205567
C90	C	1.046953	-0.960397	0.173386
H91	H	1.055875	-0.930202	0.089423
H92	H	1.021455	-1.022861	0.169407
C93	C	1.131115	-1.030188	0.360152
C94	C	1.142079	-0.993099	0.257031
H95	H	1.189792	-1.050364	0.411750
H96	H	1.086257	-0.983135	0.381835
H97	H	1.109864	-1.082236	0.356822
H98	H	1.163318	-0.941045	0.260360
H99	H	1.186943	-1.040144	0.235352
O100	O	0.788977	-0.857470	0.160472
C101	C	0.861693	-0.920911	0.247337
H102	H	0.924327	-0.894778	0.258301
H103	H	0.884259	-0.993366	0.228156
C104	C	0.749103	-0.959734	0.339861
C105	C	0.826029	-0.927633	0.353332
H106	H	0.727104	-0.963884	0.405243
H107	H	0.700113	-0.916995	0.281337
H108	H	0.767919	-1.020110	0.323874
H109	H	0.807209	-0.867253	0.369305
H110	H	0.875015	-0.970361	0.411862
H111	H	1.621181	-1.229111	0.190431
O112	O	1.210700	-1.121237	-0.369579
C113	C	1.122174	-1.129062	-0.362856
H114	H	1.122157	-1.155017	-0.273702
H115	H	1.107632	-1.181218	-0.411607
C116	C	1.045160	-1.000214	-0.519592
C117	C	1.045137	-1.032086	-0.410090
H118	H	0.997639	-0.940397	-0.548732
H119	H	1.104802	-0.994944	-0.524124
H120	H	1.033045	-1.043686	-0.560203
H121	H	1.057264	-0.988621	-0.369478
H122	H	0.985495	-1.037346	-0.405551
O123	O	1.520013	-0.581629	-0.799038
C124	C	1.573971	-0.527644	-0.835701
H125	H	1.626037	-0.524030	-0.762695
H126	H	1.525393	-0.453458	-0.879939
C127	C	1.564255	-0.578207	-1.004279
C128	C	1.628208	-0.573775	-0.914612
H129	H	1.597708	-0.606660	-1.052959
H130	H	1.527899	-0.614576	-0.979581
H131	H	1.523778	-0.516382	-1.041130
H132	H	1.668676	-0.635600	-0.877755
H133	H	1.664573	-0.537418	-0.939306
O134	O	1.191251	-0.755866	0.021306
C135	C	1.234926	-0.826616	0.118238
H136	H	1.188342	-0.871252	0.132646
H137	H	1.245747	-0.792635	0.190112
C138	C	1.388159	-0.834683	0.089872
C139	C	1.330947	-0.889511	0.107564
H140	H	1.447391	-0.873478	0.083291
H141	H	1.358735	-0.787015	0.024569
H142	H	1.397166	-0.806369	0.149771
H143	H	1.321932	-0.917815	0.047660
H144	H	1.360372	-0.937186	0.172856
H145	H	0.757702	-0.633872	-0.145778
H146	H	0.803128	-0.573385	-0.228590
H147	H	1.048833	-0.511308	-0.313533
H148	H	1.332146	-0.769342	-0.483229
H149	H	0.872656	-0.480857	-0.355282
H150	H	1.590569	-1.052895	0.148794
H151	H	1.348335	-0.925584	-0.181769
H152	H	1.519828	-0.581800	-0.383663
H153	H	1.332199	-0.769306	-0.682295
