data_functionalizedCrystal
_audit_creation_method	'MofGen! by Chris Wilmer'
_symmetry_space_group_name_H-M	'P1'
_symmetry_Int_Tables_number	1
_symmetry_cell_setting	triclinic
loop_
_symmetry_equiv_pos_as_xyz
  x,y,z
_cell_length_a	20.919309
_cell_length_b	12.970454
_cell_length_c	12.970454
_cell_angle_alpha	60.000396
_cell_angle_beta	89.998754
_cell_angle_gamma	57.441235
loop_
_atom_site_label
_atom_site_type_symbol
_atom_site_fract_x
_atom_site_fract_y
_atom_site_fract_z
Zr1	Zr	0.641767	1.047955	-0.095030
O2	O	0.535397	1.276395	-0.266325
O3	O	0.674375	0.828773	-0.042521
O4	O	0.674376	1.043861	-0.257609
O5	O	0.535395	1.061308	0.118429
O6	O	0.784006	1.030100	-0.250731
O7	O	0.535396	1.061307	-0.051237
O8	O	0.784003	0.645347	0.134021
O9	O	0.535398	1.446061	-0.266324
O10	O	0.770097	0.905227	-0.014992
O11	O	0.688282	0.915498	0.106496
O12	O	0.688283	1.168736	-0.146742
O13	O	0.606467	1.179006	-0.025255
Zr14	Zr	0.816612	1.026009	0.186536
Zr15	Zr	0.816614	1.026008	-0.084062
Zr16	Zr	0.641766	1.047956	0.175568
Zr17	Zr	0.641768	1.318552	-0.095028
Zr18	Zr	0.816612	0.755412	0.186534
O19	O	0.784005	1.245191	0.134027
O20	O	0.784006	1.245189	-0.250729
O21	O	0.535395	1.276397	0.118431
O22	O	0.922982	0.797570	0.357831
O23	O	0.922984	0.797567	-0.026925
O24	O	0.674373	0.828775	0.342235
O25	O	0.922985	1.012656	-0.026923
O26	O	0.784003	1.030103	0.349114
O27	O	0.674374	1.043864	0.342237
O28	O	0.922984	1.012657	0.142743
O29	O	0.674377	1.428616	-0.257605
O30	O	0.784002	0.645349	0.349111
O31	O	0.922982	0.627904	0.357830
O32	O	0.922983	0.627902	0.142740
O33	O	0.535397	1.446062	-0.051234
O34	O	0.674376	1.428617	-0.042516
O35	O	0.770096	0.905229	0.238248
O36	O	0.851912	0.894958	0.116761
O37	O	0.770098	1.158467	-0.014990
O38	O	0.688282	1.168737	0.106498
C39	C	0.729189	0.698506	0.045750
C40	C	0.729189	0.583630	0.045749
C41	C	0.510483	1.064435	0.032033
C42	C	0.436256	1.073752	0.027377
C43	C	0.444088	0.940584	0.093955
C44	C	0.374342	0.949347	0.089577
C45	C	0.296763	1.091280	0.018612
C46	C	0.288933	1.224458	-0.047968
C47	C	0.358679	1.215693	-0.043581
C48	C	0.084039	1.124626	0.001935
C49	C	0.014291	1.133381	-0.002449
C50	C	0.099705	0.858269	0.135098
C51	C	0.169448	0.849516	0.139472
C52	C	0.161612	0.982694	0.072897
C53	C	0.225470	1.100241	0.014132
C54	C	0.232905	0.973732	0.077385
C55	C	0.947896	1.009530	0.059473
C56	C	1.022123	1.000213	0.064129
C57	C	0.729191	1.036980	-0.292724
C58	C	0.729192	1.036979	-0.407601
C59	C	0.729191	1.375458	0.045756
C60	C	0.729191	1.490334	0.045757
C61	C	0.729188	1.036984	0.384230
C62	C	0.729188	1.036985	0.499106
C63	C	0.947895	0.671053	0.059470
C64	C	1.022122	0.546861	0.064125
C65	C	0.729187	0.698508	0.384227
C66	C	0.729187	0.583633	0.499103
C67	C	0.947894	0.671055	0.397947
C68	C	1.022120	0.546863	0.517479
C69	C	0.510486	1.402909	-0.306441
C70	C	0.436260	1.527101	-0.425973
C71	C	0.510484	1.402911	0.032036
C72	C	0.436258	1.527104	0.027381
C73	C	0.729192	1.375456	-0.292722
C74	C	0.729193	1.490331	-0.407597
C75	C	1.014273	0.493899	-0.002473
C76	C	1.084010	0.377222	0.001875
C77	C	1.161596	0.313502	0.072830
C78	C	1.169443	0.366475	0.139431
C79	C	1.099706	0.483157	0.135074
C80	C	1.099692	0.483179	0.510197
C81	C	1.169442	0.366502	0.622500
C82	C	1.161618	0.313503	0.742083
C83	C	1.084038	0.377199	0.749361
C84	C	1.014290	0.493881	0.637060
C85	C	0.358688	1.590798	-0.418691
C86	C	0.288938	1.707509	-0.530994
C87	C	0.296761	1.760514	-0.650577
C88	C	0.374341	1.696811	-0.657856
C89	C	0.444089	1.580110	-0.545554
C90	C	0.444106	1.580077	0.093968
C91	C	0.374369	1.696783	0.089590
C92	C	0.296784	1.760507	0.018631
C93	C	0.288937	1.707529	-0.047965
C94	C	0.358673	1.590832	-0.043593
H95	H	0.507253	0.825007	0.151747
H96	H	0.507250	1.528248	-0.551498
H97	H	1.077605	0.334107	-0.052360
F98	F	1.108037	0.539570	0.382939
H99	H	0.240007	1.855528	0.015082
H100	H	1.232622	0.314577	0.197201
H101	H	1.218418	0.218491	0.833516
F102	F	1.108072	0.539503	0.205970
H103	H	1.077680	0.334030	0.846741
F104	F	0.350341	1.357429	-0.114439
H105	H	1.232604	0.314652	0.616551
F106	F	1.235809	0.189317	0.077457
H107	H	0.380702	1.739983	-0.755233
H108	H	-0.048878	1.248965	-0.060242
H109	H	0.951130	0.545719	0.643007
H110	H	0.225776	1.759357	-0.525042
H111	H	0.507274	1.528202	0.151759
F112	F	0.350343	1.534406	-0.291433
F113	F	0.382738	1.753140	0.160478
F114	F	0.206358	1.775361	-0.123477
F115	F	0.222521	1.884719	-0.770089
H116	H	0.352271	1.547706	-0.097814
H117	H	0.380726	0.840908	0.143794
H118	H	0.232612	0.733940	0.197234
F119	F	0.142901	1.251292	-0.061391
F120	F	0.931708	0.561697	-0.078002
H121	H	0.106075	0.749843	0.189300
H122	H	0.077647	1.233068	-0.052297
H123	H	0.225763	1.340023	-0.105741
H124	H	0.296071	0.858171	0.135170
