data_functionalizedCrystal
_audit_creation_method	'MofGen! by Chris Wilmer'
_symmetry_space_group_name_H-M	'P1'
_symmetry_Int_Tables_number	1
_symmetry_cell_setting	triclinic
loop_
_symmetry_equiv_pos_as_xyz
  x,y,z
_cell_length_a	17.699083
_cell_length_b	11.792241
_cell_length_c	16.176319
_cell_angle_alpha	89.993071
_cell_angle_beta	89.998611
_cell_angle_gamma	83.738215
loop_
_atom_site_label
_atom_site_type_symbol
_atom_site_fract_x
_atom_site_fract_y
_atom_site_fract_z
O1	O	1.004844	0.143527	-0.068631
O2	O	0.784565	0.162200	-0.068658
O3	O	0.900050	-0.012371	-0.068638
O4	O	0.889359	0.318098	-0.068651
O5	O	0.900034	-0.012382	0.068855
O6	O	0.784549	0.162189	0.068835
O7	O	1.004828	0.143516	0.068862
Cu8	Cu	0.894687	0.152851	0.081403
Cu9	Cu	0.894706	0.152865	-0.081199
O10	O	0.889343	0.318087	0.068842
C11	C	0.756356	0.161525	0.000085
C12	C	0.672328	0.159518	0.000075
C13	C	0.624253	0.261988	0.000071
C14	C	0.545299	0.260095	0.000082
C15	C	0.514422	0.155731	0.000091
C16	C	0.562503	0.053254	0.000097
C17	C	0.641455	0.055148	0.000092
C18	C	0.244099	0.045613	0.000118
C19	C	0.165141	0.043727	0.000120
C20	C	0.147944	0.250560	0.000108
C21	C	0.226896	0.252454	0.000103
C22	C	0.274970	0.149977	0.000113
C23	C	0.360580	0.152031	0.000103
C24	C	0.428814	0.153676	0.000095
C25	C	0.899370	-0.054660	0.000108
C26	C	0.897360	-0.180649	0.000107
C27	C	0.893664	-0.411317	0.000093
C28	C	0.895718	-0.282956	0.000101
C29	C	1.033036	0.144190	0.000117
C30	C	1.117065	0.146198	0.000122
C31	C	0.890022	0.360375	0.000094
C32	C	0.892032	0.486365	0.000090
N33	N	0.894679	0.152841	0.195768
N34	N	0.894720	0.152865	-0.195564
C35	C	0.945831	0.075573	0.239041
C36	C	0.945835	0.075572	0.325588
C37	C	0.894690	0.152845	0.368861
C38	C	0.843532	0.230118	0.325582
C39	C	0.843525	0.230113	0.239036
C40	C	0.843558	0.230139	0.674610
C41	C	0.843570	0.230140	0.761161
C42	C	0.945868	0.075598	0.761162
C43	C	0.945861	0.075593	0.674617
C44	C	0.894701	0.152861	0.631345
C45	C	0.894697	0.152860	0.537501
C46	C	0.894697	0.152853	0.462703
H47	H	0.252031	0.337438	0.000092
O48	O	1.000985	-0.007782	0.192363
H49	H	1.060048	0.006549	0.208961
O50	O	1.001020	-0.007747	0.372265
H51	H	1.036594	-0.061464	0.327635
O52	O	0.131840	-0.068846	0.000137
H53	H	0.068864	-0.052942	0.000129
H54	H	0.801871	0.293031	0.203804
H55	H	0.801884	0.293032	0.360819
H56	H	0.283232	-0.037830	0.000127
O57	O	0.493444	0.370614	0.000078
H58	H	0.528179	0.443502	0.000062
H59	H	0.680598	-0.028294	0.000095
O60	O	0.096089	0.361092	0.000115
H61	H	0.059696	0.365181	-0.055916
O62	O	0.657555	0.374552	0.000070
H63	H	0.610858	0.445487	0.000080
O64	O	0.529206	-0.059315	0.000109
H65	H	0.466229	-0.043419	0.000104
H66	H	0.987523	0.012679	0.796403
O67	O	1.001020	-0.007757	0.627942
H68	H	1.036586	-0.061498	0.672573
O69	O	0.788416	0.313506	0.807839
H70	H	0.752839	0.367236	0.763211
O71	O	0.788388	0.313483	0.627942
H72	H	0.752833	0.367225	0.672575
