data_functionalizedCrystal
_audit_creation_method	'MofGen! by Chris Wilmer'
_symmetry_space_group_name_H-M	'P1'
_symmetry_Int_Tables_number	1
_symmetry_cell_setting	triclinic
loop_
_symmetry_equiv_pos_as_xyz
  x,y,z
_cell_length_a	19.805407
_cell_length_b	17.640280
_cell_length_c	19.805399
_cell_angle_alpha	78.776890
_cell_angle_beta	89.980427
_cell_angle_gamma	78.800112
loop_
_atom_site_label
_atom_site_type_symbol
_atom_site_fract_x
_atom_site_fract_y
_atom_site_fract_z
Zn1	Zn	1.089281	-0.314680	-0.328317
Zn2	Zn	1.589281	0.185320	0.171683
Zn3	Zn	1.112106	-0.446853	-0.192279
Zn4	Zn	1.612106	0.053147	0.307721
Zn5	Zn	0.976099	-0.314701	-0.215138
Zn6	Zn	1.476099	0.185299	0.284862
Zn7	Zn	0.998962	-0.446811	-0.305433
Zn8	Zn	1.498962	0.053189	0.194567
O9	O	1.044112	-0.380761	-0.260292
O10	O	1.544112	0.119239	0.239708
O11	O	1.187026	-0.332221	-0.310282
O12	O	1.687026	0.167779	0.189718
O13	O	1.094048	-0.429350	-0.100590
O14	O	1.594048	0.070650	0.399410
O15	O	0.971992	-0.204095	-0.249296
O16	O	1.471992	0.295905	0.250704
O17	O	1.203796	-0.429329	-0.210335
O18	O	1.703796	0.070671	0.289665
O19	O	1.055146	-0.204079	-0.332448
O20	O	1.555146	0.295921	0.167552
O21	O	0.994125	-0.332258	-0.117385
O22	O	1.494125	0.167742	0.382615
O23	O	0.884414	-0.332218	-0.227105
O24	O	1.384414	0.167782	0.272895
O25	O	1.010958	-0.429257	-0.403190
O26	O	1.510958	0.070743	0.096810
O27	O	0.901211	-0.429278	-0.293444
O28	O	1.401211	0.070722	0.206556
O29	O	1.077315	-0.332180	-0.420003
O30	O	1.577315	0.167820	0.079997
O31	O	1.116217	-0.557452	-0.188145
O32	O	1.616217	-0.057452	0.311855
O33	O	1.033091	-0.557421	-0.271278
O34	O	1.533091	-0.057421	0.228722
C35	C	0.868253	-0.380746	-0.260272
C36	C	1.368253	0.119254	0.239728
C37	C	0.793023	-0.380759	-0.260277
C38	C	1.293023	0.119241	0.239723
C39	C	1.079630	-0.586114	-0.224762
C40	C	1.579630	-0.086114	0.275238
C41	C	1.094887	-0.673965	-0.209586
C42	C	1.594887	-0.173965	0.290414
C43	C	0.766456	-0.431374	-0.294736
C44	C	1.266456	0.068626	0.205264
C45	C	0.695768	-0.431376	-0.294746
C46	C	1.195768	0.068624	0.205254
C47	C	0.651649	-0.380765	-0.260291
C48	C	1.151649	0.119235	0.239709
C49	C	0.678220	-0.330144	-0.225831
C50	C	1.178220	0.169856	0.274169
C51	C	0.748906	-0.330139	-0.225826
C52	C	1.248906	0.169861	0.274174
C53	C	0.393149	-0.330161	-0.225850
C54	C	0.893149	0.169839	0.274150
C55	C	0.322459	-0.330172	-0.225856
C56	C	0.822459	0.169828	0.274144
C57	C	0.340012	-0.431398	-0.294770
C58	C	0.840012	0.068602	0.205230
C59	C	0.410698	-0.431393	-0.294765
C60	C	0.910698	0.068607	0.205235
C61	C	0.437262	-0.380770	-0.260308
C62	C	0.937262	0.119230	0.239692
C63	C	0.513910	-0.380768	-0.260299
C64	C	1.013910	0.119232	0.239701
C65	C	0.575003	-0.380770	-0.260295
C66	C	1.075003	0.119230	0.239705
C67	C	0.928484	-0.962953	-0.375835
C68	C	1.428484	-0.462953	0.124165
C69	C	0.942822	-1.045502	-0.361553
C70	C	1.442822	-0.545502	0.138447
C71	C	1.029435	-1.045469	-0.275073
C72	C	1.529435	-0.545469	0.224927
C73	C	1.015107	-0.962918	-0.289351
C74	C	1.515107	-0.462918	0.210649
C75	C	0.964630	-0.921667	-0.339732
C76	C	1.464630	-0.421667	0.160268
C77	C	1.051253	-0.921632	-0.253247
C78	C	1.551253	-0.421632	0.246753
C79	C	1.036924	-0.839088	-0.267522
C80	C	1.536924	-0.339088	0.232478
C81	C	0.986448	-0.797831	-0.317899
C82	C	1.486448	-0.297831	0.182101
C83	C	0.950301	-0.839123	-0.354006
C84	C	1.450301	-0.339123	0.145994
C85	C	1.101726	-0.962885	-0.202863
C86	C	1.601726	-0.462885	0.297137
C87	C	1.137872	-0.921598	-0.166760
C88	C	1.637872	-0.421598	0.333240
C89	C	1.123546	-0.839053	-0.181037
C90	C	1.623546	-0.339053	0.318963
C91	C	1.073071	-0.797796	-0.231415
C92	C	1.573071	-0.297796	0.268585
C93	C	1.159693	-0.797761	-0.144930
C94	C	1.659693	-0.297761	0.355070
C95	C	1.145364	-0.715217	-0.159204
C96	C	1.645364	-0.215217	0.340796
C97	C	1.058741	-0.715252	-0.245689
C98	C	1.558741	-0.215252	0.254311
C99	C	1.220657	-0.380777	-0.260311
C100	C	1.720657	0.119223	0.239689
C101	C	1.295890	-0.380784	-0.260320
C102	C	1.795890	0.119216	0.239680
C103	C	1.044141	-0.380712	-0.436843
C104	C	1.544141	0.119288	0.063157
C105	C	1.044154	-0.380690	-0.512079
C106	C	1.544154	0.119310	-0.012079
C107	C	1.008473	-0.174606	-0.295974
C108	C	1.508473	0.325394	0.204026
C109	C	0.993286	-0.086756	-0.311180
C110	C	1.493286	0.413244	0.188820
C111	C	1.078706	-0.330140	-0.556179
C112	C	1.578706	0.169860	-0.056179
C113	C	1.078709	-0.330117	-0.626872
C114	C	1.578709	0.169883	-0.126872
C115	C	1.044163	-0.380649	-0.653462
C116	C	1.544163	0.119351	-0.153462
C117	C	1.009606	-0.431202	-0.609356
C118	C	1.509606	0.068798	-0.109356
C119	C	1.009600	-0.431220	-0.538666
C120	C	1.509600	0.068780	-0.038666
C121	C	1.009632	-0.431128	-0.894442
C122	C	1.509632	0.068872	-0.394442
C123	C	1.009643	-0.431107	-0.965138
C124	C	1.509643	0.068893	-0.465138
C125	C	1.078741	-0.330025	-0.982648
C126	C	1.578741	0.169975	-0.482648
C127	C	1.078735	-0.330043	-0.911958
C128	C	1.578735	0.169957	-0.411958
C129	C	1.044175	-0.380593	-0.867859
C130	C	1.544175	0.119407	-0.367859
C131	C	1.044171	-0.380616	-0.791206
C132	C	1.544171	0.119384	-0.291206
C133	C	1.044171	-0.380631	-0.730112
C134	C	1.544171	0.119369	-0.230112
C135	C	1.044112	-0.380754	-0.084437
C136	C	1.544112	0.119246	0.415563
C137	C	1.044192	-0.380553	-0.009240
C138	C	1.544192	0.119447	0.490760
H139	H	0.674141	-0.472593	-0.322805
H140	H	1.174141	0.027407	0.177195
H141	H	1.106847	-0.288956	-0.662776
H142	H	1.606847	0.211044	-0.162776
H143	H	1.017643	-0.681663	-0.286719
H144	H	1.517643	-0.181663	0.213281
C145	C	1.147032	-0.230115	-0.936370
C146	C	1.647032	0.269885	-0.436370
C147	C	1.116705	-0.274494	-0.882732
C148	C	1.616705	0.225506	-0.382732
H149	H	1.170468	-0.195816	-0.918327
H150	H	1.670468	0.304184	-0.418327
H151	H	1.178879	-0.264545	-0.957983
H152	H	1.678879	0.235455	-0.457983
H153	H	1.112310	-0.199876	-0.969172
H154	H	1.612310	0.300124	-0.469172
H155	H	1.151428	-0.304738	-0.849932
H156	H	1.651428	0.195262	-0.349932
H157	H	1.084855	-0.240060	-0.861108
H158	H	1.584855	0.259940	-0.361108
C159	C	0.948715	-0.679630	-0.273938
C160	C	1.448715	-0.179630	0.226062
C161	C	0.970695	-0.707096	-0.333592
C162	C	1.470695	-0.207096	0.166408
H163	H	0.938995	-0.623615	-0.283627
H164	H	1.438995	-0.123615	0.216373
H165	H	0.908297	-0.698347	-0.258962
H166	H	1.408297	-0.198347	0.241038
H167	H	0.983954	-0.698293	-0.238772
H168	H	1.483954	-0.198293	0.261228
H169	H	0.935454	-0.688438	-0.368757
H170	H	1.435454	-0.188438	0.131243
H171	H	1.011118	-0.688372	-0.348578
H172	H	1.511118	-0.188372	0.151422
C173	C	0.368689	-0.230101	-0.157732
C174	C	0.868689	0.269899	0.342268
C175	C	0.422343	-0.274518	-0.187974
C176	C	0.922343	0.225482	0.312026
H177	H	0.386716	-0.195750	-0.134346
H178	H	0.886716	0.304250	0.365654
H179	H	0.335909	-0.199923	-0.192490
H180	H	0.835909	0.300077	0.307510
H181	H	0.347062	-0.264510	-0.125841
H182	H	0.847062	0.235490	0.374159
H183	H	0.443967	-0.240109	-0.219868
H184	H	0.943967	0.259891	0.280132
H185	H	0.455135	-0.304698	-0.153212
H186	H	0.955135	0.195302	0.346788
H187	H	1.178968	-0.955196	-0.125737
H188	H	1.678968	-0.455196	0.374263
C189	C	0.526848	-0.476331	-0.325358
C190	C	1.026848	0.023669	0.174642
C191	C	0.459194	-0.487024	-0.332641
C192	C	0.959194	0.012976	0.167359
H193	H	0.556786	-0.510677	-0.348741
H194	H	1.056786	-0.010677	0.151259
H195	H	0.529247	-0.423245	-0.344520
H196	H	1.029247	0.076755	0.155480
H197	H	0.540396	-0.487832	-0.277873
H198	H	1.040396	0.012168	0.222127
H199	H	0.445643	-0.475516	-0.380126
H200	H	0.945643	0.024484	0.119874
H201	H	0.456792	-0.540122	-0.313481
H202	H	0.956792	-0.040122	0.186519
C203	C	1.148464	-1.070810	-0.237828
C204	C	1.648464	-0.570810	0.262172
C205	C	1.084915	-1.090822	-0.219695
C206	C	1.584915	-0.590822	0.280305
H207	H	1.182714	-1.098807	-0.203637
H208	H	1.682714	-0.598807	0.296363
H209	H	1.160679	-1.084310	-0.280974
H210	H	1.660679	-0.584310	0.219026
H211	H	1.145100	-1.015740	-0.241159
H212	H	1.645100	-0.515740	0.258841
H213	H	1.088278	-1.145891	-0.216369
H214	H	1.588278	-0.645891	0.283631
H215	H	1.072698	-1.077327	-0.176536
H216	H	1.572698	-0.577327	0.323464
C217	C	0.239448	-0.476354	-0.325392
C218	C	0.739448	0.023646	0.174608
C219	C	0.310809	-0.487038	-0.332656
C220	C	0.810809	0.012962	0.167344
H221	H	0.221422	-0.510701	-0.348783
H222	H	0.721422	-0.010701	0.151217
H223	H	0.229834	-0.487853	-0.277916
H224	H	0.729834	0.012147	0.222084
H225	H	0.218691	-0.423263	-0.344562
H226	H	0.718691	0.076737	0.155438
H227	H	0.331566	-0.540128	-0.313481
H228	H	0.831566	-0.040128	0.186519
H229	H	0.320428	-0.475545	-0.380141
H230	H	0.820428	0.024455	0.119859
C231	C	1.018623	-0.537409	-1.026224
C232	C	1.518623	-0.037409	-0.526224
C233	C	0.971666	-0.486657	-0.994364
C234	C	1.471666	0.013343	-0.494364
H235	H	0.995180	-0.571705	-1.044262
H236	H	1.495180	-0.071705	-0.544262
H237	H	1.039199	-0.507302	-1.062602
H238	H	1.539199	-0.007302	-0.562602
H239	H	1.053331	-0.567650	-0.993408
H240	H	1.553331	-0.067650	-0.493408
H241	H	0.936960	-0.456412	-1.027181
H242	H	1.436960	0.043588	-0.527181
H243	H	0.951079	-0.516768	-0.957981
H244	H	1.451079	-0.016768	-0.457981
C245	C	0.776698	-0.531429	-0.362865
C246	C	1.276698	-0.031429	0.137135
C247	C	0.814949	-0.487006	-0.332614
C248	C	1.314949	0.012994	0.167386
H249	H	0.806634	-0.565768	-0.386255
H250	H	1.306634	-0.065768	0.113745
H251	H	0.754340	-0.561619	-0.328113
H252	H	1.254340	-0.061619	0.171887
H253	H	0.743184	-0.497023	-0.394755
H254	H	1.243184	0.002977	0.105245
H255	H	0.848459	-0.521411	-0.300720
H256	H	1.348459	-0.021411	0.199280
H257	H	0.837318	-0.456813	-0.367370
H258	H	1.337318	0.043187	0.132630
C259	C	0.241017	-0.319062	-0.136743
C260	C	0.741017	0.180938	0.363257
C261	C	0.273967	-0.274538	-0.187973
C262	C	0.773967	0.225462	0.312027
H263	H	0.211086	-0.284719	-0.113352
H264	H	0.711086	0.215281	0.386648
H265	H	0.215077	-0.349199	-0.157266
H266	H	0.715077	0.150801	0.342734
H267	H	0.274545	-0.353453	-0.104859
H268	H	0.774545	0.146547	0.395141
H269	H	0.240440	-0.240150	-0.219859
H270	H	0.740440	0.259850	0.280141
H271	H	0.299908	-0.244387	-0.167449
H272	H	0.799908	0.255613	0.332551
C273	C	1.018582	-0.537471	-0.796550
C274	C	1.518582	-0.037471	-0.296550
C275	C	0.971644	-0.486696	-0.845980
C276	C	1.471644	0.013304	-0.345980
H277	H	0.995125	-0.571774	-0.766630
H278	H	1.495125	-0.071774	-0.266630
H279	H	1.053298	-0.567695	-0.818897
H280	H	1.553298	-0.067695	-0.318897
H281	H	1.039145	-0.507375	-0.770593
H282	H	1.539145	-0.007375	-0.270593
H283	H	0.951084	-0.516792	-0.871941
H284	H	1.451084	-0.016792	-0.371941
H285	H	0.936915	-0.456469	-0.823631
H286	H	1.436915	0.043531	-0.323631
H287	H	0.642291	-0.288932	-0.197781
H288	H	1.142291	0.211068	0.302219
H289	H	0.770534	-0.288918	-0.197770
H290	H	1.270534	0.211082	0.302230
H291	H	1.106879	-0.288863	-1.018563
H292	H	1.606879	0.211137	-0.518563
H293	H	0.909202	-0.805534	-0.395037
H294	H	1.409202	-0.305534	0.104963
H295	H	0.981475	-0.472343	-0.631011
H296	H	1.481475	0.027657	-0.131011
H297	H	0.887386	-0.929364	-0.416866
H298	H	1.387386	-0.429364	0.083134
C299	C	0.949468	-1.138298	-0.436541
C300	C	1.449468	-0.638298	0.063459
C301	C	0.903089	-1.090890	-0.401241
C302	C	1.403089	-0.590890	0.098759
H303	H	0.924938	-1.166322	-0.461036
H304	H	1.424938	-0.666322	0.038964
H305	H	0.973337	-1.106057	-0.468036
H306	H	1.473337	-0.606057	0.031964
H307	H	0.981578	-1.174676	-0.404488
H308	H	1.481578	-0.674676	0.095512
H309	H	0.870982	-1.054508	-0.433295
H310	H	1.370982	-0.554508	0.066705
H311	H	0.879210	-1.123134	-0.369743
H312	H	1.379210	-0.623134	0.130257
H313	H	1.113393	-1.030097	-0.191244
H314	H	1.613393	-0.530097	0.308756
C315	C	0.941319	-0.531158	-0.528449
C316	C	1.441319	-0.031158	-0.028449
C317	C	0.971632	-0.486800	-0.490185
C318	C	1.471632	0.013200	0.009815
H319	H	0.917885	-0.565476	-0.498517
H320	H	1.417885	-0.065476	0.001483
H321	H	0.909472	-0.496716	-0.561970
H322	H	1.409472	0.003284	-0.061970
H323	H	0.976047	-0.561376	-0.550800
H324	H	1.476047	-0.061376	-0.050800
H325	H	0.936904	-0.456578	-0.467838
H326	H	1.436904	0.043422	0.032162
H327	H	1.003483	-0.521247	-0.456651
H328	H	1.503483	-0.021247	0.043349
H329	H	1.200787	-0.831360	-0.103905
H330	H	1.700787	-0.331360	0.396095
H331	H	1.174797	-0.681601	-0.129804
H332	H	1.674797	-0.181601	0.370196
C333	C	1.147003	-0.230213	-0.580597
C334	C	1.647003	0.269787	-0.080597
C335	C	1.116679	-0.274591	-0.526956
C336	C	1.616679	0.225409	-0.026956
H337	H	1.170441	-0.195914	-0.562556
H338	H	1.670441	0.304086	-0.062556
H339	H	1.178850	-0.264644	-0.602210
H340	H	1.678850	0.235356	-0.102210
H341	H	1.112281	-0.199975	-0.613398
H342	H	1.612281	0.300025	-0.113398
H343	H	1.151402	-0.304834	-0.494157
H344	H	1.651402	0.195166	0.005843
H345	H	1.084830	-0.240155	-0.505331
H346	H	1.584830	0.259845	-0.005331
