data_functionalizedCrystal
_audit_creation_method	'MofGen! by Chris Wilmer'
_symmetry_space_group_name_H-M	'P1'
_symmetry_Int_Tables_number	1
_symmetry_cell_setting	triclinic
loop_
_symmetry_equiv_pos_as_xyz
  x,y,z
_cell_length_a	10.489746
_cell_length_b	19.188930
_cell_length_c	9.565339
_cell_angle_alpha	89.995116
_cell_angle_beta	89.999333
_cell_angle_gamma	83.843041
loop_
_atom_site_label
_atom_site_type_symbol
_atom_site_fract_x
_atom_site_fract_y
_atom_site_fract_z
O1	O	1.691846	0.098515	-0.116184
O2	O	1.320445	0.107757	-0.116209
O3	O	1.516863	0.001552	-0.116168
O4	O	1.495428	0.204720	-0.116224
O5	O	1.516848	0.001559	0.116352
O6	O	1.320429	0.107763	0.116311
O7	O	1.691831	0.098521	0.116336
Zn8	Zn	1.506127	0.103143	0.153241
Zn9	Zn	1.506148	0.103135	-0.153114
O10	O	1.495412	0.204726	0.116296
C11	C	1.272921	0.107061	0.000048
C12	C	1.131339	0.104971	0.000040
C13	C	1.516161	-0.024460	0.000096
C14	C	1.514078	-0.101979	0.000108
C15	C	0.980020	0.036158	0.000079
C16	C	1.056636	0.070565	0.114710
C17	C	1.056607	0.070574	-0.114537
C18	C	0.955689	0.135687	0.114801
C19	C	0.955654	0.135687	-0.114549
C20	C	1.032221	0.170142	0.000111
C21	C	1.629330	-0.146129	0.000122
C22	C	1.627372	-0.218966	0.000100
C23	C	1.510156	-0.247649	0.000091
C24	C	1.394889	-0.203489	0.000068
C25	C	1.396850	-0.130654	0.000077
N26	N	1.420553	-0.356253	0.079216
N27	N	1.418698	-0.425444	0.079211
C28	C	1.504240	-0.467098	0.000062
N29	N	1.591728	-0.436948	-0.079064
N30	N	1.593586	-0.367750	-0.079052
C31	C	1.508016	-0.326626	0.000081
C32	C	1.617378	-0.590227	0.000050
C33	C	1.615415	-0.663065	0.000019
C34	C	1.382928	-0.647586	0.000002
C35	C	1.384894	-0.574750	0.000019
C36	C	1.502122	-0.546075	0.000050
C37	C	1.739354	0.099217	0.000076
C38	C	1.880937	0.101307	0.000075
C39	C	1.496114	0.230738	0.000029
C40	C	1.498198	0.308257	0.000008
N41	N	1.506123	0.103149	0.362321
N42	N	1.506163	0.103124	-0.362193
C43	C	1.415259	0.152249	0.453505
C44	C	1.530439	0.166377	0.546687
C45	C	1.390992	0.089026	0.546694
C46	C	1.621362	0.117309	0.453451
C47	C	1.481838	0.039931	0.453450
C48	C	1.597103	0.054032	0.546590
H49	H	1.100721	0.043065	0.211641
H50	H	1.551007	0.219828	0.587641
N51	N	1.755763	-0.115201	0.000153
H52	H	1.828478	-0.154227	0.000158
H53	H	1.761652	-0.085314	-0.086042
H54	H	1.299450	-0.226847	0.000058
H55	H	1.100671	0.043057	-0.211451
H56	H	0.956566	-0.020492	0.000210
N57	N	1.751683	-0.266598	0.000112
H58	H	1.826242	-0.237380	0.000130
H59	H	1.755915	-0.297159	0.086310
N60	N	1.272537	-0.083029	0.000060
H61	H	1.197981	-0.112248	0.000046
H62	H	1.268281	-0.052479	0.086265
N63	N	1.743808	-0.559292	0.000077
H64	H	1.816526	-0.598317	0.000071
H65	H	1.749690	-0.529400	-0.086112
H66	H	0.911788	0.163174	0.211826
N67	N	1.256499	-0.678512	-0.000024
H68	H	1.272743	-0.731353	-0.000032
H69	H	1.206072	-0.662409	0.086171
H70	H	1.461235	-0.013504	0.412463
H71	H	1.291043	-0.538801	0.000015
N72	N	1.739729	-0.710689	0.000029
H73	H	1.814284	-0.681468	0.000054
H74	H	1.743961	-0.741253	0.086222
N75	N	1.313554	0.207293	0.399370
H76	H	1.332085	0.255021	0.433293
H77	H	1.313749	0.206556	0.293795
N78	N	1.750387	0.133198	0.399444
H79	H	1.749565	0.133130	0.293859
H80	H	1.768881	0.180769	0.434285
N81	N	1.699009	-0.000986	0.600402
H82	H	1.785903	0.009764	0.566300
H83	H	1.697860	-0.000945	0.705980
N84	N	1.262002	0.073220	0.600951
H85	H	1.203165	0.066503	0.519604
H86	H	1.273073	0.029040	0.659067
N87	N	1.062950	0.245239	0.000170
H88	H	1.115061	0.253994	0.085955
H89	H	1.113720	0.254218	-0.086486
N90	N	0.897218	0.172085	-0.242941
H91	H	0.934112	0.147415	-0.329495
H92	H	0.801230	0.170796	-0.241356
