data_functionalizedCrystal
_audit_creation_method	'MofGen! by Chris Wilmer'
_symmetry_space_group_name_H-M	'P1'
_symmetry_Int_Tables_number	1
_symmetry_cell_setting	triclinic
loop_
_symmetry_equiv_pos_as_xyz
  x,y,z
_cell_length_a	16.992694
_cell_length_b	10.540539
_cell_length_c	16.053802
_cell_angle_alpha	92.593658
_cell_angle_beta	87.249047
_cell_angle_gamma	87.596857
loop_
_atom_site_label
_atom_site_type_symbol
_atom_site_fract_x
_atom_site_fract_y
_atom_site_fract_z
O1	O	1.045174	0.264306	-0.069318
O2	O	0.816873	0.261349	-0.069343
O3	O	0.936232	0.078573	-0.069329
O4	O	0.925815	0.447082	-0.069332
O5	O	0.929662	0.088589	0.069529
O6	O	0.810303	0.271366	0.069516
O7	O	1.038604	0.274322	0.069540
Zn8	Zn	0.923410	0.274434	0.091575
Zn9	Zn	0.932067	0.261237	-0.091377
O10	O	0.919245	0.457098	0.069526
C11	C	0.784355	0.262556	0.000083
C12	C	0.697247	0.251215	0.000074
C13	C	0.647620	0.360635	0.000073
C14	C	0.565773	0.349973	0.000085
C15	C	0.533555	0.229889	0.000091
C16	C	0.583189	0.120461	0.000094
C17	C	0.665034	0.131125	0.000088
C18	C	0.289709	0.185691	0.000114
C19	C	0.207858	0.175036	0.000117
C20	C	0.190447	0.404549	0.000110
C21	C	0.272294	0.415202	0.000099
C22	C	0.321921	0.305774	0.000106
N23	N	0.449895	0.218988	0.000100
N24	N	0.405579	0.316677	0.000103
C25	C	0.932166	0.036210	0.000099
C26	C	0.929829	-0.104941	0.000094
C27	C	0.840283	-0.296162	-0.000227
C28	C	0.842638	-0.149316	0.000086
C29	C	0.968037	-0.157237	0.079393
C30	C	0.965058	-0.304035	0.079460
C31	C	0.974303	-0.315790	-0.078448
C32	C	0.975156	-0.168814	-0.079496
C33	C	1.071123	0.273115	0.000112
C34	C	1.158230	0.284456	0.000117
C35	C	0.923311	0.499461	0.000097
C36	C	0.925649	0.640612	0.000096
N37	N	0.917508	0.283440	0.216434
N38	N	0.937975	0.252222	-0.216237
C39	C	0.968315	0.205700	0.260134
C40	C	0.964193	0.212013	0.347540
C41	C	0.909269	0.296073	0.391245
C42	C	0.858458	0.373817	0.347539
C43	C	0.862576	0.367497	0.260134
C44	C	0.891281	0.323645	0.652653
C45	C	0.887169	0.329962	0.740063
C46	C	0.992904	0.168156	0.740059
C47	C	0.997020	0.161848	0.652652
C48	C	0.946206	0.239587	0.608954
N49	N	0.905057	0.302531	0.480588
N50	N	0.950415	0.233122	0.519612
H51	H	0.150032	0.493638	0.000105
O52	O	0.798222	-0.343454	-0.075551
H53	H	0.782109	-0.261925	-0.113673
O54	O	0.827927	0.420631	0.787209
H55	H	0.787637	0.366134	0.827050
H56	H	1.034274	0.104863	0.775646
H57	H	0.849907	0.386945	0.617080
O58	O	1.059662	-0.129888	-0.085834
H59	H	1.099780	-0.215636	-0.085051
H60	H	0.181630	0.077244	0.000121
H61	H	0.330106	0.096587	0.000120
O62	O	0.512248	0.467995	0.000087
H63	H	0.477204	0.464539	-0.056501
O64	O	1.019008	0.128181	0.394667
H65	H	1.009269	0.026930	0.377893
H66	H	0.813733	0.442256	0.383129
O67	O	0.718568	0.013110	0.000086
H68	H	0.682417	-0.072185	0.000083
O69	O	0.307037	0.544725	0.000091
H70	H	0.372287	0.533756	0.000078
H71	H	0.936097	-0.112911	0.138399
H72	H	0.556951	0.022687	0.000111
O73	O	0.807782	0.451350	0.212994
H74	H	0.768903	0.510874	0.258067
O75	O	0.795038	-0.092387	0.075507
H76	H	0.746249	-0.029924	0.054788
H77	H	0.812311	-0.113678	-0.056760
O78	O	0.791297	-0.334687	0.074673
H79	H	0.827486	-0.398668	0.112130
O80	O	0.920261	-0.339292	0.157967
H81	H	0.959133	-0.399747	0.194975
H82	H	0.947229	-0.134851	-0.138159
H83	H	0.673844	0.458420	0.000068
O84	O	1.047888	-0.360038	0.084254
H85	H	1.089891	-0.282247	0.086522
O86	O	1.052666	-0.119978	0.083325
H87	H	1.068428	-0.063652	0.028672
H88	H	0.948927	-0.354127	-0.138551
O89	O	1.057756	-0.371162	-0.079159
H90	H	1.064588	-0.429458	-0.023876
O91	O	1.027552	0.115030	0.212996
H92	H	1.062181	0.062023	0.258071
O93	O	1.056253	0.071172	0.605513
H94	H	1.090885	0.018164	0.650585
