data_functionalizedCrystal
_audit_creation_method	'MofGen! by Chris Wilmer'
_symmetry_space_group_name_H-M	'P1'
_symmetry_Int_Tables_number	1
_symmetry_cell_setting	triclinic
loop_
_symmetry_equiv_pos_as_xyz
  x,y,z
_cell_length_a	17.640112
_cell_length_b	25.639239
_cell_length_c	17.639514
_cell_angle_alpha	78.798436
_cell_angle_beta	92.187121
_cell_angle_gamma	101.263838
loop_
_atom_site_label
_atom_site_type_symbol
_atom_site_fract_x
_atom_site_fract_y
_atom_site_fract_z
Zn1	Zn	1.247671	-0.067251	0.195076
Zn2	Zn	1.747671	0.432749	0.695076
Zn3	Zn	1.221921	-0.141131	0.068097
Zn4	Zn	1.721921	0.358869	0.568097
Zn5	Zn	1.095041	-0.074129	0.093725
Zn6	Zn	1.595041	0.425871	0.593725
Zn7	Zn	1.120586	-0.175098	0.220676
Zn8	Zn	1.620586	0.324902	0.720676
O9	O	1.171305	-0.114402	0.144393
O10	O	1.671305	0.385598	0.644393
O11	O	1.350540	-0.059958	0.156793
O12	O	1.850540	0.440042	0.656793
O13	O	1.183624	-0.120906	-0.034774
O14	O	1.683624	0.379094	0.465226
O15	O	1.115373	-0.000041	0.107181
O16	O	1.615373	0.499959	0.607181
O17	O	1.331622	-0.114237	0.063502
O18	O	1.831622	0.385763	0.563502
O19	O	1.227509	0.005012	0.181643
O20	O	1.727509	0.505012	0.681643
O21	O	1.090405	-0.071680	-0.015946
O22	O	1.590405	0.428320	0.484054
O23	O	0.992144	-0.104616	0.132004
O24	O	1.492144	0.395384	0.632004
O25	O	1.158911	-0.172129	0.323551
O26	O	1.658911	0.327871	0.823551
O27	O	1.010912	-0.178798	0.225274
O28	O	1.510912	0.321202	0.725274
O29	O	1.252279	-0.092895	0.304743
O30	O	1.752279	0.407105	0.804743
O31	O	1.208394	-0.218812	0.088326
O32	O	1.708394	0.281188	0.588326
O33	O	1.133943	-0.243768	0.200425
O34	O	1.633943	0.256232	0.700425
C35	C	0.973970	-0.146140	0.184198
C36	C	1.473970	0.353860	0.684198
C37	C	0.889553	-0.159732	0.201245
C38	C	1.389553	0.340268	0.701245
C39	C	1.171170	-0.250262	0.144384
C40	C	1.671170	0.249738	0.644384
C41	C	1.171187	-0.308375	0.144392
C42	C	1.671187	0.191625	0.644392
C43	C	0.563028	-0.011137	0.014898
C44	C	1.063028	0.488863	0.514898
C45	C	0.483708	-0.023921	0.030926
C46	C	0.983708	0.476079	0.530926
C47	C	0.503271	-0.101240	0.127881
C48	C	1.003271	0.398760	0.627881
C49	C	0.582596	-0.088462	0.111864
C50	C	1.082596	0.411538	0.611864
C51	C	0.612467	-0.043410	0.055371
C52	C	1.112467	0.456590	0.555371
C53	C	0.632035	-0.120735	0.152337
C54	C	1.132035	0.379265	0.652337
C55	C	0.711352	-0.107959	0.136317
C56	C	1.211352	0.392041	0.636317
C57	C	0.741229	-0.062910	0.079825
C58	C	1.241229	0.437090	0.579825
C59	C	0.691784	-0.030634	0.039351
C60	C	1.191784	0.469366	0.539351
C61	C	0.602160	-0.165789	0.208826
C62	C	1.102160	0.334211	0.708826
C63	C	0.651600	-0.198062	0.249299
C64	C	1.151600	0.301938	0.749299
C65	C	0.730919	-0.185284	0.233284
C66	C	1.230919	0.314716	0.733284
C67	C	0.760797	-0.140235	0.176791
C68	C	1.260797	0.359765	0.676791
C69	C	0.780364	-0.217560	0.273757
C70	C	1.280364	0.282440	0.773757
C71	C	0.859681	-0.204784	0.257738
C72	C	1.359681	0.295216	0.757738
C73	C	0.840114	-0.127459	0.160772
C74	C	1.340114	0.372541	0.660772
C75	C	1.210215	-0.655703	0.086081
C76	C	1.710215	-0.155703	0.586081
C77	C	1.210246	-0.710304	0.086085
C78	C	1.710246	-0.210304	0.586085
O79	O	1.243289	-0.727476	0.036495
O80	O	1.743289	-0.227476	0.536495
N81	N	1.171448	-0.750625	0.144417
N82	N	1.671448	-0.250625	0.644417
C83	C	1.132623	-0.736344	0.202753
C84	C	1.632623	-0.236344	0.702753
O85	O	1.099626	-0.775653	0.252369
O86	O	1.599626	-0.275653	0.752369
C87	C	1.132597	-0.681744	0.202751
C88	C	1.632597	-0.181744	0.702751
C89	C	1.171391	-0.641425	0.144411
C90	C	1.671391	-0.141425	0.644411
C91	C	1.249006	-0.615386	0.027746
C92	C	1.749006	-0.115386	0.527746
C93	C	1.248973	-0.560789	0.027741
C94	C	1.748973	-0.060789	0.527741
C95	C	1.210149	-0.546510	0.086071
C96	C	1.710149	-0.046510	0.586071
C97	C	1.171358	-0.586828	0.144406
C98	C	1.671358	-0.086828	0.644406
C99	C	1.093777	-0.667462	0.261089
C100	C	1.593777	-0.167462	0.761089
C101	C	1.093754	-0.612858	0.261083
C102	C	1.593754	-0.112858	0.761083
C103	C	1.132548	-0.572539	0.202743
C104	C	1.632548	-0.072539	0.702743
C105	C	1.132501	-0.517952	0.202731
C106	C	1.632501	-0.017952	0.702731
N107	N	1.171298	-0.477631	0.144399
N108	N	1.671298	0.022369	0.644399
C109	C	1.210123	-0.491910	0.086069
C110	C	1.710123	0.008090	0.586069
C111	C	1.132683	-0.851006	0.202753
C112	C	1.632683	-0.351006	0.702753
C113	C	1.132704	-0.905606	0.202752
C114	C	1.632704	-0.405606	0.702752
C115	C	1.210328	-0.879562	0.086085
C116	C	1.710328	-0.379562	0.586085
C117	C	1.210302	-0.824962	0.086083
C118	C	1.710302	-0.324962	0.586083
C119	C	1.171481	-0.810685	0.144421
C120	C	1.671481	-0.310685	0.644421
C121	C	1.210050	-0.377254	0.086063
C122	C	1.710050	0.122746	0.586063
C123	C	1.210011	-0.322653	0.086062
C124	C	1.710011	0.177347	0.586062
C125	C	1.132391	-0.348701	0.202731
C126	C	1.632391	0.151299	0.702731
C127	C	1.132426	-0.403297	0.202731
C128	C	1.632426	0.096703	0.702731
C129	C	1.171261	-0.417571	0.144393
C130	C	1.671261	0.082429	0.644393
O131	O	1.099478	-0.500740	0.252298
O132	O	1.599478	-0.000740	0.752298
O133	O	1.243122	-0.452595	0.036467
O134	O	1.743122	0.047405	0.536467
C135	C	1.369410	-0.082541	0.104434
C136	C	1.869410	0.417459	0.604434
C137	C	1.453831	-0.068964	0.087405
C138	C	1.953831	0.431036	0.587405
C139	C	1.211317	-0.135534	0.342472
C140	C	1.711317	0.364466	0.842472
C141	C	1.228368	-0.144539	0.426882
C142	C	1.728368	0.355461	0.926882
C143	C	1.171464	0.021989	0.144415
C144	C	1.671464	0.521989	0.644415
C145	C	1.171532	0.080111	0.144424
C146	C	1.671532	0.580111	0.644424
C147	C	1.041800	-0.046027	0.753527
C148	C	1.541800	0.453973	1.253527
C149	C	1.057839	-0.054496	0.832838
C150	C	1.557839	0.445504	1.332838
C151	C	1.154898	-0.105750	0.813215
C152	C	1.654898	0.394250	1.313215
C153	C	1.138869	-0.097283	0.733899
C154	C	1.638869	0.402717	1.233899
C155	C	1.082319	-0.067421	0.704062
C156	C	1.582319	0.432579	1.204062
C157	C	1.179388	-0.118677	0.684434
C158	C	1.679388	0.381323	1.184434
C159	C	1.163359	-0.110212	0.605126
C160	C	1.663359	0.389788	1.105126
C161	C	1.106810	-0.080353	0.575282
C162	C	1.606810	0.419647	1.075282
C163	C	1.066289	-0.058956	0.624753
C164	C	1.566289	0.441044	1.124753
C165	C	1.235934	-0.148542	0.714274
C166	C	1.735934	0.351458	1.214274
C167	C	1.276453	-0.169936	0.664809
C168	C	1.776453	0.330064	1.164809
C169	C	1.260428	-0.161468	0.585498
C170	C	1.760428	0.338532	1.085498
C171	C	1.203879	-0.131609	0.555655
C172	C	1.703879	0.368391	1.055655
C173	C	1.300948	-0.182865	0.536027
C174	C	1.800948	0.317135	1.036027
C175	C	1.284918	-0.174401	0.456719
C176	C	1.784918	0.325599	0.956719
C177	C	1.187849	-0.123144	0.476346
C178	C	1.687849	0.376856	0.976346
C179	C	1.131438	-0.093364	0.947087
C180	C	1.631438	0.406636	1.447087
C181	C	1.114375	-0.084354	0.862680
C182	C	1.614375	0.415646	1.362680
H183	H	0.805815	-0.052510	0.066782
H184	H	1.305815	0.447490	0.566782
H185	H	1.241892	-0.792137	0.038578
H186	H	1.741892	-0.292137	0.538578
H187	H	1.241944	-0.891197	0.038592
H188	H	1.741944	-0.391197	0.538592
H189	H	0.716110	0.006058	-0.006640
H190	H	1.216110	0.506058	0.493360
O191	O	1.251863	-0.279168	0.023138
O192	O	1.751863	0.220832	0.523138
H193	H	1.297332	-0.251673	0.049372
H194	H	1.797332	0.248327	0.549372
H195	H	0.587354	0.025555	-0.031093
H196	H	1.087354	0.525555	0.468907
O197	O	0.430380	0.010893	-0.012724
O198	O	0.930380	0.510893	0.487276
H199	H	0.464482	0.044367	-0.054692
H200	H	0.964482	0.544367	0.445308
H201	H	1.093754	-0.073466	0.510705
H202	H	1.593754	0.426534	1.010705
O203	O	1.014142	-0.031400	0.886177
O204	O	1.514142	0.468600	1.386177
H205	H	1.055482	-0.003185	0.915447
H206	H	1.555482	0.496815	1.415447
O207	O	1.290831	-0.517306	-0.035175
O208	O	1.790831	-0.017306	0.464825
H209	H	1.265827	-0.523542	-0.092172
H210	H	1.765827	-0.023542	0.407828
H211	H	1.280625	-0.627003	-0.019755
H212	H	1.780625	-0.127003	0.480245
H213	H	1.101106	-0.938430	0.250253
H214	H	1.601106	-0.438430	0.750253
H215	H	0.899936	-0.231063	0.290696
H216	H	1.399936	0.268937	0.790696
O217	O	1.215892	-0.137955	0.845396
O218	O	1.715892	0.362045	1.345396
H219	H	1.220237	-0.140245	0.908854
H220	H	1.720237	0.359755	1.408854
H221	H	0.627266	-0.234744	0.295293
H222	H	1.127266	0.265256	0.795293
O223	O	0.471052	-0.149828	0.188816
O224	O	0.971052	0.350172	0.688816
H225	H	0.407593	-0.153289	0.193161
H226	H	0.907593	0.346711	0.693161
H227	H	0.537575	-0.176190	0.221867
H228	H	1.037575	0.323810	0.721867
H229	H	0.756029	-0.254244	0.319749
H230	H	1.256029	0.245756	0.819749
H231	H	1.062182	-0.700282	0.308593
H232	H	1.562182	-0.200282	0.808593
H233	H	1.020249	-0.034633	0.600457
H234	H	1.520249	0.465367	1.100457
O235	O	1.328618	-0.197474	0.403361
O236	O	1.828618	0.302526	0.903361
H237	H	1.359975	-0.163997	0.359432
H238	H	1.859975	0.336003	0.859432
O239	O	1.361937	-0.215074	0.568211
O240	O	1.861937	0.284926	1.068211
H241	H	1.366277	-0.217365	0.631670
H242	H	1.866277	0.282635	1.131670
O243	O	1.337445	-0.202144	0.696989
O244	O	1.837445	0.297856	1.196989
H245	H	1.383419	-0.176381	0.725325
H246	H	1.883419	0.323619	1.225325
H247	H	1.241676	-0.388868	0.038561
H248	H	1.741676	0.111132	0.538561
O249	O	1.253343	-0.157672	0.799790
O250	O	1.753343	0.342328	1.299790
H251	H	1.200332	-0.179691	0.832360
H252	H	1.700332	0.320309	1.332360
H253	H	1.101063	-0.839387	0.250257
H254	H	1.601063	-0.339387	0.750257
O255	O	0.980815	-0.013811	0.721334
O256	O	1.480815	0.486189	1.221334
H257	H	0.934845	-0.039571	0.692986
H258	H	1.434845	0.460429	1.192986
H259	H	0.864439	-0.090767	0.114781
H260	H	1.364439	0.409233	0.614781
O261	O	1.051870	-0.597458	0.323998
O262	O	1.551870	-0.097458	0.823998
H263	H	1.024895	-0.634670	0.364555
H264	H	1.524895	-0.134670	0.864555
H265	H	1.100840	-0.436127	0.250238
H266	H	1.600840	0.063873	0.750238
H267	H	1.141808	-0.098821	0.452050
H268	H	1.641808	0.401179	0.952050
O269	O	1.090521	-0.333296	0.265646
O270	O	1.590521	0.166704	0.765646
H271	H	1.097028	-0.288555	0.255842
H272	H	1.597028	0.211445	0.755842
