data_functionalizedCrystal
_audit_creation_method	'MofGen! by Chris Wilmer'
_symmetry_space_group_name_H-M	'P1'
_symmetry_Int_Tables_number	1
_symmetry_cell_setting	triclinic
loop_
_symmetry_equiv_pos_as_xyz
  x,y,z
_cell_length_a	10.723024
_cell_length_b	14.044220
_cell_length_c	9.798715
_cell_angle_alpha	89.995876
_cell_angle_beta	89.996609
_cell_angle_gamma	88.828373
loop_
_atom_site_label
_atom_site_type_symbol
_atom_site_fract_x
_atom_site_fract_y
_atom_site_fract_z
O1	O	1.670498	0.133040	-0.113486
O2	O	1.308619	0.145774	-0.113491
O3	O	1.484127	0.001387	-0.113476
O4	O	1.494990	0.277427	-0.113502
O5	O	1.484112	0.001387	0.113507
O6	O	1.308605	0.145774	0.113491
O7	O	1.670483	0.133039	0.113496
Zn8	Zn	1.489542	0.139407	0.149532
Zn9	Zn	1.489561	0.139407	-0.149527
O10	O	1.494976	0.277427	0.113480
C11	C	1.262020	0.144847	-0.000001
C12	C	1.123188	0.142075	-0.000002
C13	C	1.056288	0.222866	-0.000011
C14	C	0.912798	0.220002	-0.000013
C15	C	1.479364	-0.033958	0.000016
C16	C	1.465180	-0.139276	0.000018
C17	C	1.439248	-0.332106	-0.000002
C18	C	1.539849	-0.389085	-0.000005
C19	C	1.525420	-0.496383	-0.000016
C20	C	1.453675	-0.224799	0.000009
C21	C	1.717083	0.133966	0.000002
C22	C	1.855914	0.136739	-0.000005
C23	C	1.499738	0.312772	-0.000015
C24	C	1.513923	0.418090	-0.000025
N25	N	1.489538	0.139406	0.353631
N26	N	1.489573	0.139401	-0.353627
C27	C	1.563202	0.078514	0.421415
C28	C	1.563222	0.078511	0.578578
H29	H	0.855286	0.289166	-0.000026
O30	O	1.114737	0.307893	-0.000256
C31	C	1.256155	0.410858	-0.117804
C32	C	1.190023	0.314540	-0.117715
H33	H	1.317059	0.416254	-0.212745
H34	H	1.183525	0.471283	-0.117898
H35	H	1.316909	0.416315	-0.022766
H36	H	1.129272	0.308990	-0.212737
H37	H	1.262718	0.254161	-0.117550
H38	H	0.913420	0.067571	-0.000006
O39	O	1.064741	0.057047	-0.000238
C40	C	0.923347	-0.045917	-0.117783
C41	C	0.989475	0.050404	-0.117701
H42	H	0.862458	-0.051310	-0.212726
H43	H	0.995980	-0.106340	-0.117866
H44	H	0.862578	-0.051379	-0.022748
H45	H	1.050240	0.055959	-0.212720
H46	H	0.916777	0.110780	-0.117547
H47	H	1.626294	0.026383	0.636869
O48	O	1.414129	0.201503	0.423133
C49	C	1.203414	0.256029	0.467098
C50	C	1.288672	0.185635	0.388331
H51	H	1.101967	0.243239	0.438968
H52	H	1.216723	0.244945	0.581472
H53	H	1.228454	0.332073	0.439094
H54	H	1.263685	0.109564	0.416221
H55	H	1.275350	0.196803	0.273977
H56	H	1.636814	-0.357284	-0.000095
H57	H	1.342291	-0.363906	-0.000007
H58	H	1.626250	0.026381	0.363098
O59	O	1.414505	0.201641	0.576702
C60	C	1.402924	0.330962	0.415273
C61	C	1.488079	0.260514	0.494077
H62	H	1.462375	0.378593	0.348474
H63	H	1.335900	0.289730	0.348296
H64	H	1.347447	0.376762	0.490797
H65	H	1.543636	0.214697	0.418652
H66	H	1.555022	0.301805	0.561075
