data_functionalizedCrystal
_audit_creation_method	'MofGen! by Chris Wilmer'
_symmetry_space_group_name_H-M	'P1'
_symmetry_Int_Tables_number	1
_symmetry_cell_setting	triclinic
loop_
_symmetry_equiv_pos_as_xyz
  x,y,z
_cell_length_a	21.395362
_cell_length_b	19.077068
_cell_length_c	19.077579
_cell_angle_alpha	90.063424
_cell_angle_beta	87.667927
_cell_angle_gamma	92.343691
loop_
_atom_site_label
_atom_site_type_symbol
_atom_site_fract_x
_atom_site_fract_y
_atom_site_fract_z
Zn1	Zn	0.963019	-0.263487	-0.408896
Zn2	Zn	1.463019	0.236513	0.091104
Zn3	Zn	0.954537	-0.385722	-0.296098
Zn4	Zn	1.454537	0.114278	0.203902
Zn5	Zn	0.853875	-0.268264	-0.291362
Zn6	Zn	1.353875	0.231736	0.208638
Zn7	Zn	0.854171	-0.380997	-0.413529
Zn8	Zn	1.354171	0.119003	0.086471
O9	O	0.906401	-0.324617	-0.352471
O10	O	1.406401	0.175383	0.147529
O11	O	1.049574	-0.279680	-0.393976
O12	O	1.549574	0.220320	0.106024
O13	O	0.937511	-0.374117	-0.197137
O14	O	1.437511	0.125883	0.302863
O15	O	0.871779	-0.169295	-0.303032
O16	O	1.371779	0.330705	0.196968
O17	O	1.043342	-0.369485	-0.311105
O18	O	1.543342	0.130515	0.188895
O19	O	0.951966	-0.165786	-0.389383
O20	O	1.451966	0.334214	0.110617
O21	O	0.863555	-0.287821	-0.193657
O22	O	1.363555	0.212179	0.306343
O23	O	0.766234	-0.283239	-0.307524
O24	O	1.266234	0.216761	0.192476
O25	O	0.872284	-0.361432	-0.511248
O26	O	1.372284	0.138568	-0.011248
O27	O	0.766452	-0.366064	-0.397280
O28	O	1.266452	0.133936	0.102720
O29	O	0.952253	-0.275099	-0.507844
O30	O	1.452253	0.224901	-0.007844
O31	O	0.937798	-0.483429	-0.315597
O32	O	1.437798	0.016571	0.184403
O33	O	0.864060	-0.479958	-0.401873
O34	O	1.364060	0.020042	0.098127
C35	C	0.743609	-0.324658	-0.352391
C36	C	1.243609	0.175342	0.147609
C37	C	0.673966	-0.324691	-0.352374
C38	C	1.173966	0.175309	0.147626
C39	C	0.641378	-0.367880	-0.399045
C40	C	1.141378	0.132120	0.100955
C41	C	0.575944	-0.367862	-0.399076
C42	C	1.075944	0.132138	0.100924
C43	C	0.543100	-0.324662	-0.352423
C44	C	1.043100	0.175338	0.147577
C45	C	0.575696	-0.281465	-0.305749
C46	C	1.075696	0.218535	0.194251
C47	C	0.641129	-0.281479	-0.305724
C48	C	1.141129	0.218521	0.194276
C49	C	0.437224	-0.321554	-0.288936
C50	C	0.937224	0.178446	0.211064
C51	C	0.371793	-0.321545	-0.288959
C52	C	0.871793	0.178455	0.211041
C53	C	0.341284	-0.324613	-0.352499
C54	C	0.841284	0.175387	0.147501
C55	C	0.376215	-0.327706	-0.416018
C56	C	0.876215	0.172294	0.083982
C57	C	0.441647	-0.327720	-0.415993
C58	C	0.941647	0.172280	0.084007
C59	C	0.472149	-0.324641	-0.352445
C60	C	0.972149	0.175359	0.147555
C61	C	0.237745	-0.367784	-0.399207
C62	C	0.737745	0.132216	0.100793
C63	C	0.172311	-0.367761	-0.399239
C64	C	0.672311	0.132239	0.100761
C65	C	0.172064	-0.281368	-0.305906
C66	C	0.672064	0.218632	0.194094
C67	C	0.237498	-0.281387	-0.305880
C68	C	0.737498	0.218613	0.194120
C69	C	0.270334	-0.324599	-0.352530
C70	C	0.770334	0.175401	0.147470
C71	C	0.900058	-0.507190	-0.359767
C72	C	1.400058	-0.007190	0.140233
C73	C	0.897403	-0.585295	-0.362912
C74	C	1.397403	-0.085295	0.137088
C75	C	0.934579	-0.623771	-0.319507
C76	C	1.434579	-0.123771	0.180493
C77	C	0.932086	-0.697158	-0.322469
C78	C	1.432086	-0.197158	0.177531
C79	C	0.892412	-0.732068	-0.368833
C80	C	1.392412	-0.232068	0.131167
C81	C	0.855234	-0.693586	-0.412242
C82	C	1.355234	-0.193586	0.087758
C83	C	0.857731	-0.620200	-0.409283
C84	C	1.357731	-0.120200	0.090717
C85	C	0.880826	-0.951357	-0.382498
C86	C	1.380826	-0.451357	0.117502
C87	C	0.878330	-1.024749	-0.385452
C88	C	1.378330	-0.524749	0.114548
C89	C	0.955183	-1.028315	-0.295680
C90	C	1.455183	-0.528315	0.204320
C91	C	0.957674	-0.954928	-0.292722
C92	C	1.457674	-0.454928	0.207278
C93	C	0.920499	-0.916453	-0.336134
C94	C	1.420499	-0.416453	0.163866
N95	N	0.889861	-0.807082	-0.371860
N96	N	1.389861	-0.307082	0.128140
N97	N	0.923054	-0.841440	-0.333110
N98	N	1.423054	-0.341440	0.166890
C99	C	1.069828	-0.324577	-0.352552
C100	C	1.569828	0.175423	0.147448
C101	C	1.139471	-0.324560	-0.352586
C102	C	1.639471	0.175440	0.147414
C103	C	0.913248	-0.317206	-0.535755
C104	C	1.413248	0.182794	-0.035755
C105	C	0.916166	-0.314047	-0.613860
C106	C	1.416166	0.185953	-0.113860
C107	C	0.912786	-0.141331	-0.345162
C108	C	1.412786	0.358669	0.154838
C109	C	0.915507	-0.063225	-0.342048
C110	C	1.415507	0.436775	0.157952
C111	C	0.937091	-0.291447	-1.053318
C112	C	1.437091	0.208553	-0.553318
C113	C	0.934346	-0.294417	-0.979930
C114	C	1.434346	0.205583	-0.479930
C115	C	0.891334	-0.340848	-0.945012
C116	C	1.391334	0.159152	-0.445012
C117	C	0.851070	-0.384316	-0.983485
C118	C	1.351070	0.115684	-0.483485
C119	C	0.853819	-0.381348	-1.056872
C120	C	1.353819	0.118652	-0.556872
C121	C	0.878650	-0.354547	-0.725720
C122	C	1.378650	0.145453	-0.225720
C123	C	0.875903	-0.357510	-0.652328
C124	C	1.375903	0.142490	-0.152328
C125	C	0.959180	-0.267612	-0.648778
C126	C	1.459180	0.232388	-0.148778
C127	C	0.961923	-0.264646	-0.722166
C128	C	1.461923	0.235354	-0.222166
C129	C	0.921661	-0.308116	-0.760633
C130	C	1.421661	0.191884	-0.260633
N131	N	0.888525	-0.343885	-0.869998
N132	N	1.388525	0.156115	-0.369998
N133	N	0.924473	-0.305083	-0.835646
N134	N	1.424473	0.194917	-0.335646
C135	C	0.899618	-0.331949	-0.169898
C136	C	1.399618	0.168051	0.330102
C137	C	0.896829	-0.334909	-0.091786
C138	C	1.396829	0.165091	0.408214
H139	H	0.145779	-0.402929	-0.437248
H140	H	0.645779	0.097071	0.062752
H141	H	0.845865	-0.389943	-0.757031
H142	H	1.345865	0.110057	-0.257031
H143	H	0.549406	-0.403031	-0.437083
H144	H	1.049406	0.096969	0.062917
C145	C	0.996076	-1.070644	-0.247933
C146	C	1.496076	-0.570644	0.252067
N147	N	1.026879	-1.102526	-0.211969
N148	N	1.526879	-0.602526	0.288031
H149	H	0.996950	-0.226840	-0.750592
H150	H	1.496950	0.273160	-0.250592
H151	H	0.962358	-0.728482	-0.287124
H152	H	1.462358	-0.228482	0.212876
H153	H	0.967133	-0.259027	-0.948612
H154	H	1.467133	0.240973	-0.448612
H155	H	0.966883	-0.595353	-0.281750
H156	H	1.466883	-0.095353	0.218250
H157	H	0.989980	-0.926506	-0.254970
H158	H	1.489980	-0.426506	0.245030
H159	H	0.850555	-0.920037	-0.417844
H160	H	1.350555	-0.420037	0.082156
H161	H	0.816051	-0.422124	-0.955049
H162	H	1.316051	0.077876	-0.455049
H163	H	0.846031	-1.053170	-0.423219
H164	H	1.346031	-0.553170	0.076781
C165	C	0.816834	-0.577877	-0.457032
C166	C	1.316834	-0.077877	0.042968
N167	N	0.786031	-0.546000	-0.493000
N168	N	1.286031	-0.046000	0.007000
C169	C	0.809525	-0.429159	-1.099186
C170	C	1.309525	0.070841	-0.599186
N171	N	0.776163	-0.465173	-1.131057
N172	N	1.276163	0.034827	-0.631057
C173	C	0.135939	-0.233847	-0.254587
C174	C	0.635939	0.266153	0.245413
N175	N	0.108727	-0.198052	-0.215934
N176	N	0.608727	0.301948	0.284066
H177	H	0.822934	-0.722016	-0.449995
H178	H	1.322934	-0.222016	0.050005
H179	H	0.972112	-0.253633	-1.081742
H180	H	1.472112	0.246367	-0.581742
C181	C	0.480069	-0.331121	-0.485862
C182	C	0.980069	0.168879	0.014138
N183	N	0.509007	-0.333682	-0.538489
N184	N	1.009007	0.166318	-0.038489
H185	H	0.991960	-0.232222	-0.617450
H186	H	1.491960	0.267778	-0.117450
H187	H	0.840863	-0.395307	-0.623900
H188	H	1.340863	0.104693	-0.123900
C189	C	0.273345	-0.233882	-0.254532
C190	C	0.773345	0.266118	0.245468
N191	N	0.300346	-0.198098	-0.215854
N192	N	0.800346	0.301902	0.284146
H193	H	0.462059	-0.319053	-0.237190
H194	H	0.962059	0.180947	0.262810
C195	C	0.677494	-0.415413	-0.450364
C196	C	1.177494	0.084587	0.049636
N197	N	0.704699	-0.451214	-0.489018
N198	N	1.204699	0.048786	0.010982
H199	H	0.351376	-0.330203	-0.467758
H200	H	0.851376	0.169797	0.032242
C201	C	0.539567	-0.233945	-0.254431
C202	C	1.039567	0.266055	0.245569
N203	N	0.512354	-0.198150	-0.215778
N204	N	1.012354	0.301850	0.284222
C205	C	0.273868	-0.415310	-0.450530
C206	C	0.773868	0.084690	0.049470
N207	N	0.301075	-0.451105	-0.489189
N208	N	0.801075	0.048895	0.010811
H209	H	0.667662	-0.246307	-0.267719
H210	H	1.167662	0.253693	0.232281
C211	C	0.333375	-0.318138	-0.219088
C212	C	0.833375	0.181862	0.280912
N213	N	0.304441	-0.315568	-0.166459
N214	N	0.804441	0.184432	0.333541
