data_functionalizedCrystal
_audit_creation_method	'MofGen! by Chris Wilmer'
_symmetry_space_group_name_H-M	'P1'
_symmetry_Int_Tables_number	1
_symmetry_cell_setting	triclinic
loop_
_symmetry_equiv_pos_as_xyz
  x,y,z
_cell_length_a	15.944551
_cell_length_b	15.944551
_cell_length_c	14.421503
_cell_angle_alpha	89.996660
_cell_angle_beta	89.996859
_cell_angle_gamma	96.501262
loop_
_atom_site_label
_atom_site_type_symbol
_atom_site_fract_x
_atom_site_fract_y
_atom_site_fract_z
O1	O	1.114529	-0.108320	-0.077017
O2	O	0.869980	-0.121677	-0.077040
O3	O	0.998933	0.007276	-0.077020
O4	O	0.985576	-0.237273	-0.077038
O5	O	0.998911	0.007257	0.077204
O6	O	0.869958	-0.121696	0.077183
O7	O	1.114508	-0.108340	0.077206
Cu8	Cu	0.992231	-0.115020	0.091277
Cu9	Cu	0.992256	-0.114997	-0.091110
O10	O	0.985555	-0.237293	0.077186
C11	C	0.838675	-0.121132	0.000069
C12	C	0.745429	-0.119470	0.000060
C13	C	0.998367	0.038561	0.000092
C14	C	0.996705	0.131807	0.000093
C15	C	0.530572	-0.035565	0.000084
C16	C	0.469563	-0.074518	-0.075959
C17	C	0.574703	-0.116462	0.000071
C18	C	0.469564	-0.074556	0.076093
C19	C	0.409790	-0.113551	0.000086
C20	C	0.514922	-0.155437	-0.076035
C21	C	0.514929	-0.155464	0.076086
C22	C	0.453937	-0.194476	0.000024
C23	C	0.669705	-0.118137	0.000062
C24	C	0.314789	-0.111883	0.000089
C25	C	1.145813	-0.108885	0.000096
C26	C	1.239059	-0.110547	0.000098
C27	C	0.986120	-0.268577	0.000072
C28	C	0.987782	-0.361823	0.000066
N29	N	0.992219	-0.115035	0.219558
C30	C	0.912801	0.346663	0.000072
C31	C	0.951753	0.407671	0.076117
C32	C	0.993698	0.302533	0.000085
C33	C	0.951793	0.407674	-0.075935
C34	C	0.990787	0.467445	0.000074
C35	C	1.032672	0.362312	0.076193
C36	C	1.032701	0.362308	-0.075927
C37	C	1.071711	0.423298	0.000136
C38	C	0.995372	0.207530	0.000092
C39	C	0.989119	0.562446	0.000073
N40	N	0.992275	-0.114975	-0.219392
C41	C	0.932581	-0.174636	0.469202
C42	C	1.008481	-0.190943	0.531011
C43	C	0.992240	-0.115015	0.408719
C44	C	0.916359	-0.098727	0.531005
C45	C	0.992253	-0.114997	0.591441
C46	C	1.068178	-0.131360	0.469167
C47	C	0.976007	-0.039111	0.469156
C48	C	1.051961	-0.055386	0.530936
C49	C	0.992231	-0.115027	0.303458
C50	C	0.992270	-0.114985	0.696700
H51	H	0.563905	0.031573	-0.000005
N52	N	0.869344	-0.237919	0.435186
N53	N	0.793611	-0.235286	0.456120
H54	H	0.748951	-0.279980	0.432095
H55	H	0.962240	0.025051	0.441965
N56	N	1.148698	-0.148752	0.435242
N57	N	1.176387	-0.216651	0.455723
H58	H	1.233252	-0.228938	0.431762
N59	N	1.075610	0.337075	-0.156573
N60	N	1.104421	0.391119	-0.214530
H61	H	1.134721	0.373298	-0.271493
N62	N	0.444367	-0.031636	0.156753
N63	N	0.459799	-0.058451	0.235670
H64	H	0.442007	-0.028134	0.292634
N65	N	0.444358	-0.031581	-0.156605
N66	N	0.472129	0.043913	-0.170153
H67	H	0.454335	0.074242	-0.227109
H68	H	1.022224	-0.255126	0.558180
N69	N	1.075531	0.337230	0.156947
N70	N	1.048271	0.352192	0.235799
H71	H	1.078536	0.334476	0.292834
N72	N	0.835863	-0.081436	0.565097
N73	N	0.823186	-0.078044	0.650479
H74	H	0.766335	-0.065836	0.674558
H75	H	0.917575	0.427758	-0.140230
H76	H	0.845652	0.313356	0.000141
N77	N	0.908825	0.432883	0.156766
N78	N	0.878896	0.378676	0.213998
H79	H	0.848574	0.396478	0.270954
N80	N	0.540011	-0.198336	-0.156757
N81	N	0.616160	-0.206516	-0.169801
H82	H	0.633882	-0.236818	-0.226807
H83	H	0.535052	-0.189660	0.140373
N84	N	0.412346	-0.278788	-0.000040
N85	N	0.424065	-0.327622	-0.065392
H86	H	0.394690	-0.387167	-0.065442
N87	N	1.156024	0.464889	0.000202
N88	N	1.204857	0.453167	0.065553
H89	H	1.264403	0.482540	0.065604
N90	N	1.115332	0.007876	0.564720
N91	N	1.191144	0.004446	0.544703
H92	H	1.235903	0.049123	0.568564
