data_functionalizedCrystal
_audit_creation_method	'MofGen! by Chris Wilmer'
_symmetry_space_group_name_H-M	'P1'
_symmetry_Int_Tables_number	1
_symmetry_cell_setting	triclinic
loop_
_symmetry_equiv_pos_as_xyz
  x,y,z
_cell_length_a	14.908571
_cell_length_b	21.295417
_cell_length_c	14.908308
_cell_angle_alpha	93.261727
_cell_angle_beta	90.175053
_cell_angle_gamma	86.725606
loop_
_atom_site_label
_atom_site_type_symbol
_atom_site_fract_x
_atom_site_fract_y
_atom_site_fract_z
Zn1	Zn	1.345222	-0.328502	-0.587537
Zn2	Zn	1.845222	0.171498	-0.087537
Zn3	Zn	1.353780	-0.428069	-0.437164
Zn4	Zn	1.853780	0.071931	0.062836
Zn5	Zn	1.203540	-0.316412	-0.428537
Zn6	Zn	1.703540	0.183588	0.071463
Zn7	Zn	1.194808	-0.427321	-0.578816
Zn8	Zn	1.694808	0.072679	-0.078816
O9	O	1.274337	-0.375076	-0.508014
O10	O	1.774337	0.124924	-0.008014
O11	O	1.472182	-0.347083	-0.574851
O12	O	1.972182	0.152917	-0.074851
O13	O	1.341086	-0.408510	-0.310196
O14	O	1.841086	0.091490	0.189804
O15	O	1.222407	-0.229931	-0.449668
O16	O	1.722407	0.270069	0.050332
O17	O	1.478469	-0.420234	-0.464372
O18	O	1.978469	0.079766	0.035628
O19	O	1.326500	-0.238814	-0.566485
O20	O	1.826500	0.261186	-0.066485
O21	O	1.230705	-0.326476	-0.303857
O22	O	1.730705	0.173524	0.196143
O23	O	1.076557	-0.325751	-0.441211
O24	O	1.576557	0.174249	0.058789
O25	O	1.207525	-0.418959	-0.705797
O26	O	1.707525	0.081041	-0.205797
O27	O	1.070141	-0.407236	-0.551621
O28	O	1.570141	0.092764	-0.051621
O29	O	1.318033	-0.346358	-0.712205
O30	O	1.818033	0.153642	-0.212205
O31	O	1.332619	-0.516054	-0.455915
O32	O	1.832619	-0.016054	0.044085
O33	O	1.215823	-0.515505	-0.559986
O34	O	1.715823	-0.015505	-0.059986
C35	C	1.040724	-0.365101	-0.494534
C36	C	1.540724	0.134899	0.005466
C37	C	0.940782	-0.360849	-0.488788
C38	C	1.440782	0.139151	0.011212
C39	C	0.746357	-0.437829	-0.592807
C40	C	1.246357	0.062171	-0.092807
C41	C	0.652453	-0.433836	-0.587412
C42	C	1.152453	0.066164	-0.087412
C43	C	0.659066	-0.348869	-0.472608
C44	C	1.159066	0.151131	0.027392
C45	C	0.752971	-0.352861	-0.478003
C46	C	1.252971	0.147139	0.021997
C47	C	0.796613	-0.397344	-0.538104
C48	C	1.296613	0.102656	-0.038104
C49	C	0.890520	-0.401339	-0.543494
C50	C	1.390520	0.098661	-0.043494
C51	C	0.897131	-0.316368	-0.428695
C52	C	1.397131	0.183632	0.071305
C53	C	0.803226	-0.312376	-0.423300
C54	C	1.303226	0.187624	0.076700
C55	C	1.274225	-0.538621	-0.507961
C56	C	1.774225	-0.038621	-0.007961
C57	C	1.274258	-0.608591	-0.507974
C58	C	1.774258	-0.108591	-0.007974
C59	C	1.328424	-0.646026	-0.568840
C60	C	1.828424	-0.146026	-0.068840
C61	C	1.328454	-0.711771	-0.568864
C62	C	1.828454	-0.211771	-0.068864
C63	C	1.274329	-0.740078	-0.508007
C64	C	1.774329	-0.240078	-0.008007
C65	C	1.220152	-0.702634	-0.447136
C66	C	1.720152	-0.202634	0.052864
C67	C	1.220117	-0.636891	-0.447120
C68	C	1.720117	-0.136891	0.052880
N69	N	1.272081	-0.840068	-0.428926
N70	N	1.772081	-0.340068	0.071074
N71	N	1.272120	-0.902521	-0.428945
N72	N	1.772120	-0.402521	0.071055
C73	C	1.274432	-0.938158	-0.508053
C74	C	1.774432	-0.438158	-0.008053
N75	N	1.276721	-0.908983	-0.587146
N76	N	1.776721	-0.408983	-0.087146
N77	N	1.276686	-0.846523	-0.587127
N78	N	1.776686	-0.346523	-0.087127
C79	C	1.274361	-0.811365	-0.508018
C80	C	1.774361	-0.311365	-0.008018
C81	C	1.328634	-1.046881	-0.568950
C82	C	1.828634	-0.546881	-0.068950
C83	C	1.328658	-1.112627	-0.568975
C84	C	1.828658	-0.612627	-0.068975
C85	C	1.220361	-1.103489	-0.447240
C86	C	1.720361	-0.603489	0.052760
C87	C	1.220332	-1.037745	-0.447222
C88	C	1.720332	-0.537745	0.052778
C89	C	1.274473	-1.009445	-0.508076
C90	C	1.774473	-0.509445	-0.008076
C91	C	1.508863	-0.385091	-0.521547
C92	C	2.008863	0.114909	-0.021547
C93	C	1.608804	-0.389358	-0.527313
C94	C	2.108804	0.110642	-0.027313
C95	C	1.260850	-0.383924	-0.742538
C96	C	1.760850	0.116076	-0.242538
C97	C	1.255103	-0.387694	-0.842478
C98	C	1.755103	0.112306	-0.342478
C99	C	1.274473	-0.210894	-0.508087
C100	C	1.774473	0.289106	-0.008087
C101	C	1.274531	-0.140930	-0.508118
C102	C	1.774531	0.359070	-0.008118
C103	C	1.359373	-0.319165	-1.036950
C104	C	1.859373	0.180835	-0.536950
C105	C	1.353975	-0.322705	-1.130853
C106	C	1.853975	0.177295	-0.630853
C107	C	1.238907	-0.398313	-1.124188
C108	C	1.738907	0.101687	-0.624188
C109	C	1.244304	-0.394772	-1.030285
C110	C	1.744304	0.105228	-0.530285
C111	C	1.304540	-0.355197	-0.986670
C112	C	1.804540	0.144803	-0.486670
C113	C	1.309941	-0.351661	-0.892765
C114	C	1.809941	0.148339	-0.392765
C115	C	1.194869	-0.427264	-0.886102
C116	C	1.694869	0.072736	-0.386102
C117	C	1.189471	-0.430805	-0.980005
C118	C	1.689471	0.069195	-0.480005
C119	C	1.287824	-0.366219	-0.274405
C120	C	1.787824	0.133781	0.225595
C121	C	1.293745	-0.362279	-0.174475
C122	C	1.793745	0.137721	0.325525
H123	H	1.372507	-0.622986	-0.618393
H124	H	1.872507	-0.122986	-0.118393
H125	H	0.938060	-0.283403	-0.384150
H126	H	1.438060	0.216597	0.115850
H127	H	1.372555	-0.742256	-0.618438
H128	H	1.872555	-0.242256	-0.118438
O129	O	1.167524	-0.730200	-0.388141
O130	O	1.667524	-0.230200	0.111859
C131	C	1.106476	-0.767691	-0.435941
C132	C	1.606476	-0.267691	0.064059
H133	H	1.134220	-0.781422	-0.505935
H134	H	1.634220	-0.281422	-0.005935
H135	H	1.096588	-0.812045	-0.398624
H136	H	1.596588	-0.312045	0.101376
H137	H	1.039255	-0.739923	-0.441917
H138	H	1.539255	-0.239923	0.058083
O139	O	1.381319	-1.019360	-0.627947
O140	O	1.881319	-0.519360	-0.127947
C141	C	1.442347	-0.981849	-0.580152
C142	C	1.942347	-0.481849	-0.080152
H143	H	1.452045	-0.999246	-0.509669
H144	H	1.952045	-0.499246	-0.009669
H145	H	1.509641	-0.985232	-0.616725
H146	H	2.009641	-0.485232	-0.116725
H147	H	1.414707	-0.930737	-0.575416
H148	H	1.914707	-0.430737	-0.075416
O149	O	0.603771	-0.473230	-0.640587
O150	O	1.103771	0.026770	-0.140587
C151	C	0.662431	-0.513332	-0.694806
C152	C	1.162431	-0.013332	-0.194806
H153	H	0.731477	-0.516931	-0.661815
H154	H	1.231477	-0.016931	-0.161815
H155	H	0.634731	-0.562141	-0.702717
H156	H	1.134731	-0.062141	-0.202717
H157	H	0.668518	-0.493353	-0.763726
H158	H	1.168518	0.006647	-0.263726
H159	H	1.176007	-0.606410	-0.397555
H160	H	1.676007	-0.106410	0.102445
H161	H	1.140427	-0.463024	-1.015529
H162	H	1.640427	0.036976	-0.515529
H163	H	0.926052	-0.437559	-0.592429
H164	H	1.426052	0.062441	-0.092429
O165	O	0.760969	-0.269115	-0.364899
O166	O	1.260969	0.230885	0.135101
C167	C	0.825468	-0.234251	-0.317754
C168	C	1.325468	0.265749	0.182246
H169	H	0.890299	-0.236344	-0.358434
H170	H	1.390299	0.263656	0.141566
H171	H	0.798904	-0.183134	-0.306725
H172	H	1.298904	0.316866	0.193275
H173	H	0.839356	-0.255080	-0.249982
H174	H	1.339356	0.244920	0.250018
O175	O	1.381364	-1.148901	-0.628135
O176	O	1.881364	-0.648901	-0.128135
C177	C	1.429124	-1.109821	-0.681851
C178	C	1.929124	-0.609821	-0.181851
H179	H	1.434355	-1.061711	-0.645193
H180	H	1.934355	-0.561711	-0.145193
H181	H	1.499417	-1.132154	-0.695581
H182	H	1.999417	-0.632154	-0.195581
H183	H	1.392224	-1.103998	-0.748214
H184	H	1.892224	-0.603998	-0.248214
O185	O	1.167725	-1.131048	-0.388247
O186	O	1.667725	-0.631048	0.111753
C187	C	1.106672	-1.168532	-0.436053
C188	C	1.606672	-0.668532	0.063947
H189	H	1.134419	-1.182265	-0.506046
H190	H	1.634419	-0.682265	-0.006046
H191	H	1.096774	-1.212886	-0.398738
H192	H	1.596774	-0.712886	0.101262
H193	H	1.039457	-1.140759	-0.442032
H194	H	1.539457	-0.640759	0.057968
H195	H	1.176228	-1.007263	-0.397656
H196	H	1.676228	-0.507263	0.102344
H197	H	1.150222	-0.456606	-0.845154
H198	H	1.650222	0.043394	-0.345154
H199	H	0.781892	-0.474051	-0.641738
H200	H	1.281892	0.025949	-0.141738
H201	H	1.358990	-0.319438	-0.857255
H202	H	1.858990	0.180562	-0.357255
O203	O	0.616521	-0.305696	-0.414284
O204	O	1.116521	0.194304	0.085716
C205	C	0.522861	-0.310833	-0.421293
C206	C	1.022861	0.189167	0.078707
H207	H	0.508328	-0.360013	-0.449840
H208	H	1.008328	0.139987	0.050160
H209	H	0.491005	-0.302398	-0.351918
H210	H	0.991005	0.197602	0.148082
H211	H	0.493512	-0.274242	-0.467785
H212	H	0.993512	0.225758	0.032215
O213	O	1.417906	-0.280674	-0.994717
O214	O	1.917906	0.219326	-0.494717
C215	C	1.465169	-0.249645	-1.059235
C216	C	1.965169	0.250355	-0.559235
H217	H	1.424496	-0.248415	-1.124050
H218	H	1.924496	0.251585	-0.624050
H219	H	1.476363	-0.199437	-1.032674
H220	H	1.976363	0.300563	-0.532674
H221	H	1.532864	-0.275990	-1.073150
H222	H	2.032864	0.224010	-0.573150
O223	O	1.407110	-0.287632	-1.179727
O224	O	1.907110	0.212368	-0.679727
C225	C	1.352825	-0.246852	-1.231124
C226	C	1.852825	0.253148	-0.731124
H227	H	1.283637	-0.238878	-1.198744
H228	H	1.783637	0.261122	-0.698744
H229	H	1.385318	-0.199836	-1.234081
H230	H	1.885318	0.300164	-0.734081
H231	H	1.345626	-0.268864	-1.302106
H232	H	1.845626	0.231136	-0.802106
H233	H	1.189865	-0.430532	-1.159716
H234	H	1.689865	0.069468	-0.659716
