data_functionalizedCrystal
_audit_creation_method	'MofGen! by Chris Wilmer'
_symmetry_space_group_name_H-M	'P1'
_symmetry_Int_Tables_number	1
_symmetry_cell_setting	triclinic
loop_
_symmetry_equiv_pos_as_xyz
  x,y,z
_cell_length_a	12.759401
_cell_length_b	12.594516
_cell_length_c	12.759393
_cell_angle_alpha	89.969150
_cell_angle_beta	89.981425
_cell_angle_gamma	90.012242
loop_
_atom_site_label
_atom_site_type_symbol
_atom_site_fract_x
_atom_site_fract_y
_atom_site_fract_z
Zn1	Zn	1.606276	-0.423667	-0.593990
Zn2	Zn	1.606179	-0.601686	-0.418313
Zn3	Zn	1.430578	-0.423723	-0.418329
Zn4	Zn	1.430575	-0.601605	-0.593954
O5	O	1.518402	-0.512670	-0.506147
O6	O	1.753284	-0.447292	-0.570695
O7	O	1.582846	-0.578137	-0.271294
O8	O	1.453926	-0.274770	-0.441653
O9	O	1.753213	-0.578082	-0.441625
O10	O	1.583011	-0.274728	-0.570711
O11	O	1.453833	-0.447388	-0.271306
O12	O	1.283557	-0.447309	-0.441618
O13	O	1.453922	-0.577943	-0.740980
O14	O	1.283555	-0.577998	-0.570649
O15	O	1.583008	-0.447213	-0.741007
O16	O	1.582844	-0.750621	-0.441590
O17	O	1.453828	-0.750561	-0.570633
C18	C	1.245435	-0.512652	-0.506132
C19	C	1.128658	-0.512670	-0.506150
C20	C	1.073834	-0.444690	-0.573460
C21	C	0.964110	-0.444701	-0.573467
C22	C	0.964044	-0.580680	-0.438851
C23	C	1.073766	-0.580663	-0.438840
C24	C	1.518354	-0.789211	-0.506128
C25	C	1.518429	-0.907517	-0.506156
C26	C	1.588682	-0.976764	-0.436044
C27	C	1.614357	-1.047455	-0.531937
C28	C	1.492885	-1.047624	-0.410324
C29	C	1.544153	-0.976650	-0.602098
C30	C	1.422636	-0.976813	-0.480421
C31	C	1.448275	-1.047472	-0.576380
C32	C	1.792435	-0.512689	-0.506162
C33	C	1.909212	-0.512698	-0.506169
C34	C	1.518476	-0.512563	-0.780180
C35	C	1.518507	-0.512517	-0.896957
C36	C	1.518480	-0.235049	-0.506188
C37	C	1.518513	-0.116744	-0.506206
C38	C	1.451354	-0.444424	-0.951825
C39	C	1.451378	-0.444391	-1.061549
C40	C	1.585718	-0.580547	-1.061528
C41	C	1.585687	-0.580585	-0.951805
C42	C	1.518390	-0.512701	-0.233179
C43	C	1.518562	-0.512447	-0.116403
H44	H	0.919338	-0.636039	-0.384050
C45	C	1.133622	-0.370980	-0.646490
C46	C	1.241447	-0.385532	-0.632097
C47	C	1.296552	-0.317654	-0.699363
H48	H	1.115764	-0.299407	-0.631302
H49	H	1.115728	-0.386653	-0.717079
H50	H	1.259333	-0.369850	-0.561525
H51	H	1.259336	-0.457090	-0.647293
H52	H	1.278659	-0.333327	-0.769952
H53	H	1.278686	-0.246085	-0.684170
H54	H	1.369717	-0.327525	-0.689614
C55	C	1.133109	-0.654591	-0.365716
C56	C	1.061555	-0.714167	-0.306797
C57	C	1.116183	-0.782284	-0.239436
H58	H	1.175897	-0.613930	-0.319913
H59	H	1.175904	-0.701065	-0.405800
H60	H	1.018778	-0.667700	-0.266716
H61	H	1.018764	-0.754850	-0.352572
H62	H	1.158978	-0.828757	-0.279520
H63	H	1.158970	-0.741614	-0.193640
H64	H	1.067642	-0.822721	-0.199458
H65	H	1.565713	-0.945607	-0.683232
C66	C	1.667736	-0.935297	-0.356917
C67	C	1.615825	-0.874286	-0.281313
C68	C	1.688615	-0.836080	-0.208403
H69	H	1.718293	-0.892630	-0.391791
H70	H	1.701758	-0.993442	-0.323855
H71	H	1.581820	-0.816148	-0.314371
H72	H	1.565274	-0.916930	-0.246413
H73	H	1.722637	-0.894226	-0.175340
H74	H	1.739168	-0.793418	-0.243285
H75	H	1.653403	-0.794688	-0.157091
C76	C	1.722494	-1.088785	-0.560797
C77	C	1.795689	-1.052990	-0.487107
C78	C	1.895314	-1.091049	-0.513643
H79	H	1.741297	-1.063465	-0.628376
H80	H	1.721623	-1.164213	-0.561186
H81	H	1.796564	-0.977578	-0.486729
H82	H	1.776921	-1.078307	-0.419522
H83	H	1.894442	-1.166477	-0.514033
H84	H	1.914106	-1.065727	-0.581223
H85	H	1.944987	-1.066776	-0.463645
C86	C	1.378637	-0.370403	-1.121258
C87	C	1.438155	-0.302188	-1.184296
C88	C	1.371175	-0.234028	-1.239326
H89	H	1.338596	-0.329772	-1.072999
H90	H	1.332876	-0.411078	-1.164105
H91	H	1.483897	-0.261517	-1.141452
H92	H	1.478193	-0.342790	-1.232574
H93	H	1.325414	-0.274702	-1.282173
H94	H	1.331138	-0.193403	-1.191059
H95	H	1.411547	-0.187742	-1.282111
H96	H	0.919477	-0.389344	-0.628276
H97	H	1.388901	-1.078324	-0.635761
C98	C	1.314545	-0.935600	-0.451253
C99	C	1.247526	-1.021510	-0.432182
C100	C	1.147949	-0.983585	-0.405282
H101	H	1.287473	-0.894101	-0.507220
H102	H	1.319532	-0.893108	-0.389956
H103	H	1.242536	-1.063984	-0.493471
H104	H	1.274564	-1.063018	-0.376209
H105	H	1.152935	-0.941093	-0.343986
H106	H	1.120887	-0.942085	-0.461254
H107	H	1.102467	-1.041868	-0.392330
C108	C	1.658790	-0.654262	-1.121137
C109	C	1.726184	-0.593978	-1.184121
C110	C	1.793524	-0.661845	-1.239036
H111	H	1.618721	-0.700639	-1.164016
H112	H	1.698841	-0.694805	-1.072776
H113	H	1.686137	-0.553453	-1.232476
H114	H	1.766276	-0.547603	-1.141268
H115	H	1.833575	-0.702389	-1.190675
H116	H	1.753446	-0.708220	-1.281909
H117	H	1.839265	-0.620953	-1.281769
C118	C	1.378292	-0.370494	-0.892463
C119	C	1.319466	-0.310877	-0.964005
C120	C	1.252135	-0.242775	-0.909363
H121	H	1.418361	-0.324038	-0.849666
H122	H	1.332436	-0.411201	-0.849674
H123	H	1.365316	-0.270173	-1.006775
H124	H	1.279375	-0.357305	-1.006804
H125	H	1.206279	-0.283481	-0.866574
H126	H	1.292212	-0.196326	-0.866568
H127	H	1.212207	-0.202323	-0.957895
H128	H	1.640374	-0.636038	-0.907131
H129	H	1.471245	-1.078799	-0.329260
