data_functionalizedCrystal
_audit_creation_method	'MofGen! by Chris Wilmer'
_symmetry_space_group_name_H-M	'P1'
_symmetry_Int_Tables_number	1
_symmetry_cell_setting	triclinic
loop_
_symmetry_equiv_pos_as_xyz
  x,y,z
_cell_length_a	13.635800
_cell_length_b	10.992421
_cell_length_c	10.992410
_cell_angle_alpha	88.168975
_cell_angle_beta	71.235349
_cell_angle_gamma	108.764763
loop_
_atom_site_label
_atom_site_type_symbol
_atom_site_fract_x
_atom_site_fract_y
_atom_site_fract_z
V1	V	-2.057124	-0.177761	0.400575
O2	O	-2.036188	0.008542	0.392968
O3	O	-2.045913	-0.352470	0.397818
O4	O	-2.045920	-0.175026	0.575288
O5	O	-2.036181	-0.170129	0.214270
V6	V	-2.295571	-0.155477	0.378294
O7	O	-2.195024	-0.226642	0.449452
O8	O	-2.382769	-0.106595	0.329417
O9	O	-2.195178	0.019232	0.381051
O10	O	-2.375205	-0.341780	0.385901
O11	O	-2.375212	-0.163108	0.564599
O12	O	-2.195172	-0.158211	0.203581
V13	V	-1.557124	-0.177761	0.400575
O14	O	-1.536188	0.008542	0.392968
O15	O	-1.545913	-0.352470	0.397818
O16	O	-1.545920	-0.175026	0.575288
O17	O	-1.536181	-0.170129	0.214270
V18	V	-1.795571	-0.155477	0.378294
O19	O	-1.695024	-0.226642	0.449452
O20	O	-1.882769	-0.106595	0.329417
O21	O	-1.695178	0.019232	0.381051
O22	O	-1.875205	-0.341780	0.385901
O23	O	-1.875212	-0.163108	0.564599
O24	O	-1.695172	-0.158211	0.203581
C25	C	-1.971153	-0.395060	0.391494
C26	C	-2.002717	-0.537887	0.390404
C27	C	-1.936549	-0.733174	0.381618
C28	C	-1.903508	-0.584530	0.382242
C29	C	-2.038022	-0.576522	0.270588
C30	C	-2.070140	-0.725065	0.269320
C31	C	-2.135893	-0.763647	0.514935
C32	C	-2.101366	-0.615133	0.517535
C33	C	-1.971161	-0.168712	0.617873
C34	C	-2.002728	-0.167632	0.760702
C35	C	-2.101610	0.061816	0.387371
C36	C	-2.059665	0.204641	0.388470
C37	C	-2.101601	-0.164530	0.160989
C38	C	-2.059653	-0.165603	0.018159
C39	C	-1.471153	-0.395060	0.391494
C40	C	-1.502717	-0.537887	0.390404
C41	C	-1.471161	-0.168712	0.617873
C42	C	-1.502728	-0.167632	0.760702
C43	C	-1.936290	-0.157795	0.955826
C44	C	-1.903515	-0.159451	0.807343
C45	C	-2.101736	-0.294312	0.837793
C46	C	-2.133893	-0.293192	0.986360
C47	C	-2.072776	-0.047893	0.948352
C48	C	-2.037422	-0.047293	0.799340
C49	C	-1.601610	0.061816	0.387371
C50	C	-1.559665	0.204641	0.388470
C51	C	-1.601601	-0.164530	0.160989
C52	C	-1.559653	-0.165603	0.018159
C53	C	-1.436549	-0.733174	0.381618
C54	C	-1.403508	-0.584530	0.382242
C55	C	-1.538022	-0.576522	0.270588
C56	C	-1.570140	-0.725065	0.269320
C57	C	-1.635893	-0.763647	0.514935
C58	C	-1.601366	-0.615133	0.517535
C59	C	-1.436290	-0.157795	0.955826
C60	C	-1.403515	-0.159451	0.807343
C61	C	-1.601736	-0.294312	0.837793
C62	C	-1.633893	-0.293192	0.986360
C63	C	-1.572776	-0.047893	0.948352
C64	C	-1.537422	-0.047293	0.799340
H65	H	-1.874947	-0.558765	0.467855
H66	H	-1.423638	-0.779594	0.466700
O67	O	-1.942548	0.076851	0.730018
H68	H	-1.870980	0.052959	0.668291
O69	O	-2.071429	-0.412665	0.803878
H70	H	-2.142089	-0.501620	0.858992
H71	H	-1.467727	-0.522284	0.176470
O72	O	-2.254430	-0.307777	1.042851
H73	H	-2.305719	-0.401073	1.023727
O74	O	-1.754428	-0.307766	1.042831
H75	H	-1.778274	-0.307065	1.149262
O76	O	-1.755010	-0.818090	0.523264
H77	H	-1.780434	-0.925065	0.526244
H78	H	-1.578855	-0.383659	0.812179
O79	O	-1.805031	-0.515058	0.261338
H80	H	-1.827113	-0.450216	0.203707
O81	O	-1.359890	-0.760396	0.260774
H82	H	-1.313508	-0.816064	0.288829
O83	O	-1.691313	-0.053975	1.002451
H84	H	-1.694418	0.035404	1.045257
H85	H	-2.014739	-0.742580	0.174188
O86	O	-1.504632	0.079541	0.975335
H87	H	-1.443440	0.139585	0.882257
O88	O	-1.358660	-0.036310	0.980779
H89	H	-1.272196	-0.033019	0.935879
H90	H	-2.176256	-0.584926	0.530916
H91	H	-1.632723	-0.813163	0.605597
H92	H	-1.676256	-0.584926	0.530916
O93	O	-1.858666	-0.036314	0.980793
H94	H	-1.800132	0.024012	0.886647
O95	O	-2.134462	-0.536457	0.272394
H96	H	-2.205811	-0.585604	0.362833
H97	H	-1.967727	-0.522284	0.176470
O98	O	-2.201331	-0.308300	0.799638
H99	H	-2.271697	-0.309928	0.886563
H100	H	-1.329168	-0.532087	0.290964
O101	O	-1.568601	-0.584337	0.634897
H102	H	-1.482464	-0.514191	0.602842
H103	H	-2.132723	-0.813163	0.605597
H104	H	-2.076866	-0.591237	0.606180
H105	H	-1.923638	-0.779594	0.466700
H106	H	-1.374925	-0.245200	0.782519
O107	O	-1.305178	-0.038811	0.736684
H108	H	-1.280655	0.021240	0.808504
O109	O	-1.496752	-0.748284	0.143320
H110	H	-1.438699	-0.653519	0.083869
O111	O	-2.004612	0.079540	0.975314
H112	H	-1.960615	0.060396	1.038777
H113	H	-1.610838	-0.546286	0.271970
O114	O	-1.859836	-0.760277	0.260741
H115	H	-1.909014	-0.817857	0.205529
O116	O	-1.686838	-0.779234	0.269052
H117	H	-1.720101	-0.699313	0.269818
O118	O	-1.419768	-0.269824	1.019380
H119	H	-1.332424	-0.263382	0.974672
H120	H	-1.626112	-0.382320	1.032621
H121	H	-1.676924	-0.304874	0.808989
H122	H	-1.465795	0.046420	0.746991
H123	H	-1.923821	-0.242371	1.003810
O124	O	-2.131535	-0.045294	0.756267
H125	H	-2.104948	0.045583	0.688347
O126	O	-1.631519	-0.045282	0.756241
H127	H	-1.655143	-0.130411	0.706399
O128	O	-2.191310	-0.053969	1.002465
H129	H	-2.246163	-0.146325	0.986119
O130	O	-2.186838	-0.779234	0.269052
H131	H	-2.220101	-0.699313	0.269818
O132	O	-2.255010	-0.818100	0.523265
H133	H	-2.259962	-0.867523	0.437807
H134	H	-1.829287	-0.068362	0.754011
H135	H	-1.874925	-0.245200	0.782519
O136	O	-2.123560	-0.411227	1.047650
H137	H	-2.095685	-0.468566	0.971106
H138	H	-1.374947	-0.558765	0.467855
