data_functionalizedCrystal
_audit_creation_method	'MofGen! by Chris Wilmer'
_symmetry_space_group_name_H-M	'P1'
_symmetry_Int_Tables_number	1
_symmetry_cell_setting	triclinic
loop_
_symmetry_equiv_pos_as_xyz
  x,y,z
_cell_length_a	17.699077
_cell_length_b	15.944493
_cell_length_c	16.776229
_cell_angle_alpha	89.999222
_cell_angle_beta	89.993415
_cell_angle_gamma	83.377810
loop_
_atom_site_label
_atom_site_type_symbol
_atom_site_fract_x
_atom_site_fract_y
_atom_site_fract_z
O1	O	1.004243	0.106201	-0.066267
O2	O	1.337576	0.439534	0.267066
O3	O	1.670909	0.772868	0.600399
O4	O	0.783885	0.120026	-0.066270
O5	O	1.117218	0.453360	0.267063
O6	O	1.450551	0.786693	0.600397
O7	O	0.900104	-0.009177	-0.066275
O8	O	1.233437	0.324156	0.267058
O9	O	1.566771	0.657489	0.600392
O10	O	0.888023	0.235405	-0.066262
O11	O	1.221357	0.568738	0.267071
O12	O	1.554690	0.902071	0.600405
O13	O	0.900089	-0.009185	0.066301
O14	O	1.233422	0.324148	0.399635
O15	O	1.566755	0.657481	0.732968
O16	O	0.783869	0.120018	0.066307
O17	O	1.117203	0.453352	0.399640
O18	O	1.450536	0.786685	0.732973
O19	O	1.004227	0.106193	0.066309
O20	O	1.337561	0.439526	0.399643
O21	O	1.670894	0.772860	0.732976
Zn22	Zn	0.894046	0.113104	0.087357
Zn23	Zn	1.227379	0.446438	0.420691
Zn24	Zn	1.560713	0.779771	0.754024
Zn25	Zn	0.894066	0.113115	-0.087318
Zn26	Zn	1.227400	0.446448	0.246015
Zn27	Zn	1.560733	0.779781	0.579349
O28	O	0.888008	0.235397	0.066314
O29	O	1.221341	0.568730	0.399648
O30	O	1.554675	0.902063	0.732981
C31	C	0.755679	0.119528	0.000018
C32	C	1.089013	0.452861	0.333351
C33	C	1.422346	0.786194	0.666685
C34	C	0.671659	0.118044	0.000016
C35	C	1.004992	0.451377	0.333350
C36	C	1.338325	0.784711	0.666683
C37	C	0.899603	-0.040475	0.000010
C38	C	1.232936	0.292858	0.333343
C39	C	1.566269	0.626192	0.666676
C40	C	0.898122	-0.133721	-0.000000
C41	C	1.231456	0.199613	0.333333
C42	C	1.564789	0.532946	0.666666
C43	C	0.632182	0.117341	0.072285
C44	C	0.965515	0.450674	0.405618
C45	C	1.298848	0.784007	0.738951
C46	C	0.553237	0.115933	0.072285
C47	C	0.886570	0.449267	0.405619
C48	C	1.219904	0.782600	0.738952
C49	C	0.513770	0.115235	0.000017
C50	C	0.847103	0.448569	0.333350
C51	C	1.180437	0.781902	0.666684
C52	C	0.553253	0.115936	-0.072257
C53	C	0.886586	0.449270	0.261077
C54	C	1.219919	0.782603	0.594410
C55	C	0.632197	0.117338	-0.072257
C56	C	0.965530	0.450671	0.261077
C57	C	1.298863	0.784004	0.594410
C58	C	0.234881	0.110283	-0.072259
C59	C	0.568214	0.443617	0.261075
C60	C	0.901548	0.776950	0.594408
C61	C	0.155931	0.108885	-0.072253
C62	C	0.489264	0.442218	0.261080
C63	C	0.822598	0.775551	0.594414
C64	C	0.155921	0.108879	0.072284
C65	C	0.489255	0.442212	0.405617
C66	C	0.822588	0.775546	0.738950
C67	C	0.234865	0.110281	0.072284
C68	C	0.568199	0.443614	0.405617
C69	C	0.901532	0.776947	0.738950
C70	C	0.274342	0.110977	0.000010
C71	C	0.607675	0.444310	0.333344
C72	C	0.941008	0.777644	0.666677
C73	C	0.359943	0.112501	0.000010
C74	C	0.693276	0.445835	0.333344
C75	C	1.026609	0.779168	0.666677
C76	C	0.428170	0.113717	0.000016
C77	C	0.761503	0.447050	0.333350
C78	C	1.094836	0.780383	0.666683
C79	C	0.966532	-0.369626	0.000015
C80	C	1.299865	-0.036293	0.333349
C81	C	1.633198	0.297041	0.666682
C82	C	0.929649	-0.420112	-0.065352
C83	C	1.262982	-0.086778	0.267982
C84	C	1.596315	0.246555	0.601315
C85	C	0.895379	-0.304436	0.000009
C86	C	1.228713	0.028898	0.333343
C87	C	1.562046	0.362231	0.666676
C88	C	0.929617	-0.420096	0.065358
C89	C	1.262950	-0.086762	0.398692
C90	C	1.596284	0.246571	0.732025
C91	C	0.892735	-0.469340	0.000022
C92	C	1.226069	-0.136006	0.333356
C93	C	1.559402	0.197327	0.666689
C94	C	0.858516	-0.353693	-0.065412
C95	C	1.191849	-0.020360	0.267922
C96	C	1.525182	0.312973	0.601255
C97	C	0.858494	-0.353674	0.065357
C98	C	1.191828	-0.020340	0.398690
C99	C	1.525161	0.312993	0.732024
C100	C	0.821559	-0.404126	-0.000026
C101	C	1.154892	-0.070793	0.333307
C102	C	1.488226	0.262540	0.666641
C103	C	0.896905	-0.209439	0.000001
C104	C	1.230238	0.123894	0.333335
C105	C	1.563571	0.457228	0.666668
C106	C	0.891204	-0.564334	0.000025
C107	C	1.224538	-0.231000	0.333358
C108	C	1.557871	0.102333	0.666691
C109	C	1.032433	0.106691	0.000020
C110	C	1.365766	0.440025	0.333353
C111	C	1.699100	0.773358	0.666686
C112	C	1.116453	0.108175	0.000016
C113	C	1.449787	0.441508	0.333349
C114	C	1.783120	0.774842	0.666683
C115	C	0.888509	0.266694	0.000028
C116	C	1.221843	0.600028	0.333361
C117	C	1.555176	0.933361	0.666695
C118	C	0.889990	0.359940	0.000033
C119	C	1.223323	0.693273	0.333366
C120	C	1.556656	1.026606	0.666699
N121	N	0.894038	0.113097	0.206569
N122	N	1.227371	0.446430	0.539902
N123	N	1.560704	0.779763	0.873235
N124	N	0.894081	0.113116	-0.206529
N125	N	1.227414	0.446449	0.126804
N126	N	1.560747	0.779782	0.460137
C127	C	0.945515	0.055909	0.248283
C128	C	1.278849	0.389242	0.581617
C129	C	1.612182	0.722575	0.914950
C130	C	0.945519	0.055908	0.331735
C131	C	1.278853	0.389241	0.665069
C132	C	1.612186	0.722575	0.998402
C133	C	0.894049	0.113100	0.373471
C134	C	1.227382	0.446433	0.706805
C135	C	1.560716	0.779767	1.040138
C136	C	0.842566	0.170291	0.331751
C137	C	1.175899	0.503624	0.665084
C138	C	1.509233	0.836957	0.998418
C139	C	0.842559	0.170287	0.248300
C140	C	1.175892	0.503620	0.581633
C141	C	1.509225	0.836953	0.914967
C142	C	0.842593	0.170307	0.668298
C143	C	1.175927	0.503641	1.001631
C144	C	1.509260	0.836974	1.334965
C145	C	0.842606	0.170308	0.751755
C146	C	1.175939	0.503642	1.085088
C147	C	1.509273	0.836975	1.418421
C148	C	0.945554	0.055929	0.751733
C149	C	1.278887	0.389262	1.085067
C150	C	1.612221	0.722595	1.418400
C151	C	0.945547	0.055925	0.668283
C152	C	1.278880	0.389258	1.001616
C153	C	1.612213	0.722591	1.334949
C154	C	0.894061	0.113112	0.626569
C155	C	1.227395	0.446445	0.959903
C156	C	1.560728	0.779779	1.293236
C157	C	0.894056	0.113111	0.536081
C158	C	1.227390	0.446444	0.869414
C159	C	1.560723	0.779778	1.202748
C160	C	0.894057	0.113106	0.463958
C161	C	1.227390	0.446439	0.797292
C162	C	1.560724	0.779772	1.130625
H163	H	0.664309	0.117916	0.131134
H164	H	0.997643	0.451249	0.464467
H165	H	1.330976	0.784583	0.797801
Br166	Br	0.288423	0.111236	0.170365
Br167	Br	0.621756	0.444569	0.503699
Br168	Br	0.955090	0.777902	0.837032
Br169	Br	1.015378	-0.021708	0.191650
Br170	Br	1.348711	0.311626	0.524984
Br171	Br	1.682044	0.644959	0.858317
Br172	Br	1.015380	-0.021708	0.388351
Br173	Br	1.348713	0.311625	0.721684
Br174	Br	1.682047	0.644959	1.055018
Br175	Br	0.102368	0.107938	-0.170338
Br176	Br	0.435702	0.441272	0.162995
Br177	Br	0.769035	0.774605	0.496328
H178	H	0.828491	-0.324806	-0.120734
H179	H	1.161824	0.008527	0.212600
H180	H	1.495157	0.341860	0.545933
H181	H	1.027820	-0.354128	-0.000050
H182	H	1.361154	-0.020795	0.333284
H183	H	1.694487	0.312539	0.666617
Br184	Br	0.772706	0.247904	0.388389
Br185	Br	1.106039	0.581238	0.721723
Br186	Br	1.439372	0.914571	1.055056
Br187	Br	0.772688	0.247897	0.191687
Br188	Br	1.106021	0.581230	0.525020
Br189	Br	1.439355	0.914564	0.858354
H190	H	0.123771	0.108308	0.131132
H191	H	0.457104	0.441642	0.464465
H192	H	0.790437	0.774975	0.797799
Br193	Br	1.015405	-0.021690	0.611643
Br194	Br	1.348739	0.311643	0.944977
Br195	Br	1.682072	0.644976	1.278310
Br196	Br	1.015428	-0.021686	0.808348
Br197	Br	1.348761	0.311647	1.141681
Br198	Br	1.682095	0.644980	1.475014
Br199	Br	0.499662	0.114993	0.170368
Br200	Br	0.832996	0.448326	0.503702
Br201	Br	1.166329	0.781659	0.837035
Br202	Br	0.772749	0.247932	0.808397
Br203	Br	1.106083	0.581265	1.141730
Br204	Br	1.439416	0.914599	1.475063
Br205	Br	0.772724	0.247918	0.611692
Br206	Br	1.106057	0.581251	0.945025
Br207	Br	1.439391	0.914584	1.278358
H208	H	0.267013	0.110848	-0.131108
H209	H	0.600347	0.444181	0.202225
H210	H	0.933680	0.777515	0.535559
Br211	Br	0.979711	-0.468429	0.157461
Br212	Br	1.313045	-0.135095	0.490794
Br213	Br	1.646378	0.198238	0.824128
H214	H	0.521113	0.115362	-0.131099
H215	H	0.854446	0.448695	0.202234
H216	H	1.187780	0.782029	0.535568
H217	H	0.959704	-0.449118	-0.120615
H218	H	1.293037	-0.115785	0.212719
H219	H	1.626370	0.217549	0.546052
H220	H	0.664338	0.117912	-0.131105
H221	H	0.997671	0.451245	0.202228
H222	H	1.331004	0.784579	0.535562
Br223	Br	0.719329	-0.429690	-0.000082
Br224	Br	1.052663	-0.096357	0.333252
Br225	Br	1.385996	0.236976	0.666585
H226	H	0.828465	-0.324652	0.120622
H227	H	1.161798	0.008681	0.453955
H228	H	1.495132	0.342014	0.787289
