data_functionalizedCrystal
_audit_creation_method	'MofGen! by Chris Wilmer'
_symmetry_space_group_name_H-M	'P1'
_symmetry_Int_Tables_number	1
_symmetry_cell_setting	triclinic
loop_
_symmetry_equiv_pos_as_xyz
  x,y,z
_cell_length_a	23.096457
_cell_length_b	23.096457
_cell_length_c	20.016444
_cell_angle_alpha	60.002053
_cell_angle_beta	90.001200
_cell_angle_gamma	60.004020
loop_
_atom_site_label
_atom_site_type_symbol
_atom_site_fract_x
_atom_site_fract_y
_atom_site_fract_z
Zr1	Zr	0.557825	0.633716	-0.087670
O2	O	0.465384	0.754495	-0.194336
O3	O	0.586154	0.512935	-0.054975
O4	O	0.586161	0.633716	-0.194346
O5	O	0.465382	0.633716	0.054977
O6	O	0.681442	0.633717	-0.194350
O7	O	0.465378	0.633715	-0.054965
O8	O	0.681429	0.417663	0.054959
O9	O	0.465394	0.849770	-0.194332
O10	O	0.669353	0.562616	-0.041030
O11	O	0.598250	0.562616	0.041022
O12	O	0.598258	0.704819	-0.123069
O13	O	0.527154	0.704819	-0.041018
Zr14	Zr	0.709793	0.633720	0.087668
Zr15	Zr	0.709786	0.633719	-0.087676
Zr16	Zr	0.557832	0.633718	0.087675
Zr17	Zr	0.557840	0.785668	-0.087664
Zr18	Zr	0.709778	0.481768	0.087662
O19	O	0.681463	0.754501	0.054973
O20	O	0.681454	0.754499	-0.194345
O21	O	0.465394	0.754498	0.054982
O22	O	0.802233	0.512941	0.194334
O23	O	0.802224	0.512939	-0.054984
O24	O	0.586164	0.512937	0.194343
O25	O	0.802236	0.633721	-0.054979
O26	O	0.681456	0.633721	0.194344
O27	O	0.586176	0.633719	0.194348
O28	O	0.802240	0.633722	0.054963
O29	O	0.586183	0.849772	-0.194337
O30	O	0.681435	0.417664	0.194335
O31	O	0.802224	0.417666	0.194330
O32	O	0.802218	0.417665	0.054954
O33	O	0.465399	0.849771	-0.054956
O34	O	0.586188	0.849773	-0.054961
O35	O	0.669360	0.562617	0.123067
O36	O	0.740463	0.562618	0.041016
O37	O	0.669368	0.704821	-0.041024
O38	O	0.598264	0.704820	0.041028
C39	C	0.633790	0.443649	-0.000009
C40	C	0.633783	0.379142	-0.000011
C41	C	0.686277	0.296358	0.060549
C42	C	0.686282	0.235736	0.060557
C43	C	0.633798	0.257903	-0.000009
C44	C	0.581295	0.340701	-0.060574
C45	C	0.581288	0.401320	-0.060576
N46	N	0.617917	0.201792	-0.071832
N47	N	0.617929	0.144203	-0.071827
C48	C	0.633817	0.075264	-0.000007
N49	N	0.649707	0.066081	0.071813
N50	N	0.649699	0.123674	0.071808
C51	C	0.633800	0.192178	-0.000014
C52	C	0.686319	-0.073256	0.060566
C53	C	0.686319	-0.133877	0.060575
C54	C	0.581335	-0.028909	-0.060563
C55	C	0.581333	0.031709	-0.060565
C56	C	0.633828	0.009530	-0.000000
C57	C	0.443729	0.633715	0.000007
C58	C	0.379217	0.633714	0.000010
C59	C	0.386022	0.559488	0.042826
C60	C	0.325407	0.559487	0.042829
C61	C	0.257986	0.633716	0.000001
C62	C	0.251183	0.707952	-0.042817
C63	C	0.311799	0.707951	-0.042813
N64	N	0.135194	0.688968	-0.069703
N65	N	0.077614	0.688964	-0.069706
C66	C	0.075354	0.633723	-0.000014
N67	N	0.132854	0.578474	0.069680
N68	N	0.190440	0.578476	0.069681
C69	C	0.192255	0.633725	-0.000008
C70	C	0.016435	0.559491	0.042810
C71	C	-0.044183	0.559492	0.042816
C72	C	-0.118406	0.707960	-0.042838
C73	C	-0.057788	0.707956	-0.042836
C74	C	0.009630	0.633719	-0.000014
C75	C	0.823889	0.633721	-0.000009
C76	C	0.888401	0.633723	-0.000012
C77	C	0.633800	0.633716	-0.219330
C78	C	0.633798	0.633716	-0.293769
C79	C	0.633828	0.823787	0.000007
C80	C	0.633834	0.888295	0.000009
C81	C	0.581316	0.633723	-0.534983
C82	C	0.581313	0.633720	-0.465038
C83	C	0.686307	0.633711	-0.465022
C84	C	0.686312	0.633708	-0.534962
C85	C	0.633813	0.633718	-0.569943
C86	C	0.633804	0.633718	-0.430058
C87	C	0.633801	0.633715	-0.354221
C88	C	0.633817	0.633720	-0.645785
C89	C	0.633817	0.633720	0.219329
C90	C	0.633820	0.633721	0.293767
C91	C	0.823870	0.443652	-0.000017
C92	C	0.888375	0.379146	-0.000022
C93	C	0.633798	0.443651	0.219321
C94	C	0.633795	0.379144	0.293757
C95	C	0.823878	0.443654	0.219313
C96	C	0.888386	0.379148	0.293746
C97	C	0.443739	0.823782	-0.219315
C98	C	0.379231	0.888288	-0.293748
C99	C	0.443748	0.823784	0.000015
C100	C	0.379243	0.888291	0.000020
C101	C	0.633820	0.823785	-0.219323
C102	C	0.633823	0.888292	-0.293758
C103	C	0.881549	0.348852	-0.042859
C104	C	0.942152	0.288249	-0.042880
C105	C	1.009581	0.257938	-0.000060
C106	C	1.016406	0.288238	0.042778
C107	C	0.955804	0.348843	0.042795
C108	C	0.670911	0.348852	0.371547
C109	C	0.670905	0.288249	0.441494
C110	C	0.633786	0.257936	0.433649
C111	C	0.596665	0.288234	0.355851
C112	C	0.596667	0.348840	0.285905
C113	C	0.955802	0.348856	0.285870
C114	C	1.016419	0.288254	0.355801
C115	C	1.009620	0.257942	0.433607
C116	C	0.942198	0.288240	0.441481
C117	C	0.881582	0.348845	0.371551
C118	C	0.311816	0.918588	-0.285872
C119	C	0.251198	0.979208	-0.355803
C120	C	0.257997	1.009524	-0.433609
C121	C	0.325420	0.979222	-0.441483
C122	C	0.386036	0.918606	-0.371553
C123	C	0.386069	0.918591	0.042850
C124	C	0.325465	0.979210	0.042852
C125	C	0.258036	1.009524	0.000029
C126	C	0.251211	0.979221	-0.042806
C127	C	0.311814	0.918607	-0.042812
C128	C	0.670950	0.918587	-0.285887
C129	C	0.670967	0.979190	-0.355821
C130	C	0.633853	1.009502	-0.433625
C131	C	0.596726	0.979201	-0.441494
C132	C	0.596713	0.918595	-0.371562
H133	H	0.729061	-0.091316	0.109885
Cl134	Cl	0.550005	0.250115	0.346002
H135	H	0.538538	0.468730	-0.109890
H136	H	0.196306	1.003870	-0.349376
Cl137	Cl	0.550027	0.880526	-0.381471
H138	H	0.826650	0.373531	-0.077738
Cl139	Cl	0.717614	0.880492	-0.188085
Cl140	Cl	0.166437	1.017335	-0.096633
Cl141	Cl	0.166427	0.801269	-0.096654
H142	H	0.729050	0.633704	-0.436534
Cl143	Cl	0.752317	0.633696	-0.578913
H144	H	0.961372	0.373501	0.077682
H145	H	0.633869	1.058851	-0.490562
Cl146	Cl	0.550064	1.017324	-0.539312
H147	H	0.538566	0.633723	-0.436575
H148	H	0.306252	0.768397	-0.077677
Cl149	Cl	0.933556	0.250167	-0.096734
H150	H	0.566444	0.373495	0.222568
Cl151	Cl	1.085762	0.181745	-0.000086
H152	H	0.538562	0.358746	-0.109886
Cl153	Cl	0.752266	0.268473	0.136693
Cl154	Cl	0.181786	1.085726	-0.521515
Cl155	Cl	0.101191	0.466166	0.096648
H156	H	0.729029	0.168321	0.109874
H157	H	1.071315	0.263550	0.077641
H158	H	0.961351	0.373527	0.222523
Cl159	Cl	0.717583	0.386946	0.381430
Cl160	Cl	1.101170	0.250174	0.345884
Cl161	Cl	-0.035623	0.466170	0.096657
Cl162	Cl	0.752313	-0.237955	0.136721
Cl163	Cl	0.717579	0.250170	0.539287
H164	H	0.538602	-0.010859	-0.109876
H165	H	0.330947	1.003913	-0.504841
H166	H	0.633790	0.208587	0.490610
H167	H	1.058984	0.208593	0.490542
H168	H	0.936673	0.263551	0.504840
H169	H	0.440927	0.893937	-0.377975
Cl170	Cl	0.717640	1.017274	-0.345909
H171	H	0.538590	0.099118	-0.109883
Cl172	Cl	0.334062	1.017289	0.096709
Cl173	Cl	0.333958	0.466166	0.096655
Cl174	Cl	0.796833	0.386915	0.381466
H175	H	0.208695	1.058879	0.000041
H176	H	0.306267	0.893908	-0.222525
Cl177	Cl	0.303220	0.880517	-0.096655
Cl178	Cl	0.470774	0.466161	0.096665
Cl179	Cl	-0.203158	0.801278	-0.096674
H180	H	-0.063333	0.768399	-0.077707
H181	H	0.440968	0.893914	0.077727
H182	H	0.538569	0.633730	-0.563462
