data_functionalizedCrystal
_audit_creation_method	'MofGen! by Chris Wilmer'
_symmetry_space_group_name_H-M	'P1'
_symmetry_Int_Tables_number	1
_symmetry_cell_setting	triclinic
loop_
_symmetry_equiv_pos_as_xyz
  x,y,z
_cell_length_a	12.594516
_cell_length_b	11.169417
_cell_length_c	11.169409
_cell_angle_alpha	89.981053
_cell_angle_beta	89.966970
_cell_angle_gamma	90.014400
loop_
_atom_site_label
_atom_site_type_symbol
_atom_site_fract_x
_atom_site_fract_y
_atom_site_fract_z
Zn1	Zn	-0.423583	1.834950	-0.678509
Zn2	Zn	0.076417	2.334950	-0.178509
Zn3	Zn	-0.601609	1.834834	-0.477823
Zn4	Zn	-0.101609	2.334834	0.022177
Zn5	Zn	-0.423653	1.634236	-0.477846
Zn6	Zn	0.076347	2.134236	0.022154
Zn7	Zn	-0.601527	1.634238	-0.678471
Zn8	Zn	-0.101527	2.134238	-0.178471
O9	O	-0.512593	1.734565	-0.578162
O10	O	-0.012593	2.234565	-0.078162
O11	O	-0.447203	2.002884	-0.651894
O12	O	0.052797	2.502884	-0.151894
O13	O	-0.578066	1.808175	-0.309877
O14	O	-0.078066	2.308175	0.190123
O15	O	-0.274698	1.660909	-0.504490
O16	O	0.225302	2.160909	-0.004490
O17	O	-0.577998	2.002799	-0.504451
O18	O	-0.077998	2.502799	-0.004451
O19	O	-0.274646	1.808372	-0.651916
O20	O	0.225354	2.308372	-0.151916
O21	O	-0.447322	1.660796	-0.309893
O22	O	0.052678	2.160796	0.190107
O23	O	-0.447243	1.466287	-0.504454
O24	O	0.052757	1.966287	-0.004454
O25	O	-0.577859	1.660912	-0.846426
O26	O	-0.077859	2.160912	-0.346426
O27	O	-0.577927	1.466288	-0.651852
O28	O	-0.077927	1.966288	-0.151852
O29	O	-0.447124	1.808375	-0.846454
O30	O	0.052876	2.308375	-0.346454
O31	O	-0.750544	1.808177	-0.504414
O32	O	-0.250544	2.308177	-0.004414
O33	O	-0.750484	1.660800	-0.651830
O34	O	-0.250484	2.160800	-0.151830
C35	C	-0.512585	1.422740	-0.578152
C36	C	-0.012585	1.922740	-0.078152
C37	C	-0.512607	1.289340	-0.578176
C38	C	-0.012607	1.789340	-0.078176
C39	C	-0.789134	1.734509	-0.578142
C40	C	-0.289134	2.234509	-0.078142
C41	C	-0.907439	1.734595	-0.578173
C42	C	-0.407439	2.234595	-0.078173
C43	C	-0.512475	1.734657	-0.891205
C44	C	-0.012475	2.234657	-0.391205
C45	C	-0.512424	1.734696	-1.024605
C46	C	-0.012424	2.234696	-0.524605
C47	C	-0.976686	1.814846	-0.498079
C48	C	-0.476686	2.314846	0.001921
C49	C	-1.047373	1.844180	-0.607622
C50	C	-0.547373	2.344180	-0.107622
C51	C	-1.047552	1.705412	-0.468700
C52	C	-0.547552	2.205412	0.031300
C53	C	-0.976568	1.763984	-0.687773
C54	C	-0.476568	2.263984	-0.187773
C55	C	-0.976740	1.625165	-0.548777
C56	C	-0.476740	2.125165	-0.048777
C57	C	-1.047395	1.654457	-0.658395
C58	C	-0.547395	2.154457	-0.158395
C59	C	-0.234972	1.734653	-0.578210
C60	C	0.265028	2.234653	-0.078210
C61	C	-0.116667	1.734691	-0.578230
C62	C	0.383333	2.234691	-0.078230
C63	C	-0.512602	2.047607	-0.578174
C64	C	-0.012602	2.547607	-0.078174
C65	C	-0.512605	2.181007	-0.578179
C66	C	-0.012605	2.681007	-0.078179
C67	C	-0.512634	1.734542	-0.266338
C68	C	-0.012634	2.234542	0.233662
C69	C	-0.512384	1.734735	-0.132938
C70	C	-0.012384	2.234735	0.367062
H71	H	-0.945638	1.882723	-0.430408
H72	H	-0.445638	2.382723	0.069592
O73	O	-1.084349	1.954700	-0.637126
O74	O	-0.584349	2.454700	-0.137126
C75	C	-1.048310	2.038996	-0.552449
C76	C	-0.548310	2.538996	-0.052449
H77	H	-1.028536	1.991304	-0.465012
H78	H	-0.528536	2.491304	0.034988
H79	H	-1.113054	2.108315	-0.535698
H80	H	-0.613054	2.608315	-0.035698
H81	H	-0.974200	2.085534	-0.588162
H82	H	-0.474200	2.585534	-0.088162
H83	H	-1.078246	1.586632	-0.726231
H84	H	-0.578246	2.086632	-0.226231
O85	O	-0.939361	1.793647	-0.798196
O86	O	-0.439361	2.293647	-0.298196
C87	C	-0.827420	1.793257	-0.796826
C88	C	-0.327420	2.293257	-0.296826
H89	H	-0.798180	1.806641	-0.701189
H90	H	-0.298180	2.306641	-0.201189
H91	H	-0.796422	1.868922	-0.855793
H92	H	-0.296422	2.368922	-0.355793
H93	H	-0.797140	1.703898	-0.832389
H94	H	-0.297140	2.203898	-0.332389
O95	O	-1.084799	1.676116	-0.358196
O96	O	-0.584799	2.176116	0.141804
C97	C	-1.147936	1.770447	-0.313864
C98	C	-0.647936	2.270447	0.186136
H99	H	-1.124805	1.857487	-0.360403
H100	H	-0.624805	2.357487	0.139597
H101	H	-1.134864	1.779858	-0.213320
H102	H	-0.634864	2.279858	0.286680
H103	H	-1.235190	1.750276	-0.332020
H104	H	-0.735190	2.250276	0.167980
O105	O	-0.939508	1.514804	-0.519118
O106	O	-0.439508	2.014804	-0.019118
C107	C	-0.827572	1.516055	-0.520556
C108	C	-0.327572	2.016055	-0.020556
H109	H	-0.798626	1.591894	-0.580609
H110	H	-0.298626	2.091894	-0.080609
H111	H	-0.796975	1.426984	-0.556488
H112	H	-0.296975	1.926984	-0.056488
H113	H	-0.796598	1.530295	-0.425736
H114	H	-0.296598	2.030295	0.074264
