data_functionalizedCrystal
_audit_creation_method	'MofGen! by Chris Wilmer'
_symmetry_space_group_name_H-M	'P1'
_symmetry_Int_Tables_number	1
_symmetry_cell_setting	triclinic
loop_
_symmetry_equiv_pos_as_xyz
  x,y,z
_cell_length_a	16.992694
_cell_length_b	16.974885
_cell_length_c	16.176319
_cell_angle_alpha	93.647026
_cell_angle_beta	90.001613
_cell_angle_gamma	92.975758
loop_
_atom_site_label
_atom_site_type_symbol
_atom_site_fract_x
_atom_site_fract_y
_atom_site_fract_z
O1	O	-1.040213	0.167649	-0.057432
O2	O	-0.706879	0.500982	0.275901
O3	O	-0.373546	0.834315	0.609235
O4	O	-0.811929	0.165809	-0.057579
O5	O	-0.478596	0.499143	0.275754
O6	O	-0.145263	0.832476	0.609087
O7	O	-0.932436	0.052030	-0.065170
O8	O	-0.599102	0.385363	0.268164
O9	O	-0.265769	0.718696	0.601497
O10	O	-0.919706	0.281428	-0.049841
O11	O	-0.586373	0.614762	0.283492
O12	O	-0.253040	0.948095	0.616825
O13	O	-0.932419	0.052021	0.072323
O14	O	-0.599086	0.385354	0.405656
O15	O	-0.265752	0.718688	0.738989
O16	O	-0.811913	0.165801	0.079913
O17	O	-0.478580	0.499134	0.413247
O18	O	-0.145246	0.832467	0.746580
O19	O	-1.040196	0.167640	0.080061
O20	O	-0.706863	0.500973	0.413394
O21	O	-0.373530	0.834306	0.746727
Cu22	Cu	-0.926053	0.166719	0.092541
Cu23	Cu	-0.592720	0.500053	0.425875
Cu24	Cu	-0.259386	0.833386	0.759208
Cu25	Cu	-0.926073	0.166730	-0.070060
Cu26	Cu	-0.592739	0.500063	0.263274
Cu27	Cu	-0.259406	0.833396	0.596607
O28	O	-0.919690	0.281420	0.087651
O29	O	-0.586357	0.614753	0.420985
O30	O	-0.253023	0.948086	0.754318
C31	C	-0.782711	0.163439	0.011006
C32	C	-0.449378	0.496772	0.344339
C33	C	-0.116044	0.830106	0.677672
C34	C	-0.695675	0.156379	0.010525
C35	C	-0.362341	0.489713	0.343858
C36	C	-0.029008	0.823046	0.677191
C37	C	-0.931943	0.022537	0.001604
C38	C	-0.598610	0.355870	0.334937
C39	C	-0.265277	0.689203	0.668271
C40	C	-0.930492	-0.065330	-0.004273
C41	C	-0.597158	0.268003	0.329060
C42	C	-0.263825	0.601336	0.662393
C43	C	-1.069414	0.170010	0.011474
C44	C	-0.736081	0.503344	0.344807
C45	C	-0.402748	0.836677	0.678141
C46	C	-1.156451	0.177070	0.011950
C47	C	-0.823118	0.510403	0.345283
C48	C	-0.489784	0.843736	0.678616
C49	C	-0.645360	0.224494	0.015077
C50	C	-0.312027	0.557827	0.348410
C51	C	0.021306	0.891161	0.681743
C52	C	-0.563581	0.217856	0.014645
C53	C	-0.230248	0.551189	0.347978
C54	C	0.103086	0.884523	0.681311
C55	C	-0.532117	0.143103	0.009654
C56	C	-0.198784	0.476436	0.342988
C57	C	0.134549	0.809770	0.676321
C58	C	-0.582438	0.074983	0.005104
C59	C	-0.249105	0.408317	0.338438
C60	C	0.084229	0.741650	0.671771
C61	C	-0.664216	0.081622	0.005542
C62	C	-0.330883	0.414955	0.338876
C63	C	0.002451	0.748289	0.672209
C64	C	-0.288549	0.115589	0.007838
C65	C	0.044784	0.448922	0.341171
C66	C	0.378117	0.782255	0.674505
C67	C	-0.206765	0.108955	0.007398
C68	C	0.126568	0.442289	0.340731
C69	C	0.459901	0.775622	0.674064
C70	C	-0.187914	0.251829	0.016939
C71	C	0.145420	0.585162	0.350273
C72	C	0.478753	0.918495	0.683606
C73	C	-0.269694	0.258461	0.017372
C74	C	0.063639	0.591794	0.350705
C75	C	0.396973	0.925127	0.684039
C76	C	-0.320007	0.190341	0.012827
C77	C	0.013326	0.523674	0.346160
C78	C	0.346659	0.857008	0.679493
N79	N	-0.448526	0.136316	0.009210
N80	N	-0.115193	0.469650	0.342543
N81	N	0.218141	0.802983	0.675877
N82	N	-0.403597	0.197128	0.013277
N83	N	-0.070264	0.530462	0.346610
N84	N	0.263069	0.863795	0.679944
N85	N	-0.926045	0.166712	0.206906
N86	N	-0.592712	0.500045	0.540239
N87	N	-0.259378	0.833379	0.873573
C88	C	-0.929799	-0.106622	0.067909
C89	C	-0.596466	0.226711	0.401242
C90	C	-0.263132	0.560044	0.734576
C91	C	-0.928440	-0.189183	0.062380
C92	C	-0.595107	0.144150	0.395713
C93	C	-0.261773	0.477483	0.729046
C94	C	-0.927768	-0.230450	-0.015333
C95	C	-0.594435	0.102883	0.318000
C96	C	-0.261102	0.436217	0.651333
C97	C	-0.928464	-0.189152	-0.087521
C98	C	-0.595130	0.144181	0.245812
C99	C	-0.261797	0.477514	0.579146
C100	C	-0.929828	-0.106594	-0.081991
C101	C	-0.596495	0.226740	0.251343
C102	C	-0.263162	0.560073	0.584676
C103	C	-0.923694	-0.477364	-0.039910
C104	C	-0.590360	-0.144030	0.293423
C105	C	-0.257027	0.189303	0.626757
C106	C	-0.922327	-0.559928	-0.045435
C107	C	-0.588993	-0.226595	0.287899
C108	C	-0.255660	0.106738	0.621232
C109	C	-0.922305	-0.559954	0.104466
C110	C	-0.588971	-0.226620	0.437800
C111	C	-0.255638	0.106713	0.771133
C112	C	-0.923664	-0.477393	0.109990
C113	C	-0.590331	-0.144059	0.443323
C114	C	-0.256998	0.189274	0.776657
C115	C	-0.924364	-0.436103	0.037802
C116	C	-0.591030	-0.102769	0.371135
C117	C	-0.257697	0.230564	0.704469
N118	N	-0.926377	-0.314840	-0.020987
N119	N	-0.593043	0.018493	0.312346
N120	N	-0.259710	0.351826	0.645679
N121	N	-0.925761	-0.351714	0.043457
N122	N	-0.592428	-0.018381	0.376790
N123	N	-0.259094	0.314952	0.710124
C124	C	-0.920182	0.310912	0.020876
C125	C	-0.586849	0.644246	0.354209
C126	C	-0.253516	0.977579	0.687542
C127	C	-0.921634	0.398780	0.026748
C128	C	-0.588300	0.732113	0.360081
C129	C	-0.254967	1.065446	0.693414
N130	N	-0.926087	0.166731	-0.184425
N131	N	-0.592754	0.500065	0.148909
N132	N	-0.259420	0.833398	0.482242
C133	C	-0.979421	0.116353	0.246811
C134	C	-0.646088	0.449687	0.580144
C135	C	-0.312755	0.783020	0.913477
C136	C	-0.979425	0.116353	0.333358
C137	C	-0.646092	0.449686	0.666691
C138	C	-0.312759	0.783019	1.000024
C139	C	-0.926056	0.166715	0.379999
C140	C	-0.592723	0.500049	0.713332
C141	C	-0.259389	0.833382	1.046665
C142	C	-0.872674	0.217076	0.340088
C143	C	-0.539341	0.550410	0.673422
C144	C	-0.206007	0.883743	1.006755
C145	C	-0.872667	0.217072	0.253543
C146	C	-0.539334	0.550406	0.586876
C147	C	-0.206000	0.883739	0.920209
C148	C	-0.872701	0.217093	0.689118
C149	C	-0.539368	0.550426	1.022451
C150	C	-0.206034	0.883759	1.355784
C151	C	-0.872714	0.217095	0.775669
C152	C	-0.539380	0.550428	1.109003
C153	C	-0.206047	0.883761	1.442336
C154	C	-0.979459	0.116373	0.768933
C155	C	-0.646126	0.449707	1.102266
C156	C	-0.312792	0.783040	1.435599
C157	C	-0.979452	0.116369	0.682387
C158	C	-0.646119	0.449703	1.015720
C159	C	-0.312785	0.783036	1.349054
C160	C	-0.926068	0.166727	0.642484
C161	C	-0.592734	0.500060	0.975817
C162	C	-0.259401	0.833393	1.309150
C163	C	-0.926063	0.166726	0.548640
C164	C	-0.592730	0.500059	0.881973
C165	C	-0.259396	0.833392	1.215306
C166	C	-0.926064	0.166721	0.473842
C167	C	-0.592731	0.500054	0.807175
C168	C	-0.259397	0.833388	1.140508
H169	H	-0.670971	0.285366	0.019140
H170	H	-0.337638	0.618699	0.352473
H171	H	-0.004304	0.952033	0.685806
H172	H	-0.927922	-0.222759	-0.150796
H173	H	-0.594588	0.110575	0.182537
H174	H	-0.261255	0.443908	0.515870
H175	H	-0.556814	0.014118	0.001053
H176	H	-0.223481	0.347451	0.334386
H177	H	0.109852	0.680784	0.667720
H178	H	-0.930333	-0.073028	0.131191
H179	H	-0.596999	0.260305	0.464525
H180	H	-0.263666	0.593639	0.797858
H181	H	-1.022888	0.075346	0.365847
H182	H	-0.689554	0.408680	0.699181
H183	H	-0.356221	0.742013	1.032514
H184	H	-0.924228	-0.443800	0.173272
H185	H	-0.590895	-0.110467	0.506605
H186	H	-0.257562	0.222867	0.839938
H187	H	-0.829251	0.258107	0.813644
H188	H	-0.495918	0.591441	1.146977
H189	H	-0.162585	0.924774	1.480310
H190	H	-1.022913	0.075362	0.644414
H191	H	-0.689579	0.408695	0.977748
H192	H	-0.356246	0.742029	1.311081
H193	H	-0.930393	-0.072975	-0.140769
H194	H	-0.597060	0.260359	0.192564
H195	H	-0.263726	0.593692	0.525897
H196	H	-0.921772	-0.593525	-0.108721
H197	H	-0.588439	-0.260192	0.224612
H198	H	-0.255105	0.073142	0.557946
H199	H	-0.295305	0.319332	0.021426
H200	H	0.038028	0.652666	0.354759
H201	H	0.371362	0.985999	0.688093
H202	H	-1.022884	0.075346	0.208841
H203	H	-0.689550	0.408679	0.542174
H204	H	-0.356217	0.742012	0.875507
H205	H	-0.924262	-0.443755	-0.098690
H206	H	-0.590928	-0.110422	0.234643
H207	H	-0.257595	0.222911	0.567976
H208	H	-0.927879	-0.222800	0.121158
H209	H	-0.594546	0.110533	0.454492
H210	H	-0.261213	0.443867	0.787825
H211	H	-0.146940	0.307287	0.020642
H212	H	0.186393	0.640621	0.353975
H213	H	0.519727	0.973954	0.687309
H214	H	-0.829202	0.258078	0.221053
H215	H	-0.495868	0.591412	0.554387
H216	H	-0.162535	0.924745	0.887720
H217	H	-0.181151	0.048079	0.003333
H218	H	0.152182	0.381413	0.336666
H219	H	0.485515	0.714746	0.670000
H220	H	-1.022925	0.075367	0.801431
H221	H	-0.689592	0.408700	1.134764
H222	H	-0.356259	0.742033	1.468097
H223	H	-0.829235	0.258097	0.656635
H224	H	-0.495902	0.591430	0.989969
H225	H	-0.162568	0.924764	1.323302
H226	H	-0.522618	0.273322	0.018350
H227	H	-0.189284	0.606656	0.351684
H228	H	0.144049	0.939989	0.685017
H229	H	-0.329506	0.060121	0.004137
H230	H	0.003828	0.393454	0.337471
H231	H	0.337161	0.726787	0.670804
H232	H	-0.829216	0.258080	0.378068
H233	H	-0.495883	0.591413	0.711402
H234	H	-0.162549	0.924746	1.044735
H235	H	-0.705182	0.026156	0.001835
H236	H	-0.371848	0.359489	0.335168
H237	H	-0.038515	0.692822	0.668502
H238	H	-0.921736	-0.593581	0.163238
H239	H	-0.588403	-0.260248	0.496571
H240	H	-0.255069	0.073086	0.829904
