data_functionalizedCrystal
_audit_creation_method	'MofGen! by Chris Wilmer'
_symmetry_space_group_name_H-M	'P1'
_symmetry_Int_Tables_number	1
_symmetry_cell_setting	triclinic
loop_
_symmetry_equiv_pos_as_xyz
  x,y,z
_cell_length_a	17.766277
_cell_length_b	19.288864
_cell_length_c	19.288865
_cell_angle_alpha	96.863755
_cell_angle_beta	89.988397
_cell_angle_gamma	90.023209
loop_
_atom_site_label
_atom_site_type_symbol
_atom_site_fract_x
_atom_site_fract_y
_atom_site_fract_z
O1	O	-0.062844	-0.921353	0.086649
O2	O	-0.062794	-0.719092	0.098337
O3	O	-0.062806	-0.826067	-0.008637
O4	O	-0.062832	-0.814378	0.193623
O5	O	0.062383	-0.826048	-0.008643
O6	O	0.062395	-0.719074	0.098332
O7	O	0.062344	-0.921334	0.086643
Cu8	Cu	0.073800	-0.820202	0.092487
Cu9	Cu	-0.074250	-0.820224	0.092494
O10	O	0.062356	-0.814360	0.193618
C11	C	-0.000193	-0.693207	0.097959
C12	C	-0.000173	-0.616103	0.096830
N13	N	0.177931	-0.820192	0.092482
N14	N	-0.178380	-0.820241	0.092493
C15	C	-0.000209	-0.825682	-0.034516
C16	C	-0.000202	-0.824553	-0.111620
C17	C	0.217312	-0.867575	0.045137
C18	C	0.296114	-0.867579	0.045134
C19	C	0.335531	-0.820206	0.092488
C20	C	0.296140	-0.772814	0.139837
C21	C	0.217340	-0.772807	0.139834
C22	C	0.460362	-0.810908	0.155775
C23	C	0.539161	-0.810920	0.155779
C24	C	0.578577	-0.820225	0.092496
C25	C	0.539185	-0.829533	0.029207
C26	C	0.460385	-0.829525	0.029204
C27	C	0.420977	-0.820209	0.092496
C28	C	0.703405	-0.867616	0.045143
C29	C	0.782208	-0.867615	0.045139
C30	C	0.782233	-0.772853	0.139848
C31	C	0.703431	-0.772850	0.139846
C32	C	0.664022	-0.820235	0.092495
C33	C	-0.000258	-0.947220	0.087022
C34	C	-0.000283	-1.024324	0.088151
C35	C	-0.000193	-0.571407	0.159598
C36	C	-0.000201	-0.498960	0.158537
C37	C	-0.000205	-0.471212	0.094705
C38	C	-0.000180	-0.515918	0.031929
C39	C	-0.000164	-0.588364	0.032991
C40	C	-0.044082	-0.362957	0.044527
C41	C	-0.044103	-0.290512	0.043468
C42	C	-0.000250	-0.247767	0.091425
C43	C	0.043614	-0.277473	0.140454
C44	C	0.043630	-0.349918	0.141517
C45	C	-0.000221	-0.392658	0.093546
C46	C	-0.000278	-0.124514	0.153047
C47	C	-0.000281	-0.052066	0.151984
C48	C	-0.000267	-0.069026	0.025374
C49	C	-0.000256	-0.141473	0.026439
C50	C	-0.000265	-0.169212	0.090278
C51	C	-0.000214	-0.887321	-0.156316
C52	C	-0.000226	-0.886260	-0.228763
C53	C	-0.000210	-0.822428	-0.256511
C54	C	-0.000203	-0.759652	-0.211805
C55	C	-0.000198	-0.760714	-0.139359
C56	C	0.043653	-0.772242	-0.364800
C57	C	0.043654	-0.771182	-0.437245
C58	C	-0.000226	-0.819148	-0.479956
C59	C	-0.044097	-0.868186	-0.450216
C60	C	-0.044093	-0.869249	-0.377771
C61	C	-0.000215	-0.821269	-0.335065
C62	C	-0.000252	-0.880770	-0.603209
C63	C	-0.000268	-0.879707	-0.675657
C64	C	-0.000238	-0.753097	-0.658697
C65	C	-0.000229	-0.754162	-0.586250
C66	C	-0.000232	-0.818001	-0.558511
C67	C	-0.000242	-0.814745	0.219497
C68	C	-0.000254	-0.815874	0.296601
H69	H	0.185228	-0.906158	0.006579
C70	C	-0.000267	-0.038516	-0.044842
H71	H	-0.000250	-0.075515	-0.082074
H72	H	-0.043926	-0.010629	-0.047889
H73	H	0.043391	-0.010587	-0.047888
C74	C	0.339443	-0.919705	-0.006947
H75	H	0.304686	-0.947926	-0.035145
H76	H	0.370207	-0.894817	-0.035797
H77	H	0.370158	-0.948539	0.017977
H78	H	-0.000192	-0.707679	-0.234401
H79	H	-0.079797	-0.397755	0.005473
H80	H	-0.000202	-0.593987	0.211580
H81	H	0.428276	-0.803318	0.207311
H82	H	0.079371	-0.731249	-0.461453
H83	H	-0.079822	-0.266331	0.003548
H84	H	0.814325	-0.734278	0.178402
H85	H	-0.000258	-0.932751	-0.580622
C86	C	-0.000178	-0.691666	-0.090191
H87	H	-0.000167	-0.653497	-0.117090
H88	H	-0.043829	-0.689456	-0.061564
H89	H	0.043489	-0.689445	-0.061592
C90	C	0.339495	-0.720707	0.191927
H91	H	0.392067	-0.727502	0.185153
H92	H	0.326611	-0.674375	0.184501
H93	H	0.326562	-0.728106	0.238267
C94	C	-0.000246	-0.190641	-0.042607
H95	H	-0.000255	-0.163742	-0.080776
H96	H	0.043415	-0.219232	-0.044828
H97	H	-0.043902	-0.219276	-0.044819
C98	C	-0.000188	-0.485399	-0.038285
H99	H	-0.000209	-0.435851	-0.029928
H100	H	0.043473	-0.500729	-0.064125
H101	H	-0.043844	-0.500782	-0.064116
H102	H	0.079347	-0.374102	0.181436
C103	C	0.091850	-0.230462	0.193214
H104	H	0.085566	-0.183062	0.185558
H105	H	0.076422	-0.236188	0.239342
H106	H	0.143324	-0.243125	0.187282
H107	H	0.571228	-0.803345	0.207313
H108	H	0.079389	-0.733180	-0.330029
C109	C	-0.000290	-0.948753	-0.724826
H110	H	-0.000303	-0.938979	-0.771946
H111	H	0.043361	-0.974932	-0.716453
H112	H	-0.043956	-0.974942	-0.716423
H113	H	0.185274	-0.734220	0.178389
H114	H	-0.000229	-0.701123	-0.681288
H115	H	-0.000216	-0.462561	0.209652
H116	H	-0.000148	-0.624756	-0.018124
H117	H	-0.079815	-0.909176	-0.353560
H118	H	0.428315	-0.837102	-0.022328
H119	H	0.814274	-0.906198	0.006581
H120	H	-0.000274	-0.147101	0.205028
H121	H	-0.000220	-0.939303	-0.133736
C122	C	0.582532	-0.839763	-0.040408
H123	H	0.635105	-0.838426	-0.031346
H124	H	0.569605	-0.883645	-0.065293
H125	H	0.569640	-0.803518	-0.067530
H126	H	-0.079829	-0.907245	-0.484991
C127	C	-0.000233	-0.955307	-0.277938
H128	H	-0.000230	-0.993478	-0.251041
H129	H	-0.043889	-0.957535	-0.306545
H130	H	0.043429	-0.957509	-0.306557
H131	H	-0.000215	-0.703049	-0.549857
H132	H	0.671317	-0.906198	0.006585
H133	H	0.671364	-0.734269	0.178402
C134	C	-0.000304	-0.002900	0.221032
H135	H	-0.000313	-0.029799	0.259201
H136	H	0.043347	0.025738	0.223253
H137	H	-0.043971	0.025690	0.223246
