data_functionalizedCrystal
_audit_creation_method	'MofGen! by Chris Wilmer'
_symmetry_space_group_name_H-M	'P1'
_symmetry_Int_Tables_number	1
_symmetry_cell_setting	triclinic
loop_
_symmetry_equiv_pos_as_xyz
  x,y,z
_cell_length_a	11.026607
_cell_length_b	27.732048
_cell_length_c	10.065875
_cell_angle_alpha	98.710990
_cell_angle_beta	79.302338
_cell_angle_gamma	95.614336
loop_
_atom_site_label
_atom_site_type_symbol
_atom_site_fract_x
_atom_site_fract_y
_atom_site_fract_z
O1	O	1.624242	0.196525	-0.113550
O2	O	1.271367	0.173515	-0.113545
O3	O	1.458760	0.115611	-0.113522
O4	O	1.436849	0.254429	-0.113573
O5	O	1.423025	0.126709	0.113462
O6	O	1.235632	0.184613	0.113439
O7	O	1.588508	0.207623	0.113434
Zn8	Zn	1.406396	0.197880	0.149475
Zn9	Zn	1.453478	0.183258	-0.149586
O10	O	1.401115	0.265527	0.113411
C11	C	1.208368	0.174819	-0.000052
C12	C	1.073891	0.162164	-0.000049
C13	C	0.999432	0.197105	-0.000063
C14	C	0.860443	0.184027	-0.000060
C15	C	1.440432	0.103112	-0.000026
C16	C	1.439045	0.049333	-0.000015
C17	C	1.541073	-0.280305	-0.000086
C18	C	1.535935	-0.482428	-0.000105
O19	O	1.629232	-0.505292	-0.000166
N20	N	1.424816	-0.511552	-0.000102
C21	C	1.314975	-0.490142	-0.000104
O22	O	1.220346	-0.519552	-0.000116
C23	C	1.320116	-0.288020	-0.000094
C24	C	1.431240	-0.258898	-0.000083
C25	C	1.652188	-0.251184	-0.000077
C26	C	1.653470	-0.200655	-0.000064
C27	C	1.543637	-0.179249	-0.000062
C28	C	1.432522	-0.208370	-0.000071
C29	C	1.210278	-0.266612	-0.000106
C30	C	1.211573	-0.216078	-0.000107
C31	C	1.322697	-0.186956	-0.000096
C32	C	1.323971	-0.136436	-0.000056
N33	N	1.435090	-0.107312	-0.000059
C34	C	1.544923	-0.128719	-0.000062
C35	C	1.312284	-0.596258	-0.000106
C36	C	1.310998	-0.646789	-0.000106
C37	C	1.531959	-0.639071	-0.000110
C38	C	1.533242	-0.588540	-0.000100
C39	C	1.423403	-0.567135	-0.000109
C40	C	1.547607	-0.022606	-0.000035
C41	C	1.548878	0.027926	-0.000017
C42	C	1.327919	0.020204	-0.000021
C43	C	1.326646	-0.030324	-0.000031
C44	C	1.436500	-0.051727	-0.000043
O45	O	1.230726	-0.113540	-0.000011
O46	O	1.639543	-0.099302	-0.000080
C47	C	1.539791	-0.330833	-0.000098
C48	C	1.428676	-0.359955	-0.000108
C49	C	1.318842	-0.338548	-0.000105
C50	C	1.427390	-0.410485	-0.000108
C51	C	1.537223	-0.431891	-0.000110
C52	C	1.648342	-0.402768	-0.000113
C53	C	1.649624	-0.352240	-0.000101
C54	C	1.207723	-0.367671	-0.000102
C55	C	1.206450	-0.418199	-0.000113
C56	C	1.316283	-0.439606	-0.000116
C57	C	1.651507	0.206319	-0.000062
C58	C	1.785985	0.218973	-0.000074
C59	C	1.419443	0.278026	-0.000088
C60	C	1.420832	0.331805	-0.000108
N61	N	1.374273	0.207860	0.353577
N62	N	1.485611	0.173275	-0.353688
C63	C	1.442294	0.186727	0.421364
C64	C	1.417580	0.194412	0.578528
H65	H	0.821303	0.144426	-0.000080
Br66	Br	1.290004	0.234050	0.675709
H67	H	1.518821	0.162941	0.363050
H68	H	1.562143	0.149488	0.588001
Br69	Br	1.064671	0.263105	-0.000079
H70	H	1.297738	0.231641	0.411893
Br71	Br	0.851212	0.284977	-0.000073
Br72	Br	1.684058	-0.549022	-0.000082
Br73	Br	1.008648	0.096166	-0.000009
H74	H	1.639372	0.051636	-0.000005
H75	H	1.637062	-0.040027	-0.000050
Br76	Br	1.804296	-0.161142	-0.000088
H77	H	1.741634	-0.268607	-0.000084
Br78	Br	1.160176	-0.686303	-0.000088
Br79	Br	1.681019	-0.668133	-0.000117
Br80	Br	1.163202	-0.567217	-0.000120
H81	H	1.122127	-0.198653	-0.000116
Br82	Br	1.059457	-0.306122	-0.000126
H83	H	1.236153	-0.054034	-0.000002
H84	H	1.238495	0.037643	-0.000014
H85	H	1.740113	-0.328533	-0.000092
H86	H	1.737771	-0.420206	-0.000109
H87	H	1.115951	-0.441906	-0.000110
H88	H	1.118282	-0.350248	-0.000103
