data_functionalizedCrystal
_audit_creation_method	'MofGen! by Chris Wilmer'
_symmetry_space_group_name_H-M	'P1'
_symmetry_Int_Tables_number	1
_symmetry_cell_setting	triclinic
loop_
_symmetry_equiv_pos_as_xyz
  x,y,z
_cell_length_a	19.188925
_cell_length_b	7.540329
_cell_length_c	9.065218
_cell_angle_alpha	90.000511
_cell_angle_beta	84.079217
_cell_angle_gamma	90.005174
loop_
_atom_site_label
_atom_site_type_symbol
_atom_site_fract_x
_atom_site_fract_y
_atom_site_fract_z
O1	O	0.102372	0.147486	1.956837
O2	O	0.110769	0.147488	1.527260
O3	O	0.005011	0.147477	1.754449
O4	O	0.208130	0.147497	1.729648
O5	O	0.005005	-0.147488	1.754448
O6	O	0.110763	-0.147477	1.527259
O7	O	0.102366	-0.147479	1.956835
Cu8	Cu	0.106564	-0.174411	1.742047
Cu9	Cu	0.106571	0.174419	1.742049
O10	O	0.208124	-0.147468	1.729646
C11	C	0.109959	0.000006	1.472301
C12	C	0.107546	0.000006	1.308542
C13	C	-0.021009	-0.000005	1.753647
C14	C	-0.098533	-0.000001	1.751240
N15	N	0.106559	-0.419759	1.742056
C16	C	-0.659393	0.000043	1.868430
C17	C	-0.586552	0.000027	1.870704
C18	C	-0.542653	0.000028	1.737397
C19	C	-0.571600	0.000000	1.601805
C20	C	-0.644440	-0.000001	1.599534
N21	N	-0.422720	0.100427	1.640888
N22	N	-0.353526	0.100433	1.643055
C23	C	-0.323191	0.000030	1.744230
N24	N	-0.364665	-0.100357	1.843180
N25	N	-0.433865	-0.100354	1.841018
C26	C	-0.463670	0.000029	1.739844
C27	C	-0.215269	0.000028	1.882279
C28	C	-0.142427	0.000001	1.884548
C29	C	-0.127477	-0.000008	1.615645
C30	C	-0.200318	0.000001	1.613380
C31	C	-0.244210	0.000027	1.746702
C32	C	0.234144	0.000017	1.730449
C33	C	0.311668	0.000025	1.732856
N34	N	0.106571	0.419768	1.742051
C35	C	0.103176	0.000007	2.011795
C36	C	0.105589	0.000018	2.175554
H37	H	-0.695126	0.000055	1.976990
H38	H	-0.668001	-0.000020	1.489130
H39	H	-0.251008	0.000048	1.990838
H40	H	-0.562984	0.000041	1.981108
H41	H	-0.535853	-0.000004	1.493266
H42	H	-0.118866	0.000004	1.994953
C43	C	-0.079791	0.000359	1.470952
C44	C	-0.037543	0.152133	1.464377
C45	C	0.006390	0.152538	1.331095
H46	H	-0.051004	-0.102382	1.466106
H47	H	-0.107439	0.000453	1.389840
H48	H	-0.009898	0.152024	1.545467
H49	H	-0.066311	0.254899	1.469198
H50	H	-0.021258	0.152631	1.249982
H51	H	0.035172	0.049790	1.326260
H52	H	0.035055	0.255522	1.326610
H53	H	-0.223880	-0.000001	1.502981
