data_functionalizedCrystal
_audit_creation_method	'MofGen! by Chris Wilmer'
_symmetry_space_group_name_H-M	'P1'
_symmetry_Int_Tables_number	1
_symmetry_cell_setting	triclinic
loop_
_symmetry_equiv_pos_as_xyz
  x,y,z
_cell_length_a	21.395364
_cell_length_b	13.897447
_cell_length_c	21.395364
_cell_angle_alpha	89.999724
_cell_angle_beta	90.017013
_cell_angle_gamma	90.034481
loop_
_atom_site_label
_atom_site_type_symbol
_atom_site_fract_x
_atom_site_fract_y
_atom_site_fract_z
Zn1	Zn	0.957861	-0.383881	0.354279
Zn2	Zn	0.957798	-0.545120	0.249510
Zn3	Zn	0.853090	-0.383882	0.249516
Zn4	Zn	0.853066	-0.545178	0.354250
O5	O	0.905454	-0.464515	0.301889
O6	O	1.045531	-0.405245	0.340391
O7	O	0.943892	-0.523707	0.161833
O8	O	0.867025	-0.248900	0.263428
O9	O	1.045484	-0.523706	0.263417
O10	O	0.944000	-0.248900	0.340398
O11	O	0.866963	-0.405247	0.161837
O12	O	0.765409	-0.405303	0.263400
O13	O	0.866983	-0.523806	0.441932
O14	O	0.765391	-0.523807	0.340347
O15	O	0.943976	-0.405301	0.441953
O16	O	0.943868	-0.680109	0.263388
O17	O	0.866922	-0.680152	0.340341
C18	C	0.742666	-0.464562	0.301871
C19	C	0.673025	-0.464605	0.301878
C20	C	0.640358	-0.403024	0.342021
C21	C	0.574923	-0.402998	0.342023
C22	C	0.542157	-0.464571	0.301890
C23	C	0.574831	-0.526157	0.261740
C24	C	0.640265	-0.526174	0.261734
C25	C	0.438444	-0.551436	0.296856
C26	C	0.373011	-0.551421	0.296867
C27	C	0.340336	-0.464518	0.301904
C28	C	0.373102	-0.377629	0.306944
C29	C	0.438536	-0.377646	0.306938
C30	C	0.471204	-0.464559	0.301891
C31	C	0.236717	-0.402904	0.342051
C32	C	0.171280	-0.402876	0.342049
C33	C	0.171189	-0.526044	0.261769
C34	C	0.236625	-0.526063	0.261768
C35	C	0.269384	-0.464494	0.301912
C36	C	0.905403	-0.715130	0.301874
C37	C	0.905438	-0.822343	0.301889
C38	C	0.905469	-0.909413	0.301903
C39	C	0.905513	-1.018646	0.301919
C40	C	1.068877	-0.464469	0.301907
C41	C	1.138518	-0.464449	0.301914
C42	C	0.905484	-0.464560	0.465312
C43	C	0.905497	-0.464579	0.534953
C44	C	0.905522	-0.212922	0.301917
C45	C	0.905551	-0.105708	0.301929
C46	C	0.945581	-0.402884	0.567679
C47	C	0.945572	-0.402868	0.633114
C48	C	0.905485	-0.464565	0.665822
C49	C	0.865393	-0.526264	0.633088
C50	C	0.865399	-0.526271	0.567654
C51	C	0.900506	-0.551460	0.769491
C52	C	0.900504	-0.551454	0.834924
C53	C	0.905462	-0.464542	0.867642
C54	C	0.910435	-0.377633	0.834920
C55	C	0.910441	-0.377640	0.769485
C56	C	0.905473	-0.464563	0.736774
C57	C	0.945538	-0.402825	0.971320
C58	C	0.945524	-0.402808	1.036757
C59	C	0.865349	-0.526212	1.036730
C60	C	0.865359	-0.526220	0.971294
C61	C	0.905457	-0.464528	0.938594
C62	C	0.905426	-0.464500	1.139101
C63	C	0.905436	-0.464503	1.069460
H64	H	0.144512	-0.576178	0.229091
C65	C	0.474380	-0.647036	0.291320
H66	H	0.445496	-0.698780	0.288330
H67	H	0.499895	-0.645701	0.255002
H68	H	0.499912	-0.655609	0.327223
C69	C	0.895033	-0.647048	0.870913
H70	H	0.892068	-0.698809	0.842057
H71	H	0.930934	-0.655524	0.896454
H72	H	0.858707	-0.645793	0.896424
H73	H	0.346338	-0.622172	0.292765
C74	C	0.916296	-0.282081	0.870900
H75	H	0.915697	-0.294537	0.914556
H76	H	0.954548	-0.251651	0.860038
H77	H	0.882369	-0.241131	0.860310
H78	H	0.263391	-0.352764	0.374735
C79	C	0.538982	-0.335267	0.386188
H80	H	0.567864	-0.298608	0.410099
H81	H	0.513463	-0.293165	0.362278
H82	H	0.513453	-0.372252	0.413446
C83	C	0.337168	-0.282031	0.312488
H84	H	0.293506	-0.294460	0.311763
H85	H	0.347921	-0.251295	0.350666
H86	H	0.347901	-0.241367	0.278446
C87	C	0.135347	-0.335133	0.386208
H88	H	0.164231	-0.298477	0.410118
H89	H	0.109834	-0.293029	0.362293
H90	H	0.109812	-0.372107	0.413467
H91	H	0.978232	-0.352649	0.541058
C92	C	0.821258	-0.594083	1.072700
H93	H	0.826998	-0.585249	1.116358
H94	H	0.779164	-0.579988	1.061960
H95	H	0.830420	-0.658893	1.061982
H96	H	0.832722	-0.576465	0.944649
H97	H	0.832752	-0.576494	0.659723
C98	C	0.272560	-0.593814	0.217617
H99	H	0.243675	-0.630488	0.193718
H100	H	0.298095	-0.556853	0.190357
H101	H	0.298072	-0.635916	0.241541
C102	C	0.895053	-0.647067	0.733504
H103	H	0.895762	-0.634625	0.689848
H104	H	0.929124	-0.687630	0.744243
H105	H	0.856896	-0.677919	0.744215
H106	H	0.465211	-0.306897	0.311041
H107	H	0.548148	-0.576290	0.229063
H108	H	0.666862	-0.576323	0.229044
H109	H	0.832755	-0.576509	0.541009
C110	C	0.989666	-0.335005	0.669123
H111	H	0.983915	-0.343833	0.712776
H112	H	1.031760	-0.349113	0.658417
H113	H	0.980514	-0.270193	0.658394
C114	C	0.676391	-0.335289	0.386170
H115	H	0.647560	-0.298602	0.410073
H116	H	0.701912	-0.372260	0.413426
H117	H	0.701924	-0.293198	0.362241
H118	H	0.978185	-0.352586	0.944694
C119	C	0.915900	-0.282048	0.733492
H120	H	0.918847	-0.230280	0.762345
H121	H	0.952219	-0.283289	0.707978
H122	H	0.879990	-0.273592	0.707955
C123	C	0.989619	-0.334940	1.072755
H124	H	1.013504	-0.298210	1.043906
H125	H	0.965664	-0.292911	1.098269
H126	H	1.016905	-0.371839	1.098294
