data_functionalizedCrystal
_audit_creation_method	'MofGen! by Chris Wilmer'
_symmetry_space_group_name_H-M	'P1'
_symmetry_Int_Tables_number	1
_symmetry_cell_setting	triclinic
loop_
_symmetry_equiv_pos_as_xyz
  x,y,z
_cell_length_a	14.971486
_cell_length_b	13.596369
_cell_length_c	14.971486
_cell_angle_alpha	90.006197
_cell_angle_beta	83.614129
_cell_angle_gamma	90.000368
loop_
_atom_site_label
_atom_site_type_symbol
_atom_site_fract_x
_atom_site_fract_y
_atom_site_fract_z
O1	O	1.186946	0.081679	0.116564
O2	O	1.686946	0.581679	0.616564
O3	O	0.926545	0.081706	0.130523
O4	O	1.426545	0.581706	0.630523
O5	O	1.063725	0.081684	-0.006656
O6	O	1.563725	0.581684	0.493344
O7	O	1.049766	0.081700	0.253744
O8	O	1.549766	0.581700	0.753744
O9	O	1.063711	-0.081898	-0.006664
O10	O	1.563711	0.418102	0.493336
O11	O	0.926532	-0.081877	0.130516
O12	O	1.426532	0.418123	0.630516
O13	O	1.186932	-0.081904	0.116557
O14	O	1.686932	0.418096	0.616557
Zn15	Zn	1.056730	-0.107863	0.123535
Zn16	Zn	1.556730	0.392137	0.623535
Zn17	Zn	1.056748	0.107665	0.123545
Zn18	Zn	1.556748	0.607665	0.623545
O19	O	1.049752	-0.081883	0.253736
O20	O	1.549752	0.418117	0.753736
C21	C	0.893214	-0.000082	0.129895
C22	C	1.393214	0.499918	0.629895
C23	C	0.793917	-0.000072	0.128024
C24	C	1.293917	0.499928	0.628024
N25	N	1.056724	-0.254955	0.123528
N26	N	1.556724	0.245045	0.623528
C27	C	0.736692	-0.000069	0.208614
C28	C	1.236692	0.499931	0.708614
C29	C	0.643392	-0.000084	0.206850
C30	C	1.143392	0.499916	0.706850
C31	C	0.607320	-0.000095	0.124497
C32	C	1.107320	0.499905	0.624497
C33	C	0.664552	-0.000101	0.043902
C34	C	1.164552	0.499899	0.543902
C35	C	0.757850	-0.000094	0.045666
C36	C	1.257850	0.499906	0.545666
C37	C	0.470090	-0.000115	0.040231
C38	C	0.970090	0.499885	0.540231
C39	C	0.376786	-0.000121	0.038466
C40	C	0.876786	0.499879	0.538466
C41	C	0.355632	-0.000105	0.201415
C42	C	0.855632	0.499895	0.701415
C43	C	0.448930	-0.000098	0.203179
C44	C	0.948930	0.499902	0.703179
C45	C	0.506156	-0.000102	0.122584
C46	C	1.006156	0.499898	0.622584
C47	C	1.056746	-0.656246	0.123546
C48	C	1.556746	-0.156246	0.623546
C49	C	1.056738	-0.544594	0.123544
C50	C	1.556738	-0.044594	0.623544
C51	C	1.056736	-0.455604	0.123538
C52	C	1.556736	0.044396	0.623538
C53	C	1.056726	-0.343945	0.123534
C54	C	1.556726	0.156055	0.623534
C55	C	1.220263	-0.000114	0.117185
C56	C	1.720263	0.499886	0.617185
C57	C	1.319561	-0.000118	0.119056
C58	C	1.819561	0.499882	0.619056
C59	C	1.063094	-0.000107	-0.039985
C60	C	1.563094	0.499893	0.460015
C61	C	1.061223	-0.000106	-0.139282
C62	C	1.561223	0.499894	0.360718
N63	N	1.056761	0.254756	0.123545
N64	N	1.556761	0.754756	0.623545
C65	C	1.141812	-0.000115	-0.196507
C66	C	1.641812	0.499885	0.303493
C67	C	1.140049	-0.000105	-0.289807
C68	C	1.640049	0.499895	0.210193
C69	C	1.057696	-0.000092	-0.325879
C70	C	1.557696	0.499908	0.174121
C71	C	0.977101	-0.000080	-0.268646
C72	C	1.477101	0.499920	0.231354
C73	C	0.978865	-0.000084	-0.175349
C74	C	1.478865	0.499916	0.324651
C75	C	0.973430	-0.000077	-0.463109
C76	C	1.473430	0.499923	0.036891
C77	C	0.971665	-0.000075	-0.556413
C78	C	1.471665	0.499925	-0.056413
C79	C	1.134614	-0.000098	-0.577567
C80	C	1.634614	0.499902	-0.077567
C81	C	1.136378	-0.000101	-0.484269
C82	C	1.636378	0.499899	0.015731
C83	C	1.055782	-0.000090	-0.427043
C84	C	1.555782	0.499910	0.072957
C85	C	1.050384	-0.000090	0.287065
C86	C	1.550384	0.499910	0.787065
C87	C	1.052254	-0.000084	0.386362
C88	C	1.552254	0.499916	0.886362
H89	H	0.766054	-0.000059	0.275675
H90	H	1.266054	0.499941	0.775675
C91	C	0.880874	-0.084159	-0.345921
C92	C	1.380874	0.415841	0.154079
C93	C	0.884838	-0.000067	-0.400203
C94	C	1.384838	0.499933	0.099797
H95	H	0.826185	-0.084151	-0.307083
H96	H	1.326185	0.415849	0.192917
H97	H	0.883565	-0.141191	-0.382765
H98	H	1.383565	0.358809	0.117235
H99	H	0.930177	-0.084153	-0.311091
H100	H	1.430177	0.415847	0.188909
H101	H	0.835538	-0.000077	-0.435038
H102	H	1.335538	0.499923	0.064962
H103	H	0.882138	0.056980	-0.363355
H104	H	1.382138	0.556980	0.136645
C105	C	0.308871	0.084000	0.339764
C106	C	0.808871	0.584000	0.839764
C107	C	0.292734	-0.000104	0.290010
C108	C	0.792734	0.499896	0.790010
H109	H	0.270034	0.084005	0.394454
H110	H	0.770034	0.584005	0.894454
H111	H	0.369592	0.084002	0.352595
H112	H	0.869592	0.584002	0.852595
H113	H	0.297917	0.141031	0.305989
H114	H	0.797917	0.641031	0.805989
H115	H	0.303695	-0.057135	0.323783
H116	H	0.803695	0.442865	0.823783
H117	H	0.231999	-0.000115	0.277182
H118	H	0.731999	0.499885	0.777182
H119	H	1.203437	-0.000117	-0.454903
H120	H	1.703437	0.499883	0.045097
C121	C	0.587284	0.083978	-0.052308
C122	C	1.087284	0.583978	0.447692
C123	C	0.532999	-0.000117	-0.048358
C124	C	1.032999	0.499883	0.451642
H125	H	0.626125	0.083976	-0.106995
H126	H	1.126125	0.583976	0.393005
H127	H	0.550443	0.141009	-0.049611
H128	H	1.050443	0.641009	0.450389
H129	H	0.622111	0.083972	-0.003002
H130	H	1.122111	0.583972	0.496998
H131	H	0.498167	-0.000107	-0.097661
H132	H	0.998167	0.499893	0.402339
H133	H	0.569845	-0.057162	-0.051064
H134	H	1.069845	0.442838	0.448936
C135	C	0.526203	-0.084167	0.299404
C136	C	1.026203	0.415833	0.799404
C137	C	0.580487	-0.000071	0.295435
C138	C	1.080487	0.499929	0.795435
H139	H	0.487371	-0.084159	0.354097
H140	H	0.987371	0.415841	0.854097
H141	H	0.491374	-0.084174	0.250110
H142	H	0.991374	0.415826	0.750110
H143	H	0.563052	-0.141203	0.296711
H144	H	1.063052	0.358797	0.796711
H145	H	0.543638	0.056965	0.298121
H146	H	1.043638	0.556965	0.798121
H147	H	0.615319	-0.000055	0.344743
H148	H	1.115319	0.499945	0.844743
H149	H	0.910047	-0.000064	-0.298024
H150	H	1.410047	0.499936	0.201976
H151	H	1.200238	-0.000103	-0.624165
H152	H	1.700238	0.499897	-0.124165
C153	C	0.407062	-0.000152	-0.122426
C154	C	0.907062	0.499848	0.377574
C155	C	0.337133	-0.000139	-0.052057
C156	C	0.837133	0.499861	0.447943
H157	H	0.382579	-0.000168	-0.178311
H158	H	0.882579	0.499832	0.321689
H159	H	0.443009	0.056891	-0.118355
H160	H	0.943009	0.556891	0.381645
H161	H	0.443013	-0.057200	-0.118343
H162	H	0.943013	0.442800	0.381657
H163	H	0.301185	0.056913	-0.056136
H164	H	0.801185	0.556913	0.443864
H165	H	0.301170	-0.057187	-0.056130
H166	H	0.801170	0.442813	0.443870
H167	H	1.208874	-0.000130	-0.167145
H168	H	1.708874	0.499870	0.332855
H169	H	0.635175	-0.000124	-0.023152
H170	H	1.135175	0.499876	0.476848
C171	C	0.875184	0.084037	-0.649070
C172	C	1.375184	0.584037	-0.149070
C173	C	0.881146	-0.000054	-0.596074
C174	C	1.381146	0.499946	-0.096074
H175	H	0.819303	0.084045	-0.673560
H176	H	1.319303	0.584045	-0.173560
H177	H	0.879259	0.141070	-0.613107
H178	H	1.379259	0.641070	-0.113107
H179	H	0.922940	0.084014	-0.696496
H180	H	1.422940	0.584014	-0.196496
H181	H	0.833394	-0.000028	-0.548644
H182	H	1.333394	0.499972	-0.048644
H183	H	0.877062	-0.057102	-0.632039
H184	H	1.377062	0.442898	-0.132039
C185	C	0.769394	-0.000093	-0.115578
C186	C	1.269394	0.499907	0.384422
C187	C	0.820756	-0.000088	-0.042920
C188	C	1.320756	0.499912	0.457080
H189	H	0.808231	-0.000085	-0.170268
H190	H	1.308231	0.499915	0.329732
H191	H	0.732572	-0.057137	-0.112882
H192	H	1.232572	0.442863	0.387118
H193	H	0.732558	0.056953	-0.112867
H194	H	1.232558	0.556953	0.387133
H195	H	0.857588	-0.057138	-0.045628
H196	H	1.357588	0.442862	0.454372
H197	H	0.857594	0.056962	-0.045618
H198	H	1.357594	0.556962	0.454382
C199	C	1.232615	0.083988	-0.406976
C200	C	1.732615	0.583988	0.093024
C201	C	1.228639	-0.000111	-0.352704
C202	C	1.728639	0.499889	0.147296
H203	H	1.287313	0.083988	-0.445800
H204	H	1.787313	0.583988	0.054200
H205	H	1.183327	0.083991	-0.441813
H206	H	1.683327	0.583991	0.058187
H207	H	1.229917	0.141022	-0.370119
H208	H	1.729917	0.641022	0.129881
H209	H	1.231331	-0.057145	-0.389561
H210	H	1.731331	0.442855	0.110439
H211	H	1.277941	-0.000123	-0.317864
H212	H	1.777941	0.499877	0.182136
H213	H	0.913240	-0.000076	-0.128756
H214	H	1.413240	0.499924	0.371244
H215	H	0.478296	-0.000079	0.270239
H216	H	0.978296	0.499921	0.770239
