data_functionalizedCrystal
_audit_creation_method	'MofGen! by Chris Wilmer'
_symmetry_space_group_name_H-M	'P1'
_symmetry_Int_Tables_number	1
_symmetry_cell_setting	triclinic
loop_
_symmetry_equiv_pos_as_xyz
  x,y,z
_cell_length_a	10.654550
_cell_length_b	19.188930
_cell_length_c	9.130313
_cell_angle_alpha	89.990369
_cell_angle_beta	89.999724
_cell_angle_gamma	83.814856
loop_
_atom_site_label
_atom_site_type_symbol
_atom_site_fract_x
_atom_site_fract_y
_atom_site_fract_z
O1	O	1.665764	0.098062	-0.121709
O2	O	1.300088	0.107405	-0.121737
O3	O	1.493479	0.001147	-0.121693
O4	O	1.472374	0.204320	-0.121752
O5	O	1.493466	0.001143	0.121905
O6	O	1.300075	0.107401	0.121862
O7	O	1.665751	0.098059	0.121890
Cu8	Cu	1.482912	0.102730	0.144118
Cu9	Cu	1.482928	0.102734	-0.143965
O10	O	1.472361	0.204317	0.121847
C11	C	1.253298	0.106717	0.000059
C12	C	1.113898	0.104665	0.000049
C13	C	1.033089	0.167228	0.000035
C14	C	0.902109	0.165295	0.000061
C15	C	0.932761	0.038231	0.000109
C16	C	1.063738	0.040164	0.000094
C17	C	1.492789	-0.024870	0.000110
C18	C	1.490737	-0.102388	0.000123
C19	C	1.604213	-0.146570	0.000138
C20	C	1.602285	-0.219407	0.000115
C21	C	1.486876	-0.248058	0.000105
C22	C	1.373386	-0.203866	0.000081
C23	C	1.375316	-0.131032	0.000090
N24	N	1.398655	-0.356641	0.082999
N25	N	1.396828	-0.425831	0.082994
C26	C	1.481052	-0.467505	0.000075
N27	N	1.567190	-0.437375	-0.082821
N28	N	1.569020	-0.368178	-0.082809
C29	C	1.484770	-0.327034	0.000094
C30	C	1.592445	-0.590665	0.000063
C31	C	1.590513	-0.663502	0.000030
C32	C	1.361610	-0.647960	0.000011
C33	C	1.363545	-0.575124	0.000029
C34	C	1.478966	-0.546481	0.000062
C35	C	1.712541	0.098746	0.000091
C36	C	1.851941	0.100799	0.000091
C37	C	1.473051	0.230334	0.000040
C38	C	1.475102	0.307852	0.000018
N39	N	1.482910	0.102727	0.346741
N40	N	1.482939	0.102731	-0.346588
C41	C	1.568572	0.055696	0.423412
C42	C	1.568584	0.055696	0.576749
C43	C	1.397268	0.149764	0.576730
C44	C	1.397251	0.149760	0.423396
H45	H	1.073924	0.219748	0.000010
H46	H	1.279418	-0.227199	0.000069
H47	H	0.836318	0.216240	0.000053
C48	C	1.130198	-0.067546	-0.125107
C49	C	1.152577	-0.028610	0.000103
H50	H	1.185050	-0.109999	-0.125099
H51	H	1.045026	-0.077929	-0.125084
H52	H	1.145363	-0.041117	-0.210056
H53	H	1.137404	-0.055037	0.085053
H54	H	1.237769	-0.018228	0.000093
H55	H	0.891904	-0.014283	0.000154
C56	C	1.830277	-0.169254	0.000163
C57	C	1.731082	-0.115086	0.000159
H58	H	1.908599	-0.149814	0.000166
H59	H	1.824755	-0.197345	0.085104
H60	H	1.824759	-0.197332	-0.084794
H61	H	1.736594	-0.087011	0.085122
H62	H	1.736607	-0.086984	-0.084790
C63	C	1.732922	-0.310326	-0.125085
C64	C	1.727025	-0.267984	0.000141
H65	H	1.809935	-0.340310	-0.125068
H66	H	1.663916	-0.337805	-0.125092
H67	H	1.728936	-0.281575	-0.210023
H68	H	1.731001	-0.296734	0.085080
H69	H	1.796050	-0.240501	0.000161
C70	C	1.165928	-0.657121	-0.125239
C71	C	1.234747	-0.679445	-0.000007
H72	H	1.087609	-0.676565	-0.125255
H73	H	1.150841	-0.607426	-0.125219
H74	H	1.212655	-0.672245	-0.210173
H75	H	1.188023	-0.664316	0.084928
H76	H	1.249830	-0.729151	-0.000013
C77	C	1.232931	-0.484193	-0.125198
C78	C	1.238806	-0.526556	0.000025
H79	H	1.155913	-0.454213	-0.125206
H80	H	1.301931	-0.456708	-0.125176
H81	H	1.236944	-0.512929	-0.210139
H82	H	1.234802	-0.497820	0.084966
H83	H	1.169787	-0.554043	0.000016
H84	H	1.282908	-0.095058	0.000077
C85	C	1.737899	-0.037292	0.438838
C86	C	1.662715	0.003991	0.339152
H87	H	1.796012	-0.069217	0.386819
H88	H	1.782912	-0.007995	0.498617
H89	H	1.685760	-0.062671	0.498669
H90	H	1.714854	0.029374	0.279328
H91	H	1.617699	-0.025310	0.279348
H92	H	1.686428	-0.567342	0.000083
H93	H	1.638336	0.017398	0.639171
C94	C	1.816964	-0.671544	0.000091
C95	C	1.715255	-0.712070	0.000051
H96	H	1.893974	-0.701530	0.000114
H97	H	1.812971	-0.642804	-0.084847
H98	H	1.812932	-0.642820	0.085050
H99	H	1.719282	-0.740790	-0.084914
H100	H	1.719250	-0.740822	0.084998
C101	C	1.179656	0.189630	0.623972
C102	C	1.303120	0.201462	0.661001
H103	H	1.121535	0.221545	0.676005
H104	H	1.167391	0.196363	0.521693
H105	H	1.166306	0.142960	0.649132
H106	H	1.316474	0.248131	0.635831
H107	H	1.315391	0.194735	0.763303
H108	H	1.327489	0.188059	0.360966
