data_functionalizedCrystal
_audit_creation_method	'MofGen! by Chris Wilmer'
_symmetry_space_group_name_H-M	'P1'
_symmetry_Int_Tables_number	1
_symmetry_cell_setting	triclinic
loop_
_symmetry_equiv_pos_as_xyz
  x,y,z
_cell_length_a	16.959455
_cell_length_b	16.959454
_cell_length_c	16.959447
_cell_angle_alpha	89.973264
_cell_angle_beta	90.020374
_cell_angle_gamma	89.982905
loop_
_atom_site_label
_atom_site_type_symbol
_atom_site_fract_x
_atom_site_fract_y
_atom_site_fract_z
Zn1	Zn	1.208384	0.314729	0.447056
Zn2	Zn	1.708384	0.814729	0.947056
Zn3	Zn	1.208306	0.446921	0.314886
Zn4	Zn	1.708306	0.946921	0.814886
Zn5	Zn	1.076212	0.314754	0.314880
Zn6	Zn	1.576212	0.814754	0.814880
Zn7	Zn	1.076177	0.446862	0.447010
Zn8	Zn	1.576177	0.946862	0.947010
O9	O	1.142270	0.380816	0.380958
O10	O	1.642270	0.880816	0.880958
O11	O	1.318984	0.332279	0.429545
O12	O	1.818984	0.832279	0.929545
O13	O	1.190766	0.429424	0.204274
O14	O	1.690766	0.929424	0.704274
O15	O	1.093792	0.204140	0.332430
O16	O	1.593792	0.704140	0.832430
O17	O	1.318927	0.429400	0.332440
O18	O	1.818927	0.929400	0.832440
O19	O	1.190898	0.204121	0.429539
O20	O	1.690898	0.704121	0.929539
O21	O	1.093717	0.332321	0.204269
O22	O	1.593717	0.832321	0.704269
O23	O	0.965597	0.332264	0.332385
O24	O	1.465597	0.832264	0.832385
O25	O	1.093732	0.429299	0.557627
O26	O	1.593732	0.929299	1.057627
O27	O	0.965571	0.429324	0.429461
O28	O	1.465571	0.929324	0.929461
O29	O	1.190864	0.332221	0.557661
O30	O	1.690864	0.832221	1.057661
O31	O	1.190732	0.557524	0.332396
O32	O	1.690732	1.057524	0.832396
O33	O	1.093657	0.557481	0.429467
O34	O	1.593657	1.057481	0.929467
C35	C	0.936904	0.380791	0.380918
C36	C	1.436904	0.880791	0.880918
C37	C	0.849047	0.380799	0.380920
C38	C	1.349047	0.880799	0.880920
C39	C	0.477531	0.431337	0.330370
C40	C	0.977531	0.931337	0.830370
C41	C	0.477612	0.330361	0.431642
C42	C	0.977612	0.830361	0.931642
C43	C	0.560158	0.330348	0.431623
C44	C	1.060158	0.830348	0.931623
C45	C	0.601394	0.380831	0.380977
C46	C	1.101394	0.880831	0.880977
C47	C	0.560085	0.431328	0.330350
C48	C	1.060085	0.931328	0.830350
C49	C	0.601473	0.279859	0.482255
C50	C	1.101473	0.779859	0.982255
C51	C	0.684024	0.279844	0.482238
C52	C	1.184024	0.779844	0.982238
C53	C	0.725262	0.330324	0.431588
C54	C	1.225262	0.830324	0.931588
C55	C	0.683948	0.380822	0.380958
C56	C	1.183948	0.880822	0.880958
C57	C	0.725184	0.431305	0.330312
C58	C	1.225184	0.931305	0.830312
C59	C	0.683871	0.481799	0.279678
C60	C	1.183871	0.981799	0.779678
C61	C	0.601323	0.481807	0.279700
C62	C	1.101323	0.981807	0.779700
C63	C	0.807811	0.330315	0.431566
C64	C	1.307811	0.830315	0.931566
C65	C	0.807738	0.431295	0.330293
C66	C	1.307738	0.931295	0.830293
C67	C	1.142204	0.586183	0.380944
C68	C	1.642204	1.086183	0.880944
C69	C	1.142248	0.674039	0.380965
C70	C	1.642248	1.174039	0.880965
C71	C	1.142303	0.380751	0.587126
C72	C	1.642303	0.880751	1.087126
C73	C	1.142317	0.380723	0.674983
C74	C	1.642317	0.880723	1.174983
C75	C	1.348438	0.380843	0.380998
C76	C	1.848438	0.880843	0.880998
C77	C	1.436295	0.380854	0.381016
C78	C	1.936295	0.880854	0.881016
C79	C	1.142358	0.174648	0.380989
C80	C	1.642358	0.674648	0.880989
C81	C	1.142395	0.086792	0.381002
C82	C	1.642395	0.586792	0.881002
C83	C	1.091796	1.045522	0.431498
C84	C	1.591796	1.545522	0.931498
C85	C	1.192964	1.045507	0.330499
C86	C	1.692964	1.545507	0.830499
C87	C	1.192936	0.962962	0.330491
C88	C	1.692936	1.462962	0.830491
C89	C	1.142337	0.921692	0.380987
C90	C	1.642337	1.421692	0.880987
C91	C	1.091765	0.962969	0.431490
C92	C	1.591765	1.462969	0.931490
C93	C	1.243501	0.921679	0.279984
C94	C	1.743501	1.421679	0.779984
C95	C	1.243475	0.839128	0.279974
C96	C	1.743475	1.339128	0.779974
C97	C	1.192879	0.797857	0.330474
C98	C	1.692879	1.297857	0.830474
C99	C	1.142306	0.839139	0.380980
C100	C	1.642306	1.339139	0.880980
C101	C	1.091707	0.797869	0.431476
C102	C	1.591707	1.297869	0.931476
C103	C	1.041138	0.839150	0.481986
C104	C	1.541138	1.339150	0.981986
C105	C	1.041170	0.921698	0.481991
C106	C	1.541170	1.421698	0.981991
C107	C	1.192847	0.715309	0.330469
C108	C	1.692847	1.215309	0.830469
C109	C	1.091676	0.715316	0.431468
C110	C	1.591676	1.215316	0.931468
C111	C	1.142283	0.380825	0.175592
C112	C	1.642283	0.880825	0.675592
C113	C	1.142422	0.380630	0.087736
C114	C	1.642422	0.880630	0.587736
C115	C	1.091839	0.431184	1.046444
C116	C	1.591839	0.931184	1.546444
C117	C	1.192983	0.330096	1.046474
C118	C	1.692983	0.830096	1.546474
C119	C	1.192962	0.330113	0.963928
C120	C	1.692962	0.830113	1.463928
C121	C	1.142380	0.380667	0.922636
C122	C	1.642380	0.880667	1.422636
C123	C	1.091818	0.431204	0.963890
C124	C	1.591818	0.931204	1.463890
C125	C	1.243529	0.279582	0.922667
C126	C	1.743529	0.779582	1.422667
C127	C	1.243510	0.279597	0.840116
C128	C	1.743510	0.779597	1.340116
C129	C	1.192923	0.330148	0.798823
C130	C	1.692923	0.830148	1.298823
C131	C	1.142359	0.380686	0.840082
C132	C	1.642359	0.880686	1.340082
C133	C	1.091776	0.431240	0.798791
C134	C	1.591776	0.931240	1.298791
C135	C	1.041207	0.481776	0.840048
C136	C	1.541207	0.981776	1.340048
C137	C	1.041231	0.481754	0.922597
C138	C	1.541231	0.981754	1.422597
C139	C	1.192899	0.330169	0.716275
C140	C	1.692899	0.830169	1.216275
C141	C	1.091755	0.431260	0.716237
C142	C	1.591755	0.931260	1.216237
H143	H	0.567892	0.238763	0.523493
H144	H	1.067892	0.738763	1.023493
H145	H	1.234170	0.288941	1.080098
H146	H	1.734170	0.788941	1.580098
H147	H	0.841444	0.289205	0.472793
H148	H	1.341444	0.789205	0.972793
H149	H	1.284715	0.238429	0.956293
H150	H	1.784715	0.738429	1.456293
C151	C	1.299144	0.967080	0.224431
C152	C	1.799144	1.467080	0.724431
N153	N	1.341055	1.001280	0.182584
N154	N	1.841055	1.501280	0.682584
H155	H	1.000027	0.522940	0.806418
H156	H	1.500027	1.022940	1.306418
C157	C	1.036021	0.669926	0.487028
C158	C	1.536021	1.169926	0.987028
N159	N	0.994104	0.635739	0.528879
N160	N	1.494104	1.135739	1.028879
C161	C	1.299128	0.224000	0.794741
C162	C	1.799128	0.724000	1.294741
N163	N	1.341017	0.182120	0.760563
N164	N	1.841017	0.682120	1.260563
C165	C	1.036210	0.486764	1.091827
C166	C	1.536210	0.986764	1.591827
N167	N	0.994309	0.528627	1.126011
N168	N	1.494309	1.028627	1.626011
C169	C	0.729461	0.224292	0.537928
C170	C	1.229461	0.724292	1.037928
N171	N	0.763684	0.182446	0.579871
N172	N	1.263684	0.682446	1.079871
C173	C	0.729242	0.537328	0.223968
C174	C	1.229242	1.037328	0.723968
N175	N	0.763418	0.579149	0.182007
N176	N	1.263418	1.079149	0.682007
H177	H	0.443890	0.472446	0.289142
H178	H	0.943890	0.972446	0.789142
C179	C	0.853091	0.486831	0.274577
C180	C	1.353091	0.986831	0.774577
N181	N	0.887251	0.528662	0.232612
N182	N	1.387251	1.028662	0.732612
C183	C	0.555872	0.537350	0.224012
C184	C	1.055872	1.037350	0.724012
N185	N	0.521636	0.579187	0.182070
N186	N	1.021636	1.079187	0.682070
C187	C	0.432249	0.274821	0.487338
C188	C	0.932249	0.774821	0.987338
N189	N	0.398078	0.232979	0.529283
N190	N	0.898078	0.732979	1.029283
H191	H	0.999936	0.805539	0.523096
H192	H	1.499936	1.305539	1.023096
H193	H	1.284651	0.805523	0.238847
H194	H	1.784651	1.305523	0.738847
H195	H	0.999998	0.955316	0.523112
H196	H	1.499998	1.455316	1.023112
C197	C	1.248522	0.274585	0.670895
C198	C	1.748522	0.774585	1.170895
N199	N	1.290419	0.232714	0.636716
N200	N	1.790419	0.732714	1.136716
H201	H	1.050626	1.079136	0.472624
H202	H	1.550626	1.579136	0.972624
C203	C	1.248611	1.090906	0.274949
C204	C	1.748611	1.590906	0.774949
N205	N	1.290527	1.125104	0.233106
N206	N	1.790527	1.625104	0.733106
C207	C	1.248471	0.669904	0.274913
C208	C	1.748471	1.169904	0.774913
N209	N	1.290372	0.635707	0.233067
N210	N	1.790372	1.135707	0.733067
H211	H	1.050557	0.472421	0.682623
H212	H	1.550557	0.972421	1.182623
H213	H	1.000063	0.522900	0.956196
H214	H	1.500063	1.022900	1.456196
