data_functionalizedCrystal
_audit_creation_method	'MofGen! by Chris Wilmer'
_symmetry_space_group_name_H-M	'P1'
_symmetry_Int_Tables_number	1
_symmetry_cell_setting	triclinic
loop_
_symmetry_equiv_pos_as_xyz
  x,y,z
_cell_length_a	10.654559
_cell_length_b	16.992695
_cell_length_c	9.730223
_cell_angle_alpha	89.998169
_cell_angle_beta	89.999563
_cell_angle_gamma	87.578454
loop_
_atom_site_label
_atom_site_type_symbol
_atom_site_fract_x
_atom_site_fract_y
_atom_site_fract_z
O1	O	1.677352	0.110221	-0.114299
O2	O	1.312782	0.120712	-0.114300
O3	O	1.493605	0.001316	-0.114289
O4	O	1.496528	0.229617	-0.114311
O5	O	1.493604	0.001319	0.114291
O6	O	1.312780	0.120715	0.114279
O7	O	1.677350	0.110224	0.114281
Zn8	Zn	1.495065	0.115470	0.150572
Zn9	Zn	1.495067	0.115466	-0.150592
O10	O	1.496527	0.229620	0.114269
C11	C	1.265916	0.119942	-0.000011
C12	C	1.126274	0.117632	-0.000011
C13	C	1.068472	0.045164	-0.000000
C14	C	0.937263	0.042999	-0.000010
C15	C	0.921669	0.185778	-0.000036
C16	C	1.052876	0.187942	-0.000035
C17	C	1.077474	-0.037269	0.000020
C18	C	0.946264	-0.039434	0.000010
C19	C	1.489844	-0.027916	0.000001
C20	C	1.478625	-0.115021	0.000000
C21	C	1.586876	-0.164671	0.000002
C22	C	1.576326	-0.246515	-0.000011
C23	C	1.457526	-0.278708	-0.000016
C24	C	1.349267	-0.229052	-0.000022
C25	C	1.359817	-0.147209	-0.000019
C26	C	1.413799	-0.522544	-0.000035
C27	C	1.403256	-0.604393	-0.000034
C28	C	1.630317	-0.621851	-0.000026
C29	C	1.640857	-0.540006	-0.000014
C30	C	1.532598	-0.490357	-0.000027
N31	N	1.446740	-0.362366	-0.000025
N32	N	1.543385	-0.406701	-0.000028
C33	C	1.724216	0.110994	-0.000012
C34	C	1.863858	0.113304	-0.000021
C35	C	1.500288	0.258852	-0.000024
C36	C	1.511507	0.345957	-0.000032
N37	N	1.495072	0.115472	0.356108
N38	N	1.495069	0.115458	-0.356128
C39	C	1.575164	0.062622	0.428040
C40	C	1.575160	0.062612	0.571923
C41	C	1.414968	0.168311	0.571931
C42	C	1.414967	0.168316	0.428050
C43	C	1.667654	0.001600	0.428036
C44	C	1.667650	0.001590	0.571919
H45	H	0.914109	-0.071666	0.095674
N46	N	1.790617	0.026906	0.368899
H47	H	1.807128	0.082051	0.400926
H48	H	1.860905	-0.010412	0.400937
N49	N	1.135105	-0.070260	0.130741
H50	H	1.183909	-0.028312	0.177866
H51	H	1.066379	-0.087799	0.193809
H52	H	1.641000	-0.058701	0.388988
N53	N	1.769003	-0.505299	-0.000039
H54	H	1.778435	-0.471733	-0.084778
H55	H	1.778382	-0.471772	0.084747
N56	N	1.328582	0.225313	0.350454
H57	H	1.269951	0.195004	0.290759
H58	H	1.277922	0.258777	0.417944
N59	N	1.328573	0.225300	0.649533
H60	H	1.380064	0.260316	0.709235
H61	H	1.277850	0.258729	0.582044
N62	N	1.275113	-0.639115	-0.000042
H63	H	1.227322	-0.621059	-0.084784
H64	H	1.284968	-0.698489	0.000017
N65	N	1.715012	-0.129951	0.000011
H66	H	1.724448	-0.096390	0.084752
H67	H	1.781907	-0.173871	-0.000042
H68	H	1.664476	-0.286937	-0.000006
H69	H	1.718455	-0.662283	-0.000018
N70	N	0.896049	-0.074214	-0.130710
H71	H	0.968291	-0.089428	-0.193864
H72	H	0.847917	-0.122460	-0.107866
H73	H	1.325646	-0.482130	-0.000045
N74	N	0.842504	0.261609	-0.000066
H75	H	0.750613	0.249243	-0.000069
H76	H	0.862028	0.293165	0.084667
N77	N	1.129228	-0.078408	-0.126684
H78	H	1.223887	-0.076865	-0.126730
H79	H	1.103736	-0.134982	-0.126654
H80	H	1.632213	-0.055394	0.616540
N81	N	1.797020	0.019397	0.623662
H82	H	1.854753	0.027355	0.542972
H83	H	1.791739	0.068826	0.681371
N84	N	1.115207	0.266109	-0.000080
H85	H	1.088964	0.296953	0.084641
H86	H	1.209450	0.256754	-0.000135
N87	N	1.221129	-0.263770	-0.000036
H88	H	1.230869	-0.323151	-0.000033
H89	H	1.173397	-0.245652	0.084700
H90	H	1.271668	-0.106785	-0.000020
