data_functionalizedCrystal
_audit_creation_method	'MofGen! by Chris Wilmer'
_symmetry_space_group_name_H-M	'P1'
_symmetry_Int_Tables_number	1
_symmetry_cell_setting	triclinic
loop_
_symmetry_equiv_pos_as_xyz
  x,y,z
_cell_length_a	10.540539
_cell_length_b	11.026607
_cell_length_c	10.065875
_cell_angle_alpha	100.697662
_cell_angle_beta	98.880198
_cell_angle_gamma	83.444246
loop_
_atom_site_label
_atom_site_type_symbol
_atom_site_fract_x
_atom_site_fract_y
_atom_site_fract_z
O1	O	0.517971	-1.632406	-0.113482
O2	O	0.457324	-1.278575	-0.113485
O3	O	0.304709	-1.463562	-0.113482
O4	O	0.670585	-1.447418	-0.113485
O5	O	0.333960	-1.428289	0.113506
O6	O	0.486575	-1.243301	0.113503
O7	O	0.547222	-1.597132	0.113506
Zn8	Zn	0.521543	-1.414616	0.149544
Zn9	Zn	0.483003	-1.461091	-0.149523
O10	O	0.699836	-1.412145	0.113503
C11	C	0.460761	-1.215630	0.000009
C12	C	0.427408	-1.080627	0.000007
C13	C	0.271766	-1.444715	0.000010
C14	C	0.130024	-1.441094	0.000002
C15	C	0.543784	-1.660077	0.000010
C16	C	0.577136	-1.795082	0.000002
C17	C	-0.083873	-1.302369	-0.000508
C18	C	0.063616	-1.305961	0.000003
C19	C	0.099314	-1.485983	0.129624
C20	C	-0.048226	-1.481354	0.129734
C21	C	-0.081406	-1.524215	-0.128394
C22	C	0.065627	-1.525726	-0.130108
C23	C	0.732779	-1.430992	0.000008
C24	C	0.874520	-1.434615	0.000007
N25	N	0.547846	-1.382908	0.353649
C26	C	0.519500	-1.007620	0.000005
C27	C	0.485031	-0.868087	0.000004
N28	N	0.456692	-1.492809	-0.353628
C29	C	0.492145	-1.450050	0.421429
C30	C	0.512401	-1.425656	0.578596
H31	H	-0.136144	-1.263433	-0.093462
O32	O	0.715390	-0.849100	0.000020
H33	H	0.777606	-0.774391	0.000034
O34	O	0.289161	-1.026608	0.000009
H35	H	0.283781	-0.925491	-0.000001
H36	H	0.083037	-1.269230	-0.092915
H37	H	0.429456	-1.525590	0.363106
H38	H	0.623863	-1.048415	0.000012
H39	H	0.610524	-1.307360	0.411974
O40	O	0.346778	-0.814073	0.000014
H41	H	0.315259	-0.771294	-0.092506
H42	H	0.575083	-1.350104	0.636915
O43	O	0.373640	-1.592874	0.569137
H44	H	0.432213	-1.662650	0.504023
H45	H	-0.135199	-1.495746	-0.226639
O46	O	-0.123504	-1.212913	0.121936
H47	H	-0.172705	-1.262232	0.183160
O48	O	0.119886	-1.218574	0.123301
H49	H	0.041740	-1.173588	0.182802
H50	H	-0.074149	-1.577626	0.135615
O51	O	-0.083006	-1.397744	0.258071
H52	H	-0.054940	-1.303301	0.260334
O53	O	0.158549	-1.616435	0.136038
H54	H	0.210634	-1.650740	0.046695
H55	H	0.144449	-1.425819	0.226084
H56	H	0.110420	-1.625464	-0.137935
O57	O	0.089695	-1.482538	-0.257141
H58	H	0.147287	-1.401141	-0.227751
H59	H	-0.107365	-1.621956	-0.129265
