data_functionalizedCrystal
_audit_creation_method	'MofGen! by Chris Wilmer'
_symmetry_space_group_name_H-M	'P1'
_symmetry_Int_Tables_number	1
_symmetry_cell_setting	triclinic
loop_
_symmetry_equiv_pos_as_xyz
  x,y,z
_cell_length_a	19.805407
_cell_length_b	19.077068
_cell_length_c	19.805399
_cell_angle_alpha	92.269429
_cell_angle_beta	89.980427
_cell_angle_gamma	92.327086
loop_
_atom_site_label
_atom_site_type_symbol
_atom_site_fract_x
_atom_site_fract_y
_atom_site_fract_z
Zn1	Zn	1.023904	-0.280218	-0.393534
Zn2	Zn	1.019269	-0.397917	-0.284888
Zn3	Zn	0.910718	-0.280237	-0.280359
Zn4	Zn	0.906134	-0.397880	-0.398033
O5	O	0.965006	-0.339063	-0.339204
O6	O	1.118005	-0.295839	-0.379134
O7	O	1.004848	-0.382330	-0.189571
O8	O	0.929590	-0.181744	-0.291594
O9	O	1.114600	-0.382312	-0.299312
O10	O	1.012748	-0.181729	-0.374743
O11	O	0.925096	-0.295872	-0.186244
O12	O	0.815394	-0.295835	-0.295957
O13	O	0.921778	-0.382248	-0.492152
O14	O	0.812026	-0.382267	-0.382411
O15	O	1.008303	-0.295802	-0.488846
O16	O	1.000404	-0.496403	-0.303675
O17	O	0.917284	-0.496376	-0.386802
C18	C	0.789151	-0.339050	-0.339181
C19	C	0.713918	-0.339061	-0.339188
C20	C	0.676836	-0.384133	-0.384138
C21	C	0.606147	-0.384135	-0.384147
C22	C	0.572543	-0.339066	-0.339204
C23	C	0.609630	-0.293989	-0.294252
C24	C	0.680318	-0.293985	-0.294246
C25	C	0.324556	-0.294004	-0.294275
C26	C	0.253864	-0.294014	-0.294283
C27	C	0.250386	-0.384154	-0.384176
C28	C	0.321073	-0.384150	-0.384170
C29	C	0.358155	-0.339070	-0.339221
C30	C	0.434804	-0.339069	-0.339212
C31	C	0.495895	-0.339071	-0.339209
C32	C	0.957862	-0.521927	-0.346233
C33	C	0.954867	-0.600157	-0.349263
C34	C	0.996770	-0.636901	-0.307443
C35	C	0.993957	-0.710406	-0.310296
C36	C	0.949238	-0.747167	-0.354968
C37	C	0.907333	-0.710418	-0.396793
C38	C	0.910150	-0.636914	-0.393942
C39	C	0.936174	-0.967002	-0.368135
C40	C	0.933359	-1.040511	-0.370981
C41	C	1.019984	-1.040494	-0.284485
C42	C	1.022794	-0.966989	-0.281635
C43	C	0.980892	-0.930246	-0.323463
N44	N	0.946361	-0.822301	-0.357884
N45	N	0.983773	-0.855113	-0.320549
C46	C	1.141548	-0.339077	-0.339226
C47	C	1.216780	-0.339083	-0.339236
C48	C	0.965046	-0.339019	-0.515745
C49	C	0.965063	-0.339000	-0.590976
C50	C	0.972197	-0.155485	-0.332161
C51	C	0.975262	-0.077255	-0.329160
C52	C	1.010118	-0.293985	-0.624600
C53	C	1.010125	-0.293965	-0.695288
C54	C	0.965081	-0.338963	-0.732350
C55	C	0.920022	-0.383980	-0.698721
C56	C	0.920011	-0.383996	-0.628035
C57	C	0.920062	-0.383914	-0.983792
C58	C	0.920078	-0.383896	-1.054484
C59	C	1.010177	-0.293883	-1.051045
C60	C	1.010166	-0.293899	-0.980358
C61	C	0.965104	-0.338913	-0.946736
C62	C	0.965096	-0.338934	-0.870088
C63	C	0.965093	-0.338947	-0.808997
C64	C	0.965008	-0.339056	-0.163347
C65	C	0.965130	-0.338877	-0.088109
H66	H	0.710510	-0.257278	-0.257647
H67	H	1.033182	-0.606975	-0.271063
H68	H	1.046800	-0.257345	-0.594428
H69	H	0.575957	-0.420838	-0.420749
H70	H	0.876029	-0.606998	-0.427998
H71	H	1.046815	-0.257311	-0.722661
H72	H	0.883343	-0.420615	-0.728903
H73	H	0.348430	-0.420852	-0.420766
C74	C	0.890114	-0.926595	-0.414181
N75	N	0.855433	-0.896158	-0.448879
C76	C	0.870519	-0.433395	-1.095251
N77	N	0.833192	-0.470675	-1.125957
C78	C	0.870491	-0.433428	-0.946816
N79	N	0.833150	-0.470723	-0.918964
C80	C	0.209590	-0.433738	-0.433627
N81	N	0.178864	-0.471084	-0.470871
C82	C	0.713794	-0.433713	-0.433580
N83	N	0.741629	-0.471056	-0.470823
H84	H	0.354740	-0.257303	-0.257670
H85	H	0.883316	-0.420644	-0.600659
H86	H	0.226505	-0.257309	-0.257684
C87	C	1.059715	-0.244395	-0.939593
N88	N	1.097034	-0.207104	-0.908890
C89	C	1.059738	-0.244358	-1.088036
N90	N	1.097066	-0.207057	-1.115896
C91	C	1.040050	-0.750821	-0.264286
N92	N	1.074768	-0.781261	-0.229627
H93	H	0.582264	-0.257290	-0.257661
C94	C	1.071971	-0.926558	-0.232475
N95	N	1.109004	-0.896105	-0.195440
C96	C	1.066075	-1.080917	-0.238480
N97	N	1.100794	-1.111363	-0.203828
C98	C	0.884166	-1.080946	-0.420129
N99	N	0.847117	-1.111402	-0.457147
H100	H	0.870925	-0.740354	-0.433168
