data_functionalizedCrystal
_audit_creation_method	'MofGen! by Chris Wilmer'
_symmetry_space_group_name_H-M	'P1'
_symmetry_Int_Tables_number	1
_symmetry_cell_setting	triclinic
loop_
_symmetry_equiv_pos_as_xyz
  x,y,z
_cell_length_a	27.440280
_cell_length_b	14.628931
_cell_length_c	14.628931
_cell_angle_alpha	60.000000
_cell_angle_beta	90.003821
_cell_angle_gamma	59.998426
loop_
_atom_site_label
_atom_site_type_symbol
_atom_site_fract_x
_atom_site_fract_y
_atom_site_fract_z
Zr1	Zr	0.469502	1.000475	-0.119852
O2	O	0.391684	1.191197	-0.265831
O3	O	0.493358	0.809764	-0.075101
O4	O	0.493358	1.000469	-0.265807
O5	O	0.391683	1.000493	0.075306
O6	O	0.573561	1.000452	-0.265788
O7	O	0.391683	1.000492	-0.075125
O8	O	0.573560	0.659315	0.075350
O9	O	0.391684	1.341629	-0.265831
O10	O	0.563386	0.888189	-0.056002
O11	O	0.503532	0.888202	0.056250
O12	O	0.503532	1.112733	-0.168282
O13	O	0.443678	1.112746	-0.056030
Zr14	Zr	0.597416	1.000448	0.120100
Zr15	Zr	0.597416	1.000447	-0.119822
Zr16	Zr	0.469502	1.000476	0.120069
Zr17	Zr	0.469502	1.240396	-0.119852
Zr18	Zr	0.597416	0.760526	0.120100
O19	O	0.573561	1.191158	0.075349
O20	O	0.573561	1.191157	-0.265788
O21	O	0.391683	1.191198	0.075306
O22	O	0.675235	0.809725	0.266079
O23	O	0.675235	0.809724	-0.075058
O24	O	0.493358	0.809765	0.266036
O25	O	0.675235	1.000430	-0.075059
O26	O	0.573560	1.000453	0.266054
O27	O	0.493358	1.000471	0.266036
O28	O	0.675235	1.000430	0.075373
O29	O	0.493358	1.341607	-0.265807
O30	O	0.573560	0.659316	0.266055
O31	O	0.675235	0.659293	0.266079
O32	O	0.675235	0.659293	0.075374
O33	O	0.391684	1.341630	-0.075126
O34	O	0.493358	1.341607	-0.075102
O35	O	0.563386	0.888189	0.168529
O36	O	0.623241	0.888176	0.056278
O37	O	0.563387	1.112720	-0.056002
O38	O	0.503532	1.112734	0.056249
C39	C	0.533459	0.700356	0.000124
C40	C	0.533459	0.598503	0.000124
C41	C	0.563151	0.553087	-0.055560
C42	C	0.563151	0.447817	-0.055561
C43	C	0.373458	1.000496	0.000086
C44	C	0.319155	1.000508	0.000074
C45	C	0.013701	0.883230	0.058764
C46	C	-0.037318	0.883223	0.058774
O47	O	-0.037134	0.783541	0.108652
N48	N	-0.094078	1.000431	0.000164
C49	C	-0.099819	1.117655	-0.058451
O50	O	-0.152782	1.217349	-0.108302
C51	C	-0.048801	1.117660	-0.058454
C52	C	0.007959	1.000444	0.000151
C53	C	0.070458	0.766024	0.117365
C54	C	0.121472	0.766031	0.117353
C55	C	0.115730	0.883245	0.058740
C56	C	0.058974	1.000452	0.000139
C57	C	-0.054542	1.234882	-0.117061
C58	C	-0.003518	1.234878	-0.117058
C59	C	0.053241	1.117662	-0.058453
C60	C	0.104246	1.117674	-0.058485
N61	N	0.161006	1.000465	0.000125
C62	C	0.166748	0.883251	0.058737
C63	C	-0.206957	1.117634	-0.058439
C64	C	-0.257974	1.117629	-0.058444
C65	C	-0.195470	0.883197	0.058783
C66	C	-0.144452	0.883203	0.058780
C67	C	-0.150197	1.000425	0.000171
C68	C	0.273881	0.883276	0.058707
C69	C	0.324897	0.883294	0.058686
C70	C	0.262389	1.117725	-0.058535
C71	C	0.211376	1.117708	-0.058519
C72	C	0.217126	1.000473	0.000110
O73	O	0.104109	1.217305	-0.108335
O74	O	0.219713	0.783574	0.108592
C75	C	0.693460	1.000426	0.000161
C76	C	0.747763	1.000414	0.000174
C77	C	0.533460	1.000460	-0.299981
C78	C	0.533460	1.000460	-0.401834
C79	C	0.533460	1.300566	0.000123
C80	C	0.533460	1.402419	0.000123
C81	C	0.503768	1.111849	-0.502941
C82	C	0.503767	1.111851	-0.608213
C83	C	0.533459	1.000462	0.300229
C84	C	0.533459	1.000462	0.402082
C85	C	0.693460	0.700321	0.000162
C86	C	0.747763	0.598456	0.000175
C87	C	0.533459	0.700357	0.300229
C88	C	0.533459	0.598504	0.402082
C89	C	0.693460	0.700322	0.300267
C90	C	0.747763	0.598457	0.402132
C91	C	0.373459	1.300601	-0.300019
C92	C	0.319156	1.402465	-0.401885
C93	C	0.373458	1.300602	0.000086
C94	C	0.319156	1.402467	0.000073
C95	C	0.533460	1.300566	-0.299981
C96	C	0.533460	1.402418	-0.401834
C97	C	0.742021	0.550626	-0.058438
C98	C	0.793039	0.454926	-0.058448
C99	C	0.849799	0.407052	0.000161
C100	C	0.855540	0.454891	0.058776
C101	C	0.804522	0.550596	0.058779
C102	C	0.804513	0.550613	0.391376
C103	C	0.855541	0.454914	0.487080
C104	C	0.849818	0.407054	0.593540
C105	C	0.793062	0.454907	0.604295
C106	C	0.742035	0.550611	0.508592
C107	C	0.262406	1.450321	-0.391128
C108	C	0.211378	1.546050	-0.486832
C109	C	0.217101	1.593915	-0.593293
C110	C	0.273857	1.546056	-0.604047
C111	C	0.324884	1.450335	-0.508344
C112	C	0.324898	1.450307	0.058676
C113	C	0.273879	1.546033	0.058660
C114	C	0.217119	1.593910	0.000047
C115	C	0.211378	1.546066	-0.058563
C116	C	0.262396	1.450348	-0.058553
C117	C	0.563150	0.553089	0.503190
C118	C	0.563151	0.447819	0.608461
H119	H	0.508035	0.441475	0.047794
H120	H	0.075143	0.670568	0.165100
H121	H	0.901761	0.415898	0.106494
H122	H	0.588572	0.408761	0.695197
H123	H	0.508041	0.559448	0.047800
H124	H	0.891336	0.329122	0.000151
Cl125	Cl	0.602397	0.387529	-0.129176
H126	H	0.695809	0.589604	-0.106179
H127	H	-0.190802	0.787755	0.106505
Cl128	Cl	-0.073102	0.735840	0.132460
Cl129	Cl	0.572712	0.853220	-0.388503
Cl130	Cl	-0.329324	1.264993	-0.132137
H131	H	0.788353	0.415987	-0.106179
Cl132	Cl	0.255195	1.390166	-0.257303
H133	H	0.809206	0.589527	0.106515
H134	H	0.588568	0.592146	0.511816
Cl135	Cl	0.281110	1.606154	0.132352
H136	H	0.788411	0.415925	0.690988
H137	H	0.371110	1.411332	0.106413
H138	H	0.508041	0.441466	0.511434
H139	H	0.891372	0.329125	0.671459
Cl140	Cl	0.494207	0.538225	0.388752
Cl141	Cl	0.255182	1.265072	-0.132197
Cl142	Cl	0.281042	1.606238	-0.737892
Cl143	Cl	0.140020	1.265067	-0.132217
H144	H	0.478344	1.207215	-0.694949
Cl145	Cl	0.670694	0.610738	0.522134
Cl146	Cl	0.396252	0.735926	0.132364
H147	H	0.175582	1.671850	0.000047
H148	H	0.809184	0.589567	0.304699
Cl149	Cl	0.926884	0.394770	0.473534
Cl150	Cl	0.572705	0.853214	-0.464009
H151	H	0.165170	1.585001	-0.478054
Cl152	Cl	0.281118	0.735893	0.132410
Cl153	Cl	0.152946	1.714249	-0.713596
Cl154	Cl	0.396225	1.390176	-0.521887
H155	H	0.165158	1.585063	-0.106285
H156	H	-0.211643	1.213096	-0.106171
Cl157	Cl	0.602401	0.613370	-0.129163
Cl158	Cl	0.192822	0.618665	0.191041
H159	H	0.257712	1.411400	-0.106271
Cl160	Cl	0.464523	1.259089	-0.516272
H161	H	-0.100750	1.330332	-0.164782
H162	H	-0.008203	1.330337	-0.164771
