data_functionalizedCrystal
_audit_creation_method	'MofGen! by Chris Wilmer'
_symmetry_space_group_name_H-M	'P1'
_symmetry_Int_Tables_number	1
_symmetry_cell_setting	triclinic
loop_
_symmetry_equiv_pos_as_xyz
  x,y,z
_cell_length_a	14.044220
_cell_length_b	16.974800
_cell_length_c	13.101032
_cell_angle_alpha	90.290548
_cell_angle_beta	93.665102
_cell_angle_gamma	88.279480
loop_
_atom_site_label
_atom_site_type_symbol
_atom_site_fract_x
_atom_site_fract_y
_atom_site_fract_z
O1	O	0.120886	1.057546	0.002518
O2	O	0.454220	1.390879	0.335851
O3	O	0.787553	1.724213	0.669184
O4	O	0.135124	0.829311	-0.016419
O5	O	0.468458	1.162645	0.316914
O6	O	0.801791	1.495978	0.650247
O7	O	-0.009991	0.940002	-0.007225
O8	O	0.323342	1.273336	0.326108
O9	O	0.656675	1.606669	0.659442
O10	O	0.266002	0.946855	-0.006677
O11	O	0.599335	1.280188	0.326657
O12	O	0.932669	1.613522	0.659990
O13	O	0.000432	0.932051	0.162545
O14	O	0.333765	1.265384	0.495878
O15	O	0.667098	1.598717	0.829212
O16	O	0.145547	0.821359	0.153351
O17	O	0.478881	1.154693	0.486684
O18	O	0.812214	1.488026	0.820017
O19	O	0.131309	1.049594	0.172288
O20	O	0.464643	1.382928	0.505621
O21	O	0.797976	1.716261	0.838954
Zn22	Zn	0.140083	0.934214	0.189774
Zn23	Zn	0.473417	1.267548	0.523107
Zn24	Zn	0.806750	1.600881	0.856440
Zn25	Zn	0.126350	0.944691	-0.033905
Zn26	Zn	0.459684	1.278025	0.299428
Zn27	Zn	0.793017	1.611358	0.632761
O28	O	0.276425	0.938903	0.163093
O29	O	0.609758	1.272236	0.496427
O30	O	0.943092	1.605570	0.829760
C31	C	0.139603	0.795950	0.066028
C32	C	0.472936	1.129283	0.399361
C33	C	0.806270	1.462617	0.732694
C34	C	0.137407	0.708389	0.058763
C35	C	0.470740	1.041723	0.392096
C36	C	0.804074	1.375056	0.725429
C37	C	0.142055	0.662923	0.147894
C38	C	0.475388	0.996257	0.481227
C39	C	0.808721	1.329590	0.814560
C40	C	0.139977	0.580651	0.141071
C41	C	0.473310	0.913985	0.474404
C42	C	0.806643	1.247318	0.807737
C43	C	0.133257	0.543847	0.045116
C44	C	0.466591	0.877180	0.378449
C45	C	0.799924	1.210514	0.711782
C46	C	0.128607	0.589319	-0.044022
C47	C	0.461940	0.922653	0.289311
C48	C	0.795273	1.255986	0.622645
C49	C	0.130678	0.671590	-0.037198
C50	C	0.464011	1.004923	0.296135
C51	C	0.797345	1.338257	0.629469
C52	C	0.126447	0.298259	0.014783
C53	C	0.459780	0.631593	0.348116
C54	C	0.793113	0.964926	0.681450
C55	C	0.124378	0.215983	0.007966
C56	C	0.457712	0.549316	0.341299
C57	C	0.791045	0.882649	0.674632
C58	C	0.135747	0.207320	0.193059
C59	C	0.469080	0.540654	0.526392
C60	C	0.802414	0.873987	0.859726
C61	C	0.137823	0.289593	0.199875
C62	C	0.471157	0.622926	0.533208
C63	C	0.804490	0.956259	0.866541
C64	C	0.133167	0.335058	0.110737
C65	C	0.466501	0.668391	0.444070
C66	C	0.799834	1.001725	0.777404
N67	N	0.131136	0.459752	0.038139
N68	N	0.464469	0.793085	0.371472
N69	N	0.797803	1.126419	0.704806
N70	N	0.135282	0.419152	0.117715
N71	N	0.468615	0.752485	0.451048
N72	N	0.801949	1.085819	0.784381
C73	C	-0.040105	0.933027	0.077412
C74	C	0.293228	1.266361	0.410745
C75	C	0.626561	1.599694	0.744078
C76	C	-0.145364	0.924081	0.076671
C77	C	0.187969	1.257415	0.410004
C78	C	0.521302	1.590748	0.743337
C79	C	-0.338088	0.907727	0.075299
C80	C	-0.004754	1.241060	0.408632
C81	C	0.328579	1.574393	0.741966
C82	C	-0.395485	0.971176	0.080560
C83	C	-0.062152	1.304509	0.413894
C84	C	0.271182	1.637842	0.747227
C85	C	-0.502723	0.962076	0.079797
C86	C	-0.169389	1.295409	0.413130
C87	C	0.163944	1.628743	0.746464
C88	C	-0.230840	0.916825	0.076062
C89	C	0.102494	1.250159	0.409395
C90	C	0.435827	1.583492	0.742729
C91	C	0.306539	0.945878	0.078454
C92	C	0.639872	1.279212	0.411788
C93	C	0.973206	1.612545	0.745121
C94	C	0.411798	0.954825	0.079189
C95	C	0.745131	1.288158	0.412522
C96	C	1.078464	1.621491	0.745855
C97	C	0.126831	1.082956	0.089839
C98	C	0.460164	1.416289	0.423172
C99	C	0.793497	1.749622	0.756505
C100	C	0.129026	1.170517	0.097097
C101	C	0.462359	1.503850	0.430430
C102	C	0.795693	1.837183	0.763763
N103	N	0.149455	0.927070	0.342429
N104	N	0.482788	1.260403	0.675763
N105	N	0.816122	1.593736	1.009096
C106	C	0.104229	0.961554	0.605203
C107	C	0.437562	1.294887	0.938536
C108	C	0.770895	1.628221	1.271870
C109	C	0.162206	0.917356	0.550659
C110	C	0.495539	1.250689	0.883992
C111	C	0.828873	1.584023	1.217326
C112	C	0.155109	0.922762	0.434789
C113	C	0.488443	1.256095	0.768123
C114	C	0.821776	1.589429	1.101456
C115	C	0.111324	0.956149	0.721083
C116	C	0.444657	1.289482	1.054417
C117	C	0.777991	1.622815	1.387750
N118	N	0.116983	0.951838	0.813439
N119	N	0.450316	1.285171	1.146773
N120	N	0.783650	1.618505	1.480106
H121	H	0.143745	0.543637	0.213651
H122	H	0.477079	0.876970	0.546984
H123	H	0.810412	1.210303	0.880317
H124	H	0.126895	0.708608	-0.109778
H125	H	0.460228	1.041941	0.223555
H126	H	0.793562	1.375274	0.556889
F127	F	-0.379126	0.827798	0.068662
F128	F	-0.045792	1.161131	0.401995
F129	F	0.287541	1.494465	0.735328
F130	F	-0.354447	1.051110	0.087200
F131	F	-0.021114	1.384443	0.420534
F132	F	0.312220	1.717777	0.753867
F133	F	0.117229	0.176815	-0.094168
F134	F	0.450563	0.510148	0.239166
F135	F	0.783896	0.843481	0.572499
F136	F	0.144980	0.328756	0.302003
F137	F	0.478313	0.662090	0.635336
F138	F	0.811647	0.995423	0.968670
H139	H	0.122652	0.335268	-0.057799
H140	H	0.455986	0.668601	0.275534
H141	H	0.789319	1.001934	0.608867
F142	F	0.234052	0.862592	0.603365
F143	F	0.567385	1.195925	0.936699
F144	F	0.900718	1.529259	1.270032
H145	H	0.139536	0.170294	0.265630
H146	H	0.472869	0.503627	0.598963
H147	H	0.806203	0.836961	0.932296
F148	F	0.149212	0.702086	0.250023
F149	F	0.482546	1.035419	0.583356
F150	F	0.815879	1.368752	0.916690
F151	F	0.121426	0.550148	-0.146145
F152	F	0.454760	0.883482	0.187188
F153	F	0.788093	1.216815	0.520522
H154	H	0.049267	1.003451	0.564883
H155	H	0.382601	1.336784	0.898217
H156	H	0.715934	1.670118	1.231550
