data_functionalizedCrystal
_audit_creation_method	'MofGen! by Chris Wilmer'
_symmetry_space_group_name_H-M	'P1'
_symmetry_Int_Tables_number	1
_symmetry_cell_setting	triclinic
loop_
_symmetry_equiv_pos_as_xyz
  x,y,z
_cell_length_a	13.032831
_cell_length_b	16.625545
_cell_length_c	13.032268
_cell_angle_alpha	97.146561
_cell_angle_beta	89.113023
_cell_angle_gamma	97.171393
loop_
_atom_site_label
_atom_site_type_symbol
_atom_site_fract_x
_atom_site_fract_y
_atom_site_fract_z
Zn1	Zn	1.498407	0.544521	0.780800
Zn2	Zn	1.520133	0.664651	0.608813
Zn3	Zn	1.348270	0.510838	0.587043
Zn4	Zn	1.326382	0.660292	0.758938
O5	O	1.423298	0.595076	0.683899
O6	O	1.645207	0.576377	0.776246
O7	O	1.515588	0.631976	0.462009
O8	O	1.368253	0.402484	0.612785
O9	O	1.661170	0.664636	0.649887
O10	O	1.478558	0.427231	0.755137
O11	O	1.389321	0.518970	0.446015
O12	O	1.201448	0.514743	0.591586
O13	O	1.330949	0.657206	0.905754
O14	O	1.185367	0.624546	0.717876
O15	O	1.457335	0.572150	0.921816
O16	O	1.494364	0.776895	0.628688
O17	O	1.352016	0.773692	0.738985
C18	C	1.156091	0.565517	0.649997
C19	C	1.041775	0.552893	0.635518
C20	C	0.982893	0.601664	0.691455
C21	C	0.864742	0.588618	0.676492
C22	C	1.423197	0.804552	0.683852
C23	C	1.423244	0.894180	0.683879
C24	C	1.423397	1.222385	0.684023
C25	C	1.423351	1.131068	0.683985
C26	C	1.423320	1.058285	0.683950
C27	C	1.423275	0.966963	0.683914
C28	C	1.691548	0.624750	0.717933
C29	C	1.805861	0.637396	0.732437
C30	C	1.389277	0.617949	0.952144
C31	C	1.374779	0.627696	1.066455
C32	C	1.423414	1.384786	0.683982
C33	C	1.423437	1.295174	0.684046
C34	C	1.457246	0.572239	0.416704
C35	C	1.471943	0.562287	0.302419
C36	C	1.430849	0.589958	1.125365
C37	C	1.415866	0.600031	1.243511
H38	H	1.489940	0.550187	1.088333
O39	O	1.337575	0.652707	1.292551
H40	H	1.298775	0.678813	1.231425
O41	O	1.550232	0.509610	1.253382
H42	H	1.589021	0.483495	1.314508
O43	O	0.992705	0.484800	0.557386
H44	H	0.907606	0.485248	0.557880
H45	H	0.842913	0.688808	0.791415
H46	H	1.315677	0.667457	1.103485
H47	H	0.827686	0.537199	0.617524
O48	O	1.031963	0.669753	0.769595
H49	H	1.117062	0.669309	0.769094
