data_functionalizedCrystal
_audit_creation_method	'MofGen! by Chris Wilmer'
_symmetry_space_group_name_H-M	'P1'
_symmetry_Int_Tables_number	1
_symmetry_cell_setting	triclinic
loop_
_symmetry_equiv_pos_as_xyz
  x,y,z
_cell_length_a	19.077115
_cell_length_b	16.120444
_cell_length_c	19.076919
_cell_angle_alpha	84.952692
_cell_angle_beta	89.923103
_cell_angle_gamma	90.739546
loop_
_atom_site_label
_atom_site_type_symbol
_atom_site_fract_x
_atom_site_fract_y
_atom_site_fract_z
Zn1	Zn	1.040330	-0.403263	0.456934
Zn2	Zn	1.540330	0.096737	0.956934
Zn3	Zn	1.039008	-0.537289	0.344920
Zn4	Zn	1.539008	-0.037289	0.844920
Zn5	Zn	0.928045	-0.392096	0.334271
Zn6	Zn	1.428045	0.107904	0.834271
Zn7	Zn	0.916852	-0.536786	0.457654
Zn8	Zn	1.416852	-0.036786	0.957654
O9	O	0.981058	-0.467358	0.398445
O10	O	1.481058	0.032642	0.898445
O11	O	1.138269	-0.425925	0.446231
O12	O	1.638269	0.074075	0.946231
O13	O	1.028419	-0.513566	0.244993
O14	O	1.528419	-0.013566	0.744993
O15	O	0.948177	-0.276934	0.345784
O16	O	1.448177	0.223066	0.845784
O17	O	1.137297	-0.524393	0.363935
O18	O	1.637297	-0.024393	0.863935
O19	O	1.030673	-0.285138	0.435904
O20	O	1.530673	0.214862	0.935904
O21	O	0.946895	-0.406894	0.237169
O22	O	1.446895	0.093106	0.737169
O23	O	0.828445	-0.406406	0.346482
O24	O	1.328445	0.093594	0.846482
O25	O	0.929100	-0.523537	0.556073
O26	O	1.429100	-0.023537	1.056073
O27	O	0.820222	-0.512709	0.437131
O28	O	1.320222	-0.012709	0.937131
O29	O	1.019819	-0.425438	0.555544
O30	O	1.519819	0.074562	1.055544
O31	O	1.017566	-0.653865	0.364633
O32	O	1.517566	-0.153865	0.864633
O33	O	0.927818	-0.653496	0.447458
O34	O	1.427818	-0.153496	0.947458
C35	C	0.798894	-0.458292	0.390730
C36	C	1.298894	0.041708	0.890730
C37	C	0.720961	-0.454434	0.387447
C38	C	1.220961	0.045566	0.887447
C39	C	0.971352	-0.683926	0.407295
C40	C	1.471352	-0.183926	0.907295
C41	C	0.967263	-0.776579	0.411108
C42	C	1.467263	-0.276579	0.911108
C43	C	0.282743	-0.426729	0.363906
C44	C	0.782743	0.073271	0.863906
C45	C	0.355969	-0.430359	0.366995
C46	C	0.855969	0.069641	0.866995
C47	C	0.388315	-0.487604	0.415665
C48	C	0.888315	0.012396	0.915665
C49	C	0.347432	-0.541217	0.461255
C50	C	0.847432	-0.041217	0.961255
C51	C	0.274208	-0.537583	0.458170
C52	C	0.774208	-0.037583	0.958170
C53	C	0.606854	-0.504413	0.429951
C54	C	1.106854	-0.004413	0.929951
C55	C	0.680084	-0.508045	0.433032
C56	C	1.180084	-0.008045	0.933032
C57	C	0.688615	-0.397185	0.338772
C58	C	1.188615	0.102815	0.838772
C59	C	0.615389	-0.393559	0.335687
C60	C	1.115389	0.106441	0.835687
C61	C	0.574513	-0.447169	0.381280
C62	C	1.074513	0.052831	0.881280
N63	N	0.463163	-0.491317	0.418822
N64	N	0.963163	0.008683	0.918822
N65	N	0.499666	-0.443451	0.378126
N66	N	0.999666	0.056549	0.878126
C67	C	1.002437	-0.987659	0.378826
C68	C	1.502437	-0.487659	0.878826
C69	C	0.959810	-0.946213	0.418076
C70	C	1.459810	-0.446213	0.918076
C71	C	0.963958	-0.851820	0.414198
C72	C	1.463958	-0.351820	0.914198
C73	C	0.998290	-1.082061	0.382704
C74	C	1.498290	-0.582061	0.882704
C75	C	1.163935	-0.476461	0.406190
C76	C	1.663935	0.023539	0.906190
C77	C	1.241865	-0.480340	0.409491
C78	C	1.741865	0.019660	0.909491
C79	C	0.973359	-0.475677	0.582066
C80	C	1.473359	0.024323	1.082066
C81	C	0.970078	-0.479221	0.660314
C82	C	1.470078	0.020779	1.160314
C83	C	0.990821	-0.249946	0.389576
C84	C	1.490821	0.250054	0.889576
C85	C	0.994981	-0.157298	0.385797
C86	C	1.494981	0.342702	0.885797
C87	C	0.988771	-0.459014	0.215537
C88	C	1.488771	0.040986	0.715537
C89	C	0.992198	-0.455241	0.137285
C90	C	1.492198	0.044759	0.637285
C91	C	1.015767	-0.429814	0.696801
C92	C	1.515767	0.070186	1.196801
C93	C	1.012675	-0.433141	0.770324
C94	C	1.512675	0.066859	1.270324
C95	C	0.963898	-0.485881	0.807358
C96	C	1.463898	0.014119	1.307358
C97	C	0.918205	-0.535290	0.770865
C98	C	1.418205	-0.035290	1.270865
C99	C	0.921293	-0.531958	0.697344
C100	C	1.421293	-0.031958	1.197344
C101	C	0.949593	-0.501318	1.027272
C102	C	1.449593	-0.001318	1.527272
C103	C	0.946510	-0.504649	1.100798
C104	C	1.446510	-0.004649	1.600798
C105	C	1.040980	-0.402499	1.100251
C106	C	1.540980	0.097501	1.600251
C107	C	1.044067	-0.399175	1.026729
C108	C	1.544067	0.100825	1.526729
C109	C	0.998371	-0.448581	0.990243
C110	C	1.498371	0.051419	1.490243
N111	N	0.960739	-0.489285	0.882509
N112	N	1.460739	0.010715	1.382509
N113	N	1.001528	-0.445172	0.915092
N114	N	1.501528	0.054828	1.415092
H115	H	0.256412	-0.380114	0.324272
H116	H	0.756412	0.119886	0.824272
N117	N	0.907335	-0.993115	0.466436
N118	N	1.407335	-0.493115	0.966436
H119	H	0.858359	-0.975090	0.452727
H120	H	1.358359	-0.475090	0.952727
H121	H	0.916778	-0.980788	0.516580
H122	H	1.416778	-0.480788	1.016580
N123	N	0.580518	-0.331805	0.283190
N124	N	1.080518	0.168195	0.783190
H125	H	0.595476	-0.273405	0.292319
H126	H	1.095476	0.226595	0.792319
H127	H	0.527935	-0.337699	0.288168
H128	H	1.027935	0.162301	0.788168
N129	N	0.900301	-0.554615	0.987944
N130	N	1.400301	-0.054615	1.487944
H131	H	0.928328	-0.593287	0.960221
H132	H	1.428328	-0.093287	1.460221
H133	H	0.870613	-0.517689	0.954724
H134	H	1.370613	-0.017689	1.454724
N135	N	1.054893	-0.940763	0.330450
N136	N	1.554893	-0.440763	0.830450
H137	H	1.082764	-0.981572	0.304791
H138	H	1.582764	-0.481572	0.804791
H139	H	1.087673	-0.907493	0.359045
H140	H	1.587673	-0.407493	0.859045
N141	N	0.714972	-0.569794	0.485528
N142	N	1.214972	-0.069794	0.985528
H143	H	0.745512	-0.538972	0.518094
H144	H	1.245512	-0.038972	1.018094
H145	H	0.744777	-0.608559	0.459659
H146	H	1.244777	-0.108559	0.959659
H147	H	1.055488	-0.386871	0.666654
H148	H	1.555488	0.113129	1.166654
H149	H	1.049881	-0.392911	0.800028
H150	H	1.549881	0.107089	1.300028
H151	H	1.078182	-0.362274	1.129966
H152	H	1.578182	0.137726	1.629966
H153	H	1.083788	-0.356232	0.996581
H154	H	1.583788	0.143768	1.496581
N155	N	0.732702	-0.339364	0.289601
N156	N	1.232702	0.160636	0.789601
H157	H	0.783998	-0.350349	0.298939
H158	H	1.283998	0.149651	0.798939
H159	H	0.722107	-0.279720	0.297673
H160	H	1.222107	0.220280	0.797673
H161	H	0.906787	-0.547597	1.130949
H162	H	1.406787	-0.047597	1.630949
H163	H	0.878487	-0.578228	0.801024
H164	H	1.378487	-0.078228	1.301024
N165	N	0.872008	-0.585244	0.657993
N166	N	1.372008	-0.085244	1.157993
H167	H	0.879681	-0.645924	0.673677
H168	H	1.379681	-0.145924	1.173677
H169	H	0.881384	-0.575062	0.605809
H170	H	1.381384	-0.075062	1.105809
N171	N	0.400047	-0.372519	0.317831
N172	N	0.900047	0.127481	0.817831
H173	H	0.388830	-0.382453	0.267499
H174	H	0.888830	0.117547	0.767499
H175	H	0.451329	-0.383519	0.327228
H176	H	0.951329	0.116481	0.827228
N177	N	0.562771	-0.562248	0.479110
N178	N	1.062771	-0.062248	0.979110
H179	H	0.594376	-0.599070	0.510403
H180	H	1.094376	-0.099070	1.010403
H181	H	0.531868	-0.597954	0.450682
H182	H	1.031868	-0.097954	0.950682
H183	H	0.373774	-0.587824	0.500887
H184	H	0.873774	-0.087824	1.000887
H185	H	0.240926	-0.581237	0.495292
H186	H	0.740926	-0.081237	0.995292
