data_functionalizedCrystal
_audit_creation_method	'MofGen! by Chris Wilmer'
_symmetry_space_group_name_H-M	'P1'
_symmetry_Int_Tables_number	1
_symmetry_cell_setting	triclinic
loop_
_symmetry_equiv_pos_as_xyz
  x,y,z
_cell_length_a	19.121102
_cell_length_b	19.120786
_cell_length_c	19.120904
_cell_angle_alpha	90.133503
_cell_angle_beta	89.911827
_cell_angle_gamma	89.915559
loop_
_atom_site_label
_atom_site_type_symbol
_atom_site_fract_x
_atom_site_fract_y
_atom_site_fract_z
Zn1	Zn	1.040890	-0.342335	0.426845
Zn2	Zn	1.374223	-0.009002	0.760178
Zn3	Zn	1.707556	0.324331	1.093511
Zn4	Zn	1.041233	-0.454595	0.304618
Zn5	Zn	1.374566	-0.121261	0.637951
Zn6	Zn	1.707899	0.212072	0.971285
Zn7	Zn	0.929064	-0.332381	0.305071
Zn8	Zn	1.262398	0.000952	0.638404
Zn9	Zn	1.595731	0.334285	0.971738
Zn10	Zn	0.919063	-0.454124	0.416841
Zn11	Zn	1.252397	-0.120791	0.750174
Zn12	Zn	1.585730	0.212542	1.083508
O13	O	0.982562	-0.395859	0.363344
O14	O	1.315896	-0.062526	0.696677
O15	O	1.649229	0.270808	1.030010
O16	O	1.138863	-0.361590	0.414628
O17	O	1.472196	-0.028256	0.747961
O18	O	1.805529	0.305077	1.081295
O19	O	1.030682	-0.434414	0.206750
O20	O	1.364016	-0.101081	0.540083
O21	O	1.697349	0.232253	0.873416
O22	O	0.947940	-0.235771	0.325601
O23	O	1.281273	0.097562	0.658934
O24	O	1.614607	0.430896	0.992267
O25	O	1.139115	-0.444066	0.324828
O26	O	1.472448	-0.110733	0.658162
O27	O	1.805781	0.222601	0.991495
O28	O	1.030098	-0.243084	0.415067
O29	O	1.363431	0.090249	0.748401
O30	O	1.696764	0.423583	1.081734
O31	O	0.948273	-0.344624	0.207082
O32	O	1.281606	-0.011291	0.540416
O33	O	1.614939	0.322042	0.873749
O34	O	0.829810	-0.344168	0.315901
O35	O	1.163143	-0.010835	0.649234
O36	O	1.496477	0.322499	0.982567
O37	O	0.930895	-0.443264	0.516097
O38	O	1.264228	-0.109931	0.849430
O39	O	1.597561	0.223402	1.182763
O40	O	0.822462	-0.433612	0.398018
O41	O	1.155796	-0.100279	0.731351
O42	O	1.489129	0.233055	1.064684
O43	O	1.020400	-0.361133	0.523446
O44	O	1.353733	-0.027800	0.856779
O45	O	1.687067	0.305533	1.190113
O46	O	1.020985	-0.552463	0.315128
O47	O	1.354318	-0.219130	0.648462
O48	O	1.687651	0.114204	0.981795
O49	O	0.931227	-0.552118	0.397578
O50	O	1.264561	-0.218784	0.730912
O51	O	1.597894	0.114549	1.064245
C52	C	0.800745	-0.387759	0.355923
C53	C	1.134078	-0.054426	0.689257
C54	C	1.467411	0.278907	1.022590
C55	C	0.722961	-0.384312	0.352765
C56	C	1.056294	-0.050979	0.686098
C57	C	1.389627	0.282355	1.019431
C58	C	0.682611	-0.429326	0.393961
C59	C	1.015944	-0.095992	0.727295
C60	C	1.349278	0.237341	1.060628
C61	C	0.609525	-0.426077	0.390997
C62	C	0.942858	-0.092744	0.724330
C63	C	1.276192	0.240589	1.057664
C64	C	0.576790	-0.377818	0.346832
C65	C	0.910124	-0.044485	0.680166
C66	C	1.243457	0.288849	1.013499
C67	C	0.617145	-0.332800	0.305634
C68	C	0.950479	0.000534	0.638967
C69	C	1.283812	0.333867	0.972301
C70	C	0.690230	-0.336045	0.308602
C71	C	1.023563	-0.002712	0.641936
C72	C	1.356897	0.330622	0.975269
C73	C	0.356312	-0.365683	0.335738
C74	C	0.689646	-0.032349	0.669072
C75	C	1.022979	0.300984	1.002405
C76	C	0.283222	-0.362442	0.332771
C77	C	0.616556	-0.029109	0.666105
C78	C	0.949889	0.304225	0.999438
C79	C	0.275607	-0.455719	0.418136
C80	C	0.608940	-0.122386	0.751469
C81	C	0.942274	0.210947	1.084803
C82	C	0.348693	-0.458963	0.421097
C83	C	0.682027	-0.125630	0.754430
C84	C	1.015360	0.207703	1.087764
C85	C	0.389042	-0.413942	0.379902
C86	C	0.722375	-0.080609	0.713235
C87	C	1.055709	0.252724	1.046568
C88	C	0.502085	-0.374498	0.343800
C89	C	0.835418	-0.041165	0.677133
C90	C	1.168751	0.292169	1.010466
C91	C	0.463746	-0.417260	0.382938
C92	C	0.797080	-0.083926	0.716272
C93	C	1.130413	0.249407	1.049605
C94	C	0.975076	-0.577684	0.355235
C95	C	1.308410	-0.244351	0.688568
C96	C	1.641743	0.088982	1.021901
C97	C	0.971937	-0.655474	0.351792
C98	C	1.305270	-0.322140	0.685125
C99	C	1.638603	0.011193	1.018458
C100	C	1.013202	-0.695766	0.396790
C101	C	1.346535	-0.362433	0.730123
C102	C	1.679868	-0.029100	1.063456
C103	C	1.010249	-0.768858	0.393556
C104	C	1.343582	-0.435524	0.726889
C105	C	1.676916	-0.102191	1.060222
C106	C	0.966034	-0.801655	0.345320
C107	C	1.299368	-0.468322	0.678653
C108	C	1.632701	-0.134988	1.011986
C109	C	0.924764	-0.761357	0.300320
C110	C	1.258098	-0.428023	0.633653
C111	C	1.591431	-0.094690	0.966987
C112	C	0.927714	-0.688267	0.303558
C113	C	1.261047	-0.354933	0.636891
C114	C	1.594381	-0.021600	0.970224
C115	C	0.954987	-1.022152	0.333214
C116	C	1.288320	-0.688819	0.666548
C117	C	1.621653	-0.355485	0.999881
C118	C	0.952042	-1.095247	0.329978
C119	C	1.285375	-0.761914	0.663312
C120	C	1.618708	-0.428581	0.996645
C121	C	1.037525	-1.102743	0.423215
C122	C	1.370859	-0.769410	0.756549
C123	C	1.704192	-0.436077	1.089882
C124	C	1.040474	-1.029652	0.426446
C125	C	1.373808	-0.696318	0.759779
C126	C	1.707141	-0.362985	1.093113
C127	C	0.999202	-0.989360	0.381449
C128	C	1.332535	-0.656026	0.714782
C129	C	1.665869	-0.322693	1.048115
C130	C	0.963016	-0.876366	0.342011
C131	C	1.296350	-0.543033	0.675345
C132	C	1.629683	-0.209699	1.008678
C133	C	1.002216	-0.914650	0.384761
C134	C	1.335550	-0.581317	0.718094
C135	C	1.668883	-0.247983	1.051428
C136	C	1.165090	-0.403991	0.370793
C137	C	1.498423	-0.070657	0.704127
C138	C	1.831757	0.262676	1.037460
C139	C	1.242873	-0.407456	0.373968
C140	C	1.576206	-0.074122	0.707301
C141	C	1.909539	0.259211	1.040635
C142	C	0.974494	-0.403257	0.545873
C143	C	1.307827	-0.069923	0.879206
C144	C	1.641160	0.263410	1.212540
C145	C	0.971055	-0.406409	0.623656
C146	C	1.304388	-0.073076	0.956990
C147	C	1.637722	0.260258	1.290323
C148	C	0.990096	-0.213325	0.371500
C149	C	1.323430	0.120008	0.704834
C150	C	1.656763	0.453342	1.038167
C151	C	0.993307	-0.135540	0.374976
C152	C	1.326640	0.197793	0.708310
C153	C	1.659973	0.531127	1.041643
C154	C	0.990642	-0.388441	0.181528
C155	C	1.323976	-0.055108	0.514862
C156	C	1.657309	0.278225	0.848195
C157	C	0.994224	-0.385098	0.103760
C158	C	1.327558	-0.051764	0.437093
C159	C	1.660891	0.281569	0.770426
C160	C	1.016038	-0.365131	0.664026
C161	C	1.349371	-0.031798	0.997360
C162	C	1.682704	0.301536	1.330693
C163	C	1.012799	-0.368090	0.737112
C164	C	1.346132	-0.034757	1.070445
C165	C	1.679465	0.298577	1.403778
C166	C	0.964579	-0.412331	0.769826
C167	C	1.297913	-0.078998	1.103159
C168	C	1.631246	0.254335	1.436492
C169	C	0.919592	-0.453611	0.729450
C170	C	1.252925	-0.120278	1.062783
C171	C	1.586258	0.213056	1.396117
C172	C	0.922828	-0.450648	0.656366
C173	C	1.256161	-0.117315	0.989699
C174	C	1.589495	0.216019	1.323033
C175	C	0.952473	-0.423414	0.990300
C176	C	1.285807	-0.090081	1.323634
C177	C	1.619140	0.243253	1.656967
C178	C	0.949242	-0.426376	1.063390
C179	C	1.282575	-0.093042	1.396723
C180	C	1.615908	0.240291	1.730056
C181	C	1.042448	-0.340853	1.071046
C182	C	1.375781	-0.007520	1.404380
C183	C	1.709115	0.325813	1.737713
C184	C	1.045683	-0.337897	0.997961
C185	C	1.379016	-0.004564	1.331294
C186	C	1.712350	0.328769	1.664627
C187	C	1.000693	-0.379174	0.957592
C188	C	1.334026	-0.045841	1.290925
C189	C	1.667359	0.287492	1.624258
C190	C	0.961269	-0.415359	0.844530
C191	C	1.294602	-0.082025	1.177864
C192	C	1.627935	0.251308	1.511197
C193	C	1.004001	-0.376143	0.882888
C194	C	1.337334	-0.042809	1.216221
C195	C	1.670667	0.290524	1.549555
H196	H	0.723082	-0.299386	0.275059
H197	H	1.056416	0.033947	0.608393
H198	H	1.389749	0.367280	0.941726
Br199	Br	0.892037	-1.139757	0.264507
Br200	Br	1.225370	-0.806424	0.597840
Br201	Br	1.558703	-0.473091	0.931173
H202	H	1.043258	-0.340119	0.856249
H203	H	1.376591	-0.006785	1.189583
H204	H	1.709924	0.326548	1.522916
Br205	Br	0.871706	-0.633582	0.242490
Br206	Br	1.205040	-0.300249	0.575823
Br207	Br	1.538373	0.033084	0.909156
Br208	Br	1.066241	-0.823539	0.454639
Br209	Br	1.399575	-0.490205	0.787972
Br210	Br	1.732908	-0.156872	1.121305
Br211	Br	1.081487	-0.305092	0.619637
Br212	Br	1.414820	0.028242	0.952970
Br213	Br	1.748153	0.361575	1.286303
Br214	Br	0.903006	-0.920882	0.276556
Br215	Br	1.236339	-0.587549	0.609890
Br216	Br	1.569672	-0.254216	0.943223
H217	H	0.888761	-0.788066	0.261048
H218	H	1.222094	-0.454732	0.594381
H219	H	1.555428	-0.121399	0.927715
Br220	Br	0.508173	-0.482751	0.442876
Br221	Br	0.841506	-0.149417	0.776210
Br222	Br	1.174840	0.183916	1.109543
H223	H	1.049209	-0.669068	0.436065
H224	H	1.382543	-0.335735	0.769399
H225	H	1.715876	-0.002402	1.102732
Br226	Br	1.073881	-0.312101	0.791898
Br227	Br	1.407214	0.021232	1.125231
Br228	Br	1.740547	0.354566	1.458564
H229	H	1.084950	-0.301873	0.971331
H230	H	1.418283	0.031460	1.304664
H231	H	1.751617	0.364793	1.637997
H232	H	1.076477	-1.002950	0.465723
H233	H	1.409811	-0.669617	0.799057
H234	H	1.743144	-0.336283	1.132390
H235	H	1.079075	-0.307247	1.103923
H236	H	1.412409	0.026086	1.437256
H237	H	1.745742	0.359419	1.770589
H238	H	0.475424	-0.335207	0.307839
H239	H	0.808757	-0.001873	0.641172
H240	H	1.142091	0.331460	0.974506
Br241	Br	0.891414	-0.479432	0.935523
Br242	Br	1.224747	-0.146099	1.268856
Br243	Br	1.558080	0.187235	1.602189
Br244	Br	1.093533	-1.157428	0.484281
Br245	Br	1.426866	-0.824095	0.817615
Br246	Br	1.760200	-0.490762	1.150948
Br247	Br	0.883795	-0.486419	1.107787
Br248	Br	1.217128	-0.153086	1.441120
Br249	Br	1.550461	0.180248	1.774453
Br250	Br	0.854146	-0.513649	0.773846
Br251	Br	1.187480	-0.180316	1.107180
Br252	Br	1.520813	0.153017	1.440513
Br253	Br	0.861773	-0.506666	0.601577
Br254	Br	1.195107	-0.173333	0.934910
Br255	Br	1.528440	0.160001	1.268243
H256	H	0.709258	-0.468626	0.429923
H257	H	1.042591	-0.135293	0.763256
H258	H	1.375925	0.198041	1.096589
Br259	Br	0.393114	-0.524464	0.481033
Br260	Br	0.726447	-0.191131	0.814367
Br261	Br	1.059781	0.142202	1.147700
H262	H	0.576675	-0.462733	0.424543
H263	H	0.910008	-0.129400	0.757877
H264	H	1.243342	0.203934	1.091210
H265	H	0.922012	-0.451384	0.871174
H266	H	1.255345	-0.118050	1.204507
H267	H	1.588678	0.215283	1.537841
H268	H	0.921382	-0.989352	0.296574
H269	H	1.254716	-0.656019	0.629908
H270	H	1.588049	-0.322685	0.963241
H271	H	0.256572	-0.323136	0.296812
H272	H	0.589906	0.010198	0.630145
H273	H	0.923239	0.343531	0.963478
Br274	Br	0.220845	-0.516818	0.474038
Br275	Br	0.554178	-0.183485	0.807371
Br276	Br	0.887511	0.149848	1.140705
H277	H	0.590487	-0.293503	0.269677
H278	H	0.923820	0.039830	0.603010
H279	H	1.257154	0.373164	0.936344
Br280	Br	0.411063	-0.304579	0.279834
Br281	Br	0.744396	0.028755	0.613167
Br282	Br	1.077729	0.362088	0.946500
H283	H	1.038213	-0.887945	0.424037
H284	H	1.371547	-0.554611	0.757371
H285	H	1.704880	-0.221278	1.090704
