data_functionalizedCrystal
_audit_creation_method	'MofGen! by Chris Wilmer'
_symmetry_space_group_name_H-M	'P1'
_symmetry_Int_Tables_number	1
_symmetry_cell_setting	triclinic
loop_
_symmetry_equiv_pos_as_xyz
  x,y,z
_cell_length_a	13.897449
_cell_length_b	18.101395
_cell_length_c	13.897441
_cell_angle_alpha	89.970274
_cell_angle_beta	89.981404
_cell_angle_gamma	90.032384
loop_
_atom_site_label
_atom_site_type_symbol
_atom_site_fract_x
_atom_site_fract_y
_atom_site_fract_z
Zn1	Zn	1.474592	-0.294788	-0.545380
Zn2	Zn	1.474455	-0.418641	-0.384082
Zn3	Zn	1.313288	-0.294821	-0.384099
Zn4	Zn	1.313225	-0.418595	-0.545334
O5	O	1.393890	-0.356711	-0.464724
O6	O	1.609556	-0.311223	-0.523996
O7	O	1.453044	-0.402250	-0.249102
O8	O	1.334769	-0.191184	-0.405520
O9	O	1.609455	-0.402218	-0.405490
O10	O	1.453279	-0.191159	-0.524013
O11	O	1.334635	-0.311279	-0.249115
O12	O	1.178298	-0.311234	-0.405475
O13	O	1.334663	-0.402138	-0.680322
O14	O	1.178252	-0.402170	-0.523934
O15	O	1.453218	-0.311178	-0.680356
O16	O	1.452984	-0.522268	-0.405445
O17	O	1.334529	-0.522234	-0.523917
C18	C	1.143276	-0.356701	-0.464702
C19	C	1.036062	-0.356715	-0.464715
C20	C	0.839767	-0.356718	-0.464741
C21	C	0.948999	-0.356714	-0.464724
C22	C	1.393761	-0.549122	-0.464695
C23	C	1.393794	-0.631436	-0.464716
C24	C	1.394006	-0.930527	-0.464767
C25	C	1.319650	-0.899211	-0.539492
C26	C	1.319297	-0.813593	-0.539258
C27	C	1.393901	-0.782144	-0.464743
C28	C	1.366379	-0.813299	-0.363084
C29	C	1.365899	-0.898945	-0.363531
C30	C	1.496046	-0.898868	-0.490807
C31	C	1.495446	-0.813217	-0.493037
C32	C	1.393843	-0.698285	-0.464722
C33	C	1.394061	-1.014386	-0.464781
C34	C	1.645483	-0.356722	-0.464746
C35	C	1.752697	-0.356726	-0.464756
C36	C	1.393949	-0.356649	-0.716317
C37	C	1.393974	-0.356623	-0.823531
C38	C	1.394046	-0.163549	-0.464773
C39	C	1.394112	-0.081235	-0.464795
C40	C	1.393994	-0.356602	-0.910601
C41	C	1.394022	-0.356568	-1.019833
C42	C	1.393887	-0.356720	-0.214109
C43	C	1.394048	-0.356538	-0.106896
H44	H	1.336699	-0.919756	-0.615115
H45	H	1.551443	-0.919119	-0.436383
H46	H	1.553775	-0.791805	-0.442578
C47	C	1.266674	-0.784424	-0.332747
C48	C	1.210145	-0.732617	-0.400032
C49	C	1.110438	-0.703743	-0.369702
C50	C	1.067259	-0.726677	-0.272087
C51	C	1.123788	-0.778487	-0.204796
C52	C	1.223496	-0.807360	-0.235126
H53	H	1.242108	-0.715637	-0.472298
H54	H	1.068592	-0.665390	-0.419515
H55	H	0.993450	-0.705303	-0.249634
H56	H	1.091825	-0.795466	-0.132530
H57	H	1.265342	-0.845714	-0.185312
C58	C	1.342496	-0.785127	-0.641102
C59	C	1.361479	-0.840324	-0.723214
C60	C	1.384647	-0.811862	-0.825069
C61	C	1.388832	-0.728203	-0.844814
C62	C	1.369849	-0.673000	-0.762700
C63	C	1.346681	-0.701462	-0.660844
H64	H	1.358382	-0.902258	-0.708600
H65	H	1.398700	-0.852727	-0.885855
H66	H	1.405983	-0.707134	-0.920214
H67	H	1.372946	-0.611066	-0.777314
H68	H	1.332628	-0.660597	-0.600058
C69	C	1.218091	-0.928373	-0.516493
C70	C	1.202447	-0.980448	-0.430231
C71	C	1.100890	-1.009614	-0.407232
C72	C	1.014976	-0.986705	-0.470494
C73	C	1.030617	-0.934628	-0.556761
C74	C	1.132174	-0.905462	-0.579761
H75	H	1.266048	-0.997409	-0.383396
H76	H	1.089312	-1.048165	-0.343371
H77	H	0.939797	-1.008295	-0.453469
H78	H	0.967016	-0.917667	-0.603597
H79	H	1.143752	-0.866911	-0.643622
H80	H	1.243662	-0.793172	-0.522009
H81	H	1.417707	-0.919663	-0.305957
C82	C	1.437232	-0.785782	-0.285812
C83	C	1.448692	-0.702375	-0.267270
C84	C	1.519546	-0.674855	-0.190000
C85	C	1.578940	-0.730743	-0.131273
C86	C	1.567482	-0.814156	-0.149815
C87	C	1.496627	-0.841675	-0.227084
H88	H	1.404723	-0.660998	-0.310744
H89	H	1.528028	-0.613108	-0.176275
H90	H	1.631391	-0.710372	-0.074074
H91	H	1.611450	-0.855532	-0.106340
H92	H	1.488145	-0.903423	-0.240809
C93	C	1.265132	-0.926030	-0.333738
C94	C	1.252963	-0.974837	-0.243759
C95	C	1.152193	-1.001918	-0.213969
C96	C	1.063592	-0.980191	-0.274157
C97	C	1.075758	-0.931381	-0.364141
C98	C	1.176528	-0.904300	-0.393932
H99	H	1.318553	-0.990923	-0.199199
H100	H	1.143187	-1.038051	-0.147356
H101	H	0.988995	-1.000238	-0.252104
H102	H	1.010168	-0.915295	-0.408701
H103	H	1.185534	-0.868168	-0.460545
C104	C	1.529947	-0.927968	-0.589246
C105	C	1.465400	-0.980861	-0.647247
C106	C	1.499289	-1.009963	-0.745689
C107	C	1.597726	-0.986171	-0.786130
C108	C	1.662279	-0.933276	-0.728129
C109	C	1.628390	-0.904174	-0.629687
H110	H	1.392526	-0.998475	-0.617310
H111	H	1.451502	-1.049120	-0.788625
H112	H	1.622812	-1.007714	-0.859003
H113	H	1.735153	-0.915662	-0.758066
H114	H	1.676177	-0.865017	-0.586751
H115	H	1.516200	-0.792851	-0.567852
