data_functionalizedCrystal
_audit_creation_method	'MofGen! by Chris Wilmer'
_symmetry_space_group_name_H-M	'P1'
_symmetry_Int_Tables_number	1
_symmetry_cell_setting	triclinic
loop_
_symmetry_equiv_pos_as_xyz
  x,y,z
_cell_length_a	13.897449
_cell_length_b	13.897448
_cell_length_c	13.897441
_cell_angle_alpha	89.969401
_cell_angle_beta	90.020733
_cell_angle_gamma	89.981028
loop_
_atom_site_label
_atom_site_type_symbol
_atom_site_fract_x
_atom_site_fract_y
_atom_site_fract_z
Zn1	Zn	1.474703	0.383951	0.545381
Zn2	Zn	1.474597	0.545273	0.384083
Zn3	Zn	1.313392	0.383997	0.384100
Zn4	Zn	1.313373	0.545210	0.545335
O5	O	1.394016	0.464608	0.464725
O6	O	1.609670	0.405358	0.523997
O7	O	1.453176	0.523925	0.249103
O8	O	1.334842	0.249009	0.405520
O9	O	1.609592	0.523881	0.405491
O10	O	1.453356	0.248976	0.524013
O11	O	1.334739	0.405436	0.249116
O12	O	1.178408	0.405375	0.405476
O13	O	1.334811	0.523773	0.680323
O14	O	1.178394	0.523817	0.523935
O15	O	1.453339	0.405297	0.680357
O16	O	1.453158	0.680246	0.405447
O17	O	1.334708	0.680200	0.523918
C18	C	1.393946	0.715222	0.464697
C19	C	1.394004	0.822436	0.464717
C20	C	1.143402	0.464595	0.464703
C21	C	1.036188	0.464613	0.464716
C22	C	1.394085	0.464522	0.716318
C23	C	1.394114	0.464486	0.823532
C24	C	0.839893	0.464616	0.464741
C25	C	0.949125	0.464611	0.464725
C26	C	1.645609	0.464621	0.464747
C27	C	1.752823	0.464627	0.464757
C28	C	1.394113	0.213015	0.464774
C29	C	1.394154	0.105801	0.464795
C30	C	1.394105	1.018731	0.464778
C31	C	1.394046	0.909499	0.464747
C32	C	1.394003	0.464623	0.214110
C33	C	1.394161	0.464388	0.106897
C34	C	1.394140	0.464421	1.019827
C35	C	1.394122	0.464460	0.910594
