data_functionalizedCrystal
_audit_creation_method	'MofGen! by Chris Wilmer'
_symmetry_space_group_name_H-M	'P1'
_symmetry_Int_Tables_number	1
_symmetry_cell_setting	triclinic
loop_
_symmetry_equiv_pos_as_xyz
  x,y,z
_cell_length_a	10.967926
_cell_length_b	10.065875
_cell_length_c	14.971486
_cell_angle_alpha	81.200355
_cell_angle_beta	84.174928
_cell_angle_gamma	86.879521
loop_
_atom_site_label
_atom_site_type_symbol
_atom_site_fract_x
_atom_site_fract_y
_atom_site_fract_z
O1	O	1.613114	-0.265900	0.155984
O2	O	1.263074	-0.183570	0.158538
O3	O	1.447475	-0.226951	0.027368
O4	O	1.428714	-0.222519	0.287155
O5	O	1.412312	-0.445668	0.052485
O6	O	1.227911	-0.402287	0.183656
O7	O	1.577952	-0.484617	0.181102
Zn8	Zn	1.397349	-0.478178	0.186367
Zn9	Zn	1.443677	-0.190009	0.153273
O10	O	1.393551	-0.441236	0.312272
C11	C	1.200696	-0.282392	0.169013
C12	C	1.067217	-0.250998	0.162794
C13	C	0.989492	-0.350303	0.173032
C14	C	0.851534	-0.317858	0.166605
N15	N	1.365740	-0.674847	0.208952
C16	C	1.432672	-0.758372	0.161125
C17	C	1.408354	-0.909818	0.178515
C18	C	1.640330	-0.385792	0.170626
C19	C	1.773811	-0.417177	0.176845
C20	C	1.429054	-0.336112	0.006575
C21	C	1.426540	-0.335519	-0.092805
N22	N	1.475296	0.006658	0.130681
C23	C	1.534871	-0.361000	-0.146500
C24	C	1.532503	-0.360429	-0.239878
C25	C	1.421801	-0.334387	-0.279558
C26	C	1.313462	-0.308900	-0.225856
C27	C	1.315833	-0.309462	-0.132480
C28	C	1.308528	-0.307735	-0.420480
C29	C	1.306157	-0.307176	-0.513861
C30	C	1.525198	-0.358702	-0.527878
C31	C	1.527569	-0.359264	-0.434502
C32	C	1.419229	-0.333779	-0.380806
C33	C	1.411972	-0.332072	0.333065
C34	C	1.414488	-0.332656	0.432443
H35	H	0.815949	-0.208812	0.153077
H36	H	1.625016	-0.382214	-0.114200
H37	H	0.809395	-0.526224	0.190367
H38	H	1.333038	-0.950421	0.232335
H39	H	1.550602	-0.952737	0.076855
O40	O	1.522390	-0.709939	0.096811
C41	C	1.598922	-0.683914	-0.061285
C42	C	1.497216	-0.738815	0.011448
H43	H	1.578618	-0.707265	-0.130315
H44	H	1.602505	-0.570389	-0.063924
H45	H	1.690997	-0.733530	-0.043443
H46	H	1.405088	-0.689301	-0.006342
H47	H	1.493741	-0.852346	0.014072
H48	H	1.025085	-0.459342	0.186552
O49	O	1.024980	-0.120839	0.146617
C50	C	1.075955	0.112651	0.120119
C51	C	1.123950	-0.034697	0.138413
H52	H	1.155944	0.182339	0.113500
H53	H	1.029139	0.129856	0.054492
H54	H	1.007221	0.134841	0.178894
H55	H	1.192727	-0.056989	0.079694
H56	H	1.170692	-0.051828	0.204072
H57	H	1.227619	-0.288713	-0.088762
O58	O	1.203358	-0.282757	-0.368305
C59	C	1.097154	-0.140238	-0.267701
C60	C	1.216314	-0.168343	-0.326773
H61	H	1.107598	-0.047751	-0.234091
H62	H	1.017588	-0.121437	-0.312063
H63	H	1.078087	-0.230793	-0.213165
H64	H	1.235497	-0.077831	-0.381316
H65	H	1.295813	-0.187198	-0.282351
H66	H	1.223328	-0.287688	-0.258171
O67	O	1.275824	-0.723416	0.273052
C68	C	1.086773	-0.840421	0.304642
C69	C	1.188539	-0.785516	0.231960
H70	H	1.016164	-0.890616	0.271444
H71	H	1.128555	-0.917227	0.358322
H72	H	1.040219	-0.753968	0.337965
H73	H	1.235131	-0.871879	0.198568
H74	H	1.146687	-0.708672	0.178338
H75	H	1.620717	-0.381181	-0.283594
O76	O	1.635216	-0.384532	-0.396107
C77	C	1.852212	-0.435663	-0.419848
C78	C	1.730392	-0.407038	-0.463450
H79	H	1.929190	-0.453894	-0.474272
H80	H	1.873598	-0.345680	-0.387020
H81	H	1.844011	-0.528708	-0.365949
H82	H	1.738501	-0.314035	-0.517385
H83	H	1.709049	-0.497093	-0.496218
H84	H	1.613413	-0.379448	-0.571602
O85	O	1.198531	-0.281775	-0.552272
C86	C	0.981517	-0.230757	-0.528518
C87	C	1.103321	-0.259480	-0.484904
H88	H	0.904503	-0.212752	-0.474068
H89	H	0.989593	-0.137635	-0.582363
H90	H	0.960270	-0.320726	-0.561409
H91	H	1.124640	-0.169593	-0.451962
H92	H	1.095183	-0.352650	-0.431105
