data_functionalizedCrystal
_audit_creation_method	'MofGen! by Chris Wilmer'
_symmetry_space_group_name_H-M	'P1'
_symmetry_Int_Tables_number	1
_symmetry_cell_setting	triclinic
loop_
_symmetry_equiv_pos_as_xyz
  x,y,z
_cell_length_a	19.188930
_cell_length_b	23.532407
_cell_length_c	17.666332
_cell_angle_alpha	89.988854
_cell_angle_beta	89.976766
_cell_angle_gamma	82.996728
loop_
_atom_site_label
_atom_site_type_symbol
_atom_site_fract_x
_atom_site_fract_y
_atom_site_fract_z
O1	O	0.925923	0.071102	-0.063199
O2	O	0.722581	0.080673	-0.063148
O3	O	0.830384	-0.007031	-0.063161
O4	O	0.818120	0.158806	-0.063186
O5	O	0.830365	-0.007036	0.062735
O6	O	0.722562	0.080669	0.062748
O7	O	0.925904	0.071097	0.062697
Cu8	Cu	0.824231	0.075883	0.074218
Cu9	Cu	0.824253	0.075888	-0.074669
O10	O	0.818101	0.158802	0.062711
C11	C	0.696561	0.080361	-0.000193
C12	C	0.619060	0.079431	-0.000173
C13	C	0.573972	0.130893	-0.000193
C14	C	0.501151	0.130019	-0.000201
C15	C	0.473421	0.077680	-0.000205
C16	C	0.518519	0.026211	-0.000181
C17	C	0.591339	0.027086	-0.000165
N18	N	0.365575	0.037674	-0.043078
N19	N	0.296399	0.036846	-0.043094
C20	C	0.254021	0.075038	-0.000251
N21	N	0.283431	0.114099	0.042600
N22	N	0.352613	0.114929	0.042614
C23	C	0.394462	0.076724	-0.000222
C24	C	0.129971	0.125556	-0.000278
C25	C	0.057149	0.124680	-0.000282
C26	C	0.074520	0.020870	-0.000269
C27	C	0.147340	0.021748	-0.000258
C28	C	0.175061	0.074092	-0.000266
C29	C	0.830062	-0.028250	-0.000211
C30	C	0.829123	-0.091469	-0.000205
C31	C	0.887029	-0.490449	-0.000261
C32	C	0.886157	-0.549851	-0.000267
O33	O	0.939837	-0.586482	-0.000308
N34	N	0.822068	-0.572613	-0.000250
C35	C	0.758848	-0.535970	-0.000236
O36	O	0.704255	-0.560786	-0.000223
C37	C	0.759721	-0.476569	-0.000235
C38	C	0.823814	-0.453810	-0.000244
C39	C	0.951117	-0.467690	-0.000271
C40	C	0.951989	-0.408292	-0.000264
C41	C	0.888773	-0.371653	-0.000247
C42	C	0.824685	-0.394412	-0.000237
C43	C	0.696501	-0.439927	-0.000226
C44	C	0.697379	-0.380523	-0.000227
C45	C	0.761472	-0.357764	-0.000236
C46	C	0.762342	-0.298376	-0.000214
N47	N	0.826430	-0.275614	-0.000230
C48	C	0.889646	-0.312252	-0.000247
C49	C	0.757019	-0.660717	-0.000237
C50	C	0.756146	-0.720116	-0.000232
C51	C	0.883455	-0.733993	-0.000264
C52	C	0.884328	-0.674592	-0.000264
C53	C	0.821108	-0.637954	-0.000254
C54	C	0.891472	-0.187512	-0.000232
C55	C	0.892339	-0.128108	-0.000222
C56	C	0.765029	-0.114236	-0.000193
C57	C	0.764163	-0.173634	-0.000199
C58	C	0.827390	-0.210272	-0.000221
O59	O	0.708690	-0.261710	-0.000176
O60	O	0.944230	-0.287428	-0.000270
C61	C	0.951923	0.071410	-0.000259
C62	C	1.029425	0.072340	-0.000284
C63	C	0.818423	0.180021	-0.000241
C64	C	0.819362	0.243240	-0.000252
N65	N	0.824221	0.075878	0.178938
N66	N	0.824270	0.075888	-0.179389
C67	C	0.871971	0.037062	0.218542
C68	C	0.871975	0.037059	0.297789
C69	C	0.824236	0.075883	0.337430
C70	C	0.776476	0.114702	0.297816
C71	C	0.776469	0.114700	0.218570
N72	N	0.814998	0.126298	0.461842
N73	N	0.815010	0.126298	0.537123
C74	C	0.824254	0.075891	0.576194
N75	N	0.833500	0.025481	0.537141
N76	N	0.833493	0.025482	0.461853
C77	C	0.824238	0.075889	0.423359
C78	C	0.872011	0.037068	0.701727
C79	C	0.872010	0.037064	0.780976
C80	C	0.776515	0.114713	0.781002
C81	C	0.776512	0.114711	0.701754
C82	C	0.824264	0.075889	0.662122
H83	H	0.051943	-0.021745	-0.000319
H84	H	0.737642	0.146321	0.813277
H85	H	1.004180	-0.389768	-0.000274
H86	H	0.152543	0.168178	-0.000274
H87	H	0.184052	-0.020158	-0.000246
H88	H	0.628050	-0.014822	-0.000150
N89	N	0.724989	0.156578	0.340569
H90	H	0.694736	0.181169	0.303451
H91	H	0.694282	0.134836	0.373474
H92	H	0.910852	0.005450	0.186275
H93	H	0.934929	-0.763836	-0.000281
H94	H	0.464433	0.171927	-0.000215
N95	N	0.725008	0.156582	0.659040
H96	H	0.732766	0.196987	0.672814
H97	H	0.732269	0.150641	0.602836
N98	N	0.724962	0.156566	0.175849
H99	H	0.694716	0.181160	0.212983
H100	H	0.751510	0.181691	0.142947
H101	H	0.910892	0.005452	0.813222
N102	N	0.695034	-0.198182	-0.000184
H103	H	0.691842	-0.222506	-0.046859
H104	H	0.691867	-0.222501	0.046512
H105	H	0.596537	0.173516	-0.000201
N106	N	0.961470	-0.103561	-0.000227
H107	H	1.001382	-0.135789	-0.000241
H108	H	0.964615	-0.079208	-0.046896
H109	H	0.644310	-0.458446	-0.000224
N110	N	0.687014	-0.744654	-0.000205
H111	H	0.659344	-0.731271	-0.046866
H112	H	0.696100	-0.787840	-0.000180
N113	N	0.488616	-0.030242	-0.000176
H114	H	0.435643	-0.022988	-0.000190
H115	H	0.505163	-0.052756	-0.046839
H116	H	0.942958	-0.217335	-0.000252
H117	H	0.020438	0.166588	-0.000293
N118	N	1.019305	-0.507202	-0.000288
H119	H	1.060030	-0.483761	-0.000294
H120	H	1.021710	-0.532154	0.046385
N121	N	0.688828	-0.621201	-0.000219
H122	H	0.648100	-0.644639	-0.000208
H123	H	0.686407	-0.596260	0.046454
N124	N	0.923487	-0.004813	0.658962
H125	H	0.954247	0.016880	0.626053
H126	H	0.953688	-0.029406	0.696117
N127	N	0.953456	-0.650047	-0.000273
H128	H	0.993366	-0.682276	-0.000282
H129	H	0.956603	-0.625699	-0.046946
N130	N	0.629190	-0.341006	-0.000219
H131	H	0.588460	-0.364441	-0.000214
H132	H	0.626767	-0.316066	0.046455
H133	H	0.713561	-0.084394	-0.000177
N134	N	0.923477	-0.004810	0.340518
H135	H	0.953725	-0.029404	0.303386
H136	H	0.954188	0.016937	0.373373
