data_functionalizedCrystal
_audit_creation_method	'MofGen! by Chris Wilmer'
_symmetry_space_group_name_H-M	'P1'
_symmetry_Int_Tables_number	1
_symmetry_cell_setting	triclinic
loop_
_symmetry_equiv_pos_as_xyz
  x,y,z
_cell_length_a	10.654550
_cell_length_b	10.654545
_cell_length_c	9.730223
_cell_angle_alpha	89.999566
_cell_angle_beta	90.004186
_cell_angle_gamma	84.483991
loop_
_atom_site_label
_atom_site_type_symbol
_atom_site_fract_x
_atom_site_fract_y
_atom_site_fract_z
O1	O	0.176374	1.667836	0.114272
O2	O	0.193186	1.302357	0.114278
O3	O	0.002040	1.493500	0.114270
O4	O	0.367519	1.476693	0.114280
O5	O	0.002031	1.493500	-0.114310
O6	O	0.193176	1.302357	-0.114302
O7	O	0.176364	1.667836	-0.114308
Zn8	Zn	0.184768	1.485096	-0.150597
Zn9	Zn	0.184781	1.485097	0.150567
O10	O	0.367509	1.476693	-0.114300
C11	C	0.191948	1.255559	-0.000011
C12	C	0.188258	1.116115	-0.000009
C13	C	0.186516	1.050611	-0.124609
C14	C	0.183028	0.919591	-0.124609
C15	C	0.183031	0.919592	0.124601
C16	C	0.186509	1.050610	0.124600
C17	C	-0.044762	1.492266	-0.000018
C18	C	-0.184206	1.488574	-0.000014
C19	C	-0.263693	1.601115	-0.000019
C20	C	-0.394714	1.597639	-0.000010
C21	C	-0.366747	1.369069	0.000006
C22	C	-0.235729	1.372547	0.000006
C23	C	-0.212170	1.717142	-0.000039
C24	C	-0.291659	1.829693	-0.000046
C25	C	-0.422680	1.826217	-0.000037
C26	C	-0.474212	1.710189	-0.000020
C27	C	0.414312	1.477927	-0.000008
C28	C	0.553755	1.481619	-0.000004
C29	C	0.177602	1.714634	-0.000015
C30	C	0.181292	1.854078	-0.000008
N31	N	0.184781	1.485097	0.356103
C32	C	0.100310	1.569895	0.428026
C33	C	0.100304	1.569899	0.571909
C34	C	0.269244	1.400297	0.571934
C35	C	0.269255	1.400299	0.428054
N36	N	0.184764	1.485098	0.643867
H37	H	0.187924	1.103946	0.226070
H38	H	0.181608	0.866241	0.226053
O39	O	-0.417010	1.256475	-0.000049
C40	C	-0.549695	1.277540	-0.000019
H41	H	-0.579606	1.375282	-0.043296
H42	H	-0.590564	1.203232	-0.066381
H43	H	-0.586208	1.271137	0.109642
O44	O	-0.241457	1.942319	0.000127
C45	C	-0.166519	1.951184	0.118523
H46	H	-0.134747	1.852480	0.157993
H47	H	-0.080307	2.001996	0.091890
H48	H	-0.223902	2.006242	0.201421
O49	O	-0.499716	1.935659	-0.000098
C50	C	-0.426139	2.038805	-0.000078
H51	H	-0.328650	2.007776	-0.043354
H52	H	-0.473778	2.117726	-0.066446
H53	H	-0.416492	2.074322	0.109580
O54	O	0.351360	1.317799	0.358392
C55	C	0.425930	1.242967	0.452747
H56	H	0.374407	1.241191	0.555302
H57	H	0.443980	1.142827	0.411169
H58	H	0.519701	1.284371	0.468066
H59	H	-0.105488	1.719986	-0.000051
O60	O	-0.601505	1.706969	0.000182
C61	C	-0.652928	1.768466	0.118586
H62	H	-0.585586	1.837203	0.158046
H63	H	-0.747460	1.822320	0.091969
H64	H	-0.667321	1.695605	0.201486
O65	O	0.187976	1.114217	-0.245684
C66	C	0.078557	1.095460	-0.321500
H67	H	0.001716	1.068730	-0.248592
H68	H	0.044394	1.186082	-0.378022
H69	H	0.101081	1.016406	-0.399191
O70	O	0.018212	1.652387	0.358345
C71	C	-0.056367	1.727209	0.452687
H72	H	-0.004852	1.728979	0.555256
H73	H	-0.074418	1.827352	0.411113
H74	H	-0.150137	1.685801	0.467979
O75	O	0.351168	1.317966	0.642043
C76	C	0.333065	1.336162	0.784459
H77	H	0.233716	1.382416	0.804093
H78	H	0.345972	1.241167	0.839138
H79	H	0.404867	1.399615	0.825308
O80	O	0.181498	0.855799	-0.245556
C81	C	0.288074	0.766740	-0.253023
H82	H	0.323755	0.742682	-0.144837
H83	H	0.261197	0.677598	-0.305757
H84	H	0.365447	0.807923	-0.314513
O85	O	-0.158687	1.263108	-0.000048
C86	C	-0.232254	1.159954	-0.000006
H87	H	-0.329749	1.190968	-0.043290
H88	H	-0.184614	1.081027	-0.066356
H89	H	-0.241885	1.124454	0.109659
O90	O	0.018022	1.652009	0.641821
C91	C	-0.060232	1.584080	0.724860
H92	H	-0.011138	1.486255	0.746527
H93	H	-0.079801	1.636346	0.825992
H94	H	-0.153034	1.574710	0.669213
