data_functionalizedCrystal
_audit_creation_method	'MofGen! by Chris Wilmer'
_symmetry_space_group_name_H-M	'P1'
_symmetry_Int_Tables_number	1
_symmetry_cell_setting	triclinic
loop_
_symmetry_equiv_pos_as_xyz
  x,y,z
_cell_length_a	11.169417
_cell_length_b	19.120786
_cell_length_c	11.169409
_cell_angle_alpha	87.520717
_cell_angle_beta	89.980176
_cell_angle_gamma	92.466141
loop_
_atom_site_label
_atom_site_type_symbol
_atom_site_fract_x
_atom_site_fract_y
_atom_site_fract_z
Zn1	Zn	1.814456	-0.279559	-0.658103
Zn2	Zn	2.147790	0.053774	-0.324770
Zn3	Zn	2.481123	0.387108	0.008564
Zn4	Zn	1.805728	-0.397041	-0.448830
Zn5	Zn	2.139061	-0.063707	-0.115497
Zn6	Zn	2.472395	0.269626	0.217836
Zn7	Zn	1.613739	-0.279602	-0.457434
Zn8	Zn	1.947072	0.053731	-0.124101
Zn9	Zn	2.280406	0.387065	0.209232
Zn10	Zn	1.605136	-0.396983	-0.649479
Zn11	Zn	1.938470	-0.063650	-0.316146
Zn12	Zn	2.271803	0.269683	0.017187
O13	O	1.709765	-0.338296	-0.553462
O14	O	2.043098	-0.004963	-0.220128
O15	O	2.376432	0.328370	0.113205
O16	O	1.981248	-0.295149	-0.630351
O17	O	2.314581	0.038184	-0.297017
O18	O	2.647914	0.371517	0.036316
O19	O	1.780208	-0.381504	-0.282019
O20	O	2.113541	-0.048171	0.051315
O21	O	2.446875	0.285163	0.384648
O22	O	1.647618	-0.181305	-0.491263
O23	O	1.980951	0.152028	-0.157930
O24	O	2.314284	0.485362	0.175403
O25	O	1.974835	-0.381462	-0.476599
O26	O	2.308169	-0.048129	-0.143266
O27	O	2.641502	0.285204	0.190068
O28	O	1.795084	-0.181274	-0.638694
O29	O	2.128417	0.152060	-0.305360
O30	O	2.461750	0.485393	0.027973
O31	O	1.639154	-0.295222	-0.288340
O32	O	1.972488	0.038111	0.044993
O33	O	2.305821	0.371444	0.378327
O34	O	1.444649	-0.295167	-0.482901
O35	O	1.777982	0.038167	-0.149568
O36	O	2.111315	0.371500	0.183765
O37	O	1.632956	-0.381365	-0.818576
O38	O	1.966289	-0.048032	-0.485243
O39	O	2.299622	0.285302	-0.151910
O40	O	1.438328	-0.381407	-0.623996
O41	O	1.771662	-0.048073	-0.290663
O42	O	2.104995	0.285260	0.042671
O43	O	1.786742	-0.295094	-0.824912
O44	O	2.120075	0.038240	-0.491579
O45	O	2.453409	0.371573	-0.158245
O46	O	1.771866	-0.495324	-0.468237
O47	O	2.105200	-0.161991	-0.134904
O48	O	2.438533	0.171343	0.198430
O49	O	1.624492	-0.495282	-0.615653
O50	O	1.957826	-0.161949	-0.282320
O51	O	2.291159	0.171385	0.051014
C52	C	1.397941	-0.338286	-0.553447
C53	C	1.731274	-0.004952	-0.220114
C54	C	2.064608	0.328381	0.113220
C55	C	1.264540	-0.338298	-0.553468
C56	C	1.597873	-0.004965	-0.220135
C57	C	1.931207	0.328369	0.113199
C58	C	1.696331	-0.520789	-0.540102
C59	C	2.029665	-0.187456	-0.206769
C60	C	2.362998	0.145878	0.126565
C61	C	1.690694	-0.598860	-0.534427
C62	C	2.024027	-0.265527	-0.201093
C63	C	2.357361	0.067807	0.132240
C64	C	1.764766	-0.635461	-0.608582
C65	C	2.098100	-0.302128	-0.275249
C66	C	2.431433	0.031205	0.058085
C67	C	1.759465	-0.708817	-0.603251
C68	C	2.092798	-0.375484	-0.269918
C69	C	2.426131	-0.042151	0.063415
C70	C	1.680096	-0.745571	-0.523759
C71	C	2.013429	-0.412238	-0.190426
C72	C	2.346763	-0.078904	0.142908
C73	C	1.606016	-0.708965	-0.449601
C74	C	1.939349	-0.375631	-0.116267
C75	C	2.272683	-0.042298	0.217066
C76	C	1.611312	-0.635610	-0.454938
C77	C	1.944646	-0.302276	-0.121605
C78	C	2.277979	0.031057	0.211729
C79	C	1.660261	-0.967059	-0.503806
C80	C	1.993594	-0.633725	-0.170472
C81	C	2.326927	-0.300392	0.162861
C82	C	1.654973	-1.040419	-0.498471
C83	C	1.988306	-0.707085	-0.165138
C84	C	2.321639	-0.373752	0.168195
C85	C	1.808420	-1.040266	-0.652125
C86	C	2.141754	-0.706933	-0.318791
C87	C	2.475087	-0.373600	0.014542
C88	C	1.813715	-0.966910	-0.657450
C89	C	2.147048	-0.633577	-0.324116
C90	C	2.480381	-0.300243	0.009217
C91	C	1.739630	-0.930310	-0.583296
C92	C	2.072964	-0.596977	-0.249963
C93	C	2.406297	-0.263644	0.083371
C94	C	1.674678	-0.820553	-0.518306
C95	C	2.008011	-0.487219	-0.184972
C96	C	2.341344	-0.153886	0.148361
C97	C	1.745043	-0.855330	-0.588756
C98	C	2.078377	-0.521996	-0.255423
C99	C	2.411710	-0.188663	0.077911
C100	C	2.022806	-0.338307	-0.553477
C101	C	2.356140	-0.004974	-0.220144
C102	C	2.689473	0.328359	0.113190
C103	C	2.156206	-0.338312	-0.553484
C104	C	2.489539	-0.004979	-0.220150
C105	C	2.822873	0.328354	0.113183
C106	C	1.709863	-0.338218	-0.866510
C107	C	2.043196	-0.004885	-0.533177
C108	C	2.376529	0.328448	-0.199843
C109	C	1.709904	-0.338185	-0.999913
C110	C	2.043238	-0.004852	-0.666579
C111	C	2.376571	0.328482	-0.333246
C112	C	1.723284	-0.155091	-0.566900
C113	C	2.056617	0.178242	-0.233567
C114	C	2.389950	0.511576	0.099767
C115	C	1.729045	-0.077020	-0.572627
C116	C	2.062378	0.256314	-0.239293
C117	C	2.395711	0.589647	0.094040
C118	C	1.709740	-0.338323	-0.241635
C119	C	2.043074	-0.004990	0.091698
C120	C	2.376407	0.328343	0.425032
C121	C	1.709945	-0.338159	-0.108248
C122	C	2.043279	-0.004825	0.225086
C123	C	2.376612	0.328508	0.558419
H124	H	1.829402	-0.605541	-0.673308
H125	H	2.162735	-0.272208	-0.339975
H126	H	2.496068	0.061125	-0.006641
O127	O	1.520427	-0.748608	-0.363849
O128	O	1.853760	-0.415275	-0.030515
O129	O	2.187094	-0.081941	0.302818
H130	H	1.456931	-0.782046	-0.415070
H131	H	1.790264	-0.448712	-0.081737
H132	H	2.123597	-0.115379	0.251597
H133	H	1.878343	-0.936987	-0.722179
H134	H	2.211676	-0.603653	-0.388846
H135	H	2.545010	-0.270320	-0.055512
O136	O	1.839357	-0.748297	-0.683231
O137	O	2.172690	-0.414964	-0.349897
O138	O	2.506024	-0.081630	-0.016564
H139	H	1.895447	-0.710416	-0.739392
H140	H	2.228780	-0.377083	-0.406059
H141	H	2.562113	-0.043750	-0.072726
H142	H	1.550993	-0.605810	-0.394554
H143	H	1.884327	-0.272476	-0.061221
H144	H	2.217660	0.060857	0.272112
O145	O	1.830659	-0.815694	-0.674483
O146	O	2.163993	-0.482361	-0.341150
O147	O	2.497326	-0.149028	-0.007816
H148	H	1.779334	-0.782267	-0.737929
H149	H	2.112668	-0.448934	-0.404596
H150	H	2.446001	-0.115601	-0.071263
H151	H	1.868734	-1.070074	-0.712498
H152	H	2.202068	-0.736741	-0.379164
H153	H	2.535401	-0.403407	-0.045831
H154	H	1.599940	-0.937265	-0.443425
H155	H	1.933274	-0.603932	-0.110091
H156	H	2.266607	-0.270598	0.223242
O157	O	1.569356	-1.080065	-0.412739
O158	O	1.902689	-0.746731	-0.079405
O159	O	2.236022	-0.413398	0.253928
H160	H	1.518719	-1.042291	-0.362080
H161	H	1.852053	-0.708958	-0.028747
H162	H	2.185386	-0.375625	0.304587
H163	H	1.610059	-0.850486	-0.453579
H164	H	1.943392	-0.517152	-0.120246
H165	H	2.276726	-0.183819	0.213087
