data_functionalizedCrystal
_audit_creation_method	'MofGen! by Chris Wilmer'
_symmetry_space_group_name_H-M	'P1'
_symmetry_Int_Tables_number	1
_symmetry_cell_setting	triclinic
loop_
_symmetry_equiv_pos_as_xyz
  x,y,z
_cell_length_a	15.944545
_cell_length_b	15.944551
_cell_length_c	9.730223
_cell_angle_alpha	89.997716
_cell_angle_beta	90.002580
_cell_angle_gamma	83.497455
loop_
_atom_site_label
_atom_site_type_symbol
_atom_site_fract_x
_atom_site_fract_y
_atom_site_fract_z
O1	O	1.114523	0.108303	-0.114204
O2	O	1.614523	0.608303	0.385796
O3	O	0.869972	0.121665	-0.114227
O4	O	1.369972	0.621665	0.385773
O5	O	0.998926	-0.007291	-0.114202
O6	O	1.498926	0.492709	0.385798
O7	O	0.985569	0.237259	-0.114228
O8	O	1.485569	0.737259	0.385772
O9	O	0.998924	-0.007288	0.114378
O10	O	1.498924	0.492712	0.614378
O11	O	0.869971	0.121668	0.114353
O12	O	1.369971	0.621668	0.614353
O13	O	1.114521	0.108307	0.114376
O14	O	1.614521	0.608307	0.614376
Zn15	Zn	0.992246	0.114988	0.150657
Zn16	Zn	1.492246	0.614988	0.650657
Zn17	Zn	0.992248	0.114984	-0.150507
Zn18	Zn	1.492248	0.614984	0.349493
O19	O	0.985568	0.237262	0.114352
O20	O	1.485568	0.737262	0.614352
C21	C	0.838677	0.121113	0.000061
C22	C	1.338677	0.621113	0.500061
C23	C	0.745431	0.119453	0.000052
C24	C	1.245431	0.619453	0.500052
C25	C	0.998370	-0.038583	0.000088
C26	C	1.498370	0.461417	0.500088
C27	C	0.996708	-0.131829	0.000089
C28	C	1.496708	0.368171	0.500089
C29	C	0.474798	0.034559	0.000076
C30	C	0.974798	0.534559	0.500076
C31	C	0.525379	0.075490	0.112777
C32	C	1.025379	0.575490	0.612777
C33	C	0.409787	0.113532	0.000077
C34	C	0.909787	0.613532	0.500077
C35	C	0.525361	0.075508	-0.112585
C36	C	1.025361	0.575508	0.387415
C37	C	0.574701	0.116437	0.000062
C38	C	1.074701	0.616437	0.500062
C39	C	0.459140	0.154441	0.112870
C40	C	0.959140	0.654441	0.612870
C41	C	0.459119	0.154448	-0.112593
C42	C	0.959119	0.654448	0.387407
C43	C	0.509667	0.195436	0.000136
C44	C	1.009667	0.695436	0.500136
C45	C	0.314785	0.111856	0.000086
C46	C	0.814785	0.611856	0.500086
C47	C	0.669700	0.118119	0.000063
C48	C	1.169700	0.618119	0.500063
C49	C	0.912803	-0.346684	0.000062
C50	C	1.412803	0.153316	0.500062
C51	C	0.951765	-0.407700	0.112769
C52	C	1.451765	0.092300	0.612769
C53	C	0.993701	-0.302555	0.000078
C54	C	1.493701	0.197445	0.500078
C55	C	0.951786	-0.407687	-0.112593
C56	C	1.451786	0.092313	0.387407
C57	C	0.990790	-0.467468	0.000061
C58	C	1.490790	0.032532	0.500061
C59	C	1.032685	-0.362343	0.112878
C60	C	1.532685	0.137657	0.612878
C61	C	1.032694	-0.362324	-0.112585
C62	C	1.532694	0.137676	0.387415
C63	C	1.071715	-0.423322	0.000150
C64	C	1.571715	0.076678	0.500150
C65	C	0.995375	-0.207553	0.000088
C66	C	1.495375	0.292447	0.500088
C67	C	0.989122	-0.562469	0.000060
C68	C	1.489122	-0.062469	0.500060
C69	C	1.145816	0.108859	0.000086
C70	C	1.645816	0.608859	0.500086
C71	C	1.239062	0.110519	0.000085
C72	C	1.739062	0.610519	0.500085
C73	C	0.986123	0.268555	0.000059
C74	C	1.486123	0.768555	0.500059
C75	C	0.987785	0.361801	0.000049
C76	C	1.487785	0.861801	0.500049
N77	N	0.992250	0.114990	0.356193
N78	N	1.492250	0.614990	0.856193
N79	N	0.992250	0.114975	-0.356044
N80	N	1.492250	0.614975	0.143956
C81	C	1.049366	0.057908	0.428130
C82	C	1.549366	0.557908	0.928130
C83	C	1.049363	0.057898	0.572013
C84	C	1.549363	0.557898	1.072013
C85	C	0.935128	0.172060	0.572010
C86	C	1.435128	0.672060	1.072010
C87	C	0.935127	0.172065	0.428129
C88	C	1.435127	0.672065	0.928129
C89	C	1.115321	-0.008000	0.428133
C90	C	1.615321	0.492000	0.928133
C91	C	1.115319	-0.008011	0.572016
C92	C	1.615319	0.491989	1.072016
H93	H	0.459145	-0.033453	0.000193
H94	H	0.959145	0.466547	0.500193
H95	H	1.138922	-0.456483	0.000220
H96	H	1.638922	0.043517	0.500220
C97	C	0.530603	0.287386	0.000217
C98	C	1.030603	0.787386	0.500217
N99	N	0.546376	0.356642	0.000286
N100	N	1.046376	0.856642	0.500286
H101	H	0.430173	0.187770	-0.207883
H102	H	0.930173	0.687770	0.292117
C103	C	1.078867	-0.335339	0.241750
C104	C	1.578867	0.164661	0.741750
N105	N	1.113647	-0.314996	0.338818
N106	N	1.613647	0.185004	0.838818
C107	C	1.096694	-0.095055	0.375373
C108	C	1.596694	0.404945	0.875373
N109	N	1.082662	-0.160622	0.335635
N110	N	1.582662	0.339378	0.835635
H111	H	1.066882	-0.342195	-0.207869
H112	H	1.566882	0.157805	0.292131
H113	H	0.430330	0.187770	0.208252
H114	H	0.930330	0.687770	0.708252
C115	C	0.872361	0.234924	0.349004
C116	C	1.372361	0.734924	0.849004
N117	N	0.825108	0.282298	0.289407
N118	N	1.325108	0.782298	0.789407
H119	H	0.888620	0.218528	0.630595
H120	H	1.388620	0.718528	1.130595
C121	C	1.202335	0.010741	0.624784
C122	C	1.702335	0.510741	1.124784
N123	N	1.267865	0.024889	0.664528
N124	N	1.767865	0.524889	1.164528
C125	C	1.197476	0.018919	0.367843
C126	C	1.697476	0.518919	0.867843
N127	N	1.259356	0.039194	0.322431
N128	N	1.759356	0.539194	0.822431
H129	H	1.095438	-0.068848	0.616636
H130	H	1.595438	0.431152	1.116636
H131	H	0.554310	0.042138	0.208064
H132	H	1.054310	0.542138	0.708064
C133	C	0.822092	-0.301678	0.000207
C134	C	1.322092	0.198322	0.500207
N135	N	0.753771	-0.267776	0.000326
N136	N	1.253771	0.232224	0.500326
C137	C	0.564425	0.030432	-0.241300
C138	C	1.064425	0.530432	0.258700
N139	N	0.593845	-0.003524	-0.338243
N140	N	1.093845	0.496476	0.161757
H141	H	0.917548	-0.427807	0.208048
H142	H	1.417548	0.072193	0.708048
H143	H	0.917559	-0.427765	-0.207885
H144	H	1.417559	0.072235	0.292115
