data_functionalizedCrystal
_audit_creation_method	'MofGen! by Chris Wilmer'
_symmetry_space_group_name_H-M	'P1'
_symmetry_Int_Tables_number	1
_symmetry_cell_setting	triclinic
loop_
_symmetry_equiv_pos_as_xyz
  x,y,z
_cell_length_a	14.395555
_cell_length_b	14.560438
_cell_length_c	14.560438
_cell_angle_alpha	60.002872
_cell_angle_beta	89.998732
_cell_angle_gamma	60.005130
loop_
_atom_site_label
_atom_site_type_symbol
_atom_site_fract_x
_atom_site_fract_y
_atom_site_fract_z
Zr1	Zr	0.894989	1.005214	-0.120435
O2	O	0.746690	1.196790	-0.267058
O3	O	0.940436	0.813635	-0.075502
O4	O	0.940461	1.005217	-0.267084
O5	O	0.746661	1.005207	0.075663
O6	O	1.093328	1.005224	-0.267087
O7	O	0.746664	1.005208	-0.075476
O8	O	1.093283	0.662518	0.075617
O9	O	0.746706	1.347912	-0.267042
O10	O	1.073919	0.892441	-0.056324
O11	O	0.959834	0.892436	0.056473
O12	O	0.959864	1.117999	-0.169090
O13	O	0.845778	1.117993	-0.056293
Zr14	Zr	1.138789	1.005225	0.120609
Zr15	Zr	1.138794	1.005225	-0.120441
Zr16	Zr	0.894984	1.005214	0.120615
Zr17	Zr	0.895016	1.246238	-0.120409
Zr18	Zr	1.138762	0.764201	0.120583
O19	O	1.093343	1.196804	0.075676
O20	O	1.093350	1.196805	-0.267066
O21	O	0.746683	1.196789	0.075684
O22	O	1.287089	0.813650	0.267232
O23	O	1.287096	0.813650	-0.075510
O24	O	0.940429	0.813634	0.267241
O25	O	1.287117	1.005232	-0.075489
O26	O	1.093317	1.005222	0.267258
O27	O	0.940450	1.005216	0.267262
O28	O	1.287114	1.005231	0.075651
O29	O	0.940499	1.347921	-0.267046
O30	O	1.093279	0.662518	0.267220
O31	O	1.287072	0.662527	0.267216
O32	O	1.287076	0.662527	0.075613
O33	O	0.746703	1.347912	-0.075439
O34	O	0.940495	1.347921	-0.075443
O35	O	1.073915	0.892440	0.169264
O36	O	1.188000	0.892446	0.056468
O37	O	1.073944	1.118004	-0.056299
O38	O	0.959859	1.117998	0.056498
C39	C	1.016855	0.703736	0.000054
C40	C	1.016844	0.601415	0.000043
C41	C	0.957357	0.457118	0.058986
C42	C	0.957315	0.553311	0.058945
C43	C	1.076429	0.553311	-0.058813
C44	C	1.076477	0.457113	-0.058765
C45	C	0.888583	0.457123	0.126969
C46	C	0.888541	0.553316	0.126928
C47	C	0.711926	1.005206	0.000094
C48	C	0.608424	1.005201	0.000097
C49	C	0.610023	0.882217	0.061580
C50	C	0.517013	0.943697	0.106162
C51	C	0.517005	0.943726	-0.044453
C52	C	0.516777	1.066682	0.044741
C53	C	0.516783	1.066693	-0.105934
C54	C	0.423756	1.128263	-0.061378
C55	C	1.321853	1.005233	0.000080
C56	C	1.425355	1.005238	0.000078
C57	C	1.016895	1.005220	-0.301430
C58	C	1.016897	1.005220	-0.403762
C59	C	1.016923	1.306703	0.000120
C60	C	1.016934	1.409024	0.000132
C61	C	1.101108	1.005230	-0.451848
C62	C	1.101102	1.005224	-0.547997
C63	C	0.932666	1.005206	-0.547969
C64	C	0.932677	1.005202	-0.451817
C65	C	1.198351	1.005246	-0.451868
C66	C	1.198345	1.005240	-0.548018
C67	C	1.016883	1.005219	0.301604
C68	C	1.016881	1.005219	0.403937
C69	C	1.321819	0.703750	0.000047
C70	C	1.425309	0.601433	0.000033
C71	C	1.016849	0.703735	0.301571
C72	C	1.016836	0.601414	0.403892
C73	C	1.321813	0.703749	0.301564
C74	C	1.425301	0.601433	0.403883
C75	C	0.711965	1.306690	-0.301390
C76	C	0.608477	1.409007	-0.403708
C77	C	0.711959	1.306690	0.000127
C78	C	0.608469	1.409006	0.000141
C79	C	1.016929	1.306704	-0.301397
C80	C	1.016943	1.409025	-0.403718
C81	C	1.414383	0.553359	-0.058846
C82	C	1.511628	0.457230	-0.058862
C83	C	1.630720	0.457254	0.058888
C84	C	1.533477	0.553388	0.058897
C85	C	1.345627	0.553340	-0.126824
C86	C	1.442871	0.457211	-0.126840
C87	C	1.076380	0.553341	0.510839
C88	C	1.076358	0.457205	0.606976
C89	C	0.957246	0.457219	0.489207
C90	C	0.957262	0.553360	0.393072
C91	C	1.145153	0.553328	0.578833
C92	C	1.145131	0.457192	0.674970
C93	C	1.533472	0.553363	0.393076
C94	C	1.630706	0.457232	0.489219
C95	C	1.511585	0.457245	0.606971
C96	C	1.414354	0.553381	0.510829
C97	C	1.602246	0.553350	0.325094
C98	C	1.699480	0.457219	0.421237
H99	H	0.689766	0.778223	0.113644
N100	N	0.518007	1.131868	-0.218387
N101	N	0.438375	1.247964	-0.290596
H102	H	0.439245	1.293988	-0.370019
H103	H	0.926836	0.367143	0.217002
N104	N	1.741209	0.408192	0.118998
N105	N	1.808755	0.418947	0.067738
H106	H	1.886788	0.384301	0.110191
H107	H	0.908762	0.592511	0.305994
H108	H	1.502686	0.418111	0.694057
N109	N	0.515850	0.878482	0.218643
N110	N	0.594651	0.761828	0.290383
H111	H	0.593836	0.715761	0.369824
H112	H	1.750988	0.493350	0.429962
N113	N	0.517830	1.131811	0.092155
N114	N	0.518259	1.090393	0.190968
H115	H	0.519008	1.136384	0.224458
H116	H	0.864115	1.005178	-0.412658
H117	H	0.864097	1.005189	-0.587104
N118	N	0.896396	0.408123	0.478179
N119	N	0.896381	0.322292	0.564020
H120	H	0.853403	0.287619	0.556231
H121	H	0.344141	1.232342	-0.113368
N122	N	0.515862	0.878479	-0.091698
N123	N	0.594671	0.761823	-0.046774
H124	H	0.593870	0.715731	-0.080131
N125	N	1.591174	0.508015	0.261223
N126	N	1.664193	0.393673	0.293789
H127	H	1.656373	0.361653	0.248682
N128	N	1.303844	0.602506	0.521830
N129	N	1.236293	0.720536	0.481308
H130	H	1.158239	0.755230	0.489071
N131	N	1.302521	0.891833	-0.362449
N132	N	1.375903	0.811925	-0.378297
H133	H	1.449465	0.731819	-0.315141
N134	N	1.765681	0.344290	0.421234
N135	N	1.723709	0.287070	0.421242
H136	H	1.770460	0.207312	0.421246
H137	H	1.602274	0.643352	0.272906
N138	N	1.177004	1.122265	-0.472967
N139	N	1.161013	1.209899	-0.569172
H140	H	1.145920	1.292554	-0.584079
H141	H	1.542382	0.592539	0.106830
N142	N	1.259336	0.344256	0.740430
N143	N	1.286614	0.238418	0.760260
H144	H	1.367268	0.158656	0.806490
N145	N	1.088195	0.502528	0.738838
N146	N	1.045579	0.616868	0.706278
H147	H	1.005358	0.648890	0.751378
N148	N	1.295351	0.888240	-0.526943
N149	N	1.312511	0.781347	-0.455472
H150	H	1.381017	0.698712	-0.440586
H151	H	1.292843	0.643340	-0.216842
N152	N	1.187824	1.118647	-0.637455
N153	N	1.102405	1.228898	-0.671837
H154	H	1.094974	1.308989	-0.735002
H155	H	1.294125	0.517206	-0.081965
H156	H	1.451702	0.493344	-0.213890
N157	N	1.442842	0.344299	-0.079413
N158	N	1.363081	0.343576	-0.045977
H159	H	1.363059	0.263836	-0.012485
N160	N	1.097139	0.666252	0.578843
N161	N	1.010154	0.772088	0.499997
H162	H	0.976235	0.851842	0.500002
N163	N	1.137360	0.407980	-0.118869
N164	N	1.190518	0.450928	-0.171445
H165	H	1.233522	0.416226	-0.213894
H166	H	1.124908	0.592475	-0.106765
H167	H	1.233193	0.517202	0.570098
H168	H	0.800562	0.493189	0.082133
H169	H	0.933889	0.517244	0.213960
H170	H	0.797481	0.643312	0.089078
