data_functionalizedCrystal
_audit_creation_method	'MofGen! by Chris Wilmer'
_symmetry_space_group_name_H-M	'P1'
_symmetry_Int_Tables_number	1
_symmetry_cell_setting	triclinic
loop_
_symmetry_equiv_pos_as_xyz
  x,y,z
_cell_length_a	16.704494
_cell_length_b	21.606444
_cell_length_c	21.606444
_cell_angle_alpha	60.001331
_cell_angle_beta	90.002029
_cell_angle_gamma	56.631089
loop_
_atom_site_label
_atom_site_type_symbol
_atom_site_fract_x
_atom_site_fract_y
_atom_site_fract_z
Zr1	Zr	0.815186	0.612744	-0.048844
O2	O	0.680059	0.752592	-0.153030
O3	O	0.856611	0.480336	-0.016908
O4	O	0.856600	0.609461	-0.146027
O5	O	0.680077	0.623463	0.077943
O6	O	0.995858	0.598407	-0.140499
O7	O	0.680070	0.623468	-0.023911
O8	O	0.995877	0.367426	0.090471
O9	O	0.680058	0.854443	-0.153027
O10	O	0.978203	0.523792	0.000841
O11	O	0.874282	0.532038	0.072729
O12	O	0.874269	0.684066	-0.079292
O13	O	0.770349	0.692311	-0.007404
Zr14	Zr	1.037297	0.595106	0.122418
Zr15	Zr	1.037285	0.595114	-0.040028
Zr16	Zr	0.815198	0.612736	0.113602
Zr17	Zr	0.815184	0.775184	-0.048838
Zr18	Zr	1.037299	0.432666	0.122413
O19	O	0.995872	0.727514	0.090482
O20	O	0.995856	0.727525	-0.140495
O21	O	0.680075	0.752581	0.077947
O22	O	1.172424	0.455258	0.226604
O23	O	1.172408	0.455269	-0.004373
O24	O	0.856627	0.480325	0.214069
O25	O	1.172406	0.584387	-0.004369
O26	O	0.995883	0.598389	0.219601
O27	O	0.856625	0.609443	0.214074
O28	O	1.172413	0.584383	0.097486
O29	O	0.856597	0.840430	-0.146019
O30	O	0.995886	0.367420	0.219594
O31	O	1.172425	0.353407	0.226601
O32	O	1.172416	0.353413	0.097478
O33	O	0.680067	0.854437	-0.023904
O34	O	0.856606	0.840424	-0.016896
O35	O	0.978213	0.523785	0.152867
O36	O	1.082134	0.515539	0.080979
O37	O	0.978201	0.675812	0.000846
O38	O	0.874280	0.684058	0.072734
C39	C	0.926244	0.400737	0.036781
C40	C	0.926245	0.331777	0.036779
C41	C	0.980489	0.295075	-0.000747
C42	C	0.980492	0.230275	-0.000742
C43	C	0.926246	0.202182	0.036785
C44	C	0.872001	0.238887	0.074316
C45	C	0.872004	0.303681	0.074315
C46	C	0.871989	-0.022422	0.074321
C47	C	0.871988	-0.087219	0.074318
C48	C	0.980477	-0.095828	-0.000735
C49	C	0.980480	-0.031034	-0.000736
C50	C	0.926240	0.005662	0.036798
C51	C	0.926238	0.075924	0.036793
C52	C	0.926241	0.131926	0.036786
C53	C	0.648429	0.625977	0.025760
C54	C	0.554142	0.633461	0.022018
C55	C	0.485482	0.480185	0.098662
C56	C	0.396894	0.487212	0.095148
C57	C	0.288377	0.654544	0.011479
C58	C	0.376965	0.647516	0.014994
C59	C	0.475517	0.560333	0.058586
C60	C	0.564106	0.553306	0.062095
C61	C	0.455588	0.720637	-0.021569
C62	C	0.367000	0.727665	-0.025083
C63	C	1.204054	0.581873	0.047814
C64	C	1.298340	0.574389	0.051557
C65	C	0.926227	0.603935	-0.166408
C66	C	0.926223	0.603938	-0.235370
C67	C	0.926239	0.807113	0.036794
C68	C	0.926238	0.876074	0.036796
C69	C	0.871970	0.687599	-0.309598
C70	C	0.871979	0.687596	-0.374392
C71	C	0.926235	0.603932	-0.364958
C72	C	0.980494	0.520264	-0.290723
C73	C	0.980491	0.520268	-0.225930
C74	C	0.980511	0.520248	-0.552025
C75	C	0.980508	0.520251	-0.616826
C76	C	0.871999	0.687576	-0.700488
C77	C	0.871995	0.687579	-0.635695
C78	C	0.926259	0.603912	-0.561465
C79	C	0.926250	0.603917	-0.491208
C80	C	0.926238	0.603927	-0.435214
C81	C	0.926256	0.603915	0.239982
C82	C	0.926260	0.603912	0.308945
C83	C	1.204056	0.378685	0.047808
C84	C	1.298344	0.302240	0.051548
C85	C	0.926258	0.400727	0.239976
C86	C	0.926264	0.331763	0.308936
C87	C	1.204071	0.378675	0.251003
C88	C	1.298363	0.302227	0.323706
C89	C	0.648412	0.829175	-0.177429
C90	C	0.554120	0.905623	-0.250132
C91	C	0.648426	0.829165	0.025767
C92	C	0.554139	0.905610	0.022026
C93	C	0.926224	0.807123	-0.166401
C94	C	0.926219	0.876087	-0.235362
C95	C	1.288372	0.270649	0.011467
C96	C	1.376957	0.198831	0.014966
C97	C	1.475513	0.158601	0.058551
C98	C	1.485484	0.190199	0.098634
C99	C	1.396900	0.262020	0.095130
C100	C	0.980518	0.295069	0.383159
C101	C	0.980520	0.230280	0.447961
C102	C	0.926273	0.202181	0.438538
C103	C	0.872012	0.238882	0.364308
C104	C	0.872005	0.303675	0.299508
C105	C	1.396899	0.262022	0.320324
C106	C	1.485505	0.190199	0.388630
C107	C	1.475574	0.158579	0.460318
C108	C	1.377028	0.198792	0.463698
C109	C	1.288424	0.270618	0.395393
C110	C	0.455584	0.945836	-0.246749
C111	C	0.366977	1.017679	-0.315056
C112	C	0.376909	1.049302	-0.386743
C113	C	0.475455	1.009085	-0.390123
C114	C	0.564059	0.937249	-0.321818
C115	C	0.564111	0.937208	0.062101
C116	C	0.475526	1.009044	0.058584
C117	C	0.376970	1.049276	0.014997
C118	C	0.366999	1.017675	-0.025083
C119	C	0.455583	0.945845	-0.021570
C120	C	0.980476	0.904164	-0.225915
C121	C	0.980491	0.968953	-0.290703
C122	C	0.926242	1.005667	-0.364939
C123	C	0.871983	0.977584	-0.374384
C124	C	0.871974	0.912791	-0.309596
H125	H	0.827839	0.216004	0.104875
H126	H	1.368818	0.173114	-0.017675
H127	H	0.286746	1.050412	-0.312288
N128	N	1.039018	0.430028	-0.280550
H129	H	0.989265	0.430438	-0.307638
H130	H	1.073389	0.377078	-0.223680
H131	H	1.565738	0.157465	0.385864
H132	H	1.024652	0.874281	-0.165475
N133	N	0.444838	0.807089	-0.064802
H134	H	0.405700	0.844898	-0.045550
H135	H	0.405728	0.844806	-0.121848
N136	N	1.571053	0.081139	0.062325
H137	H	1.549771	0.067234	0.030319
H138	H	1.613662	0.024029	0.117772
N139	N	0.444806	0.911767	-0.064790
H140	H	0.479136	0.844000	-0.027038
H141	H	0.479119	0.920374	-0.103363
H142	H	0.286750	0.798646	-0.060571
H143	H	0.483529	1.034843	-0.448500
H144	H	0.827781	0.755729	-0.317289
H145	H	1.405005	0.287756	0.261959
N146	N	1.571138	0.081105	0.533991
H147	H	1.613777	0.100273	0.535710
H148	H	1.613693	0.023990	0.535659
N149	N	0.407644	0.400765	0.138363
H150	H	0.336571	0.418443	0.129522
H151	H	0.446823	0.362999	0.195406
H152	H	0.447478	0.920094	-0.188384
H153	H	0.644289	0.904507	-0.324581
H154	H	0.926256	1.058425	-0.417687
N155	N	0.281430	1.126750	0.011211
H156	H	0.302712	1.140655	0.043217
H157	H	0.238829	1.107533	0.032086
N158	N	0.591777	0.386158	0.145677
H159	H	0.646385	0.393868	0.141821
H160	H	0.599982	0.350854	0.125166
H161	H	0.827829	0.333543	0.239075
N162	N	1.182143	0.313975	0.399040
H163	H	1.173844	0.341513	0.427338
H164	H	1.173935	0.265139	0.427320
H165	H	0.304753	1.107797	-0.442356
N166	N	1.039018	0.999229	-0.280498
H167	H	1.010551	1.028371	-0.253005
H168	H	1.030790	1.045808	-0.332824
N169	N	0.182073	0.748562	-0.035530
H170	H	0.173757	0.783919	-0.091368
H171	H	0.173831	0.783846	-0.014987
H172	H	0.644353	0.904456	0.097600
H173	H	0.483664	1.034760	0.091225
N174	N	1.591787	0.146805	0.145641
H175	H	1.646382	0.096512	0.141776
H176	H	1.600006	0.119305	0.201457
N177	N	0.813472	1.017193	-0.454456
H178	H	0.737577	1.050109	-0.463545
H179	H	0.842002	0.965463	-0.459358
H180	H	0.827818	0.755701	-0.760935
H181	H	0.827787	0.889939	-0.317299
H182	H	1.024657	0.317948	-0.031310
N183	N	1.407662	0.296090	0.138364
H184	H	1.446807	0.243538	0.195421
H185	H	1.336558	0.347708	0.129472
N186	N	1.038996	0.190690	-0.041217
H187	H	1.073354	0.218324	-0.064995
H188	H	0.989176	0.205922	-0.083080
N189	N	0.926288	0.132292	0.508431
H190	H	0.895421	0.157294	0.538393
H191	H	0.999791	0.072720	0.542471
N192	N	1.039034	0.325365	0.393333
H193	H	1.073396	0.292284	0.450190
H194	H	0.989219	0.394365	0.366198
N195	N	1.039049	0.190700	0.528017
H196	H	1.073420	0.218328	0.524147
H197	H	1.093589	0.121326	0.558796
N198	N	0.813519	0.777825	-0.454450
H199	H	0.779161	0.830824	-0.450594
H200	H	0.758977	0.785646	-0.485264
N201	N	1.182081	0.314028	-0.035546
H202	H	1.127465	0.364320	-0.031687
H203	H	1.173888	0.265186	-0.015038
N204	N	1.039012	0.430034	-0.145867
H205	H	1.073383	0.377032	-0.149721
H206	H	0.989203	0.430529	-0.119230
H207	H	1.024646	-0.125715	-0.031294
N208	N	0.813468	0.017166	0.114787
H209	H	0.821698	0.062476	0.109096
H210	H	0.841950	-0.034580	0.171405
N211	N	0.813515	0.208565	0.354149
H212	H	0.758929	0.224167	0.377102
H213	H	0.863361	0.139575	0.381240
N214	N	1.038981	-0.000728	-0.041217
H215	H	1.073346	-0.033812	-0.064988
H216	H	1.093523	-0.016335	-0.002620
N217	N	0.813477	0.777816	-0.645870
H218	H	0.779111	0.830816	-0.702726
H219	H	0.863293	0.777314	-0.618735
N220	N	1.366318	0.164682	0.541018
H221	H	1.400663	0.173228	0.571035
H222	H	1.400658	0.096923	0.570962
H223	H	0.827831	0.333565	0.104870
N224	N	0.813482	-0.117526	0.114799
H225	H	0.779126	-0.084451	0.138580
H226	H	0.863305	-0.186526	0.156660
N227	N	1.039040	0.430008	-0.606651
H228	H	1.073422	0.377005	-0.549795
H229	H	1.093571	0.422238	-0.629646
H230	H	0.644348	0.482318	0.097595
N231	N	0.260696	1.061062	-0.072082
H232	H	0.252401	1.012282	-0.051591
H233	H	0.252436	1.088618	-0.127910
N234	N	1.039035	0.430012	-0.471970
H235	H	1.073402	0.377014	-0.475829
H236	H	0.989227	0.430505	-0.445333
