data_functionalizedCrystal
_audit_creation_method	'MofGen! by Chris Wilmer'
_symmetry_space_group_name_H-M	'P1'
_symmetry_Int_Tables_number	1
_symmetry_cell_setting	triclinic
loop_
_symmetry_equiv_pos_as_xyz
  x,y,z
_cell_length_a	19.288864
_cell_length_b	8.559649
_cell_length_c	17.766277
_cell_angle_alpha	89.994756
_cell_angle_beta	89.976791
_cell_angle_gamma	76.457456
loop_
_atom_site_label
_atom_site_type_symbol
_atom_site_fract_x
_atom_site_fract_y
_atom_site_fract_z
O1	O	0.910987	0.199405	-0.062829
O2	O	0.707328	0.226304	-0.062777
O3	O	0.827100	-0.019877	-0.062807
O4	O	0.791215	0.445585	-0.062799
O5	O	0.827082	-0.019889	0.062381
O6	O	0.707310	0.226291	0.062411
O7	O	0.910969	0.199392	0.062359
Cu8	Cu	0.809138	0.212841	0.073816
Cu9	Cu	0.809160	0.212855	-0.074234
O10	O	0.791197	0.445573	0.062389
C11	C	0.681488	0.225432	-0.000176
C12	C	0.604519	0.222834	-0.000157
C13	C	0.829811	-0.079432	-0.000215
C14	C	0.837906	-0.256871	-0.000221
C15	C	0.552314	0.367282	-0.000166
C16	C	0.479994	0.364841	-0.000174
C17	C	0.459883	0.217944	-0.000188
C18	C	0.512099	0.073477	-0.000175
C19	C	0.584417	0.075922	-0.000159
C20	C	0.357630	0.102471	-0.044075
C21	C	0.285312	0.100032	-0.044095
C22	C	0.236829	0.210396	-0.000234
C23	C	0.260670	0.323227	0.043638
C24	C	0.332989	0.325672	0.043654
C25	C	0.381467	0.215276	-0.000205
C26	C	0.106205	0.352207	-0.000251
C27	C	0.033884	0.349760	-0.000255
C28	C	0.065991	0.058393	-0.000263
C29	C	0.138310	0.060844	-0.000252
C30	C	0.158412	0.207756	-0.000250
C31	C	0.936810	0.200264	-0.000243
C32	C	1.013778	0.202862	-0.000268
C33	C	0.788487	0.505129	-0.000205
C34	C	0.780392	0.682567	-0.000203
N35	N	0.809128	0.212829	0.177946
N36	N	0.809176	0.212854	-0.178364
C37	C	0.862176	0.103874	0.217320
C38	C	0.862180	0.103866	0.296122
C39	C	0.809142	0.212842	0.335547
C40	C	0.756085	0.321806	0.296164
C41	C	0.756078	0.321800	0.217364
C42	C	0.792272	0.358486	0.460389
C43	C	0.792284	0.358494	0.539188
C44	C	0.809160	0.212861	0.578593
C45	C	0.826039	0.067213	0.539190
C46	C	0.826032	0.067207	0.460390
C47	C	0.809144	0.212860	0.420993
C48	C	0.862215	0.103889	0.703413
C49	C	0.862215	0.103879	0.782216
C50	C	0.756123	0.321833	0.782257
C51	C	0.756120	0.321828	0.703455
C52	C	0.809170	0.212858	0.664038
H53	H	0.568676	0.486909	-0.000166
N54	N	0.919389	-0.013658	0.174806
H55	H	0.952995	-0.082684	0.211711
H56	H	0.896560	-0.084177	0.142130
H57	H	0.893342	-0.340776	-0.000229
H58	H	0.905379	0.015138	0.328186
H59	H	0.122573	0.471832	-0.000239
H60	H	0.724959	-0.233537	-0.000187
H61	H	0.839773	-0.051384	0.428312
N62	N	0.844246	-0.089878	0.581679
H63	H	0.841687	-0.067781	0.637577
H64	H	0.809172	-0.156223	0.567925
H65	H	-0.008622	0.467392	-0.000259
N66	N	0.698902	0.439356	0.660989
H67	H	0.700849	0.552761	0.674693
H68	H	0.706974	0.422682	0.605100
H69	H	0.397100	0.012596	-0.079796
N70	N	0.698882	0.439341	0.338687
H71	H	0.700824	0.552745	0.324963
H72	H	0.650584	0.421072	0.324987
N73	N	0.640724	-0.079890	-0.000155
H74	H	0.671468	-0.085367	-0.046557
H75	H	0.671371	-0.085283	0.046288
N76	N	0.919427	-0.013640	0.660891
H77	H	0.953032	-0.082675	0.697795
H78	H	0.896598	-0.084150	0.628211
H79	H	0.352397	0.417538	0.079378
N80	N	0.423674	0.520642	-0.000186
H81	H	0.447383	0.614079	-0.000182
H82	H	0.393000	0.525959	-0.046604
N83	N	0.919443	-0.013617	0.824688
H84	H	0.953052	-0.082630	0.787757
H85	H	0.946881	0.047448	0.857356
H86	H	0.778518	0.477086	0.428311
N87	N	0.194626	-0.094949	-0.000256
H88	H	0.225322	-0.100432	0.046157
H89	H	0.170865	-0.188296	-0.000296
H90	H	0.778545	0.477089	0.571263
N91	N	0.698859	0.439315	0.174891
H92	H	0.665256	0.508348	0.211820
H93	H	0.721681	0.509829	0.142179
H94	H	0.495719	-0.046127	-0.000196
H95	H	0.712936	0.410556	0.814356
H96	H	0.049617	-0.061214	-0.000321
H97	H	0.265907	0.008165	-0.079821
N98	N	0.208388	0.442283	0.090946
H99	H	0.158957	0.423615	0.084283
H100	H	0.222648	0.427765	0.145654
