data_functionalizedCrystal
_audit_creation_method	'MofGen! by Chris Wilmer'
_symmetry_space_group_name_H-M	'P1'
_symmetry_Int_Tables_number	1
_symmetry_cell_setting	triclinic
loop_
_symmetry_equiv_pos_as_xyz
  x,y,z
_cell_length_a	16.959455
_cell_length_b	13.897447
_cell_length_c	16.959447
_cell_angle_alpha	89.971904
_cell_angle_beta	89.979626
_cell_angle_gamma	90.016550
loop_
_atom_site_label
_atom_site_type_symbol
_atom_site_fract_x
_atom_site_fract_y
_atom_site_fract_z
Zn1	Zn	1.208387	-0.384072	-0.447049
Zn2	Zn	1.208311	-0.545391	-0.314875
Zn3	Zn	1.076215	-0.384103	-0.314872
Zn4	Zn	1.076181	-0.545319	-0.447000
O5	O	1.142273	-0.464721	-0.380949
O6	O	1.318988	-0.405489	-0.429537
O7	O	1.190770	-0.524038	-0.204264
O8	O	1.093794	-0.249117	-0.332425
O9	O	1.318932	-0.524009	-0.332430
O10	O	1.190900	-0.249095	-0.429534
O11	O	1.093720	-0.405541	-0.204262
O12	O	0.965600	-0.405471	-0.332377
O13	O	1.093736	-0.523886	-0.557617
O14	O	0.965575	-0.523916	-0.429451
O15	O	1.190867	-0.405419	-0.557653
O16	O	1.190737	-0.680363	-0.332383
O17	O	1.093662	-0.680310	-0.429454
C18	C	0.936907	-0.464690	-0.380909
C19	C	0.849051	-0.464700	-0.380911
C20	C	0.477535	-0.526373	-0.330359
C21	C	0.477615	-0.403149	-0.431635
C22	C	0.560161	-0.403133	-0.431615
C23	C	0.601398	-0.464739	-0.380968
C24	C	0.560089	-0.526361	-0.330340
C25	C	0.601476	-0.341519	-0.482248
C26	C	0.684027	-0.341502	-0.482232
C27	C	0.725265	-0.403104	-0.431580
C28	C	0.683951	-0.464727	-0.380949
C29	C	0.725188	-0.526334	-0.330302
C30	C	0.683876	-0.587953	-0.279667
C31	C	0.601327	-0.587963	-0.279688
C32	C	0.807814	-0.403093	-0.431558
C33	C	0.807742	-0.526322	-0.330283
C34	C	1.142209	-0.715336	-0.380931
C35	C	1.142254	-0.822550	-0.380949
C36	C	1.142292	-0.909619	-0.380967
C37	C	1.142348	-1.018852	-0.380987
C38	C	1.348442	-0.464754	-0.380989
C39	C	1.436298	-0.464767	-0.381007
C40	C	1.142306	-0.464641	-0.587117
C41	C	1.142320	-0.464607	-0.674974
C42	C	1.142360	-0.213128	-0.380985
C43	C	1.142396	-0.105914	-0.381000
C44	C	1.091843	-0.526186	-1.046433
C45	C	1.192986	-0.402825	-1.046466
C46	C	1.192965	-0.402846	-0.963920
C47	C	1.142383	-0.464538	-0.922627
C48	C	1.091822	-0.526210	-0.963880
C49	C	1.243531	-0.341182	-0.922661
C50	C	1.243513	-0.341201	-0.840110
C51	C	1.192926	-0.402889	-0.798815
C52	C	1.142362	-0.464563	-0.840073
C53	C	1.091780	-0.526255	-0.798780
C54	C	1.041212	-0.587925	-0.840037
C55	C	1.041235	-0.587899	-0.922585
C56	C	1.192903	-0.402915	-0.716267
C57	C	1.091759	-0.526279	-0.716227
C58	C	1.142286	-0.464731	-0.175583
C59	C	1.142425	-0.464493	-0.087726
H60	H	0.841311	-0.576486	-0.289036
C61	C	0.985611	-0.655724	-0.967974
N62	N	0.943715	-0.706809	-1.002163
C63	C	0.556111	-0.273734	-0.537937
N64	N	0.521937	-0.222666	-0.579875
C65	C	1.036215	-0.594012	-1.091816
N66	N	0.994314	-0.645098	-1.125999
H67	H	0.443895	-0.576540	-0.289131
C68	C	0.853254	-0.335317	-0.487254
N69	N	0.887478	-0.284262	-0.529205
C70	C	0.432251	-0.335372	-0.487331
N71	N	0.398080	-0.284311	-0.529278
C72	C	1.036112	-0.594146	-0.670811
N73	N	0.994199	-0.645263	-0.636605
H74	H	1.234172	-0.352604	-1.080092
C75	C	0.985573	-0.655784	-0.794604
N76	N	0.943667	-0.706893	-0.760381
H77	H	1.234077	-0.352707	-0.682679
H78	H	1.284717	-0.290961	-0.956288
C79	C	1.299130	-0.273353	-0.794735
N80	N	1.341018	-0.222246	-0.760558
C81	C	0.555877	-0.655744	-0.223999
N82	N	0.521641	-0.706799	-0.182056
H83	H	0.717461	-0.638118	-0.238434
H84	H	0.717656	-0.291327	-0.523461
