data_functionalizedCrystal
_audit_creation_method	'MofGen! by Chris Wilmer'
_symmetry_space_group_name_H-M	'P1'
_symmetry_Int_Tables_number	1
_symmetry_cell_setting	triclinic
loop_
_symmetry_equiv_pos_as_xyz
  x,y,z
_cell_length_a	6.817900
_cell_length_b	11.102233
_cell_length_c	11.102291
_cell_angle_alpha	91.951455
_cell_angle_beta	108.605752
_cell_angle_gamma	108.604751
loop_
_atom_site_label
_atom_site_type_symbol
_atom_site_fract_x
_atom_site_fract_y
_atom_site_fract_z
V1	V	-4.111538	-0.175856	-0.396266
O2	O	-4.070571	0.008434	-0.388715
O3	O	-4.088314	-0.348677	-0.393562
O4	O	-4.088323	-0.173158	-0.569088
O5	O	-4.070562	-0.168300	-0.211975
V6	V	-4.588640	-0.153812	-0.374222
O7	O	-4.386880	-0.224211	-0.444620
O8	O	-4.763495	-0.105456	-0.325868
O9	O	-4.388658	0.019009	-0.376926
O10	O	-4.747003	-0.338102	-0.381772
O11	O	-4.747012	-0.161368	-0.558513
O12	O	-4.388649	-0.156510	-0.201400
C13	C	-3.938624	-0.390807	-0.387312
C14	C	-4.001091	-0.532090	-0.386254
C15	C	-4.273138	-0.737689	-0.391089
C16	C	-4.214450	-0.604940	-0.392092
C17	C	-3.846403	-0.591995	-0.379399
C18	C	-3.905087	-0.724741	-0.378387
C19	C	-4.485630	-0.745162	-0.398423
C20	C	-4.426942	-0.612413	-0.399426
C21	C	-3.938634	-0.166913	-0.611211
C22	C	-4.001103	-0.165851	-0.752494
C23	C	-4.214458	-0.171691	-0.825342
C24	C	-4.273129	-0.170668	-0.958089
C25	C	-3.905073	-0.157971	-0.945127
C26	C	-3.846400	-0.158984	-0.812382
C27	C	-4.426956	-0.179027	-0.832828
C28	C	-4.485627	-0.178004	-0.965574
C29	C	-4.201690	0.061132	-0.383172
C30	C	-4.118463	0.202415	-0.384239
C31	C	-4.201679	-0.162758	-0.159270
C32	C	-4.118447	-0.163814	-0.017985
H33	H	-4.538817	-0.593202	-0.491859
O34	O	-4.529161	-0.070311	-1.000088
C35	C	-4.550539	0.131101	-0.928941
C36	C	-4.501245	0.009187	-0.889678
H37	H	-4.527942	0.195421	-0.839694
H38	H	-4.727762	0.102893	-0.998334
H39	H	-4.432245	0.185287	-0.977867
H40	H	-4.619396	-0.045056	-0.840700
H41	H	-4.323968	0.037480	-0.820343
O42	O	-4.656925	-0.287750	-1.028437
C43	C	-4.910245	-0.488673	-1.009604
C44	C	-4.716275	-0.364445	-0.938251
H45	H	-4.958319	-0.550703	-0.936719
H46	H	-4.858798	-0.544086	-1.075069
H47	H	-5.057332	-0.463149	-1.069859
H48	H	-4.569111	-0.389856	-0.877926
H49	H	-4.767903	-0.309066	-0.872864
H50	H	-4.536945	-0.770108	-0.311610
O51	O	-3.754785	-0.782942	-0.371492
C52	C	-3.550347	-0.908089	-0.252386
C53	C	-3.720563	-0.842210	-0.260026
H54	H	-3.522659	-0.956046	-0.162288
H55	H	-3.387674	-0.833257	-0.248293
H56	H	-3.614819	-0.983814	-0.340989
H57	H	-3.656296	-0.766492	-0.171445
H58	H	-3.883205	-0.917117	-0.264182
O59	O	-4.642944	-0.814032	-0.510798
C60	C	-4.878204	-0.807464	-0.723075
C61	C	-4.700096	-0.729311	-0.595866
H62	H	-4.924432	-0.739001	-0.791897
H63	H	-5.030700	-0.869379	-0.703450
H64	H	-4.811213	-0.871888	-0.768086
H65	H	-4.766882	-0.664816	-0.550790
H66	H	-4.547632	-0.667481	-0.615572
H67	H	-3.672672	-0.532669	-0.374634
O68	O	-4.427185	-0.549087	-0.292468
C69	C	-4.487417	-0.566050	-0.090358
C70	C	-4.487325	-0.637935	-0.211444
H71	H	-4.535990	-0.637849	-0.024805
H72	H	-4.610869	-0.513822	-0.119469
H73	H	-4.315286	-0.493234	-0.037117
H74	H	-4.659364	-0.710813	-0.264740
H75	H	-4.363755	-0.690076	-0.182249
H76	H	-3.672672	-0.154231	-0.753073
O77	O	-4.450147	-0.076217	-0.776428
C78	C	-4.417156	0.039219	-0.579025
C79	C	-4.390844	-0.077276	-0.642734
H80	H	-4.369179	0.038416	-0.470921
H81	H	-4.596226	0.033887	-0.620698
H82	H	-4.305386	0.131657	-0.598292
H83	H	-4.502487	-0.169772	-0.623491
H84	H	-4.211716	-0.071831	-0.601054
H85	H	-3.779126	-0.152377	-0.993903
H86	H	-4.522351	-0.273806	-0.808368
