data_functionalizedCrystal
_audit_creation_method	'MofGen! by Chris Wilmer'
_symmetry_space_group_name_H-M	'P1'
_symmetry_Int_Tables_number	1
_symmetry_cell_setting	triclinic
loop_
_symmetry_equiv_pos_as_xyz
  x,y,z
_cell_length_a	18.050591
_cell_length_b	18.050589
_cell_length_c	17.640968
_cell_angle_alpha	78.773118
_cell_angle_beta	78.769792
_cell_angle_gamma	90.024669
loop_
_atom_site_label
_atom_site_type_symbol
_atom_site_fract_x
_atom_site_fract_y
_atom_site_fract_z
Zn1	Zn	1.220277	-0.210806	-0.447077
Zn2	Zn	1.195063	-0.360110	-0.314901
Zn3	Zn	1.070970	-0.235932	-0.314894
Zn4	Zn	1.096036	-0.334959	-0.447032
O5	O	1.145586	-0.285452	-0.380976
O6	O	1.320861	-0.230621	-0.429565
O7	O	1.157559	-0.364679	-0.204283
O8	O	1.090838	-0.128671	-0.332445
O9	O	1.302336	-0.340315	-0.332456
O10	O	1.200534	-0.110211	-0.429559
O11	O	1.066388	-0.273446	-0.204279
O12	O	0.970366	-0.249058	-0.332401
O13	O	1.133560	-0.297449	-0.557655
O14	O	0.988782	-0.321813	-0.429482
O15	O	1.224839	-0.206233	-0.557688
O16	O	1.181864	-0.460702	-0.332412
O17	O	1.109110	-0.442223	-0.429488
C18	C	0.952627	-0.285433	-0.380937
C19	C	0.870081	-0.285440	-0.380938
C20	C	0.611243	-0.245800	-0.328271
C21	C	0.674388	-0.214009	-0.400410
C22	C	0.572973	-0.285465	-0.381003
C23	C	0.656905	-0.317208	-0.308837
C24	C	0.718952	-0.285451	-0.380968
C25	C	0.635038	-0.253631	-0.453180
C26	C	0.617541	-0.356872	-0.361559
C27	C	0.680673	-0.325096	-0.433747
C28	C	0.488879	-0.285471	-0.381023
C29	C	0.803046	-0.285444	-0.380956
C30	C	1.145494	-0.478406	-0.380963
C31	C	1.145528	-0.560948	-0.380984
C32	C	1.106009	-0.750381	-0.433756
C33	C	1.074200	-0.813523	-0.361623
C34	C	1.145603	-0.712077	-0.380994
C35	C	1.177450	-0.796014	-0.453135
C36	C	1.145675	-0.858059	-0.381010
C37	C	1.113750	-0.774139	-0.308823
C38	C	1.217042	-0.756617	-0.400384
C39	C	1.185249	-0.819746	-0.328202
C40	C	1.145560	-0.627980	-0.380986
C41	C	1.145717	-0.942155	-0.381011
C42	C	1.339300	-0.285471	-0.381016
C43	C	1.421849	-0.285479	-0.381033
C44	C	1.184808	-0.246233	-0.587155
C45	C	1.201522	-0.229520	-0.675016
C46	C	1.145703	-0.091740	-0.381007
C47	C	1.145752	-0.009192	-0.381020
C48	C	1.018898	-0.412014	-0.963893
C49	C	1.034619	-0.396300	-1.046452
C50	C	1.129660	-0.301326	-1.046476
C51	C	1.113945	-0.317029	-0.963916
C52	C	1.058563	-0.372374	-0.922631
C53	C	1.153610	-0.277390	-0.922653
C54	C	1.137899	-0.293095	-0.840100
C55	C	1.082521	-0.348439	-0.798809
C56	C	1.042852	-0.388079	-0.840078
C57	C	1.208995	-0.222048	-0.963940
C58	C	1.248661	-0.182409	-0.922677
C59	C	1.232945	-0.198110	-0.840123
C60	C	1.177568	-0.253454	-0.798832
C61	C	1.272615	-0.158469	-0.798854
C62	C	1.256903	-0.174174	-0.716301
C63	C	1.161856	-0.269159	-0.716278
C64	C	1.106560	-0.324465	-0.175600
C65	C	1.089990	-0.340968	-0.087739
H66	H	1.013821	-0.838414	-0.345238
O67	O	1.295508	-0.135783	-0.676181
C68	C	1.334347	-0.187161	-0.628417
H69	H	1.343632	-0.240920	-0.653291
H70	H	1.299478	-0.201621	-0.565848
C71	C	1.399931	-0.085104	-0.596614
C72	C	1.411340	-0.151129	-0.627168
H73	H	1.447422	-0.062878	-0.595839
H74	H	1.373762	-0.050489	-0.628790
H75	H	1.370871	-0.097163	-0.544475
H76	H	1.440391	-0.139069	-0.679308
H77	H	1.437516	-0.185742	-0.595000
O78	O	1.224253	-0.206654	-1.044133
C79	C	1.210458	-0.130230	-1.071719
H80	H	1.214123	-0.096506	-1.024152
H81	H	1.151624	-0.125858	-1.086357
C82	C	1.265414	-0.139632	-1.204755
C83	C	1.269921	-0.098210	-1.146335
H84	H	1.302090	-0.119880	-1.250784
H85	H	1.274705	-0.191121	-1.186171
H86	H	1.216382	-0.135985	-1.216944
H87	H	1.318948	-0.101865	-1.134140
H88	H	1.260638	-0.046721	-1.164919
H89	H	0.625072	-0.226708	-0.514213
O90	O	0.716519	-0.365199	-0.486878
C91	C	0.752006	-0.426425	-0.447563
H92	H	0.722954	-0.440892	-0.382778
H93	H	0.814065	-0.410314	-0.452377
C94	C	0.781865	-0.477761	-0.565199
C95	C	0.746179	-0.495533	-0.485630
H96	H	0.778275	-0.520389	-0.588681
H97	H	0.757960	-0.436510	-0.591687
H98	H	0.833578	-0.464333	-0.569199
H99	H	0.694465	-0.508950	-0.481631
H100	H	0.770076	-0.536787	-0.459142
O101	O	0.587873	-0.428909	-0.341790
C102	C	0.598491	-0.462192	-0.265651
H103	H	0.605895	-0.415985	-0.231638
H104	H	0.651078	-0.497287	-0.270563
C105	C	0.519957	-0.570313	-0.263566
C106	C	0.529044	-0.513561	-0.221788
H107	H	0.477121	-0.602002	-0.236510
H108	H	0.512805	-0.547891	-0.314863
H109	H	0.563784	-0.599551	-0.267656
H110	H	0.485222	-0.484318	-0.217707
H111	H	0.536186	-0.535979	-0.170489
H112	H	0.581100	-0.212221	-0.283747
H113	H	1.277414	-0.731721	-0.416804
H114	H	0.997737	-0.433129	-0.806461
O115	O	1.209631	-0.808120	-0.525847
C116	C	1.273688	-0.852016	-0.520485
H117	H	1.268363	-0.885282	-0.457598
H118	H	1.326693	-0.813335	-0.536772
C119	C	1.285794	-0.866422	-0.654814
C120	C	1.279250	-0.907285	-0.577577
H121	H	1.289228	-0.900513	-0.690033
H122	H	1.242639	-0.836847	-0.658428
H123	H	1.329964	-0.834190	-0.668376
H124	H	1.235076	-0.939509	-0.564012
H125	H	1.322398	-0.936868	-0.573961
H126	H	1.069733	-0.361228	-0.731589
H127	H	1.072453	-0.720263	-0.478311
O128	O	0.668807	-0.349174	-0.235988
C129	C	0.633134	-0.307166	-0.180607
H130	H	0.585619	-0.274450	-0.204092
H131	H	0.676177	-0.265848	-0.170335
C132	C	0.658569	-0.401468	-0.073421
C133	C	0.600205	-0.361291	-0.102263
H134	H	0.638259	-0.434854	-0.025093
H135	H	0.682605	-0.429769	-0.110732
H136	H	0.694433	-0.367029	-0.064867
H137	H	0.564348	-0.395730	-0.110826
H138	H	0.576162	-0.332997	-0.064952
H139	H	1.218753	-0.849747	-0.283539
H140	H	1.116742	-0.314209	-0.682662
O141	O	0.965112	-0.465836	-0.923904
C142	C	0.933458	-0.497450	-0.978023
H143	H	0.975065	-0.488812	-1.036881
H144	H	0.878727	-0.468599	-0.986783
C145	C	0.865509	-0.593236	-0.873510
C146	C	0.916614	-0.582632	-0.945798
H147	H	0.855115	-0.645780	-0.853631
H148	H	0.886832	-0.571936	-0.837048
H149	H	0.819905	-0.569188	-0.880819
H150	H	0.962220	-0.606672	-0.938486
H151	H	0.895298	-0.603939	-0.982258
O152	O	1.081555	-0.762117	-0.236083
C153	C	1.081894	-0.683845	-0.236956
H154	H	1.085558	-0.651413	-0.299936
H155	H	1.132720	-0.667110	-0.213535
C156	C	1.004155	-0.704595	-0.107119
C157	C	1.008648	-0.664762	-0.184471
H158	H	0.958976	-0.692823	-0.074741
H159	H	1.003929	-0.757329	-0.106528
H160	H	1.046514	-0.690645	-0.087612
H161	H	0.966294	-0.678719	-0.203980
H162	H	1.008866	-0.612029	-0.185064
O163	O	0.996193	-0.434875	-1.086573
C164	C	1.047536	-0.473745	-1.134342
H165	H	1.101290	-0.483077	-1.109470
H166	H	1.062016	-0.438877	-1.196909
C167	C	0.945424	-0.539240	-1.166151
C168	C	1.011444	-0.550708	-1.135599
H169	H	0.923160	-0.586713	-1.166930
H170	H	0.910833	-0.513051	-1.133971
H171	H	0.957500	-0.510181	-1.218288
H172	H	0.999365	-0.579759	-1.083460
H173	H	1.046032	-0.576905	-1.167771
O174	O	1.302401	-0.128561	-0.962699
C175	C	1.282359	-0.058374	-0.942551
H176	H	1.242402	-0.068235	-0.882609
H177	H	1.253032	-0.024521	-0.989014
C178	C	1.403131	-0.002003	-1.012373
C179	C	1.354061	-0.014115	-0.938748
H180	H	1.447360	0.025301	-1.010030
H181	H	1.416634	-0.049288	-1.025950
H182	H	1.378683	0.026205	-1.051084
H183	H	1.378506	-0.042330	-0.900041
H184	H	1.340565	0.033167	-0.925165
O185	O	1.326458	-0.104711	-0.838841
C186	C	1.358086	-0.073076	-0.784718
H187	H	1.349437	-0.114687	-0.725865
H188	H	1.329252	-0.018337	-0.775949
C189	C	1.453889	-0.005147	-0.889229
C190	C	1.443272	-0.056256	-0.816946
H191	H	1.506435	0.005232	-0.909109
H192	H	1.432580	-0.026457	-0.925694
H193	H	1.429855	0.040463	-0.881912
H194	H	1.467297	-0.101868	-0.824266
H195	H	1.464587	-0.034953	-0.780483
O196	O	0.703982	-0.141941	-0.419888
C197	C	0.668222	-0.100318	-0.364176
H198	H	0.643371	-0.140729	-0.306569
H199	H	0.621053	-0.067044	-0.387749
C200	C	0.756972	0.004425	-0.420046
C201	C	0.726455	-0.045209	-0.349290
H202	H	0.792891	0.038422	-0.410866
H203	H	0.781063	-0.023616	-0.457583
H204	H	0.717658	0.032145	-0.439683
H205	H	0.765767	-0.072934	-0.329660
H206	H	0.702372	-0.017171	-0.311749
H207	H	1.174754	-0.256266	-1.080102
