data_functionalizedCrystal
_audit_creation_method	'MofGen! by Chris Wilmer'
_symmetry_space_group_name_H-M	'P1'
_symmetry_Int_Tables_number	1
_symmetry_cell_setting	triclinic
loop_
_symmetry_equiv_pos_as_xyz
  x,y,z
_cell_length_a	18.101398
_cell_length_b	18.101395
_cell_length_c	16.625539
_cell_angle_alpha	90.027648
_cell_angle_beta	90.015931
_cell_angle_gamma	90.029256
loop_
_atom_site_label
_atom_site_type_symbol
_atom_site_fract_x
_atom_site_fract_y
_atom_site_fract_z
Zn1	Zn	1.132133	-0.294865	0.455813
Zn2	Zn	1.465466	0.038468	0.789147
Zn3	Zn	1.798799	0.371802	1.122480
Zn4	Zn	1.132025	-0.418714	0.320982
Zn5	Zn	1.465358	-0.085381	0.654315
Zn6	Zn	1.798692	0.247953	0.987649
Zn7	Zn	1.008288	-0.294887	0.321005
Zn8	Zn	1.341621	0.038447	0.654338
Zn9	Zn	1.674955	0.371780	0.987671
Zn10	Zn	1.008242	-0.418665	0.455783
Zn11	Zn	1.341576	-0.085332	0.789116
Zn12	Zn	1.674909	0.248002	1.122449
O13	O	1.070172	-0.356783	0.388396
O14	O	1.403505	-0.023449	0.721729
O15	O	1.736839	0.309884	1.055062
O16	O	1.235751	-0.311305	0.437931
O17	O	1.569084	0.022028	0.771264
O18	O	1.902418	0.355362	1.104597
O19	O	1.115585	-0.402318	0.208153
O20	O	1.448919	-0.068984	0.541486
O21	O	1.782252	0.264349	0.874819
O22	O	1.024780	-0.191251	0.338910
O23	O	1.358114	0.142082	0.672243
O24	O	1.691447	0.475416	1.005576
O25	O	1.235672	-0.402296	0.338871
O26	O	1.569005	-0.068963	0.672204
O27	O	1.902339	0.264370	1.005538
O28	O	1.115769	-0.191235	0.437953
O29	O	1.449102	0.142098	0.771286
O30	O	1.782435	0.475432	1.104619
O31	O	1.024676	-0.311342	0.208169
O32	O	1.358010	0.021991	0.541503
O33	O	1.691343	0.355324	0.874836
O34	O	0.904649	-0.311295	0.338880
O35	O	1.237982	0.022038	0.672213
O36	O	1.571316	0.355372	1.005547
O37	O	1.024702	-0.402213	0.568619
O38	O	1.358036	-0.068880	0.901953
O39	O	1.691369	0.264454	1.235286
O40	O	0.904615	-0.402234	0.437901
O41	O	1.237949	-0.068901	0.771234
O42	O	1.571282	0.264432	1.104568
O43	O	1.115724	-0.311258	0.568642
O44	O	1.449057	0.022076	0.901975
O45	O	1.782391	0.355409	1.235308
O46	O	1.115541	-0.522340	0.338841
O47	O	1.448874	-0.189007	0.672175
O48	O	1.782207	0.144326	1.005508
O49	O	1.024598	-0.522304	0.437879
O50	O	1.357931	-0.188971	0.771212
O51	O	1.691265	0.144362	1.104546
C52	C	0.877761	-0.356762	0.388390
C53	C	1.211095	-0.023429	0.721723
C54	C	1.544428	0.309904	1.055057
C55	C	0.795447	-0.356771	0.388407
C56	C	1.128781	-0.023438	0.721740
C57	C	1.462114	0.309895	1.055073
C58	C	0.644739	-0.356785	0.388406
C59	C	0.978072	-0.023452	0.721739
C60	C	1.311406	0.309882	1.055072
C61	C	0.613389	-0.414090	0.450610
C62	C	0.946722	-0.080757	0.783944
C63	C	1.280056	0.252577	1.117277
C64	C	0.527770	-0.414322	0.450426
C65	C	0.861104	-0.080989	0.783759
C66	C	1.194437	0.252345	1.117093
C67	C	0.496356	-0.356799	0.388406
C68	C	0.829690	-0.023465	0.721739
C69	C	1.163023	0.309868	1.055072
C70	C	0.527407	-0.377627	0.303328
C71	C	0.860740	-0.044293	0.636661
C72	C	1.194074	0.289040	0.969994
C73	C	0.613052	-0.378035	0.303687
C74	C	0.946385	-0.044701	0.637021
C75	C	1.279719	0.288632	0.970354
C76	C	0.613218	-0.278510	0.410536
C77	C	0.946552	0.054823	0.743869
C78	C	1.279885	0.388156	1.077202
C79	C	0.527568	-0.278939	0.412410
C80	C	0.860901	0.054394	0.745743
C81	C	1.194235	0.387727	1.079076
C82	C	0.412497	-0.356805	0.388400
C83	C	0.745830	-0.023472	0.721734
C84	C	1.079164	0.309861	1.055067
C85	C	0.728598	-0.356781	0.388405
C86	C	1.061932	-0.023447	0.721738
C87	C	1.395265	0.309886	1.055072
C88	C	1.070073	-0.549193	0.388372
C89	C	1.403406	-0.215860	0.721705
C90	C	1.736740	0.117473	1.055039
C91	C	1.070098	-0.631507	0.388389
C92	C	1.403432	-0.298174	0.721722
C93	C	1.736765	0.035159	1.055055
C94	C	1.070261	-0.930598	0.388432
C95	C	1.403594	-0.597265	0.721766
C96	C	1.736927	-0.263932	1.055099
C97	C	1.013175	-0.899281	0.450899
C98	C	1.346508	-0.565948	0.784232
C99	C	1.679841	-0.232615	1.117565
C100	C	1.012903	-0.813663	0.450703
C101	C	1.346237	-0.480330	0.784037
C102	C	1.679570	-0.146997	1.117370
C103	C	1.070180	-0.782216	0.388411
C104	C	1.403513	-0.448882	0.721745
C105	C	1.736847	-0.115549	1.055078
C106	C	1.049049	-0.813367	0.303435
C107	C	1.382382	-0.480033	0.636769
C108	C	1.715715	-0.146700	0.970102
C109	C	1.048681	-0.899012	0.303809
C110	C	1.382014	-0.565679	0.637142
C111	C	1.715347	-0.232345	0.970476
C112	C	1.148603	-0.898944	0.410194
C113	C	1.481936	-0.565611	0.743527
C114	C	1.815270	-0.232278	1.076861
C115	C	1.148142	-0.813293	0.412058
C116	C	1.481476	-0.479960	0.745391
C117	C	1.814809	-0.146627	1.078724
C118	C	1.070136	-0.698356	0.388394
C119	C	1.403469	-0.365023	0.721728
C120	C	1.736802	-0.031690	1.055061
C121	C	1.070303	-1.014458	0.388444
C122	C	1.403637	-0.681124	0.721777
C123	C	1.736970	-0.347791	1.055110
C124	C	1.263334	-0.356804	0.388402
C125	C	1.596667	-0.023470	0.721735
C126	C	1.930000	0.309863	1.055068
C127	C	1.345648	-0.356813	0.388404
C128	C	1.678981	-0.023479	0.721738
C129	C	2.012315	0.309854	1.055071
C130	C	1.070220	-0.356727	0.598705
C131	C	1.403553	-0.023394	0.932038
C132	C	1.736887	0.309939	1.265371
C133	C	1.070241	-0.356704	0.688326
C134	C	1.403574	-0.023371	1.021659
C135	C	1.736907	0.309963	1.354992
C136	C	1.070292	-0.163621	0.388437
C137	C	1.403625	0.169713	0.721770
C138	C	1.736958	0.503046	1.055104
C139	C	1.070343	-0.081307	0.388455
C140	C	1.403676	0.252027	0.721788
C141	C	1.737009	0.585360	1.055121
C142	C	1.070167	-0.356784	0.178905
C143	C	1.403500	-0.023451	0.512238
C144	C	1.736833	0.309883	0.845572
C145	C	1.070290	-0.356599	0.089284
C146	C	1.403623	-0.023266	0.422617
C147	C	1.736956	0.310068	0.755951
C148	C	1.070275	-0.356621	1.016502
C149	C	1.403608	-0.023288	1.349835
C150	C	1.736941	0.310046	1.683168
C151	C	1.070263	-0.356646	0.925193
C152	C	1.403597	-0.023313	1.258526
C153	C	1.736930	0.310020	1.591860
C154	C	1.070258	-0.356663	0.852417
C155	C	1.403591	-0.023330	1.185750
C156	C	1.736925	0.310004	1.519083
C157	C	1.070246	-0.356687	0.761102
C158	C	1.403579	-0.023354	1.094436
C159	C	1.736912	0.309979	1.427769
H160	H	0.634011	-0.401248	0.513880
H161	H	0.967344	-0.067915	0.847213
H162	H	1.300678	0.265419	1.180547
H163	H	0.507277	-0.263227	0.475022
H164	H	0.840611	0.070106	0.808356
H165	H	1.173944	0.403439	1.141689
H166	H	0.506777	-0.401329	0.513500
H167	H	0.840111	-0.067996	0.846833
H168	H	1.173444	0.265338	1.180166
O169	O	1.101366	-0.926470	0.240064
O170	O	1.434699	-0.593137	0.573397
O171	O	1.768033	-0.259804	0.906731
H172	H	1.070643	-0.960501	0.195691
H173	H	1.403976	-0.627168	0.529024
H174	H	1.737309	-0.293835	0.862357
O175	O	0.641836	-0.490489	0.431399
O176	O	0.975170	-0.157156	0.764733
O177	O	1.308503	0.176177	1.098066
H178	H	0.678206	-0.487825	0.377738
H179	H	1.011539	-0.154492	0.711072
H180	H	1.344872	0.178842	1.044405
H181	H	0.632994	-0.435242	0.284983
H182	H	0.966327	-0.101909	0.618316
H183	H	1.299660	0.231424	0.951650
O184	O	0.499261	-0.219400	0.356806
O185	O	0.832595	0.113933	0.690139
O186	O	1.165928	0.447267	1.023473
H187	H	0.438044	-0.217462	0.359962
H188	H	0.771377	0.115872	0.693296
H189	H	1.104711	0.449205	1.026629
O190	O	0.972827	-0.925568	0.279387
O191	O	1.306160	-0.592234	0.612720
O192	O	1.639493	-0.258901	0.946053
H193	H	0.948782	-0.959203	0.328673
H194	H	1.282115	-0.625870	0.662006
H195	H	1.615448	-0.292536	0.995339
O196	O	0.640532	-0.325135	0.240172
O197	O	0.973865	0.008199	0.573505
O198	O	1.307199	0.341532	0.906838
H199	H	0.592647	-0.299379	0.209330
H200	H	0.925980	0.033954	0.542664
H201	H	1.259314	0.367287	0.875997
O202	O	0.500463	-0.324034	0.240245
O203	O	0.833796	0.009299	0.573579
O204	O	1.167129	0.342632	0.906912
H205	H	0.439195	-0.325398	0.237940
H206	H	0.772528	0.007936	0.571273
H207	H	1.105862	0.341269	0.904606
O208	O	0.500575	-0.491150	0.430960
O209	O	0.833908	-0.157817	0.764293
O210	O	1.167242	0.175517	1.097627
H211	H	0.548597	-0.528282	0.421635
H212	H	0.881930	-0.194948	0.754968
H213	H	1.215263	0.138385	1.088301
H214	H	0.505927	-0.434211	0.284305
H215	H	0.839260	-0.100877	0.617638
H216	H	1.172594	0.232456	0.950972
O217	O	0.641865	-0.253295	0.491325
O218	O	0.975199	0.080038	0.824658
O219	O	1.308532	0.413371	1.157992
H220	H	0.678892	-0.296279	0.516609
H221	H	1.012225	0.037055	0.849943
H222	H	1.345558	0.370388	1.183276
O223	O	0.640080	-0.221953	0.350540
O224	O	0.973413	0.111380	0.683873
O225	O	1.306746	0.444714	1.017207
H226	H	0.675707	-0.249411	0.305177
H227	H	1.009040	0.083922	0.638510
H228	H	1.342374	0.417256	0.971843
O229	O	1.030358	-0.785752	0.534177
O230	O	1.363692	-0.452419	0.867510
O231	O	1.697025	-0.119085	1.200844
H232	H	1.039073	-0.833426	0.575048
H233	H	1.372406	-0.500093	0.908382
H234	H	1.705740	-0.166760	1.241715
H235	H	1.026265	-0.919829	0.514112
H236	H	1.359598	-0.586496	0.847445
H237	H	1.692931	-0.253162	1.180778
O238	O	1.169255	-0.786318	0.494894
O239	O	1.502589	-0.452985	0.828227
O240	O	1.835922	-0.119652	1.161561
H241	H	1.224413	-0.808525	0.511163
H242	H	1.557746	-0.475192	0.844496
H243	H	1.891080	-0.141858	1.177830
O244	O	0.973992	-0.785049	0.278571
O245	O	1.307326	-0.451715	0.611904
O246	O	1.640659	-0.118382	0.945238
H247	H	0.951619	-0.748798	0.326593
H248	H	1.284952	-0.415465	0.659927
H249	H	1.618286	-0.082132	0.993260
O250	O	0.936720	-0.927860	0.432040
O251	O	1.270053	-0.594526	0.765374
O252	O	1.603386	-0.261193	1.098707
H253	H	0.936682	-0.989110	0.435149
H254	H	1.270016	-0.655777	0.768482
H255	H	1.603349	-0.322443	1.101816
O256	O	1.207452	-0.784936	0.356168
O257	O	1.540786	-0.451603	0.689501
O258	O	1.874119	-0.118270	1.022835
H259	H	1.249151	-0.753621	0.391340
H260	H	1.582484	-0.420287	0.724673
H261	H	1.915818	-0.086954	1.058006
O262	O	1.204984	-0.925934	0.350065
O263	O	1.538317	-0.592601	0.683398
O264	O	1.871650	-0.259267	1.016732
H265	H	1.177386	-0.961698	0.304881
H266	H	1.510719	-0.628365	0.638214
H267	H	1.844052	-0.295031	0.971547
O268	O	0.935991	-0.786597	0.431589
O269	O	1.269325	-0.453264	0.764923
O270	O	1.602658	-0.119930	1.098256
H271	H	0.898847	-0.834681	0.422443
H272	H	1.232180	-0.501347	0.755776
H273	H	1.565514	-0.168014	1.089110
H274	H	1.089319	-0.792998	0.255624
H275	H	1.422653	-0.459665	0.588958
H276	H	1.755986	-0.126331	0.922291
O277	O	1.174125	-0.927475	0.490878
O278	O	1.507459	-0.594141	0.824211
O279	O	1.840792	-0.260808	1.157544
H280	H	1.131251	-0.964539	0.516370
H281	H	1.464584	-0.631205	0.849703
H282	H	1.797918	-0.297872	1.183036
