data_functionalizedCrystal
_audit_creation_method	'MofGen! by Chris Wilmer'
_symmetry_space_group_name_H-M	'P1'
_symmetry_Int_Tables_number	1
_symmetry_cell_setting	triclinic
loop_
_symmetry_equiv_pos_as_xyz
  x,y,z
_cell_length_a	18.215407
_cell_length_b	21.295417
_cell_length_c	18.215399
_cell_angle_alpha	89.967848
_cell_angle_beta	89.980167
_cell_angle_gamma	90.030955
loop_
_atom_site_label
_atom_site_type_symbol
_atom_site_fract_x
_atom_site_fract_y
_atom_site_fract_z
Zn1	Zn	1.125043	-0.250608	-0.416094
Zn2	Zn	1.625043	0.249392	0.083906
Zn3	Zn	1.124940	-0.355879	-0.293019
Zn4	Zn	1.624940	0.144121	0.206981
Zn5	Zn	1.001976	-0.250629	-0.293042
Zn6	Zn	1.501976	0.249371	0.206958
Zn7	Zn	1.001930	-0.355844	-0.416044
Zn8	Zn	1.501930	0.144156	0.083956
O9	O	1.063472	-0.303240	-0.354550
O10	O	1.563472	0.196760	0.145450
O11	O	1.228014	-0.264579	-0.399780
O12	O	1.728014	0.235421	0.100220
O13	O	1.108604	-0.341941	-0.190038
O14	O	1.608604	0.158059	0.309962
O15	O	1.018364	-0.162537	-0.309396
O16	O	1.518364	0.337463	0.190604
O17	O	1.227938	-0.341921	-0.309357
O18	O	1.727938	0.158079	0.190643
O19	O	1.108781	-0.162521	-0.399802
O20	O	1.608781	0.337479	0.100198
O21	O	1.018263	-0.264614	-0.190054
O22	O	1.518263	0.235386	0.309946
O23	O	0.898985	-0.264580	-0.309347
O24	O	1.398985	0.235420	0.190653
O25	O	1.018285	-0.341861	-0.519035
O26	O	1.518285	0.158139	-0.019035
O27	O	0.898951	-0.341881	-0.399716
O28	O	1.398951	0.158119	0.100284
O29	O	1.108736	-0.264545	-0.519072
O30	O	1.608736	0.235455	-0.019072
O31	O	1.108559	-0.443964	-0.309308
O32	O	1.608559	0.056036	0.190692
O33	O	1.018184	-0.443938	-0.399694
O34	O	1.518184	0.056062	0.100306
C35	C	0.872266	-0.303229	-0.354529
C36	C	1.372266	0.196771	0.145471
C37	C	0.790467	-0.303240	-0.354537
C38	C	1.290467	0.196760	0.145463
C39	C	1.063376	-0.466792	-0.354509
C40	C	1.563376	0.033208	0.145491
C41	C	1.063402	-0.536760	-0.354516
C42	C	1.563402	-0.036760	0.145484
C43	C	0.602275	-0.343554	-0.401533
C44	C	1.102275	0.156446	0.098467
C45	C	0.525416	-0.343556	-0.401542
C46	C	1.025416	0.156444	0.098458
C47	C	0.525422	-0.262938	-0.307582
C48	C	1.025422	0.237062	0.192418
C49	C	0.602279	-0.262933	-0.307577
C50	C	1.102279	0.237067	0.192423
C51	C	0.640703	-0.303245	-0.354552
C52	C	1.140703	0.196755	0.145448
C53	C	0.486987	-0.303251	-0.354566
C54	C	0.986987	0.196749	0.145434
C55	C	0.403654	-0.303253	-0.354575
C56	C	0.903654	0.196747	0.145425
C57	C	0.724042	-0.303242	-0.354543
C58	C	1.224042	0.196758	0.145457
C59	C	1.110502	-0.569619	-0.307500
C60	C	1.610502	-0.069619	0.192500
C61	C	1.110536	-0.635361	-0.307517
C62	C	1.610536	-0.135361	0.192483
C63	C	1.063457	-0.668242	-0.354542
C64	C	1.563457	-0.168242	0.145458
C65	C	1.016354	-0.635375	-0.401566
C66	C	1.516354	-0.135375	0.098434
C67	C	1.016326	-0.569634	-0.401554
C68	C	1.516326	-0.069634	0.098446
N69	N	0.999079	-0.771508	-0.360145
N70	N	1.499079	-0.271508	0.139855
N71	N	0.999107	-0.833960	-0.360153
N72	N	1.499107	-0.333960	0.139847
C73	C	1.063540	-0.866317	-0.354584
C74	C	1.563540	-0.366317	0.145416
N75	N	1.127944	-0.833863	-0.348993
N76	N	1.627944	-0.333863	0.151007
N77	N	1.127915	-0.771406	-0.348981
N78	N	1.627915	-0.271406	0.151019
C79	C	1.063483	-0.739528	-0.354561
C80	C	1.563483	-0.239528	0.145439
C81	C	1.110681	-0.970462	-0.307584
C82	C	1.610681	-0.470462	0.192416
C83	C	1.110717	-1.036205	-0.307605
C84	C	1.610717	-0.536205	0.192395
C85	C	1.016528	-1.036218	-0.401651
C86	C	1.516528	-0.536218	0.098349
C87	C	1.016499	-0.970475	-0.401633
C88	C	1.516499	-0.470475	0.098367
C89	C	1.063575	-0.937601	-0.354595
C90	C	1.563575	-0.437601	0.145405
C91	C	1.255425	-0.303251	-0.354571
C92	C	1.755425	0.196749	0.145429
C93	C	1.337224	-0.303256	-0.354581
C94	C	1.837224	0.196744	0.145419
C95	C	1.063517	-0.303197	-0.546503
C96	C	1.563517	0.196803	-0.046503
C97	C	1.063536	-0.303178	-0.628302
C98	C	1.563536	0.196822	-0.128302
C99	C	1.063589	-0.139050	-0.354607
C100	C	1.563589	0.360950	0.145393
C101	C	1.063639	-0.069082	-0.354631
C102	C	1.563639	0.430918	0.145369
C103	C	1.110651	-0.262882	-0.816516
C104	C	1.610651	0.237118	-0.316516
C105	C	1.110660	-0.262863	-0.893375
C106	C	1.610660	0.237137	-0.393375
C107	C	1.016473	-0.343377	-0.893325
C108	C	1.516473	0.156623	-0.393325
C109	C	1.016461	-0.343392	-0.816468
C110	C	1.516461	0.156608	-0.316468
C111	C	1.063554	-0.303145	-0.778065
C112	C	1.563554	0.196855	-0.278065
C113	C	1.063575	-0.303112	-0.931781
C114	C	1.563575	0.196888	-0.431781
C115	C	1.063584	-0.303093	-1.015115
C116	C	1.563584	0.196907	-0.515115
C117	C	1.063544	-0.303164	-0.694726
C118	C	1.563544	0.196836	-0.194726
C119	C	1.063470	-0.303238	-0.163344
C120	C	1.563470	0.196762	0.336656
C121	C	1.063593	-0.303079	-0.081545
C122	C	1.563593	0.196921	0.418455
H123	H	0.633557	-0.376377	-0.439785
H124	H	1.133557	0.123623	0.060215
H125	H	1.149015	-0.943694	-0.269285
H126	H	1.649015	-0.443694	0.230715
C127	C	0.891724	-0.655686	-0.437308
C128	C	1.391724	-0.155686	0.062692
C129	C	0.964603	-0.671513	-0.453258
C130	C	1.464603	-0.171513	0.046742
H131	H	0.859778	-0.677993	-0.469227
H132	H	1.359778	-0.177993	0.030773
H133	H	0.880990	-0.666502	-0.387860
H134	H	1.380990	-0.166502	0.112140
H135	H	0.884978	-0.611828	-0.444031
H136	H	1.384978	-0.111828	0.055969
H137	H	0.971351	-0.715370	-0.446530
H138	H	1.471351	-0.215370	0.053470
H139	H	0.975341	-0.660701	-0.502718
H140	H	1.475341	-0.160701	-0.002718
H141	H	1.148893	-0.662121	-0.269231
H142	H	1.648893	-0.162121	0.230769
H143	H	1.149076	-1.062958	-0.269321
H144	H	1.649076	-0.562958	0.230679
C145	C	0.533135	-0.423248	-0.494408
C146	C	1.033135	0.076752	0.005592
C147	C	0.483175	-0.387868	-0.453183
C148	C	0.983175	0.112132	0.046817
H149	H	0.507056	-0.450608	-0.526287
H150	H	1.007056	0.049392	-0.026287
H151	H	0.563138	-0.395851	-0.522614
H152	H	1.063138	0.104149	-0.022614
H153	H	0.563086	-0.447288	-0.462281
H154	H	1.063086	0.052712	0.037719
H155	H	0.453228	-0.363824	-0.485311
H156	H	0.953228	0.136176	0.014689
H157	H	0.453159	-0.415268	-0.424975
H158	H	0.953159	0.084732	0.075025
H159	H	0.978133	-0.376146	-0.924602
H160	H	1.478133	0.123854	-0.424602
H161	H	1.148995	-0.230109	-0.785251
H162	H	1.648995	0.269891	-0.285251
H163	H	0.494127	-0.230118	-0.269336
H164	H	0.994127	0.269882	0.230664
H165	H	0.977971	-0.542879	-0.439840
H166	H	1.477971	-0.042879	0.060160
H167	H	0.633569	-0.230104	-0.269319
H168	H	1.133569	0.269896	0.230681
C169	C	0.974620	-0.379161	-0.698626
C170	C	1.474620	0.120839	-0.198626
C171	C	0.964688	-0.387652	-0.774196
C172	C	1.464688	0.112348	-0.274196
H173	H	0.942654	-0.406480	-0.672531
H174	H	1.442654	0.093520	-0.172531
H175	H	1.024053	-0.388379	-0.686041
H176	H	1.524053	0.111621	-0.186041
H177	H	0.963877	-0.336865	-0.686056
H178	H	1.463877	0.163135	-0.186056
H179	H	0.975437	-0.429947	-0.786767
H180	H	1.475437	0.070053	-0.286767
H181	H	0.915244	-0.378438	-0.786786
H182	H	1.415244	0.121562	-0.286786
C183	C	0.974751	-1.136996	-0.443429
C184	C	1.474751	-0.636996	0.056571
C185	C	0.964780	-1.072353	-0.453344
C186	C	1.464780	-0.572353	0.046656
H187	H	0.942801	-1.159305	-0.475343
H188	H	1.442801	-0.659305	0.024657
H189	H	1.024191	-1.147720	-0.454248
H190	H	1.524191	-0.647720	0.045752
H191	H	0.964011	-1.147805	-0.393973
H192	H	1.464011	-0.647805	0.106027
H193	H	0.975525	-1.061544	-0.502799
H194	H	1.475525	-0.561544	-0.002799
H195	H	0.915328	-1.061625	-0.442531
H196	H	1.415328	-0.561625	0.057469
H197	H	0.978143	-0.943720	-0.439914
H198	H	1.478143	-0.443720	0.060086
C199	C	1.203610	-0.576215	-0.214547
C200	C	1.703610	-0.076215	0.285453
C201	C	1.162257	-0.533485	-0.255808
C202	C	1.662257	-0.033485	0.244192
H203	H	1.235565	-0.553905	-0.182640
H204	H	1.735565	-0.053905	0.317360
H205	H	1.171572	-0.601894	-0.186370
H206	H	1.671572	-0.101894	0.313630
H207	H	1.231746	-0.601819	-0.246652
H208	H	1.731746	-0.101819	0.253348
H209	H	1.134116	-0.507884	-0.223704
H210	H	1.634116	-0.007884	0.276296
H211	H	1.194298	-0.507795	-0.283987
H212	H	1.694298	-0.007795	0.216013
C213	C	1.203764	-0.183289	-0.885699
C214	C	1.703764	0.316711	-0.385699
C215	C	1.162433	-0.218608	-0.935640
C216	C	1.662433	0.281392	-0.435640
H217	H	1.235730	-0.155969	-0.911793
H218	H	1.735730	0.344031	-0.411793
H219	H	1.171713	-0.159215	-0.855726
H220	H	1.671713	0.340785	-0.355726
H221	H	1.231887	-0.210731	-0.855716
H222	H	1.731887	0.289269	-0.355716
H223	H	1.134305	-0.191165	-0.965620
H224	H	1.634305	0.308835	-0.465620
H225	H	1.194488	-0.242683	-0.965626
H226	H	1.694488	0.257317	-0.465626
