data_functionalizedCrystal
_audit_creation_method	'MofGen! by Chris Wilmer'
_symmetry_space_group_name_H-M	'P1'
_symmetry_Int_Tables_number	1
_symmetry_cell_setting	triclinic
loop_
_symmetry_equiv_pos_as_xyz
  x,y,z
_cell_length_a	12.594517
_cell_length_b	12.594516
_cell_length_c	16.120297
_cell_angle_alpha	92.876309
_cell_angle_beta	92.877094
_cell_angle_gamma	90.011248
loop_
_atom_site_label
_atom_site_type_symbol
_atom_site_fract_x
_atom_site_fract_y
_atom_site_fract_z
Zn1	Zn	1.596772	-0.454304	-0.471434
Zn2	Zn	1.605702	-0.623272	-0.332031
Zn3	Zn	1.427802	-0.445307	-0.332034
Zn4	Zn	1.418773	-0.632237	-0.471394
O5	O	1.512262	-0.538780	-0.401723
O6	O	1.746901	-0.476732	-0.452957
O7	O	1.589620	-0.592148	-0.215369
O8	O	1.450257	-0.297556	-0.350543
O9	O	1.753462	-0.600872	-0.350539
O10	O	1.574398	-0.304166	-0.452960
O11	O	1.458917	-0.461397	-0.215371
O12	O	1.277660	-0.470090	-0.350505
O13	O	1.434869	-0.616150	-0.588063
O14	O	1.271026	-0.607426	-0.452893
O15	O	1.565644	-0.485424	-0.588092
O16	O	1.580865	-0.773406	-0.350501
O17	O	1.443529	-0.779992	-0.452890
C18	C	1.235723	-0.538755	-0.401695
C19	C	1.117417	-0.538771	-0.401703
C20	C	0.980969	-0.464004	-0.346142
C21	C	1.046900	-0.443005	-0.422217
C22	C	1.053058	-0.559723	-0.325637
C23	C	0.972556	-0.517770	-0.477879
C24	C	0.978711	-0.634530	-0.381248
C25	C	1.044606	-0.613571	-0.457375
C26	C	1.512214	-0.815320	-0.401709
C27	C	1.512289	-0.933627	-0.401731
C28	C	1.587065	-0.999263	-0.346100
C29	C	1.608148	-1.074895	-0.422194
C30	C	1.491335	-1.068796	-0.325686
C31	C	1.533419	-1.007703	-0.477864
C32	C	1.416565	-1.001595	-0.381304
C33	C	1.437608	-1.077199	-0.457450
C34	C	1.789881	-0.538806	-0.401752
C35	C	1.908186	-0.538817	-0.401764
C36	C	1.498253	-0.552791	-0.619172
C37	C	1.492283	-0.558761	-0.711836
C38	C	1.512339	-0.261161	-0.401756
C39	C	1.512371	-0.142857	-0.401770
C40	C	1.481345	-0.569638	-0.881494
C41	C	1.543390	-0.507602	-0.922805
C42	C	1.537303	-0.513655	-1.017208
C43	C	1.487430	-0.563588	-0.787082
C44	C	1.526278	-0.524747	-0.185120
C45	C	1.532454	-0.518476	-0.092457
H46	H	0.948694	-0.715467	-0.363894
N47	N	1.408967	-0.641966	-0.926048
N48	N	1.350622	-0.700293	-0.887267
H49	H	1.299501	-0.751371	-0.918740
H50	H	0.952909	-0.400715	-0.299188
H51	H	1.601078	-0.449945	-0.887273
H52	H	1.650307	-0.965164	-0.299098
N53	N	1.079547	-0.692916	-0.516423
N54	N	1.051836	-0.688175	-0.591693
H55	H	1.076513	-0.744208	-0.633399
H56	H	1.551091	-0.980841	-0.542246
N57	N	1.097231	-0.581909	-0.244906
N58	N	1.078479	-0.521349	-0.183587
H59	H	1.109679	-0.537005	-0.126569
H60	H	1.076876	-0.362040	-0.439559
H61	H	1.689134	-1.107053	-0.439493
N62	N	1.358308	-1.119724	-0.516552
N63	N	1.302330	-1.058582	-0.558978
H64	H	1.246327	-1.088613	-0.600721
H65	H	1.335604	-0.969413	-0.363983
N66	N	1.469057	-1.102643	-0.244984
N67	N	1.453897	-1.035277	-0.187205
H68	H	1.438170	-1.059176	-0.130207
N69	N	0.928552	-0.495462	-0.558635
N70	N	0.829977	-0.491853	-0.571688
H71	H	0.798895	-0.476100	-0.628721
