data_functionalizedCrystal
_audit_creation_method	'MofGen! by Chris Wilmer'
_symmetry_space_group_name_H-M	'P1'
_symmetry_Int_Tables_number	1
_symmetry_cell_setting	triclinic
loop_
_symmetry_equiv_pos_as_xyz
  x,y,z
_cell_length_a	34.490303
_cell_length_b	34.489386
_cell_length_c	34.485816
_cell_angle_alpha	60.004462
_cell_angle_beta	60.008900
_cell_angle_gamma	59.994399
loop_
_atom_site_label
_atom_site_type_symbol
_atom_site_fract_x
_atom_site_fract_y
_atom_site_fract_z
O1	O	0.053846	-0.566517	0.473678
O2	O	0.553846	-0.066517	0.973678
O3	O	0.020329	-0.441078	0.381663
O4	O	0.520329	0.058922	0.881663
O5	O	0.099768	-0.520436	0.381578
O6	O	0.599768	-0.020436	0.881578
O7	O	-0.025592	-0.487159	0.473762
O8	O	0.474408	0.012841	0.973762
O9	O	0.126127	-0.494082	0.407849
O10	O	0.626127	0.005918	0.907849
O11	O	0.046689	-0.414724	0.407933
O12	O	0.546689	0.085276	0.907933
O13	O	0.080206	-0.540163	0.499949
O14	O	0.580206	-0.040163	0.999949
Zn15	Zn	0.067632	-0.473259	0.458112
Zn16	Zn	0.567632	0.026741	0.958112
Zn17	Zn	0.032903	-0.507982	0.423499
Zn18	Zn	0.532903	-0.007982	0.923499
O19	O	0.000767	-0.460805	0.500033
O20	O	0.500767	0.039195	1.000033
N21	N	0.091336	-0.449565	0.481736
N22	N	0.591336	0.050435	0.981736
N23	N	0.009203	-0.531680	0.399875
N24	N	0.509203	-0.031680	0.899875
C25	C	0.142510	-0.268211	0.532817
C26	C	0.642510	0.231789	1.032817
C27	C	0.142641	-0.398441	0.662987
C28	C	0.642641	0.101559	1.162987
C29	C	0.142524	-0.398421	0.532817
C30	C	0.642524	0.101579	1.032817
C31	C	0.272762	-0.398394	0.532723
C32	C	0.772762	0.101606	1.032723
C33	C	0.156853	-0.311177	0.547124
C34	C	0.656853	0.188823	1.047124
C35	C	0.156928	-0.384109	0.620020
C36	C	0.656928	0.115891	1.120020
C37	C	0.229794	-0.384081	0.547073
C38	C	0.729794	0.115919	1.047073
C39	C	0.156863	-0.384097	0.547124
C40	C	0.656863	0.115903	1.047124
C41	C	0.124253	-0.213522	0.514606
C42	C	0.624253	0.286478	1.014606
C43	C	0.124277	-0.416652	0.514606
C44	C	0.624277	0.083348	1.014606
C45	C	0.175110	-0.365866	0.565335
C46	C	0.675110	0.134134	1.065335
C47	C	0.352285	-0.384669	0.490824
C48	C	0.852285	0.115331	0.990824
C49	C	0.401998	-0.401229	0.474223
C50	C	0.901998	0.098771	0.974223
C51	C	0.402027	-0.481671	0.504898
C52	C	0.902027	0.018329	1.004898
C53	C	0.352316	-0.465109	0.521500
C54	C	0.852316	0.034891	1.021500
C55	C	0.136220	-0.188652	0.465734
C56	C	0.636220	0.311348	0.965734
C57	C	0.119621	-0.138936	0.449181
C58	C	0.619621	0.361064	0.949181
C59	C	0.079092	-0.138961	0.530374
C60	C	0.579092	0.361039	1.030374
C61	C	0.095691	-0.188678	0.546927
C62	C	0.595691	0.311322	1.046927
C63	C	0.075398	-0.404656	0.526651
C64	C	0.575398	0.095344	1.026651
C65	C	0.058814	-0.421229	0.510091
C66	C	0.558814	0.078771	1.010091
C67	C	0.139984	-0.461794	0.469452
C68	C	0.639984	0.038206	0.969452
C69	C	0.156570	-0.445221	0.486007
C70	C	0.656570	0.054779	0.986007
C71	C	0.075593	-0.404694	0.742565
C72	C	0.575593	0.095306	1.242565
C73	C	0.059066	-0.421281	0.792280
C74	C	0.559066	0.078719	1.292280
C75	C	0.140274	-0.461856	0.792215
C76	C	0.640274	0.038144	1.292215
C77	C	0.156800	-0.445269	0.742499
C78	C	0.656800	0.054731	1.242499
C79	C	0.124458	-0.416687	0.717675
C80	C	0.624458	0.083313	1.217675
C81	C	0.327446	-0.416608	0.514460
C82	C	0.827446	0.083392	1.014460
C83	C	-0.023585	-0.564792	0.161919
C84	C	0.476415	-0.064792	0.661919
C85	C	-0.023910	-0.769260	0.366530
C86	C	0.476090	-0.269260	0.866530
C87	C	-0.023880	-0.564780	0.366623
C88	C	0.476120	-0.064780	0.866623
C89	C	-0.228325	-0.564561	0.366222
C90	C	0.271675	-0.064561	0.866222
C91	C	-0.129610	-0.597564	0.333467
C92	C	0.370390	-0.097564	0.833467
C93	C	-0.056729	-0.597644	0.333613
C94	C	0.443271	-0.097644	0.833613
C95	C	-0.074925	-0.615849	0.315324
C96	C	0.425075	-0.115849	0.815324
C97	C	-0.088689	-0.695351	0.357144
C98	C	0.411311	-0.195351	0.857144
C99	C	-0.072155	-0.745068	0.373736
C100	C	0.427845	-0.245068	0.873736
C101	C	0.008283	-0.745150	0.343188
C102	C	0.508283	-0.245150	0.843188
C103	C	-0.008252	-0.695435	0.326596
C104	C	0.491748	-0.195435	0.826596
C105	C	-0.154529	-0.609541	0.382326
C106	C	0.345471	-0.109541	0.882326
C107	C	-0.204241	-0.592916	0.398818
C108	C	0.295759	-0.092916	0.898818
C109	C	-0.204114	-0.552341	0.317588
C110	C	0.295886	-0.052341	0.817588
C111	C	-0.154401	-0.568966	0.301096
C112	C	0.345599	-0.068966	0.801096
C113	C	-0.068707	-0.548770	0.321590
C114	C	0.431293	-0.048770	0.821590
C115	C	-0.052166	-0.532225	0.338221
C116	C	0.447834	-0.032225	0.838221
C117	C	-0.011669	-0.613425	0.378886
C118	C	0.488331	-0.113425	0.878886
C119	C	-0.028210	-0.629972	0.362261
C120	C	0.471790	-0.129972	0.862261
C121	C	-0.068581	-0.548777	0.235758
C122	C	0.431419	-0.048777	0.735758
C123	C	-0.051939	-0.532234	0.186043
C124	C	0.448061	-0.032234	0.686043
C125	C	-0.011379	-0.613438	0.186090
C126	C	0.488621	-0.113438	0.686090
C127	C	-0.028020	-0.629981	0.235806
C128	C	0.471980	-0.129981	0.735806
C129	C	-0.056622	-0.597649	0.260639
C130	C	0.443378	-0.097649	0.760639
C131	C	-0.056739	-0.670537	0.333576
C132	C	0.443261	-0.170537	0.833576
C133	C	-0.005614	-0.545951	0.107238
C134	C	0.494386	-0.045951	0.607238
C135	C	-0.006360	-0.823943	0.385033
C136	C	0.493640	-0.323943	0.885033
C137	C	-0.005995	-0.545937	0.384582
C138	C	0.494005	-0.045937	0.884582
C139	C	-0.283006	-0.545971	0.383725
C140	C	0.216994	-0.045971	0.883725
N141	N	0.426163	-0.449489	0.481488
N142	N	0.926163	0.050511	0.981488
O143	O	0.588601	-0.457377	0.364497
O144	O	1.088601	0.042623	0.864497
O145	O	0.588789	-0.549696	0.489801
O146	O	1.088789	-0.049696	0.989801
O147	O	0.588709	-0.549485	0.410335
O148	O	1.088709	-0.049485	0.910335
O149	O	0.588681	-0.457588	0.443963
O150	O	1.088681	0.042412	0.943963
O151	O	0.509731	-0.523223	0.436741
O152	O	1.009731	-0.023223	0.936741
O153	O	0.509811	-0.523434	0.516207
O154	O	1.009811	-0.023434	1.016207
O155	O	0.509624	-0.431115	0.390903
O156	O	1.009624	0.068885	0.890903
Zn157	Zn	0.497178	-0.473105	0.457747
Zn158	Zn	0.997178	0.026895	0.957747
Zn159	Zn	0.601234	-0.507706	0.422956
Zn160	Zn	1.101234	-0.007706	0.922956
O161	O	0.509704	-0.431326	0.470368
O162	O	1.009704	0.068674	0.970368
N163	N	0.672250	-0.531322	0.399211
N164	N	1.172250	-0.031322	0.899211
N165	N	0.091303	-0.114798	0.481730
N166	N	0.591303	0.385202	0.981730
O167	O	-0.025603	0.047729	0.473733
O168	O	0.474397	0.547729	0.973733
O169	O	0.099703	0.047764	0.381394
O170	O	0.599703	0.547764	0.881394
O171	O	0.020199	0.047731	0.381655
O172	O	0.520199	0.547731	0.881655
O173	O	0.053901	0.047761	0.473472
O174	O	0.553901	0.547761	0.973472
O175	O	0.046564	-0.031252	0.407974
O176	O	0.546564	0.468748	0.907974
O177	O	0.126068	-0.031219	0.407713
O178	O	0.626068	0.468781	0.907713
O179	O	0.000762	-0.031254	0.500052
O180	O	0.500762	0.468746	1.000052
Zn181	Zn	0.067601	-0.043777	0.458061
Zn182	Zn	0.567601	0.456223	0.958061
Zn183	Zn	0.032864	0.060287	0.423385
Zn184	Zn	0.532864	0.560287	0.923385
O185	O	0.080266	-0.031222	0.499791
O186	O	0.580266	0.468778	0.999791
N187	N	0.009156	0.131307	0.399717
N188	N	0.509156	0.631307	0.899717
N189	N	0.091635	-0.449614	0.816396
N190	N	0.591635	0.050386	1.316396
O191	O	0.083664	-0.566502	0.978913
O192	O	0.583664	-0.066502	1.478913
O193	O	-0.008637	-0.441152	0.978954
O194	O	0.491363	0.058848	1.478954
O195	O	-0.008421	-0.520640	0.978930
O196	O	0.491579	-0.020640	1.478930
O197	O	0.083448	-0.487013	0.978936
O198	O	0.583448	0.012987	1.478936
O199	O	0.017877	-0.494296	0.899950
O200	O	0.517877	0.005704	1.399950
O201	O	0.017661	-0.414807	0.899974
O202	O	0.517661	0.085193	1.399974
O203	O	0.109961	-0.540157	0.899933
O204	O	0.609961	-0.040157	1.399933
Zn205	Zn	0.067986	-0.473299	0.887414
Zn206	Zn	0.567986	0.026701	1.387414
Zn207	Zn	0.033338	-0.508010	0.991473
Zn208	Zn	0.533338	-0.008010	1.491473
O209	O	0.109746	-0.460669	0.899956
O210	O	0.609746	0.039331	1.399956
N211	N	0.009689	-0.531700	1.062491
N212	N	0.509689	-0.031700	1.562491
C213	C	0.030367	-0.412095	0.382120
C214	C	0.530367	0.087905	0.882120
C215	C	0.128741	-0.510370	0.382016
C216	C	0.628741	-0.010370	0.882016
C217	C	0.070168	-0.569147	0.499490
C218	C	0.570168	-0.069147	0.999490
C219	C	-0.028207	-0.470871	0.499595
C220	C	0.471793	0.029129	0.999595
C221	C	0.549323	-0.549278	0.518791
C222	C	1.049323	-0.049278	1.018791
C223	C	0.549225	-0.549017	0.420381
C224	C	1.049225	-0.049017	0.920381
C225	C	0.549087	-0.431532	0.361914
C226	C	1.049087	0.068468	0.861914
C227	C	0.549188	-0.431794	0.460322
C228	C	1.049188	0.068206	0.960322
C229	C	0.128638	0.008374	0.381806
C230	C	0.628638	0.508374	0.881806
C231	C	0.030215	0.008236	0.382161
C232	C	0.530215	0.508236	0.882161
C233	C	-0.028206	0.008233	0.499608
C234	C	0.471794	0.508233	0.999608
C235	C	0.070250	0.008272	0.499285
C236	C	0.570250	0.508272	0.999285
C237	C	-0.008199	-0.412187	0.939469
C238	C	0.491801	0.087813	1.439469
C239	C	-0.007927	-0.510619	0.939425
C240	C	0.492073	-0.010619	1.439425
C241	C	0.109523	-0.569121	0.939417
C242	C	0.609523	-0.069121	1.439417
C243	C	0.109257	-0.470684	0.939444
C244	C	0.609257	0.029316	1.439444
H245	H	0.049253	-0.381417	0.722357
H246	H	0.549253	0.118583	1.222357
C247	C	0.548987	-0.392813	0.313971
C248	C	1.048987	0.107187	0.813971
C249	C	0.548948	-0.352230	0.314036
C250	C	1.048948	0.147770	0.814036
C251	C	0.548849	-0.316551	0.269881
C252	C	1.048849	0.183449	0.769881
H253	H	0.576505	-0.403613	0.289747
H254	H	1.076505	0.096387	0.789747
H255	H	0.521419	-0.385333	0.308202
H256	H	1.021419	0.114667	0.808202
H257	H	0.576512	-0.359710	0.319799
H258	H	1.076512	0.140290	0.819799
H259	H	0.521431	-0.341417	0.338250
H260	H	1.021431	0.158583	0.838250
H261	H	0.521281	-0.309071	0.264113
H262	H	1.021281	0.190929	0.764113
H263	H	0.576368	-0.327355	0.245661
H264	H	1.076368	0.172645	0.745661
H265	H	0.548818	-0.289010	0.269921
H266	H	1.048818	0.210990	0.769921
C267	C	0.020921	-0.364072	0.343528
C268	C	0.520921	0.135928	0.843528
C269	C	0.061457	-0.363995	0.302881
C270	C	0.561457	0.136005	0.802881
C271	C	0.052775	-0.319763	0.267323
C272	C	0.552775	0.180237	0.767323
H273	H	-0.004961	-0.358269	0.336074
H274	H	0.495039	0.141731	0.836074
H275	H	0.013423	-0.339922	0.354433
H276	H	0.513423	0.160078	0.854433
H277	H	0.068949	-0.388138	0.291978
H278	H	0.568949	0.111862	0.791978
H279	H	0.087345	-0.369790	0.310320
H280	H	0.587345	0.130210	0.810320
H281	H	0.045278	-0.295613	0.278227
H282	H	0.545278	0.204387	0.778227
H283	H	0.026892	-0.313964	0.259873
H284	H	0.526892	0.186036	0.759873
H285	H	0.080279	-0.319704	0.239741
H286	H	0.580279	0.180296	0.739741
C287	C	0.148234	-0.617083	0.939377
C288	C	0.648234	-0.117083	1.439377
C289	C	0.188805	-0.617023	0.939364
C290	C	0.688805	-0.117023	1.439364
C291	C	0.224476	-0.661195	0.939320
C292	C	0.724476	-0.161195	1.439320
H293	H	0.137422	-0.641289	0.966907
H294	H	0.637422	-0.141289	1.466907
H295	H	0.155728	-0.622878	0.911819
H296	H	0.655728	-0.122878	1.411819
H297	H	0.181311	-0.611234	0.966919
H298	H	0.681311	-0.111234	1.466919
H299	H	0.199631	-0.592827	0.911836
H300	H	0.699631	-0.092827	1.411836
H301	H	0.231970	-0.666990	0.911762
H302	H	0.731970	-0.166990	1.411762
H303	H	0.213660	-0.685397	0.966850
H304	H	0.713660	-0.185397	1.466850
H305	H	0.252009	-0.661159	0.939307
H306	H	0.752009	-0.161159	1.439307
H307	H	-0.064192	0.008222	0.528596
H308	H	0.435808	0.508222	1.028596
H309	H	-0.224531	-0.602667	0.438605
H310	H	0.275469	-0.102667	0.938605
H311	H	0.077468	0.008281	0.528131
H312	H	0.577468	0.508281	1.028131
H313	H	-0.037176	-0.376187	0.939482
H314	H	0.462824	0.123813	1.439482
H315	H	-0.036776	-0.517804	0.939391
H316	H	0.463224	-0.017804	1.439391
C317	C	0.549263	-0.587582	0.410875
C318	C	1.049263	-0.087582	0.910875
C319	C	0.549341	-0.628272	0.451375
C320	C	1.049341	-0.128272	0.951375
C321	C	0.549383	-0.663809	0.442633
C322	C	1.049383	-0.163809	0.942633
H323	H	0.521711	-0.576696	0.403384
H324	H	1.021711	-0.076696	0.903384
H325	H	0.576797	-0.594979	0.384965
H326	H	1.076797	-0.094979	0.884965
H327	H	0.521810	-0.620875	0.477276
H328	H	1.021810	-0.120875	0.977276
H329	H	0.576891	-0.639172	0.458872
H330	H	1.076891	-0.139172	0.958872
H331	H	0.576917	-0.671206	0.416724
H332	H	1.076917	-0.171206	0.916724
H333	H	0.521830	-0.652919	0.435142
H334	H	1.021830	-0.152919	0.935142
H335	H	0.549440	-0.691423	0.470109
H336	H	1.049440	-0.191423	0.970109
H337	H	0.138119	-0.463487	0.939440
H338	H	0.638119	0.036513	1.439440
H339	H	0.022995	0.008233	0.353314
H340	H	0.522995	0.508233	0.853314
H341	H	0.019274	-0.411508	0.812539
H342	H	0.519274	0.088492	1.312539
H343	H	0.164551	0.008603	0.352745
H344	H	0.664551	0.508603	0.852745
H345	H	0.164745	-0.517463	0.353068
H346	H	0.664745	-0.017463	0.853068
C347	C	0.079706	-0.617235	0.537978
C348	C	0.579706	-0.117235	1.037978
C349	C	0.090762	-0.652716	0.521755
C350	C	0.590762	-0.152716	1.021755
C351	C	0.099545	-0.697020	0.557199
C352	C	0.599545	-0.197020	1.057199
H353	H	0.105618	-0.623062	0.545400
H354	H	0.605618	-0.123062	1.045400
H355	H	0.052244	-0.617396	0.565603
H356	H	0.552244	-0.117396	1.065603
H357	H	0.118221	-0.652556	0.494138
H358	H	0.618221	-0.152556	0.994138
H359	H	0.064856	-0.646905	0.514336
H360	H	0.564856	-0.146905	1.014336
H361	H	0.072084	-0.697180	0.584824
H362	H	0.572084	-0.197180	1.084824
H363	H	0.125457	-0.702842	0.564618
H364	H	0.625457	-0.202842	1.064618
H365	H	0.107044	-0.721098	0.546198
H366	H	0.607044	-0.221098	1.046198
C367	C	0.175463	-0.492900	0.819081
C368	C	0.675463	0.007100	1.319081
C369	C	0.221796	-0.499863	0.786644
C370	C	0.721796	0.000137	1.286644
C371	C	0.254224	-0.528469	0.811375
C372	C	0.754224	-0.028469	1.311375
H373	H	0.170767	-0.477768	0.838479
H374	H	0.670767	0.022232	1.338479
H375	H	0.170733	-0.522721	0.838459
H376	H	0.670733	-0.022721	1.338459
H377	H	0.226525	-0.470048	0.767274
H378	H	0.726525	0.029952	1.267274
H379	H	0.226508	-0.515001	0.767245
H380	H	0.726508	-0.015001	1.267245
H381	H	0.249493	-0.558290	0.830753
H382	H	0.749493	-0.058290	1.330753
H383	H	0.249523	-0.513334	0.830772
H384	H	0.749523	-0.013334	1.330772
H385	H	0.285664	-0.533201	0.789370
H386	H	0.785664	-0.033201	1.289370
H387	H	0.196592	-0.455039	0.722237
H388	H	0.696592	0.044961	1.222237
H389	H	0.049100	-0.381393	0.549936
H390	H	0.549100	0.118607	1.049936
H391	H	0.166284	-0.485062	0.446169
H392	H	0.666284	0.014938	0.946169
C393	C	0.005727	-0.408180	0.523241
C394	C	0.505727	0.091820	1.023241
C395	C	-0.019006	-0.379630	0.551848
C396	C	0.480994	0.120370	1.051848
C397	C	-0.067909	-0.367607	0.563978
C398	C	0.432091	0.132393	1.063978
H399	H	-0.002522	-0.391282	0.495185
H400	H	0.497478	0.108718	0.995185
H401	H	-0.002422	-0.436293	0.540131
H402	H	0.497578	0.063707	1.040131
H403	H	-0.010860	-0.351521	0.534958
H404	H	0.489140	0.148479	1.034958
H405	H	-0.010772	-0.396518	0.579910
H406	H	0.489228	0.103482	1.079910
H407	H	-0.076058	-0.395720	0.580867
H408	H	0.423942	0.104280	1.080867
H409	H	-0.076153	-0.350710	0.535919
H410	H	0.423847	0.149290	1.035919
H411	H	-0.084696	-0.348238	0.583392
H412	H	0.415304	0.151762	1.083392
H413	H	0.196371	-0.454985	0.476195
H414	H	0.696371	0.045015	0.976195
C415	C	0.549297	-0.587912	0.566798
C416	C	1.049297	-0.087912	1.066798
C417	C	0.508683	-0.600571	0.587667
C418	C	1.008683	-0.100571	1.087667
C419	C	0.508641	-0.636156	0.631893
C420	C	1.008641	-0.136156	1.131893
H421	H	0.576823	-0.614922	0.562671
H422	H	1.076823	-0.114922	1.062671
H423	H	0.549283	-0.576450	0.586773
H424	H	1.049283	-0.076450	1.086773
H425	H	0.508701	-0.612035	0.567697
H426	H	1.008701	-0.112035	1.067697
H427	H	0.481151	-0.573572	0.591805
H428	H	0.981151	-0.073572	1.091805
H429	H	0.508628	-0.624693	0.651868
H430	H	1.008628	-0.124693	1.151868
H431	H	0.536169	-0.663162	0.627762
H432	H	1.036169	-0.163162	1.127762
H433	H	0.481084	-0.644746	0.646060
H434	H	0.981084	-0.144746	1.146060
H435	H	0.332093	-0.491119	0.540748
H436	H	0.832093	0.008881	1.040748
H437	H	0.422274	-0.521162	0.510626
H438	H	0.922274	-0.021162	1.010626
C439	C	-0.076236	-0.461320	0.538143
C440	C	0.423764	0.038680	1.038143
C441	C	-0.105509	-0.414973	0.521066
C442	C	0.394491	0.085027	1.021066
C443	C	-0.149755	-0.406155	0.556566
C444	C	0.350245	0.093845	1.056566
H445	H	-0.090530	-0.483227	0.546828
H446	H	0.409470	0.016773	1.046828
H447	H	-0.072099	-0.464862	0.565123
H448	H	0.427901	0.035138	1.065123
H449	H	-0.109648	-0.411435	0.494095
H450	H	0.390352	0.088565	0.994095
H451	H	-0.091231	-0.393056	0.512384
H452	H	0.408769	0.106944	1.012384
H453	H	-0.145617	-0.409698	0.583545
H454	H	0.354383	0.090302	1.083545
H455	H	-0.164044	-0.428065	0.565248
H456	H	0.335956	0.071935	1.065248
H457	H	-0.169620	-0.374707	0.544985
H458	H	0.330380	0.125293	1.044985
H459	H	-0.224299	-0.529059	0.291228
H460	H	0.275701	-0.029059	0.791228
C461	C	0.549151	-0.393352	0.470012
C462	C	1.049151	0.106648	0.970012
C463	C	0.549199	-0.410572	0.516364
C464	C	1.049199	0.089428	1.016364
C465	C	0.549159	-0.375170	0.525309
C466	C	1.049159	0.124830	1.025309
H467	H	0.576661	-0.384651	0.448127
H468	H	1.076661	0.115349	0.948127
H469	H	0.521575	-0.366357	0.466529
H470	H	1.021575	0.133643	0.966529
H471	H	0.576773	-0.437558	0.519842
H472	H	1.076773	0.062442	1.019842
H473	H	0.521692	-0.419268	0.538259
H474	H	1.021692	0.080732	1.038259
H475	H	0.521582	-0.348175	0.521826
H476	H	1.021582	0.151825	1.021826
H477	H	0.576669	-0.366472	0.503421
H478	H	1.076669	0.133528	1.003421
H479	H	0.549187	-0.386847	0.556760
H480	H	1.049187	0.113153	1.056760
H481	H	0.047765	-0.765423	0.337508
H482	H	0.547765	-0.265423	0.837508
C483	C	0.428885	-0.366474	0.448546
C484	C	0.928885	0.133526	0.948546
C485	C	0.396467	-0.320452	0.445923
C486	C	0.896467	0.179548	0.945923
C487	C	0.421218	-0.288424	0.422265
C488	C	0.921218	0.211576	0.922265
H489	H	0.448302	-0.374725	0.465435
H490	H	0.948302	0.125275	0.965435
H491	H	0.448245	-0.367711	0.417382
H492	H	0.948245	0.132289	0.917382
H493	H	0.377116	-0.319216	0.477081
H494	H	0.877116	0.180784	0.977081
H495	H	0.377049	-0.312187	0.429031
H496	H	0.877049	0.187813	0.929031
H497	H	0.440578	-0.289660	0.391101
H498	H	0.940578	0.210340	0.891101
H499	H	0.440635	-0.296678	0.439155
H500	H	0.940635	0.203322	0.939155
H501	H	0.399226	-0.257193	0.420478
H502	H	0.899226	0.242807	0.920478
H503	H	0.159477	-0.208876	0.439413
H504	H	0.659477	0.291124	0.939413
C505	C	0.325257	-0.332002	0.483112
C506	C	0.825257	0.167998	0.983112
C507	C	0.296697	-0.314938	0.456273
C508	C	0.796697	0.185062	0.956273
C509	C	0.271799	-0.266423	0.449153
C510	C	0.771799	0.233577	0.949153
H511	H	0.305845	-0.327334	0.512953
H512	H	0.805845	0.172666	1.012953
H513	H	0.347158	-0.315332	0.466635
H514	H	0.847158	0.184668	0.966635
H515	H	0.274799	-0.331603	0.472750
H516	H	0.774799	0.168397	0.972750
H517	H	0.316098	-0.319594	0.426427
H518	H	0.816098	0.180406	0.926427
H519	H	0.293700	-0.249753	0.432676
H520	H	0.793700	0.250247	0.932676
H521	H	0.252389	-0.261760	0.478996
H522	H	0.752389	0.238240	0.978996
H523	H	0.252421	-0.254838	0.430939
H524	H	0.752421	0.245162	0.930939
H525	H	0.055841	-0.118733	0.556693
H526	H	0.555841	0.381267	1.056693
C527	C	0.132682	-0.112016	0.396100
C528	C	0.632682	0.387984	0.896100
C529	C	0.161259	-0.144415	0.371339
C530	C	0.661259	0.355585	0.871339
C531	C	0.173302	-0.119637	0.322440
C532	C	0.673302	0.380363	0.822440
H533	H	0.104593	-0.092628	0.387910
H534	H	0.604593	0.407372	0.887910
H535	H	0.149566	-0.092623	0.387916
H536	H	0.649566	0.407377	0.887916
H537	H	0.144375	-0.163800	0.379520
H538	H	0.644375	0.336200	0.879520
H539	H	0.189354	-0.163805	0.379515
H540	H	0.689354	0.336195	0.879515
H541	H	0.190186	-0.100244	0.314255
H542	H	0.690186	0.399756	0.814255
H543	H	0.145211	-0.100249	0.314254
H544	H	0.645211	0.399751	0.814254
H545	H	0.192696	-0.141615	0.305633
H546	H	0.692696	0.358385	0.805633
H547	H	0.085944	-0.208923	0.586721
H548	H	0.585944	0.291077	1.086721
H549	H	-0.091873	-0.522445	0.255974
H550	H	0.408127	-0.022445	0.755974
C551	C	-0.065028	-0.479163	0.159060
C552	C	0.434972	0.020837	0.659060
C553	C	-0.114472	-0.458667	0.171068
C554	C	0.385528	0.041333	0.671068
C555	C	-0.126548	-0.409782	0.146216
C556	C	0.373452	0.090218	0.646216
H557	H	-0.053661	-0.465152	0.167222
H558	H	0.446339	0.034848	0.667222
H559	H	-0.051053	-0.473917	0.125890
H560	H	0.448947	0.026083	0.625890
H561	H	-0.128442	-0.463910	0.204230
H562	H	0.371558	0.036090	0.704230
H563	H	-0.125852	-0.472664	0.162905
H564	H	0.374148	0.027336	0.662905
H565	H	-0.112572	-0.404536	0.113046
H566	H	0.387428	0.095464	0.613046
H567	H	-0.115177	-0.395775	0.154380
H568	H	0.384823	0.104225	0.654380
H569	H	-0.160096	-0.395870	0.154356
H570	H	0.339904	0.104130	0.654356
C571	C	0.019602	-0.648597	0.159194
C572	C	0.519602	-0.148597	0.659194
C573	C	-0.005374	-0.677084	0.171248
C574	C	0.494626	-0.177084	0.671248
C575	C	0.023153	-0.709483	0.146487
C576	C	0.523153	-0.209483	0.646487
H577	H	0.027816	-0.631810	0.126015
H578	H	0.527816	-0.131810	0.626015
H579	H	0.047681	-0.668045	0.167408
H580	H	0.547681	-0.168045	0.667408
H581	H	-0.033444	-0.657638	0.163031
H582	H	0.466556	-0.157638	0.663031
H583	H	-0.013588	-0.693881	0.204423
H584	H	0.486412	-0.193881	0.704423
H585	H	0.051232	-0.728932	0.154701
H586	H	0.551232	-0.228932	0.654701
H587	H	0.031366	-0.692693	0.113309
H588	H	0.531366	-0.192693	0.613309
H589	H	0.006213	-0.728819	0.154665
H590	H	0.506213	-0.228819	0.654665
C591	C	-0.065089	-0.479157	0.325069
C592	C	0.434911	0.020843	0.825069
C593	C	-0.048097	-0.458737	0.275620
C594	C	0.451903	0.041263	0.775620
C595	C	-0.059981	-0.409855	0.263485
C596	C	0.440019	0.090145	0.763485
H597	H	-0.098623	-0.465086	0.336398
H598	H	0.401377	0.034914	0.836398
H599	H	-0.051135	-0.473919	0.339048
H600	H	0.448865	0.026081	0.839048
H601	H	-0.062053	-0.463971	0.261647
H602	H	0.437947	0.036029	0.761647
H603	H	-0.014564	-0.472794	0.264280
H604	H	0.485436	0.027206	0.764280
H605	H	-0.046026	-0.404618	0.277464
H606	H	0.453974	0.095382	0.777464
H607	H	-0.093514	-0.395789	0.274817
H608	H	0.406486	0.104211	0.774817
H609	H	-0.048449	-0.395995	0.229934
H610	H	0.451551	0.104005	0.729934
C611	C	0.019272	-0.648600	0.410000
C612	C	0.519272	-0.148600	0.910000
C613	C	0.026211	-0.694942	0.416974
C614	C	0.526211	-0.194942	0.916974
C615	C	0.054706	-0.727359	0.445640
C616	C	0.554706	-0.227359	0.945640
H617	H	0.049104	-0.643922	0.394910
H618	H	0.549104	-0.143922	0.894910
H619	H	0.004056	-0.643837	0.439812
H620	H	0.504056	-0.143837	0.939812
H621	H	0.041428	-0.699703	0.387167
H622	H	0.541428	-0.199703	0.887167
H623	H	-0.003612	-0.699635	0.432069
H624	H	0.496388	-0.199635	0.932069
H625	H	0.039490	-0.722596	0.475452
H626	H	0.539490	-0.222596	0.975452
H627	H	0.084535	-0.722676	0.430547
H628	H	0.584535	-0.222676	0.930547
H629	H	0.059414	-0.758806	0.450379
H630	H	0.559414	-0.258806	0.950379
H631	H	-0.091926	-0.522444	0.298262
H632	H	0.408074	-0.022444	0.798262
H633	H	-0.018278	-0.669778	0.256062
H634	H	0.481722	-0.169778	0.756062
H635	H	-0.018458	-0.669769	0.372051
H636	H	0.481542	-0.169769	0.872051
C637	C	-0.106919	-0.771923	0.399299
C638	C	0.393081	-0.271923	0.899299
C639	C	-0.130012	-0.759811	0.369037
C640	C	0.369988	-0.259811	0.869037
C641	C	-0.162059	-0.784524	0.392593
C642	C	0.337941	-0.284524	0.892593
H643	H	-0.090211	-0.805111	0.408212
H644	H	0.409789	-0.305111	0.908212
H645	H	-0.129707	-0.763708	0.426891
H646	H	0.370293	-0.263708	0.926891
H647	H	-0.107228	-0.768029	0.341454
H648	H	0.392772	-0.268029	0.841454
H649	H	-0.146729	-0.726627	0.360123
H650	H	0.353271	-0.226627	0.860123
H651	H	-0.184847	-0.776309	0.420186
H652	H	0.315153	-0.276309	0.920186
H653	H	-0.145347	-0.817710	0.401505
H654	H	0.354653	-0.317710	0.901505
H655	H	-0.177735	-0.776306	0.372066
H656	H	0.322265	-0.276306	0.872066
C657	C	0.026501	-0.668552	0.300951
C658	C	0.526501	-0.168552	0.800951
C659	C	0.060042	-0.680688	0.260292
C660	C	0.560042	-0.180688	0.760292
C661	C	0.092068	-0.655939	0.236658
C662	C	0.592068	-0.155939	0.736658
H663	H	0.009774	-0.635370	0.292019
H664	H	0.509774	-0.135370	0.792019
H665	H	0.042209	-0.676722	0.321431
H666	H	0.542209	-0.176722	0.821431
H667	H	0.044335	-0.672515	0.239816
H668	H	0.544335	-0.172515	0.739816
H669	H	0.076780	-0.713866	0.269210
H670	H	0.576780	-0.213866	0.769210
H671	H	0.107775	-0.664108	0.257139
H672	H	0.607775	-0.164108	0.757139
H673	H	0.075336	-0.622757	0.227730
H674	H	0.575336	-0.122757	0.727730
H675	H	0.114831	-0.664172	0.209071
H676	H	0.614831	-0.164172	0.709071
C677	C	-0.141307	-0.668253	0.364616
C678	C	0.358693	-0.168253	0.864616
C679	C	-0.147893	-0.639709	0.320491
C680	C	0.352107	-0.139709	0.820491
C681	C	-0.196357	-0.614730	0.327351
C682	C	0.303643	-0.114730	0.827351
H683	H	-0.158026	-0.690094	0.381002
H684	H	0.341974	-0.190094	0.881002
H685	H	-0.152996	-0.648823	0.382810
H686	H	0.347004	-0.148823	0.882810
H687	H	-0.136210	-0.659137	0.302304
H688	H	0.363790	-0.159137	0.802304
H689	H	-0.131186	-0.617859	0.304097
H690	H	0.368814	-0.117859	0.804097
H691	H	-0.208046	-0.595300	0.345545
H692	H	0.291954	-0.095300	0.845545
H693	H	-0.213071	-0.636574	0.343739
H694	H	0.286929	-0.136574	0.843739
H695	H	-0.200832	-0.595356	0.297414
H696	H	0.299168	-0.095356	0.797414
H697	H	-0.134345	-0.632833	0.408685
H698	H	0.365655	-0.132833	0.908685
H699	H	-0.134111	-0.559208	0.261309
H700	H	0.365889	-0.059208	0.761309
