data_functionalizedCrystal
_audit_creation_method	'MofGen! by Chris Wilmer'
_symmetry_space_group_name_H-M	'P1'
_symmetry_Int_Tables_number	1
_symmetry_cell_setting	triclinic
loop_
_symmetry_equiv_pos_as_xyz
  x,y,z
_cell_length_a	19.077105
_cell_length_b	25.639239
_cell_length_c	19.077237
_cell_angle_alpha	92.269360
_cell_angle_beta	85.486555
_cell_angle_gamma	87.734929
loop_
_atom_site_label
_atom_site_type_symbol
_atom_site_fract_x
_atom_site_fract_y
_atom_site_fract_z
Zn1	Zn	1.093599	-0.254028	-0.441820
Zn2	Zn	1.426932	0.079306	-0.108487
Zn3	Zn	1.760265	0.412639	0.224846
Zn4	Zn	1.088762	-0.337802	-0.323927
Zn5	Zn	1.422095	-0.004469	0.009406
Zn6	Zn	1.755428	0.328864	0.342739
Zn7	Zn	0.970992	-0.246722	-0.319220
Zn8	Zn	1.304326	0.086612	0.014114
Zn9	Zn	1.637659	0.419945	0.347447
Zn10	Zn	0.975650	-0.337766	-0.437044
Zn11	Zn	1.308983	-0.004432	-0.103711
Zn12	Zn	1.642316	0.328901	0.229622
O13	O	1.032251	-0.294079	-0.380503
O14	O	1.365584	0.039254	-0.047170
O15	O	1.698917	0.372587	0.286164
O16	O	1.191606	-0.268214	-0.430151
O17	O	1.524939	0.065120	-0.096817
O18	O	1.858273	0.398453	0.236516
O19	O	1.069166	-0.322678	-0.224654
O20	O	1.402499	0.010656	0.108679
O21	O	1.735832	0.343989	0.442013
O22	O	0.987332	-0.174529	-0.335511
O23	O	1.320665	0.158805	-0.002178
O24	O	1.653998	0.492138	0.331155
O25	O	1.188052	-0.329762	-0.343535
O26	O	1.521385	0.003571	-0.010202
O27	O	1.854719	0.336904	0.323131
O28	O	1.077410	-0.179897	-0.425586
O29	O	1.410743	0.153437	-0.092252
O30	O	1.744077	0.486770	0.241081
O31	O	0.982641	-0.255761	-0.221195
O32	O	1.315974	0.077572	0.112138
O33	O	1.649308	0.410905	0.445471
O34	O	0.872961	-0.255726	-0.330880
O35	O	1.206295	0.077607	0.002453
O36	O	1.539628	0.410941	0.335786
O37	O	0.995269	-0.329700	-0.536327
O38	O	1.328603	0.003633	-0.202993
O39	O	1.661936	0.336967	0.130340
O40	O	0.876383	-0.322616	-0.417445
O41	O	1.209716	0.010718	-0.084112
O42	O	1.543050	0.344051	0.249221
O43	O	1.081926	-0.268178	-0.539836
O44	O	1.415259	0.065155	-0.206502
O45	O	1.748593	0.398488	0.126831
O46	O	1.073682	-0.410959	-0.338904
O47	O	1.407015	-0.077626	-0.005571
O48	O	1.740349	0.255707	0.327763
O49	O	0.990579	-0.410933	-0.422010
O50	O	1.323912	-0.077599	-0.088677
O51	O	1.657246	0.255734	0.244656
C52	C	0.849094	-0.288374	-0.373134
C53	C	1.182427	0.044959	-0.039801
C54	C	1.515760	0.378292	0.293533
C55	C	0.770739	-0.285947	-0.369998
C56	C	1.104072	0.047386	-0.036665
C57	C	1.437406	0.380720	0.296668
C58	C	0.735725	-0.319680	-0.413524
C59	C	1.069058	0.013653	-0.080191
C60	C	1.402391	0.346986	0.253142
C61	C	0.662102	-0.317393	-0.410581
C62	C	0.995436	0.015941	-0.077248
C63	C	1.328769	0.349274	0.256085
C64	C	0.623495	-0.281374	-0.364109
C65	C	0.956829	0.051960	-0.030775
C66	C	1.290162	0.385293	0.302558
C67	C	0.658514	-0.247636	-0.320581
C68	C	0.991848	0.085697	0.012752
C69	C	1.325181	0.419030	0.346086
C70	C	0.732136	-0.249922	-0.323528
C71	C	1.065469	0.083411	0.009806
C72	C	1.398802	0.416745	0.343139
C73	C	0.403119	-0.270796	-0.350473
C74	C	0.736452	0.062537	-0.017139
C75	C	1.069785	0.395871	0.316194
C76	C	0.329492	-0.268514	-0.347528
C77	C	0.662826	0.064819	-0.014194
C78	C	0.996159	0.398153	0.319139
C79	C	0.333085	-0.338270	-0.437529
C80	C	0.666419	-0.004937	-0.104196
C81	C	0.999752	0.328397	0.229137
C82	C	0.406708	-0.340555	-0.440469
C83	C	0.740041	-0.007221	-0.107136
C84	C	1.073374	0.326112	0.226197
C85	C	0.441721	-0.306816	-0.396944
C86	C	0.775054	0.026518	-0.063611
C87	C	1.108387	0.359851	0.269722
N88	N	0.548241	-0.279036	-0.361098
N89	N	0.881575	0.054298	-0.027764
N90	N	1.214908	0.387631	0.305569
N91	N	0.516973	-0.309152	-0.399959
N92	N	0.850307	0.024182	-0.066626
N93	N	1.183640	0.357515	0.266708
C94	C	1.032131	-0.429917	-0.380466
C95	C	1.365464	-0.096584	-0.047133
C96	C	1.698797	0.236749	0.286201
C97	C	1.032145	-0.488032	-0.380476
C98	C	1.365478	-0.154699	-0.047143
C99	C	1.698812	0.178635	0.286190
C100	C	1.075643	-0.848406	-0.337311
C101	C	1.408976	-0.515073	-0.003978
C102	C	1.742310	-0.181740	0.329356
C103	C	1.075671	-0.903012	-0.337321
C104	C	1.409004	-0.569679	-0.003988
C105	C	1.742337	-0.236345	0.329345
O106	O	1.112530	-0.931253	-0.300580
O107	O	1.445863	-0.597920	0.032753
O108	O	1.779196	-0.264587	0.366086
N109	N	1.032376	-0.930324	-0.380555
N110	N	1.365710	-0.596990	-0.047221
N111	N	1.699043	-0.263657	0.286112
C112	C	0.989057	-0.903028	-0.423785
C113	C	1.322390	-0.569694	-0.090452
C114	C	1.655724	-0.236361	0.242881
O115	O	0.952235	-0.931272	-0.460560
O116	O	1.285568	-0.597939	-0.127227
O117	O	1.618901	-0.264606	0.206107
C118	C	0.989033	-0.848423	-0.423778
C119	C	1.322367	-0.515090	-0.090445
C120	C	1.655700	-0.181757	0.242889
C121	C	1.032325	-0.821114	-0.380537
C122	C	1.365659	-0.487781	-0.047203
C123	C	1.698992	-0.154447	0.286130
C124	C	1.118932	-0.821097	-0.294074
C125	C	1.452265	-0.487764	0.039260
C126	C	1.785598	-0.154430	0.372593
C127	C	1.118903	-0.766495	-0.294062
C128	C	1.452236	-0.433162	0.039271
C129	C	1.785570	-0.099829	0.372604
C130	C	1.075585	-0.739203	-0.337288
C131	C	1.408919	-0.405870	-0.003955
C132	C	1.742252	-0.072536	0.329378
C133	C	1.032296	-0.766512	-0.380525
C134	C	1.365630	-0.433179	-0.047192
C135	C	1.698963	-0.099846	0.286141
C136	C	0.945718	-0.821128	-0.467012
C137	C	1.279051	-0.487795	-0.133679
C138	C	1.612385	-0.154462	0.199655
C139	C	0.945699	-0.766520	-0.467001
C140	C	1.279032	-0.433187	-0.133668
C141	C	1.612365	-0.099854	0.199665
C142	C	0.988991	-0.739211	-0.423760
C143	C	1.322324	-0.405878	-0.090427
C144	C	1.655657	-0.072544	0.242907
C145	C	0.988950	-0.684618	-0.423740
C146	C	1.322283	-0.351285	-0.090407
C147	C	1.655616	-0.017951	0.242927
N148	N	1.032244	-0.657306	-0.380507
N149	N	1.365577	-0.323973	-0.047173
N150	N	1.698911	0.009360	0.286160
C151	C	1.075562	-0.684599	-0.337281
C152	C	1.408895	-0.351265	-0.003948
C153	C	1.742228	-0.017932	0.329386
C154	C	0.989110	-1.017700	-0.423798
C155	C	1.322444	-0.684367	-0.090465
C156	C	1.655777	-0.351033	0.242868
C157	C	0.989130	-1.072303	-0.423802
C158	C	1.322463	-0.738970	-0.090469
C159	C	1.655796	-0.405636	0.242864
C160	C	1.075745	-1.072284	-0.337339
C161	C	1.409078	-0.738950	-0.004006
C162	C	1.742411	-0.405617	0.329327
C163	C	1.075721	-1.017680	-0.337332
C164	C	1.409054	-0.684346	-0.003999
C165	C	1.742388	-0.351013	0.329335
C166	C	1.032405	-0.990388	-0.380565
C167	C	1.365738	-0.657055	-0.047232
C168	C	1.699071	-0.323722	0.286102
C169	C	1.075497	-0.569931	-0.337260
C170	C	1.408831	-0.236598	-0.003927
C171	C	1.742164	0.096736	0.329407
C172	C	1.075463	-0.515324	-0.337250
C173	C	1.408796	-0.181991	-0.003917
C174	C	1.742129	0.151342	0.329416
C175	C	0.988851	-0.515349	-0.423716
C176	C	1.322184	-0.182015	-0.090383
C177	C	1.655517	0.151318	0.242951
C178	C	0.988883	-0.569950	-0.423723
C179	C	1.322216	-0.236617	-0.090390
C180	C	1.655549	0.096716	0.242944
C181	C	1.032212	-0.597240	-0.380493
C182	C	1.365545	-0.263907	-0.047160
C183	C	1.698878	0.069426	0.286174
O184	O	0.952112	-0.656342	-0.460464
O185	O	1.285445	-0.323009	-0.127131
O186	O	1.618778	0.010325	0.206202
O187	O	1.112384	-0.656348	-0.300519
O188	O	1.445718	-0.323014	0.032814
O189	O	1.779051	0.010319	0.366147
C190	C	1.216123	-0.299807	-0.387901
C191	C	1.549456	0.033526	-0.054568
C192	C	1.882789	0.366860	0.278766
C193	C	1.294478	-0.302248	-0.391053
C194	C	1.627811	0.031086	-0.057720
C195	C	1.961145	0.364419	0.275613
C196	C	1.039657	-0.299750	-0.564375
C197	C	1.372990	0.033583	-0.231041
C198	C	1.706324	0.366917	0.102292
C199	C	1.042813	-0.302167	-0.642730
C200	C	1.376146	0.031167	-0.309397
C201	C	1.709480	0.364500	0.023937
C202	C	1.032391	-0.157712	-0.380556
C203	C	1.365724	0.175621	-0.047223
C204	C	1.699057	0.508955	0.286110
C205	C	1.032450	-0.099600	-0.380579
C206	C	1.365784	0.233733	-0.047246
C207	C	1.699117	0.567066	0.286088
C208	C	1.065454	-0.319537	-1.083981
C209	C	1.398787	0.013796	-0.750648
C210	C	1.732121	0.347130	-0.417315
C211	C	1.062478	-0.317263	-1.010358
C212	C	1.395811	0.016071	-0.677025
C213	C	1.729145	0.349404	-0.343691
C214	C	1.015946	-0.281284	-0.971753
C215	C	1.349279	0.052050	-0.638420
C216	C	1.682612	0.385383	-0.305087
C217	C	0.972381	-0.247580	-1.006776
C218	C	1.305715	0.085753	-0.673442
C219	C	1.639048	0.419087	-0.340109
C220	C	0.975354	-0.249857	-1.080398
C221	C	1.308687	0.083476	-0.747064
C222	C	1.642021	0.416810	-0.413731
C223	C	1.002221	-0.270740	-0.751374
C224	C	1.335555	0.062593	-0.418041
C225	C	1.668888	0.395927	-0.084708
C226	C	0.999253	-0.268464	-0.677747
C227	C	1.332587	0.064869	-0.344414
C228	C	1.665920	0.398202	-0.011081
C229	C	1.089350	-0.338148	-0.681335
C230	C	1.422683	-0.004815	-0.348001
C231	C	1.756016	0.328518	-0.014668
C232	C	1.092321	-0.340420	-0.754958
C233	C	1.425655	-0.007087	-0.421625
C234	C	1.758988	0.326247	-0.088291
C235	C	1.048754	-0.306718	-0.789974
C236	C	1.382088	0.026615	-0.456641
C237	C	1.715421	0.359949	-0.123307
N238	N	1.012904	-0.278957	-0.896498
N239	N	1.346238	0.054376	-0.563165
N240	N	1.679571	0.387710	-0.229832
N241	N	1.051792	-0.309048	-0.865227
N242	N	1.385126	0.024286	-0.531894
N243	N	1.718459	0.357619	-0.198561
C244	C	1.024914	-0.288394	-0.197348
C245	C	1.358247	0.044939	0.135985
C246	C	1.691580	0.378272	0.469319
C247	C	1.021894	-0.285835	-0.118999
C248	C	1.355228	0.047499	0.214335
C249	C	1.688561	0.380832	0.547668
H250	H	1.110716	-0.493091	-0.302036
H251	H	1.444049	-0.159757	0.031298
H252	H	1.777382	0.173576	0.364631
H253	H	0.760643	-0.222450	-0.288088
H254	H	1.093977	0.110884	0.045245
H255	H	1.427310	0.444217	0.378579
N256	N	1.122471	-1.101731	-0.290723
N257	N	1.455804	-0.768398	0.042610
N258	N	1.789137	-0.435064	0.375943
H259	H	1.173269	-1.094094	-0.303739
H260	H	1.506602	-0.760760	0.029595
H261	H	1.839935	-0.427427	0.362928
H262	H	1.109474	-1.090350	-0.239920
H263	H	1.442808	-0.757016	0.093414
H264	H	1.776141	-0.423683	0.426747
H265	H	1.110973	-0.995447	-0.302122
H266	H	1.444307	-0.662114	0.031212
H267	H	1.777640	-0.328781	0.364545
H268	H	1.097941	-0.344713	-0.981850
H269	H	1.431274	-0.011379	-0.648516
H270	H	1.764607	0.321954	-0.315183
N271	N	0.295325	-0.374654	-0.484480
N272	N	0.628658	-0.041321	-0.151147
N273	N	0.961992	0.292013	0.182187
H274	H	0.307660	-0.412054	-0.473952
H275	H	0.640993	-0.078721	-0.140619
H276	H	0.974327	0.254612	0.192715
H277	H	0.242840	-0.367698	-0.475544
H278	H	0.576173	-0.034365	-0.142211
H279	H	0.909506	0.298969	0.191123
N280	N	0.922197	-0.208770	-0.965139
N281	N	1.255531	0.124563	-0.631806
N282	N	1.588864	0.457896	-0.298473
H283	H	0.895053	-0.187766	-0.998496
H284	H	1.228386	0.145567	-0.665163
H285	H	1.561720	0.478901	-0.331830
H286	H	0.888317	-0.228088	-0.933270
H287	H	1.221650	0.105245	-0.599936
H288	H	1.554984	0.438579	-0.266603
H289	H	0.953870	-1.094533	-0.459007
H290	H	1.287204	-0.761200	-0.125674
H291	H	1.620537	-0.427867	0.207660
H292	H	0.298060	-0.239177	-0.309688
H293	H	0.631394	0.094156	0.023645
H294	H	0.964727	0.427490	0.356979
H295	H	0.953580	-0.493119	-0.458908
H296	H	1.286913	-0.159785	-0.125574
H297	H	1.620246	0.173548	0.207759
H298	H	1.130212	-0.369718	-0.786385
H299	H	1.463546	-0.036385	-0.453052
H300	H	1.796879	0.296948	-0.119718
H301	H	0.939884	-0.222412	-1.108908
H302	H	1.273217	0.110921	-0.775574
H303	H	1.606550	0.444254	-0.442241
N304	N	0.440878	-0.234400	-0.303541
N305	N	0.774211	0.098933	0.029792
N306	N	1.107544	0.432267	0.363125
H307	H	0.405247	-0.211235	-0.273657
H308	H	0.738580	0.122098	0.059676
H309	H	1.071914	0.455431	0.393010
H310	H	0.470091	-0.255574	-0.272083
H311	H	0.803425	0.077759	0.061250
H312	H	1.136758	0.411093	0.394584
H313	H	0.627075	-0.218307	-0.282745
H314	H	0.960408	0.115027	0.050589
H315	H	1.293741	0.448360	0.383922
N316	N	1.115647	-0.358341	-1.125617
N317	N	1.448980	-0.025007	-0.792284
N318	N	1.782314	0.308326	-0.458950
H319	H	1.142789	-0.379346	-1.092259
H320	H	1.476122	-0.046013	-0.758925
H321	H	1.809455	0.287321	-0.425592
H322	H	1.088159	-0.382585	-1.154999
H323	H	1.421492	-0.049252	-0.821665
H324	H	1.754825	0.284082	-0.488332
N325	N	0.955257	-0.234382	-0.789148
N326	N	1.288591	0.098951	-0.455814
N327	N	1.621924	0.432285	-0.122481
H328	H	0.923795	-0.255547	-0.818376
H329	H	1.257129	0.077786	-0.485042
H330	H	1.590462	0.411119	-0.151709
H331	H	0.925377	-0.211244	-0.753485
H332	H	1.258710	0.122090	-0.420152
H333	H	1.592044	0.455423	-0.086818
N334	N	0.942375	-0.988264	-0.470417
N335	N	1.275709	-0.654930	-0.137084
N336	N	1.609042	-0.321597	0.196250
H337	H	0.972297	-0.967476	-0.504262
H338	H	1.305630	-0.634142	-0.170929
H339	H	1.638963	-0.300809	0.162404
H340	H	0.914960	-1.013885	-0.497755
H341	H	1.248294	-0.680552	-0.164421
H342	H	1.581627	-0.347219	0.168912
H343	H	0.910426	-0.744303	-0.502209
H344	H	1.243759	-0.410969	-0.168876
H345	H	1.577093	-0.077636	0.164457
H346	H	1.124819	-0.365587	-0.652817
H347	H	1.458152	-0.032253	-0.319483
H348	H	1.791485	0.301080	0.013850
H349	H	0.910462	-0.843354	-0.502220
H350	H	1.243795	-0.510021	-0.168887
H351	H	1.577128	-0.176687	0.164447
N352	N	1.122230	-0.599361	-0.290635
N353	N	1.455563	-0.266027	0.042698
N354	N	1.788897	0.067306	0.376031
H355	H	1.149644	-0.573768	-0.263246
H356	H	1.482978	-0.240435	0.070088
H357	H	1.816311	0.092899	0.403421
H358	H	1.092259	-0.620149	-0.256837
H359	H	1.425592	-0.286816	0.076496
H360	H	1.758925	0.046518	0.409830
N361	N	0.942183	-0.599409	-0.470352
N362	N	1.275516	-0.266076	-0.137019
N363	N	1.608850	0.067258	0.196315
H364	H	0.914735	-0.573831	-0.497731
H365	H	1.248069	-0.240498	-0.164398
H366	H	1.581402	0.092835	0.168936
H367	H	0.972180	-0.623928	-0.504159
H368	H	1.305514	-0.290595	-0.170826
H369	H	1.638847	0.042738	0.162507
N370	N	1.165607	-0.737045	-0.247435
N371	N	1.498941	-0.403711	0.085899
N372	N	1.832274	-0.070378	0.419232
H373	H	1.193054	-0.762627	-0.220061
H374	H	1.526387	-0.429294	0.113272
H375	H	1.859720	-0.095960	0.446606
H376	H	1.199354	-0.716261	-0.277472
H377	H	1.532687	-0.382928	0.055861
H378	H	1.866020	-0.049594	0.389195
H379	H	1.154210	-0.843313	-0.258874
H380	H	1.487543	-0.509980	0.074459
H381	H	1.820877	-0.176646	0.407793
N382	N	0.949060	-0.229658	-0.636107
N383	N	1.282394	0.103675	-0.302773
N384	N	1.615727	0.437009	0.030560
H385	H	0.921910	-0.208655	-0.669460
H386	H	1.255243	0.124679	-0.336126
H387	H	1.588576	0.458012	-0.002793
H388	H	0.915186	-0.248982	-0.604238
H389	H	1.248520	0.084351	-0.270905
H390	H	1.581853	0.417685	0.062428
H391	H	0.633597	-0.344863	-0.446024
H392	H	0.966931	-0.011529	-0.112691
H393	H	1.300264	0.321804	0.220643
N394	N	0.777363	-0.358534	-0.463644
N395	N	1.110696	-0.025200	-0.130311
N396	N	1.444029	0.308133	0.203023
H397	H	0.744007	-0.379556	-0.490771
H398	H	1.077340	-0.046222	-0.157438
H399	H	1.410674	0.287111	0.175895
H400	H	0.809250	-0.339246	-0.497544
H401	H	1.142584	-0.005913	-0.164210
H402	H	1.475917	0.327420	0.169123
H403	H	0.438137	-0.369886	-0.478311
H404	H	0.771470	-0.036553	-0.144977
H405	H	1.104803	0.296780	0.188356
