data_functionalizedCrystal
_audit_creation_method	'MofGen! by Chris Wilmer'
_symmetry_space_group_name_H-M	'P1'
_symmetry_Int_Tables_number	1
_symmetry_cell_setting	triclinic
loop_
_symmetry_equiv_pos_as_xyz
  x,y,z
_cell_length_a	18.215407
_cell_length_b	12.594516
_cell_length_c	18.215399
_cell_angle_alpha	90.023782
_cell_angle_beta	90.017368
_cell_angle_gamma	90.009259
loop_
_atom_site_label
_atom_site_type_symbol
_atom_site_fract_x
_atom_site_fract_y
_atom_site_fract_z
Zn1	Zn	1.125139	-0.423826	0.416089
Zn2	Zn	1.125075	-0.601823	0.293031
Zn3	Zn	1.002071	-0.423851	0.293041
Zn4	Zn	1.002065	-0.601755	0.416062
O5	O	1.063588	-0.512814	0.354556
O6	O	1.228115	-0.447455	0.399772
O7	O	1.108734	-0.578254	0.190048
O8	O	1.018426	-0.274902	0.309379
O9	O	1.228068	-0.578229	0.309362
O10	O	1.108843	-0.274883	0.399782
O11	O	1.018364	-0.447499	0.190056
O12	O	0.899086	-0.447432	0.309353
O13	O	1.018415	-0.578113	0.519050
O14	O	0.899082	-0.578137	0.399736
O15	O	1.108837	-0.447389	0.519069
O16	O	1.108729	-0.750760	0.309336
O17	O	1.018354	-0.750709	0.399726
C18	C	0.872381	-0.512781	0.354543
C19	C	0.790583	-0.512793	0.354555
C20	C	0.602412	-0.444839	0.401706
C21	C	0.525553	-0.444848	0.401708
C22	C	0.525515	-0.580818	0.307419
C23	C	0.602373	-0.580803	0.307413
C24	C	0.640819	-0.512815	0.354561
C25	C	0.487103	-0.512839	0.354569
C26	C	0.403769	-0.512850	0.354571
C27	C	0.724158	-0.512803	0.354558
C28	C	1.063554	-0.789355	0.354543
C29	C	1.063606	-0.907660	0.354562
C30	C	1.112818	-0.976902	0.305452
C31	C	1.130801	-1.047606	0.372622
C32	C	1.045716	-1.047754	0.287435
C33	C	1.081623	-0.976806	0.421768
C34	C	0.996507	-0.976948	0.336535
C35	C	1.014464	-1.047621	0.403752
C36	C	1.255541	-0.512847	0.354569
C37	C	1.337339	-0.512862	0.354575
C38	C	1.063632	-0.512740	0.546509
C39	C	1.063652	-0.512709	0.628308
C40	C	1.063642	-0.235193	0.354585
C41	C	1.063665	-0.116887	0.354597
C42	C	1.063585	-0.512810	0.163350
C43	C	1.063709	-0.512541	0.081551
C44	C	1.110751	-0.444578	0.816513
C45	C	1.110760	-0.444546	0.893372
C46	C	1.016604	-0.580676	0.893340
C47	C	1.016592	-0.580701	0.816483
C48	C	1.063670	-0.512653	0.778071
C49	C	1.063691	-0.512597	0.931788
C50	C	1.063700	-0.512564	1.015121
C51	C	1.063660	-0.512685	0.694732
H52	H	1.154442	-0.945849	0.263958
H53	H	1.096723	-0.945775	0.478600
O54	O	1.156448	-0.378568	0.779086
C55	C	1.198121	-0.318213	0.660699
C56	C	1.146346	-0.393047	0.702990
H57	H	1.189960	-0.329877	0.599168
H58	H	1.257479	-0.336898	0.675761
H59	H	1.185215	-0.232396	0.675867
H60	H	1.159186	-0.478889	0.687845
H61	H	1.087003	-0.374271	0.687925
H62	H	0.939753	-0.945885	0.321248
H63	H	1.030559	-1.078918	0.230651
O64	O	1.198569	-1.084596	0.390716
C65	C	1.327030	-1.090479	0.359431
C66	C	1.250321	-1.048544	0.338853
H67	H	1.368895	-1.061329	0.317519
H68	H	1.326310	-1.180991	0.359761
H69	H	1.342681	-1.060101	0.416285
H70	H	1.234623	-1.078844	0.281994
H71	H	1.251083	-0.958034	0.338572
O72	O	0.964854	-1.084620	0.453314
C73	C	0.908813	-1.238326	0.508632
C74	C	0.965003	-1.196566	0.452463
H75	H	0.908927	-1.328838	0.507974
H76	H	0.851733	-1.208089	0.493744
H77	H	0.924221	-1.208955	0.565805
H78	H	0.949665	-1.225919	0.395271
H79	H	1.022069	-1.226794	0.467415
H80	H	0.978248	-0.636135	0.785182
O81	O	0.639793	-0.378944	0.447576
C82	C	0.726637	-0.364779	0.546917
C83	C	0.684339	-0.439530	0.495027
H84	H	0.762674	-0.413732	0.585283
H85	H	0.686015	-0.316213	0.580666
H86	H	0.762576	-0.309037	0.513174
H87	H	0.648399	-0.495337	0.528712
H88	H	0.725001	-0.488022	0.461275
H89	H	1.149097	-0.389111	0.924668
H90	H	0.494285	-0.389493	0.440097
O91	O	0.970948	-0.646745	0.930768
C92	C	0.929207	-0.706994	1.049157
C93	C	0.980961	-0.632132	1.006864
H94	H	0.937273	-0.695190	1.110687
H95	H	0.942114	-0.792850	1.034090
H96	H	0.869874	-0.688311	1.033995
H97	H	1.040311	-0.650719	1.022002
H98	H	0.967991	-0.546299	1.021934
H99	H	0.494203	-0.636173	0.269034
H100	H	0.633645	-0.636159	0.269019
