data_functionalizedCrystal
_audit_creation_method	'MofGen! by Chris Wilmer'
_symmetry_space_group_name_H-M	'P1'
_symmetry_Int_Tables_number	1
_symmetry_cell_setting	triclinic
loop_
_symmetry_equiv_pos_as_xyz
  x,y,z
_cell_length_a	19.121063
_cell_length_b	19.121379
_cell_length_c	12.594509
_cell_angle_alpha	92.413949
_cell_angle_beta	87.594190
_cell_angle_gamma	85.198622
loop_
_atom_site_label
_atom_site_type_symbol
_atom_site_fract_x
_atom_site_fract_y
_atom_site_fract_z
Zn1	Zn	-0.234237	-1.063718	0.548370
Zn2	Zn	-0.351918	-1.058602	0.378306
Zn3	Zn	-0.239284	-0.946050	0.378311
Zn4	Zn	-0.356884	-0.940998	0.564139
O5	O	-0.295581	-1.002342	0.467282
O6	O	-0.245656	-1.161502	0.519209
O7	O	-0.337011	-1.043645	0.229365
O8	O	-0.140149	-0.965915	0.394273
O9	O	-0.332116	-1.157743	0.394264
O10	O	-0.136440	-1.052365	0.519214
O11	O	-0.254259	-0.960954	0.229369
O12	O	-0.259075	-0.846918	0.409563
O13	O	-0.340580	-0.957304	0.710989
O14	O	-0.345475	-0.843207	0.546090
O15	O	-0.250472	-1.047466	0.699404
O16	O	-0.451042	-1.038747	0.409555
O17	O	-0.454691	-0.952343	0.546085
C18	C	-0.303362	-0.819532	0.479539
C19	C	-0.306708	-0.741325	0.484809
C20	C	-0.263228	-0.706497	0.416310
C21	C	-0.266378	-0.633013	0.421262
C22	C	-0.313004	-0.594357	0.494719
C23	C	-0.356489	-0.629189	0.563221
C24	C	-0.353342	-0.702672	0.558264
C25	C	-0.324763	-0.372389	0.513235
C26	C	-0.327905	-0.298901	0.518190
C27	C	-0.237794	-0.302730	0.376229
C28	C	-0.234649	-0.376214	0.371282
C29	C	-0.278136	-0.411040	0.439780
C30	C	-0.316224	-0.519244	0.499785
C31	C	-0.274920	-0.486152	0.434709
C32	C	-0.478397	-0.994461	0.479553
C33	C	-0.556604	-0.991153	0.484833
C34	C	-0.591421	-1.034620	0.416284
C35	C	-0.664904	-1.031514	0.421257
C36	C	-0.703569	-0.984936	0.494774
C37	C	-0.668747	-0.941468	0.563331
C38	C	-0.595265	-0.944579	0.558363
C39	C	-0.925535	-0.973296	0.513333
C40	C	-0.999022	-0.970187	0.518294
C41	C	-0.995175	-1.060234	0.376221
C42	C	-0.921691	-1.063337	0.371255
C43	C	-0.886875	-1.019872	0.439815
C44	C	-0.778682	-0.981759	0.499856
C45	C	-0.811764	-1.023054	0.434737
C46	C	-0.112050	-1.010274	0.454985
C47	C	-0.033840	-1.013654	0.449745
C48	C	-0.295517	-1.002392	0.744896
C49	C	-0.295490	-1.002413	0.863198
C50	C	-0.287765	-0.185866	0.454966
C51	C	-0.284425	-0.264074	0.449691
C52	C	-0.295591	-1.002335	0.190742
C53	C	-0.295414	-1.002459	0.072418
C54	C	-0.344472	-0.953390	0.938750
C55	C	-0.358927	-1.016856	1.006380
C56	C	-0.280991	-0.938999	1.006361
C57	C	-0.309977	-1.065911	0.929270
C58	C	-0.232012	-0.988013	0.929246
C59	C	-0.246441	-1.051524	0.996839
H60	H	-0.365873	-0.267429	0.578014
O61	O	-0.167974	-0.973514	0.889034
C62	C	-0.116237	-1.024612	0.919988
H63	H	-0.135956	-1.049840	0.994716
H64	H	-0.066096	-0.998671	0.937096
H65	H	-0.104822	-1.066642	0.853184
H66	H	-0.394456	-0.597710	0.623027
H67	H	-0.354186	-0.487762	0.559595
H68	H	-0.268758	-0.885352	1.040122
H69	H	-0.385956	-0.911962	0.913037
O70	O	-0.395603	-0.736396	0.624916
C71	C	-0.437444	-0.686522	0.690798
H72	H	-0.410869	-0.635380	0.696157
H73	H	-0.444108	-0.707458	0.773714
H74	H	-0.491187	-0.676398	0.655800
O75	O	-0.706378	-0.896318	0.634797
C76	C	-0.747098	-0.934556	0.703792
H77	H	-0.755807	-0.987427	0.663484
H78	H	-0.800009	-0.903702	0.723434
H79	H	-0.718405	-0.943459	0.780246
O80	O	-0.324670	-1.129877	0.888990
C81	C	-0.324545	-1.129076	0.777092
H82	H	-0.334767	-1.072661	0.752082
H83	H	-0.367474	-1.161687	0.746851
H84	H	-0.271296	-1.152232	0.741858
O85	O	-0.422926	-1.031516	1.046557
C86	C	-0.438554	-1.097925	1.005702
H87	H	-0.406925	-1.111423	0.927723
H88	H	-0.497040	-1.096696	0.990860
H89	H	-0.424337	-1.139353	1.065483
H90	H	-0.780281	-1.060979	0.374883
H91	H	-0.566917	-0.909184	0.614184
H92	H	-0.810171	-0.943834	0.559713
H93	H	-0.202390	-0.274367	0.320461
H94	H	-0.225254	-0.737966	0.356502
O95	O	-0.197058	-1.101148	1.027236
C96	C	-0.212561	-1.167903	0.987649
H97	H	-0.270890	-1.166714	0.971726
H98	H	-0.199016	-1.208651	1.048741
H99	H	-0.180313	-1.182326	0.910472
O100	O	-0.366897	-0.406292	0.579826
C101	C	-0.325070	-0.450525	0.643137
H102	H	-0.271249	-0.463820	0.601400
H103	H	-0.351533	-0.500967	0.655782
H104	H	-0.318606	-0.422556	0.723421
H105	H	-0.236959	-0.517628	0.374897
O106	O	-0.553971	-1.079926	0.344834
C107	C	-0.600463	-1.117611	0.285381
H108	H	-0.652716	-1.117816	0.332360
H109	H	-0.576829	-1.173953	0.268936
H110	H	-0.609440	-1.091539	0.206772
H111	H	-0.230976	-0.604660	0.365477
H112	H	-0.196685	-0.407683	0.311459
O113	O	-1.036475	-0.924926	0.589815
C114	C	-0.989990	-0.887218	0.649248
H115	H	-0.936354	-0.918253	0.647494
H116	H	-1.011510	-0.878793	0.735038
H117	H	-0.984517	-0.834118	0.613276
O118	O	-1.028886	-1.102486	0.309524
C119	C	-0.979000	-1.144276	0.243592
H120	H	-0.927875	-1.117672	0.238263
H121	H	-0.999946	-1.150916	0.160673
H122	H	-0.968842	-1.198032	0.278525
H123	H	-0.890211	-1.101264	0.311391
O124	O	-0.698858	-1.073684	0.354769
C125	C	-0.743199	-1.031930	0.291515
H126	H	-0.756459	-0.978079	0.333184
H127	H	-0.793652	-1.058421	0.279081
H128	H	-0.715342	-1.025524	0.211133
H129	H	-0.897194	-0.937903	0.569156
