data_functionalizedCrystal
_audit_creation_method	'MofGen! by Chris Wilmer'
_symmetry_space_group_name_H-M	'P1'
_symmetry_Int_Tables_number	1
_symmetry_cell_setting	triclinic
loop_
_symmetry_equiv_pos_as_xyz
  x,y,z
_cell_length_a	19.188930
_cell_length_b	17.666332
_cell_length_c	19.188930
_cell_angle_alpha	89.989658
_cell_angle_beta	96.855221
_cell_angle_gamma	90.023133
loop_
_atom_site_label
_atom_site_type_symbol
_atom_site_fract_x
_atom_site_fract_y
_atom_site_fract_z
O1	O	0.926150	0.063200	-0.087168
O2	O	0.722838	0.063149	-0.098902
O3	O	0.830361	0.063161	0.008621
O4	O	0.818627	0.063188	-0.194690
O5	O	0.830342	-0.062735	0.008624
O6	O	0.722819	-0.062747	-0.098899
O7	O	0.926131	-0.062697	-0.087164
Cu8	Cu	0.824473	-0.074217	-0.093031
Cu9	Cu	0.824496	0.074670	-0.093035
O10	O	0.818608	-0.062709	-0.194687
C11	C	0.696818	0.000194	-0.098520
C12	C	0.619313	0.000174	-0.097380
N13	N	0.824463	-0.178937	-0.093028
C14	C	0.574389	0.000194	-0.160470
C15	C	0.501566	0.000203	-0.159399
C16	C	0.473669	0.000206	-0.095233
C17	C	0.518603	0.000181	-0.032133
C18	C	0.591425	0.000166	-0.033207
N19	N	0.365695	0.043078	-0.046187
N20	N	0.296517	0.043095	-0.045171
C21	C	0.254260	0.000252	-0.091994
N22	N	0.283795	-0.042599	-0.139882
N23	N	0.352979	-0.042612	-0.140900
C24	C	0.394707	0.000222	-0.094062
C25	C	0.130372	0.000280	-0.153928
C26	C	0.057547	0.000283	-0.152853
C27	C	0.074586	0.000270	-0.025586
C28	C	0.147409	0.000258	-0.026662
C29	C	0.175298	0.000267	-0.090835
C30	C	0.866672	-0.218523	-0.135274
C31	C	0.866683	-0.297771	-0.135272
C32	C	0.824472	-0.337429	-0.093032
C33	C	0.782261	-0.297833	-0.050778
C34	C	0.782256	-0.218587	-0.050776
N35	N	0.763324	-0.461884	-0.091312
N36	N	0.763330	-0.537165	-0.091318
C37	C	0.824485	-0.576193	-0.093035
N38	N	0.885634	-0.537097	-0.094759
N39	N	0.885627	-0.461809	-0.094757
C40	C	0.824473	-0.423358	-0.093029
C41	C	0.866710	-0.701709	-0.135280
C42	C	0.866722	-0.780958	-0.135273
C43	C	0.782293	-0.781018	-0.050784
C44	C	0.782287	-0.701771	-0.050787
C45	C	0.824494	-0.662121	-0.093039
C46	C	0.952151	0.000260	-0.087546
C47	C	1.029656	0.000285	-0.088687
C48	C	0.829972	0.000211	0.034634
C49	C	0.828831	0.000204	0.112138
N50	N	0.824512	0.179390	-0.093032
C51	C	0.818997	0.000244	-0.220700
C52	C	0.820138	0.000255	-0.298204
C53	C	0.891922	0.000216	0.157062
C54	C	0.890850	0.000228	0.229886
C55	C	0.826684	0.000212	0.257782
C56	C	0.763585	0.000205	0.212849
C57	C	0.764658	0.000200	0.140026
N58	N	0.777630	-0.042645	0.365788
N59	N	0.776615	-0.042642	0.434967
C60	C	0.823446	0.000227	0.477191
N61	N	0.871341	0.043084	0.447624
N62	N	0.872359	0.043079	0.378440
C63	C	0.825513	0.000218	0.336745
C64	C	0.885379	0.000253	0.601079
C65	C	0.884305	0.000270	0.673904
C66	C	0.757038	0.000239	0.656865
C67	C	0.758114	0.000230	0.584042
C68	C	0.822287	0.000233	0.556154
H69	H	0.597091	0.000203	-0.212725
H70	H	0.747883	-0.186356	-0.016374
C71	C	0.649979	0.064914	0.547092
C72	C	0.688760	0.000205	0.534659
H73	H	0.607159	0.064896	0.516607
H74	H	0.676305	0.108814	0.538642
H75	H	0.640164	0.064907	0.594456
H76	H	0.698580	0.000215	0.487295
H77	H	0.662429	-0.043707	0.543103
H78	H	0.183988	0.000246	0.024713
H79	H	0.495885	0.000194	0.020111
H80	H	0.711340	0.000194	0.235567
H81	H	0.901077	-0.669424	-0.169684
H82	H	0.704792	0.000230	0.679578
C83	C	0.960417	-0.064457	0.529090
C84	C	0.955917	0.000267	0.570422
H85	H	1.003967	-0.064448	0.510170
H86	H	0.923001	-0.064465	0.491911
H87	H	0.957346	-0.108352	0.557163
H88	H	0.958983	0.044162	0.542347
H89	H	0.993343	0.000283	0.607605
C90	C	0.492031	0.000242	-0.285304
C91	C	0.452173	0.000235	-0.228753
H92	H	0.461538	0.000269	-0.328119
H93	H	0.520758	-0.043668	-0.283085
H94	H	0.520819	0.044138	-0.283066
H95	H	0.423388	-0.043664	-0.230988
H96	H	0.423434	0.044150	-0.230973
C97	C	0.992467	0.065004	0.710822
C98	C	0.953662	0.000284	0.723286
H99	H	1.035287	0.065008	0.741306
H100	H	0.966158	0.108896	0.719251
H101	H	1.002281	0.064990	0.663457
H102	H	0.943843	0.000300	0.770649
H103	H	0.979976	-0.043620	0.714862
C104	C	0.600951	0.000156	0.092697
C105	C	0.640811	0.000152	0.036148
H106	H	0.631442	0.000154	0.135513
H107	H	0.572174	-0.043740	0.090473
H108	H	0.572212	0.044066	0.090463
H109	H	0.669546	-0.043761	0.038380
H110	H	0.669599	0.044053	0.038374
H111	H	0.747893	-0.330128	-0.016386
H112	H	0.944176	0.000222	0.134360
H113	H	0.747925	-0.813307	-0.016391
H114	H	0.153080	0.000276	-0.206181
H115	H	0.901099	-0.813188	-0.169672
H116	H	0.942228	0.000241	0.266470
C117	C	-0.034196	0.065032	-0.225470
C118	C	0.008163	0.000307	-0.222208
H119	H	-0.064687	0.065044	-0.268287
H120	H	-0.005410	0.108921	-0.223243
H121	H	-0.061228	0.065019	-0.187099
H122	H	0.035198	0.000322	-0.260578
H123	H	-0.020627	-0.043593	-0.224443
H124	H	0.051874	0.000319	0.026659
H125	H	0.747913	-0.669539	-0.016389
H126	H	0.901043	-0.186245	-0.169676
H127	H	0.901055	-0.330008	-0.169675
C128	C	0.709798	0.000183	0.020832
C129	C	0.695304	0.000185	0.090640
H130	H	0.666980	0.000177	-0.009657
H131	H	0.736105	-0.043714	0.012412
H132	H	0.736128	0.044092	0.012395
H133	H	0.668978	-0.043728	0.099078
H134	H	0.668986	0.044086	0.099063
