data_functionalizedCrystal
_audit_creation_method	'MofGen! by Chris Wilmer'
_symmetry_space_group_name_H-M	'P1'
_symmetry_Int_Tables_number	1
_symmetry_cell_setting	triclinic
loop_
_symmetry_equiv_pos_as_xyz
  x,y,z
_cell_length_a	17.699083
_cell_length_b	18.366186
_cell_length_c	17.699083
_cell_angle_alpha	90.002446
_cell_angle_beta	83.283015
_cell_angle_gamma	90.000344
loop_
_atom_site_label
_atom_site_type_symbol
_atom_site_fract_x
_atom_site_fract_y
_atom_site_fract_z
O1	O	1.004078	0.060449	0.095707
O2	O	0.783700	0.060473	0.108160
O3	O	0.900115	0.060454	-0.008256
O4	O	0.887663	0.060468	0.212123
O5	O	0.900100	-0.060645	-0.008252
O6	O	0.783685	-0.060626	0.108164
O7	O	1.004063	-0.060650	0.095711
Zn8	Zn	0.893872	-0.079865	0.101938
Zn9	Zn	0.893891	0.079688	0.101933
O10	O	0.887648	-0.060631	0.212127
C11	C	0.755495	-0.000074	0.107716
C12	C	0.671477	-0.000065	0.106377
N13	N	0.893864	-0.188757	0.101941
C14	C	0.939722	-0.773308	0.147764
C15	C	0.939714	-0.697081	0.147771
C16	C	0.893899	-0.658968	0.101925
C17	C	0.848073	-0.697089	0.056082
C18	C	0.848076	-0.773316	0.056082
C19	C	0.891929	-0.538206	0.033683
C20	C	0.891931	-0.461981	0.033682
C21	C	0.893884	-0.423860	0.101927
C22	C	0.895850	-0.461975	0.170174
C23	C	0.895854	-0.538201	0.170173
C24	C	0.893889	-0.576313	0.101920
C25	C	0.939694	-0.303093	0.147778
C26	C	0.939681	-0.226864	0.147787
C27	C	0.848044	-0.226874	0.056091
C28	C	0.848052	-0.303102	0.056089
C29	C	0.893882	-0.341207	0.101932
C30	C	0.622856	-0.000060	0.174710
C31	C	0.543913	-0.000070	0.173448
C32	C	0.513592	-0.000078	0.103852
C33	C	0.562219	-0.000085	0.035513
C34	C	0.641161	-0.000081	0.036776
C35	C	0.243856	-0.000103	0.030418
C36	C	0.164908	-0.000105	0.029160
C37	C	0.146608	-0.000093	0.167090
C38	C	0.225550	-0.000088	0.168353
C39	C	0.274170	-0.000098	0.100015
C40	C	0.359769	-0.000090	0.101384
C41	C	0.427995	-0.000082	0.102481
C42	C	1.032268	-0.000102	0.096156
C43	C	1.116286	-0.000106	0.097494
C44	C	0.899662	-0.000096	-0.036451
C45	C	0.898323	-0.000096	-0.120469
N46	N	0.893905	0.188579	0.101924
C47	C	0.966656	-0.000104	-0.169090
C48	C	0.965394	-0.000098	-0.248033
C49	C	0.895798	-0.000088	-0.278354
C50	C	0.827459	-0.000077	-0.229727
C51	C	0.828722	-0.000079	-0.150785
C52	C	0.822364	-0.000071	-0.548090
C53	C	0.821106	-0.000072	-0.627038
C54	C	0.959036	-0.000090	-0.645338
C55	C	0.960299	-0.000091	-0.566396
C56	C	0.891961	-0.000077	-0.517776
C57	C	0.893330	-0.000083	-0.432177
C58	C	0.894427	-0.000087	-0.363951
C59	C	0.888102	-0.000080	0.240322
C60	C	0.889440	-0.000075	0.324340
H61	H	0.977039	-0.804329	0.185094
H62	H	0.770792	-0.000065	-0.254420
H63	H	0.766718	-0.000059	-0.508512
O64	O	0.755021	-0.000077	-0.098338
H65	H	0.706413	-0.000079	-0.132682
O66	O	0.491473	-0.000062	0.247152
H67	H	0.455078	-0.049426	0.249884
H68	H	0.140225	-0.000113	-0.027517
H69	H	0.977023	-0.666044	0.185103
O70	O	0.296290	-0.000107	-0.043287
H71	H	0.332689	-0.049468	-0.046013
H72	H	0.647537	-0.000053	0.231384
O73	O	0.897971	-0.579313	0.243775
H74	H	0.899325	-0.540006	0.291234
H75	H	0.250232	-0.000078	0.225025
H76	H	0.107012	-0.000088	0.222734
O77	O	0.897950	-0.420873	0.243790
H78	H	0.897607	-0.361466	0.232330
O79	O	0.989111	-0.344201	0.197229
H80	H	1.020959	-0.304889	0.229117
O81	O	0.989095	-0.185751	0.197235
H82	H	1.020965	-0.225057	0.229106
H83	H	0.537526	-0.000102	-0.021154
O84	O	0.693608	-0.000083	-0.036925
H85	H	0.659264	-0.000083	-0.085533
H86	H	1.016971	-0.000103	-0.541714
O87	O	1.041722	-0.000108	-0.136387
H88	H	1.089025	-0.000103	-0.183462
H89	H	1.021038	-0.000106	-0.287618
O90	O	1.032749	-0.000099	-0.697777
H91	H	1.020183	-0.000089	-0.757765
H92	H	0.764429	-0.000065	-0.651721
H93	H	0.810735	-0.195844	0.018767
O94	O	0.798658	-0.344202	0.006613
H95	H	0.738134	-0.329573	0.023138
O96	O	0.889806	-0.420879	-0.039926
H97	H	0.837307	-0.435513	-0.065150
O98	O	0.889827	-0.579320	-0.039929
H99	H	0.888473	-0.540013	-0.087385
O100	O	0.798693	-0.655989	0.006594
H101	H	0.806407	-0.596580	0.014276
O102	O	0.798683	-0.814430	0.006614
H103	H	0.766830	-0.775125	-0.025276
