data_functionalizedCrystal
_audit_creation_method	'MofGen! by Chris Wilmer'
_symmetry_space_group_name_H-M	'P1'
_symmetry_Int_Tables_number	1
_symmetry_cell_setting	triclinic
loop_
_symmetry_equiv_pos_as_xyz
  x,y,z
_cell_length_a	18.215407
_cell_length_b	12.759394
_cell_length_c	12.759387
_cell_angle_alpha	89.968340
_cell_angle_beta	89.976959
_cell_angle_gamma	90.015285
loop_
_atom_site_label
_atom_site_type_symbol
_atom_site_fract_x
_atom_site_fract_y
_atom_site_fract_z
Zn1	Zn	1.125147	-0.418198	-0.594070
Zn2	Zn	1.625147	0.081802	-0.094070
Zn3	Zn	1.125070	-0.593916	-0.418388
Zn4	Zn	1.625070	-0.093916	0.081612
Zn5	Zn	1.002072	-0.418252	-0.418399
Zn6	Zn	1.502072	0.081748	0.081601
Zn7	Zn	1.002067	-0.593837	-0.594019
Zn8	Zn	1.502067	-0.093837	-0.094019
O9	O	1.063589	-0.506051	-0.506219
O10	O	1.563589	-0.006051	-0.006219
O11	O	1.228121	-0.441518	-0.570782
O12	O	1.728121	0.058482	-0.070782
O13	O	1.108724	-0.570669	-0.271368
O14	O	1.608724	-0.070669	0.228632
O15	O	1.018433	-0.271224	-0.441728
O16	O	1.518433	0.228776	0.058272
O17	O	1.228064	-0.570616	-0.441709
O18	O	1.728064	-0.070616	0.058291
O19	O	1.108855	-0.271185	-0.570793
O20	O	1.608855	0.228815	-0.070793
O21	O	1.018358	-0.441610	-0.271376
O22	O	1.518358	0.058390	0.228624
O23	O	0.899087	-0.441534	-0.441679
O24	O	1.399087	0.058466	0.058321
O25	O	1.018423	-0.570483	-0.741047
O26	O	1.518423	-0.070483	-0.241047
O27	O	0.899083	-0.570536	-0.570706
O28	O	1.399083	-0.070536	-0.070706
O29	O	1.108850	-0.441442	-0.741084
O30	O	1.608850	0.058558	-0.241084
O31	O	1.108719	-0.740926	-0.441659
O32	O	1.608719	-0.240926	0.058341
O33	O	1.018349	-0.740869	-0.570695
O34	O	1.518349	-0.240869	-0.070695
C35	C	0.872383	-0.506033	-0.506189
C36	C	1.372383	-0.006033	-0.006189
C37	C	0.790584	-0.506051	-0.506201
C38	C	1.290584	-0.006051	-0.006201
C39	C	0.602407	-0.573327	-0.573301
C40	C	1.102407	-0.073327	-0.073301
C41	C	0.525548	-0.573331	-0.573314
C42	C	1.025548	-0.073331	-0.073314
C43	C	0.525523	-0.438794	-0.439160
C44	C	1.025523	0.061206	0.060840
C45	C	0.602380	-0.438786	-0.439153
C46	C	1.102380	0.061214	0.060847
C47	C	0.640820	-0.506059	-0.506222
C48	C	1.140820	-0.006059	-0.006222
C49	C	0.487104	-0.506070	-0.506242
C50	C	0.987104	-0.006070	-0.006242
C51	C	0.403770	-0.506073	-0.506256
C52	C	0.903770	-0.006073	-0.006256
C53	C	0.724159	-0.506054	-0.506210
C54	C	1.224159	-0.006054	-0.006210
C55	C	1.063545	-0.779018	-0.506193
C56	C	1.563545	-0.279018	-0.006193
C57	C	1.063593	-0.895795	-0.506218
C58	C	1.563593	-0.395795	-0.006218
C59	C	1.157766	-0.895802	-0.371954
C60	C	1.657766	-0.395802	0.128046
C61	C	1.204871	-0.950665	-0.304834
C62	C	1.704871	-0.450665	0.195166
C63	C	1.204915	-1.060387	-0.304862
C64	C	1.704915	-0.560387	0.195138
C65	C	1.157849	-1.115247	-0.372020
C66	C	1.657849	-0.615247	0.127980
C67	C	1.110743	-1.060383	-0.439140
C68	C	1.610743	-0.560383	0.060860
C69	C	1.110703	-0.950659	-0.439102
C70	C	1.610703	-0.450659	0.060898
C71	C	1.016575	-1.060377	-0.573408
C72	C	1.516575	-0.560377	-0.073408
C73	C	1.016527	-0.950655	-0.573375
C74	C	1.516527	-0.450655	-0.073375
C75	C	0.969509	-1.115237	-0.640565
C76	C	1.469509	-0.615237	-0.140565
C77	C	0.922399	-1.060373	-0.707681
C78	C	1.422399	-0.560373	-0.207681
C79	C	0.922357	-0.950645	-0.707649
C80	C	1.422357	-0.450645	-0.207649
C81	C	0.969422	-0.895791	-0.640495
C82	C	1.469422	-0.395791	-0.140495
C83	C	1.255542	-0.506070	-0.506250
C84	C	1.755542	-0.006070	-0.006250
C85	C	1.337341	-0.506078	-0.506263
C86	C	1.837341	-0.006078	-0.006263
C87	C	1.063644	-0.505948	-0.780252
C88	C	1.563644	-0.005948	-0.280252
C89	C	1.063668	-0.505904	-0.897029
C90	C	1.563668	-0.005904	-0.397029
C91	C	1.063653	-0.232018	-0.506267
C92	C	1.563653	0.267982	-0.006267
C93	C	1.063681	-0.115241	-0.506288
C94	C	1.563681	0.384759	-0.006288
C95	C	1.157835	-0.371542	-0.897088
C96	C	1.657835	0.128458	-0.397088
C97	C	1.204929	-0.304346	-0.951978
C98	C	1.704929	0.195654	-0.451978
C99	C	1.204947	-0.304307	-1.061700
C100	C	1.704947	0.195693	-0.561700
C101	C	1.157865	-0.371471	-1.116534
C102	C	1.657865	0.128529	-0.616534
C103	C	1.110771	-0.438667	-1.061644
C104	C	1.610771	0.061333	-0.561644
C105	C	1.110759	-0.438701	-0.951919
C106	C	1.610759	0.061299	-0.451919
C107	C	1.016601	-0.573022	-1.061585
C108	C	1.516601	-0.073022	-0.561585
C109	C	1.016585	-0.573067	-0.951863
C110	C	1.516585	-0.073067	-0.451863
C111	C	0.969518	-0.640186	-1.116419
C112	C	1.469518	-0.140186	-0.616419
C113	C	0.922427	-0.707389	-1.061529
C114	C	1.422427	-0.207389	-0.561529
C115	C	0.922411	-0.707425	-0.951800
C116	C	1.422411	-0.207425	-0.451800
C117	C	0.969492	-0.640264	-0.896973
C118	C	1.469492	-0.140264	-0.396973
C119	C	1.063576	-0.506078	-0.233251
C120	C	1.563576	-0.006078	0.266749
C121	C	1.063695	-0.505826	-0.116475
C122	C	1.563695	-0.005826	0.383525
H123	H	0.494275	-0.628106	-0.627938
H124	H	0.994275	-0.128106	-0.127938
H125	H	0.633657	-0.384001	-0.384529
H126	H	1.133657	0.115999	0.115471
H127	H	1.243291	-0.249584	-1.106391
H128	H	1.743291	0.250416	-0.606391
H129	H	0.494216	-0.384024	-0.384553
H130	H	0.994216	0.115976	0.115447
Cl131	Cl	1.264137	-1.129362	-0.220488
Cl132	Cl	1.764137	-0.629362	0.279512
Cl133	Cl	1.157922	-0.757865	-0.372208
Cl134	Cl	1.657922	-0.257865	0.127792
H135	H	0.633702	-0.628103	-0.627915
H136	H	1.133702	-0.128103	-0.127915
H137	H	1.243194	-0.905989	-0.250157
H138	H	1.743194	-0.405989	0.249843
Cl139	Cl	0.969479	-0.640308	-0.759036
Cl140	Cl	1.469479	-0.140308	-0.259036
H141	H	1.157894	-1.204588	-0.372046
H142	H	1.657894	-0.704588	0.127954
Cl143	Cl	0.969252	-1.253172	-0.640157
Cl144	Cl	1.469252	-0.753172	-0.140157
H145	H	0.884085	-1.105049	-0.762360
H146	H	1.384085	-0.605049	-0.262360
Cl147	Cl	1.264098	-0.219891	-0.883039
Cl148	Cl	1.764098	0.280109	-0.383039
H149	H	1.157877	-0.371425	-1.205875
H150	H	1.657877	0.128575	-0.705875
Cl151	Cl	0.863139	-0.881682	-0.792039
Cl152	Cl	1.363139	-0.381682	-0.292039
H153	H	0.969387	-0.806450	-0.640455
H154	H	1.469387	-0.306450	-0.140455
Cl155	Cl	1.157827	-0.371600	-0.759151
Cl156	Cl	1.657827	0.128400	-0.259151
Cl157	Cl	0.863240	-0.791807	-1.130467
Cl158	Cl	1.363240	-0.291807	-0.630467
H159	H	0.969533	-0.640146	-1.205760
H160	H	1.469533	-0.140146	-0.705760
Cl161	Cl	0.863200	-0.791901	-0.882805
Cl162	Cl	1.363200	-0.291901	-0.382805
