data_functionalizedCrystal
_audit_creation_method	'MofGen! by Chris Wilmer'
_symmetry_space_group_name_H-M	'P1'
_symmetry_Int_Tables_number	1
_symmetry_cell_setting	triclinic
loop_
_symmetry_equiv_pos_as_xyz
  x,y,z
_cell_length_a	8.597187
_cell_length_b	17.038272
_cell_length_c	7.088929
_cell_angle_alpha	83.325468
_cell_angle_beta	88.663715
_cell_angle_gamma	88.193166
loop_
_atom_site_label
_atom_site_type_symbol
_atom_site_fract_x
_atom_site_fract_y
_atom_site_fract_z
O1	O	2.051032	0.141582	-0.496844
O2	O	1.602285	0.146858	-0.422929
O3	O	1.823993	0.030361	-0.459432
O4	O	1.829324	0.258079	-0.460341
O5	O	1.853617	0.014756	-0.146334
O6	O	1.631909	0.131253	-0.109831
O7	O	2.080657	0.125977	-0.183746
Cu8	Cu	1.858988	0.127190	-0.118200
Cu9	Cu	1.823954	0.145645	-0.488475
O10	O	1.858949	0.242474	-0.147243
C11	C	1.559396	0.137620	-0.256876
C12	C	1.387463	0.133331	-0.228555
C13	C	1.833954	-0.006648	-0.302084
C14	C	1.819479	-0.093674	-0.299701
C15	C	1.952371	-0.141648	-0.321588
C16	C	1.938760	-0.223416	-0.319364
C17	C	1.792257	-0.257211	-0.295240
C18	C	1.659355	-0.209230	-0.273356
C19	C	1.672966	-0.127462	-0.275594
C20	C	1.744170	-0.503742	-0.287345
C21	C	1.730569	-0.585516	-0.285104
C22	C	2.009975	-0.599697	-0.331115
C23	C	2.023574	-0.517927	-0.333339
C24	C	1.890671	-0.469953	-0.311466
C25	C	1.778341	-0.340792	-0.292960
C26	C	1.904587	-0.386373	-0.313759
C27	C	2.123545	0.135216	-0.349804
C28	C	2.295477	0.139506	-0.378136
C29	C	1.848987	0.279483	-0.304595
C30	C	1.863461	0.366510	-0.306991
N31	N	1.883640	0.114210	0.142229
N32	N	1.799313	0.158619	-0.748906
H33	H	1.348266	0.148074	-0.527863
H34	H	2.118176	-0.638765	-0.348926
C35	C	1.962055	-0.023021	0.191304
C36	C	2.001637	0.052079	0.233016
H37	H	2.034906	-0.061376	0.247345
H38	H	1.860712	-0.034722	0.240743
H39	H	1.963731	-0.023899	0.057528
H40	H	1.999950	0.052959	0.366792
H41	H	2.103007	0.063784	0.183585
H42	H	2.046975	-0.262474	-0.337183
C43	C	1.153974	0.119614	-0.036571
C44	C	1.316220	0.121765	-0.026433
H45	H	1.109990	0.112467	0.088214
H46	H	1.115152	0.167924	-0.101424
H47	H	1.126748	0.076981	-0.103355
H48	H	1.343447	0.164401	0.040339
H49	H	1.355057	0.073448	0.038447
H50	H	2.071670	-0.114140	-0.341221
C51	C	2.298388	-0.540160	-0.378597
C52	C	2.184615	-0.480783	-0.359855
H53	H	2.397807	-0.517227	-0.394968
H54	H	2.297591	-0.577203	-0.267594
H55	H	2.276936	-0.566311	-0.485964
H56	H	2.206062	-0.454636	-0.252479
H57	H	2.185416	-0.443727	-0.470870
H58	H	1.711917	0.204640	0.183838
H59	H	1.659059	-0.368316	-0.273313
H60	H	1.611266	-0.613030	-0.265427
H61	H	1.635950	-0.464691	-0.269534
H62	H	1.540068	-0.236751	-0.253725
H63	H	1.564752	-0.088402	-0.257771
H64	H	2.023865	-0.358852	-0.333443
