data_functionalizedCrystal
_audit_creation_method	'MofGen! by Chris Wilmer'
_symmetry_space_group_name_H-M	'P1'
_symmetry_Int_Tables_number	1
_symmetry_cell_setting	triclinic
loop_
_symmetry_equiv_pos_as_xyz
  x,y,z
_cell_length_a	14.560438
_cell_length_b	17.917603
_cell_length_c	14.560438
_cell_angle_alpha	89.999714
_cell_angle_beta	59.995857
_cell_angle_gamma	57.013001
loop_
_atom_site_label
_atom_site_type_symbol
_atom_site_fract_x
_atom_site_fract_y
_atom_site_fract_z
Zr1	Zr	0.920758	0.754912	-0.078305
O2	O	1.126384	0.629789	-0.231974
O3	O	0.724853	0.793268	-0.031188
O4	O	0.916464	0.793269	-0.222805
O5	O	0.934770	0.629788	0.110783
O6	O	0.902020	0.922226	-0.215581
O7	O	0.934773	0.629788	-0.040358
O8	O	0.559262	0.922224	0.127186
O9	O	1.277528	0.629790	-0.231984
O10	O	0.791052	0.905867	-0.005713
O11	O	0.801829	0.809628	0.101691
O12	O	1.027427	0.809629	-0.123913
O13	O	1.038205	0.713390	-0.016509
Zr14	Zr	0.897717	0.960584	0.174268
Zr15	Zr	0.897721	0.960584	-0.066784
Zr16	Zr	0.920754	0.754912	0.162748
Zr17	Zr	1.161815	0.754914	-0.078320
Zr18	Zr	0.656660	0.960582	0.174284
O19	O	1.093622	0.922228	0.127152
O20	O	1.093628	0.922227	-0.215594
O21	O	1.126378	0.629789	0.110771
O22	O	0.692091	1.085707	0.327938
O23	O	0.692097	1.085707	-0.014807
O24	O	0.724847	0.793269	0.311557
O25	O	0.883705	1.085708	-0.014820
O26	O	0.902010	0.922227	0.318768
O27	O	0.916455	0.793270	0.311545
O28	O	0.883702	1.085708	0.136321
O29	O	1.259216	0.793271	-0.222827
O30	O	0.559259	0.922225	0.318790
O31	O	0.540947	1.085706	0.327948
O32	O	0.540950	1.085706	0.136343
O33	O	1.277524	0.629790	-0.040380
O34	O	1.259213	0.793272	-0.031222
O35	O	0.791048	0.905867	0.219877
O36	O	0.780270	1.002106	0.112473
O37	O	1.016645	0.905868	-0.005727
O38	O	1.027423	0.809629	0.101677
C39	C	0.607712	0.857746	0.048001
C40	C	0.505377	0.857745	0.048008
C41	C	0.548550	0.786700	-0.039254
C42	C	0.452410	0.786704	-0.039283
C43	C	0.269924	0.928803	0.135223
C44	C	0.366063	0.928802	0.135246
C45	C	0.938054	0.600484	0.033571
C46	C	0.947833	0.513171	0.028680
C47	C	0.965698	0.353327	0.019749
C48	C	0.852783	0.362162	0.076212
C49	C	0.862722	0.273219	0.071242
C50	C	0.955761	0.442276	0.024717
C51	C	1.210763	0.857750	0.047963
C52	C	1.313098	0.857751	0.047956
C53	C	0.909243	0.857748	-0.253538
C54	C	0.909245	0.857748	-0.355871
C55	C	0.880421	1.115012	0.062392
C56	C	0.870641	1.202325	0.067283
C57	C	0.901288	0.928791	-0.399967
C58	C	0.901276	0.928794	-0.496113
C59	C	0.917183	0.786701	-0.504061
C60	C	0.917185	0.786703	-0.407912
C61	C	0.909232	0.857748	0.349501
C62	C	0.909230	0.857748	0.451834
C63	C	0.578896	1.115010	0.062412
C64	C	0.466781	1.202322	0.067309
C65	C	0.607707	0.857746	0.349521
C66	C	0.505370	0.857746	0.451860
C67	C	0.578891	1.115010	0.363931
C68	C	0.466774	1.202323	0.471162
C69	C	1.239584	0.600486	-0.267968
C70	C	1.351701	0.513173	-0.375198
C71	C	1.239579	0.600486	0.033552
C72	C	1.351694	0.513174	0.028655
C73	C	1.210768	0.857750	-0.253557
C74	C	1.313105	0.857750	-0.355897
C75	C	0.419759	1.193089	0.007907
C76	C	0.314429	1.275121	0.012486
C77	C	0.256117	1.366384	0.076473
C78	C	0.303149	1.375616	0.135877
C79	C	0.408483	1.293585	0.131291
C80	C	0.408496	1.293570	0.465455
C81	C	0.303163	1.375617	0.566200
C82	C	0.256103	1.366415	0.672651
C83	C	0.314392	1.275158	0.678355
C84	C	0.419729	1.193113	0.577611
C85	C	1.409991	0.421926	-0.369491
C86	C	1.515353	0.339879	-0.470237
C87	C	1.562418	0.349081	-0.576688
C88	C	1.504123	0.440338	-0.582392
C89	C	1.398769	0.522383	-0.481648
C90	C	1.398726	0.522407	0.088046
C91	C	1.504082	0.440375	0.083441
C92	C	1.562398	0.349112	0.019450
C93	C	1.515361	0.339880	-0.039949
C94	C	1.410013	0.421911	-0.035350
C95	C	0.451662	0.907981	0.561631
C96	C	0.355516	0.907969	0.657786
C97	C	0.366791	0.807487	0.534384
C98	C	0.462942	0.807493	0.438232
H99	H	0.156486	0.986654	0.206250
N100	N	0.925347	0.714116	-0.362880
N101	N	1.022541	0.659418	-0.357833
H102	H	1.028304	0.608155	-0.326029
N103	N	0.893132	1.001363	-0.541162
N104	N	0.893104	1.001366	-0.626995
H105	H	0.887338	1.052626	-0.658805
N106	N	0.925312	0.714121	-0.557215
N107	N	0.932411	0.650696	-0.517826
H108	H	0.938153	0.599434	-0.555365
N109	N	0.479284	1.099880	-0.057454
N110	N	0.437270	1.091667	-0.110482
H111	H	0.479305	1.025840	-0.156648
H112	H	0.467167	1.118819	0.582273
H113	H	0.276149	1.267586	-0.035889
N114	N	0.517831	0.756176	0.326085
N115	N	0.643290	0.690035	0.255586
H116	H	0.682061	0.653791	0.176383
H117	H	0.748648	0.436524	0.128284
N118	N	0.300645	0.959274	0.769922
N119	N	0.316283	0.915543	0.834261
H120	H	0.277529	0.951778	0.913461
N121	N	0.321964	1.001366	0.224401
N122	N	0.359590	0.978369	0.287236
H123	H	0.328449	1.029616	0.350197
H124	H	0.332232	0.766575	0.523302
N125	N	1.339194	0.615595	-0.487466
N126	N	1.245119	0.688851	-0.397519
H127	H	1.203045	0.754683	-0.401633
N128	N	0.690847	0.714118	-0.128376
N129	N	0.729371	0.650694	-0.206285
H130	H	0.829869	0.599432	-0.269234
N131	N	1.552112	0.449801	0.144132
N132	N	1.646170	0.376561	0.140027
H133	H	1.680088	0.383218	0.182891
H134	H	1.351253	0.596711	0.140162
N135	N	0.496541	0.714115	-0.128420
N136	N	0.572705	0.627700	-0.143474
H137	H	0.603881	0.576429	-0.206433
N138	N	1.670010	0.265334	0.014766
N139	N	1.711981	0.273602	0.067807
H140	H	1.787981	0.214438	0.064505
N141	N	1.574954	0.246647	-0.105309
N142	N	1.669008	0.173421	-0.109392
H143	H	1.711096	0.107572	-0.155549
N144	N	1.552188	0.449749	-0.691122
N145	N	1.601048	0.492547	-0.717435
H146	H	1.634989	0.499194	-0.794227
H147	H	0.170347	1.433171	0.080199
H148	H	0.255656	1.449933	0.187974
N149	N	1.096317	0.260043	-0.045565
N150	N	1.104296	0.186887	-0.049555
H151	H	1.196544	0.120997	-0.095684
H152	H	0.894819	0.986640	-0.357596
N153	N	0.456517	1.303024	0.191965
N154	N	0.505366	1.345831	0.169398
H155	H	0.539287	1.352504	0.212251
N156	N	0.456529	1.303002	0.356736
N157	N	0.404469	1.384488	0.351678
H158	H	0.438389	1.391158	0.274898
H159	H	0.486209	0.948896	0.572734
N160	N	0.243633	1.468818	0.560336
N161	N	0.187245	1.493273	0.511544
H162	H	0.145203	1.559094	0.507398
N163	N	0.148502	1.450237	0.775543
N164	N	0.096485	1.531700	0.770419
H165	H	0.020488	1.590904	0.843083
N166	N	0.266292	1.265784	0.787106
N167	N	0.172230	1.339054	0.877038
H168	H	0.138248	1.332437	0.953847
H169	H	1.371724	0.414380	-0.083711
N170	N	1.361941	0.412494	-0.260772
N171	N	1.414019	0.331008	-0.255714
H172	H	1.380095	0.324338	-0.178934
N173	N	1.574872	0.246678	-0.464374
N174	N	1.532819	0.238484	-0.369316
H175	H	1.574850	0.172663	-0.365171
N176	N	1.670040	0.265259	-0.679580
N177	N	1.722063	0.183796	-0.674455
H178	H	1.798070	0.124592	-0.747119
