data_functionalizedCrystal
_audit_creation_method	'MofGen! by Chris Wilmer'
_symmetry_space_group_name_H-M	'P1'
_symmetry_Int_Tables_number	1
_symmetry_cell_setting	triclinic
loop_
_symmetry_equiv_pos_as_xyz
  x,y,z
_cell_length_a	18.215407
_cell_length_b	19.076808
_cell_length_c	18.215399
_cell_angle_alpha	87.671678
_cell_angle_beta	89.982632
_cell_angle_gamma	92.320961
loop_
_atom_site_label
_atom_site_type_symbol
_atom_site_fract_x
_atom_site_fract_y
_atom_site_fract_z
Zn1	Zn	1.113296	-0.280271	-0.404282
Zn2	Zn	1.108258	-0.397979	-0.276266
Zn3	Zn	0.990227	-0.280288	-0.281234
Zn4	Zn	0.985250	-0.397934	-0.399298
O5	O	1.049258	-0.339118	-0.340270
O6	O	1.215611	-0.295898	-0.387307
O7	O	1.092576	-0.382393	-0.173940
O8	O	1.010744	-0.181790	-0.301721
O9	O	1.211910	-0.382377	-0.293255
O10	O	1.101161	-0.181777	-0.392124
O11	O	1.005859	-0.295926	-0.177590
O12	O	0.886583	-0.295882	-0.296889
O13	O	1.002261	-0.382300	-0.502945
O14	O	0.882927	-0.382316	-0.383630
O15	O	1.096335	-0.295854	-0.506606
O16	O	1.087750	-0.496470	-0.288422
O17	O	0.997376	-0.496436	-0.378813
C18	C	0.858052	-0.339097	-0.340258
C19	C	0.776253	-0.339104	-0.340270
C20	C	0.589981	-0.294167	-0.389314
C21	C	0.513122	-0.294173	-0.389316
C22	C	0.509285	-0.384089	-0.291239
C23	C	0.586143	-0.384079	-0.291234
C24	C	0.626489	-0.339119	-0.340275
C25	C	0.472772	-0.339135	-0.340283
C26	C	0.389438	-0.339142	-0.340285
C27	C	0.709828	-0.339111	-0.340272
C28	C	1.041496	-0.521992	-0.332554
C29	C	1.038243	-0.600226	-0.329277
C30	C	1.083755	-0.636914	-0.374844
C31	C	1.080695	-0.710423	-0.371767
C32	C	1.032127	-0.747243	-0.323118
C33	C	0.986610	-0.710551	-0.277550
C34	C	0.989666	-0.637043	-0.280631
C35	C	1.017938	-0.967096	-0.308854
C36	C	1.014887	-1.040609	-0.305774
C37	C	1.108972	-1.040476	-0.399992
C38	C	1.112027	-0.966967	-0.403067
C39	C	1.066507	-0.930280	-0.357501
N40	N	1.029000	-0.822382	-0.319970
N41	N	1.069631	-0.855143	-0.360653
C42	C	1.241210	-0.339141	-0.340283
C43	C	1.323008	-0.339150	-0.340288
C44	C	1.049305	-0.339070	-0.532225
C45	C	1.049325	-0.339049	-0.614025
C46	C	1.057070	-0.155531	-0.348033
C47	C	1.060399	-0.077296	-0.351341
C48	C	1.098328	-0.293994	-0.804129
C49	C	1.098338	-0.293974	-0.880988
C50	C	1.000378	-0.383995	-0.877164
C51	C	1.000365	-0.384011	-0.800306
C52	C	1.049344	-0.339012	-0.763790
C53	C	1.049367	-0.338975	-0.917508
C54	C	1.049377	-0.338953	-1.000843
C55	C	1.049334	-0.339033	-0.680450
C56	C	1.049256	-0.339116	-0.149064
C57	C	1.049387	-0.338938	-0.067273
H58	H	1.123308	-0.606939	-0.414455
H59	H	0.615868	-0.420685	-0.251297
H60	H	1.138224	-0.257315	-0.913829
O61	O	0.973703	-0.931574	-0.264510
C62	C	0.880046	-0.939469	-0.170750
C63	C	0.930111	-0.979789	-0.220922
H64	H	0.844778	-0.978434	-0.135507
H65	H	0.915255	-0.905073	-0.133693
H66	H	0.843003	-0.905044	-0.205950
H67	H	0.967163	-1.014253	-0.185779
H68	H	0.894858	-1.014141	-0.257983
H69	H	0.975333	-1.070586	-0.266158
O70	O	1.124992	-0.745952	-0.416046
C71	C	1.218630	-0.738063	-0.509825
C72	C	1.168510	-0.697740	-0.459712
H73	H	1.253816	-0.699101	-0.545153
H74	H	1.255743	-0.772443	-0.474651
H75	H	1.183393	-0.772506	-0.546810
H76	H	1.203690	-0.663259	-0.422719
H77	H	1.131393	-0.663404	-0.494930
O78	O	0.470055	-0.427840	-0.243710
C79	C	0.379227	-0.522842	-0.229652
C80	C	0.423619	-0.473346	-0.283559
H81	H	0.341662	-0.559636	-0.261848
H82	H	0.418488	-0.555020	-0.194610
H83	H	0.344629	-0.490472	-0.192580
H84	H	0.458220	-0.505662	-0.320678
H85	H	0.384318	-0.441166	-0.318548
O86	O	0.477544	-0.250533	-0.436885
C87	C	0.360842	-0.210727	-0.480394
C88	C	0.401041	-0.260176	-0.426469
H89	H	0.298982	-0.218517	-0.472002
H90	H	0.378297	-0.153938	-0.469964
H91	H	0.375495	-0.223154	-0.539180
H92	H	0.386408	-0.247813	-0.367663
H93	H	0.383583	-0.316950	-0.436963
O94	O	0.939391	-0.746394	-0.230391
C95	C	0.836558	-0.829440	-0.216920
C96	C	0.889994	-0.788906	-0.270410
H97	H	0.796598	-0.863810	-0.249256
H98	H	0.868897	-0.863896	-0.177036
H99	H	0.804588	-0.790577	-0.184866
H100	H	0.921978	-0.827719	-0.302515
H101	H	0.857614	-0.754439	-0.310246
O102	O	1.153285	-1.076079	-0.444187
C103	C	1.277511	-1.098412	-0.479141
C104	C	1.227415	-1.058064	-0.429025
H105	H	1.337455	-1.083850	-0.466911
H106	H	1.267051	-1.157284	-0.468588
H107	H	1.265106	-1.083934	-0.539068
H108	H	1.239790	-1.072483	-0.369080
H109	H	1.237884	-0.999202	-0.439641
O110	O	1.159282	-0.931167	-0.450222
C111	C	1.262055	-0.848050	-0.463689
C112	C	1.208596	-0.888565	-0.410207
H113	H	1.301928	-0.813586	-0.431359
H114	H	1.294117	-0.886864	-0.495721
H115	H	1.229656	-0.813670	-0.503592
H116	H	1.240938	-0.922946	-0.370259
H117	H	1.176533	-0.849714	-0.378228
O118	O	0.945380	-0.601369	-0.236474
C119	C	0.849505	-0.518427	-0.229969
C120	C	0.899607	-0.558795	-0.280060
H121	H	0.812495	-0.483984	-0.265188
H122	H	0.814213	-0.557335	-0.194682
H123	H	0.884758	-0.484038	-0.192946
H124	H	0.864410	-0.593184	-0.317128
H125	H	0.934902	-0.519848	-0.315298
H126	H	1.138208	-0.257351	-0.774400
O127	O	0.952909	-0.427783	-0.912668
C128	C	0.938984	-0.522765	-0.995454
C129	C	0.992824	-0.473228	-0.955279
H130	H	0.971234	-0.559510	-1.029926
H131	H	0.903980	-0.554995	-0.953450
H132	H	0.901870	-0.490424	-1.032768
H133	H	1.029984	-0.505514	-0.917966
H134	H	1.027776	-0.440996	-0.997322
O135	O	0.952755	-0.427812	-0.761227
C136	C	0.855564	-0.517070	-0.765539
C137	C	0.909454	-0.467519	-0.809885
H138	H	0.820531	-0.549176	-0.804861
H139	H	0.887745	-0.553930	-0.728021
H140	H	0.818485	-0.484746	-0.730899
H141	H	0.946546	-0.499786	-0.844567
H142	H	0.877228	-0.430657	-0.847357
H143	H	0.622829	-0.257556	-0.429244
