data_functionalizedCrystal
_audit_creation_method	'MofGen! by Chris Wilmer'
_symmetry_space_group_name_H-M	'P1'
_symmetry_Int_Tables_number	1
_symmetry_cell_setting	triclinic
loop_
_symmetry_equiv_pos_as_xyz
  x,y,z
_cell_length_a	16.098538
_cell_length_b	10.540539
_cell_length_c	10.540510
_cell_angle_alpha	95.480599
_cell_angle_beta	87.247443
_cell_angle_gamma	87.235883
loop_
_atom_site_label
_atom_site_type_symbol
_atom_site_fract_x
_atom_site_fract_y
_atom_site_fract_z
O1	O	0.069212	-1.691498	0.173285
O2	O	0.069222	-1.322084	0.190140
O3	O	0.069216	-1.515239	-0.002997
O4	O	0.069217	-1.498343	0.366421
O5	O	-0.069296	-1.503955	0.008241
O6	O	-0.069291	-1.310800	0.201377
O7	O	-0.069301	-1.680214	0.184522
Zn8	Zn	-0.091288	-1.493716	0.194734
Zn9	Zn	0.091209	-1.508582	0.179928
O10	O	-0.069295	-1.487060	0.377659
C11	C	-0.000033	-1.269139	0.194494
C12	C	-0.000029	-1.128192	0.190712
N13	N	-0.215836	-1.483579	0.204838
C14	C	-0.000044	-1.733159	0.180167
C15	C	-0.000042	-1.874107	0.183949
C16	C	-0.259424	-1.565592	0.122892
C17	C	-0.346613	-1.558513	0.129973
C18	C	-0.390212	-1.469426	0.219005
C19	C	-0.346619	-1.387404	0.300954
C20	C	-0.259432	-1.394478	0.293867
C21	C	-0.653462	-1.443781	0.244676
C22	C	-0.740655	-1.436716	0.251759
C23	C	-0.740643	-1.607824	0.080776
C24	C	-0.653454	-1.614896	0.073701
C25	C	-0.609868	-1.532869	0.155646
C26	C	-0.479333	-1.462190	0.226247
C27	C	-0.520749	-1.540100	0.148397
N28	N	0.215758	-1.518729	0.169814
C29	C	-0.000038	-1.508338	-0.044682
C30	C	-0.000033	-1.504571	-0.185632
C31	C	-0.000353	-0.944754	0.045819
C32	C	-0.000032	-1.091398	0.049627
C33	C	0.079065	-1.072955	0.252191
C34	C	0.079123	-0.926416	0.247372
C35	C	-0.078392	-0.913096	0.263021
C36	C	-0.079429	-1.059993	0.264405
C37	C	-0.000354	-1.638729	-0.403061
C38	C	-0.000038	-1.642773	-0.256492
C39	C	0.079065	-1.440269	-0.236808
C40	C	0.079127	-1.437235	-0.383574
C41	C	-0.078388	-1.421525	-0.370603
C42	C	-0.079429	-1.427995	-0.224178
C43	C	-0.000039	-1.493961	0.419343
C44	C	-0.000038	-1.497727	0.560293
H45	H	-0.223931	-1.638141	0.050398
Cl46	Cl	-0.087930	-0.893488	-0.033131
Cl47	Cl	-0.401410	-1.661615	0.026953
Cl48	Cl	-0.086801	-1.271610	-0.147831
Cl49	Cl	0.087653	-1.735870	-0.219740
H50	H	-0.137945	-1.474706	-0.190818
H51	H	0.138251	-1.490399	-0.428586
H52	H	-0.078918	-1.317719	-0.392710
H53	H	0.082009	-1.338767	-0.189658
Cl54	Cl	0.169949	-1.146112	0.172001
Cl55	Cl	0.169945	-1.523527	-0.196552
H56	H	0.056047	-1.696856	-0.451143
H57	H	0.082713	-1.334160	-0.406860
H58	H	-0.485247	-1.612630	0.075901
Cl59	Cl	0.086729	-0.905215	-0.046945
H60	H	-0.514839	-1.389656	0.298742
H61	H	-0.056731	-1.129399	0.000804
H62	H	-0.776150	-1.364167	0.324266
H63	H	0.082009	-1.095537	0.355562
Cl64	Cl	-0.170956	-0.856868	0.200032
Cl65	Cl	-0.169770	-1.115726	0.195026
H66	H	-0.223944	-1.327693	0.360594
Cl67	Cl	-0.795440	-1.710932	-0.022239
Cl68	Cl	-0.170951	-1.481336	-0.428715
H69	H	-0.617957	-1.687437	0.001204
H70	H	-0.617981	-1.376994	0.311400
H71	H	-0.382123	-1.314861	0.373442
H72	H	-0.084204	-1.083819	0.367652
Cl73	Cl	0.087806	-1.162979	-0.040199
Cl74	Cl	-0.079218	-0.840099	0.420420
H75	H	0.138247	-0.903028	0.192393
H76	H	0.082713	-0.878729	0.348547
Cl77	Cl	-0.087589	-1.721073	-0.204074
H78	H	-0.057079	-1.687951	-0.440414
