data_functionalizedCrystal
_audit_creation_method	'MofGen! by Chris Wilmer'
_symmetry_space_group_name_H-M	'P1'
_symmetry_Int_Tables_number	1
_symmetry_cell_setting	triclinic
loop_
_symmetry_equiv_pos_as_xyz
  x,y,z
_cell_length_a	17.699097
_cell_length_b	16.776229
_cell_length_c	17.699083
_cell_angle_alpha	90.007545
_cell_angle_beta	96.714293
_cell_angle_gamma	89.988580
loop_
_atom_site_label
_atom_site_type_symbol
_atom_site_fract_x
_atom_site_fract_y
_atom_site_fract_z
O1	O	-1.004072	0.066369	0.095761
O2	O	-0.783695	0.066353	0.108203
O3	O	-0.900110	0.066354	-0.008207
O4	O	-0.887658	0.066367	0.212170
O5	O	-0.900094	-0.066222	-0.008215
O6	O	-0.783680	-0.066223	0.108195
O7	O	-1.004057	-0.066208	0.095753
Zn8	Zn	-0.893866	-0.087265	0.101973
Zn9	Zn	-0.893886	0.087410	0.101983
O10	O	-0.887642	-0.066209	0.212163
C11	C	-0.755491	0.000063	0.107751
C12	C	-0.671473	0.000057	0.106409
N13	N	-0.893858	-0.206476	0.101966
C14	C	-0.155763	0.072349	0.098184
C15	C	-0.234707	0.072346	0.099440
C16	C	-0.274165	0.000076	0.100065
C17	C	-0.234675	-0.072196	0.099427
C18	C	-0.155733	-0.072192	0.098165
C19	C	-0.553039	-0.072212	0.104514
C20	C	-0.631987	-0.072211	0.105778
C21	C	-0.632013	0.072326	0.105789
C22	C	-0.553071	0.072330	0.104527
C23	C	-0.513589	0.000058	0.103885
C24	C	-0.427989	0.000062	0.102521
C25	C	-0.359763	0.000071	0.101434
C26	C	-0.945422	-0.248193	0.050441
C27	C	-0.945426	-0.331645	0.050441
C28	C	-0.893869	-0.373379	0.101969
C29	C	-0.842299	-0.331657	0.153497
C30	C	-0.842292	-0.248206	0.153493
C31	C	-0.842327	-0.668204	0.153512
C32	C	-0.842339	-0.751660	0.153513
C33	C	-0.945460	-0.751643	0.050459
C34	C	-0.945453	-0.668192	0.050455
C35	C	-0.893881	-0.626477	0.101980
C36	C	-0.893876	-0.535989	0.101979
C37	C	-0.893877	-0.463866	0.101974
C38	C	-0.032261	0.000081	0.096205
C39	C	-0.116279	0.000083	0.097547
C40	C	-0.899656	0.000066	-0.036408
C41	C	-0.898317	0.000065	-0.120426
N42	N	-0.893900	0.206621	0.101984
C43	C	-0.966650	0.000069	-0.169044
C44	C	-0.965388	0.000076	-0.247987
C45	C	-0.895792	0.000074	-0.278311
C46	C	-0.827454	0.000072	-0.229687
C47	C	-0.828717	0.000071	-0.150746
C48	C	-0.822359	0.000078	-0.548051
C49	C	-0.821101	0.000077	-0.626999
C50	C	-0.959030	0.000083	-0.645292
C51	C	-0.960293	0.000082	-0.566350
C52	C	-0.891955	0.000085	-0.517734
C53	C	-0.893325	0.000079	-0.432134
C54	C	-0.894422	0.000074	-0.363909
C55	C	-0.888096	0.000081	0.240364
C56	C	-0.889435	0.000087	0.324382
H57	H	-0.123642	0.131200	0.097680
H58	H	-0.800353	-0.785639	0.195475
H59	H	-0.770787	0.000075	-0.254383
Br60	Br	-1.051776	0.000080	-0.711277
H61	H	-0.764424	0.000074	-0.651685
Br62	Br	-0.499464	-0.170295	0.103662
Br63	Br	-0.288224	-0.170278	0.100272
Br64	Br	-0.735976	0.000073	-0.084763
Br65	Br	-0.102148	-0.170272	0.097291
H66	H	-0.664111	-0.131065	0.106287
H67	H	-0.664170	0.131173	0.106309
H68	H	-0.987408	-0.214218	0.008484
Br69	Br	-0.772322	-0.388293	0.223425
H70	H	-1.021032	0.000077	-0.287569
H71	H	-0.266853	0.131193	0.099953
Br72	Br	-1.015404	-0.388263	-0.019490
Br73	Br	-0.772304	-0.191591	0.223419
Br74	Br	-0.499525	0.170414	0.103684
H75	H	-0.987438	-0.634215	0.008498
Br76	Br	-0.729614	0.000088	-0.482080
Br77	Br	-1.015452	-0.808260	-0.019470
H78	H	-1.023324	0.000066	-0.144361
H79	H	-0.800337	-0.634246	0.195466
Br80	Br	-1.054748	0.000086	-0.525201
