data_functionalizedCrystal
_audit_creation_method	'MofGen! by Chris Wilmer'
_symmetry_space_group_name_H-M	'P1'
_symmetry_Int_Tables_number	1
_symmetry_cell_setting	triclinic
loop_
_symmetry_equiv_pos_as_xyz
  x,y,z
_cell_length_a	16.959455
_cell_length_b	16.625547
_cell_length_c	16.959434
_cell_angle_alpha	89.921476
_cell_angle_beta	90.059435
_cell_angle_gamma	90.001912
loop_
_atom_site_label
_atom_site_type_symbol
_atom_site_fract_x
_atom_site_fract_y
_atom_site_fract_z
Zn1	Zn	1.208840	0.320577	0.446972
Zn2	Zn	1.208702	0.455565	0.314819
Zn3	Zn	1.076564	0.320743	0.314809
Zn4	Zn	1.076676	0.455365	0.446958
O5	O	1.142696	0.388062	0.380890
O6	O	1.319432	0.338498	0.429452
O7	O	1.191069	0.437834	0.204207
O8	O	1.094121	0.207889	0.332342
O9	O	1.319331	0.437673	0.332360
O10	O	1.191304	0.207767	0.429442
O11	O	1.093988	0.338780	0.204199
O12	O	0.965968	0.338586	0.332329
O13	O	1.094313	0.437332	0.557571
O14	O	0.966051	0.437492	0.429418
O15	O	1.191413	0.338304	0.557581
O16	O	1.191178	0.568371	0.332346
O17	O	1.094179	0.568223	0.429428
C18	C	0.937329	0.388036	0.380872
C19	C	0.849473	0.388044	0.380883
C20	C	1.142715	0.177754	0.380893
C21	C	1.142724	0.088132	0.380894
C22	C	0.477930	0.336520	0.330441
C23	C	0.478064	0.439671	0.431384
C24	C	0.560610	0.439660	0.431379
C25	C	0.601820	0.388078	0.380904
C26	C	0.560483	0.336508	0.330433
C27	C	0.601953	0.491235	0.481843
C28	C	0.684504	0.491226	0.481840
C29	C	0.725715	0.439640	0.431368
C30	C	0.684373	0.388067	0.380895
C31	C	0.725583	0.336485	0.330420
C32	C	0.684243	0.284908	0.279951
C33	C	0.601694	0.284922	0.279961
C34	C	0.808263	0.439625	0.431358
C35	C	0.808136	0.336474	0.330412
C36	C	1.142765	-0.240043	0.380935
C37	C	1.142756	-0.148735	0.380926
C38	C	1.142745	-0.075958	0.380914
C39	C	1.142735	0.015356	0.380906
C40	C	1.348864	0.388090	0.380908
C41	C	1.436720	0.388101	0.380916
C42	C	1.142697	0.597553	0.380904
C43	C	1.142770	0.687174	0.380937
C44	C	1.142547	0.388288	0.175523
C45	C	1.142616	0.388183	0.087667
C46	C	1.193850	0.438906	-0.283845
C47	C	1.092027	0.336512	-0.283771
C48	C	1.091955	0.336616	-0.201225
C49	C	1.142831	0.387866	-0.159986
C50	C	1.193778	0.439012	-0.201292
C51	C	1.041004	0.285476	-0.159913
C52	C	1.040929	0.285578	-0.077362
C53	C	1.091810	0.336825	-0.036121
C54	C	1.142759	0.387973	-0.077432
C55	C	1.193635	0.439223	-0.036193
C56	C	1.244589	0.490367	-0.077502
C57	C	1.244658	0.490259	-0.160051
C58	C	1.091741	0.336933	0.046427
C59	C	1.193564	0.439330	0.046361
C60	C	1.142891	0.387777	0.587058
C61	C	1.142974	0.387655	0.674915
H62	H	0.841683	0.294464	0.289313
O63	O	0.562004	0.541286	0.530987
C64	C	0.582250	0.523655	0.609790
H65	H	0.642192	0.492669	0.611466
H66	H	0.535825	0.482194	0.636472
C67	C	0.512486	0.640319	0.655504
C68	C	0.586111	0.602268	0.657563
H69	H	0.514864	0.688810	0.684975
H70	H	0.498843	0.652197	0.602414
H71	H	0.473806	0.605760	0.677738
H72	H	0.624787	0.636823	0.635321
H73	H	0.599760	0.590398	0.710652
H74	H	0.841919	0.481621	0.472446
O75	O	0.991618	0.235587	-0.199880
C76	C	1.008313	0.155124	-0.179483
H77	H	1.038634	0.153306	-0.119485
H78	H	1.048796	0.127605	-0.225795
C79	C	0.893664	0.109093	-0.249381
C80	C	0.930899	0.106860	-0.175687
H81	H	0.845912	0.079320	-0.247042
H82	H	0.882417	0.163302	-0.263126
H83	H	0.927407	0.086162	-0.287966
H84	H	0.897160	0.129799	-0.137105
H85	H	0.942138	0.052654	-0.161935
O86	O	0.991546	0.235861	-0.037147
C87	C	1.036138	0.183504	0.010808
H88	H	1.096230	0.211516	0.023213
H89	H	1.044423	0.123646	-0.020833
C90	C	0.918675	0.134925	0.073943
C91	C	0.992479	0.169333	0.089184
H92	H	0.891744	0.126180	0.122287
H93	H	0.888632	0.170197	0.041633
H94	H	0.925590	0.085047	0.047573
H95	H	0.985563	0.219214	0.115544
H96	H	1.022521	0.134069	0.121500
H97	H	0.717806	0.242914	0.238851
H98	H	1.050253	0.295293	0.080058
H99	H	1.286010	0.532098	-0.043914
H100	H	0.444267	0.294524	0.289353
O101	O	0.561497	0.234939	0.230859
C102	C	0.513679	0.280839	0.179755
H103	H	0.538567	0.344336	0.174762
H104	H	0.451149	0.283640	0.204205
C105	C	0.481728	0.163433	0.103783
C106	C	0.512300	0.241419	0.097645
H107	H	0.480874	0.139116	0.053134
H108	H	0.513941	0.132508	0.138214
H109	H	0.429622	0.165777	0.124161
H110	H	0.564408	0.239073	0.077277
H111	H	0.480095	0.272343	0.063208
H112	H	1.234996	0.481061	0.079932
O113	O	0.724743	0.541207	0.530908
C114	C	0.772521	0.495298	0.582041
H115	H	0.784847	0.434188	0.554253
H116	H	0.740765	0.486451	0.640630
C117	C	0.835819	0.614706	0.630420
C118	C	0.850963	0.539652	0.596287
H119	H	0.884204	0.642066	0.639211
H120	H	0.803628	0.645636	0.595974
H121	H	0.809354	0.607323	0.679241
H122	H	0.877419	0.547036	0.547463
H123	H	0.883161	0.508723	0.630726
H124	H	1.050602	0.294791	-0.317353
O125	O	1.294032	0.540028	-0.200217
C126	C	1.249428	0.592352	-0.248197
H127	H	1.187192	0.597814	-0.223443
H128	H	1.246577	0.567359	-0.310699
C129	C	1.365067	0.669183	-0.280017
C130	C	1.288629	0.675896	-0.249611
H131	H	1.389249	0.720716	-0.280893
H132	H	1.395118	0.633929	-0.247695
H133	H	1.362680	0.648352	-0.332100
H134	H	1.291017	0.696717	-0.197526
H135	H	1.258579	0.711155	-0.281924
O136	O	0.437915	0.489700	0.480386
C137	C	0.356191	0.478670	0.469553
H138	H	0.344877	0.416441	0.443760
H139	H	0.332729	0.526492	0.427389
C140	C	0.327791	0.562509	0.581199
C141	C	0.313895	0.486076	0.549526
H142	H	0.301700	0.567081	0.630528
H143	H	0.382850	0.569944	0.588496
H144	H	0.308240	0.602353	0.546054
H145	H	0.333456	0.446235	0.584665
H146	H	0.258839	0.478635	0.542237
H147	H	1.235338	0.480544	-0.317483
