data_functionalizedCrystal
_audit_creation_method	'MofGen! by Chris Wilmer'
_symmetry_space_group_name_H-M	'P1'
_symmetry_Int_Tables_number	1
_symmetry_cell_setting	triclinic
loop_
_symmetry_equiv_pos_as_xyz
  x,y,z
_cell_length_a	15.995363
_cell_length_b	9.065218
_cell_length_c	8.140239
_cell_angle_alpha	89.998670
_cell_angle_beta	90.001679
_cell_angle_gamma	84.256640
loop_
_atom_site_label
_atom_site_type_symbol
_atom_site_fract_x
_atom_site_fract_y
_atom_site_fract_z
O1	O	-1.112418	-0.190246	0.136487
O2	O	-0.612418	0.309754	0.636487
O3	O	-0.868822	-0.213709	0.136515
O4	O	-0.368822	0.286291	0.636515
O5	O	-0.995655	0.012783	0.136497
O6	O	-0.495655	0.512783	0.636497
O7	O	-0.985585	-0.416738	0.136505
O8	O	-0.485585	0.083262	0.636505
O9	O	-0.995651	0.012784	-0.136730
O10	O	-0.495651	0.512784	0.363270
O11	O	-0.868818	-0.213708	-0.136712
O12	O	-0.368818	0.286292	0.363288
O13	O	-1.112414	-0.190244	-0.136741
O14	O	-0.612414	0.309756	0.363259
Zn15	Zn	-0.990616	-0.201976	-0.180107
Zn16	Zn	-0.490616	0.298024	0.319893
Zn17	Zn	-0.990621	-0.201978	0.179882
Zn18	Zn	-0.490621	0.298022	0.679882
O19	O	-0.985581	-0.416737	-0.136722
O20	O	-0.485581	0.083263	0.363278
C21	C	-0.837618	-0.212735	-0.000094
C22	C	-0.337618	0.287265	0.499906
C23	C	-0.744646	-0.209818	-0.000083
C24	C	-0.244646	0.290182	0.499917
N25	N	-0.990618	-0.201974	-0.425789
N26	N	-0.490618	0.298026	0.074211
C27	C	-0.994686	0.067748	-0.000114
C28	C	-0.494686	0.567748	0.499886
C29	C	-0.991792	0.231523	-0.000106
C30	C	-0.491792	0.731523	0.499894
C31	C	-0.406821	-0.199339	-0.000123
C32	C	0.093179	0.300661	0.499877
C33	C	-0.453032	-0.038032	-0.000735
C34	C	0.046968	0.461968	0.499265
C35	C	-0.549744	-0.040951	-0.000106
C36	C	-0.049744	0.459049	0.499894
C37	C	-0.574420	-0.204537	-0.000104
C38	C	-0.074420	0.295463	0.499896
C39	C	-0.533939	-0.284098	0.155916
C40	C	-0.033939	0.215902	0.655916
C41	C	-0.437273	-0.280039	0.156033
C42	C	0.062727	0.219961	0.656033
C43	C	-0.436955	-0.283370	-0.154677
C44	C	0.063045	0.216630	0.345323
C45	C	-0.533900	-0.283339	-0.156726
C46	C	-0.033900	0.216661	0.343274
C47	C	-0.669140	-0.207483	-0.000088
C48	C	-0.169140	0.292517	0.499912
C49	C	-0.312102	-0.196398	-0.000129
C50	C	0.187898	0.303602	0.499871
C51	C	-0.143620	-0.191199	-0.000131
C52	C	0.356380	0.308801	0.499869
C53	C	-0.236595	-0.194058	-0.000145
C54	C	0.263405	0.305942	0.499855
C55	C	-0.986551	-0.471701	-0.000108
C56	C	-0.486551	0.028299	0.499892
C57	C	-0.989445	-0.635476	-0.000105
C58	C	-0.489445	-0.135476	0.499895
N59	N	-0.990625	-0.201969	0.425564
N60	N	-0.490625	0.298031	0.925564
H61	H	-0.434019	0.026450	-0.112624
H62	H	0.065981	0.526450	0.387376
H63	H	-0.432953	0.026152	0.110534
H64	H	0.067047	0.526152	0.610534
N65	N	-0.586025	0.042450	0.148289
N66	N	-0.086025	0.542450	0.648289
H67	H	-0.539182	0.081247	0.213556
H68	H	-0.039182	0.581247	0.713556
H69	H	-0.616395	-0.026394	0.219270
H70	H	-0.116395	0.473606	0.719270
H71	H	-0.561896	-0.228840	0.272029
H72	H	-0.061896	0.271160	0.772029
H73	H	-0.406096	-0.402301	-0.155732
H74	H	0.093904	0.097699	0.344268
N75	N	-0.553862	-0.443288	0.163634
N76	N	-0.053862	0.056712	0.663634
H77	H	-0.589405	-0.465416	0.065832
H78	H	-0.089405	0.034584	0.565832
H79	H	-0.585635	-0.459641	0.268209
H80	H	-0.085635	0.040359	0.768209
H81	H	-0.416018	-0.230631	-0.272938
H82	H	0.083982	0.269369	0.227062
N83	N	-0.555439	-0.441362	-0.169213
N84	N	-0.055439	0.058638	0.330787
H85	H	-0.586749	-0.454696	-0.275074
H86	H	-0.086749	0.045304	0.224926
H87	H	-0.591902	-0.464108	-0.073013
H88	H	-0.091902	0.035892	0.426987
H89	H	-0.418527	-0.222016	0.272662
H90	H	0.081473	0.277984	0.772662
H91	H	-0.577696	0.021589	-0.111949
H92	H	-0.077696	0.521589	0.388051
H93	H	-0.405923	-0.398468	0.163114
H94	H	0.094077	0.101532	0.663114
H95	H	-0.560774	-0.225259	-0.272149
H96	H	-0.060774	0.274741	0.227851
