data_functionalizedCrystal
_audit_creation_method	'MofGen! by Chris Wilmer'
_symmetry_space_group_name_H-M	'P1'
_symmetry_Int_Tables_number	1
_symmetry_cell_setting	triclinic
loop_
_symmetry_equiv_pos_as_xyz
  x,y,z
_cell_length_a	10.654545
_cell_length_b	10.654547
_cell_length_c	9.130313
_cell_angle_alpha	90.002666
_cell_angle_beta	90.003066
_cell_angle_gamma	84.483465
loop_
_atom_site_label
_atom_site_type_symbol
_atom_site_fract_x
_atom_site_fract_y
_atom_site_fract_z
O1	O	1.667841	0.176372	0.121778
O2	O	2.167841	0.676372	0.621778
O3	O	1.302362	0.193184	0.121784
O4	O	1.802362	0.693184	0.621784
O5	O	1.493506	0.002038	0.121778
O6	O	1.993506	0.502038	0.621778
O7	O	1.476697	0.367518	0.121784
O8	O	1.976697	0.867518	0.621784
O9	O	1.493493	0.002033	-0.121821
O10	O	1.993493	0.502033	0.378179
O11	O	1.302349	0.193178	-0.121815
O12	O	1.802349	0.693178	0.378185
O13	O	1.667828	0.176366	-0.121821
O14	O	2.167828	0.676366	0.378179
Cu15	Cu	1.485087	0.184772	-0.144060
Cu16	Cu	1.985087	0.684772	0.355940
Cu17	Cu	1.485103	0.184778	0.144024
Cu18	Cu	1.985103	0.684778	0.644024
O19	O	1.476683	0.367512	-0.121815
O20	O	1.976683	0.867512	0.378185
C21	C	1.255557	0.191948	-0.000015
C22	C	1.755557	0.691948	0.499985
C23	C	1.116114	0.188258	-0.000013
C24	C	1.616114	0.688258	0.499987
C25	C	1.050602	0.186518	-0.132799
C26	C	1.550602	0.686518	0.367201
C27	C	0.919582	0.183031	-0.132799
C28	C	1.419582	0.683031	0.367201
C29	C	0.919597	0.183028	0.132785
C30	C	1.419597	0.683028	0.632785
C31	C	1.050616	0.186507	0.132784
C32	C	1.550616	0.686507	0.632784
C33	C	1.714633	0.177602	-0.000019
C34	C	2.214633	0.677602	0.499981
C35	C	1.854076	0.181292	-0.000011
C36	C	2.354076	0.681292	0.499989
C37	C	1.492266	-0.044762	-0.000019
C38	C	1.992266	0.455238	0.499981
C39	C	1.488575	-0.184206	-0.000012
C40	C	1.988575	0.315794	0.499988
C41	C	1.477924	0.414313	-0.000015
C42	C	1.977924	0.914313	0.499985
C43	C	1.481614	0.553756	-0.000012
C44	C	1.981614	1.053756	0.499988
N45	N	1.485085	0.184766	-0.346683
N46	N	1.985085	0.684766	0.153317
C47	C	1.483357	0.619266	0.132775
C48	C	1.983357	1.119266	0.632775
C49	C	1.486842	0.750286	0.132776
C50	C	1.986842	1.250286	0.632776
C51	C	1.486836	0.750275	-0.132809
C52	C	1.986836	1.250275	0.367191
C53	C	1.483360	0.619256	-0.132808
C54	C	1.983360	1.119256	0.367192
C55	C	1.569753	0.100163	-0.423337
C56	C	2.069753	0.600163	0.076663
C57	C	1.569765	0.100163	-0.576674
C58	C	2.069765	0.600163	-0.076674
C59	C	1.400438	0.269381	-0.576689
C60	C	1.900438	0.769381	-0.076689
C61	C	1.400421	0.269374	-0.423355
C62	C	1.900421	0.769374	0.076645
N63	N	1.485114	0.184774	0.346646
N64	N	1.985114	0.684774	0.846646
H65	H	1.103957	0.187920	0.240921
H66	H	1.603957	0.687920	0.740921
H67	H	1.103927	0.187944	-0.240931
H68	H	1.603927	0.687944	0.259069
H69	H	1.481934	0.565940	0.240906
H70	H	1.981934	1.065940	0.740906
Cl71	Cl	0.837230	0.180846	-0.299739
Cl72	Cl	1.337230	0.680846	0.200261
H73	H	1.331507	0.338269	-0.639130
H74	H	1.831507	0.838269	-0.139130
H75	H	1.481945	0.565916	-0.240946
H76	H	1.981945	1.065916	0.259054
Cl77	Cl	1.489037	0.832635	0.299716
Cl78	Cl	1.989037	1.332635	0.799716
H79	H	1.488255	0.803621	-0.240927
H80	H	1.988255	1.303621	0.259073
H81	H	1.638690	0.031269	-0.360915
H82	H	2.138690	0.531269	0.139085
H83	H	1.331468	0.338269	-0.360938
H84	H	1.831468	0.838269	0.139062
H85	H	1.638707	0.031270	-0.639082
H86	H	2.138707	0.531270	-0.139082
H87	H	0.866253	0.181604	0.240904
H88	H	1.366253	0.681604	0.740904
