data_functionalizedCrystal
_audit_creation_method	'MofGen! by Chris Wilmer'
_symmetry_space_group_name_H-M	'P1'
_symmetry_Int_Tables_number	1
_symmetry_cell_setting	triclinic
loop_
_symmetry_equiv_pos_as_xyz
  x,y,z
_cell_length_a	21.295417
_cell_length_b	21.395364
_cell_length_c	21.395355
_cell_angle_alpha	90.025298
_cell_angle_beta	89.978549
_cell_angle_gamma	89.952792
loop_
_atom_site_label
_atom_site_type_symbol
_atom_site_fract_x
_atom_site_fract_y
_atom_site_fract_z
Zn1	Zn	-0.250402	-0.957860	-0.354261
Zn2	Zn	0.249598	-0.457860	0.145739
Zn3	Zn	-0.355653	-0.957763	-0.249478
Zn4	Zn	0.144347	-0.457763	0.250522
Zn5	Zn	-0.250432	-0.853075	-0.249497
Zn6	Zn	0.249568	-0.353075	0.250503
Zn7	Zn	-0.355668	-0.853045	-0.354217
Zn8	Zn	0.144332	-0.353045	0.145783
O9	O	-0.303039	-0.905436	-0.301863
O10	O	0.196961	-0.405436	0.198137
O11	O	-0.264345	-1.045525	-0.340372
O12	O	0.235655	-0.545525	0.159628
O13	O	-0.341702	-0.943848	-0.161803
O14	O	0.158298	-0.443848	0.338197
O15	O	-0.162339	-0.867028	-0.263420
O16	O	0.337661	-0.367028	0.236580
O17	O	-0.341672	-1.045454	-0.263389
O18	O	0.158328	-0.545454	0.236611
O19	O	-0.162316	-0.944014	-0.340390
O20	O	0.337684	-0.444014	0.159610
O21	O	-0.264397	-0.866934	-0.161816
O22	O	0.235603	-0.366934	0.338184
O23	O	-0.264411	-0.765393	-0.263377
O24	O	0.235589	-0.265393	0.236623
O25	O	-0.341697	-0.866977	-0.441901
O26	O	0.158303	-0.366977	0.058099
O27	O	-0.341727	-0.765371	-0.340315
O28	O	0.158273	-0.265371	0.159685
O29	O	-0.264359	-0.943984	-0.441933
O30	O	0.235641	-0.443984	0.058067
O31	O	-0.443744	-0.943818	-0.263346
O32	O	0.056256	-0.443818	0.236654
O33	O	-0.443755	-0.866882	-0.340297
O34	O	0.056245	-0.366882	0.159703
C35	C	-0.303074	-0.742648	-0.301844
C36	C	0.196926	-0.242648	0.198156
C37	C	-0.303105	-0.673007	-0.301850
C38	C	0.196895	-0.173007	0.198150
C39	C	-0.262907	-0.640353	-0.341997
C40	C	0.237093	-0.140353	0.158003
C41	C	-0.262892	-0.574918	-0.341998
C42	C	0.237108	-0.074918	0.158002
C43	C	-0.303086	-0.542138	-0.301860
C44	C	0.196914	-0.042138	0.198140
C45	C	-0.343287	-0.574800	-0.261705
C46	C	0.156713	-0.074800	0.238295
C47	C	-0.343296	-0.640234	-0.261700
C48	C	0.156704	-0.140234	0.238300
C49	C	-0.359779	-0.438414	-0.296818
C50	C	0.140221	0.061586	0.203182
C51	C	-0.359771	-0.372981	-0.296827
C52	C	0.140229	0.127019	0.203173
C53	C	-0.303058	-0.340318	-0.301871
C54	C	0.196942	0.159682	0.198129
C55	C	-0.246351	-0.373095	-0.306919
C56	C	0.253649	0.126905	0.193081
C57	C	-0.246360	-0.438529	-0.306914
C58	C	0.253640	0.061471	0.193086
C59	C	-0.303081	-0.471186	-0.301860
C60	C	0.196919	0.028814	0.198140
C61	C	-0.262841	-0.236712	-0.342022
C62	C	0.237159	0.263288	0.157978
C63	C	-0.262825	-0.171275	-0.342019
C64	C	0.237175	0.328725	0.157981
C65	C	-0.343225	-0.171158	-0.261729
C66	C	0.156775	0.328842	0.238271
C67	C	-0.343236	-0.236594	-0.261728
C68	C	0.156764	0.263406	0.238272
C69	C	-0.303044	-0.269366	-0.301878
C70	C	0.196956	0.230634	0.198122
C71	C	-0.466590	-0.905354	-0.301829
C72	C	0.033410	-0.405354	0.198171
C73	C	-0.536558	-0.905376	-0.301835
C74	C	-0.036558	-0.405376	0.198165
C75	C	-0.569399	-0.945472	-0.261807
C76	C	-0.069399	-0.445472	0.238193
C77	C	-0.635141	-0.945501	-0.261821
C78	C	-0.135141	-0.445501	0.238179
C79	C	-0.668041	-0.905423	-0.301856
C80	C	-0.168041	-0.405423	0.198144
C81	C	-0.635193	-0.865324	-0.341892
C82	C	-0.135193	-0.365324	0.158108
C83	C	-0.569452	-0.865300	-0.341881
C84	C	-0.069452	-0.365300	0.158119
N85	N	-0.771324	-0.850613	-0.306626
N86	N	-0.271324	-0.350613	0.193374
N87	N	-0.833775	-0.850638	-0.306633
N88	N	-0.333775	-0.350638	0.193367
C89	C	-0.866116	-0.905493	-0.301892
C90	C	-0.366116	-0.405493	0.198108
N91	N	-0.833645	-0.960325	-0.297133
N92	N	-0.333645	-0.460325	0.202867
N93	N	-0.771188	-0.960300	-0.297123
N94	N	-0.271188	-0.460300	0.202877
C95	C	-0.739326	-0.905445	-0.301873
C96	C	-0.239326	-0.405445	0.198127
C97	C	-0.970241	-0.945625	-0.261878
C98	C	-0.470241	-0.445625	0.238122
C99	C	-1.035985	-0.945655	-0.261896
C100	C	-0.535985	-0.445655	0.238104
C101	C	-1.036035	-0.865473	-0.341963
C102	C	-0.536035	-0.365473	0.158037
C103	C	-0.970293	-0.865448	-0.341948
C104	C	-0.470293	-0.365448	0.158052
C105	C	-0.937400	-0.905523	-0.301902
C106	C	-0.437400	-0.405523	0.198098
C107	C	-0.138848	-0.905535	-0.301912
C108	C	0.361152	-0.405535	0.198088
C109	C	-0.068880	-0.905578	-0.301933
C110	C	0.431120	-0.405578	0.198067
C111	C	-0.303026	-0.905488	-0.465287
C112	C	0.196974	-0.405488	0.034713
C113	C	-0.303020	-0.905510	-0.534928
C114	C	0.196980	-0.405510	-0.034928
C115	C	-0.303011	-0.068859	-0.301880
C116	C	0.196989	0.431141	0.198120
C117	C	-0.303019	-0.138500	-0.301879
C118	C	0.196981	0.361500	0.198121
C119	C	-0.262749	-0.945606	-0.567659
C120	C	0.237251	-0.445606	-0.067659
C121	C	-0.262722	-0.945605	-0.633094
C122	C	0.237278	-0.445605	-0.133094
C123	C	-0.302978	-0.905515	-0.665796
C124	C	0.197022	-0.405515	-0.165796
C125	C	-0.343252	-0.865411	-0.633057
C126	C	0.156748	-0.365411	-0.133057
C127	C	-0.343274	-0.865408	-0.567623
C128	C	0.156726	-0.365408	-0.067623
C129	C	-0.359659	-0.900539	-0.769459
C130	C	0.140341	-0.400539	-0.269459
C131	C	-0.359639	-0.900546	-0.834892
C132	C	0.140361	-0.400546	-0.334892
C133	C	-0.302911	-0.905519	-0.867617
C134	C	0.197089	-0.405519	-0.367617
C135	C	-0.246202	-0.910498	-0.834901
C136	C	0.253798	-0.410498	-0.334901
C137	C	-0.246223	-0.910495	-0.769467
C138	C	0.253777	-0.410495	-0.269467
C139	C	-0.302959	-0.905513	-0.736749
C140	C	0.197041	-0.405513	-0.236749
C141	C	-0.262606	-0.945616	-0.971301
C142	C	0.237394	-0.445616	-0.471301
C143	C	-0.262578	-0.945611	-1.036737
C144	C	0.237422	-0.445611	-0.536737
C145	C	-0.343115	-0.865420	-1.036699
C146	C	0.156885	-0.365420	-0.536699
C147	C	-0.343137	-0.865422	-0.971264
C148	C	0.156863	-0.365422	-0.471264
C149	C	-0.302884	-0.905523	-0.938569
C150	C	0.197116	-0.405523	-0.438569
C151	C	-0.303006	-0.905420	-0.139076
C152	C	0.196994	-0.405420	0.360924
C153	C	-0.302834	-0.905519	-0.069435
C154	C	0.197166	-0.405519	0.430565
H155	H	-0.200188	-0.465214	-0.311022
H156	H	0.299812	0.034786	0.188978
H157	H	-0.405842	-0.896322	-0.742820
H158	H	0.094158	-0.396322	-0.242820
Cl159	Cl	-0.212000	-0.996025	-0.930195
Cl160	Cl	0.288000	-0.496025	-0.430195
Cl161	Cl	-0.431059	-0.331782	-0.290492
Cl162	Cl	0.068941	0.168218	0.209508
Cl163	Cl	-0.393833	-0.681287	-0.211224
Cl164	Cl	0.106167	-0.181287	0.288776
H165	H	-0.375935	-0.832775	-0.944614
H166	H	0.124065	-0.332775	-0.444614
Cl167	Cl	-0.431082	-0.479470	-0.290468
Cl168	Cl	0.068918	0.020530	0.209532
Cl169	Cl	-0.528051	-0.995861	-0.211473
Cl170	Cl	-0.028051	-0.495861	0.288527
Cl171	Cl	-0.928887	-0.996004	-0.211535
Cl172	Cl	-0.428887	-0.496004	0.288465
H173	H	-0.375952	-0.144470	-0.229047
H174	H	0.124048	0.355530	0.270953
H175	H	-0.405815	-0.896495	-0.861524
H176	H	0.094185	-0.396495	-0.361524
H177	H	-1.062722	-0.978310	-0.229303
H178	H	-0.562722	-0.478310	0.270697
Cl179	Cl	-0.929006	-0.815035	-0.392268
Cl180	Cl	-0.429006	-0.315035	0.107732
Cl181	Cl	-0.393857	-0.815009	-0.674167
Cl182	Cl	0.106143	-0.315009	-0.174167
H183	H	-0.229781	-0.978261	-1.063386
H184	H	0.270219	-0.478261	-0.563386
Cl185	Cl	-0.174936	-0.916750	-0.728341
Cl186	Cl	0.325064	-0.416750	-0.228341
Cl187	Cl	-0.393814	-0.533593	-0.211242
Cl188	Cl	0.106186	-0.033593	0.288758
H189	H	-0.230111	-0.263397	-0.374710
H190	H	0.269889	0.236603	0.125290
H191	H	-0.229971	-0.978259	-0.541042
H192	H	0.270029	-0.478259	-0.041042
Cl193	Cl	-0.212283	-0.130224	-0.392491
Cl194	Cl	0.287717	0.369776	0.107509
Cl195	Cl	-0.676435	-0.995911	-0.211496
Cl196	Cl	-0.176435	-0.495911	0.288504
Cl197	Cl	-0.212078	-0.996003	-0.674251
Cl198	Cl	0.287922	-0.496003	-0.174251
Cl199	Cl	-0.174882	-0.916752	-0.876034
Cl200	Cl	0.325118	-0.416752	-0.376034
H201	H	-0.661984	-0.832694	-0.374489
H202	H	-0.161984	-0.332694	0.125511
H203	H	-0.542712	-0.832649	-0.374477
H204	H	-0.042712	-0.332649	0.125523
Cl205	Cl	-1.077389	-0.815092	-0.392298
Cl206	Cl	-0.577389	-0.315092	0.107702
Cl207	Cl	-0.393717	-0.815014	-1.077804
Cl208	Cl	0.106283	-0.315014	-0.577804
H209	H	-0.230180	-0.667033	-0.374689
H210	H	0.269820	-0.167033	0.125311
Cl211	Cl	-0.175049	-0.332040	-0.313259
Cl212	Cl	0.324951	0.167960	0.186741
Cl213	Cl	-0.212354	-0.533859	-0.392472
Cl214	Cl	0.287646	-0.033859	0.107528
Cl215	Cl	-0.393770	-0.277646	-0.211252
Cl216	Cl	0.106230	0.222354	0.288748
H217	H	-0.376067	-0.832755	-0.540974
H218	H	0.123933	-0.332755	-0.040974
