data_functionalizedCrystal
_audit_creation_method	'MofGen! by Chris Wilmer'
_symmetry_space_group_name_H-M	'P1'
_symmetry_Int_Tables_number	1
_symmetry_cell_setting	triclinic
loop_
_symmetry_equiv_pos_as_xyz
  x,y,z
_cell_length_a	12.594517
_cell_length_b	12.594516
_cell_length_c	12.594509
_cell_angle_alpha	89.973801
_cell_angle_beta	90.021327
_cell_angle_gamma	89.984147
loop_
_atom_site_label
_atom_site_type_symbol
_atom_site_fract_x
_atom_site_fract_y
_atom_site_fract_z
Zn1	Zn	1.627267	0.423716	0.601875
Zn2	Zn	1.627158	0.601726	0.423903
Zn3	Zn	1.449271	0.423761	0.423904
Zn4	Zn	1.449253	0.601652	0.601833
O5	O	1.538237	0.512714	0.512879
O6	O	1.776198	0.447341	0.578284
O7	O	1.603522	0.578169	0.274957
O8	O	1.472936	0.274809	0.447530
O9	O	1.776118	0.578124	0.447528
O10	O	1.603709	0.274776	0.578285
O11	O	1.472830	0.447419	0.274958
O12	O	1.300323	0.447347	0.447489
O13	O	1.472905	0.577998	0.750784
O14	O	1.300310	0.578042	0.578213
O15	O	1.603691	0.447269	0.750815
O16	O	1.603505	0.750662	0.447488
O17	O	1.472799	0.750608	0.578212
C18	C	1.261696	0.512692	0.512847
C19	C	1.143391	0.512709	0.512859
C20	C	1.538167	0.789255	0.512868
C21	C	1.538235	0.907560	0.512899
C22	C	1.074114	0.441526	0.441894
C23	C	1.003303	0.538615	0.415718
C24	C	1.003403	0.415668	0.539054
C25	C	1.074138	0.609849	0.486632
C26	C	1.074244	0.486836	0.610013
C27	C	1.003465	0.583991	0.583874
C28	C	1.538308	0.512620	0.790500
C29	C	1.538339	0.512581	0.908805
C30	C	1.815858	0.512736	0.512911
C31	C	1.934163	0.512745	0.512924
C32	C	1.538336	0.235093	0.512912
C33	C	1.538378	0.116787	0.512927
C34	C	1.467137	0.976822	0.583950
C35	C	1.441204	1.047688	0.486827
C36	C	1.564265	1.047494	0.610039
C37	C	1.512250	0.976867	0.415725
C38	C	1.635357	0.976667	0.539002
C39	C	1.609460	1.047500	0.441812
C40	C	1.538227	0.512730	0.236338
C41	C	1.538403	0.512470	0.118033
C42	C	1.467227	0.583644	0.978042
C43	C	1.564347	0.609650	1.048833
C44	C	1.441294	0.486510	1.048813
C45	C	1.635510	0.538638	0.978038
C46	C	1.512391	0.415453	0.978012
C47	C	1.609579	0.441422	1.048772
H48	H	0.972144	0.560522	0.333584
O49	O	1.111405	0.460485	0.707936
C50	C	1.117538	0.328372	0.846257
C51	C	1.075400	0.358085	0.735342
H52	H	1.088427	0.245591	0.868458
H53	H	1.208048	0.329306	0.845493
H54	H	1.087273	0.388270	0.906970
H55	H	1.105587	0.298217	0.674567
H56	H	0.984892	0.357186	0.736194
H57	H	0.972639	0.644273	0.643914
H58	H	1.359136	1.078906	0.464772
H59	H	0.972276	0.333597	0.561146
O60	O	1.681143	1.084251	0.369923
C61	C	1.734772	1.089713	0.186365
C62	C	1.653510	1.048041	0.267665
H63	H	1.712473	1.060436	0.103674
H64	H	1.734801	1.180227	0.187299
H65	H	1.817255	1.059266	0.207954
H66	H	1.570987	1.078410	0.246132
H67	H	1.653574	0.957528	0.266715
H68	H	1.586224	1.078518	0.692178
H69	H	1.407136	0.643833	0.946986
O70	O	1.733207	0.939466	0.565552
C71	C	1.871231	0.933232	0.697958
C72	C	1.760398	0.975414	0.668021
H73	H	1.893258	0.962297	0.780796
H74	H	1.870435	0.842722	0.696996
H75	H	1.932088	0.963509	0.638200
H76	H	1.699478	0.945215	0.727749
H77	H	1.761281	1.065922	0.668950
O78	O	1.590397	0.707646	1.085904
C79	C	1.544920	0.893403	1.091872
C80	C	1.515292	0.782479	1.049845
H81	H	1.484227	0.953939	1.062717
H82	H	1.545406	0.892277	1.182383
H83	H	1.627118	0.916121	1.061567
H84	H	1.433088	0.759692	1.080072
H85	H	1.514879	0.783664	0.959335
O86	O	1.111219	0.707726	0.460087
C87	C	1.265019	0.817531	0.430342
C88	C	1.223166	0.706634	0.460395
H89	H	1.355532	0.816691	0.430602
H90	H	1.235243	0.839770	0.347781
H91	H	1.235254	0.878259	0.490474
H92	H	1.252914	0.645832	0.400335
H93	H	1.252933	0.684486	0.542982
O94	O	1.486325	0.317518	0.940812
C95	C	1.540945	0.166360	0.837081
C96	C	1.570627	0.277249	0.879163
H97	H	1.609078	0.133779	0.787212
H98	H	1.525312	0.110745	0.906784
H99	H	1.466427	0.172499	0.786032
H100	H	1.645161	0.271213	0.930196
H101	H	1.586192	0.332822	0.809413
H102	H	1.406905	0.945788	0.643949
H103	H	1.717631	0.560736	0.947080
O104	O	1.343276	0.460376	1.085778
C105	C	1.157528	0.505884	1.091812
C106	C	1.268469	0.535575	1.049863
H107	H	1.097020	0.566679	1.062811
H108	H	1.134709	0.423741	1.061438
H109	H	1.158742	0.505287	1.182320
H110	H	1.267341	0.536234	0.959358
H111	H	1.291245	0.617700	1.080318
H112	H	1.105135	0.381389	0.381807
O113	O	1.681577	0.369792	1.085548
C114	C	1.865206	0.316282	1.090963
C115	C	1.783783	0.397485	1.049261
H116	H	1.947855	0.338629	1.061623
H117	H	1.864311	0.316266	1.181477
H118	H	1.843710	0.233779	1.060601
H119	H	1.805223	0.480026	1.079545
H120	H	1.784694	0.397407	0.958748
O121	O	1.485907	0.939841	0.317780
C122	C	1.456340	0.786102	0.207867
C123	C	1.486168	0.827893	0.318839
H124	H	1.456563	0.695589	0.208680
H125	H	1.373839	0.815913	0.185465
H126	H	1.516616	0.815879	0.147274
H127	H	1.425964	0.798134	0.379506
H128	H	1.568696	0.798091	0.341151
