data_functionalizedCrystal
_audit_creation_method	'MofGen! by Chris Wilmer'
_symmetry_space_group_name_H-M	'P1'
_symmetry_Int_Tables_number	1
_symmetry_cell_setting	triclinic
loop_
_symmetry_equiv_pos_as_xyz
  x,y,z
_cell_length_a	16.120444
_cell_length_b	16.120542
_cell_length_c	11.169409
_cell_angle_alpha	87.078149
_cell_angle_beta	87.138527
_cell_angle_gamma	89.835691
loop_
_atom_site_label
_atom_site_type_symbol
_atom_site_fract_x
_atom_site_fract_y
_atom_site_fract_z
Zn1	Zn	-0.395619	-1.254504	0.798975
Zn2	Zn	-0.534698	-1.247336	0.607898
Zn3	Zn	-0.388597	-1.115434	0.587641
Zn4	Zn	-0.527562	-1.108353	0.797873
O5	O	-0.461619	-1.181407	0.698097
O6	O	-0.419993	-1.369919	0.782566
O7	O	-0.515365	-1.229802	0.437262
O8	O	-0.273166	-1.139845	0.607658
O9	O	-0.522174	-1.364652	0.642183
O10	O	-0.278325	-1.242019	0.762924
O11	O	-0.408025	-1.132894	0.422379
O12	O	-0.401106	-0.998129	0.606591
O13	O	-0.510011	-1.127777	0.965969
O14	O	-0.503203	-0.992927	0.761047
O15	O	-0.413073	-1.235153	0.966778
O16	O	-0.650113	-1.222936	0.641116
O17	O	-0.644871	-1.120827	0.780690
C18	C	-0.450619	-0.965355	0.681502
C19	C	-0.445933	-0.872927	0.674433
C20	C	-0.677664	-1.170358	0.713009
C21	C	-0.770094	-1.165707	0.719435
C22	C	-0.485901	-0.659959	0.734701
C23	C	-0.437385	-0.703703	0.661524
C24	C	-0.442142	-0.797868	0.668709
C25	C	-0.481145	-0.565786	0.727518
C26	C	-0.983075	-1.205735	0.665038
C27	C	-0.939319	-1.157232	0.731180
C28	C	-0.845153	-1.161949	0.724643
C29	C	-1.077249	-1.201019	0.671574
C30	C	-0.244730	-1.192521	0.683155
C31	C	-0.152306	-1.197257	0.676787
C32	C	-0.461530	-1.181475	1.011138
C33	C	-0.461492	-1.181504	1.144537
C34	C	-0.472658	-0.398302	0.714740
C35	C	-0.477351	-0.490730	0.721789
C36	C	-0.461650	-1.181389	0.386273
C37	C	-0.461462	-1.181533	0.252871
H38	H	-0.392276	-0.670433	0.593480
H39	H	-0.531007	-0.693227	0.802739
H40	H	-0.949820	-1.250799	0.603507
H41	H	-0.972578	-1.112164	0.792714
