data_functionalizedCrystal
_audit_creation_method	'MofGen! by Chris Wilmer'
_symmetry_space_group_name_H-M	'P1'
_symmetry_Int_Tables_number	1
_symmetry_cell_setting	triclinic
loop_
_symmetry_equiv_pos_as_xyz
  x,y,z
_cell_length_a	11.792241
_cell_length_b	11.792253
_cell_length_c	11.295443
_cell_angle_alpha	85.417735
_cell_angle_beta	94.569101
_cell_angle_gamma	95.803993
loop_
_atom_site_label
_atom_site_type_symbol
_atom_site_fract_x
_atom_site_fract_y
_atom_site_fract_z
O1	O	1.513770	-0.162427	0.098927
O2	O	2.013770	0.337573	0.598927
O3	O	1.183432	-0.178462	0.098956
O4	O	1.683432	0.321538	0.598956
O5	O	1.356608	-0.005273	0.098916
O6	O	1.856608	0.494727	0.598916
O7	O	1.340594	-0.335616	0.098967
O8	O	1.840594	0.164384	0.598967
O9	O	1.342871	0.008467	-0.099137
O10	O	1.842871	0.508467	0.400863
O11	O	1.169694	-0.164722	-0.099097
O12	O	1.669694	0.335278	0.400903
O13	O	1.500032	-0.148687	-0.099127
O14	O	2.000032	0.351313	0.400873
Cu15	Cu	1.333609	-0.155450	-0.117196
Cu16	Cu	1.833609	0.344550	0.382804
Cu17	Cu	1.349855	-0.171699	0.117025
Cu18	Cu	1.849855	0.328301	0.617025
O19	O	1.326856	-0.321876	-0.099086
O20	O	1.826856	0.178124	0.400914
C21	C	1.134272	-0.170585	-0.000067
C22	C	1.634272	0.329415	0.499933
C23	C	1.008259	-0.167572	-0.000057
C24	C	1.508259	0.332428	0.499943
C25	C	1.348730	0.043888	-0.000114
C26	C	1.848730	0.543888	0.499886
C27	C	1.345709	0.169901	-0.000125
C28	C	1.845709	0.669901	0.499875
N29	N	1.322190	-0.144021	-0.281934
N30	N	1.822190	0.355979	0.218066
C31	C	0.777544	-0.162026	-0.000092
C32	C	1.277544	0.337974	0.499908
C33	C	0.905931	-0.165107	-0.000073
C34	C	1.405931	0.334893	0.499927
C35	C	1.549192	-0.156564	-0.000101
C36	C	2.049192	0.343436	0.499899
C37	C	1.675206	-0.159579	-0.000103
C38	C	2.175206	0.340421	0.499897
C39	C	1.343255	0.272238	-0.000131
C40	C	1.843255	0.772238	0.499869
C41	C	1.340186	0.400625	-0.000132
C42	C	1.840186	0.900625	0.499868
C43	C	1.334733	0.628965	-0.000078
C44	C	1.834733	1.128965	0.499922
C45	C	1.337749	0.502955	-0.000133
C46	C	1.837749	1.002955	0.499867
C47	C	1.240002	-0.061763	-0.468970
C48	C	1.740002	0.438237	0.031030
C49	C	1.248621	-0.070397	-0.344305
C50	C	1.748621	0.429603	0.155695
C51	C	1.387147	-0.209014	-0.344238
C52	C	1.887147	0.290986	0.155762
C53	C	1.378528	-0.200380	-0.468903
C54	C	1.878528	0.299620	0.031097
C55	C	1.304951	-0.126754	-0.531265
C56	C	1.804951	0.373246	-0.031265
C57	C	1.296326	-0.118127	-0.655932
C58	C	1.796326	0.381873	-0.155932
C59	C	1.434858	-0.256737	-0.655863
C60	C	1.934858	0.243263	-0.155863
C61	C	1.443477	-0.265370	-0.531198
C62	C	1.943477	0.234630	-0.031198
N63	N	1.361283	-0.183119	0.281764
N64	N	1.861283	0.316881	0.781764
H65	H	1.180083	-0.001824	-0.519746
H66	H	1.680083	0.498176	-0.019746
Br67	Br	1.196469	-0.018213	-0.740566
Br68	Br	1.696469	0.481787	-0.240566
Br69	Br	1.160477	0.017813	-0.259764
Br70	Br	1.660477	0.517813	0.240236
H71	H	1.447060	-0.268946	-0.293441
H72	H	1.947060	0.231054	0.206559
H73	H	1.503385	-0.325312	-0.480406
H74	H	2.003385	0.174688	0.019594
Br75	Br	1.523004	-0.344949	-0.740412
Br76	Br	2.023004	0.155051	-0.240412
