data_functionalizedCrystal
_audit_creation_method	'MofGen! by Chris Wilmer'
_symmetry_space_group_name_H-M	'P1'
_symmetry_Int_Tables_number	1
_symmetry_cell_setting	triclinic
loop_
_symmetry_equiv_pos_as_xyz
  x,y,z
_cell_length_a	12.759400
_cell_length_b	12.759401
_cell_length_c	12.759393
_cell_angle_alpha	90.022497
_cell_angle_beta	89.976116
_cell_angle_gamma	89.995733
loop_
_atom_site_label
_atom_site_type_symbol
_atom_site_fract_x
_atom_site_fract_y
_atom_site_fract_z
Zn1	Zn	-0.418192	-1.606349	-0.594112
Zn2	Zn	-0.593908	-1.606274	-0.418453
Zn3	Zn	-0.418246	-1.430647	-0.418442
Zn4	Zn	-0.593832	-1.430674	-0.594085
O5	O	-0.506045	-1.518486	-0.506273
O6	O	-0.441511	-1.753360	-0.570826
O7	O	-0.570660	-1.582935	-0.271430
O8	O	-0.271218	-1.453975	-0.441753
O9	O	-0.570608	-1.753305	-0.441770
O10	O	-0.271178	-1.583061	-0.570816
O11	O	-0.441602	-1.453902	-0.271423
O12	O	-0.441529	-1.283630	-0.441726
O13	O	-0.570479	-1.454019	-0.741110
O14	O	-0.570531	-1.283649	-0.570770
O15	O	-0.441437	-1.583087	-0.741130
O16	O	-0.740919	-1.582960	-0.441743
O17	O	-0.740863	-1.453947	-0.570780
C18	C	-0.506028	-1.245519	-0.506245
C19	C	-0.506047	-1.128742	-0.506258
C20	C	-0.573320	-1.073918	-0.573343
C21	C	-0.573323	-0.964194	-0.573361
C22	C	-0.438776	-0.964128	-0.439198
C23	C	-0.438769	-1.073850	-0.439187
C24	C	-0.779012	-1.518477	-0.506283
C25	C	-0.895789	-1.518569	-0.506322
C26	C	-0.232011	-1.518523	-0.506286
C27	C	-0.115235	-1.518539	-0.506292
C28	C	-0.060392	-1.451342	-0.439101
C29	C	0.049332	-1.451354	-0.439118
C30	C	0.049361	-1.585770	-0.573520
C31	C	-0.060361	-1.585752	-0.573508
C32	C	-0.505944	-1.518565	-0.780306
C33	C	-0.505901	-1.518598	-0.897083
C34	C	-0.506059	-0.792519	-0.506295
C35	C	-0.506057	-0.909296	-0.506287
C36	C	-0.438698	-1.585808	-0.951957
C37	C	-0.438653	-1.585826	-1.061681
C38	C	-0.573022	-1.451420	-1.061648
C39	C	-0.573061	-1.451398	-0.951926
C40	C	-0.506069	-1.518468	-0.233306
C41	C	-0.505816	-1.518638	-0.116529
H42	H	-0.384002	-0.919421	-0.384590
H43	H	0.093983	-1.396634	-0.384407
Br44	Br	-0.347550	-1.677006	-0.877531
Br45	Br	-0.134860	-1.360123	-0.347883
H46	H	-0.627704	-1.396710	-1.106314
Br47	Br	0.123838	-1.676979	-0.664740
Br48	Br	-0.347453	-1.148262	-0.348145
H49	H	-0.383928	-1.640554	-1.106355
H50	H	-0.627785	-1.396660	-0.907246
H51	H	-0.628099	-1.118607	-0.627960
Br52	Br	-0.664621	-0.889793	-0.664415
H53	H	-0.105016	-1.640472	-0.628230
