data_functionalizedCrystal
_audit_creation_method	'MofGen! by Chris Wilmer'
_symmetry_space_group_name_H-M	'P1'
_symmetry_Int_Tables_number	1
_symmetry_cell_setting	triclinic
loop_
_symmetry_equiv_pos_as_xyz
  x,y,z
_cell_length_a	17.766277
_cell_length_b	27.731988
_cell_length_c	19.288865
_cell_angle_alpha	97.122694
_cell_angle_beta	89.988397
_cell_angle_gamma	89.997486
loop_
_atom_site_label
_atom_site_type_symbol
_atom_site_fract_x
_atom_site_fract_y
_atom_site_fract_z
O1	O	-0.062394	-0.641198	0.082452
O2	O	0.270939	-0.307865	0.415786
O3	O	0.604273	0.025468	0.749119
O4	O	-0.062443	-0.500439	0.095062
O5	O	0.270891	-0.167106	0.428396
O6	O	0.604224	0.166228	0.761729
O7	O	-0.062402	-0.574886	-0.012400
O8	O	0.270931	-0.241553	0.320934
O9	O	0.604265	0.091781	0.654267
O10	O	-0.062435	-0.566751	0.189914
O11	O	0.270899	-0.233418	0.523248
O12	O	0.604232	0.099915	0.856581
O13	O	0.062786	-0.574873	-0.012405
O14	O	0.396120	-0.241540	0.320928
O15	O	0.729453	0.091794	0.654262
O16	O	0.062746	-0.500426	0.095057
O17	O	0.396079	-0.167093	0.428390
O18	O	0.729413	0.166241	0.761724
O19	O	0.062794	-0.641185	0.082447
O20	O	0.396128	-0.307852	0.415780
O21	O	0.729461	0.025481	0.749114
Cu22	Cu	0.074201	-0.570804	0.088752
Cu23	Cu	0.407534	-0.237471	0.422085
Cu24	Cu	0.740868	0.095862	0.755418
Cu25	Cu	-0.073849	-0.570820	0.088758
Cu26	Cu	0.259484	-0.237487	0.422091
Cu27	Cu	0.592818	0.095847	0.755425
O28	O	0.062754	-0.566738	0.189909
O29	O	0.396087	-0.233405	0.523242
O30	O	0.729421	0.099928	0.856576
C31	C	0.000146	-0.482424	0.094801
C32	C	0.333479	-0.149091	0.428135
C33	C	0.666812	0.184242	0.761468
C34	C	0.000128	-0.428765	0.094024
C35	C	0.333461	-0.095432	0.427357
C36	C	0.666795	0.237901	0.760690
N37	N	0.178331	-0.570797	0.088747
N38	N	0.511665	-0.237464	0.422080
N39	N	0.844998	0.095870	0.755413
C40	C	0.000194	-0.574618	-0.038277
C41	C	0.333528	-0.241284	0.295056
C42	C	0.666861	0.092049	0.628390
C43	C	0.000201	-0.573832	-0.115375
C44	C	0.333534	-0.240499	0.217958
C45	C	0.666867	0.092835	0.551291
N46	N	-0.177979	-0.570831	0.088757
N47	N	0.155354	-0.237498	0.422091
N48	N	0.488687	0.095836	0.755424
C49	C	0.217736	-0.603773	0.041186
C50	C	0.551069	-0.270440	0.374519
C51	C	0.884403	0.062894	0.707852
C52	C	0.296538	-0.603776	0.041182
C53	C	0.629871	-0.270442	0.374516
C54	C	0.963205	0.062891	0.707849
C55	C	0.335932	-0.570807	0.088752
C56	C	0.669265	-0.237474	0.422085
C57	C	1.002598	0.095859	0.755419
C58	C	0.296517	-0.537825	0.136317
C59	C	0.629851	-0.204492	0.469650
C60	C	0.963184	0.128841	0.802983
C61	C	0.217717	-0.537820	0.136314
C62	C	0.551050	-0.204487	0.469647
C63	C	0.884384	0.128846	0.802981
C64	C	0.460758	-0.564336	0.152082
C65	C	0.794092	-0.231003	0.485415
C66	C	1.127425	0.102331	0.818749
C67	C	0.539557	-0.564344	0.152086
C68	C	0.872890	-0.231011	0.485419
C69	C	1.206224	0.102322	0.818752
C70	C	0.578978	-0.570820	0.088760
C71	C	0.912311	-0.237487	0.422094
C72	C	1.245645	0.095846	0.755427
C73	C	0.539591	-0.577298	0.025429
C74	C	0.872924	-0.243964	0.358762
C75	C	1.206257	0.089369	0.692095
C76	C	0.460790	-0.577293	0.025426
C77	C	0.794124	-0.243959	0.358759
C78	C	1.127457	0.089374	0.692093
C79	C	0.421377	-0.570809	0.088760
C80	C	0.754711	-0.237476	0.422093
C81	C	1.088044	0.095858	0.755427
C82	C	0.703829	-0.603801	0.041192
C83	C	1.037162	-0.270468	0.374525
C84	C	1.370496	0.062866	0.707859
C85	C	0.782632	-0.603800	0.041188
C86	C	1.115965	-0.270467	0.374521
C87	C	1.449299	0.062866	0.707854
C88	C	0.782610	-0.537852	0.136328
C89	C	1.115943	-0.204519	0.469662
C90	C	1.449277	0.128814	0.802995
C91	C	0.703808	-0.537851	0.136326
C92	C	1.037142	-0.204517	0.469660
C93	C	1.370475	0.128816	0.802993
C94	C	0.664423	-0.570827	0.088759
C95	C	0.997756	-0.237494	0.422092
C96	C	1.331089	0.095839	0.755426
C97	C	-0.068079	-0.045594	0.088388
C98	C	0.265255	0.287739	0.421722
C99	C	0.598588	0.621072	0.755055
C100	C	-0.068098	-0.247261	0.091353
C101	C	0.265236	0.086072	0.424687
C102	C	0.598569	0.419405	0.758020
O103	O	-0.126134	-0.273342	0.091711
O104	O	0.207199	0.059992	0.425044
O105	O	0.540532	0.393325	0.758378
N106	N	0.000141	-0.272476	0.091721
N107	N	0.333475	0.060858	0.425055
N108	N	0.666808	0.394191	0.758388
C109	C	0.068390	-0.247271	0.091344
C110	C	0.401723	0.086063	0.424677
C111	C	0.735057	0.419396	0.758010
O112	O	0.126431	-0.273345	0.091717
O113	O	0.459764	0.059988	0.425051
O114	O	0.793097	0.393322	0.758384
C115	C	0.068408	-0.045605	0.088374
C116	C	0.401741	0.287728	0.421707
C117	C	0.735075	0.621062	0.755040
C118	C	0.000165	-0.020393	0.088013
C119	C	0.333498	0.312941	0.421346
C120	C	0.666831	0.646274	0.754679
C121	C	-0.136316	-0.020382	0.088026
C122	C	0.197017	0.312951	0.421360
C123	C	0.530350	0.646285	0.754693
C124	C	-0.136311	0.030032	0.087289
C125	C	0.197022	0.363365	0.420622
C126	C	0.530356	0.696699	0.753956
C127	C	-0.068068	0.055234	0.086913
C128	C	0.265266	0.388567	0.420247
C129	C	0.598599	0.721900	0.753580
C130	C	0.000170	0.030021	0.087275
C131	C	0.333503	0.363355	0.420609
C132	C	0.666837	0.696688	0.753942
C133	C	0.136656	-0.020401	0.087991
C134	C	0.469989	0.312932	0.421324
C135	C	0.803322	0.646265	0.754657
C136	C	0.136654	0.030018	0.087246
C137	C	0.469988	0.363351	0.420580
C138	C	0.803321	0.696685	0.753913
C139	C	0.068411	0.055230	0.086885
C140	C	0.401744	0.388564	0.420219
C141	C	0.735078	0.721897	0.753552
C142	C	0.068419	0.105637	0.086162
C143	C	0.401752	0.438970	0.419495
C144	C	0.735085	0.772304	0.752829
N145	N	0.000180	0.130851	0.085794
N146	N	0.333513	0.464185	0.419127
N147	N	0.666847	0.797518	0.752461
C148	C	-0.068063	0.105650	0.086170
C149	C	0.265270	0.438983	0.419503
C150	C	0.598603	0.772316	0.752836
C151	C	0.068375	-0.353148	0.092904
C152	C	0.401709	-0.019814	0.426238
C153	C	0.735042	0.313519	0.759571
C154	C	0.068371	-0.403564	0.093648
C155	C	0.401704	-0.070230	0.426981
C156	C	0.735038	0.263103	0.760315
C157	C	-0.068117	-0.403551	0.093656
C158	C	0.265217	-0.070218	0.426990
C159	C	0.598550	0.263116	0.760323
C160	C	-0.068111	-0.353134	0.092918
C161	C	0.265222	-0.019800	0.426251
C162	C	0.598555	0.313533	0.759584
C163	C	0.000137	-0.327933	0.092536
C164	C	0.333470	0.005400	0.425869
C165	C	0.666803	0.338733	0.759203
C166	C	-0.068047	0.211523	0.084622
C167	C	0.265287	0.544856	0.417955
C168	C	0.598620	0.878190	0.751288
C169	C	-0.068035	0.261942	0.083887
C170	C	0.265298	0.595275	0.417220
C171	C	0.598631	0.928608	0.750554
C172	C	0.068452	0.261924	0.083875
C173	C	0.401785	0.595258	0.417208
C174	C	0.735119	0.928591	0.750542
C175	C	0.068441	0.211510	0.084613
C176	C	0.401774	0.544844	0.417947
C177	C	0.735108	0.878177	0.751280
C178	C	0.000185	0.186311	0.084984
C179	C	0.333519	0.519644	0.418318
C180	C	0.666852	0.852977	0.751651
O181	O	0.126425	0.131748	0.085796
O182	O	0.459759	0.465081	0.419129
O183	O	0.793092	0.798414	0.752463
O184	O	-0.126096	0.131731	0.085780
O185	O	0.207238	0.465065	0.419113
O186	O	0.540571	0.798398	0.752447
C187	C	-0.068084	-0.096008	0.089126
C188	C	0.265249	0.237325	0.422459
C189	C	0.598583	0.570658	0.755792
C190	C	0.000154	-0.121221	0.089487
C191	C	0.333487	0.212113	0.422821
C192	C	0.666820	0.545446	0.756154
C193	C	0.068397	-0.096019	0.089112
C194	C	0.401730	0.237314	0.422445
C195	C	0.735064	0.570648	0.755778
C196	C	0.000149	-0.171637	0.090231
C197	C	0.333483	0.161697	0.423564
C198	C	0.666816	0.495030	0.756898
C199	C	-0.068094	-0.196838	0.090607
C200	C	0.265240	0.136495	0.423940
C201	C	0.598573	0.469828	0.757273
C202	C	-0.136333	-0.171624	0.090239
C203	C	0.197001	0.161709	0.423572
C204	C	0.530334	0.495043	0.756905
C205	C	-0.136327	-0.121210	0.089501
C206	C	0.197006	0.212123	0.422835
C207	C	0.530339	0.545457	0.756168
C208	C	0.136636	-0.121233	0.089480
C209	C	0.469969	0.212100	0.422813
C210	C	0.803303	0.545433	0.756146
C211	C	0.136625	-0.171647	0.090218
C212	C	0.469958	0.161686	0.423551
C213	C	0.803292	0.495019	0.756885
C214	C	0.068382	-0.196849	0.090594
C215	C	0.401715	0.136484	0.423927
C216	C	0.735048	0.469818	0.757260
C217	C	0.000202	0.340800	0.082714
C218	C	0.333535	0.674134	0.416048
C219	C	0.666869	1.007467	0.749381
C220	C	0.000208	0.287143	0.083511
C221	C	0.333541	0.620477	0.416845
C222	C	0.666875	0.953810	0.750178
C223	C	0.000219	-0.617514	-0.160358
C224	C	0.333553	-0.284181	0.172976
C225	C	0.666886	0.049153	0.506309
C226	C	0.000207	-0.616776	-0.232800
C227	C	0.333541	-0.283443	0.100533
C228	C	0.666874	0.049891	0.433867
C229	C	0.000191	-0.572353	-0.260257
C230	C	0.333525	-0.239020	0.073077
C231	C	0.666858	0.094313	0.406410
C232	C	0.000169	-0.528665	-0.215265
C233	C	0.333502	-0.195332	0.118069
C234	C	0.666835	0.138001	0.451402
C235	C	0.000173	-0.529405	-0.142824
C236	C	0.333506	-0.196071	0.190509
C237	C	0.666840	0.137262	0.523843
C238	C	0.044030	-0.537427	-0.368317
C239	C	0.377364	-0.204094	-0.034984
C240	C	0.710697	0.129240	0.298349
C241	C	0.044030	-0.536690	-0.440757
C242	C	0.377364	-0.203356	-0.107424
C243	C	0.710697	0.129977	0.225910
C244	C	0.000174	-0.570071	-0.483687
C245	C	0.333507	-0.236737	-0.150354
C246	C	0.666841	0.096596	0.182979
C247	C	-0.043673	-0.604198	-0.454171
C248	C	0.289660	-0.270865	-0.120837
C249	C	0.622994	0.062469	0.212496
C250	C	-0.043668	-0.604937	-0.381730
C251	C	0.289665	-0.271604	-0.048397
C252	C	0.622998	0.061729	0.284937
C253	C	0.000186	-0.571547	-0.338805
C254	C	0.333519	-0.238213	-0.005472
C255	C	0.666853	0.095120	0.327861
C256	C	0.000178	-0.612956	-0.607220
C257	C	0.333512	-0.279622	-0.273887
C258	C	0.666845	0.053711	0.059446
C259	C	0.000162	-0.612216	-0.679663
C260	C	0.333495	-0.278882	-0.346330
C261	C	0.666828	0.054451	-0.012997
C262	C	0.000130	-0.524104	-0.662127
C263	C	0.333464	-0.190770	-0.328793
C264	C	0.666797	0.142563	0.004540
C265	C	0.000140	-0.524845	-0.589685
C266	C	0.333473	-0.191512	-0.256352
C267	C	0.666806	0.141822	0.076982
C268	C	0.000167	-0.569272	-0.562236
C269	C	0.333500	-0.235939	-0.228903
C270	C	0.666834	0.097395	0.104430
C271	C	0.000156	-0.567007	0.215786
C272	C	0.333489	-0.233673	0.549120
C273	C	0.666822	0.099660	0.882453
C274	C	0.000144	-0.567792	0.292885
C275	C	0.333478	-0.234459	0.626218
C276	C	0.666811	0.098874	0.959551
H277	H	0.185670	-0.630623	0.002452
H278	H	0.519004	-0.297290	0.335785
H279	H	0.852337	0.036043	0.669119
H280	H	-0.123681	-0.332609	0.092624
H281	H	0.209652	0.000724	0.425957
H282	H	0.542985	0.334058	0.759290
H283	H	-0.123683	-0.424079	0.093964
H284	H	0.209650	-0.090745	0.427298
H285	H	0.542984	0.242588	0.760631
N286	N	0.138087	-0.429305	0.094034
N287	N	0.471420	-0.095972	0.427367
N288	N	0.804753	0.237361	0.760700
N289	N	0.199010	-0.406792	0.093699
N290	N	0.532343	-0.073458	0.427033
N291	N	0.865676	0.259875	0.760366
H292	H	0.248250	-0.424970	0.093970
H293	H	0.581583	-0.091636	0.427303
H294	H	0.914916	0.241697	0.760637
H295	H	0.079748	-0.510243	-0.333368
H296	H	0.413081	-0.176909	-0.000035
H297	H	0.746414	0.156424	0.333298
H298	H	0.814716	-0.630652	0.002454
H299	H	1.148050	-0.297318	0.335787
H300	H	1.481383	0.036015	0.669121
N301	N	0.206351	-0.095495	0.089120
N302	N	0.539684	0.237838	0.422454
N303	N	0.873017	0.571172	0.755787
N304	N	0.221573	-0.062804	0.137697
N305	N	0.554907	0.270529	0.471030
N306	N	0.888240	0.603863	0.804363
H307	H	0.270815	-0.044628	0.137450
H308	H	0.604148	0.288706	0.470783
H309	H	0.937481	0.622039	0.804116
N310	N	0.000234	-0.662890	-0.132309
N311	N	0.333568	-0.329556	0.201024
N312	N	0.666901	0.003777	0.534358
N313	N	0.000236	-0.663546	-0.067630
N314	N	0.333569	-0.330213	0.265703
N315	N	0.666903	0.003121	0.599037
H316	H	0.000246	-0.695593	-0.047818
H317	H	0.333579	-0.362259	0.285516
H318	H	0.666912	-0.028926	0.618849
N319	N	0.138101	-0.327418	0.092513
N320	N	0.471434	0.005916	0.425846
N321	N	0.804768	0.339249	0.759179
N322	N	0.199018	-0.349942	0.092842
N323	N	0.532351	-0.016609	0.426175
N324	N	0.865684	0.316725	0.759508
H325	H	0.248263	-0.331773	0.092567
H326	H	0.581596	0.001561	0.425901
H327	H	0.914929	0.334894	0.759234
H328	H	0.814684	-0.511007	0.175058
H329	H	1.148017	-0.177674	0.508391
H330	H	1.481351	0.155660	0.841724
H331	H	0.000114	-0.487934	-0.684481
H332	H	0.333447	-0.154600	-0.351148
H333	H	0.666780	0.178733	-0.017814
H334	H	-0.123610	0.282468	0.083595
H335	H	0.209724	0.615801	0.416929
H336	H	0.543057	0.949134	0.750262
N337	N	0.000226	-0.661403	-0.278749
N338	N	0.333559	-0.328069	0.054584
N339	N	0.666892	0.005264	0.387918
N340	N	0.000248	-0.701065	-0.254232
N341	N	0.333582	-0.367731	0.079101
N342	N	0.666915	-0.034398	0.412435
H343	H	0.000262	-0.732583	-0.286681
H344	H	0.333596	-0.399250	0.046652
H345	H	0.666929	-0.065916	0.379986
H346	H	-0.079371	-0.632724	-0.357701
H347	H	0.253962	-0.299390	-0.024367
H348	H	0.587295	0.033943	0.308966
H349	H	0.124010	0.190983	0.084921
H350	H	0.457344	0.524316	0.418254
H351	H	0.790677	0.857649	0.751588
H352	H	0.000158	-0.493832	-0.106199
H353	H	0.333491	-0.160499	0.227135
H354	H	0.666825	0.172834	0.560468
N355	N	-0.206014	0.055788	0.086900
N356	N	0.127319	0.389121	0.420234
N357	N	0.460653	0.722454	0.753567
N358	N	-0.206014	0.100801	0.086231
N359	N	0.127319	0.434134	0.419565
N360	N	0.460653	0.767468	0.752898
H361	H	-0.255245	0.118989	0.085953
H362	H	0.078088	0.452322	0.419286
H363	H	0.411422	0.785655	0.752619
N364	N	0.206364	0.055767	0.086868
N365	N	0.539697	0.389100	0.420201
N366	N	0.873030	0.722434	0.753535
N367	N	0.206365	0.100781	0.086212
N368	N	0.539699	0.434115	0.419545
N369	N	0.873032	0.767448	0.752878
H370	H	0.255597	0.118967	0.085947
H371	H	0.588930	0.452300	0.419280
H372	H	0.922263	0.785634	0.752613
N373	N	-0.088488	-0.638291	-0.498015
N374	N	0.244846	-0.304957	-0.164681
N375	N	0.578179	0.028376	0.168652
N376	N	-0.158283	-0.639079	-0.490047
N377	N	0.175051	-0.305746	-0.156713
N378	N	0.508384	0.027588	0.176620
H379	H	-0.189931	-0.663156	-0.521015
H380	H	0.143402	-0.329823	-0.187682
H381	H	0.476735	0.003510	0.145651
H382	H	0.192201	-0.192171	0.090518
H383	H	0.525534	0.141163	0.423851
H384	H	0.858868	0.474496	0.757184
N385	N	0.000208	-0.658339	-0.579188
N386	N	0.333542	-0.325005	-0.245855
N387	N	0.666875	0.008328	0.087479
N388	N	0.000220	-0.697339	-0.619363
N389	N	0.333554	-0.364006	-0.286030
N390	N	0.666887	-0.030672	0.047304
H391	H	0.000243	-0.729392	-0.599568
H392	H	0.333576	-0.396058	-0.266235
H393	H	0.666910	-0.062725	0.067099
N394	N	0.206373	-0.046140	0.088350
N395	N	0.539706	0.287193	0.421684
N396	N	0.873039	0.620526	0.755017
N397	N	0.267292	-0.023624	0.088002
N398	N	0.600626	0.309709	0.421335
N399	N	0.933959	0.643042	0.754669
H400	H	0.316535	-0.041802	0.088251
H401	H	0.649868	0.291532	0.421584
H402	H	0.983202	0.624865	0.754917
N403	N	0.138151	0.287680	0.083494
N404	N	0.471484	0.621014	0.416828
N405	N	0.804818	0.954347	0.750161
N406	N	0.138137	0.332694	0.082832
N407	N	0.471470	0.666028	0.416165
N408	N	0.804804	0.999361	0.749499
H409	H	0.187362	0.350886	0.082558
H410	H	0.520696	0.684219	0.415892
H411	H	0.854029	1.017553	0.749225
H412	H	-0.191898	-0.100687	0.089207
H413	H	0.141435	0.232647	0.422541
H414	H	0.474769	0.565980	0.755874
N415	N	0.579853	-0.583899	-0.039260
N416	N	0.913186	-0.250565	0.294073
N417	N	1.246520	0.082768	0.627407
N418	N	0.623819	-0.551638	-0.054519
N419	N	0.957153	-0.218305	0.278814
N420	N	1.290486	0.115028	0.612148
H421	H	0.652256	-0.556298	-0.100205
H422	H	0.985590	-0.222965	0.233129
H423	H	1.318923	0.110369	0.566462
H424	H	-0.191899	-0.192152	0.090549
H425	H	0.141435	0.141182	0.423882
H426	H	0.474768	0.474515	0.757215
H427	H	0.671723	-0.511000	0.175058
H428	H	1.005056	-0.177667	0.508391
H429	H	1.338389	0.155666	0.841724
N430	N	0.663540	-0.637444	-0.007410
N431	N	0.996873	-0.304110	0.325923
N432	N	1.330206	0.029223	0.659256
N433	N	0.619581	-0.622149	-0.050328
N434	N	0.952915	-0.288816	0.283005
N435	N	1.286248	0.044518	0.616339
H436	H	0.591109	-0.645897	-0.084656
H437	H	0.924442	-0.312564	0.248678
H438	H	1.257775	0.020769	0.582011
N439	N	0.336789	-0.637463	-0.007409
N440	N	0.670122	-0.304129	0.325924
N441	N	1.003455	0.029204	0.659257
N442	N	0.301614	-0.666901	-0.049877
N443	N	0.634947	-0.333568	0.283456
N444	N	0.968280	-0.000234	0.616790
H445	H	0.330038	-0.690693	-0.084195
H446	H	0.663371	-0.357360	0.249138
H447	H	0.996705	-0.024026	0.582471
N448	N	0.336742	-0.504148	0.184917
N449	N	0.670075	-0.170815	0.518250
N450	N	1.003408	0.162518	0.851583
N451	N	0.301545	-0.474707	0.227381
N452	N	0.634878	-0.141374	0.560715
N453	N	0.968212	0.191959	0.894048
H454	H	0.329952	-0.450920	0.261705
H455	H	0.663285	-0.117586	0.595039
H456	H	0.996619	0.215747	0.928372
H457	H	0.428668	-0.559054	0.203653
H458	H	0.762001	-0.225721	0.536986
H459	H	1.095335	0.107612	0.870319
H460	H	0.000173	-0.647788	-0.716288
H461	H	0.333506	-0.314455	-0.382955
H462	H	0.666839	0.018878	-0.049621
N463	N	0.000123	-0.480219	-0.543742
N464	N	0.333456	-0.146886	-0.210409
N465	N	0.666790	0.186447	0.122924
N466	N	0.000106	-0.440559	-0.568263
N467	N	0.333439	-0.107225	-0.234930
N468	N	0.666773	0.226108	0.098404
H469	H	0.000092	-0.409039	-0.535816
H470	H	0.333426	-0.075706	-0.202483
H471	H	0.666759	0.257627	0.130850
N472	N	0.088850	-0.501845	-0.470896
N473	N	0.422184	-0.168511	-0.137563
N474	N	0.755517	0.164822	0.195771
N475	N	0.128013	-0.472047	-0.432562
N476	N	0.461347	-0.138714	-0.099228
N477	N	0.794680	0.194620	0.234105
H478	H	0.159678	-0.447441	-0.453846
H479	H	0.493012	-0.114108	-0.120513
H480	H	0.826345	0.219225	0.212821
N481	N	0.579775	-0.557734	0.216780
N482	N	0.913108	-0.224401	0.550114
N483	N	1.246441	0.108932	0.883447
N484	N	0.544572	-0.551948	0.273316
N485	N	0.877905	-0.218615	0.606649
N486	N	1.211238	0.114719	0.939983
H487	H	0.572973	-0.547280	0.319009
H488	H	0.906306	-0.213947	0.652343
H489	H	1.239640	0.119387	0.985676
H490	H	0.000154	-0.492496	-0.237625
H491	H	0.333487	-0.159163	0.095709
H492	H	0.666821	0.174171	0.429042
H493	H	0.428724	-0.582566	-0.026141
H494	H	0.762058	-0.249232	0.307192
H495	H	1.095391	0.084101	0.640526
H496	H	-0.123627	0.191011	0.084925
H497	H	0.209707	0.524345	0.418258
H498	H	0.543040	0.857678	0.751591
N499	N	0.177474	-0.504130	0.184902
N500	N	0.510807	-0.170797	0.518235
N501	N	0.844140	0.162536	0.851569
N502	N	0.212651	-0.474693	0.227369
N503	N	0.545984	-0.141359	0.560702
N504	N	0.879318	0.191974	0.894035
H505	H	0.184229	-0.450898	0.261685
H506	H	0.517562	-0.117565	0.595019
H507	H	0.850895	0.215768	0.928352
H508	H	-0.191891	-0.040896	0.088330
H509	H	0.141442	0.292437	0.421663
H510	H	0.474775	0.625771	0.754997
