data_functionalizedCrystal
_audit_creation_method	'MofGen! by Chris Wilmer'
_symmetry_space_group_name_H-M	'P1'
_symmetry_Int_Tables_number	1
_symmetry_cell_setting	triclinic
loop_
_symmetry_equiv_pos_as_xyz
  x,y,z
_cell_length_a	9.065218
_cell_length_b	12.837942
_cell_length_c	8.140239
_cell_angle_alpha	89.996939
_cell_angle_beta	89.997198
_cell_angle_gamma	89.922413
loop_
_atom_site_label
_atom_site_type_symbol
_atom_site_fract_x
_atom_site_fract_y
_atom_site_fract_z
O1	O	1.978903	0.152196	-0.136617
O2	O	2.478903	0.652196	0.363383
O3	O	1.551136	0.164680	-0.136619
O4	O	2.051136	0.664680	0.363381
O5	O	1.755534	0.007446	-0.136608
O6	O	2.255534	0.507446	0.363392
O7	O	1.774505	0.309430	-0.136628
O8	O	2.274505	0.809430	0.363372
O9	O	1.755521	0.007444	0.136619
O10	O	2.255521	0.507444	0.636619
O11	O	1.551123	0.164678	0.136608
O12	O	2.051123	0.664678	0.636608
O13	O	1.978890	0.152194	0.136610
O14	O	2.478890	0.652194	0.636610
Zn15	Zn	1.765005	0.158436	0.179990
Zn16	Zn	2.265005	0.658436	0.679990
Zn17	Zn	1.765021	0.158439	-0.179999
Zn18	Zn	2.265021	0.658439	0.320001
O19	O	1.774492	0.309428	0.136599
O20	O	2.274492	0.809428	0.636599
C21	C	1.495997	0.163479	-0.000006
C22	C	1.995997	0.663479	0.499994
C23	C	1.331718	0.159892	-0.000007
C24	C	1.831718	0.659892	0.499993
C25	C	1.749119	-0.031235	0.000004
C26	C	2.249119	0.468765	0.500004
C27	C	1.730006	-0.146492	0.000002
C28	C	2.230006	0.353508	0.500002
C29	C	1.959783	-0.385293	-0.000031
C30	C	2.459783	0.114707	0.499969
C31	C	1.941831	-0.493587	-0.000034
C32	C	2.441831	0.006413	0.499966
C33	C	1.676152	-0.471377	-0.000019
C34	C	2.176152	0.028623	0.499981
C35	C	1.694104	-0.363083	-0.000016
C36	C	2.194104	0.136917	0.499984
C37	C	1.835924	-0.320045	-0.000020
C38	C	2.335924	0.179955	0.499980
C39	C	1.853874	-0.211748	-0.000005
C40	C	2.353874	0.288252	0.499995
C41	C	1.588196	-0.189540	-0.000001
C42	C	2.088196	0.310460	0.499999
C43	C	1.570245	-0.297835	-0.000004
C44	C	2.070245	0.202165	0.499996
C45	C	2.034029	0.153395	-0.000007
C46	C	2.534029	0.653395	0.499993
C47	C	2.198308	0.156983	-0.000017
C48	C	2.698308	0.656983	0.499983
C49	C	1.780907	0.348110	-0.000017
C50	C	2.280907	0.848110	0.499983
C51	C	1.800020	0.463366	-0.000025
C52	C	2.300020	0.963366	0.499975
N53	N	1.765004	0.158434	0.425672
N54	N	2.265004	0.658434	0.925672
N55	N	1.765033	0.158433	-0.425681
N56	N	2.265033	0.658433	0.074319
H57	H	2.075258	-0.350251	-0.000019
H58	H	2.575258	0.149749	0.499981
C59	C	1.453760	-0.118649	-0.000332
C60	C	1.953760	0.381351	0.499668
C61	C	1.456280	-0.055836	-0.140915
C62	C	1.956280	0.444164	0.359085
C63	C	1.332454	0.009470	-0.141280
C64	C	1.832454	0.509470	0.358720
H65	H	1.455109	-0.075852	0.094841
H66	H	1.955109	0.424148	0.594841
H67	H	1.366696	-0.159761	-0.000418
H68	H	1.866696	0.340239	0.499582
H69	H	1.543320	-0.014728	-0.140813
H70	H	2.043320	0.485272	0.359187
H71	H	1.454909	-0.098605	-0.236111
H72	H	1.954909	0.401395	0.263889
H73	H	1.245391	-0.031642	-0.141367
H74	H	1.745391	0.468358	0.358633
H75	H	1.333814	0.052260	-0.046101
H76	H	1.833814	0.552260	0.453899
H77	H	1.334140	0.052089	-0.236671
H78	H	1.834140	0.552089	0.263329
H79	H	1.969351	-0.176709	-0.000002
H80	H	2.469351	0.323291	0.499998
C81	C	2.076492	-0.564255	0.000041
C82	C	2.576492	-0.064255	0.500041
C83	C	2.204526	-0.503380	0.000077
C84	C	2.704526	-0.003380	0.500077
C85	C	2.328608	-0.568443	0.000165
C86	C	2.828608	-0.068443	0.500165
H87	H	2.075219	-0.606980	-0.095214
H88	H	2.575219	-0.106980	0.404786
H89	H	2.075096	-0.606951	0.095359
H90	H	2.575096	-0.106951	0.595359
H91	H	2.205922	-0.460702	-0.095231
H92	H	2.705922	0.039298	0.404769
H93	H	2.205848	-0.460657	0.095325
H94	H	2.705848	0.039343	0.595325
H95	H	2.327212	-0.611139	0.095483
H96	H	2.827212	-0.111139	0.595483
H97	H	2.327320	-0.611164	-0.095092
H98	H	2.827320	-0.111164	0.404908
H99	H	2.415493	-0.527149	0.000205
H100	H	2.915493	-0.027149	0.500205
H101	H	1.560688	-0.506438	-0.000033
H102	H	2.060688	-0.006438	0.499967
H103	H	1.454779	-0.332891	-0.000007
H104	H	1.954779	0.167109	0.499993
