data_functionalizedCrystal
_audit_creation_method	'MofGen! by Chris Wilmer'
_symmetry_space_group_name_H-M	'P1'
_symmetry_Int_Tables_number	1
_symmetry_cell_setting	triclinic
loop_
_symmetry_equiv_pos_as_xyz
  x,y,z
_cell_length_a	8.497365
_cell_length_b	17.077404
_cell_length_c	17.077402
_cell_angle_alpha	89.976892
_cell_angle_beta	90.055217
_cell_angle_gamma	89.965705
loop_
_atom_site_label
_atom_site_type_symbol
_atom_site_fract_x
_atom_site_fract_y
_atom_site_fract_z
Zn1	Zn	-0.891989	1.200169	0.312306
Zn2	Zn	-0.628174	1.200042	0.443640
Zn3	Zn	-0.628208	1.068867	0.312392
Zn4	Zn	-0.891898	1.068869	0.443535
O5	O	-0.760068	1.134487	0.377968
O6	O	-0.857018	1.309999	0.329736
O7	O	-0.407416	1.182588	0.426309
O8	O	-0.663252	1.086337	0.202534
O9	O	-0.663194	1.309906	0.426226
O10	O	-0.857051	1.182804	0.202471
O11	O	-0.407441	1.086214	0.329882
O12	O	-0.663163	0.959021	0.329781
O13	O	-1.112673	1.086340	0.426047
O14	O	-0.856895	0.959022	0.426130
O15	O	-1.112740	1.182806	0.329634
O16	O	-0.663105	1.182590	0.553473
O17	O	-0.856862	1.086217	0.553396
C18	C	-0.760024	0.930539	0.377954
C19	C	-0.760043	0.843289	0.377967
C20	C	-0.760005	1.134411	0.581916
C21	C	-0.760030	1.134451	0.669166
C22	C	-0.860757	0.802320	0.428212
C23	C	-0.860782	0.720340	0.428214
C24	C	-0.760084	0.679330	0.377974
C25	C	-0.659365	0.720305	0.327723
C26	C	-0.659349	0.802284	0.327718
C27	C	-0.659403	0.549435	0.327738
C28	C	-0.659417	0.467450	0.327744
C29	C	-0.860836	0.467491	0.428234
C30	C	-0.860820	0.549470	0.428229
C31	C	-0.760099	0.590439	0.377979
C32	C	-0.350187	1.134430	0.378054
C33	C	-0.171544	1.134542	0.377893
C34	C	-0.760112	1.339231	0.377983
C35	C	-0.760131	1.426481	0.377989
C36	C	-0.760165	1.134584	0.173224
C37	C	-0.760207	1.134626	0.085974
C38	C	-0.659250	1.184683	0.710170
C39	C	-0.659290	1.184722	0.792150
C40	C	-0.760104	1.134523	0.833125
C41	C	-0.860896	1.084288	0.792115
C42	C	-0.860863	1.084254	0.710136
C43	C	-0.860956	1.084361	0.962985
C44	C	-0.860988	1.084394	1.044970
C45	C	-0.659383	1.184828	1.044999
C46	C	-0.659350	1.184794	0.963020
C47	C	-0.760140	1.134558	0.922016
H48	H	-0.942752	0.835705	0.469126
H49	H	-0.577223	1.225625	0.825532
N50	N	-0.969555	1.030076	0.665901
H51	H	-1.082301	1.042255	0.680093
H52	H	-0.944823	0.974021	0.680242
H53	H	-0.577321	1.225735	1.078389
H54	H	-0.577346	0.835639	0.286799
H55	H	-0.577251	1.225666	0.929659
H56	H	-0.943109	1.043532	1.078329
H57	H	-0.942809	0.582858	0.469143
N58	N	-0.969395	0.676151	0.482414
H59	H	-0.905143	0.642103	0.518759
H60	H	-1.042611	0.642220	0.450494
N61	N	-0.969670	1.030183	0.918757
H62	H	-1.033538	0.998385	0.957152
H63	H	-0.905370	0.993853	0.884810
H64	H	-0.577399	0.582789	0.286813
N65	N	-0.969471	0.423309	0.482435
H66	H	-0.954210	0.365153	0.474814
H67	H	-1.082182	0.437685	0.470268
H68	H	-0.577438	0.434062	0.286825
N69	N	-0.969621	1.030140	0.836308
H70	H	-1.033462	0.998313	0.797890
H71	H	-1.042701	1.062093	0.870256
N72	N	-0.550730	0.676071	0.273550
H73	H	-0.614956	0.642082	0.237202
H74	H	-0.477550	0.642077	0.305497
H75	H	-0.577148	1.225557	0.676814
