data_functionalizedCrystal
_audit_creation_method	'MofGen! by Chris Wilmer'
_symmetry_space_group_name_H-M	'P1'
_symmetry_Int_Tables_number	1
_symmetry_cell_setting	triclinic
loop_
_symmetry_equiv_pos_as_xyz
  x,y,z
_cell_length_a	29.839131
_cell_length_b	29.839135
_cell_length_c	29.839125
_cell_angle_alpha	90.001264
_cell_angle_beta	89.988394
_cell_angle_gamma	90.042543
loop_
_atom_site_label
_atom_site_type_symbol
_atom_site_fract_x
_atom_site_fract_y
_atom_site_fract_z
Zn1	Zn	-0.178930	0.686727	-0.253827
Zn2	Zn	0.321070	1.186727	0.246173
Zn3	Zn	-0.254034	0.686657	-0.178697
Zn4	Zn	0.245966	1.186657	0.321303
Zn5	Zn	-0.178920	0.611608	-0.178729
Zn6	Zn	0.321080	1.111608	0.321271
Zn7	Zn	-0.254035	0.611557	-0.253818
Zn8	Zn	0.245965	1.111557	0.246182
O9	O	-0.216480	0.649137	-0.216267
O10	O	0.283520	1.149137	0.283733
O11	O	-0.188896	0.749585	-0.243851
O12	O	0.311104	1.249585	0.256149
O13	O	-0.244065	0.676693	-0.115834
O14	O	0.255935	1.176693	0.384166
O15	O	-0.116054	0.621623	-0.188708
O16	O	0.383946	1.121623	0.311292
O17	O	-0.244075	0.749533	-0.188653
O18	O	0.255925	1.249533	0.311347
O19	O	-0.116062	0.676812	-0.243882
O20	O	0.383938	1.176812	0.256118
O21	O	-0.188880	0.621555	-0.115857
O22	O	0.311120	1.121555	0.384143
O23	O	-0.188881	0.548734	-0.188699
O24	O	0.311119	1.048734	0.311301
O25	O	-0.244077	0.621537	-0.316686
O26	O	0.255923	1.121537	0.183314
O27	O	-0.244067	0.548697	-0.243867
O28	O	0.255933	1.048697	0.256133
O29	O	-0.188897	0.676764	-0.316693
O30	O	0.311103	1.176764	0.183307
O31	O	-0.316901	0.676645	-0.188644
O32	O	0.183099	1.176645	0.311356
O33	O	-0.316902	0.621469	-0.243835
O34	O	0.183098	1.121469	0.256165
C35	C	-0.333202	0.649056	-0.216245
C36	C	0.166798	1.149056	0.283755
C37	C	-0.383137	0.649062	-0.216251
C38	C	0.116863	1.149062	0.283749
C39	C	-0.216474	0.532415	-0.216286
C40	C	0.283526	1.032415	0.283714
C41	C	-0.216482	0.482480	-0.216304
C42	C	0.283518	0.982480	0.283696
C43	C	-0.216488	0.649153	-0.333446
C44	C	0.283512	1.149153	0.166554
C45	C	-0.216492	0.649159	-0.383380
C46	C	0.283508	1.149159	0.116620
C47	C	-0.692767	0.677919	-0.187571
C48	C	-0.192767	1.177919	0.312429
C49	C	-0.880440	0.677975	-0.187589
C50	C	-0.380440	1.177975	0.312411
O51	O	-0.904694	0.702445	-0.163188
O52	O	-0.404694	1.202445	0.336812
N53	N	-0.903922	0.649230	-0.216301
N54	N	-0.403922	1.149230	0.283699
C55	C	-0.880482	0.620472	-0.245014
C56	C	-0.380482	1.120472	0.254986
O57	O	-0.904761	0.596028	-0.269439
O58	O	-0.404761	1.096028	0.230561
C59	C	-0.692810	0.620419	-0.244998
C60	C	-0.192810	1.120419	0.255002
C61	C	-0.669331	0.649162	-0.216280
C62	C	-0.169331	1.149162	0.283720
C63	C	-0.669288	0.706660	-0.158857
C64	C	-0.169288	1.206660	0.341143
C65	C	-0.622372	0.706644	-0.158851
C66	C	-0.122372	1.206644	0.341149
C67	C	-0.598936	0.677887	-0.187560
C68	C	-0.098936	1.177887	0.312440
C69	C	-0.622416	0.649146	-0.216275
C70	C	-0.122416	1.149146	0.283725
C71	C	-0.669372	0.591664	-0.273712
C72	C	-0.169372	1.091664	0.226288
C73	C	-0.622451	0.591654	-0.273707
C74	C	-0.122451	1.091654	0.226293
C75	C	-0.598971	0.620397	-0.244989
C76	C	-0.098971	1.120397	0.255011
C77	C	-0.552064	0.620374	-0.244978
C78	C	-0.052064	1.120374	0.255022
N79	N	-0.528582	0.649118	-0.216266
N80	N	-0.028582	1.149118	0.283734
C81	C	-0.552018	0.677875	-0.187556
C82	C	-0.052018	1.177875	0.312444
C83	C	-0.979013	0.620501	-0.245019
C84	C	-0.479013	1.120501	0.254981
C85	C	-1.025931	0.620514	-0.245022
C86	C	-0.525931	1.120514	0.254978
C87	C	-1.025885	0.678017	-0.187598
C88	C	-0.525885	1.178017	0.312402
C89	C	-0.978967	0.678002	-0.187593
C90	C	-0.478967	1.178002	0.312407
C91	C	-0.955531	0.649246	-0.216307
C92	C	-0.455531	1.149246	0.283693
C93	C	-0.453493	0.677839	-0.187546
C94	C	0.046507	1.177839	0.312454
C95	C	-0.406573	0.677819	-0.187542
C96	C	0.093427	1.177819	0.312458
C97	C	-0.406623	0.620318	-0.244967
C98	C	0.093377	1.120318	0.255033
C99	C	-0.453538	0.620336	-0.244970
C100	C	0.046462	1.120336	0.255030
C101	C	-0.476972	0.649100	-0.216258
C102	C	0.023028	1.149100	0.283742
O103	O	-0.527781	0.595919	-0.269370
O104	O	-0.027781	1.095919	0.230630
O105	O	-0.527731	0.702322	-0.163142
O106	O	-0.027731	1.202322	0.336858
C107	C	-0.739683	0.677935	-0.187577
C108	C	-0.239683	1.177935	0.312423
C109	C	-0.763162	0.649194	-0.216292
C110	C	-0.263162	1.149194	0.283708
C111	C	-0.739726	0.620437	-0.245001
C112	C	-0.239726	1.120437	0.254999
C113	C	-0.810080	0.649207	-0.216295
C114	C	-0.310080	1.149207	0.283705
C115	C	-0.833516	0.677963	-0.187586
C116	C	-0.333516	1.177963	0.312414
C117	C	-0.810034	0.706708	-0.158874
C118	C	-0.310034	1.206708	0.341126
C119	C	-0.763119	0.706692	-0.158868
C120	C	-0.263119	1.206692	0.341132
C121	C	-0.763207	0.591693	-0.273714
C122	C	-0.263207	1.091693	0.226286
C123	C	-0.810123	0.591711	-0.273717
C124	C	-0.310123	1.091711	0.226283
C125	C	-0.833559	0.620468	-0.245008
C126	C	-0.333559	1.120468	0.254992
C127	C	-0.099301	0.649231	-0.216300
C128	C	0.400699	1.149231	0.283700
C129	C	-0.049367	0.649271	-0.216313
C130	C	0.450633	1.149271	0.283687
C131	C	-0.216487	0.766316	-0.216249
C132	C	0.283513	1.266316	0.283751
C133	C	-0.216489	0.816250	-0.216242
C134	C	0.283511	1.316250	0.283758
C135	C	-0.245222	1.172810	-0.187539
C136	C	0.254778	1.672810	0.312461
C137	C	-0.245221	0.985137	-0.187521
C138	C	0.254779	1.485137	0.312479
O139	O	-0.269665	0.960850	-0.163091
O140	O	0.230335	1.460850	0.336909
N141	N	-0.216493	0.961695	-0.216257
N142	N	0.283507	1.461695	0.283743
C143	C	-0.187764	0.985174	-0.245002
C144	C	0.312236	1.485174	0.254998
O145	O	-0.163332	0.960929	-0.269446
O146	O	0.336668	1.460929	0.230554
C147	C	-0.187768	1.172846	-0.245021
C148	C	0.312232	1.672846	0.254979
C149	C	-0.216495	1.196286	-0.216280
C150	C	0.283505	1.696286	0.283720
C151	C	-0.273948	1.196250	-0.158800
C152	C	0.226052	1.696250	0.341200
C153	C	-0.273946	1.243166	-0.158803
C154	C	0.226054	1.743166	0.341197
C155	C	-0.245219	1.266641	-0.187545
C156	C	0.254781	1.766641	0.312455
C157	C	-0.216494	1.243201	-0.216283
C158	C	0.283506	1.743201	0.283717
C159	C	-0.159042	1.196324	-0.273768
C160	C	0.340958	1.696324	0.226232
C161	C	-0.159047	1.243245	-0.273771
C162	C	0.340953	1.743245	0.226229
C163	C	-0.187774	1.266685	-0.245030
C164	C	0.312226	1.766685	0.254970
C165	C	-0.187765	1.313593	-0.245028
C166	C	0.312235	1.813593	0.254972
N167	N	-0.216493	1.337035	-0.216292
N168	N	0.283507	1.837035	0.283708
C169	C	-0.245220	1.313559	-0.187550
C170	C	0.254780	1.813559	0.312450
C171	C	-0.187764	0.886643	-0.244988
C172	C	0.312236	1.386643	0.255012
C173	C	-0.187762	0.839726	-0.244983
C174	C	0.312238	1.339726	0.255017
C175	C	-0.245220	0.839692	-0.187503
C176	C	0.254780	1.339692	0.312497
C177	C	-0.245219	0.886611	-0.187506
C178	C	0.254781	1.386611	0.312494
C179	C	-0.216492	0.910086	-0.216252
C180	C	0.283508	1.410086	0.283748
C181	C	-0.245214	1.412085	-0.187559
C182	C	0.254786	1.912085	0.312441
C183	C	-0.245209	1.459005	-0.187563
C184	C	0.254791	1.959005	0.312437
C185	C	-0.187753	1.459034	-0.245044
C186	C	0.312247	1.959034	0.254956
C187	C	-0.187757	1.412118	-0.245039
C188	C	0.312243	1.912118	0.254961
C189	C	-0.216491	1.388645	-0.216294
C190	C	0.283509	1.888645	0.283706
O191	O	-0.163337	1.337909	-0.269448
O192	O	0.336663	1.837909	0.230552
O193	O	-0.269656	1.337813	-0.163116
O194	O	0.230344	1.837813	0.336884
C195	C	-0.245224	1.125895	-0.187536
C196	C	0.254776	1.625895	0.312464
C197	C	-0.216499	1.102455	-0.216274
C198	C	0.283501	1.602455	0.283726
C199	C	-0.187772	1.125931	-0.245016
C200	C	0.312228	1.625931	0.254984
C201	C	-0.216497	1.055537	-0.216269
C202	C	0.283503	1.555537	0.283731
C203	C	-0.245224	1.032062	-0.187527
C204	C	0.254776	1.532062	0.312473
C205	C	-0.273953	1.055504	-0.158791
C206	C	0.226047	1.555504	0.341209
C207	C	-0.273951	1.102419	-0.158794
C208	C	0.226049	1.602419	0.341206
C209	C	-0.159043	1.102488	-0.273752
C210	C	0.340957	1.602488	0.226248
C211	C	-0.159047	1.055573	-0.273746
C212	C	0.340953	1.555573	0.226254
C213	C	-0.187774	1.032097	-0.245004
C214	C	0.312226	1.532097	0.254996
C215	C	-0.245121	0.620434	-0.739964
C216	C	0.254879	1.120434	-0.239964
C217	C	-0.245173	0.620418	-0.552291
C218	C	0.254827	1.120418	-0.052291
O219	O	-0.269598	0.595950	-0.528024
O220	O	0.230402	1.095950	-0.028024
N221	N	-0.216450	0.649169	-0.528825
N222	N	0.283550	1.149169	-0.028825
C223	C	-0.187711	0.677925	-0.552281
C224	C	0.312289	1.177925	-0.052281
O225	O	-0.163279	0.702376	-0.528016
O226	O	0.336721	1.202376	-0.028016
C227	C	-0.187657	0.677938	-0.739953
C228	C	0.312343	1.177938	-0.239953
C229	C	-0.216385	0.649188	-0.763416
C230	C	0.283615	1.149188	-0.263416
C231	C	-0.273845	0.591686	-0.763427
C232	C	0.226155	1.091686	-0.263427
C233	C	-0.273834	0.591692	-0.810343
C234	C	0.226166	1.091692	-0.310343
C235	C	-0.245098	0.620446	-0.833795
C236	C	0.254902	1.120446	-0.333795
C237	C	-0.216373	0.649194	-0.810332
C238	C	0.283627	1.149194	-0.310332
C239	C	-0.158916	0.706691	-0.763408
C240	C	0.341084	1.206691	-0.263408
C241	C	-0.158904	0.706691	-0.810329
C242	C	0.341096	1.206691	-0.310329
C243	C	-0.187632	0.677941	-0.833792
C244	C	0.312368	1.177941	-0.333792
C245	C	-0.187625	0.677954	-0.880700
C246	C	0.312375	1.177954	-0.380700
N247	N	-0.216348	0.649203	-0.904165
N248	N	0.283652	1.149203	-0.404165
C249	C	-0.245084	0.620449	-0.880713
C250	C	0.254916	1.120449	-0.380713
C251	C	-0.187742	0.677916	-0.453750
C252	C	0.312258	1.177916	0.046250
C253	C	-0.187756	0.677914	-0.406833
C254	C	0.312244	1.177914	0.093167
C255	C	-0.245217	0.620406	-0.406846
C256	C	0.254783	1.120406	0.093154
C257	C	-0.245205	0.620411	-0.453764
C258	C	0.254795	1.120411	0.046236
C259	C	-0.216464	0.649165	-0.477216
C260	C	0.283536	1.149165	0.022784
C261	C	-0.245058	0.620464	-0.979239
C262	C	0.254942	1.120464	-0.479239
C263	C	-0.245045	0.620474	-1.026158
C264	C	0.254955	1.120474	-0.526158
C265	C	-0.187582	0.677980	-1.026141
C266	C	0.312418	1.177980	-0.526141
C267	C	-0.187597	0.677972	-0.979226
C268	C	0.312403	1.177972	-0.479226
C269	C	-0.216336	0.649210	-0.955776
C270	C	0.283664	1.149210	-0.455776
O271	O	-0.163209	0.702406	-0.904996
O272	O	0.336791	1.202406	-0.404996
O273	O	-0.269505	0.595994	-0.904986
O274	O	0.230495	1.095994	-0.404986
C275	C	-0.245132	0.620428	-0.693049
C276	C	0.254868	1.120428	-0.193049
C277	C	-0.216408	0.649176	-0.669586
C278	C	0.283592	1.149176	-0.169586
C279	C	-0.187671	0.677930	-0.693038
C280	C	0.312329	1.177930	-0.193038
C281	C	-0.216422	0.649173	-0.622668
C282	C	0.283578	1.149173	-0.122668
C283	C	-0.245158	0.620419	-0.599215
C284	C	0.254842	1.120419	-0.099215
C285	C	-0.273880	0.591668	-0.622681
C286	C	0.226120	1.091668	-0.122681
C287	C	-0.273868	0.591674	-0.669596
C288	C	0.226132	1.091674	-0.169596
C289	C	-0.158949	0.706682	-0.669572
C290	C	0.341051	1.206682	-0.169572
C291	C	-0.158963	0.706674	-0.622657
C292	C	0.341037	1.206674	-0.122657
C293	C	-0.187700	0.677919	-0.599204
C294	C	0.312300	1.177919	-0.099204
C295	C	-0.216439	0.649148	-0.099545
C296	C	0.283561	1.149148	0.400455
C297	C	-0.216309	0.649228	-0.049611
C298	C	0.283691	1.149228	0.450389
H299	H	-0.387458	0.701225	-0.164155
H300	H	0.112542	1.201225	0.335845
C301	C	-0.127443	1.269065	-0.305393
C302	C	0.372557	1.769065	0.194607
N303	N	-0.103638	1.288511	-0.329210
N304	N	0.396362	1.788511	0.170790
C305	C	-0.305460	0.560051	-0.737637
C306	C	0.194540	1.060051	-0.237637
N307	N	-0.329277	0.536224	-0.718215
N308	N	0.170723	1.036224	-0.218215
H309	H	-0.268456	0.597040	-0.960151
H310	H	0.231544	1.097040	-0.460151
C311	C	-0.156156	0.709544	-0.381028
C312	C	0.343844	1.209544	0.118972
N313	N	-0.132352	0.733366	-0.361594
N314	N	0.367648	1.233366	0.138406
C315	C	-0.737298	0.738310	-0.127275
C316	C	-0.237298	1.238310	0.372725
N317	N	-0.717852	0.762126	-0.103476
N318	N	-0.217852	1.262126	0.396524
H319	H	-0.959935	0.597083	-0.268402
H320	H	-0.459935	1.097083	0.231598
H321	H	-0.268597	0.597000	-0.472865
H322	H	0.231403	1.097000	0.027135
C323	C	-0.596675	0.560019	-0.305295
C324	C	-0.096675	1.060019	0.194705
N325	N	-0.577261	0.536191	-0.329087
N326	N	-0.077261	1.036191	0.170913
C327	C	-0.305552	1.268943	-0.127189
C328	C	0.194448	1.768943	0.372811
N329	N	-0.329361	1.288356	-0.103377
N330	N	0.170639	1.788356	0.396623
C331	C	-0.156156	0.912460	-0.276609
C332	C	0.343844	1.412460	0.223391
N333	N	-0.132346	0.931903	-0.300424
N334	N	0.367654	1.431903	0.199576
H335	H	-0.297261	0.568262	-0.688696
H336	H	0.202739	1.068262	-0.188696
C337	C	-0.156156	0.813947	-0.276597
C338	C	0.343844	1.313947	0.223403
N339	N	-0.132352	0.794532	-0.300412
N340	N	0.367648	1.294532	0.199588
C341	C	-0.155970	0.709603	-1.051948
C342	C	0.344030	1.209603	-0.551948
N343	N	-0.132155	0.733418	-1.071387
N344	N	0.367845	1.233418	-0.571387
H345	H	-0.744129	0.568276	-0.297093
H346	H	-0.244129	1.068276	0.202907
C347	C	-0.835945	0.560088	-0.305310
C348	C	-0.335945	1.060088	0.194690
N349	N	-0.855392	0.536274	-0.329108
N350	N	-0.355392	1.036274	0.170892
C351	C	-0.305556	1.128197	-0.127179
C352	C	0.194444	1.628197	0.372821
N353	N	-0.329363	1.147610	-0.103365
N354	N	0.170637	1.647610	0.396635
H355	H	-0.472567	0.701263	-0.164167
H356	H	0.027433	1.201263	0.335833
C357	C	-0.127436	1.128305	-0.305368
C358	C	0.372564	1.628305	0.194632
N359	N	-0.103624	1.147748	-0.329181
N360	N	0.396376	1.647748	0.170819
H361	H	-0.829124	0.730121	-0.135497
H362	H	-0.329124	1.230121	0.364503
C363	C	-0.156153	1.386334	-0.276653
C364	C	0.343847	1.886334	0.223347
N365	N	-0.132352	1.366916	-0.300469
N366	N	0.367648	1.866916	0.199531
H367	H	-0.297280	0.568257	-0.603578
H368	H	0.202720	1.068257	-0.103578
C369	C	-0.156154	1.484866	-0.276658
C370	C	0.343846	1.984866	0.223342
N371	N	-0.132356	1.504324	-0.300472
N372	N	0.367644	2.004324	0.199528
C373	C	-0.156125	0.709552	-0.479541
C374	C	0.343875	1.209552	0.020459
N375	N	-0.132313	0.733383	-0.498965
N376	N	0.367687	1.233383	0.001035
H377	H	-0.135523	0.730103	-0.744312
H378	H	0.364477	1.230103	-0.244312
H379	H	-0.387534	0.596903	-0.268341
H380	H	0.112466	1.096903	0.231659
H381	H	-0.959853	0.701407	-0.164209
H382	H	-0.459853	1.201407	0.335791
H383	H	-0.268440	0.597062	-1.045260
H384	H	0.231560	1.097062	-0.545260
H385	H	-0.164208	0.701385	-0.960121
H386	H	0.335792	1.201385	-0.460121
H387	H	-0.297226	0.568279	-0.829442
H388	H	0.202774	1.068279	-0.329442
C389	C	-0.127288	0.738325	-0.836123
C390	C	0.372712	1.238325	-0.336123
N391	N	-0.103475	0.762152	-0.855550
N392	N	0.396525	1.262152	-0.355550
H393	H	-0.268602	1.478087	-0.164157
H394	H	0.231398	1.978087	0.335843
C395	C	-0.127358	0.738302	-0.596853
C396	C	0.372642	1.238302	-0.096853
N397	N	-0.103549	0.762121	-0.577419
N398	N	0.396451	1.262121	-0.077419
H399	H	-0.135548	0.730097	-0.688662
H400	H	0.364452	1.230097	-0.188662
H401	H	-0.603258	0.730050	-0.135468
H402	H	-0.103258	1.230050	0.364532
C403	C	-0.276822	0.813860	-0.155890
C404	C	0.223178	1.313860	0.344110
N405	N	-0.300627	0.794401	-0.132082
N406	N	0.199373	1.294401	0.367918
H407	H	-0.688365	0.730080	-0.135478
H408	H	-0.188365	1.230080	0.364522
C409	C	-0.305553	1.029672	-0.127176
C410	C	0.194447	1.529672	0.372824
N411	N	-0.329355	1.010212	-0.103367
N412	N	0.170645	1.510212	0.396633
C413	C	-1.051674	0.709652	-0.156020
C414	C	-0.551674	1.209652	0.343980
N415	N	-1.071100	0.733481	-0.132240
N416	N	-0.571100	1.233481	0.367760
H417	H	-0.268616	0.596994	-0.387743
H418	H	0.231384	1.096994	0.112257
H419	H	-0.688480	0.568256	-0.297095
H420	H	-0.188480	1.068256	0.202905
H421	H	-0.135649	1.036492	-0.297150
H422	H	0.364351	1.536492	0.202850
H423	H	-0.268613	1.392979	-0.164153
H424	H	0.231387	1.892979	0.335847
H425	H	-0.135651	1.177248	-0.297173
H426	H	0.364349	1.677248	0.202827
H427	H	-1.045044	0.597104	-0.268403
H428	H	-0.545044	1.097104	0.231597
H429	H	-0.297343	1.177141	-0.135395
H430	H	0.202657	1.677141	0.364605
C431	C	-0.479366	0.588716	-0.276559
C432	C	0.020634	1.088716	0.223441
N433	N	-0.498817	0.564902	-0.300356
N434	N	0.001183	1.064902	0.199644
H435	H	-0.268612	0.905692	-0.164103
H436	H	0.231388	1.405692	0.335897
