data_functionalizedCrystal
_audit_creation_method	'MofGen! by Chris Wilmer'
_symmetry_space_group_name_H-M	'P1'
_symmetry_Int_Tables_number	1
_symmetry_cell_setting	triclinic
loop_
_symmetry_equiv_pos_as_xyz
  x,y,z
_cell_length_a	13.339070
_cell_length_b	14.853567
_cell_length_c	12.376457
_cell_angle_alpha	101.296114
_cell_angle_beta	75.589755
_cell_angle_gamma	99.632112
loop_
_atom_site_label
_atom_site_type_symbol
_atom_site_fract_x
_atom_site_fract_y
_atom_site_fract_z
O1	O	1.362302	0.439693	-0.094010
O2	O	1.067691	0.380349	-0.094008
O3	O	1.222867	0.280750	-0.094013
O4	O	1.207126	0.539291	-0.094006
O5	O	1.184087	0.305606	0.094001
O6	O	1.028911	0.405205	0.094005
O7	O	1.323522	0.464549	0.094003
Zn8	Zn	1.170059	0.438823	0.123855
Zn9	Zn	1.221154	0.406074	-0.123860
O10	O	1.168346	0.564147	0.094007
C11	C	1.010598	0.382752	-0.000002
C12	C	0.898254	0.352872	-0.000001
C13	C	0.533790	0.585204	-0.000013
C14	C	0.639343	0.613280	-0.000017
C15	C	0.704076	0.548181	-0.000013
C16	C	0.663245	0.455000	-0.000005
C17	C	0.557684	0.426920	-0.000010
C18	C	0.727970	0.389896	-0.000010
C19	C	0.687140	0.296715	-0.000003
C20	C	0.581588	0.268640	-0.000007
C21	C	0.516855	0.333740	-0.000011
C22	C	0.833531	0.417977	-0.000005
C23	C	0.857425	0.259692	-0.000002
C24	C	0.751872	0.231616	0.000002
C25	C	1.202764	0.259412	-0.000009
C26	C	1.200629	0.158794	-0.000019
C27	C	1.099414	-0.278941	0.000003
C28	C	1.283765	-0.254314	0.000002
C29	C	1.285776	-0.159780	-0.000005
C30	C	1.194604	-0.124823	-0.000006
C31	C	1.101421	-0.184399	-0.000000
C32	C	1.378955	-0.100196	0.000001
C33	C	1.380969	-0.005657	-0.000004
C34	C	1.289798	0.029301	-0.000014
C35	C	1.196611	-0.030281	-0.000009
C36	C	1.105439	0.004677	-0.000010
C37	C	1.012253	-0.054905	-0.000014
C38	C	1.010250	-0.149441	-0.000009
C39	C	1.291801	0.123837	-0.000018
C40	C	1.107446	0.099219	-0.000014
C41	C	1.380616	0.462145	-0.000006
C42	C	1.492961	0.492024	-0.000014
C43	C	1.188449	0.585486	0.000002
C44	C	1.190586	0.686102	0.000004
N45	N	1.135196	0.461175	0.292914
N46	N	1.256025	0.383718	-0.292920
C47	C	1.336954	0.331815	0.647894
C48	C	1.361349	0.316170	0.529553
C49	C	1.304813	0.352419	0.470388
C50	C	1.223877	0.404318	0.529574
C51	C	1.199485	0.419971	0.647926
C52	C	1.167344	0.440575	0.470420
C53	C	1.086409	0.492473	0.529607
C54	C	1.062020	0.508123	0.647948
C55	C	1.118556	0.471873	0.707113
C56	C	1.191736	0.424922	0.352068
C57	C	1.054267	0.513077	0.352101
C58	C	1.029872	0.528723	0.470442
H59	H	0.910132	0.206682	-0.000004
H60	H	1.033203	0.127672	-0.000019
H61	H	1.023545	-0.327457	-0.000004
H62	H	1.357991	-0.282781	0.000012
H63	H	0.996125	0.550390	0.696137
O64	O	0.707823	0.131117	0.000009
H65	H	0.770559	0.090562	0.000023
O66	O	1.477278	-0.137903	0.000016
H67	H	1.537681	-0.123984	-0.076606
H68	H	0.672581	0.689147	-0.000031
H69	H	0.548351	0.192765	-0.000014
H70	H	1.257634	0.382666	0.303889
H71	H	0.938020	-0.026429	-0.000007
O72	O	0.909743	-0.213696	0.000011
H73	H	0.923663	-0.285303	0.000033
O74	O	1.331105	0.335533	0.342749
H75	H	1.396872	0.293345	0.311532
O76	O	0.463975	0.655414	-0.000008
H77	H	0.383716	0.620233	-0.000002
O78	O	1.481480	0.058592	-0.000018
H79	H	1.471012	0.112387	0.076612
H80	H	1.427246	0.273916	0.481368
O81	O	0.403004	0.303452	-0.000002
H82	H	0.364856	0.364377	-0.000004
O83	O	1.392296	0.188100	-0.000022
H84	H	1.455356	0.147909	-0.000025
O85	O	1.397930	0.292732	0.711712
H86	H	1.458310	0.254018	0.650678
H87	H	1.008232	0.542597	0.303929
H88	H	1.098691	0.484608	0.803476
H89	H	0.963973	0.570980	0.518646
H90	H	0.790021	0.571046	-0.000018
O91	O	0.877556	0.518476	0.000009
H92	H	0.867366	0.540910	-0.076616
