data_functionalizedCrystal
_audit_creation_method	'MofGen! by Chris Wilmer'
_symmetry_space_group_name_H-M	'P1'
_symmetry_Int_Tables_number	1
_symmetry_cell_setting	triclinic
loop_
_symmetry_equiv_pos_as_xyz
  x,y,z
_cell_length_a	25.639243
_cell_length_b	25.639239
_cell_length_c	25.639233
_cell_angle_alpha	90.018747
_cell_angle_beta	90.015962
_cell_angle_gamma	90.041410
loop_
_atom_site_label
_atom_site_type_symbol
_atom_site_fract_x
_atom_site_fract_y
_atom_site_fract_z
Zn1	Zn	0.799225	-0.208176	0.295656
Zn2	Zn	1.299225	0.291824	0.795656
Zn3	Zn	0.799149	-0.295595	0.208220
Zn4	Zn	1.299149	0.204405	0.708220
Zn5	Zn	0.711801	-0.208180	0.208229
Zn6	Zn	1.211801	0.291820	0.708229
Zn7	Zn	0.711746	-0.295587	0.295619
Zn8	Zn	1.211746	0.204413	0.795619
O9	O	0.755480	-0.251885	0.251931
O10	O	1.255480	0.248115	0.751931
O11	O	0.872380	-0.219775	0.284069
O12	O	1.372380	0.280225	0.784069
O13	O	0.787553	-0.284004	0.135056
O14	O	1.287553	0.215996	0.635056
O15	O	0.723453	-0.135014	0.219846
O16	O	1.223453	0.364986	0.719846
O17	O	0.872324	-0.284001	0.219830
O18	O	1.372324	0.215999	0.719830
O19	O	0.787683	-0.135012	0.284077
O20	O	1.287683	0.364988	0.784077
O21	O	0.723379	-0.219781	0.135063
O22	O	1.223379	0.280219	0.635063
O23	O	0.638629	-0.219772	0.219810
O24	O	1.138629	0.280228	0.719810
O25	O	0.723360	-0.283987	0.368789
O26	O	1.223360	0.216013	0.868789
O27	O	0.638589	-0.283990	0.284016
O28	O	1.138589	0.216010	0.784016
O29	O	0.787630	-0.219767	0.368816
O30	O	1.287630	0.280233	0.868816
O31	O	0.787499	-0.368759	0.219795
O32	O	1.287499	0.131241	0.719795
O33	O	0.723286	-0.368753	0.284007
O34	O	1.223286	0.131247	0.784007
C35	C	0.619638	-0.251881	0.251910
C36	C	1.119638	0.248119	0.751910
C37	C	0.561524	-0.251892	0.251914
C38	C	1.061524	0.248108	0.751914
C39	C	0.201184	-0.218495	0.285436
C40	C	0.701184	0.281505	0.785436
C41	C	0.146580	-0.218494	0.285439
C42	C	0.646580	0.281506	0.785439
O43	O	0.118363	-0.190088	0.313915
O44	O	0.618363	0.309912	0.813915
N45	N	0.119241	-0.251883	0.251945
N46	N	0.619241	0.248117	0.751945
C47	C	0.146510	-0.285271	0.218443
C48	C	0.646510	0.214729	0.718443
O49	O	0.118242	-0.313670	0.189954
O50	O	0.618242	0.186330	0.689954
C51	C	0.201113	-0.285268	0.218437
C52	C	0.701113	0.214732	0.718437
C53	C	0.228449	-0.251881	0.251937
C54	C	0.728449	0.248119	0.751937
C55	C	0.228520	-0.185109	0.318932
C56	C	0.728520	0.314891	0.818932
C57	C	0.283121	-0.185111	0.318930
C58	C	0.783121	0.314889	0.818930
C59	C	0.310385	-0.218497	0.285431
C60	C	0.810385	0.281503	0.785431
C61	C	0.283049	-0.251882	0.251934
C62	C	0.783049	0.248118	0.751934
C63	C	0.228380	-0.318653	0.184932
C64	C	0.728380	0.181347	0.684932
C65	C	0.282987	-0.318647	0.184929
C66	C	0.782987	0.181353	0.684929
C67	C	0.310323	-0.285260	0.218429
C68	C	0.810323	0.214740	0.718429
C69	C	0.364915	-0.285270	0.218432
C70	C	0.864915	0.214730	0.718432
N71	N	0.392253	-0.251881	0.251926
N72	N	0.892253	0.248119	0.751926
C73	C	0.364989	-0.218494	0.285425
C74	C	0.864989	0.281506	0.785425
C75	C	0.031839	-0.285273	0.218456
C76	C	0.531839	0.214727	0.718456
C77	C	-0.022763	-0.285279	0.218464
C78	C	0.477237	0.214721	0.718464
C79	C	-0.022689	-0.218501	0.285460
C80	C	0.477311	0.281499	0.785460
C81	C	0.031914	-0.218499	0.285454
C82	C	0.531914	0.281501	0.785454
C83	C	0.059178	-0.251884	0.251950
C84	C	0.559178	0.248116	0.751950
C85	C	0.479654	-0.218500	0.285417
C86	C	0.979654	0.281500	0.785417
C87	C	0.534259	-0.218506	0.285413
C88	C	1.034259	0.281494	0.785413
C89	C	0.534180	-0.285281	0.218415
C90	C	1.034180	0.214719	0.718415
C91	C	0.479580	-0.285278	0.218421
C92	C	0.979580	0.214722	0.718421
C93	C	0.452318	-0.251883	0.251924
C94	C	0.952318	0.248117	0.751924
O95	O	0.393166	-0.313659	0.189969
O96	O	0.893166	0.186341	0.689969
O97	O	0.393263	-0.190095	0.313904
O98	O	0.893263	0.309905	0.813904
C99	C	0.755392	-0.387727	0.251907
C100	C	1.255392	0.112273	0.751907
C101	C	0.755403	-0.445841	0.251914
C102	C	1.255403	0.054159	0.751914
C103	C	0.789004	-0.806195	0.218553
C104	C	1.289004	-0.306195	0.718553
C105	C	0.789024	-0.860799	0.218560
C106	C	1.289024	-0.360799	0.718560
O107	O	0.817502	-0.889028	0.190169
O108	O	1.317502	-0.389028	0.690169
N109	N	0.755572	-0.888124	0.251966
N110	N	1.255572	-0.388124	0.751966
C111	C	0.722102	-0.860841	0.285371
C112	C	1.222102	-0.360841	0.785371
O113	O	0.693651	-0.889096	0.313786
O114	O	1.193651	-0.389096	0.813786
C115	C	0.722085	-0.806238	0.285366
C116	C	1.222085	-0.306238	0.785366
C117	C	0.755535	-0.778916	0.251954
C118	C	1.255535	-0.278916	0.751954
C119	C	0.822452	-0.778873	0.185144
C120	C	1.322452	-0.278873	0.685144
C121	C	0.822431	-0.724273	0.185137
C122	C	1.322431	-0.224273	0.685137
C123	C	0.788962	-0.696994	0.218538
C124	C	1.288962	-0.196994	0.718538
C125	C	0.755514	-0.724315	0.251946
C126	C	1.255514	-0.224315	0.751946
C127	C	0.688617	-0.778956	0.318773
C128	C	1.188617	-0.278956	0.818773
C129	C	0.688603	-0.724349	0.318765
C130	C	1.188603	-0.224349	0.818765
C131	C	0.722053	-0.697027	0.285354
C132	C	1.222053	-0.197027	0.785354
C133	C	0.722024	-0.642436	0.285340
C134	C	1.222024	-0.142436	0.785340
N135	N	0.755475	-0.615112	0.251934
N136	N	1.255475	-0.115112	0.751934
C137	C	0.788944	-0.642390	0.218533
C138	C	1.288944	-0.142390	0.718533
C139	C	0.722141	-0.975511	0.285379
C140	C	1.222141	-0.475511	0.785379
C141	C	0.722155	-1.030114	0.285381
C142	C	1.222155	-0.530114	0.785381
C143	C	0.789078	-1.030068	0.218571
C144	C	1.289078	-0.530068	0.718571
C145	C	0.789061	-0.975465	0.218566
C146	C	1.289061	-0.475465	0.718566
C147	C	0.755593	-0.948187	0.251973
C148	C	1.255593	-0.448187	0.751973
C149	C	0.788897	-0.527725	0.218519
C150	C	1.288897	-0.027725	0.718519
C151	C	0.788872	-0.473120	0.218513
C152	C	1.288872	0.026880	0.718513
C153	C	0.721951	-0.473170	0.285325
C154	C	1.221951	0.026830	0.785325
C155	C	0.721974	-0.527771	0.285329
C156	C	1.221974	-0.027771	0.785329
C157	C	0.755452	-0.555047	0.251925
C158	C	1.255452	-0.055047	0.751925
O159	O	0.693562	-0.614173	0.313718
O160	O	1.193562	-0.114173	0.813718
O161	O	0.817396	-0.614128	0.190127
O162	O	1.317396	-0.114128	0.690127
C163	C	0.891853	-0.251888	0.251952
C164	C	1.391853	0.248112	0.751952
C165	C	0.949967	-0.251890	0.251961
C166	C	1.449967	0.248110	0.751961
C167	C	0.755497	-0.251875	0.388304
C168	C	1.255497	0.248125	0.888304
C169	C	0.755504	-0.251871	0.446418
C170	C	1.255504	0.248129	0.946418
C171	C	0.755583	-0.115512	0.251967
C172	C	1.255583	0.384488	0.751967
C173	C	0.755627	-0.057397	0.251982
C174	C	1.255627	0.442603	0.751982
C175	C	0.755494	-0.251856	0.116089
C176	C	1.255494	0.248144	0.616089
C177	C	0.755588	-0.251713	0.057975
C178	C	1.255588	0.248287	0.557975
C179	C	0.789012	-0.218333	0.806801
C180	C	1.289012	0.281667	1.306801
C181	C	0.789019	-0.218318	0.861405
C182	C	1.289019	0.281682	1.361405
O183	O	0.817466	-0.189864	0.889659
O184	O	1.317466	0.310136	1.389659
N185	N	0.755562	-0.251749	0.888701
N186	N	1.255562	0.248251	1.388701
C187	C	0.722093	-0.285192	0.861389
C188	C	1.222093	0.214808	1.361389
O189	O	0.693636	-0.313626	0.889620
O190	O	1.193636	0.186374	1.389620
C191	C	0.722084	-0.285204	0.806786
C192	C	1.222084	0.214796	1.306786
C193	C	0.755547	-0.251775	0.779493
C194	C	1.255547	0.248225	1.279493
C195	C	0.822472	-0.184906	0.779508
C196	C	1.322472	0.315094	1.279508
C197	C	0.822466	-0.184921	0.724908
C198	C	1.322466	0.315079	1.224908
C199	C	0.789001	-0.218363	0.697600
C200	C	1.289001	0.281637	1.197600
C201	C	0.755541	-0.251790	0.724893
C202	C	1.255541	0.248210	1.224893
C203	C	0.688613	-0.318644	0.779475
C204	C	1.188613	0.181356	1.279475
C205	C	0.688607	-0.318653	0.724868
C206	C	1.188607	0.181347	1.224868
C207	C	0.722069	-0.285223	0.697576
C208	C	1.222069	0.214777	1.197576
C209	C	0.722070	-0.285247	0.642984
C210	C	1.222070	0.214753	1.142984
N211	N	0.755526	-0.251817	0.615689
N212	N	1.255526	0.248183	1.115689
C213	C	0.788992	-0.218375	0.642996
C214	C	1.288992	0.281625	1.142996
C215	C	0.722113	-0.285165	0.976060
C216	C	1.222113	0.214835	1.476060
C217	C	0.722124	-0.285157	1.030662
C218	C	1.222124	0.214843	1.530662
C219	C	0.789049	-0.218282	1.030675
C220	C	1.289049	0.281718	1.530675
C221	C	0.789041	-0.218293	0.976071
C222	C	1.289041	0.281707	1.476071
C223	C	0.755570	-0.251735	0.948764
C224	C	1.255570	0.248265	1.448764
C225	C	0.788977	-0.218410	0.528331
C226	C	1.288977	0.281590	1.028331
C227	C	0.788970	-0.218429	0.473726
C228	C	1.288970	0.281571	0.973726
C229	C	0.722043	-0.285302	0.473719
C230	C	1.222043	0.214698	0.973719
C231	C	0.722052	-0.285285	0.528319
C232	C	1.222052	0.214715	1.028319
C233	C	0.755521	-0.251834	0.555624
C234	C	1.255521	0.248166	1.055624
O235	O	0.693635	-0.313686	0.614696
O236	O	1.193635	0.186314	1.114696
O237	O	0.817439	-0.189941	0.614759
O238	O	1.317439	0.310059	1.114759
H239	H	-0.045016	-0.312472	0.191191
H240	H	0.454984	0.187528	0.691191
C241	C	0.685316	-0.945509	0.322123
C242	C	1.185316	-0.445509	0.822123
C243	C	0.644269	-0.908025	0.299425
C244	C	1.144269	-0.408025	0.799425
C245	C	0.607445	-0.878026	0.336169
C246	C	1.107445	-0.378026	0.836169
C247	C	0.611669	-0.885510	0.395610
C248	C	1.111669	-0.385510	0.895610
C249	C	0.652718	-0.922995	0.418311
C250	C	1.152718	-0.422995	0.918311
C251	C	0.689542	-0.952994	0.381567
C252	C	1.189542	-0.452994	0.881567
H253	H	0.641140	-0.902483	0.255419
H254	H	1.141140	-0.402483	0.755419
H255	H	0.577057	-0.850277	0.319363
H256	H	1.077057	-0.350277	0.819363
H257	H	0.584409	-0.863302	0.422810
H258	H	1.084409	-0.363302	0.922810
H259	H	0.655846	-0.928537	0.462317
H260	H	1.155846	-0.428537	0.962317
H261	H	0.719929	-0.980743	0.398373
H262	H	1.219929	-0.480743	0.898373
H263	H	0.556514	-0.191317	0.312694
H264	H	1.056514	0.308683	0.812694
C265	C	0.061982	-0.181769	0.322300
C266	C	0.561982	0.318231	0.822300
C267	C	0.054491	-0.186123	0.381730
C268	C	0.554491	0.313877	0.881730
C269	C	0.084555	-0.149391	0.418577
C270	C	0.584555	0.350609	0.918577
C271	C	0.122110	-0.108304	0.395993
C272	C	0.622110	0.391696	0.895993
C273	C	0.129603	-0.103948	0.336560
C274	C	0.629603	0.396052	0.836560
C275	C	0.099538	-0.140680	0.299714
C276	C	0.599538	0.359320	0.799714
H277	H	0.026689	-0.216540	0.398451
H278	H	0.526689	0.283460	0.898451
H279	H	0.079008	-0.152616	0.462574
H280	H	0.579008	0.347384	0.962574
H281	H	0.144365	-0.081112	0.423269
H282	H	0.644365	0.418888	0.923269
H283	H	0.157405	-0.073531	0.319840
H284	H	0.657405	0.426469	0.819840
H285	H	0.105085	-0.137455	0.255717
H286	H	0.605085	0.362545	0.755717
H287	H	0.661345	-0.345880	0.702638
H288	H	1.161345	0.154120	1.202638
C289	C	0.651784	-0.694343	0.355512
C290	C	1.151784	-0.194343	0.855512
C291	C	0.592353	-0.701920	0.351189
C292	C	1.092353	-0.201920	0.851189
C293	C	0.555533	-0.671916	0.387933
C294	C	1.055533	-0.171916	0.887933
C295	C	0.578145	-0.634335	0.429000
C296	C	1.078145	-0.134335	0.929000
C297	C	0.637580	-0.626756	0.433325
C298	C	1.137580	-0.126756	0.933325
C299	C	0.674399	-0.656761	0.396580
C300	C	1.174399	-0.156761	0.896580
H301	H	0.575611	-0.729742	0.320787
H302	H	1.075611	-0.229742	0.820787
H303	H	0.511536	-0.677526	0.384732
H304	H	1.011536	-0.177526	0.884732
H305	H	0.550889	-0.612123	0.456200
H306	H	1.050889	-0.112123	0.956200
H307	H	0.654321	-0.598935	0.463726
H308	H	1.154321	-0.098935	0.963726
H309	H	0.718397	-0.651150	0.399782
H310	H	1.218397	-0.151150	0.899782
H311	H	0.054034	-0.312464	0.191174
H312	H	0.554034	0.187536	0.691174
C313	C	0.685297	-0.321959	0.946026
C314	C	1.185297	0.178041	1.446026
C315	C	0.644253	-0.299316	0.908488
C316	C	1.144253	0.200684	1.408488
C317	C	0.607435	-0.336109	0.878458
C318	C	1.107435	0.163891	1.378458
C319	C	0.611661	-0.395544	0.885966
C320	C	1.111661	0.104456	1.385966
C321	C	0.652706	-0.418189	0.923506
C322	C	1.152706	0.081811	1.423506
C323	C	0.689524	-0.381397	0.953536
C324	C	1.189524	0.118603	1.453536
H325	H	0.641123	-0.255316	0.902929
H326	H	1.141123	0.244684	1.402929
H327	H	0.577051	-0.319344	0.850669
H328	H	1.077051	0.180656	1.350669
H329	H	0.584407	-0.422779	0.863736
H330	H	1.084407	0.077221	1.363736
H331	H	0.655836	-0.462189	0.929065
H332	H	1.155836	0.037811	1.429065
H333	H	0.719908	-0.398161	0.981325
H334	H	1.219908	0.101839	1.481325
C335	C	0.685261	-0.322067	0.558353
C336	C	1.185261	0.177933	1.058353
C337	C	0.689499	-0.381506	0.550845
C338	C	1.189499	0.118494	1.050845
C339	C	0.652710	-0.418288	0.580877
C340	C	1.152710	0.081712	1.080877
C341	C	0.611684	-0.395632	0.618418
C342	C	1.111684	0.104368	1.118418
C343	C	0.607445	-0.336190	0.625928
C344	C	1.107445	0.163810	1.125928
C345	C	0.644233	-0.299408	0.595895
C346	C	1.144233	0.200592	1.095895
H347	H	0.719870	-0.398280	0.523053
H348	H	1.219870	0.101720	1.023053
H349	H	0.655849	-0.462291	0.575318
H350	H	1.155849	0.037709	1.075318
H351	H	0.584451	-0.422861	0.640650
H352	H	1.084451	0.077139	1.140650
H353	H	0.577073	-0.319416	0.653719
H354	H	1.077073	0.180584	1.153719
H355	H	0.641095	-0.255405	0.601454
H356	H	1.141095	0.244595	1.101454
C357	C	-0.052685	-0.181773	0.322310
C358	C	0.447315	0.318227	0.822310
C359	C	-0.090227	-0.204492	0.363317
C360	C	0.409773	0.295508	0.863317
C361	C	-0.120223	-0.167767	0.400167
C362	C	0.379777	0.332233	0.900167
C363	C	-0.112678	-0.108323	0.396009
C364	C	0.387322	0.391677	0.896009
C365	C	-0.075135	-0.085600	0.354999
C366	C	0.424865	0.414400	0.854999
C367	C	-0.045138	-0.122325	0.318150
C368	C	0.454862	0.377675	0.818150
H369	H	-0.095813	-0.248499	0.366397
H370	H	0.404187	0.251501	0.866397
H371	H	-0.148015	-0.184588	0.430524
H372	H	0.351985	0.315412	0.930524
H373	H	-0.134883	-0.081137	0.423287
H374	H	0.365117	0.418863	0.923287
H375	H	-0.069548	-0.041593	0.351920
H376	H	0.430452	0.458407	0.851920
H377	H	-0.017346	-0.105504	0.287792
H378	H	0.482654	0.394496	0.787792
H379	H	0.694798	-0.312531	0.451475
H380	H	1.194798	0.187469	0.951475
H381	H	0.206133	-0.345840	0.157652
H382	H	0.706133	0.154160	0.657652
H383	H	0.849714	-0.157699	0.702691
H384	H	1.349714	0.342301	1.202691
H385	H	0.816333	-1.052289	0.191376
H386	H	1.316333	-0.552289	0.691376
H387	H	0.206327	-0.157919	0.346212
H388	H	0.706327	0.342081	0.846212
H389	H	0.694738	-0.550017	0.312538
H390	H	1.194738	-0.050017	0.812538
C391	C	0.685135	-0.443159	0.322066
C392	C	1.185135	0.056841	0.822066
C393	C	0.689366	-0.450633	0.381508
C394	C	1.189366	0.049367	0.881508
C395	C	0.652553	-0.420620	0.418252
C396	C	1.152553	0.079380	0.918252
C397	C	0.611508	-0.383133	0.395553
C398	C	1.111508	0.116867	0.895553
C399	C	0.607276	-0.375658	0.336107
C400	C	1.107276	0.124342	0.836107
C401	C	0.644089	-0.405670	0.299363
C402	C	1.144089	0.094330	0.799363
H403	H	0.719751	-0.478384	0.398314
H404	H	1.219751	0.021616	0.898314
H405	H	0.655686	-0.426154	0.462258
H406	H	1.155686	0.073846	0.962258
H407	H	0.584257	-0.360916	0.422753
H408	H	1.084257	0.139084	0.922753
H409	H	0.576891	-0.347906	0.319301
H410	H	1.076891	0.152094	0.819301
H411	H	0.640956	-0.400136	0.255358
H412	H	1.140956	0.099864	0.755358
C413	C	0.825796	-0.181618	0.558362
C414	C	1.325796	0.318382	1.058362
C415	C	0.885228	-0.185895	0.550856
C416	C	1.385228	0.314105	1.050856
C417	C	0.922049	-0.149107	0.580887
C418	C	1.422049	0.350893	1.080887
C419	C	0.899438	-0.108041	0.618423
C420	C	1.399438	0.391959	1.118423
C421	C	0.840003	-0.103762	0.625930
C422	C	1.340003	0.396238	1.125930
C423	C	0.803182	-0.140550	0.595899
C424	C	1.303182	0.359450	1.095899
H425	H	0.901968	-0.216296	0.523069
H426	H	1.401968	0.283704	1.023069
H427	H	0.966047	-0.152275	0.575329
H428	H	1.466047	0.347725	1.075329
H429	H	0.926695	-0.080808	0.640653
H430	H	1.426695	0.419192	1.140653
H431	H	0.823262	-0.073361	0.653718
H432	H	1.323262	0.426639	1.153718
H433	H	0.759184	-0.137382	0.601457
H434	H	1.259184	0.362618	1.101457
C435	C	0.449670	-0.181769	0.322272
C436	C	0.949670	0.318231	0.822272
C437	C	0.457201	-0.186130	0.381700
C438	C	0.957201	0.313870	0.881700
C439	C	0.427218	-0.149402	0.418557
C440	C	0.927218	0.350598	0.918557
C441	C	0.389703	-0.108313	0.395986
C442	C	0.889703	0.391687	0.895986
C443	C	0.382171	-0.103951	0.336555
C444	C	0.882171	0.396049	0.836555
C445	C	0.412155	-0.140679	0.299698
C446	C	0.912155	0.359321	0.799698
H447	H	0.484973	-0.216547	0.398411
H448	H	0.984973	0.283453	0.898411
H449	H	0.432794	-0.152632	0.462552
H450	H	0.932794	0.347368	0.962552
H451	H	0.367508	-0.081125	0.423270
H452	H	0.867508	0.418875	0.923270
H453	H	0.354399	-0.073533	0.319844
H454	H	0.854399	0.426467	0.819844
H455	H	0.406578	-0.137449	0.255703
H456	H	0.906578	0.362551	0.755703
C457	C	0.859290	-0.148117	0.809540
C458	C	1.359290	0.351883	1.309540
C459	C	0.918721	-0.152394	0.802028
C460	C	1.418721	0.347606	1.302028
C461	C	0.955545	-0.115606	0.832055
C462	C	1.455545	0.384394	1.332055
C463	C	0.932938	-0.074540	0.869593
C464	C	1.432938	0.425460	1.369593
C465	C	0.873503	-0.070262	0.877107
C466	C	1.373503	0.429738	1.377107
C467	C	0.836679	-0.107050	0.847080
C468	C	1.336679	0.392950	1.347080
H469	H	0.935459	-0.182794	0.774238
H470	H	1.435459	0.317206	1.274238
H471	H	0.999542	-0.118773	0.826493
H472	H	1.499542	0.381227	1.326493
H473	H	0.960197	-0.047307	0.891821
H474	H	1.460197	0.452693	1.391821
H475	H	0.856765	-0.039861	0.904897
H476	H	1.356765	0.460139	1.404897
H477	H	0.792682	-0.103883	0.852642
H478	H	1.292682	0.396117	1.352642
H479	H	0.694881	-0.312384	1.052880
H480	H	1.194881	0.187616	1.552880
C481	C	0.825860	-0.181491	1.060720
C482	C	1.325860	0.318509	1.560720
C483	C	0.825862	-0.181479	1.120781
C484	C	1.325862	0.318521	1.620781
C485	C	0.862670	-0.144691	1.150828
C486	C	1.362670	0.355309	1.650828
C487	C	0.899476	-0.107915	1.120813
C488	C	1.399476	0.392085	1.620813
C489	C	0.899475	-0.107926	1.060748
C490	C	1.399475	0.392074	1.560748
C491	C	0.862667	-0.144714	1.030702
C492	C	1.362667	0.355286	1.530702
H493	H	0.798615	-0.208703	1.143003
H494	H	1.298615	0.291297	1.643003
H495	H	0.862671	-0.144683	1.195292
H496	H	1.362671	0.355317	1.695292
H497	H	0.926724	-0.080682	1.143056
H498	H	1.426724	0.419318	1.643056
H499	H	0.926722	-0.080701	1.038527
H500	H	1.426722	0.419299	1.538527
H501	H	0.862666	-0.144722	0.986237
H502	H	1.362666	0.355278	1.486237
H503	H	0.694912	-1.052354	0.312583
H504	H	1.194912	-0.552354	0.812583
H505	H	0.305373	-0.157922	0.346208
H506	H	0.805373	0.342078	0.846208
H507	H	0.305183	-0.345834	0.157644
H508	H	0.805183	0.154166	0.657644
H509	H	0.816221	-0.191207	0.451507
H510	H	1.316221	0.308793	0.951507
H511	H	0.816288	-0.191071	0.953853
H512	H	1.316288	0.308929	1.453853
H513	H	0.661376	-0.801192	0.345978
H514	H	1.161376	-0.301192	0.845978
C515	C	0.449505	-0.322004	0.181575
C516	C	0.949505	0.177996	0.681575
C517	C	0.457000	-0.317647	0.122145
C518	C	0.957000	0.182353	0.622145
C519	C	0.426929	-0.354369	0.085294
C520	C	0.926929	0.145631	0.585294
C521	C	0.389363	-0.395449	0.107872
C522	C	0.889363	0.104551	0.607872
C523	C	0.381866	-0.399808	0.167305
C524	C	0.881866	0.100192	0.667305
C525	C	0.411937	-0.363086	0.204156
C526	C	0.911937	0.136914	0.704156
H527	H	0.484810	-0.287235	0.105429
H528	H	0.984810	0.212765	0.605429
H529	H	0.432478	-0.351141	0.041298
H530	H	0.932478	0.148859	0.541298
H531	H	0.367103	-0.422633	0.080593
H532	H	0.867103	0.077367	0.580593
H533	H	0.354056	-0.430220	0.184021
H534	H	0.854056	0.069780	0.684021
H535	H	0.406388	-0.366313	0.248152
H536	H	0.906388	0.133687	0.748152
C537	C	0.564179	-0.322003	0.181567
C538	C	1.064179	0.177997	0.681567
C539	C	0.601719	-0.299276	0.140562
C540	C	1.101719	0.200724	0.640562
C541	C	0.631720	-0.335995	0.103710
C542	C	1.131720	0.164005	0.603710
C543	C	0.624181	-0.395440	0.107863
C544	C	1.124181	0.104560	0.607863
C545	C	0.586639	-0.418170	0.148869
C546	C	1.086639	0.081830	0.648869
C547	C	0.556638	-0.381452	0.185721
C548	C	1.056638	0.118548	0.685721
H549	H	0.607302	-0.255268	0.137487
H550	H	1.107302	0.244732	0.637487
H551	H	0.659511	-0.319168	0.073355
H552	H	1.159511	0.180832	0.573355
H553	H	0.646389	-0.422622	0.080583
H554	H	1.146389	0.077378	0.580583
H555	H	0.581056	-0.462178	0.151944
H556	H	1.081056	0.037822	0.651944
H557	H	0.528847	-0.398278	0.216076
H558	H	1.028847	0.101722	0.716076
C559	C	0.825671	-0.443067	0.181760
C560	C	1.325671	0.056933	0.681760
C561	C	0.821450	-0.450612	0.122319
C562	C	1.321450	0.049388	0.622319
C563	C	0.858248	-0.420562	0.085568
C564	C	1.358248	0.079438	0.585568
C565	C	0.899268	-0.382967	0.108256
C566	C	1.399268	0.117033	0.608256
C567	C	0.903491	-0.375422	0.167700
C568	C	1.403491	0.124578	0.667700
C569	C	0.866692	-0.405472	0.204451
C570	C	1.366692	0.094528	0.704451
H571	H	0.791083	-0.478442	0.105521
H572	H	1.291083	0.021558	0.605521
H573	H	0.855122	-0.426148	0.041564
H574	H	1.355122	0.073852	0.541564
H575	H	0.926509	-0.360723	0.081050
H576	H	1.426509	0.139277	0.581050
H577	H	0.933857	-0.347591	0.184498
H578	H	1.433857	0.152409	0.684498
H579	H	0.869818	-0.399886	0.248455
H580	H	1.369818	0.100114	0.748455
H581	H	0.816159	-0.549927	0.191319
H582	H	1.316159	-0.049927	0.691319
C583	C	0.859233	-0.694226	0.148387
C584	C	1.359233	-0.194226	0.648387
C585	C	0.855015	-0.701772	0.088947
C586	C	1.355015	-0.201772	0.588947
C587	C	0.891821	-0.671730	0.052196
C588	C	1.391821	-0.171730	0.552196
C589	C	0.932846	-0.634143	0.074886
C590	C	1.432846	-0.134143	0.574886
C591	C	0.937066	-0.626595	0.134329
C592	C	1.437066	-0.126595	0.634329
C593	C	0.900259	-0.656636	0.171079
C594	C	1.400259	-0.156636	0.671079
H595	H	0.824644	-0.729598	0.072148
H596	H	1.324644	-0.229598	0.572148
H597	H	0.888697	-0.677318	0.008192
H598	H	1.388697	-0.177318	0.508192
H599	H	0.960092	-0.611904	0.047681
H600	H	1.460092	-0.111904	0.547681
H601	H	0.967436	-0.598768	0.151128
H602	H	1.467436	-0.098768	0.651128
H603	H	0.903383	-0.651048	0.215083
H604	H	1.403383	-0.151048	0.715083
H605	H	0.816300	-0.953223	0.191360
H606	H	1.316300	-0.453223	0.691360
C607	C	0.859271	-0.808873	0.148398
C608	C	1.359271	-0.308873	0.648398
C609	C	0.855037	-0.801384	0.088957
C610	C	1.355037	-0.301384	0.588957
C611	C	0.891856	-0.831379	0.052204
C612	C	1.391856	-0.331379	0.552204
C613	C	0.932908	-0.868862	0.074892
C614	C	1.432908	-0.368862	0.574892
C615	C	0.937144	-0.876353	0.134336
C616	C	1.437144	-0.376353	0.634336
C617	C	0.900325	-0.846359	0.171088
C618	C	1.400325	-0.346359	0.671088
H619	H	0.824645	-0.773634	0.072159
H620	H	1.324645	-0.273634	0.572159
H621	H	0.888720	-0.825833	0.008200
H622	H	1.388720	-0.325833	0.508200
H623	H	0.960164	-0.891066	0.047685
H624	H	1.460164	-0.391066	0.547685
H625	H	0.967536	-0.904103	0.151133
H626	H	1.467536	-0.404103	0.651133
H627	H	0.903461	-0.851904	0.215093
H628	H	1.403461	-0.351904	0.715093
H629	H	0.661364	-0.345866	0.801688
H630	H	1.161364	0.154134	1.301688
