data_functionalizedCrystal
_audit_creation_method	'MofGen! by Chris Wilmer'
_symmetry_space_group_name_H-M	'P1'
_symmetry_Int_Tables_number	1
_symmetry_cell_setting	triclinic
loop_
_symmetry_equiv_pos_as_xyz
  x,y,z
_cell_length_a	14.853568
_cell_length_b	13.930277
_cell_length_c	14.853567
_cell_angle_alpha	89.999243
_cell_angle_beta	83.635059
_cell_angle_gamma	89.995589
loop_
_atom_site_label
_atom_site_type_symbol
_atom_site_fract_x
_atom_site_fract_y
_atom_site_fract_z
O1	O	-1.196368	0.079760	-0.117706
O2	O	-0.933909	0.079775	-0.131727
O3	O	-1.072149	0.079770	0.006513
O4	O	-1.058128	0.079765	-0.255946
O5	O	-1.072130	-0.079892	0.006516
O6	O	-0.933889	-0.079887	-0.131724
O7	O	-1.196349	-0.079902	-0.117703
Zn8	Zn	-1.065116	-0.105244	-0.124713
Zn9	Zn	-1.065141	0.105117	-0.124717
O10	O	-1.058108	-0.079897	-0.255943
C11	C	-0.900310	-0.000054	-0.131090
C12	C	-0.800227	-0.000048	-0.129186
N13	N	-1.065105	-0.248810	-0.124710
C14	C	-0.387693	-0.000069	-0.039019
C15	C	-0.366412	-0.000072	-0.203252
C16	C	-0.460446	-0.000068	-0.205043
C17	C	-0.518107	-0.000064	-0.123820
C18	C	-0.481736	-0.000063	-0.040807
C19	C	-0.496825	-0.000059	-0.288054
C20	C	-0.590864	-0.000055	-0.289848
C21	C	-0.648527	-0.000058	-0.208624
C22	C	-0.612150	-0.000058	-0.125608
C23	C	-0.669812	-0.000054	-0.044385
C24	C	-0.633437	-0.000061	0.038632
C25	C	-0.539399	-0.000066	0.040416
C26	C	-0.742565	-0.000052	-0.210409
C27	C	-0.763855	-0.000047	-0.046173
C28	C	-1.003926	-0.701077	-0.185906
C29	C	-1.126381	-0.701051	-0.063521
C30	C	-1.126371	-0.600555	-0.063519
C31	C	-1.065138	-0.550316	-0.124711
C32	C	-1.003915	-0.600572	-0.185907
C33	C	-1.187598	-0.550291	-0.002330
C34	C	-1.187590	-0.449790	-0.002326
C35	C	-1.126352	-0.399548	-0.063515
C36	C	-1.065127	-0.449811	-0.124712
C37	C	-1.003894	-0.399572	-0.185905
C38	C	-0.942663	-0.449832	-0.247098
C39	C	-0.942677	-0.550331	-0.247096
C40	C	-1.126338	-0.299050	-0.063517
C41	C	-1.003883	-0.299067	-0.185905
C42	C	-0.229947	-0.000072	-0.118340
C43	C	-0.330031	-0.000073	-0.120242
C44	C	-1.071504	-0.000058	0.040103
C45	C	-1.069600	-0.000050	0.140187
N46	N	-1.065159	0.248683	-0.124713
C47	C	-1.058753	-0.000067	-0.289534
C48	C	-1.060657	-0.000069	-0.389617
C49	C	-0.979435	-0.000063	0.552721
C50	C	-1.143667	-0.000072	0.574002
C51	C	-1.145457	-0.000067	0.479968
C52	C	-1.064235	-0.000061	0.422306
C53	C	-0.981222	-0.000060	0.458678
C54	C	-1.228469	-0.000077	0.443589
C55	C	-1.230262	-0.000072	0.349550
C56	C	-1.149039	-0.000059	0.291886
C57	C	-1.066023	-0.000058	0.328263
C58	C	-0.984800	-0.000052	0.270602
C59	C	-0.901783	-0.000044	0.306977
C60	C	-0.899999	-0.000048	0.401015
C61	C	-1.150823	-0.000056	0.197849
C62	C	-0.986588	-0.000049	0.176559
H63	H	-0.810798	-0.000048	0.019969
H64	H	-0.920445	-0.000040	0.129616
H65	H	-0.680397	-0.000051	0.104763
H66	H	-1.237446	-0.408873	0.047502
Cl67	Cl	-0.799679	-0.000045	0.234478
H68	H	-1.294595	-0.000090	0.490543
Cl69	Cl	-0.424333	-0.000049	-0.390155
Cl70	Cl	-0.865693	-0.386664	-0.324029
H71	H	-1.237457	-0.591200	0.047487
Cl72	Cl	-1.203313	-0.235871	0.013401
H73	H	-0.832411	-0.000042	0.430641
Cl74	Cl	-0.636584	-0.000049	-0.394209
H75	H	-0.772178	-0.000048	-0.278000
Cl76	Cl	-0.926895	-0.235917	-0.262833
H77	H	-0.892826	-0.591260	-0.296918
Cl78	Cl	-0.875076	-0.000043	0.598448
H79	H	-0.954071	-0.742002	-0.235727
Cl80	Cl	-1.245770	-0.000095	0.646491
H81	H	-1.176240	-0.741959	-0.013704
H82	H	-1.218414	-0.000069	0.168236
Cl83	Cl	-0.493664	-0.000069	0.144770
Cl84	Cl	-0.341967	-0.000083	0.065339
H85	H	-0.319459	-0.000067	-0.269380
H86	H	-1.297859	-0.000078	0.319941
