data_functionalizedCrystal
_audit_creation_method	'MofGen! by Chris Wilmer'
_symmetry_space_group_name_H-M	'P1'
_symmetry_Int_Tables_number	1
_symmetry_cell_setting	triclinic
loop_
_symmetry_equiv_pos_as_xyz
  x,y,z
_cell_length_a	12.759400
_cell_length_b	12.827893
_cell_length_c	12.827885
_cell_angle_alpha	90.020999
_cell_angle_beta	89.969506
_cell_angle_gamma	89.987296
loop_
_atom_site_label
_atom_site_type_symbol
_atom_site_fract_x
_atom_site_fract_y
_atom_site_fract_z
Zn1	Zn	-0.418271	-1.597675	-0.590892
Zn2	Zn	-0.593986	-1.597571	-0.416150
Zn3	Zn	-0.418316	-1.422916	-0.416160
Zn4	Zn	-0.593902	-1.422904	-0.590845
O5	O	-0.506119	-1.510266	-0.503511
O6	O	-0.441596	-1.743897	-0.567727
O7	O	-0.570738	-1.574365	-0.269915
O8	O	-0.271289	-1.446147	-0.439363
O9	O	-0.570694	-1.743821	-0.439345
O10	O	-0.271256	-1.574541	-0.567737
O11	O	-0.441673	-1.446046	-0.269923
O12	O	-0.441592	-1.276678	-0.439317
O13	O	-0.570550	-1.446125	-0.737087
O14	O	-0.570594	-1.276669	-0.567657
O15	O	-0.441515	-1.574529	-0.737122
O16	O	-0.740996	-1.574352	-0.439299
O17	O	-0.740935	-1.446025	-0.567647
C18	C	-0.506089	-1.238756	-0.503483
C19	C	-0.506102	-1.122603	-0.503496
C20	C	-0.442347	-0.950812	-0.567133
C21	C	-0.442332	-1.070862	-0.567121
C22	C	-0.779086	-1.510204	-0.503490
C23	C	-0.895863	-1.510273	-0.503515
C24	C	-0.950722	-1.577168	-0.436759
C25	C	-1.060446	-1.577232	-0.436791
C26	C	-1.060442	-1.443499	-0.570339
C27	C	-0.950720	-1.443440	-0.570312
C28	C	-0.895865	-1.644001	-0.369962
C29	C	-0.950725	-1.710899	-0.303200
C30	C	-1.060449	-1.710964	-0.303232
C31	C	-1.115313	-1.644129	-0.370027
C32	C	-0.232086	-1.510357	-0.503556
C33	C	-0.115309	-1.510396	-0.503575
C34	C	-0.506018	-1.510337	-0.776082
C35	C	-0.505975	-1.510368	-0.892235
C36	C	-0.506141	-0.782836	-0.503532
C37	C	-0.506128	-0.898990	-0.503519
C38	C	-0.442112	-1.573913	-0.944037
C39	C	-0.442066	-1.573946	-1.064087
C40	C	-0.506144	-1.510256	-0.232002
C41	C	-0.505891	-1.510428	-0.115849
H42	H	-0.806522	-1.643953	-0.369926
C43	C	-1.236014	-1.644207	-0.370062
N44	N	-1.326924	-1.644263	-0.370084
C45	C	-0.579793	-1.436897	-0.952384
N46	N	-0.635394	-1.381557	-0.997688
H47	H	-0.387722	-1.115428	-0.621578
C48	C	-0.368575	-0.890686	-0.640709
N49	N	-0.313001	-0.845401	-0.696123
H50	H	-0.906048	-1.765320	-0.248823
C51	C	-1.120791	-1.784554	-0.229794
N52	N	-1.166239	-1.839981	-0.174474
C53	C	-0.579877	-1.062407	-0.429914
N54	N	-0.635446	-1.017059	-0.374493
H55	H	-0.560729	-0.943499	-0.449054
H56	H	-1.105121	-1.389084	-0.624720
H57	H	-0.387393	-1.628352	-1.108636
H58	H	-0.560573	-1.456025	-1.071307
H59	H	-0.906053	-1.388970	-0.624672
C60	C	-0.368287	-1.647376	-0.883888
N61	N	-0.312680	-1.702711	-0.838584
