data_functionalizedCrystal
_audit_creation_method	'MofGen! by Chris Wilmer'
_symmetry_space_group_name_H-M	'P1'
_symmetry_Int_Tables_number	1
_symmetry_cell_setting	triclinic
loop_
_symmetry_equiv_pos_as_xyz
  x,y,z
_cell_length_a	10.654559
_cell_length_b	19.188924
_cell_length_c	9.730223
_cell_angle_alpha	89.996615
_cell_angle_beta	89.999563
_cell_angle_gamma	83.815324
loop_
_atom_site_label
_atom_site_type_symbol
_atom_site_fract_x
_atom_site_fract_y
_atom_site_fract_z
O1	O	1.665747	0.098090	-0.114304
O2	O	1.300072	0.107426	-0.114306
O3	O	1.493467	0.001171	-0.114289
O4	O	1.472353	0.204345	-0.114322
O5	O	1.493465	0.001174	0.114291
O6	O	1.300070	0.107428	0.114274
O7	O	1.665745	0.098092	0.114276
Zn8	Zn	1.482907	0.102761	0.150567
Zn9	Zn	1.482910	0.102757	-0.150597
O10	O	1.472350	0.204347	0.114258
C11	C	1.253288	0.106740	-0.000016
C12	C	1.113889	0.104685	-0.000016
C13	C	1.063717	0.040193	-0.000002
C14	C	0.932735	0.038266	-0.000012
C15	C	0.902109	0.165331	-0.000044
C16	C	1.033088	0.167256	-0.000044
C17	C	1.081398	-0.033167	0.000022
C18	C	0.950416	-0.035094	0.000012
C19	C	1.492783	-0.024843	0.000002
C20	C	1.490735	-0.102361	0.000006
C21	C	1.489781	-0.138768	-0.124593
C22	C	1.487838	-0.211603	-0.124604
C23	C	1.486876	-0.248031	-0.000008
C24	C	1.487824	-0.211615	0.124608
C25	C	1.489753	-0.138780	0.124615
N26	N	1.555308	-0.367245	0.092726
N27	N	1.553477	-0.436435	0.092711
C28	C	1.481059	-0.467479	-0.000021
N29	N	1.410557	-0.426719	-0.092759
N30	N	1.412393	-0.357523	-0.092748
C31	C	1.484783	-0.327008	-0.000002
C32	C	1.477997	-0.582862	-0.124640
C33	C	1.476046	-0.655698	-0.124646
C34	C	1.476045	-0.655709	0.124569
C35	C	1.477982	-0.582873	0.124571
C36	C	1.478964	-0.546454	-0.000038
C37	C	1.712529	0.098778	-0.000017
C38	C	1.851928	0.100833	-0.000026
C39	C	1.473034	0.230361	-0.000036
C40	C	1.475082	0.307880	-0.000049
N41	N	1.482914	0.102763	0.356103
N42	N	1.482913	0.102750	-0.356134
C43	C	1.568571	0.055729	0.428037
C44	C	1.568568	0.055721	0.571920
C45	C	1.397247	0.149786	0.571923
C46	C	1.397245	0.149790	0.428042
C47	C	1.667486	0.001424	0.428036
C48	C	1.667482	0.001415	0.571919
H49	H	1.490576	-0.109120	-0.226060
O50	O	1.775821	0.021629	0.374595
C51	C	1.835703	-0.032919	0.293085
H52	H	1.763015	-0.068477	0.257435
H53	H	1.880708	-0.009672	0.199758
H54	H	1.911807	-0.064717	0.356149
O55	O	1.132126	-0.066146	-0.113985
C56	C	1.264017	-0.064129	-0.113783
H57	H	1.297766	-0.056787	-0.004077
H58	H	1.312210	-0.115401	-0.156995
H59	H	1.288726	-0.018568	-0.180113
H60	H	1.073932	0.219772	-0.000079
O61	O	1.474915	-0.691143	0.245524
C62	C	1.365034	-0.725867	0.252975
H63	H	1.328517	-0.734319	0.144782
H64	H	1.388102	-0.778743	0.305730
H65	H	1.289632	-0.692619	0.314435
H66	H	1.763740	0.013379	0.610968
H67	H	1.127508	-0.055328	0.098723
O68	O	1.478983	-0.547617	0.245731
C69	C	1.477688	-0.595382	0.355705
H70	H	1.516054	-0.649999	0.319169
H71	H	1.539206	-0.578482	0.442849
H72	H	1.376761	-0.596291	0.394023
H73	H	1.327486	0.188082	0.369475
H74	H	1.647181	-0.052240	0.388991
O75	O	1.632218	-0.059086	0.624988
C76	C	1.509181	-0.068118	0.580139
H77	H	1.487823	-0.037203	0.481294
H78	H	1.502053	-0.126097	0.560150
H79	H	1.438178	-0.048359	0.662703
H80	H	1.487053	-0.241251	-0.226071
O81	O	1.486668	-0.246951	0.245677
C82	C	1.378417	-0.221765	0.321491
H83	H	1.302950	-0.196582	0.248582
H84	H	1.340651	-0.267189	0.378007
H85	H	1.404115	-0.181158	0.399187
H86	H	1.490525	-0.109138	0.226081
H87	H	0.836305	0.216273	-0.000068
H88	H	1.478789	-0.553207	-0.226104
O89	O	0.908625	-0.062899	-0.117855
C90	C	0.939774	-0.022113	-0.230877
H91	H	1.022869	0.007832	-0.202560
H92	H	0.966623	-0.057828	-0.322240
H93	H	0.855019	0.016635	-0.259225
O94	O	0.916261	-0.069404	0.114095
C95	C	0.977097	-0.138396	0.113888
H96	H	1.065599	-0.140791	0.047472
H97	H	1.004444	-0.154634	0.223485
H98	H	0.910443	-0.175551	0.070542
H99	H	1.327497	0.188073	0.630511
O100	O	1.475190	-0.690962	-0.245812
C101	C	1.476448	-0.643194	-0.355784
H102	H	1.517560	-0.593973	-0.319239
H103	H	1.536866	-0.668372	-0.442915
H104	H	1.375939	-0.628611	-0.394124
