data_functionalizedCrystal
_audit_creation_method	'MofGen! by Chris Wilmer'
_symmetry_space_group_name_H-M	'P1'
_symmetry_Int_Tables_number	1
_symmetry_cell_setting	triclinic
loop_
_symmetry_equiv_pos_as_xyz
  x,y,z
_cell_length_a	13.897449
_cell_length_b	10.685741
_cell_length_c	10.686551
_cell_angle_alpha	90.363604
_cell_angle_beta	94.395826
_cell_angle_gamma	85.634011
loop_
_atom_site_label
_atom_site_type_symbol
_atom_site_fract_x
_atom_site_fract_y
_atom_site_fract_z
Zn1	Zn	1.544735	-0.444847	0.747633
Zn2	Zn	1.546550	-0.670749	0.553976
Zn3	Zn	1.372067	-0.461014	0.537888
Zn4	Zn	1.396681	-0.654562	0.763682
O5	O	1.465008	-0.557793	0.650794
O6	O	1.679959	-0.474822	0.721960
O7	O	1.513863	-0.656467	0.376300
O8	O	1.383911	-0.283328	0.552261
O9	O	1.681292	-0.640791	0.579681
O10	O	1.510770	-0.271450	0.706360
O11	O	1.385671	-0.502376	0.364480
O12	O	1.240349	-0.486680	0.567823
O13	O	1.425862	-0.613203	0.937095
O14	O	1.258432	-0.628879	0.733713
O15	O	1.534637	-0.459126	0.925304
O16	O	1.537730	-0.844143	0.595243
O17	O	1.427622	-0.832250	0.749313
C18	C	1.214391	-0.557778	0.650765
C19	C	1.107180	-0.557800	0.650784
C20	C	1.444392	-0.230601	0.625726
C21	C	1.435607	-0.091171	0.615044
C22	C	0.910887	-0.557802	0.650817
C23	C	1.020118	-0.557797	0.650795
C24	C	1.485571	-0.883710	0.675793
C25	C	1.494459	-1.023136	0.686529
C26	C	1.716604	-0.557808	0.650825
C27	C	1.823819	-0.557815	0.650838
C28	C	1.482792	-0.532556	0.977988
C29	C	1.490371	-0.521801	1.117418
C30	C	1.447343	-0.582842	0.324867
C31	C	1.439929	-0.593243	0.185410
H32	H	1.551569	-0.071557	0.755898
H33	H	1.378499	-0.042746	0.545660
C34	C	1.556552	-0.428048	1.182876
C35	C	1.640550	-0.475538	1.277157
C36	C	1.706730	-0.381787	1.342615
C37	C	1.688912	-0.240546	1.313792
C38	C	1.604910	-0.193049	1.219506
C39	C	1.538730	-0.286800	1.154048
H40	H	1.653744	-0.580100	1.298498
H41	H	1.768914	-0.416949	1.412412
H42	H	1.737903	-0.171146	1.362248
H43	H	1.591717	-0.088487	1.198165
H44	H	1.476547	-0.251638	1.084251
H45	H	1.390948	-0.662639	1.136953
