data_functionalizedCrystal
_audit_creation_method	'MofGen! by Chris Wilmer'
_symmetry_space_group_name_H-M	'P1'
_symmetry_Int_Tables_number	1
_symmetry_cell_setting	triclinic
loop_
_symmetry_equiv_pos_as_xyz
  x,y,z
_cell_length_a	12.837943
_cell_length_b	17.038272
_cell_length_c	11.295483
_cell_angle_alpha	94.391706
_cell_angle_beta	85.461227
_cell_angle_gamma	92.970248
loop_
_atom_site_label
_atom_site_type_symbol
_atom_site_fract_x
_atom_site_fract_y
_atom_site_fract_z
O1	O	1.400057	0.199823	-0.099006
O2	O	1.097361	0.189716	-0.099013
O3	O	1.246909	0.080820	-0.099000
O4	O	1.250509	0.308719	-0.099019
O5	O	1.233773	0.090368	0.099049
O6	O	1.084224	0.199264	0.099036
O7	O	1.386921	0.209371	0.099043
Cu8	Cu	1.234373	0.205189	0.117123
Cu9	Cu	1.249908	0.193897	-0.117093
O10	O	1.237372	0.318267	0.099030
C11	C	1.051871	0.191076	0.000011
C12	C	0.935896	0.180893	0.000008
C13	C	0.705733	0.303310	0.000015
C14	C	0.596764	0.293746	0.000014
C15	C	0.608986	0.152201	0.000013
C16	C	0.717955	0.161765	0.000014
C17	C	0.766324	0.237322	0.000014
C18	C	0.875296	0.246885	0.000007
C19	C	0.887516	0.105342	0.000014
C20	C	0.778546	0.095777	0.000013
C21	C	1.237069	0.056221	0.000024
C22	C	1.227305	-0.031301	0.000024
C23	C	1.316945	-0.074719	0.000027
C24	C	1.307766	-0.156956	0.000015
C25	C	1.208945	-0.195773	0.000009
C26	C	1.119299	-0.152349	0.000002
C27	C	1.128480	-0.070114	0.000005
C28	C	1.176511	-0.443954	-0.000008
C29	C	1.167337	-0.526195	-0.000007
C30	C	1.355805	-0.530796	0.000004
C31	C	1.364977	-0.448559	0.000014
C32	C	1.275331	-0.405143	0.000001
C33	C	1.199560	-0.279832	0.000001
C34	C	1.284718	-0.321086	0.000000
C35	C	1.432411	0.208011	0.000017
C36	C	1.548386	0.218194	0.000011
C37	C	1.247213	0.342865	0.000003
C38	C	1.256977	0.430387	-0.000004
N39	N	1.223454	0.213132	0.281859
N40	N	1.260835	0.185950	-0.281829
C41	C	1.339435	0.128734	0.531158
C42	C	1.331191	0.134742	0.655821
C43	C	1.198717	0.231151	0.655850
C44	C	1.206961	0.225143	0.531187
C45	C	1.277323	0.173934	0.468845
C46	C	1.285572	0.167930	0.344180
C47	C	1.153093	0.264335	0.344211
C48	C	1.144849	0.270343	0.468874
H49	H	0.569577	0.090691	0.000112
H50	H	1.103515	-0.408614	-0.000018
N51	N	1.361462	0.112703	0.276935
H52	H	1.399556	0.084980	0.335332
H53	H	1.321866	0.072426	0.225221
H54	H	0.739148	0.034262	0.000027
N55	N	0.757908	0.384799	0.000015
H56	H	0.836134	0.380844	0.000016
H57	H	0.741063	0.410491	-0.073409
H58	H	1.396734	0.087042	0.480399
H59	H	1.055485	-0.034764	0.000002
H60	H	0.936862	0.051609	0.000005
H61	H	1.381767	0.097934	0.706553
H62	H	1.141422	0.272839	0.706625
N63	N	1.068957	0.325569	0.536116
H64	H	1.073156	0.322517	0.624546
H65	H	1.087379	0.381255	0.514323
N66	N	0.531406	0.364920	0.000062
H67	H	0.578586	0.414233	0.000076
H68	H	0.490779	0.360517	-0.073344
H69	H	1.365179	-0.289479	-0.000021
N70	N	1.471561	-0.406693	0.000027
H71	H	1.526957	-0.446678	0.000028
H72	H	1.484348	-0.376208	-0.073388
N73	N	0.927463	0.328376	-0.000001
H74	H	0.900959	0.361187	0.073418
H75	H	1.005680	0.324359	-0.000050
N76	N	1.423530	-0.032854	0.000045
H77	H	1.478923	-0.072841	0.000043
H78	H	1.436317	-0.002369	-0.073372
N79	N	1.452484	-0.577631	0.000004
H80	H	1.500147	-0.567861	-0.073412
H81	H	1.490326	-0.560771	0.073471
N82	N	1.404447	-0.203786	0.000026
H83	H	1.468442	-0.166716	0.000041
H84	H	1.399864	-0.234469	0.073445
N85	N	1.060747	-0.568065	-0.000016
H86	H	1.005349	-0.528083	-0.000027
H87	H	1.057714	-0.605623	-0.073435
N88	N	1.086092	0.313095	0.277014
H89	H	1.132462	0.348437	0.225285
H90	H	1.040663	0.277020	0.225369
N91	N	1.012712	-0.194211	-0.000012
H92	H	1.020496	-0.252895	-0.000009
H93	H	0.968297	-0.175293	0.073406
H94	H	1.119099	-0.311445	-0.000001
