data_functionalizedCrystal
_audit_creation_method	'MofGen! by Chris Wilmer'
_symmetry_space_group_name_H-M	'P1'
_symmetry_Int_Tables_number	1
_symmetry_cell_setting	triclinic
loop_
_symmetry_equiv_pos_as_xyz
  x,y,z
_cell_length_a	16.109295
_cell_length_b	10.868271
_cell_length_c	16.109301
_cell_angle_alpha	90.006364
_cell_angle_beta	83.460334
_cell_angle_gamma	90.002028
loop_
_atom_site_label
_atom_site_type_symbol
_atom_site_fract_x
_atom_site_fract_y
_atom_site_fract_z
O1	O	-1.103135	-0.102242	-0.106845
O2	O	-0.769802	0.231091	0.226488
O3	O	-0.436469	0.564424	0.559822
O4	O	-0.861073	-0.102264	-0.120149
O5	O	-0.527739	0.231070	0.213184
O6	O	-0.194406	0.564403	0.546517
O7	O	-0.988754	-0.102240	0.007534
O8	O	-0.655420	0.231093	0.340867
O9	O	-0.322087	0.564427	0.674201
O10	O	-0.975454	-0.102266	-0.234528
O11	O	-0.642121	0.231067	0.098805
O12	O	-0.308788	0.564400	0.432138
O13	O	-0.988742	0.102405	0.007538
O14	O	-0.655408	0.435738	0.340872
O15	O	-0.322075	0.769071	0.674205
O16	O	-0.861061	0.102381	-0.120145
O17	O	-0.527727	0.435714	0.213188
O18	O	-0.194394	0.769048	0.546522
O19	O	-1.103123	0.102402	-0.106841
O20	O	-0.769790	0.435736	0.226493
O21	O	-0.436457	0.769069	0.559826
Zn22	Zn	-0.982090	0.134883	-0.113492
Zn23	Zn	-0.648757	0.468217	0.219841
Zn24	Zn	-0.315423	0.801550	0.553174
Zn25	Zn	-0.982106	-0.134745	-0.113498
Zn26	Zn	-0.648773	0.198589	0.219835
Zn27	Zn	-0.315439	0.531922	0.553169
O28	O	-0.975442	0.102378	-0.234524
O29	O	-0.642109	0.435712	0.098809
O30	O	-0.308776	0.769045	0.432143
C31	C	-0.830092	0.000056	-0.119609
C32	C	-0.496758	0.333389	0.213724
C33	C	-0.163425	0.666723	0.547058
C34	C	-0.737796	0.000048	-0.117996
C35	C	-0.404463	0.333382	0.215338
C36	C	-0.071129	0.666715	0.548671
N37	N	-0.982085	0.318897	-0.113488
N38	N	-0.648752	0.652231	0.219846
N39	N	-0.315419	0.985564	0.553179
C40	C	-0.515523	0.000054	-0.190008
C41	C	-0.182190	0.333387	0.143325
C42	C	0.151143	0.666720	0.476659
C43	C	-0.428803	0.000061	-0.188486
C44	C	-0.095469	0.333394	0.144848
C45	C	0.237864	0.666728	0.478181
C46	C	-0.448677	0.000072	-0.036996
C47	C	-0.115344	0.333406	0.296337
C48	C	0.217990	0.666739	0.629670
C49	C	-0.535396	0.000074	-0.038520
C50	C	-0.202063	0.333407	0.294814
C51	C	0.131271	0.666740	0.628147
C52	C	-0.568816	0.000058	-0.115028
C53	C	-0.235483	0.333391	0.218305
C54	C	0.097850	0.666725	0.551639
C55	C	-0.395377	0.000064	-0.111982
C56	C	-0.062044	0.333398	0.221351
C57	C	0.271290	0.666731	0.554684
C58	C	-0.301351	0.000073	-0.110331
C59	C	0.031983	0.333406	0.223002
C60	C	0.365316	0.666739	0.556335
C61	C	-0.662849	0.000052	-0.116679
C62	C	-0.329515	0.333385	0.216654
C63	C	0.003818	0.666719	0.549987
C64	C	-0.982096	0.569903	-0.113498
C65	C	-0.648763	0.903237	0.219835
C66	C	-0.315429	1.236570	0.553168
C67	C	-0.982087	0.430226	-0.113495
C68	C	-0.648754	0.763559	0.219838
C69	C	-0.315421	1.096893	0.553172
C70	C	-0.134104	0.000078	-0.107386
C71	C	0.199230	0.333412	0.225947
C72	C	0.532563	0.666745	0.559281
C73	C	-0.226397	0.000074	-0.109014
C74	C	0.106936	0.333407	0.224319
C75	C	0.440270	0.666741	0.557652
C76	C	-0.988209	0.000083	0.038511
C77	C	-0.654876	0.333416	0.371844
C78	C	-0.321542	0.666750	0.705178
C79	C	-0.986594	0.000085	0.130806
C80	C	-0.653260	0.333418	0.464140
C81	C	-0.319927	0.666751	0.797473
N82	N	-0.982109	0.681241	-0.113499
N83	N	-0.648776	1.014574	0.219835
N84	N	-0.315443	1.347908	0.553168
C85	C	-0.975987	0.000053	-0.265501
C86	C	-0.642654	0.333386	0.067832
C87	C	-0.309320	0.666720	0.401166
C88	C	-0.977602	0.000043	-0.357796
C89	C	-0.644269	0.333376	-0.024463
C90	C	-0.310935	0.666710	0.308870
C91	C	-1.058602	0.000071	0.353080
C92	C	-0.725268	0.333405	0.686413
C93	C	-0.391935	0.666738	1.019747
C94	C	-1.057078	0.000061	0.439800
C95	C	-0.723744	0.333395	0.773134
C96	C	-0.390411	0.666728	1.106467
C97	C	-0.905588	0.000053	0.419923
C98	C	-0.572255	0.333386	0.753256
C99	C	-0.238922	0.666719	1.086590
C100	C	-0.907113	0.000054	0.333204
C101	C	-0.573780	0.333387	0.666538
C102	C	-0.240447	0.666721	0.999871
C103	C	-0.983622	0.000070	0.299785
C104	C	-0.650289	0.333403	0.633119
C105	C	-0.316956	0.666736	0.966452
C106	C	-0.980573	0.000058	0.473225
C107	C	-0.647240	0.333391	0.806558
C108	C	-0.313907	0.666725	1.139891
C109	C	-0.978920	0.000047	0.567251
C110	C	-0.645587	0.333380	0.900584
C111	C	-0.312254	0.666714	1.233917
C112	C	-0.985276	0.000079	0.205754
C113	C	-0.651943	0.333412	0.539087
C114	C	-0.318609	0.666745	0.872420
H115	H	-0.542731	0.000050	-0.252306
H116	H	-0.209398	0.333383	0.081028
H117	H	0.123936	0.666717	0.414361
H118	H	-1.120900	0.000082	0.325874
H119	H	-0.787567	0.333415	0.659207
H120	H	-0.454234	0.666748	0.992540
C121	C	-0.411906	0.000078	0.047158
C122	C	-0.078572	0.333412	0.380491
C123	C	0.254761	0.666745	0.713825
N124	N	-0.384211	0.000078	0.110545
N125	N	-0.050877	0.333411	0.443879
N126	N	0.282456	0.666745	0.777212
C127	C	-1.139561	0.000074	0.498421
C128	C	-0.806228	0.333407	0.831755
C129	C	-0.472894	0.666741	1.165088
N130	N	-1.201691	0.000086	0.542575
N131	N	-0.868358	0.333419	0.875908
N132	N	-0.535025	0.666753	1.209241
C133	C	-0.594023	0.000079	0.043969
C134	C	-0.260689	0.333412	0.377302
C135	C	0.072644	0.666746	0.710635
N136	N	-0.638180	0.000086	0.106096
N137	N	-0.304847	0.333419	0.439430
N138	N	0.028487	0.666753	0.772763
C139	C	-0.821433	0.000059	0.456693
C140	C	-0.488100	0.333393	0.790026
C141	C	-0.154766	0.666726	1.123359
N142	N	-0.758045	0.000074	0.484386
N143	N	-0.424712	0.333407	0.817720
N144	N	-0.091378	0.666740	1.151053
H145	H	-0.846052	0.000049	0.289809
H146	H	-0.512719	0.333382	0.623143
H147	H	-0.179386	0.666716	0.956476
C148	C	-0.370183	0.000062	-0.270970
C149	C	-0.036850	0.333395	0.062363
C150	C	0.296484	0.666729	0.395697
N151	N	-0.326031	0.000066	-0.333101
N152	N	0.007302	0.333400	0.000232
N153	N	0.340636	0.666733	0.333566
