data_functionalizedCrystal
_audit_creation_method	'MofGen! by Chris Wilmer'
_symmetry_space_group_name_H-M	'P1'
_symmetry_Int_Tables_number	1
_symmetry_cell_setting	triclinic
loop_
_symmetry_equiv_pos_as_xyz
  x,y,z
_cell_length_a	19.121063
_cell_length_b	18.101398
_cell_length_c	18.101389
_cell_angle_alpha	90.024327
_cell_angle_beta	87.580609
_cell_angle_gamma	92.464489
loop_
_atom_site_label
_atom_site_type_symbol
_atom_site_fract_x
_atom_site_fract_y
_atom_site_fract_z
Zn1	Zn	-0.279777	1.119554	0.431404
Zn2	Zn	-0.397213	1.114175	0.312837
Zn3	Zn	-0.279770	0.995713	0.307565
Zn4	Zn	-0.397183	0.990390	0.436624
O5	O	-0.338486	1.054958	0.372107
O6	O	-0.295371	1.222473	0.415698
O7	O	-0.381644	1.098437	0.208505
O8	O	-0.181486	1.016620	0.319601
O9	O	-0.381651	1.218521	0.328587
O10	O	-0.181491	1.107605	0.410586
O11	O	-0.295359	1.011404	0.204632
O12	O	-0.295330	0.891375	0.324663
O13	O	-0.381599	1.007547	0.539564
O14	O	-0.381592	0.887464	0.419482
O15	O	-0.295342	1.102443	0.535729
O16	O	-0.495494	1.093276	0.333648
O17	O	-0.495472	1.002331	0.424594
C18	C	-0.338457	0.862549	0.372067
C19	C	-0.338462	0.780234	0.372069
C20	C	-0.338506	0.481141	0.372133
C21	C	-0.283961	0.514915	0.312742
C22	C	-0.284107	0.600526	0.312506
C23	C	-0.338484	0.629525	0.372101
C24	C	-0.412466	0.595084	0.354099
C25	C	-0.412163	0.509452	0.353690
C26	C	-0.319712	0.513600	0.449688
C27	C	-0.318065	0.599325	0.449186
C28	C	-0.338476	0.713385	0.372084
C29	C	-0.338519	0.397281	0.372148
C30	C	-0.520967	1.046662	0.380276
C31	C	-0.599034	1.043181	0.383795
C32	C	-0.635698	1.088932	0.338137
C33	C	-0.709049	1.085662	0.341451
C34	C	-0.745735	1.036637	0.390420
C35	C	-0.709066	0.990884	0.436083
C36	C	-0.635716	0.994158	0.432772
C37	C	-0.967206	1.024385	0.402788
C38	C	-1.040562	1.021113	0.406094
C39	C	-1.040539	1.115892	0.311462
C40	C	-0.967188	1.119159	0.308152
C41	C	-0.930525	1.073408	0.353818
C42	C	-0.820713	1.033292	0.393807
C43	C	-0.855549	1.076758	0.350434
C44	C	-0.155292	1.063306	0.363923
C45	C	-0.077226	1.066864	0.360436
C46	C	-0.338468	1.055002	0.565269
C47	C	-0.338461	1.055020	0.647582
C48	C	-0.338515	1.248119	0.372148
C49	C	-0.338528	1.330432	0.372165
C50	C	-0.338453	1.054959	0.179695
C51	C	-0.338263	1.055093	0.097373
C52	C	-0.338329	1.055069	0.946668
C53	C	-0.392427	0.995174	0.917747
C54	C	-0.392678	0.995318	0.832140
C55	C	-0.338394	1.055044	0.798288
C56	C	-0.358491	1.132167	0.830296
C57	C	-0.358846	1.131831	0.915957
C58	C	-0.264013	1.038526	0.911754
C59	C	-0.264443	1.036771	0.826122
C60	C	-0.338430	1.055035	0.714430
C61	C	-0.338295	1.055084	1.030526
H62	H	-0.296243	0.492814	0.255539
H63	H	-0.412240	1.146898	0.811268
H64	H	-0.321154	1.177791	0.935005
H65	H	-0.605865	0.956904	0.469953
C66	C	-0.306937	1.193882	0.800491
N67	N	-0.268106	1.240365	0.778039
H68	H	-0.245705	0.983441	0.932518
C69	C	-0.209617	0.490462	0.327258
N70	N	-0.153620	0.472038	0.338192
H71	H	-0.223708	1.082192	0.930220
H72	H	-1.070398	1.153140	0.274285
C73	C	-0.244510	0.630103	0.467603
N74	N	-0.189107	0.653287	0.481470
C75	C	-0.468844	0.620072	0.410897
N76	N	-0.511307	0.638898	0.453676
H77	H	-0.738898	1.122917	0.304271
H78	H	-0.354899	0.619076	0.495539
H79	H	-1.070430	0.981200	0.445983
H80	H	-0.447763	1.005969	0.814132
C81	C	-0.209989	0.632282	0.327224
N82	N	-0.154159	0.656197	0.338306
C83	C	-0.375685	0.917916	0.802961
N84	N	-0.362889	0.859613	0.780987
H85	H	-0.937319	1.159079	0.268278
C86	C	-0.815192	1.130682	0.296568
N87	N	-0.784789	1.171295	0.255993
C88	C	-0.432240	1.151297	0.946252
N89	N	-0.487522	1.165957	0.969066
C90	C	-0.749424	0.936954	0.489948
N91	N	-0.779821	0.896329	0.530516
H92	H	-0.937361	0.987132	0.439969
C93	C	-0.243951	0.960135	0.797705
N94	N	-0.228513	0.902417	0.776285
C95	C	-0.300894	0.627407	0.234779
N96	N	-0.313541	0.647653	0.176232
C97	C	-0.433688	0.481448	0.277225
N98	N	-0.449898	0.460360	0.219629
C99	C	-0.373381	0.483820	0.509416
N100	N	-0.413806	0.461384	0.554397
H101	H	-0.850591	0.993375	0.433677
C102	C	-0.375607	0.917525	0.944795
N103	N	-0.362938	0.859039	0.965173
C104	C	-0.466393	1.009413	0.950138
N105	N	-0.522105	1.020144	0.974531
H106	H	-0.221996	1.077478	0.802832
H107	H	-0.454179	0.486843	0.395241
C108	C	-0.434372	0.623022	0.278487
N109	N	-0.450867	0.644063	0.221533
H110	H	-0.605832	1.128850	0.298258
C111	C	-0.248096	0.487682	0.472661
N112	N	-0.194151	0.468162	0.489954
