data_functionalizedCrystal
_audit_creation_method	'MofGen! by Chris Wilmer'
_symmetry_space_group_name_H-M	'P1'
_symmetry_Int_Tables_number	1
_symmetry_cell_setting	triclinic
loop_
_symmetry_equiv_pos_as_xyz
  x,y,z
_cell_length_a	14.044191
_cell_length_b	14.044190
_cell_length_c	12.996460
_cell_angle_alpha	89.989157
_cell_angle_beta	89.997003
_cell_angle_gamma	93.191777
loop_
_atom_site_label
_atom_site_type_symbol
_atom_site_fract_x
_atom_site_fract_y
_atom_site_fract_z
O1	O	1.277180	0.230203	-0.085538
O2	O	1.527180	0.480203	0.164462
O3	O	1.777180	0.730203	0.414462
O4	O	2.027180	0.980203	0.664462
O5	O	1.000507	0.221890	-0.085551
O6	O	1.250507	0.471890	0.164449
O7	O	1.500507	0.721890	0.414449
O8	O	1.750507	0.971890	0.664449
O9	O	1.134687	0.087710	-0.085525
O10	O	1.384687	0.337710	0.164475
O11	O	1.634687	0.587710	0.414475
O12	O	1.884687	0.837710	0.664475
O13	O	1.143000	0.364383	-0.085565
O14	O	1.393000	0.614383	0.164435
O15	O	1.643000	0.864383	0.414435
O16	O	1.893000	1.114383	0.664435
O17	O	1.134671	0.087701	0.085609
O18	O	1.384671	0.337701	0.335609
O19	O	1.634671	0.587701	0.585609
O20	O	1.884671	0.837701	0.835609
O21	O	1.000491	0.221880	0.085583
O22	O	1.250491	0.471880	0.335583
O23	O	1.500491	0.721880	0.585583
O24	O	1.750491	0.971880	0.835583
O25	O	1.277164	0.230193	0.085595
O26	O	1.527164	0.480193	0.335595
O27	O	1.777164	0.730193	0.585595
O28	O	2.027164	0.980193	0.835595
Cu29	Cu	1.138826	0.226036	0.101215
Cu30	Cu	1.388826	0.476036	0.351215
Cu31	Cu	1.638826	0.726036	0.601215
Cu32	Cu	1.888826	0.976036	0.851215
Cu33	Cu	1.138845	0.226047	-0.101170
Cu34	Cu	1.388845	0.476047	0.148830
Cu35	Cu	1.638845	0.726047	0.398830
Cu36	Cu	1.888845	0.976047	0.648830
O37	O	1.142984	0.364373	0.085569
O38	O	1.392984	0.614373	0.335569
O39	O	1.642984	0.864373	0.585569
O40	O	1.892984	1.114373	0.835569
C41	C	0.964877	0.218249	0.000015
C42	C	1.214877	0.468249	0.250015
C43	C	1.464877	0.718249	0.500015
C44	C	1.714877	0.968249	0.750015
C45	C	0.858734	0.207401	0.000011
C46	C	1.108734	0.457401	0.250011
C47	C	1.358734	0.707401	0.500011
C48	C	1.608734	0.957401	0.750011
C49	C	0.613277	0.264502	0.000013
C50	C	0.863277	0.514502	0.250013
C51	C	1.113277	0.764502	0.500013
C52	C	1.363277	1.014502	0.750013
C53	C	0.664400	0.187585	0.000023
C54	C	0.914400	0.437585	0.250023
C55	C	1.164400	0.687585	0.500023
C56	C	1.414400	0.937585	0.750023
C57	C	0.772537	0.198614	0.000016
C58	C	1.022537	0.448614	0.250016
C59	C	1.272537	0.698614	0.500016
C60	C	1.522537	0.948614	0.750016
C61	C	0.505130	0.253475	0.000019
C62	C	0.755130	0.503475	0.250019
C63	C	1.005130	0.753475	0.500019
C64	C	1.255130	1.003475	0.750019
C65	C	1.131043	0.052083	0.000045
C66	C	1.381043	0.302083	0.250045
C67	C	1.631043	0.552083	0.500045
C68	C	1.881043	0.802083	0.750045
C69	C	1.120195	-0.054060	0.000054
C70	C	1.370195	0.195940	0.250054
C71	C	1.620195	0.445940	0.500054
C72	C	1.870195	0.695940	0.750054
C73	C	1.177296	-0.299517	0.000016
C74	C	1.427296	-0.049517	0.250016
C75	C	1.677296	0.200483	0.500016
C76	C	1.927296	0.450483	0.750016
C77	C	1.100379	-0.248394	0.000020
C78	C	1.350379	0.001606	0.250020
C79	C	1.600379	0.251606	0.500020
C80	C	1.850379	0.501606	0.750020
C81	C	1.111408	-0.140257	0.000039
C82	C	1.361408	0.109743	0.250039
C83	C	1.611408	0.359743	0.500039
C84	C	1.861408	0.609743	0.750039
C85	C	1.166269	-0.407664	-0.000003
C86	C	1.416269	-0.157664	0.249997
C87	C	1.666269	0.092336	0.499997
C88	C	1.916269	0.342336	0.749997
C89	C	1.312794	0.233834	0.000027
C90	C	1.562794	0.483834	0.250027
C91	C	1.812794	0.733834	0.500027
C92	C	2.062794	0.983834	0.750027
C93	C	1.418937	0.244682	0.000024
C94	C	1.668937	0.494682	0.250024
C95	C	1.918937	0.744682	0.500024
C96	C	2.168937	0.994682	0.750024
C97	C	1.146628	0.400000	-0.000003
C98	C	1.396628	0.650000	0.249997
C99	C	1.646628	0.900000	0.499997
C100	C	1.896628	1.150000	0.749997
C101	C	1.157476	0.506143	-0.000018
C102	C	1.407476	0.756143	0.249982
C103	C	1.657476	1.006143	0.499982
C104	C	1.907476	1.256143	0.749982
N105	N	1.138820	0.226028	0.243562
N106	N	1.388820	0.476028	0.493562
N107	N	1.638820	0.726028	0.743562
N108	N	1.888820	0.976028	0.993562
N109	N	1.138858	0.226048	-0.243518
N110	N	1.388858	0.476048	0.006482
N111	N	1.638858	0.726048	0.256482
N112	N	1.888858	0.976048	0.506482
C113	C	1.138844	0.226048	0.663376
C114	C	1.388844	0.476048	0.913376
C115	C	1.638844	0.726048	1.163376
C116	C	1.888844	0.976048	1.413376
C117	C	1.138834	0.226045	0.546571
C118	C	1.388834	0.476045	0.796571
C119	C	1.638834	0.726045	1.046571
C120	C	1.888834	0.976045	1.296571
C121	C	1.138832	0.226039	0.453473
C122	C	1.388832	0.476039	0.703473
C123	C	1.638832	0.726039	0.953473
C124	C	1.888832	0.976039	1.203473
C125	C	1.138822	0.226035	0.336660
C126	C	1.388822	0.476035	0.586660
C127	C	1.638822	0.726035	0.836660
C128	C	1.888822	0.976035	1.086660
H129	H	1.026247	-0.285839	0.000011
H130	H	1.276247	-0.035839	0.250011
H131	H	1.526247	0.214161	0.500011
H132	H	1.776247	0.464161	0.750011
H133	H	0.650720	0.338629	-0.000001
H134	H	0.900720	0.588629	0.249999
H135	H	1.150720	0.838629	0.499999
H136	H	1.400720	1.088629	0.749999
H137	H	1.251423	-0.262074	0.000030
H138	H	1.501423	-0.012074	0.250030
H139	H	1.751423	0.237926	0.500030
H140	H	2.001423	0.487926	0.750030
H141	H	0.626955	0.113453	-0.000039
H142	H	0.876955	0.363453	0.249961
H143	H	1.126955	0.613453	0.499961
H144	H	1.376955	0.863453	0.749961
