data_functionalizedCrystal
_audit_creation_method	'MofGen! by Chris Wilmer'
_symmetry_space_group_name_H-M	'P1'
_symmetry_Int_Tables_number	1
_symmetry_cell_setting	triclinic
loop_
_symmetry_equiv_pos_as_xyz
  x,y,z
_cell_length_a	15.995292
_cell_length_b	15.995350
_cell_length_c	9.482900
_cell_angle_alpha	99.336743
_cell_angle_beta	80.711440
_cell_angle_gamma	83.480495
loop_
_atom_site_label
_atom_site_type_symbol
_atom_site_fract_x
_atom_site_fract_y
_atom_site_fract_z
O1	O	1.124070	0.094578	-0.120928
O2	O	0.880287	0.107957	-0.120922
O3	O	1.008843	-0.020621	-0.120924
O4	O	0.995515	0.223157	-0.120926
O5	O	0.982730	0.005601	0.120869
O6	O	0.854175	0.134179	0.120871
O7	O	1.097958	0.120800	0.120864
Cu8	Cu	0.973682	0.129884	0.142945
Cu9	Cu	1.004563	0.098874	-0.143003
O10	O	0.969402	0.249379	0.120867
C11	C	0.836035	0.120524	-0.000025
C12	C	0.743082	0.118892	-0.000022
C13	C	0.405346	0.112889	-0.000039
C14	C	0.428716	0.205635	-0.000579
C15	C	0.525332	0.207458	-0.000028
C16	C	0.572901	0.115867	-0.000031
C17	C	0.528888	0.084443	0.138040
C18	C	0.432085	0.083338	0.138149
C19	C	0.461925	0.051624	-0.136815
C20	C	0.558614	0.054865	-0.138633
C21	C	0.667596	0.117546	-0.000022
C22	C	0.310650	0.111208	-0.000038
C23	C	0.995236	-0.038705	-0.000030
C24	C	0.993585	-0.131656	-0.000038
C25	C	0.987652	-0.469402	-0.000033
C26	C	0.896156	-0.422007	-0.000573
C27	C	0.897749	-0.325258	-0.000028
C28	C	0.990595	-0.301842	-0.000037
C29	C	1.020841	-0.327955	0.138035
C30	C	1.018529	-0.424578	0.138151
C31	C	1.050115	-0.454756	-0.136813
C32	C	1.050290	-0.358008	-0.138638
C33	C	0.992262	-0.207145	-0.000034
C34	C	0.985986	-0.564098	-0.000027
C35	C	1.142210	0.108233	-0.000036
C36	C	1.235164	0.109864	-0.000048
C37	C	0.983010	0.267462	-0.000030
C38	C	0.984662	0.360412	-0.000032
N39	N	0.951968	0.151695	0.344066
N40	N	1.026284	0.077056	-0.344123
C41	C	0.998152	0.105302	0.416264
C42	C	0.980092	0.123456	0.583682
H43	H	0.533029	0.254766	0.099115
C44	C	0.880483	0.223507	0.427997
N45	N	0.826639	0.277598	0.491212
H46	H	1.117719	-0.486632	-0.137747
C47	C	0.380796	0.141884	0.277570
N48	N	0.342168	0.185989	0.382580
H49	H	0.870255	-0.451269	-0.099587
C50	C	1.069620	0.033473	0.332333
N51	N	1.123447	-0.020635	0.269118
H52	H	0.555048	0.233056	-0.099007
H53	H	0.927175	0.176614	0.645807
H54	H	0.416858	0.015973	0.144419
C55	C	1.112235	-0.308121	0.144988
N56	N	1.181070	-0.293174	0.150228
H57	H	1.079195	0.023892	0.593751
C58	C	0.835009	-0.273074	0.133918
N59	N	0.787751	-0.233770	0.234814
H60	H	0.444899	0.069282	-0.241465
H61	H	0.411414	0.230667	-0.099597
C62	C	0.571215	-0.005842	0.145012
N63	N	0.603107	-0.073839	0.150272
C64	C	0.958976	-0.434173	0.277583
N65	N	0.914115	-0.441395	0.382604
H66	H	0.872941	-0.307562	-0.099003
C67	C	0.375154	0.268118	0.132441
N68	N	0.334809	0.315179	0.232635
H69	H	0.537850	0.127807	0.240794
H70	H	1.085071	-0.456161	0.144409
C71	C	0.598610	0.085532	-0.276629
N72	N	0.628744	0.108631	-0.380566
H73	H	0.448033	-0.016788	-0.137750
C74	C	0.604362	-0.036675	-0.149895
N75	N	0.638816	-0.105627	-0.158363
H76	H	0.978380	-0.288424	0.240789
H77	H	0.849091	-0.430915	0.097891
H78	H	1.028305	-0.341830	-0.240780
C79	C	1.024941	-0.497824	-0.278192
N80	N	1.005970	-0.530260	-0.384672
H81	H	1.118898	-0.343565	-0.146981
