data_functionalizedCrystal
_audit_creation_method	'MofGen! by Chris Wilmer'
_symmetry_space_group_name_H-M	'P1'
_symmetry_Int_Tables_number	1
_symmetry_cell_setting	triclinic
loop_
_symmetry_equiv_pos_as_xyz
  x,y,z
_cell_length_a	24.447405
_cell_length_b	24.446649
_cell_length_c	24.443239
_cell_angle_alpha	60.006064
_cell_angle_beta	60.011844
_cell_angle_gamma	59.992812
loop_
_atom_site_label
_atom_site_type_symbol
_atom_site_fract_x
_atom_site_fract_y
_atom_site_fract_z
O1	O	0.075907	-0.799232	0.668277
O2	O	0.575907	-0.299232	1.168277
O3	O	0.028634	-0.622262	0.538455
O4	O	0.528634	-0.122262	1.038455
O5	O	0.140702	-0.734230	0.538349
O6	O	0.640702	-0.234230	1.038349
O7	O	-0.036160	-0.687265	0.668384
O8	O	0.463840	-0.187265	1.168384
O9	O	0.177886	-0.697056	0.575424
O10	O	0.677886	-0.197056	1.075424
O11	O	0.065818	-0.585088	0.575530
O12	O	0.565818	-0.085088	1.075530
O13	O	0.113091	-0.762059	0.705353
O14	O	0.613091	-0.262059	1.205353
Cu15	Cu	0.092850	-0.670179	0.643827
Cu16	Cu	0.592850	-0.170179	1.143827
Cu17	Cu	0.048876	-0.714142	0.599981
Cu18	Cu	0.548876	-0.214142	1.099981
O19	O	0.001024	-0.650091	0.705459
O20	O	0.501024	-0.150091	1.205459
N21	N	0.123780	-0.639263	0.674669
N22	N	0.623780	-0.139263	1.174669
N23	N	0.017951	-0.745064	0.569139
N24	N	0.517951	-0.245064	1.069139
C25	C	0.170236	-0.489965	0.721065
C26	C	0.670236	0.010035	1.221065
C27	C	0.170249	-0.592837	0.721058
C28	C	0.670249	-0.092837	1.221058
C29	C	0.195989	-0.567121	0.746758
C30	C	0.695989	-0.067121	1.246758
C31	C	0.308182	-0.547773	0.687664
C32	C	0.808182	-0.047773	1.187664
C33	C	0.378316	-0.571143	0.664253
C34	C	0.878316	-0.071143	1.164253
C35	C	0.378353	-0.684626	0.707525
C36	C	0.878353	-0.184626	1.207525
C37	C	0.308220	-0.661254	0.730938
C38	C	0.808220	-0.161254	1.230938
C39	C	0.187125	-0.454882	0.652117
C40	C	0.687125	0.045118	1.152117
C41	C	0.163710	-0.384741	0.628763
C42	C	0.663710	0.115259	1.128763
C43	C	0.106523	-0.384772	0.743308
C44	C	0.606523	0.115228	1.243308
C45	C	0.129938	-0.454913	0.766662
C46	C	0.629938	0.045087	1.266662
C47	C	0.101291	-0.575906	0.738041
C48	C	0.601291	-0.075906	1.238041
C49	C	0.077897	-0.599283	0.714670
C50	C	0.577897	-0.099283	1.214670
C51	C	0.192412	-0.656523	0.657348
C52	C	0.692412	-0.156523	1.157348
C53	C	0.215809	-0.633146	0.680711
C54	C	0.715809	-0.133146	1.180711
C55	C	0.101393	-0.575928	0.859014
C56	C	0.601393	-0.075928	1.359014
C57	C	0.078071	-0.599328	0.929152
C58	C	0.578071	-0.099328	1.429152
C59	C	0.192636	-0.656582	0.929078
C60	C	0.692636	-0.156582	1.429078
C61	C	0.215955	-0.633184	0.858938
C62	C	0.715955	-0.133184	1.358938
C63	C	0.170332	-0.592855	0.823908
C64	C	0.670332	-0.092855	1.323908
C65	C	0.273137	-0.592827	0.721004
C66	C	0.773137	-0.092827	1.221004
C67	C	-0.131205	-0.791294	0.522327
C68	C	0.368795	-0.291294	1.022327
C69	C	-0.028388	-0.791420	0.522551
C70	C	0.471612	-0.291420	1.022551
C71	C	-0.054056	-0.817099	0.496741
C72	C	0.445944	-0.317099	0.996741
C73	C	-0.073479	-0.929255	0.555734
C74	C	0.426521	-0.429255	1.055734
C75	C	-0.050156	-0.999396	0.579142
C76	C	0.449844	-0.499396	1.079142
C77	C	0.063326	-0.999525	0.536064
C78	C	0.563326	-0.499525	1.036064
C79	C	0.040001	-0.929386	0.512654
C80	C	0.540001	-0.429386	1.012654
C81	C	-0.166365	-0.808188	0.591256
C82	C	0.333635	-0.308188	1.091256
C83	C	-0.236499	-0.784726	0.614512
C84	C	0.263501	-0.284726	1.114512
C85	C	-0.236309	-0.727482	0.499907
C86	C	0.263691	-0.227482	0.999907
C87	C	-0.166175	-0.750944	0.476651
C88	C	0.333825	-0.250944	0.976651
C89	C	-0.045285	-0.722468	0.505590
C90	C	0.454715	-0.222468	1.005590
C91	C	-0.021951	-0.699130	0.529061
C92	C	0.478049	-0.199130	1.029061
C93	C	0.035176	-0.813691	0.586439
C94	C	0.535176	-0.313691	1.086439
C95	C	0.011842	-0.837031	0.562976
C96	C	0.511842	-0.337031	1.062976
C97	C	-0.045097	-0.722476	0.384488
C98	C	0.454903	-0.222476	0.884488
C99	C	-0.021613	-0.699140	0.314350
C100	C	0.478387	-0.199140	0.814350
C101	C	0.035607	-0.813706	0.314419
C102	C	0.535607	-0.313706	0.814419
C103	C	0.012124	-0.837041	0.384558
C104	C	0.512124	-0.337041	0.884558
C105	C	-0.028229	-0.791425	0.419591
C106	C	0.471771	-0.291425	0.919591
C107	C	-0.028402	-0.894253	0.522492
C108	C	0.471598	-0.394253	1.022492
N109	N	0.412405	-0.639229	0.674505
N110	N	0.912405	-0.139229	1.174505
O111	O	0.626552	-0.645384	0.514503
O112	O	1.126552	-0.145384	1.014503
O113	O	0.626802	-0.775625	0.691288
O114	O	1.126802	-0.275625	1.191288
O115	O	0.626698	-0.775326	0.579168
O116	O	1.126698	-0.275326	1.079168
O117	O	0.626656	-0.645683	0.626623
O118	O	1.126656	-0.145683	1.126623
O119	O	0.515277	-0.738265	0.616407
O120	O	1.015277	-0.238265	1.116407
O121	O	0.515382	-0.738564	0.728527
O122	O	1.015382	-0.238564	1.228527
O123	O	0.515131	-0.608323	0.551742
O124	O	1.015131	-0.108323	1.051742
Cu125	Cu	0.505083	-0.670059	0.643535
Cu126	Cu	1.005083	-0.170059	1.143535
Cu127	Cu	0.636850	-0.713889	0.599495
Cu128	Cu	1.136850	-0.213889	1.099495
O129	O	0.515236	-0.608622	0.663862
O130	O	1.015236	-0.108622	1.163862
N131	N	0.729529	-0.744719	0.568518
N132	N	1.229529	-0.244719	1.068518
N133	N	0.123755	-0.350686	0.674680
N134	N	0.623755	0.149314	1.174680
O135	O	-0.036153	-0.136410	0.668391
O136	O	0.463847	0.363590	1.168391
O137	O	0.140633	-0.136380	0.538141
O138	O	0.640633	0.363620	1.038141
O139	O	0.028472	-0.136412	0.538488
O140	O	0.528472	0.363588	1.038488
O141	O	0.076007	-0.136377	0.668044
O142	O	0.576007	0.363623	1.168044
O143	O	0.065663	-0.247842	0.575621
O144	O	0.565663	0.252158	1.075621
O145	O	0.177823	-0.247810	0.575274
O146	O	0.677823	0.252190	1.075274
O147	O	0.001037	-0.247840	0.705524
O148	O	0.501037	0.252160	1.205524
Cu149	Cu	0.092826	-0.258000	0.643789
Cu150	Cu	0.592826	0.242000	1.143789
Cu151	Cu	0.048844	-0.126220	0.599875
Cu152	Cu	0.548844	0.373780	1.099875
O153	O	0.113198	-0.247808	0.705177
O154	O	0.613198	0.252192	1.205177
N155	N	0.017907	-0.033534	0.568986
N156	N	0.517907	0.466466	1.068986
N157	N	0.124013	-0.639306	0.963182
N158	N	0.624013	-0.139306	1.463182
O159	O	0.117754	-0.799195	1.177439
O160	O	0.617754	-0.299195	1.677439
O161	O	-0.012458	-0.622342	1.177485
O162	O	0.487542	-0.122342	1.677485
O163	O	-0.012155	-0.734480	1.177444
O164	O	0.487845	-0.234480	1.677444
O165	O	0.117450	-0.687057	1.177480
O166	O	0.617450	-0.187057	1.677480
O167	O	0.024954	-0.697317	1.066020
O168	O	0.524954	-0.197317	1.566020
O169	O	0.024650	-0.585179	1.066061
O170	O	0.524650	-0.085179	1.566061
O171	O	0.154862	-0.762032	1.066014
O172	O	0.654862	-0.262032	1.566014
Cu173	Cu	0.093145	-0.670212	1.055863
Cu174	Cu	0.593145	-0.170212	1.555863
Cu175	Cu	0.049259	-0.714162	1.187636
Cu176	Cu	0.549259	-0.214162	1.687636
O177	O	0.154559	-0.649894	1.066055
O178	O	0.654559	-0.149894	1.566055
N179	N	0.018389	-0.745075	1.280318
N180	N	0.518389	-0.245075	1.780318
C181	C	0.042795	-0.581375	0.539107
C182	C	0.542795	-0.081375	1.039107
C183	C	0.181576	-0.720034	0.538975
C184	C	0.681576	-0.220034	1.038975
C185	C	0.098930	-0.802946	0.704700
C186	C	0.598930	-0.302946	1.204700
C187	C	-0.039851	-0.664287	0.704832
C188	C	0.460149	-0.164287	1.204832
C189	C	0.571122	-0.775030	0.732180
C190	C	1.071122	-0.275030	1.232180
C191	C	0.570995	-0.774660	0.593332
C192	C	1.070995	-0.274660	1.093332
C193	C	0.570808	-0.608917	0.510851
C194	C	1.070808	-0.108917	1.010851
C195	C	0.570939	-0.609288	0.649698
C196	C	1.070939	-0.109288	1.149698
C197	C	0.181453	-0.191954	0.538725
C198	C	0.681453	0.308046	1.038725
C199	C	0.042602	-0.192131	0.539201
C200	C	0.542602	0.307869	1.039201
C201	C	-0.039829	-0.192128	0.704893
C202	C	0.460171	0.307872	1.204893
C203	C	0.099069	-0.192090	0.704464
C204	C	0.599069	0.307910	1.204464
C205	C	-0.011836	-0.581480	1.121779
C206	C	0.488164	-0.081480	1.621779
C207	C	-0.011453	-0.720342	1.121706
C208	C	0.488547	-0.220342	1.621706
C209	C	0.154240	-0.802894	1.121720
C210	C	0.654240	-0.302894	1.621720
C211	C	0.153865	-0.664024	1.121769
C212	C	0.653865	-0.164024	1.621769
H213	H	0.021932	-0.585534	0.957726
H214	H	0.521932	-0.085534	1.457726
H215	H	-0.052152	-0.730472	1.121651
H216	H	0.447848	-0.230472	1.621651
H217	H	-0.090650	-0.654278	0.745664
H218	H	0.409350	-0.154278	1.245664
H219	H	0.109248	-0.192079	0.745165
H220	H	0.609248	0.307921	1.245165
H221	H	0.032420	-0.192135	0.498498
H222	H	0.532420	0.307865	0.998498
O223	O	-0.100448	-0.192009	0.753617
O224	O	0.399552	0.307991	1.253617
C225	C	-0.150978	-0.134312	0.730716
C226	C	0.349022	0.365688	1.230716
H227	H	-0.128165	-0.093978	0.688983
H228	H	0.371835	0.406022	1.188983
H229	H	-0.190949	-0.114932	0.773906
H230	H	0.309051	0.385068	1.273906
H231	H	-0.174680	-0.147371	0.710742
H232	H	0.325320	0.352629	1.210742
H233	H	-0.052716	-0.530687	1.121793
H234	H	0.447284	-0.030687	1.621793
O235	O	0.571043	-0.823333	0.581324
O236	O	1.071043	-0.323333	1.081324
C237	C	0.571115	-0.881160	0.638841
C238	C	1.071115	-0.381160	1.138841
H239	H	0.592241	-0.880578	0.670812
H240	H	1.092241	-0.380578	1.170812
H241	H	0.603480	-0.927662	0.623106
H242	H	1.103480	-0.427662	1.123106
H243	H	0.517684	-0.882001	0.669116
H244	H	1.017684	-0.382001	1.169116
H245	H	0.570727	-0.568026	0.460082
H246	H	1.070727	-0.068026	0.960082
O247	O	0.202931	-0.863533	1.121731
O248	O	0.702931	-0.363533	1.621731
C249	C	0.178824	-0.905216	1.121692
C250	C	0.678824	-0.405216	1.621692
H251	H	0.121758	-0.887069	1.142792
H252	H	0.621758	-0.387069	1.642792
H253	H	0.199379	-0.958892	1.154026
H254	H	0.699379	-0.458892	1.654026
H255	H	0.195840	-0.903392	1.068228
H256	H	0.695840	-0.403392	1.568228
H257	H	0.194582	-0.653876	1.121771
H258	H	0.694582	-0.153876	1.621771
H259	H	0.064236	-0.543084	0.830495
H260	H	0.564236	-0.043084	1.330495
O261	O	0.570893	-0.560764	0.661928
O262	O	1.070893	-0.060764	1.161928
C263	C	0.570990	-0.585180	0.727763
C264	C	1.070990	-0.085180	1.227763
H265	H	0.549950	-0.628214	0.759465
H266	H	1.049950	-0.128214	1.259465
H267	H	0.538635	-0.543233	0.750330
H268	H	1.038635	-0.043233	1.250330
H269	H	0.624461	-0.603836	0.726729
H270	H	1.124461	-0.103836	1.226729
O271	O	0.110981	-0.863542	0.753407
O272	O	0.610981	-0.363542	1.253407
C273	C	0.103515	-0.854803	0.809872
C274	C	0.603515	-0.354803	1.309872
H275	H	0.110822	-0.805703	0.793778
H276	H	0.610822	-0.305703	1.293778
H277	H	0.142504	-0.898238	0.833701
H278	H	0.642504	-0.398238	1.333701
H279	H	0.051182	-0.853402	0.847798
H280	H	0.551182	-0.353402	1.347798
H281	H	0.229515	-0.689349	0.624505
H282	H	0.729515	-0.189349	1.124505
H283	H	0.232119	-0.191636	0.497733
H284	H	0.732119	0.308364	0.997733
H285	H	0.571186	-0.815915	0.782955
H286	H	1.071186	-0.315915	1.282955
O287	O	0.237046	-0.695762	0.962997
O288	O	0.737046	-0.195762	1.462997
C289	C	0.302894	-0.705663	0.916968
C290	C	0.802894	-0.205663	1.416968
H291	H	0.302726	-0.697821	0.866984
H292	H	0.802726	-0.197821	1.366984
H293	H	0.336228	-0.758854	0.937203
H294	H	0.836228	-0.258854	1.437203
H295	H	0.322976	-0.668321	0.909498
H296	H	0.822976	-0.168321	1.409498
O297	O	0.056943	-0.536731	0.777198
O298	O	0.556943	-0.036731	1.277198
C299	C	-0.008936	-0.526811	0.787183
C300	C	0.491064	-0.026811	1.287183
H301	H	-0.008843	-0.534637	0.744903
H302	H	0.491157	-0.034637	1.244903
H303	H	-0.042245	-0.473620	0.787574
H304	H	0.457755	0.026380	1.287574
H305	H	-0.028992	-0.564154	0.837146
H306	H	0.471008	-0.064154	1.337146
O307	O	0.282912	-0.649512	0.824764
O308	O	0.782912	-0.149512	1.324764
C309	C	0.299830	-0.590574	0.784207
C310	C	0.799830	-0.090574	1.284207
H311	H	0.253589	-0.546504	0.773731
H312	H	0.753589	-0.046504	1.273731
H313	H	0.340474	-0.596836	0.734872
H314	H	0.840474	-0.096836	1.234872
H315	H	0.319106	-0.580723	0.811221
H316	H	0.819106	-0.080723	1.311221
O317	O	0.030822	-0.520702	0.490477
O318	O	0.530822	-0.020702	0.990477
C319	C	0.076797	-0.490946	0.472410
C320	C	0.576797	0.009054	0.972410
H321	H	0.096412	-0.513133	0.515350
H322	H	0.596412	-0.013133	1.015350
H323	H	0.050735	-0.434589	0.461471
H324	H	0.550735	0.065411	0.961471
H325	H	0.120420	-0.501054	0.425800
H326	H	0.620420	-0.001054	0.925800
O327	O	0.242177	-0.731862	0.490234
O328	O	0.742177	-0.231862	0.990234
C329	C	0.271890	-0.685864	0.472205
C330	C	0.771890	-0.185864	0.972205
H331	H	0.231293	-0.639510	0.485703
H332	H	0.731293	-0.139510	0.985703
H333	H	0.299972	-0.670753	0.415976
H334	H	0.799972	-0.170753	0.915976
H335	H	0.308430	-0.710132	0.500356
H336	H	0.808430	-0.210132	1.000356
H337	H	0.271959	-0.646925	0.666876
H338	H	0.771959	-0.146925	1.166876
O339	O	0.010929	-0.582960	0.731189
O340	O	0.510929	-0.082960	1.231189
C341	C	-0.005983	-0.641903	0.766504
C342	C	0.494017	-0.141903	1.266504
H343	H	0.040245	-0.685963	0.753822
H344	H	0.540245	-0.185963	1.253822
H345	H	-0.046674	-0.635634	0.751604
H346	H	0.453326	-0.135634	1.251604
H347	H	-0.025195	-0.651773	0.822640
H348	H	0.474805	-0.151773	1.322640
H349	H	0.279688	-0.697946	0.758086
H350	H	0.779688	-0.197946	1.258086
H351	H	0.406920	-0.740344	0.715602
H352	H	0.906920	-0.240344	1.215602
H353	H	0.406848	-0.534453	0.637104
H354	H	0.906848	-0.034453	1.137104
H355	H	0.279622	-0.492055	0.679573
H356	H	0.779622	0.007945	1.179573
H357	H	0.177459	-0.356175	0.572617
H358	H	0.677459	0.143825	1.072617
O359	O	0.226167	-0.488905	0.607802
O360	O	0.726167	0.011095	1.107802
C361	C	0.190714	-0.471753	0.567274
C362	C	0.690714	0.028247	1.067274
H363	H	0.134610	-0.452485	0.594386
H364	H	0.634610	0.047515	1.094386
H365	H	0.203258	-0.517877	0.556667
H366	H	0.703258	-0.017877	1.056667
H367	H	0.205605	-0.431029	0.517997
H368	H	0.705605	0.068971	1.017997
O369	O	0.067368	-0.350821	0.787690
O370	O	0.567368	0.149179	1.287690
C371	C	0.057508	-0.396828	0.853556
C372	C	0.557508	0.103172	1.353556
H373	H	0.065351	-0.446827	0.853431
H374	H	0.565351	0.053173	1.353431
H375	H	0.004332	-0.376578	0.886885
H376	H	0.504332	0.123422	1.386885
H377	H	0.094868	-0.404280	0.873615
H378	H	0.594868	0.095720	1.373615
H379	H	0.116177	-0.483478	0.822809
H380	H	0.616177	0.016522	1.322809
H381	H	-0.264783	-0.694634	0.462714
H382	H	0.235217	-0.194634	0.962714
H383	H	-0.035357	-0.642993	0.285778
H384	H	0.464643	-0.142993	0.785778
H385	H	0.068452	-0.850855	0.285902
H386	H	0.568452	-0.350855	0.785902
O387	O	-0.084254	-0.678070	0.418414
O388	O	0.415746	-0.178070	0.918414
C389	C	-0.094118	-0.612210	0.372391
C390	C	0.405882	-0.112210	0.872391
H391	H	-0.051785	-0.612392	0.322439
H392	H	0.448215	-0.112392	0.822439
H393	H	-0.094495	-0.578926	0.392683
H394	H	0.405505	-0.078926	0.892683
H395	H	-0.144048	-0.592054	0.364837
H396	H	0.355952	-0.092054	0.864837
O397	O	0.028548	-0.904044	0.418552
O398	O	0.528548	-0.404044	0.918552
C399	C	0.069209	-0.939298	0.372589
C400	C	0.569209	-0.439298	0.872589
H401	H	0.060345	-0.905847	0.322546
H402	H	0.560345	-0.405847	0.822546
H403	H	0.056030	-0.986069	0.392818
H404	H	0.556030	-0.486069	0.892818
H405	H	0.124127	-0.954485	0.365237
H406	H	0.624127	-0.454485	0.865237
H407	H	-0.035712	-0.642984	0.515253
H408	H	0.464288	-0.142984	1.015253
O409	O	-0.084463	-0.678132	0.466428
O410	O	0.415537	-0.178132	0.966428
C411	C	-0.143297	-0.637517	0.501767
C412	C	0.356703	-0.137517	1.001767
H413	H	-0.153134	-0.664581	0.557894
H414	H	0.346866	-0.164581	1.057894
H415	H	-0.187435	-0.626860	0.489118
H416	H	0.312565	-0.126860	0.989118
H417	H	-0.136899	-0.588267	0.486867
H418	H	0.363101	-0.088267	0.986867
H419	H	0.067938	-0.850836	0.619346
H420	H	0.567938	-0.350836	1.119346
O421	O	0.028342	-0.904033	0.579483
O422	O	0.528342	-0.404033	1.079483
C423	C	0.068841	-0.939289	0.620208
C424	C	0.568841	-0.439289	1.120208
H425	H	0.094342	-0.905882	0.611328
H426	H	0.594342	-0.405882	1.111328
H427	H	0.108518	-0.986126	0.607110
H428	H	0.608518	-0.486126	1.107110
H429	H	0.036412	-0.954368	0.675115
H430	H	0.536412	-0.454368	1.175115
H431	H	0.076712	-0.900889	0.485585
H432	H	0.576712	-0.400889	0.985585
H433	H	-0.086862	-1.027893	0.606199
H434	H	0.413138	-0.527893	1.106199
O435	O	0.129799	-1.033555	0.526429
O436	O	0.629799	-0.533555	1.026429
C437	C	0.164584	-0.987620	0.492082
C438	C	0.664584	-0.487620	0.992082
H439	H	0.134049	-0.937604	0.463286
H440	H	0.634049	-0.437604	0.963286
H441	H	0.215184	-1.007937	0.455526
H442	H	0.715184	-0.507937	0.955526
H443	H	0.172649	-0.980174	0.529658
H444	H	0.672649	-0.480174	1.029658
H445	H	-0.137894	-0.841050	0.628449
H446	H	0.362106	-0.341050	1.128449
O447	O	-0.139911	-0.895151	0.565181
O448	O	0.360089	-0.395151	1.065181
C449	C	-0.161262	-0.912278	0.533604
C450	C	0.338738	-0.412278	1.033604
H451	H	-0.116429	-0.931620	0.492224
H452	H	0.383571	-0.431620	0.992224
H453	H	-0.199820	-0.866124	0.511039
H454	H	0.300180	-0.366124	1.011039
H455	H	-0.184802	-0.952939	0.572015
H456	H	0.315198	-0.452939	1.072015
O457	O	-0.270553	-0.801227	0.681496
O458	O	0.229447	-0.301227	1.181496
C459	C	-0.224649	-0.841861	0.716823
C460	C	0.275351	-0.341861	1.216823
H461	H	-0.174627	-0.867404	0.683433
H462	H	0.325373	-0.367404	1.183433
H463	H	-0.244982	-0.881509	0.763600
H464	H	0.255018	-0.381509	1.263600
H465	H	-0.217218	-0.809529	0.732004
H466	H	0.282782	-0.309529	1.232004
H467	H	-0.137547	-0.737181	0.420520
H468	H	0.362453	-0.237181	0.920520
