data_functionalizedCrystal
_audit_creation_method	'MofGen! by Chris Wilmer'
_symmetry_space_group_name_H-M	'P1'
_symmetry_Int_Tables_number	1
_symmetry_cell_setting	triclinic
loop_
_symmetry_equiv_pos_as_xyz
  x,y,z
_cell_length_a	19.077692
_cell_length_b	16.625548
_cell_length_c	19.076919
_cell_angle_alpha	92.279214
_cell_angle_beta	85.342111
_cell_angle_gamma	92.269401
loop_
_atom_site_label
_atom_site_type_symbol
_atom_site_fract_x
_atom_site_fract_y
_atom_site_fract_z
Zn1	Zn	-0.296667	-1.227403	0.409902
Zn2	Zn	-0.409812	-1.237716	0.296753
Zn3	Zn	-0.291951	-1.097782	0.292028
Zn4	Zn	-0.414508	-1.097728	0.414593
O5	O	-0.353234	-1.165157	0.353319
O6	O	-0.311684	-1.341603	0.394907
O7	O	-0.390239	-1.223492	0.197479
O8	O	-0.193934	-1.110683	0.303723
O9	O	-0.394812	-1.349180	0.311777
O10	O	-0.197398	-1.205915	0.390324
O11	O	-0.303646	-1.120683	0.194007
O12	O	-0.308200	-0.984943	0.308272
O13	O	-0.402815	-1.110591	0.512618
O14	O	-0.398242	-0.984903	0.398321
O15	O	-0.316237	-1.205863	0.509171
O16	O	-0.509078	-1.223439	0.316326
O17	O	-0.512528	-1.120591	0.402903
C18	C	-0.353219	-0.955667	0.353293
C19	C	-0.353231	-0.866046	0.353299
C20	C	-0.353230	-0.537869	0.353321
C21	C	-0.353228	-0.629178	0.353312
C22	C	-0.353231	-0.701955	0.353309
C23	C	-0.353228	-0.793269	0.353302
C24	C	-0.536380	-1.173150	0.360652
C25	C	-0.614732	-1.176642	0.363813
C26	C	-0.649799	-1.128748	0.320179
C27	C	-0.723419	-1.132037	0.323152
C28	C	-0.761970	-1.183216	0.369762
C29	C	-0.726898	-1.231115	0.413397
C30	C	-0.653279	-1.227830	0.410421
C31	C	-0.982333	-1.198358	0.383501
C32	C	-1.055956	-1.201638	0.386476
C33	C	-1.052473	-1.102561	0.296229
C34	C	-0.978853	-1.099276	0.293259
C35	C	-0.943787	-1.147178	0.336892
N36	N	-0.837221	-1.186578	0.372804
N37	N	-0.868537	-1.143820	0.333846
C38	C	-0.169374	-1.157155	0.345973
C39	C	-0.091024	-1.153744	0.342842
C40	C	-0.360576	-1.157071	0.537188
C41	C	-0.363705	-1.153625	0.615542
C42	C	-0.353245	-0.375465	0.353339
C43	C	-0.353237	-0.465087	0.353329
C44	C	-0.345870	-1.173256	0.170163
C45	C	-0.342543	-1.176850	0.091802
C46	C	-0.320100	-1.201606	0.650559
C47	C	-0.323037	-1.198358	0.724181
C48	C	-0.369583	-1.147133	0.762784
C49	C	-0.413189	-1.099146	0.727762
C50	C	-0.410248	-1.102390	0.654141
C51	C	-0.383209	-1.132107	0.983159
C52	C	-0.386148	-1.128868	1.056784
C53	C	-0.295995	-1.228080	1.053199
C54	C	-0.293061	-1.231323	0.979577
C55	C	-0.336664	-1.183333	0.944561
N56	N	-0.372587	-1.143813	0.838038
N57	N	-0.333656	-1.186649	0.869308
H58	H	-0.618416	-1.087069	0.282228
H59	H	-0.445748	-1.063310	0.625631
N60	N	-0.427738	-1.083084	0.947390
N61	N	-0.401287	-1.032429	0.905317
H62	H	-0.432736	-0.997801	0.880053
H63	H	-0.953788	-1.237360	0.419029
N64	N	-0.759229	-1.083095	0.278589
N65	N	-0.724801	-1.037389	0.236988
H66	H	-0.750090	-1.002815	0.205517
N67	N	-0.766285	-1.283396	0.461000
N68	N	-0.832014	-1.286323	0.463653
H69	H	-0.859832	-1.323246	0.497274
N70	N	-0.617467	-1.276762	0.454991
N71	N	-0.651894	-1.322457	0.496604
H72	H	-0.626603	-1.357021	0.528081
N73	N	-0.272544	-1.253930	0.611141
N74	N	-0.207829	-1.245385	0.616769
H75	H	-0.174238	-1.282338	0.588932
H76	H	-0.424052	-1.087152	1.088214
N77	N	-0.460718	-1.046806	0.767198
N78	N	-0.437542	-0.992542	0.807278
H79	H	-0.471108	-0.955575	0.835131
N80	N	-0.939487	-1.046990	0.245646
N81	N	-0.970807	-1.004230	0.206691
H82	H	-0.943005	-0.967300	0.173065
N83	N	-1.095347	-1.253922	0.434079
N84	N	-1.161077	-1.256842	0.436730
H85	H	-1.188898	-1.293764	0.470349
N86	N	-1.088309	-1.053656	0.251658
N87	N	-1.127595	-1.085885	0.208427
H88	H	-1.152907	-1.051349	0.176945
N89	N	-0.278491	-1.247375	0.759939
N90	N	-0.236940	-1.293113	0.725464
H91	H	-0.205476	-1.327734	0.750717
H92	H	-0.255160	-1.273038	0.948151
H93	H	-0.260494	-1.267149	1.081717
