data_functionalizedCrystal
_audit_creation_method	'MofGen! by Chris Wilmer'
_symmetry_space_group_name_H-M	'P1'
_symmetry_Int_Tables_number	1
_symmetry_cell_setting	triclinic
loop_
_symmetry_equiv_pos_as_xyz
  x,y,z
_cell_length_a	8.559649
_cell_length_b	16.992694
_cell_length_c	15.455313
_cell_angle_alpha	92.857794
_cell_angle_beta	92.289439
_cell_angle_gamma	99.776556
loop_
_atom_site_label
_atom_site_type_symbol
_atom_site_fract_x
_atom_site_fract_y
_atom_site_fract_z
O1	O	0.329735	-1.023967	-0.072017
O2	O	0.326044	-0.795905	-0.072043
O3	O	0.097853	-0.930028	-0.072027
O4	O	0.557925	-0.889844	-0.072033
O5	O	0.110845	-0.922362	0.072234
O6	O	0.339035	-0.788239	0.072218
O7	O	0.342726	-1.016301	0.072244
Cu8	Cu	0.342067	-0.901570	0.085403
Cu9	Cu	0.326703	-0.910636	-0.085202
O10	O	0.570917	-0.882177	0.072228
C11	C	0.045208	-0.929241	0.000102
C12	C	-0.131015	-0.938306	0.000099
C13	C	0.327794	-0.763145	0.000084
C14	C	0.313635	-0.676954	0.000075
N15	N	0.352873	-0.895199	0.205398
C16	C	0.623562	-0.882965	0.000097
C17	C	0.799784	-0.873900	0.000095
C18	C	0.340976	-1.049061	0.000115
C19	C	0.355134	-1.135252	0.000119
C20	C	0.450242	-0.618488	0.000073
C21	C	0.436931	-0.537502	0.000086
C22	C	0.287010	-0.514985	0.000093
C23	C	0.150392	-0.573459	0.000096
C24	C	0.163706	-0.654442	0.000090
C25	C	0.231831	-0.274709	0.000117
C26	C	0.218527	-0.193718	0.000120
C27	C	0.505067	-0.157767	0.000111
C28	C	0.518367	-0.238755	0.000099
C29	C	0.381750	-0.297221	0.000108
N30	N	0.273400	-0.432205	0.000102
N31	N	0.395362	-0.379998	0.000104
N32	N	0.315885	-0.917014	-0.205197
C33	C	0.255970	-0.952194	0.250799
C34	C	0.264158	-0.947382	0.341606
C35	C	0.369258	-0.885578	0.387011
C36	C	0.466164	-0.828576	0.341604
C37	C	0.457968	-0.833386	0.250798
C38	C	0.404595	-0.864822	0.658590
C39	C	0.412788	-0.860018	0.749402
C40	C	0.210778	-0.978824	0.749398
C41	C	0.202598	-0.983631	0.658591
C42	C	0.299499	-0.926627	0.613191
N43	N	0.377633	-0.880659	0.479831
N44	N	0.291114	-0.931543	0.520373
H45	H	-0.124646	-0.811825	0.000091
Cl46	Cl	0.060081	-0.348199	0.000126
H47	H	0.640447	-0.257081	0.000084
H48	H	0.028324	-0.555118	0.000115
H49	H	0.131884	-1.025233	0.786371
Cl50	Cl	-0.247690	-1.034152	0.000121
H51	H	0.572324	-0.636813	0.000067
Cl52	Cl	0.030042	-0.165413	0.000148
Cl53	Cl	0.142333	-1.019035	0.398683
Cl54	Cl	0.608675	-0.464004	0.000079
Cl55	Cl	-0.008037	-0.727944	0.000096
Cl56	Cl	0.123845	-1.029899	0.193728
H57	H	0.117017	-1.033957	0.621624
Cl58	Cl	0.579789	-0.761728	0.193723
Cl59	Cl	0.544930	-0.782314	0.806476
Cl60	Cl	0.526417	-0.793165	0.601523
Cl61	Cl	0.598285	-0.750874	0.398682
H62	H	0.616293	-0.110156	0.000106
