data_functionalizedCrystal
_audit_creation_method	'MofGen! by Chris Wilmer'
_symmetry_space_group_name_H-M	'P1'
_symmetry_Int_Tables_number	1
_symmetry_cell_setting	triclinic
loop_
_symmetry_equiv_pos_as_xyz
  x,y,z
_cell_length_a	23.532407
_cell_length_b	23.532407
_cell_length_c	15.186229
_cell_angle_alpha	89.991614
_cell_angle_beta	90.001988
_cell_angle_gamma	82.848678
loop_
_atom_site_label
_atom_site_type_symbol
_atom_site_fract_x
_atom_site_fract_y
_atom_site_fract_z
O1	O	0.755259	0.069134	-0.073128
O2	O	1.255259	0.569134	0.426872
O3	O	0.589395	0.079137	-0.073155
O4	O	1.089395	0.579137	0.426845
O5	O	0.677329	-0.008796	-0.073124
O6	O	1.177329	0.491204	0.426876
O7	O	0.667325	0.157067	-0.073158
O8	O	1.167325	0.657067	0.426842
O9	O	0.677323	-0.008797	0.073333
O10	O	1.177323	0.491203	0.573333
O11	O	0.589389	0.079136	0.073303
O12	O	1.089389	0.579136	0.573303
O13	O	0.755253	0.069133	0.073330
O14	O	1.255253	0.569133	0.573330
Zn15	Zn	0.672320	0.074134	0.096569
Zn16	Zn	1.172320	0.574134	0.596569
Zn17	Zn	0.672328	0.074136	-0.096394
Zn18	Zn	1.172328	0.574136	0.403606
O19	O	0.667320	0.157066	0.073299
O20	O	1.167320	0.657066	0.573299
C21	C	0.568176	0.078882	0.000071
C22	C	1.068176	0.578882	0.500071
C23	C	0.504959	0.078116	0.000061
C24	C	1.004959	0.578116	0.500061
C25	C	0.677071	-0.030013	0.000107
C26	C	1.177071	0.469987	0.500107
C27	C	0.676305	-0.093230	0.000113
C28	C	1.176305	0.406770	0.500113
C29	C	0.105856	0.125350	0.000091
C30	C	0.605856	0.625350	0.500091
C31	C	0.046456	0.124638	0.000097
C32	C	0.546456	0.624638	0.500097
O33	O	0.009711	0.168424	0.000120
O34	O	0.509711	0.668424	0.500120
N35	N	0.023830	0.072362	0.000106
N36	N	0.523830	0.572362	0.500106
C37	C	0.060607	0.020794	0.000119
C38	C	0.560607	0.520794	0.500119
O39	O	0.035908	-0.023737	0.000128
O40	O	0.535908	0.476263	0.500128
C41	C	0.120006	0.021506	0.000120
C42	C	0.620006	0.521506	0.500120
C43	C	0.142629	0.073785	0.000101
C44	C	0.642629	0.573785	0.500101
C45	C	0.128479	0.177625	0.000074
C46	C	0.628479	0.677625	0.500074
C47	C	0.187876	0.178336	0.000067
C48	C	0.687876	0.678336	0.500067
C49	C	0.224649	0.126772	0.000077
C50	C	0.724649	0.626772	0.500077
C51	C	0.202025	0.074496	0.000094
C52	C	0.702025	0.574496	0.500094
C53	C	0.156783	-0.030062	0.000138
C54	C	0.656783	0.469938	0.500138
C55	C	0.216185	-0.029345	0.000140
C56	C	0.716185	0.470655	0.500140
C57	C	0.238808	0.022934	0.000122
C58	C	0.738808	0.522934	0.500122
C59	C	0.298194	0.023643	0.000097
C60	C	0.798194	0.523643	0.500097
N61	N	0.320820	0.075920	0.000088
N62	N	0.820820	0.575920	0.500088
C63	C	0.284048	0.127484	0.000078
C64	C	0.784048	0.627484	0.500078
C65	C	-0.064135	0.019302	0.000119
C66	C	0.435865	0.519302	0.500119
C67	C	-0.123533	0.018589	0.000112
C68	C	0.376467	0.518589	0.500112
C69	C	-0.137680	0.122434	0.000091
C70	C	0.362320	0.622434	0.500091
C71	C	-0.078281	0.123146	0.000092
C72	C	0.421719	0.623146	0.500092
C73	C	-0.041509	0.071578	0.000109
C74	C	0.458491	0.571578	0.500109
C75	C	0.408784	0.128974	0.000062
C76	C	0.908784	0.628974	0.500062
C77	C	0.468186	0.129680	0.000051
C78	C	0.968186	0.629680	0.500051
C79	C	0.482329	0.025836	0.000076
C80	C	0.982329	0.525836	0.500076
C81	C	0.422932	0.025129	0.000082
C82	C	0.922932	0.525129	0.500082
C83	C	0.386160	0.076702	0.000078
C84	C	0.886160	0.576702	0.500078
O85	O	0.334974	-0.020119	0.000078
O86	O	0.834974	0.479881	0.500078
O87	O	0.308755	0.172007	0.000080
O88	O	0.808755	0.672007	0.500080
C89	C	0.723539	-0.492333	0.000073
C90	C	1.223539	0.007667	0.500073
C91	C	0.722827	-0.551733	0.000066
C92	C	1.222827	-0.051733	0.500066
O93	O	0.766613	-0.588478	0.000041
O94	O	1.266613	-0.088478	0.500041
N95	N	0.670551	-0.574359	0.000058
N96	N	1.170551	-0.074359	0.500058
C97	C	0.618983	-0.537582	0.000048
C98	C	1.118983	-0.037582	0.500048
O99	O	0.574452	-0.562281	0.000040
O100	O	1.074452	-0.062281	0.500040
C101	C	0.619695	-0.478182	0.000049
C102	C	1.119695	0.021818	0.500049
C103	C	0.671974	-0.455560	0.000065
C104	C	1.171974	0.044440	0.500065
C105	C	0.775814	-0.469710	0.000089
C106	C	1.275814	0.030290	0.500089
C107	C	0.776525	-0.410313	0.000097
C108	C	1.276525	0.089687	0.500097
C109	C	0.724961	-0.373540	0.000090
C110	C	1.224961	0.126460	0.500090
C111	C	0.672685	-0.396164	0.000074
C112	C	1.172685	0.103836	0.500074
C113	C	0.568127	-0.441406	0.000032
C114	C	1.068127	0.058594	0.500032
C115	C	0.568844	-0.382004	0.000032
C116	C	1.068844	0.117996	0.500032
C117	C	0.621123	-0.359381	0.000049
C118	C	1.121123	0.140619	0.500049
C119	C	0.621832	-0.299995	0.000075
C120	C	1.121832	0.200005	0.500075
N121	N	0.674109	-0.277368	0.000083
N122	N	1.174109	0.222632	0.500083
C123	C	0.725673	-0.314141	0.000090
C124	C	1.225673	0.185859	0.500090
C125	C	0.617491	-0.662324	0.000045
C126	C	1.117491	-0.162324	0.500045
C127	C	0.616778	-0.721722	0.000051
C128	C	1.116778	-0.221722	0.500051
C129	C	0.720623	-0.735869	0.000068
C130	C	1.220623	-0.235869	0.500068
C131	C	0.721335	-0.676470	0.000068
C132	C	1.221335	-0.176470	0.500068
C133	C	0.669767	-0.639698	0.000053
C134	C	1.169767	-0.139698	0.500053
C135	C	0.727163	-0.189405	0.000109
C136	C	1.227163	0.310595	0.500109
C137	C	0.727869	-0.130003	0.000121
C138	C	1.227869	0.369997	0.500121
C139	C	0.624025	-0.115860	0.000100
C140	C	1.124025	0.384140	0.500100
C141	C	0.623318	-0.175257	0.000092
C142	C	1.123318	0.324743	0.500092
C143	C	0.674891	-0.212029	0.000094
C144	C	1.174891	0.287971	0.500094
O145	O	0.578070	-0.263215	0.000097
O146	O	1.078070	0.236785	0.500097
O147	O	0.770196	-0.289433	0.000087
O148	O	1.270196	0.210567	0.500087
C149	C	0.776472	0.069388	0.000102
C150	C	1.276472	0.569388	0.500102
C151	C	0.839689	0.070154	0.000106
C152	C	1.339689	0.570154	0.500106
C153	C	0.667577	0.178283	0.000066
C154	C	1.167577	0.678283	0.500066
C155	C	0.668343	0.241500	0.000054
C156	C	1.168343	0.741500	0.500054
N157	N	0.672319	0.074133	0.228262
N158	N	1.172319	0.574133	0.728262
N159	N	0.672334	0.074133	-0.228087
N160	N	1.172334	0.574133	0.271913
C161	C	0.711269	0.035209	0.453998
C162	C	1.211269	0.535209	0.953998
C163	C	0.711271	0.035208	0.546188
C164	C	1.211271	0.535208	1.046188
C165	C	0.633379	0.113059	0.546170
C166	C	1.133379	0.613059	1.046170
C167	C	0.633375	0.113057	0.453982
C168	C	1.133375	0.613057	0.953982
C169	C	0.672323	0.074133	0.407899
C170	C	1.172323	0.574133	0.907899
C171	C	0.672329	0.074133	0.592276
C172	C	1.172329	0.574133	1.092276
C173	C	0.672331	0.074132	0.692232
C174	C	1.172331	0.574132	1.192232
C175	C	0.672321	0.074133	0.307936
C176	C	1.172321	0.574133	0.807936
H177	H	0.378851	0.170970	0.000061
H178	H	0.878851	0.670970	0.500061
C179	C	0.514773	-0.654316	0.000044
C180	C	1.014773	-0.154316	0.500044
C181	C	0.560802	-0.621906	0.000046
C182	C	1.060802	-0.121906	0.500046
H183	H	0.479777	-0.629364	0.000049
H184	H	0.979777	-0.129364	0.500049
H185	H	0.516658	-0.677770	-0.051028
H186	H	1.016658	-0.177770	0.448972
H187	H	0.516663	-0.677786	0.051119
H188	H	1.016663	-0.177786	0.551119
H189	H	0.558914	-0.598438	-0.051032
H190	H	1.058914	-0.098438	0.448968
H191	H	0.558916	-0.598442	0.051123
H192	H	1.058916	-0.098442	0.551123
H193	H	0.206289	0.220908	0.000052
H194	H	0.706289	0.720908	0.500052
H195	H	0.601670	0.144751	0.583701
H196	H	1.101670	0.644751	1.083701
H197	H	-0.059867	0.165717	0.000082
H198	H	0.440133	0.665717	0.500082
H199	H	0.098544	0.219617	0.000069
H200	H	0.598544	0.719617	0.500069
C201	C	0.480552	-0.351652	-0.075278
C202	C	0.980552	0.148348	0.424722
C203	C	0.512156	-0.341584	0.000018
C204	C	1.012156	0.158416	0.500018
H205	H	0.445555	-0.326702	-0.075281
H206	H	0.945555	0.173298	0.424719
H207	H	0.502005	-0.344813	-0.126334
H208	H	1.002005	0.155187	0.373666
H209	H	0.472654	-0.390268	-0.075275
H210	H	0.972654	0.109732	0.424725
H211	H	0.520058	-0.302969	0.000012
H212	H	1.020058	0.197031	0.500012
H213	H	0.490699	-0.348419	0.051088
H214	H	0.990699	0.151581	0.551088
H215	H	0.601658	0.144753	0.416445
H216	H	1.101658	0.644753	0.916445
H217	H	0.486602	0.172255	0.000036
H218	H	0.986602	0.672255	0.500036
H219	H	0.582043	-0.085909	0.000097
H220	H	1.082043	0.414091	0.500097
H221	H	-0.167632	0.164421	0.000087
H222	H	0.332368	0.664421	0.500087
C223	C	-0.103568	-0.083983	0.000132
C224	C	0.396432	0.416017	0.500132
C225	C	-0.148396	-0.038878	0.000123
C226	C	0.351604	0.461122	0.500123
H227	H	-0.118917	-0.119461	0.000149
H228	H	0.381083	0.380539	0.500149
H229	H	-0.080700	-0.081543	-0.050941
H230	H	0.419300	0.418457	0.449059
H231	H	-0.080691	-0.081538	0.051205
H232	H	0.419309	0.418462	0.551205
H233	H	-0.171270	-0.041320	-0.050953
H234	H	0.328730	0.458680	0.449047
H235	H	-0.171273	-0.041319	0.051202
H236	H	0.328727	0.458681	0.551202
C237	C	0.782387	-0.617894	0.075366
C238	C	1.282387	-0.117894	0.575366
C239	C	0.778803	-0.651608	0.000079
C240	C	1.278803	-0.151608	0.500079
H241	H	0.817868	-0.602551	0.075372
H242	H	1.317868	-0.102551	0.575372
H243	H	0.751786	-0.587491	0.075353
H244	H	1.251786	-0.087491	0.575353
H245	H	0.779945	-0.640781	0.126434
H246	H	1.279945	-0.140781	0.626434
H247	H	0.781240	-0.628720	-0.050989
H248	H	1.281240	-0.128720	0.449011
H249	H	0.809411	-0.682016	0.000084
H250	H	1.309411	-0.182016	0.500084
H251	H	0.742982	0.003514	0.416479
H252	H	1.242982	0.503514	0.916479
H253	H	0.762610	-0.765821	0.000070
H254	H	1.262610	-0.265821	0.500070
H255	H	0.138375	-0.072634	0.000154
H256	H	0.638375	0.427366	0.500154
C257	C	0.555732	-0.780297	-0.075250
C258	C	1.055732	-0.280297	0.424750
C259	C	0.559312	-0.746586	0.000042
C260	C	1.059312	-0.246586	0.500042
H261	H	0.520255	-0.795647	-0.075255
H262	H	1.020255	-0.295647	0.424745
H263	H	0.558171	-0.757411	-0.126309
H264	H	1.058171	-0.257411	0.373691
H265	H	0.586340	-0.810701	-0.075238
H266	H	1.086340	-0.310701	0.424762
H267	H	0.528706	-0.716179	0.000026
H268	H	1.028706	-0.216179	0.500026
H269	H	0.556868	-0.769473	0.051114
H270	H	1.056868	-0.269473	0.551114
C271	C	0.246527	-0.117640	-0.075129
C272	C	0.746527	0.382360	0.424871
C273	C	0.256607	-0.086031	0.000151
C274	C	0.756607	0.413969	0.500151
H275	H	0.271484	-0.152632	-0.075126
H276	H	0.771484	0.347368	0.424874
H277	H	0.207918	-0.125542	-0.075115
H278	H	0.707918	0.374458	0.424885
H279	H	0.253354	-0.096184	-0.126202
H280	H	0.753354	0.403816	0.373798
H281	H	0.249776	-0.107486	0.051224
H282	H	0.749776	0.392514	0.551224
H283	H	0.295226	-0.078130	0.000145
H284	H	0.795226	0.421870	0.500145
C285	C	0.788267	-0.041738	0.536940
C286	C	1.288267	0.458262	1.036940
C287	C	0.754084	-0.007576	0.596861
C288	C	1.254084	0.492424	1.096861
H289	H	0.814700	-0.068150	0.568225
H290	H	1.314700	0.431850	1.068225
H291	H	0.764678	-0.062104	0.500991
H292	H	1.264678	0.437896	1.000991
H293	H	0.808613	-0.018128	0.500975
H294	H	1.308613	0.481872	1.000975
H295	H	0.733735	-0.031186	0.632821
H296	H	1.233735	0.468814	1.132821
H297	H	0.777676	0.012791	0.632825
H298	H	1.277676	0.512791	1.132825
C299	C	0.520744	-0.155304	0.000068
C300	C	1.020744	0.344696	0.500068
C301	C	0.565852	-0.200128	0.000073
C302	C	1.065852	0.299872	0.500073
H303	H	0.485267	-0.170656	0.000042
H304	H	0.985267	0.329344	0.500042
H305	H	0.523175	-0.132444	0.051147
H306	H	1.023175	0.367556	0.551147
H307	H	0.523192	-0.132418	-0.051000
H308	H	1.023192	0.367582	0.449000
H309	H	0.563406	-0.223011	0.051143
H310	H	1.063406	0.276989	0.551143
H311	H	0.563419	-0.222997	-0.051012
H312	H	1.063419	0.277003	0.448988
H313	H	-0.034198	-0.022693	0.000125
H314	H	0.465802	0.477307	0.500125
C315	C	0.442885	-0.077445	0.000095
C316	C	0.942885	0.422555	0.500095
C317	C	0.398061	-0.032337	0.000093
C318	C	0.898061	0.467663	0.500093
H319	H	0.427533	-0.112922	0.000112
H320	H	0.927533	0.387078	0.500112
H321	H	0.465751	-0.075007	-0.050980
H322	H	0.965751	0.424993	0.449020
H323	H	0.465765	-0.075004	0.051166
H324	H	0.965765	0.424996	0.551166
H325	H	0.375184	-0.034776	-0.050982
H326	H	0.875184	0.465224	0.449018
H327	H	0.375186	-0.034777	0.051173
H328	H	0.875186	0.465223	0.551173
H329	H	0.512280	-0.016146	0.000081
H330	H	1.012280	0.483854	0.500081
H331	H	0.770443	-0.111587	0.000137
H332	H	1.270443	0.388413	0.500137
H333	H	0.769159	-0.219337	0.000106
H334	H	1.269159	0.280663	0.500106
H335	H	0.819097	-0.391900	0.000107
H336	H	1.319097	0.108100	0.500107
C337	C	0.878527	-0.477711	0.000121
C338	C	1.378527	0.022289	0.500121
C339	C	0.832500	-0.510125	0.000104
C340	C	1.332500	-0.010125	0.500104
H341	H	0.913525	-0.502660	0.000141
H342	H	1.413525	-0.002660	0.500141
H343	H	0.876646	-0.454248	-0.050952
H344	H	1.376646	0.045752	0.449048
H345	H	0.876629	-0.454249	0.051194
H346	H	1.376629	0.045751	0.551194
H347	H	0.834396	-0.533584	-0.050973
H348	H	1.334396	-0.033584	0.449027
H349	H	0.834382	-0.533597	0.051182
H350	H	1.334382	-0.033597	0.551182
C351	C	0.507083	-0.499971	-0.075291
C352	C	1.007083	0.000029	0.424709
C353	C	0.510658	-0.466262	0.000003
C354	C	1.010658	0.033738	0.500003
H355	H	0.471603	-0.515317	-0.075307
H356	H	0.971603	-0.015317	0.424693
H357	H	0.509531	-0.477086	-0.126349
H358	H	1.009531	0.022914	0.373651
H359	H	0.537688	-0.530379	-0.075271
H360	H	1.037688	-0.030379	0.424729
H361	H	0.480056	-0.435852	-0.000020
H362	H	0.980056	0.064148	0.499980
H363	H	0.508205	-0.489148	0.051074
H364	H	1.008205	0.010852	0.551074
