data_functionalizedCrystal
_audit_creation_method	'MofGen! by Chris Wilmer'
_symmetry_space_group_name_H-M	'P1'
_symmetry_Int_Tables_number	1
_symmetry_cell_setting	triclinic
loop_
_symmetry_equiv_pos_as_xyz
  x,y,z
_cell_length_a	12.827893
_cell_length_b	12.827892
_cell_length_c	18.215399
_cell_angle_alpha	89.975972
_cell_angle_beta	89.982485
_cell_angle_gamma	90.015553
loop_
_atom_site_label
_atom_site_type_symbol
_atom_site_fract_x
_atom_site_fract_y
_atom_site_fract_z
Zn1	Zn	1.597653	-0.416039	-0.416090
Zn2	Zn	1.597552	-0.590799	-0.293033
Zn3	Zn	1.422900	-0.416073	-0.293043
Zn4	Zn	1.422880	-0.590739	-0.416062
O5	O	1.510246	-0.503412	-0.354557
O6	O	1.743876	-0.439232	-0.399774
O7	O	1.574350	-0.567659	-0.190050
O8	O	1.446132	-0.269832	-0.309381
O9	O	1.743802	-0.567627	-0.309364
O10	O	1.574522	-0.269808	-0.399784
O11	O	1.446034	-0.439289	-0.190057
O12	O	1.276661	-0.439232	-0.309354
O13	O	1.446098	-0.567526	-0.519050
O14	O	1.276647	-0.567559	-0.399736
O15	O	1.574504	-0.439175	-0.519071
O16	O	1.574331	-0.737027	-0.309337
O17	O	1.446000	-0.736983	-0.399726
C18	C	1.238736	-0.503393	-0.354544
C19	C	1.122583	-0.503410	-0.354555
C20	C	1.070778	-0.439826	-0.309911
C21	C	0.950728	-0.439842	-0.309922
C22	C	1.510181	-0.774922	-0.354543
C23	C	1.510249	-0.891075	-0.354562
C24	C	1.573752	-0.942765	-0.399336
C25	C	1.573824	-1.062815	-0.399357
C26	C	1.782816	-0.503433	-0.354571
C27	C	1.898970	-0.503441	-0.354577
C28	C	1.510310	-0.503340	-0.546510
C29	C	1.510337	-0.503310	-0.628309
C30	C	1.510340	-0.230842	-0.354587
C31	C	1.510381	-0.114689	-0.354600
C32	C	1.577222	-0.436415	-0.816515
C33	C	1.577234	-0.436384	-0.893374
C34	C	1.443526	-0.570043	-0.893341
C35	C	1.443509	-0.570068	-0.816484
C36	C	1.510363	-0.503255	-0.778073
C37	C	1.510392	-0.503200	-0.931789
C38	C	1.510405	-0.503167	-1.015122
C39	C	1.510349	-0.503286	-0.694734
C40	C	1.510243	-0.503409	-0.163351
C41	C	1.510418	-0.503145	-0.081552
H42	H	0.906177	-0.385400	-0.271703
O43	O	1.445297	-0.944253	-0.308925
C44	C	1.341093	-0.917711	-0.324910
H45	H	1.335723	-0.887587	-0.383674
H46	H	1.289576	-0.989587	-0.318596
H47	H	1.313717	-0.854498	-0.285385
H48	H	0.943514	-0.557876	-0.392804
O49	O	1.642132	-0.371311	-0.930633
C50	C	1.619307	-0.267164	-0.911872
H51	H	1.579122	-0.265020	-0.856065
H52	H	1.694741	-0.220311	-0.909253
H53	H	1.565602	-0.231944	-0.955126
O54	O	1.378692	-0.634913	-0.930769
C55	C	1.393024	-0.620544	-1.006849
H56	H	1.473685	-0.586319	-1.017360
H57	H	1.385918	-0.698810	-1.036047
H58	H	1.331062	-0.564884	-1.028661
O59	O	1.378672	-0.635152	-0.779168
C60	C	1.401464	-0.739300	-0.797947
H61	H	1.484950	-0.744575	-0.819085
H62	H	1.392438	-0.790939	-0.747392
H63	H	1.345436	-0.766603	-0.842547
O64	O	1.124004	-0.375013	-0.264264
C65	C	1.187080	-0.434477	-0.216684
H66	H	1.203323	-0.513732	-0.242554
H67	H	1.263879	-0.391958	-0.206915
H68	H	1.145044	-0.445824	-0.162109
H69	H	1.078059	-0.557862	-0.392783
H70	H	1.628064	-0.898144	-0.437658
H71	H	1.628195	-1.107267	-0.437687
O72	O	1.642116	-0.371603	-0.779088
C73	C	1.627747	-0.385933	-0.703007
H74	H	1.593505	-0.466586	-0.692493
H75	H	1.706018	-0.378846	-0.673806
H76	H	1.572104	-0.323958	-0.681202
O77	O	1.445478	-1.061836	-0.308796
C78	C	1.386482	-1.133386	-0.267201
H79	H	1.429263	-1.211183	-0.264641
H80	H	1.375387	-1.101832	-0.209225
H81	H	1.307091	-1.144999	-0.294098
