data_functionalizedCrystal
_audit_creation_method	'MofGen! by Chris Wilmer'
_symmetry_space_group_name_H-M	'P1'
_symmetry_Int_Tables_number	1
_symmetry_cell_setting	triclinic
loop_
_symmetry_equiv_pos_as_xyz
  x,y,z
_cell_length_a	29.839134
_cell_length_b	29.839131
_cell_length_c	19.076919
_cell_angle_alpha	92.267459
_cell_angle_beta	92.269203
_cell_angle_gamma	90.034165
loop_
_atom_site_label
_atom_site_type_symbol
_atom_site_fract_x
_atom_site_fract_y
_atom_site_fract_z
Zn1	Zn	0.676527	-0.189159	-0.398157
Zn2	Zn	1.176527	0.310841	0.101843
Zn3	Zn	0.679472	-0.261269	-0.280458
Zn4	Zn	1.179472	0.238731	0.219542
Zn5	Zn	0.604423	-0.186144	-0.280453
Zn6	Zn	1.104423	0.313856	0.219547
Zn7	Zn	0.601359	-0.264251	-0.398087
Zn8	Zn	1.101359	0.235749	0.101913
O9	O	0.640445	-0.225206	-0.339289
O10	O	1.140445	0.274794	0.160711
O11	O	0.739784	-0.198738	-0.382576
O12	O	1.239784	0.301262	0.117424
O13	O	0.672031	-0.248793	-0.181970
O14	O	1.172031	0.251207	0.318030
O15	O	0.614037	-0.123678	-0.296094
O16	O	1.114037	0.376322	0.203906
O17	O	0.741948	-0.251717	-0.296103
O18	O	1.241948	0.248283	0.203897
O19	O	0.667012	-0.125893	-0.382571
O20	O	1.167012	0.374107	0.117429
O21	O	0.616893	-0.193600	-0.181966
O22	O	1.116893	0.306400	0.318034
O23	O	0.541150	-0.196492	-0.296026
O24	O	1.041150	0.303508	0.203974
O25	O	0.608815	-0.256800	-0.496585
O26	O	1.108815	0.243200	0.003415
O27	O	0.538899	-0.253877	-0.382451
O28	O	1.038899	0.246123	0.117549
O29	O	0.664041	-0.201630	-0.496636
O30	O	1.164041	0.298370	0.003364
O31	O	0.669061	-0.324531	-0.296035
O32	O	1.169061	0.175469	0.203965
O33	O	0.611671	-0.326722	-0.382457
O34	O	1.111671	0.173278	0.117543
C35	C	0.523724	-0.225181	-0.339231
C36	C	1.023724	0.274819	0.160769
C37	C	0.473790	-0.225182	-0.339223
C38	C	0.973790	0.274818	0.160777
C39	C	0.118358	-0.195285	-0.294379
C40	C	0.618358	0.304715	0.205621
C41	C	0.306032	-0.195272	-0.294336
C42	C	0.806032	0.304728	0.205664
O43	O	0.331281	-0.169813	-0.256143
O44	O	0.831281	0.330187	0.243857
N45	N	0.328344	-0.225190	-0.339258
N46	N	0.828344	0.274810	0.160742
C47	C	0.303734	-0.255112	-0.384197
C48	C	0.803734	0.244888	0.115803
O49	O	0.327017	-0.280556	-0.422409
O50	O	0.827017	0.219444	0.077591
C51	C	0.116060	-0.255123	-0.384242
C52	C	0.616060	0.244877	0.115758
C53	C	0.093752	-0.225206	-0.339313
C54	C	0.593752	0.274794	0.160687
C55	C	0.096049	-0.165370	-0.249454
C56	C	0.596049	0.334630	0.250546
C57	C	0.049134	-0.165376	-0.249462
C58	C	0.549134	0.334624	0.250538
C59	C	0.024527	-0.195296	-0.294396
C60	C	0.524527	0.304704	0.205604
C61	C	0.046836	-0.225211	-0.339321
C62	C	0.546836	0.274789	0.160679
C63	C	0.091451	-0.285042	-0.429184
C64	C	0.591451	0.214958	0.070816
C65	C	0.044530	-0.285042	-0.429193
C66	C	0.544530	0.214958	0.070807
C67	C	0.022221	-0.255125	-0.384263
C68	C	0.522221	0.244875	0.115737
C69	C	-0.024687	-0.255137	-0.384264
C70	C	0.475313	0.244863	0.115736
N71	N	-0.046998	-0.225219	-0.339342
N72	N	0.453002	0.274781	0.160658
C73	C	-0.022391	-0.195298	-0.294408
C74	C	0.477609	0.304702	0.205592
C75	C	0.402265	-0.255104	-0.384169
C76	C	0.902265	0.244896	0.115831
C77	C	0.449183	-0.255102	-0.384156
C78	C	0.949183	0.244898	0.115844
C79	C	0.451479	-0.195261	-0.294297
C80	C	0.951479	0.304739	0.205703
C81	C	0.404560	-0.195266	-0.294306
C82	C	0.904560	0.304734	0.205694
C83	C	0.379954	-0.225186	-0.339247
C84	C	0.879954	0.274814	0.160753
C85	C	-0.120918	-0.195312	-0.294429
C86	C	0.379082	0.304688	0.205571
C87	C	-0.167838	-0.195322	-0.294439
C88	C	0.332162	0.304678	0.205561
C89	C	-0.170129	-0.255161	-0.384301
C90	C	0.329871	0.244839	0.115699
C91	C	-0.123213	-0.255153	-0.384288
C92	C	0.376787	0.244847	0.115712
C93	C	-0.098609	-0.225225	-0.339350
C94	C	0.401391	0.274775	0.160650
O95	O	-0.049964	-0.280579	-0.422442
O96	O	0.450036	0.219421	0.077558
O97	O	-0.045683	-0.169851	-0.256212
O98	O	0.454317	0.330149	0.243788
C99	C	0.165274	-0.195280	-0.294371
C100	C	0.665274	0.304720	0.205629
C101	C	0.187583	-0.225195	-0.339296
C102	C	0.687583	0.274805	0.160704
C103	C	0.162976	-0.255115	-0.384230
C104	C	0.662976	0.244885	0.115770
C105	C	0.234501	-0.225193	-0.339284
C106	C	0.734501	0.274807	0.160716
C107	C	0.259108	-0.195272	-0.294350
C108	C	0.759108	0.304728	0.205650
C109	C	0.236796	-0.165354	-0.249428
C110	C	0.736796	0.334646	0.250572
C111	C	0.189881	-0.165359	-0.249437
C112	C	0.689881	0.334641	0.250563
C113	C	0.185288	-0.285034	-0.429151
C114	C	0.685288	0.214966	0.070849
C115	C	0.232203	-0.285026	-0.429139
C116	C	0.732203	0.214974	0.070861
C117	C	0.256810	-0.255106	-0.384205
C118	C	0.756810	0.244894	0.115795
C119	C	0.640365	-0.341928	-0.339254
C120	C	1.140365	0.158072	0.160746
C121	C	0.640371	-0.391862	-0.339263
C122	C	1.140371	0.108138	0.160737
C123	C	0.670378	-0.700354	-0.294355
C124	C	1.170378	-0.200354	0.205645
C125	C	0.670433	-0.888028	-0.294382
C126	C	1.170433	-0.388028	0.205618
O127	O	0.695883	-0.911313	-0.256173
O128	O	1.195883	-0.411313	0.243827
N129	N	0.640537	-0.912649	-0.339342
N130	N	1.140537	-0.412649	0.160658
C131	C	0.610627	-0.890349	-0.384301
C132	C	1.110627	-0.390349	0.115699
O133	O	0.585203	-0.915598	-0.422548
O134	O	1.085203	-0.415598	0.077452
C135	C	0.610575	-0.702677	-0.384277
C136	C	1.110575	-0.202677	0.115723
C137	C	0.640470	-0.678058	-0.339309
C138	C	1.140470	-0.178058	0.160691
C139	C	0.700271	-0.675735	-0.249392
C140	C	1.200271	-0.175735	0.250608
C141	C	0.700255	-0.628820	-0.249382
C142	C	1.200255	-0.128820	0.250618
C143	C	0.670347	-0.606523	-0.294337
C144	C	1.170347	-0.106523	0.205663
C145	C	0.640454	-0.631142	-0.339300
C146	C	1.140454	-0.131142	0.160700
C147	C	0.580667	-0.680378	-0.429240
C148	C	1.080667	-0.180378	0.070760
C149	C	0.580658	-0.633456	-0.429231
C150	C	1.080658	-0.133456	0.070769
C151	C	0.610553	-0.608837	-0.384263
C152	C	1.110553	-0.108837	0.115737
C153	C	0.610530	-0.561929	-0.384246
C154	C	1.110530	-0.061929	0.115754
N155	N	0.640426	-0.537308	-0.339286
N156	N	1.140426	-0.037308	0.160714
C157	C	0.670335	-0.559605	-0.294332
C158	C	1.170335	-0.059605	0.205668
C159	C	0.610656	-0.988880	-0.384310
C160	C	1.110656	-0.488880	0.115690
C161	C	0.610668	-1.035798	-0.384315
C162	C	1.110668	-0.535798	0.115685
C163	C	0.670475	-1.033474	-0.294397
C164	C	1.170475	-0.533474	0.205603
C165	C	0.670460	-0.986555	-0.294389
C166	C	1.170460	-0.486555	0.205611
C167	C	0.640552	-0.964259	-0.339350
C168	C	1.140552	-0.464259	0.160650
C169	C	0.670299	-0.461079	-0.294315
C170	C	1.170299	0.038921	0.205685
C171	C	0.670280	-0.414159	-0.294308
C172	C	1.170280	0.085841	0.205692
C173	C	0.610475	-0.416488	-0.384229
C174	C	1.110475	0.083512	0.115771
C175	C	0.610493	-0.463403	-0.384234
C176	C	1.110493	0.036597	0.115766
C177	C	0.640408	-0.485698	-0.339275
C178	C	1.140408	0.014302	0.160725
O179	O	0.585097	-0.538615	-0.422440
O180	O	1.085097	-0.038615	0.077560
O181	O	0.695762	-0.534349	-0.256102
O182	O	1.195762	-0.034349	0.243898
C183	C	0.670394	-0.747270	-0.294364
C184	C	1.170394	-0.247270	0.205636
C185	C	0.640501	-0.771889	-0.339328
C186	C	1.140501	-0.271889	0.160672
C187	C	0.610593	-0.749592	-0.384282
C188	C	1.110593	-0.249592	0.115718
C189	C	0.640514	-0.818807	-0.339333
C190	C	1.140514	-0.318807	0.160667
C191	C	0.670422	-0.841104	-0.294379
C192	C	1.170422	-0.341104	0.205621
C193	C	0.700318	-0.816482	-0.249419
C194	C	1.200318	-0.316482	0.250581
C195	C	0.700302	-0.769567	-0.249410
C196	C	1.200302	-0.269567	0.250590
C197	C	0.580696	-0.774213	-0.429242
C198	C	1.080696	-0.274213	0.070758
C199	C	0.580714	-0.821129	-0.429247
C200	C	1.080714	-0.321129	0.070753
C201	C	0.610623	-0.843426	-0.384292
C202	C	1.110623	-0.343426	0.115708
C203	C	0.757622	-0.225231	-0.339348
C204	C	1.257622	0.274769	0.160652
C205	C	0.807556	-0.225242	-0.339373
C206	C	1.307556	0.274758	0.160627
C207	C	0.635758	-0.229884	-0.522861
C208	C	1.135758	0.270116	-0.022861
C209	C	0.633760	-0.231878	-0.601089
C210	C	1.133760	0.268122	-0.101089
C211	C	0.640538	-0.108029	-0.339339
C212	C	1.140538	0.391971	0.160661
C213	C	0.640577	-0.058095	-0.339361
C214	C	1.140577	0.441905	0.160639
C215	C	0.661573	-0.204092	-0.637868
C216	C	1.161573	0.295908	-0.137868
C217	C	0.659691	-0.205963	-0.711371
C218	C	1.159691	0.294037	-0.211371
C219	C	0.629998	-0.235623	-0.748094
C220	C	1.129998	0.264377	-0.248094
C221	C	0.602182	-0.263411	-0.711309
C222	C	1.102182	0.236589	-0.211309
C223	C	0.604062	-0.261537	-0.637807
C224	C	1.104062	0.238463	-0.137807
C225	C	0.621289	-0.244306	-0.967917
C226	C	1.121289	0.255694	-0.467917
C227	C	0.619412	-0.246179	-1.041424
C228	C	1.119412	0.253821	-0.541424
C229	C	0.676921	-0.188731	-1.041482
C230	C	1.176921	0.311269	-0.541482
C231	C	0.678800	-0.186861	-0.967978
C232	C	1.178800	0.313139	-0.467978
C233	C	0.650983	-0.214647	-0.931200
C234	C	1.150983	0.285353	-0.431200
N235	N	0.628074	-0.237538	-0.823226
N236	N	1.128074	0.262462	-0.323226
N237	N	0.652904	-0.212730	-0.856070
N238	N	1.152904	0.287270	-0.356070
C239	C	0.645140	-0.220513	-0.156431
C240	C	1.145140	0.279487	0.343569
C241	C	0.647225	-0.218393	-0.078204
C242	C	1.147225	0.281607	0.421796
H243	H	0.109607	-0.309404	-0.465770
H244	H	0.609607	0.190596	0.034230
Cl245	Cl	0.708074	-1.061512	-0.237882
Cl246	Cl	1.208074	-0.561512	0.262118
H247	H	0.702981	-0.162710	-0.938084
H248	H	1.202981	0.337290	-0.438084
Cl249	Cl	0.126975	-0.127750	-0.192959
Cl250	Cl	0.626975	0.372250	0.307041
Cl251	Cl	0.711887	-0.153801	-1.087721
Cl252	Cl	1.211887	0.346199	-0.587721
H253	H	0.581409	-0.284159	-0.607862
H254	H	1.081409	0.215841	-0.107862
H255	H	-0.100890	-0.170940	-0.257839
H256	H	0.399110	0.329060	0.242161
Cl257	Cl	0.694678	-0.171050	-0.757605
Cl258	Cl	1.194678	0.328950	-0.257605
H259	H	0.386399	-0.170903	-0.257723
H260	H	0.886399	0.329097	0.242277
Cl261	Cl	0.582078	-0.283467	-1.087589
Cl262	Cl	1.082078	0.216533	-0.587589
H263	H	0.578003	-0.287559	-0.741214
H264	H	1.078003	0.212441	-0.241214
Cl265	Cl	-0.195880	-0.157709	-0.237952
Cl266	Cl	0.304120	0.342291	0.262048
Cl267	Cl	0.021095	-0.127759	-0.192984
Cl268	Cl	0.521095	0.372241	0.307016
Cl269	Cl	0.586318	-0.279237	-0.921692
Cl270	Cl	1.086318	0.220763	-0.421692
Cl271	Cl	0.572901	-0.494353	-0.440751
Cl272	Cl	1.072901	0.005647	0.059249
H273	H	0.556342	-0.756063	-0.465850
H274	H	1.056342	-0.256063	0.034150
H275	H	0.471521	-0.170899	-0.257709
H276	H	0.971521	0.329101	0.242291
Cl277	Cl	0.573079	-1.066742	-0.440840
Cl278	Cl	1.073079	-0.566742	0.059160
Cl279	Cl	0.477223	-0.292720	-0.440632
Cl280	Cl	0.977223	0.207280	0.059368
H281	H	0.382235	-0.279471	-0.420766
H282	H	0.882235	0.220529	0.079234
Cl283	Cl	0.013599	-0.322657	-0.485695
Cl284	Cl	0.513599	0.177343	0.014305
Cl285	Cl	0.707907	-0.489099	-0.237793
Cl286	Cl	1.207907	0.010901	0.262207
Cl287	Cl	-0.201071	-0.292778	-0.440777
Cl288	Cl	0.298929	0.207222	0.059223
Cl289	Cl	-0.095167	-0.292768	-0.440765
Cl290	Cl	0.404833	0.207232	0.059235
H291	H	0.171721	-0.140997	-0.212851
H292	H	0.671721	0.359003	0.287149
H293	H	0.165257	-0.309399	-0.465743
H294	H	0.665257	0.190601	0.034257
H295	H	0.256839	-0.140993	-0.212839
H296	H	0.756839	0.359007	0.287161
Cl297	Cl	0.543128	-0.852073	-0.485783
Cl298	Cl	1.043128	-0.352073	0.014217
H299	H	0.250363	-0.309393	-0.465725
H300	H	0.750363	0.190607	0.034275
H301	H	0.724600	-0.608778	-0.212768
H302	H	1.224600	-0.108778	0.287232
Cl303	Cl	0.707865	-0.383212	-0.237773
Cl304	Cl	1.207865	0.116788	0.262227
H305	H	0.724629	-0.693884	-0.212784
H306	H	1.224629	-0.193884	0.287216
H307	H	0.685754	-0.179940	-0.607974
H308	H	1.185754	0.320060	-0.107974
H309	H	0.586300	-0.970730	-0.420924
H310	H	1.086300	-0.470730	0.079076
Cl311	Cl	0.708044	-0.955610	-0.237857
Cl312	Cl	1.208044	-0.455610	0.262143
H313	H	0.556303	-0.615306	-0.465846
H314	H	1.056303	-0.115306	0.034154
Cl315	Cl	0.543088	-0.711316	-0.485783
Cl316	Cl	1.043088	-0.211316	0.014217
Cl317	Cl	0.572880	-0.388449	-0.440744
Cl318	Cl	1.072880	0.111551	0.059256
H319	H	0.724646	-0.749525	-0.212793
H320	H	1.224646	-0.249525	0.287207
H321	H	0.724669	-0.834645	-0.212813
H322	H	1.224669	-0.334645	0.287187
