data_functionalizedCrystal
_audit_creation_method	'MofGen! by Chris Wilmer'
_symmetry_space_group_name_H-M	'P1'
_symmetry_Int_Tables_number	1
_symmetry_cell_setting	triclinic
loop_
_symmetry_equiv_pos_as_xyz
  x,y,z
_cell_length_a	18.050591
_cell_length_b	18.050590
_cell_length_c	18.050582
_cell_angle_alpha	90.023337
_cell_angle_beta	90.020922
_cell_angle_gamma	90.014558
loop_
_atom_site_label
_atom_site_type_symbol
_atom_site_fract_x
_atom_site_fract_y
_atom_site_fract_z
Zn1	Zn	1.135342	-0.295786	0.420027
Zn2	Zn	1.635342	0.204214	0.920027
Zn3	Zn	1.135274	-0.419969	0.295836
Zn4	Zn	1.635274	0.080031	0.795836
Zn5	Zn	1.011162	-0.295789	0.295839
Zn6	Zn	1.511162	0.204211	0.795839
Zn7	Zn	1.011131	-0.419930	0.419971
Zn8	Zn	1.511131	0.080070	0.919971
O9	O	1.073227	-0.357868	0.357918
O10	O	1.573227	0.142132	0.857918
O11	O	1.239258	-0.312274	0.403576
O12	O	1.739258	0.187726	0.903576
O13	O	1.118795	-0.403514	0.191912
O14	O	1.618795	0.096486	0.691912
O15	O	1.027676	-0.191864	0.312337
O16	O	1.527676	0.308136	0.812337
O17	O	1.239208	-0.403511	0.312332
O18	O	1.739208	0.096489	0.812332
O19	O	1.118911	-0.191862	0.403578
O20	O	1.618911	0.308138	0.903578
O21	O	1.027610	-0.312279	0.191914
O22	O	1.527610	0.187721	0.691914
O23	O	0.907233	-0.312241	0.312283
O24	O	1.407233	0.187759	0.812283
O25	O	1.027623	-0.403444	0.523903
O26	O	1.527623	0.096556	1.023903
O27	O	0.907210	-0.403447	0.403482
O28	O	1.407210	0.096553	0.903482
O29	O	1.118881	-0.312236	0.523945
O30	O	1.618881	0.187764	1.023945
O31	O	1.118765	-0.523888	0.312278
O32	O	1.618765	-0.023888	0.812278
O33	O	1.027557	-0.523860	0.403480
O34	O	1.527557	-0.023860	0.903480
C35	C	0.880275	-0.357841	0.357877
C36	C	1.380275	0.142159	0.857877
C37	C	0.797729	-0.357847	0.357877
C38	C	1.297729	0.142153	0.857877
C39	C	0.598269	-0.308191	0.308397
C40	C	1.098269	0.191809	0.808397
C41	C	0.548861	-0.375927	0.290120
C42	C	1.048861	0.124073	0.790120
C43	C	0.646599	-0.357869	0.357911
C44	C	1.146599	0.142131	0.857911
C45	C	0.548925	-0.290157	0.376186
C46	C	1.048925	0.209843	0.876186
C47	C	0.500614	-0.357885	0.357942
C48	C	1.000614	0.142115	0.857942
C49	C	0.598278	-0.425641	0.339598
C50	C	1.098278	0.074359	0.839598
C51	C	0.598346	-0.339825	0.425696
C52	C	1.098346	0.160175	0.925696
C53	C	0.548961	-0.407607	0.407445
C54	C	1.048961	0.092393	0.907445
C55	C	0.730697	-0.357859	0.357891
C56	C	1.230697	0.142141	0.857891
C57	C	0.416517	-0.357903	0.357962
C58	C	0.916517	0.142097	0.857962
C59	C	1.073170	-0.550820	0.357889
C60	C	1.573170	-0.050820	0.857889
C61	C	1.073214	-0.633366	0.357901
C62	C	1.573214	-0.133366	0.857901
C63	C	1.122916	-0.832806	0.308375
C64	C	1.622916	-0.332806	0.808375
C65	C	1.141051	-0.882145	0.376157
C66	C	1.641051	-0.382145	0.876157
C67	C	1.073256	-0.784497	0.357930
C68	C	1.573256	-0.284497	0.857930
C69	C	1.055196	-0.882238	0.290179
C70	C	1.555196	-0.382238	0.790179
C71	C	1.073298	-0.930482	0.357953
C72	C	1.573298	-0.430482	0.857953
C73	C	1.091426	-0.832749	0.425748
C74	C	1.591426	-0.332749	0.925748
C75	C	1.005539	-0.832838	0.339725
C76	C	1.505539	-0.332838	0.839725
C77	C	1.023649	-0.882155	0.407554
C78	C	1.523649	-0.382155	0.907554
C79	C	1.073233	-0.700398	0.357916
C80	C	1.573233	-0.200398	0.857916
C81	C	1.073320	-1.014578	0.357975
C82	C	1.573320	-0.514578	0.857975
C83	C	1.266933	-0.357897	0.357960
C84	C	1.766933	0.142103	0.857960
C85	C	1.349479	-0.357909	0.357978
C86	C	1.849479	0.142091	0.857978
C87	C	1.073256	-0.357835	0.551624
C88	C	1.573256	0.142165	1.051624
C89	C	1.073269	-0.357821	0.634170
C90	C	1.573269	0.142179	1.134170
C91	C	1.073305	-0.164163	0.357964
C92	C	1.573305	0.335837	0.857964
C93	C	1.073338	-0.081617	0.357984
C94	C	1.573338	0.418383	0.857984
C95	C	1.073241	-0.357848	0.164966
C96	C	1.573241	0.142152	0.664966
C97	C	1.073372	-0.357652	0.082421
C98	C	1.573372	0.142348	0.582421
C99	C	1.023681	-0.407353	0.833598
C100	C	1.523681	0.092647	1.333598
C101	C	1.091439	-0.425511	0.882996
C102	C	1.591439	0.074489	1.382996
C103	C	1.073305	-0.357765	0.785300
C104	C	1.573305	0.142235	1.285300
C105	C	1.005584	-0.339586	0.882984
C106	C	1.505584	0.160414	1.382984
C107	C	1.073335	-0.357711	0.931285
C108	C	1.573335	0.142289	1.431285
C109	C	1.141099	-0.375958	0.833611
C110	C	1.641099	0.124042	1.333611
C111	C	1.055199	-0.290002	0.833594
C112	C	1.555199	0.209998	1.333594
C113	C	1.123004	-0.308134	0.882970
C114	C	1.623004	0.191866	1.382970
C115	C	1.073287	-0.357797	0.701202
C116	C	1.573287	0.142203	1.201202
C117	C	1.073360	-0.357679	1.015382
C118	C	1.573360	0.142321	1.515382
H119	H	0.527126	-0.391201	0.232809
H120	H	1.027126	0.108799	0.732809
H121	H	1.039904	-0.903976	0.232873
H122	H	1.539904	-0.403976	0.732873
H123	H	1.165031	-0.266177	0.904511
H124	H	1.665031	0.233823	1.404511
O125	O	0.973579	-0.907974	0.457559
O126	O	1.473579	-0.407974	0.957559
C127	C	0.917009	-1.015224	0.513365
C128	C	1.417009	-0.515224	1.013365
C129	C	0.973721	-0.986083	0.456694
C130	C	1.473721	-0.486083	0.956694
H131	H	0.917116	-1.078378	0.512695
H132	H	1.417116	-0.578378	1.012695
H133	H	0.859411	-0.994124	0.498334
H134	H	1.359411	-0.494124	0.998334
H135	H	0.932555	-0.994737	0.571064
H136	H	1.432555	-0.494737	1.071064
H137	H	0.958244	-1.006558	0.398975
H138	H	1.458244	-0.506558	0.898975
H139	H	1.031303	-1.007177	0.471789
H140	H	1.531303	-0.507177	0.971789
H141	H	0.981754	-0.449342	0.811921
H142	H	1.481754	0.050658	1.311921
H143	H	1.164925	-0.811136	0.266510
H144	H	1.664925	-0.311136	0.766510
H145	H	1.106771	-0.482794	0.904696
H146	H	1.606771	0.017206	1.404696
H147	H	0.619866	-0.482928	0.324091
H148	H	1.119866	0.017072	0.824091
O149	O	0.523025	-0.221815	0.394487
O150	O	1.023025	0.278185	0.894487
C151	C	0.449585	-0.116825	0.357078
C152	C	0.949585	0.383175	0.857078
C153	C	0.478877	-0.194208	0.336260
C154	C	0.978877	0.305792	0.836260
H155	H	0.413873	-0.094487	0.310020
H156	H	0.913873	0.405513	0.810020
H157	H	0.498254	-0.077785	0.366973
H158	H	0.998254	0.422215	0.866973
H159	H	0.414901	-0.120937	0.409684
H160	H	0.914901	0.379063	0.909684
H161	H	0.513549	-0.190167	0.283644
H162	H	1.013549	0.309833	0.783644
H163	H	0.430176	-0.233217	0.326414
H164	H	0.930176	0.266783	0.826414
H165	H	1.198335	-0.903806	0.391570
H166	H	1.698335	-0.403806	0.891570
O167	O	0.624342	-0.321710	0.494066
O168	O	1.124342	0.178290	0.994066
C169	C	0.696778	-0.359939	0.599487
C170	C	1.196778	0.140061	1.099487
C171	C	0.667368	-0.380567	0.522075
C172	C	1.167368	0.119433	1.022075
H173	H	0.731583	-0.407507	0.622149
H174	H	1.231583	0.092493	1.122149
H175	H	0.648168	-0.349059	0.638299
H176	H	1.148168	0.150941	1.138299
H177	H	0.732398	-0.307948	0.595298
H178	H	1.232398	0.192052	1.095298
H179	H	0.631759	-0.432569	0.526192
H180	H	1.131759	0.067431	1.026192
H181	H	0.716011	-0.391399	0.483293
H182	H	1.216011	0.108601	0.983293
H183	H	1.039846	-0.232736	0.811878
H184	H	1.539846	0.267264	1.311878
H185	H	0.948301	-0.324232	0.904672
H186	H	1.448301	0.175768	1.404672
H187	H	0.948271	-0.811161	0.324291
H188	H	1.448271	-0.311161	0.824291
H189	H	1.198399	-0.391377	0.812015
H190	H	1.698399	0.108623	1.312015
H191	H	0.619920	-0.266226	0.266480
H192	H	1.119920	0.233774	0.766480
H193	H	1.106662	-0.811103	0.483104
H194	H	1.606662	-0.311103	0.983104
O195	O	0.523321	-0.457888	0.457329
O196	O	1.023321	0.042112	0.957329
C197	C	0.519551	-0.586051	0.494445
C198	C	1.019551	-0.086051	0.994445
C199	C	0.548625	-0.529187	0.437894
C200	C	1.048625	-0.029187	0.937894
H201	H	0.540010	-0.643706	0.478761
H202	H	1.040010	-0.143706	0.978761
H203	H	0.456396	-0.585413	0.494437
H204	H	0.956396	-0.085413	0.994437
H205	H	0.540766	-0.571115	0.552042
H206	H	1.040766	-0.071115	1.052042
H207	H	0.527464	-0.544082	0.380269
H208	H	1.027464	-0.044082	0.880269
H209	H	0.611778	-0.529835	0.437967
H210	H	1.111778	-0.029835	0.937967
