data_functionalizedCrystal
_audit_creation_method	'MofGen! by Chris Wilmer'
_symmetry_space_group_name_H-M	'P1'
_symmetry_Int_Tables_number	1
_symmetry_cell_setting	triclinic
loop_
_symmetry_equiv_pos_as_xyz
  x,y,z
_cell_length_a	12.827893
_cell_length_b	12.759394
_cell_length_c	12.827885
_cell_angle_alpha	89.968776
_cell_angle_beta	89.980728
_cell_angle_gamma	90.014808
loop_
_atom_site_label
_atom_site_type_symbol
_atom_site_fract_x
_atom_site_fract_y
_atom_site_fract_z
Zn1	Zn	1.597674	-0.418216	-0.590838
Zn2	Zn	1.597569	-0.593932	-0.416094
Zn3	Zn	1.422915	-0.418268	-0.416112
Zn4	Zn	1.422902	-0.593854	-0.590794
O5	O	1.510265	-0.506068	-0.503460
O6	O	1.743896	-0.441537	-0.567669
O7	O	1.574363	-0.570684	-0.269860
O8	O	1.446146	-0.271240	-0.439316
O9	O	1.743819	-0.570634	-0.439285
O10	O	1.574541	-0.271202	-0.567686
O11	O	1.446045	-0.441624	-0.269873
O12	O	1.276677	-0.441548	-0.439273
O13	O	1.446124	-0.570501	-0.737036
O14	O	1.276668	-0.570551	-0.567611
O15	O	1.574528	-0.441461	-0.737069
O16	O	1.574350	-0.740943	-0.439243
O17	O	1.446023	-0.740885	-0.567594
C18	C	1.238755	-0.506047	-0.503440
C19	C	1.122602	-0.506064	-0.503456
C20	C	1.070840	-0.569998	-0.566864
C21	C	0.950790	-0.570017	-0.566882
C22	C	1.510202	-0.779035	-0.503434
C23	C	1.510271	-0.895812	-0.503458
C24	C	1.643999	-0.895818	-0.369906
C25	C	1.710890	-0.950682	-0.303143
C26	C	1.710951	-1.060404	-0.303171
C27	C	1.644116	-1.115264	-0.369973
C28	C	1.577225	-1.060400	-0.436736
C29	C	1.577169	-0.950676	-0.436698
C30	C	1.443504	-1.060393	-0.570292
C31	C	1.443436	-0.950672	-0.570260
C32	C	1.376670	-1.115253	-0.637094
C33	C	1.309772	-1.060389	-0.703854
C34	C	1.309712	-0.950661	-0.703822
C35	C	1.376545	-0.895808	-0.637024
C36	C	1.782835	-0.506089	-0.503480
C37	C	1.898988	-0.506098	-0.503489
C38	C	1.510336	-0.505967	-0.776030
C39	C	1.510366	-0.505924	-0.892183
C40	C	1.510356	-0.232034	-0.503508
C41	C	1.510395	-0.115257	-0.503528
C42	C	1.573912	-0.442058	-0.943984
C43	C	1.573944	-0.442012	-1.064034
C44	C	1.510254	-0.506092	-0.231950
C45	C	1.510426	-0.505839	-0.115797
H46	H	1.115402	-0.624717	-0.621140
N47	N	0.957946	-0.433584	-0.431584
H48	H	0.939022	-0.358523	-0.447933
H49	H	0.938950	-0.449881	-0.356902
N50	N	1.644191	-1.233605	-0.370003
H51	H	1.572529	-1.260113	-0.350743
H52	H	1.663425	-1.259873	-0.441729
N53	N	0.891838	-0.642534	-0.638788
H54	H	0.814435	-0.632271	-0.628606
H55	H	0.910897	-0.626286	-0.713465
N56	N	1.063588	-0.433581	-0.431553
H57	H	1.018323	-0.384991	-0.474146
H58	H	1.018339	-0.476353	-0.383119
H59	H	1.765308	-0.906006	-0.248755
H60	H	1.376497	-0.806467	-0.636984
N61	N	1.645965	-0.369696	-0.885005
H62	H	1.603475	-0.321062	-0.839711
H63	H	1.694296	-0.412558	-0.839787
N64	N	1.643918	-0.777477	-0.369862
H65	H	1.696402	-0.751048	-0.317413
H66	H	1.663049	-0.751047	-0.441590
N67	N	1.438324	-0.578294	-0.951165
H68	H	1.480825	-0.626926	-0.996450
H69	H	1.395920	-0.620852	-0.900043
N70	N	1.646019	-0.369586	-1.123030
H71	H	1.635828	-0.379821	-1.200427
H72	H	1.629792	-0.294540	-1.104020
N73	N	1.438351	-0.578258	-1.056792
H74	H	1.363681	-0.561937	-1.075731
H75	H	1.454622	-0.653312	-1.075735
H76	H	1.765425	-1.105074	-0.248811
N77	N	1.376727	-1.233595	-0.637133
H78	H	1.448419	-1.259957	-0.656402
H79	H	1.357515	-1.260015	-0.565424
N80	N	1.237698	-1.119556	-0.775902
H81	H	1.247892	-1.197389	-0.765794
H82	H	1.163060	-1.100459	-0.759569
H83	H	1.255246	-0.905997	-0.758193
