data_functionalizedCrystal
_audit_creation_method	'MofGen! by Chris Wilmer'
_symmetry_space_group_name_H-M	'P1'
_symmetry_Int_Tables_number	1
_symmetry_cell_setting	triclinic
loop_
_symmetry_equiv_pos_as_xyz
  x,y,z
_cell_length_a	15.944551
_cell_length_b	23.532407
_cell_length_c	15.021413
_cell_angle_alpha	89.999348
_cell_angle_beta	89.997174
_cell_angle_gamma	83.173708
loop_
_atom_site_label
_atom_site_type_symbol
_atom_site_fract_x
_atom_site_fract_y
_atom_site_fract_z
O1	O	1.113910	0.073442	-0.073949
O2	O	1.613910	0.573442	0.426051
O3	O	0.869284	0.082498	-0.073972
O4	O	1.369284	0.582498	0.426028
O5	O	0.998974	-0.004933	-0.073943
O6	O	1.498974	0.495067	0.426057
O7	O	0.984220	0.160873	-0.073977
O8	O	1.484220	0.660873	0.426023
O9	O	0.998953	-0.004921	0.074121
O10	O	1.498953	0.495079	0.574121
O11	O	0.869263	0.082510	0.074092
O12	O	1.369263	0.582510	0.574092
O13	O	1.113889	0.073455	0.074116
O14	O	1.613889	0.573455	0.574116
Zn15	Zn	0.991573	0.077985	0.097612
Zn16	Zn	1.491573	0.577985	0.597612
Zn17	Zn	0.991600	0.077968	-0.097469
Zn18	Zn	1.491600	0.577968	0.402531
O19	O	0.984200	0.160886	0.074087
O20	O	1.484200	0.660886	0.574087
C21	C	0.837983	0.082128	0.000057
C22	C	1.337983	0.582128	0.500057
C23	C	0.744746	0.081001	0.000049
C24	C	1.244746	0.581001	0.500049
C25	C	0.998588	-0.026144	0.000091
C26	C	1.498588	0.473856	0.500091
C27	C	0.997458	-0.089366	0.000098
C28	C	1.497458	0.410634	0.500098
C29	C	0.530369	0.024113	0.000078
C30	C	1.030369	0.524113	0.500078
C31	C	0.469137	0.050524	-0.072931
C32	C	0.969137	0.550524	0.427069
C33	C	0.574038	0.078962	0.000060
C34	C	1.074038	0.578962	0.500060
C35	C	0.469138	0.050549	0.073049
C36	C	0.969138	0.550549	0.573049
C37	C	0.409142	0.076989	0.000075
C38	C	0.909142	0.576989	0.500075
C39	C	0.514033	0.105388	-0.073009
C40	C	1.014033	0.605388	0.426991
C41	C	0.514041	0.105405	0.073036
C42	C	1.014041	0.605405	0.573036
C43	C	0.452826	0.131856	0.000010
C44	C	0.952826	0.631856	0.500010
C45	C	0.669030	0.080097	0.000051
C46	C	1.169030	0.580097	0.500051
C47	C	0.314150	0.075858	0.000077
C48	C	0.814150	0.575858	0.500077
C49	C	1.067121	-0.488199	0.000056
C50	C	1.567121	0.011801	0.500056
C51	C	1.066072	-0.547603	0.000049
C52	C	1.566072	-0.047603	0.500049
O53	O	1.130650	-0.584098	0.000022
O54	O	1.630650	-0.084098	0.500022
N55	N	0.988971	-0.570528	0.000042
N56	N	1.488971	-0.070528	0.500042
C57	C	0.912915	-0.534045	0.000033
C58	C	1.412915	-0.034045	0.500033
O59	O	0.847239	-0.558999	0.000026
O60	O	1.347239	-0.058999	0.500026
C61	C	0.913965	-0.474642	0.000034
C62	C	1.413965	0.025358	0.500034
C63	C	0.991071	-0.451721	0.000049
C64	C	1.491071	0.048279	0.500049
C65	C	1.144220	-0.465277	0.000070
C66	C	1.644220	0.034723	0.500070
C67	C	1.145269	-0.405877	0.000079
C68	C	1.645269	0.094123	0.500079
C69	C	1.069219	-0.369399	0.000073
C70	C	1.569219	0.130601	0.500073
C71	C	0.992120	-0.392320	0.000058
C72	C	1.492120	0.107680	0.500058
C73	C	0.837910	-0.438160	0.000018
C74	C	1.337910	0.061840	0.500018
C75	C	0.838967	-0.378754	0.000018
C76	C	1.338967	0.121246	0.500018
C77	C	0.916072	-0.355832	0.000034
C78	C	1.416072	0.144168	0.500034
C79	C	0.917118	-0.296442	0.000060
C80	C	1.417118	0.203558	0.500060
N81	N	0.994219	-0.273517	0.000067
N82	N	1.494219	0.226483	0.500067
C83	C	1.070269	-0.309995	0.000073
C84	C	1.570269	0.190005	0.500073
C85	C	0.910716	-0.658796	0.000031
C86	C	1.410716	-0.158796	0.500031
C87	C	0.909664	-0.718198	0.000037
C88	C	1.409664	-0.218198	0.500037
C89	C	1.062821	-0.731752	0.000050
C90	C	1.562821	-0.231752	0.500050
C91	C	1.063872	-0.672349	0.000051
C92	C	1.563872	-0.172349	0.500051
C93	C	0.987816	-0.635871	0.000037
C94	C	1.487816	-0.135871	0.500037
C95	C	1.072466	-0.185250	0.000092
C96	C	1.572466	0.314750	0.500092
C97	C	1.073508	-0.125844	0.000104
C98	C	1.573508	0.374156	0.500104
C99	C	0.920352	-0.112295	0.000085
C100	C	1.420352	0.387705	0.500085
C101	C	0.919309	-0.171696	0.000078
C102	C	1.419309	0.328304	0.500078
C103	C	0.995373	-0.208173	0.000078
C104	C	1.495373	0.291827	0.500078
O105	O	0.852574	-0.259913	0.000083
O106	O	1.352574	0.240087	0.500083
O107	O	1.135935	-0.285033	0.000069
O108	O	1.635935	0.214967	0.500069
C109	C	1.145190	0.073824	0.000084
C110	C	1.645190	0.573824	0.500084
C111	C	1.238427	0.074951	0.000087
C112	C	1.738427	0.574951	0.500087
C113	C	0.984586	0.182097	0.000051
C114	C	1.484586	0.682097	0.500051
C115	C	0.985715	0.245318	0.000038
C116	C	1.485715	0.745318	0.500038
N117	N	0.991561	0.077995	0.230750
N118	N	1.491561	0.577995	0.730750
N119	N	0.991619	0.077953	-0.230606
N120	N	1.491619	0.577953	0.269394
C121	C	0.931583	0.118404	0.470420
C122	C	1.431583	0.618404	0.970420
C123	C	1.007390	0.129461	0.529759
C124	C	1.507390	0.629461	1.029759
C125	C	0.991582	0.077981	0.412357
C126	C	1.491582	0.577981	0.912357
C127	C	0.915796	0.066938	0.529760
C128	C	1.415796	0.566938	1.029760
C129	C	0.991596	0.077969	0.587781
C130	C	1.491596	0.577969	1.087781
C131	C	1.067428	0.089063	0.470389
C132	C	1.567428	0.589063	0.970389
C133	C	0.975783	0.026518	0.470385
C134	C	1.475783	0.526518	0.970385
C135	C	1.051645	0.037552	0.529697
C136	C	1.551645	0.537552	1.029697
C137	C	0.991573	0.077990	0.311300
C138	C	1.491573	0.577990	0.811300
C139	C	0.991614	0.077960	0.688836
C140	C	1.491614	0.577960	1.188836
H141	H	0.564086	-0.021407	-0.000003
H142	H	1.064086	0.478593	0.499997
Cl143	Cl	1.160807	-0.643540	0.000070
Cl144	Cl	1.660807	-0.143540	0.500070
Cl145	Cl	0.401034	0.202206	-0.000065
Cl146	Cl	0.901034	0.702206	0.499935
H147	H	0.851698	0.057603	0.555841
H148	H	1.351698	0.557603	1.055841
H149	H	1.020766	0.172977	0.555839
H150	H	1.520766	0.672977	1.055839
H151	H	0.449230	0.027320	-0.134645
H152	H	0.949230	0.527320	0.365355
Cl153	Cl	1.130074	-0.015237	0.569637
Cl154	Cl	1.630074	0.484763	1.069637
Cl155	Cl	0.544599	0.141170	-0.168411
Cl156	Cl	1.044599	0.641170	0.331589
H157	H	1.131539	0.098450	0.444420
H158	H	1.631539	0.598450	0.944420
Cl159	Cl	0.853325	0.171223	0.430230
Cl160	Cl	1.353325	0.671223	0.930230
H161	H	0.449239	0.027346	0.134770
H162	H	0.949239	0.527346	0.634770
Cl163	Cl	0.740971	-0.466960	-0.000007
Cl164	Cl	1.240971	0.033040	0.499993
Cl165	Cl	0.955095	-0.040647	0.430083
Cl166	Cl	1.455095	0.459353	0.930083
H167	H	0.533969	0.128590	0.134754
H168	H	1.033969	0.628590	0.634754
Cl169	Cl	0.824751	-0.066426	0.000076
Cl170	Cl	1.324751	0.433574	0.500076
Cl171	Cl	1.170448	-0.097033	0.000122
Cl172	Cl	1.670448	0.402967	0.500122
H173	H	1.134405	-0.214943	0.000089
H174	H	1.634405	0.285057	0.500089
Cl175	Cl	0.822376	-0.200512	0.000075
Cl176	Cl	1.322376	0.299488	0.500075
H177	H	1.206153	-0.494973	0.000072
H178	H	1.706153	0.005027	0.500072
Cl179	Cl	1.242207	-0.377071	0.000073
Cl180	Cl	1.742207	0.122929	0.500073
H181	H	1.124746	-0.761464	0.000052
H182	H	1.624746	-0.261464	0.500052
H183	H	0.777032	-0.349056	0.000006
H184	H	1.277032	0.150944	0.500006
H185	H	0.846878	-0.736855	0.000039
H186	H	1.346878	-0.236855	0.500039
Cl187	Cl	0.815093	-0.612943	0.000024
Cl188	Cl	1.315093	-0.112943	0.500024
