data_functionalizedCrystal
_audit_creation_method	'MofGen! by Chris Wilmer'
_symmetry_space_group_name_H-M	'P1'
_symmetry_Int_Tables_number	1
_symmetry_cell_setting	triclinic
loop_
_symmetry_equiv_pos_as_xyz
  x,y,z
_cell_length_a	13.897449
_cell_length_b	11.169416
_cell_length_c	11.169406
_cell_angle_alpha	89.956706
_cell_angle_beta	89.966813
_cell_angle_gamma	90.006344
loop_
_atom_site_label
_atom_site_type_symbol
_atom_site_fract_x
_atom_site_fract_y
_atom_site_fract_z
Zn1	Zn	1.474906	-0.477488	-0.678649
Zn2	Zn	1.808239	-0.144155	-0.345316
Zn3	Zn	2.141572	0.189179	-0.011983
Zn4	Zn	1.474800	-0.678282	-0.477981
Zn5	Zn	1.808134	-0.344949	-0.144648
Zn6	Zn	2.141467	-0.011615	0.188685
Zn7	Zn	1.313560	-0.477616	-0.477976
Zn8	Zn	1.646893	-0.144283	-0.144643
Zn9	Zn	1.980227	0.189051	0.188691
Zn10	Zn	1.313612	-0.678132	-0.678619
Zn11	Zn	1.646946	-0.344799	-0.345285
Zn12	Zn	1.980279	-0.011465	-0.011952
O13	O	1.394220	-0.577879	-0.578306
O14	O	1.727553	-0.244546	-0.244973
O15	O	2.060886	0.088787	0.088360
O16	O	1.609873	-0.504133	-0.652045
O17	O	1.943207	-0.170799	-0.318712
O18	O	2.276540	0.162534	0.014621
O19	O	1.453345	-0.651779	-0.310031
O20	O	1.786679	-0.318446	0.023303
O21	O	2.120012	0.014887	0.356636
O22	O	1.334985	-0.309649	-0.504606
O23	O	1.668318	0.023684	-0.171273
O24	O	2.001652	0.357017	0.162060
O25	O	1.609796	-0.651655	-0.504616
O26	O	1.943129	-0.318322	-0.171282
O27	O	2.276463	0.015011	0.162051
O28	O	1.453525	-0.309555	-0.652040
O29	O	1.786859	0.023778	-0.318707
O30	O	2.120192	0.357112	0.014626
O31	O	1.334883	-0.504351	-0.310027
O32	O	1.668216	-0.171018	0.023307
O33	O	2.001549	0.162316	0.356640
O34	O	1.178585	-0.504206	-0.504577
O35	O	1.511919	-0.170872	-0.171243
O36	O	1.845252	0.162461	0.162090
O37	O	1.335074	-0.651400	-0.846573
O38	O	1.668408	-0.318067	-0.513239
O39	O	2.001741	0.015267	-0.179906
O40	O	1.178624	-0.651524	-0.651988
O41	O	1.511957	-0.318191	-0.318655
O42	O	1.845290	0.015143	0.014679
O43	O	1.453576	-0.503987	-0.846595
O44	O	1.786909	-0.170654	-0.513262
O45	O	2.120243	0.162679	-0.179929
O46	O	1.453396	-0.846212	-0.504586
O47	O	1.786729	-0.512878	-0.171252
O48	O	2.120063	-0.179545	0.162081
O49	O	1.334972	-0.846102	-0.651993
O50	O	1.668305	-0.512768	-0.318660
O51	O	2.001639	-0.179435	0.014674
C52	C	1.143605	-0.577863	-0.578279
C53	C	1.476939	-0.244530	-0.244946
C54	C	1.810272	0.088803	0.088388
C55	C	1.036391	-0.577885	-0.578296
C56	C	1.369725	-0.244552	-0.244962
C57	C	1.703058	0.088781	0.088371
C58	C	0.840096	-0.577890	-0.578327
C59	C	1.173430	-0.244556	-0.244994
C60	C	1.506763	0.088777	0.088339
C61	C	0.949329	-0.577884	-0.578306
C62	C	1.282662	-0.244550	-0.244973
C63	C	1.615995	0.088783	0.088360
C64	C	1.394204	-0.889704	-0.578313
C65	C	1.727538	-0.556371	-0.244979
C66	C	2.060871	-0.223037	0.088354
C67	C	1.394286	-1.023104	-0.578356
C68	C	1.727620	-0.689771	-0.245022
C69	C	2.060953	-0.356437	0.088311
C70	C	1.394343	-0.577663	-0.891349
C71	C	1.727676	-0.244329	-0.558016
C72	C	2.061009	0.089004	-0.224682
C73	C	1.394395	-0.577570	-1.024749
C74	C	1.727728	-0.244237	-0.691416
C75	C	2.061062	0.089096	-0.358083
C76	C	1.645813	-0.577896	-0.578335
C77	C	1.979146	-0.244563	-0.245001
C78	C	2.312479	0.088770	0.088332
C79	C	1.753026	-0.577904	-0.578347
C80	C	2.086360	-0.244570	-0.245013
C81	C	2.419693	0.088763	0.088320
C82	C	1.394261	-0.264837	-0.578326
C83	C	1.727594	0.068496	-0.244993
C84	C	2.060928	0.401830	0.088341
C85	C	1.394279	-0.131437	-0.578335
C86	C	1.727612	0.201896	-0.245001
C87	C	2.060945	0.535230	0.088332
C88	C	1.394152	-0.578009	-0.266481
C89	C	1.727486	-0.244675	0.066852
C90	C	2.060819	0.088658	0.400185
C91	C	1.394287	-0.577763	-0.133082
C92	C	1.727620	-0.244430	0.200251
C93	C	2.060953	0.088904	0.533585
