data_functionalizedCrystal
_audit_creation_method	'MofGen! by Chris Wilmer'
_symmetry_space_group_name_H-M	'P1'
_symmetry_Int_Tables_number	1
_symmetry_cell_setting	triclinic
loop_
_symmetry_equiv_pos_as_xyz
  x,y,z
_cell_length_a	23.532407
_cell_length_b	17.000371
_cell_length_c	22.610064
_cell_angle_alpha	89.984381
_cell_angle_beta	89.990850
_cell_angle_gamma	79.223963
loop_
_atom_site_label
_atom_site_type_symbol
_atom_site_fract_x
_atom_site_fract_y
_atom_site_fract_z
O1	O	0.020527	1.055953	-0.049189
O2	O	0.041205	0.824057	-0.049191
O3	O	-0.052387	0.946998	-0.049179
O4	O	0.114120	0.933012	-0.049201
O5	O	-0.052386	0.946962	0.049190
O6	O	0.041207	0.824021	0.049178
O7	O	0.020529	1.055917	0.049180
Zn8	Zn	0.030868	0.939963	0.064797
Zn9	Zn	0.030866	0.940011	-0.064808
O10	O	0.114121	0.932976	0.049168
C11	C	0.042316	0.794376	-0.000007
C12	C	0.045619	0.705992	-0.000007
C13	C	-0.005203	0.674368	0.000001
C14	C	-0.002097	0.591320	-0.000004
C15	C	0.051833	0.539898	-0.000012
C16	C	0.102659	0.571527	-0.000022
C17	C	0.099552	0.654573	-0.000021
C18	C	0.063834	0.288657	-0.000018
C19	C	0.066937	0.205606	-0.000016
C20	C	-0.037819	0.225405	0.000000
C21	C	-0.040921	0.308452	0.000004
C22	C	0.009905	0.340074	-0.000009
C23	C	0.055009	0.455010	-0.000015
C24	C	0.006728	0.424960	-0.000010
C25	C	-0.073586	0.946624	0.000007
C26	C	-0.136754	0.945553	0.000012
C27	C	-0.538897	1.011591	-0.000020
C28	C	-0.598251	1.010596	-0.000025
O29	O	-0.637814	1.071814	-0.000046
N30	N	-0.617513	0.937508	-0.000025
C31	C	-0.577417	0.865409	-0.000027
O32	O	-0.599251	0.803151	-0.000028
C33	C	-0.518063	0.866405	-0.000027
C34	C	-0.498805	0.939498	-0.000020
C35	C	-0.519638	1.084678	-0.000014
C36	C	-0.460287	1.085672	-0.000009
C37	C	-0.420196	1.013579	-0.000009
C38	C	-0.439455	0.940492	-0.000015
C39	C	-0.477968	0.794307	-0.000033
C40	C	-0.418612	0.795309	-0.000033
C41	C	-0.399354	0.868402	-0.000026
C42	C	-0.340013	0.869394	-0.000009
N43	N	-0.320751	0.942482	-0.000009
C44	C	-0.360843	1.014575	-0.000009
C45	C	-0.702063	0.863324	-0.000028
C46	C	-0.761415	0.862328	-0.000024
C47	C	-0.782246	1.007515	-0.000023
C48	C	-0.722893	1.008510	-0.000023
C49	C	-0.682801	0.936412	-0.000028
C50	C	-0.236202	1.016658	0.000004
C51	C	-0.176845	1.017646	0.000012
C52	C	-0.156020	0.872459	0.000007
C53	C	-0.215371	0.871471	0.000003
C54	C	-0.255462	0.943576	-0.000001
O55	O	-0.300418	0.808208	0.000010
O56	O	-0.339000	1.076823	-0.000015
C57	C	0.135320	0.933350	-0.000019
C58	C	0.198488	0.934421	-0.000027
C59	C	0.019418	1.085598	-0.000005
C60	C	0.016115	1.173982	-0.000009
N61	N	0.030869	0.939937	0.153250
N62	N	0.030860	0.940043	-0.153261
C63	C	0.063016	0.988028	0.561887
C64	C	0.063014	0.988038	0.623807
O65	O	0.090345	1.028896	0.655822
N66	N	0.030859	0.940026	0.654787
C67	C	-0.001302	0.892006	0.623844
O68	O	-0.028653	0.851169	0.655881
C69	C	-0.001303	0.892001	0.561925
C70	C	0.030860	0.940011	0.530948
C71	C	0.095175	1.036035	0.530910
C72	C	0.095178	1.036023	0.468995
C73	C	0.063021	0.988006	0.438056
C74	C	0.030862	0.939999	0.469033
C75	C	-0.033466	0.843986	0.530983
C76	C	-0.033465	0.843986	0.469060
C77	C	-0.001302	0.891995	0.438083
C78	C	-0.001292	0.891970	0.376178
N79	N	0.030864	0.939983	0.345198
C80	C	0.063020	0.988001	0.376137
C81	C	-0.001298	0.892022	0.753878
C82	C	-0.001294	0.892022	0.815795
C83	C	0.063021	0.988056	0.815754
C84	C	0.063020	0.988050	0.753835
C85	C	0.030858	0.940034	0.722898
C86	C	0.063024	0.987973	0.246110
C87	C	0.063026	0.987955	0.184189
C88	C	-0.001292	0.891925	0.184235
C89	C	-0.001291	0.891939	0.246151
C90	C	0.030868	0.939970	0.277087
O91	O	-0.028610	0.851136	0.344124
O92	O	0.090361	1.028838	0.344093
H93	H	-0.268837	1.075373	-0.000002
H94	H	-0.037181	0.466832	-0.000007
H95	H	0.098919	0.413133	-0.000021
H96	H	0.110856	0.163738	-0.000020
C97	C	0.098391	1.040869	0.719766
H98	H	0.117538	1.069469	0.747066
H99	H	0.126233	1.008038	0.695611
H100	H	0.073218	1.077704	0.695612
H101	H	-0.669423	0.804610	-0.000027
C102	C	-0.499139	0.713904	-0.000045
H103	H	-0.466755	0.671118	-0.000052
H104	H	-0.521865	0.710470	0.034256
H105	H	-0.521852	0.710512	-0.034356
C106	C	0.155454	0.689363	-0.000030
H107	H	0.145881	0.746186	-0.000035
H108	H	0.177488	0.671676	0.034269
H109	H	0.177480	0.671698	-0.034342
H110	H	-0.777089	0.802808	-0.000019
H111	H	0.089206	1.027153	0.840956
H112	H	-0.385971	0.736597	-0.000038
H113	H	-0.027477	0.852918	0.841011
H114	H	-0.161170	1.077169	0.000018
C115	C	-0.036670	0.839189	0.719851
H116	H	-0.055814	0.810593	0.747174
H117	H	-0.064514	0.872015	0.695692
H118	H	-0.011498	0.802351	0.695705
H119	H	-0.444614	1.145192	-0.000006
H120	H	-0.079198	0.199650	0.000004
C121	C	0.130548	1.088843	0.434925
H122	H	0.125950	1.081965	0.393616
H123	H	0.117254	1.143403	0.445066
H124	H	0.170268	1.073737	0.445072
H125	H	-0.123367	0.813763	0.000010
C126	C	-0.236557	0.791071	-0.000006
H127	H	-0.204177	0.748278	-0.000009
H128	H	-0.259289	0.787644	0.034291
H129	H	-0.259266	0.787684	-0.034320
H130	H	-0.059657	0.804893	0.556194
H131	H	-0.027471	0.852828	0.159034
C132	C	-0.058002	0.556538	0.000011
H133	H	-0.090564	0.599057	0.000024
H134	H	-0.058973	0.524566	-0.034292
H135	H	-0.058961	0.524541	0.034320
H136	H	0.105220	0.314393	-0.000032
C137	C	-0.563730	1.163987	-0.000010
H138	H	-0.543751	1.207651	-0.000002
H139	H	-0.587318	1.166644	-0.034311
H140	H	-0.587317	1.166605	0.034301
C141	C	-0.701714	1.088911	-0.000022
H142	H	-0.734096	1.131701	-0.000025
H143	H	-0.678995	1.092310	0.034280
H144	H	-0.678993	1.092333	-0.034331
H145	H	0.121361	1.075141	0.556094
H146	H	-0.084836	0.350316	0.000013
H147	H	0.146569	0.529652	-0.000032
C148	C	-0.826354	1.086816	-0.000034
H149	H	-0.864459	1.075749	-0.000044
H150	H	-0.820919	1.116805	0.034267
H151	H	-0.820901	1.116811	-0.034345
C152	C	0.098402	1.040772	0.150117
H153	H	0.117546	1.069377	0.177415
H154	H	0.126245	1.007936	0.125967
H155	H	0.073231	1.077602	0.125958
H156	H	0.089211	1.027084	0.271290
H157	H	-0.027473	0.852836	0.271374
C158	C	-0.064525	0.730929	0.000010
H159	H	-0.059098	0.784918	0.000015
H160	H	-0.085538	0.721398	-0.034290
H161	H	-0.085534	0.721371	0.034321
C162	C	-0.068841	0.791163	0.435032
H163	H	-0.087990	0.762570	0.462353
H164	H	-0.096681	0.823993	0.410871
H165	H	-0.043670	0.754322	0.410887
