data_functionalizedCrystal
_audit_creation_method	'MofGen! by Chris Wilmer'
_symmetry_space_group_name_H-M	'P1'
_symmetry_Int_Tables_number	1
_symmetry_cell_setting	triclinic
loop_
_symmetry_equiv_pos_as_xyz
  x,y,z
_cell_length_a	12.759401
_cell_length_b	12.645330
_cell_length_c	12.759393
_cell_angle_alpha	89.971026
_cell_angle_beta	89.980324
_cell_angle_gamma	90.018118
loop_
_atom_site_label
_atom_site_type_symbol
_atom_site_fract_x
_atom_site_fract_y
_atom_site_fract_z
Zn1	Zn	1.606245	-0.421976	-0.593996
Zn2	Zn	1.606126	-0.599277	-0.418321
Zn3	Zn	1.430543	-0.422029	-0.418335
Zn4	Zn	1.430526	-0.599199	-0.593962
O5	O	1.518360	-0.510620	-0.506153
O6	O	1.753250	-0.445506	-0.570700
O7	O	1.582793	-0.575819	-0.271301
O8	O	1.453907	-0.273675	-0.441657
O9	O	1.753163	-0.575768	-0.441633
O10	O	1.582994	-0.273636	-0.570714
O11	O	1.453793	-0.445596	-0.271312
O12	O	1.283520	-0.445521	-0.441624
O13	O	1.453878	-0.575636	-0.740987
O14	O	1.283507	-0.575687	-0.570656
O15	O	1.582977	-0.445430	-0.741012
O16	O	1.582776	-0.747614	-0.441600
O17	O	1.453763	-0.747557	-0.570642
C18	C	1.245393	-0.510602	-0.506138
C19	C	1.128616	-0.510620	-0.506157
C20	C	1.073800	-0.442915	-0.573466
C21	C	0.964076	-0.442926	-0.573473
C22	C	0.963994	-0.578355	-0.438859
C23	C	1.073716	-0.578338	-0.438847
C24	C	1.518283	-0.786050	-0.506139
C25	C	1.518347	-0.903880	-0.506167
C26	C	1.437519	-1.071452	-0.587598
C27	C	1.437106	-0.948893	-0.587337
C28	C	1.488371	-0.948482	-0.395446
C29	C	1.487878	-1.071081	-0.395940
C30	C	1.629644	-1.070966	-0.534560
C31	C	1.628962	-0.948359	-0.536981
C32	C	1.792393	-0.510639	-0.506169
C33	C	1.909170	-0.510647	-0.506175
C34	C	1.518439	-0.510518	-0.780187
C35	C	1.518472	-0.510475	-0.896963
C36	C	1.518466	-0.234115	-0.506191
C37	C	1.518511	-0.116285	-0.506207
C38	C	1.585699	-0.442666	-0.951840
C39	C	1.585717	-0.442621	-1.061564
C40	C	1.451278	-0.578201	-1.061525
C41	C	1.451255	-0.578241	-0.951803
C42	C	1.518342	-0.510645	-0.233186
C43	C	1.518512	-0.510390	-0.116410
H44	H	0.919281	-0.633490	-0.384059
C45	C	1.711163	-1.110139	-0.454480
N46	N	1.772555	-1.139652	-0.394161
H47	H	1.640459	-0.387402	-1.106240
C48	C	1.377341	-0.652738	-1.121859
N49	N	1.321650	-0.708880	-1.167302
H50	H	1.118496	-0.387771	-0.628271
H51	H	1.455861	-0.918733	-0.669436
C52	C	1.564100	-1.111155	-0.311212
N53	N	1.621503	-1.141334	-0.247390
C54	C	1.378125	-1.109847	-0.363498
N55	N	1.295456	-1.139041	-0.339066
C56	C	1.377293	-0.652836	-0.891435
N57	N	1.321584	-0.709017	-0.845966
H58	H	0.919449	-0.387792	-0.628281
C59	C	1.134017	-0.652822	-0.364798
N60	N	1.179436	-0.708920	-0.309024
H61	H	1.456102	-1.100858	-0.669967
C62	C	1.326906	-1.113186	-0.562540
N63	N	1.243593	-1.144617	-0.543659
C64	C	1.325784	-0.909396	-0.562038
N65	N	1.241925	-0.879648	-0.543008
H66	H	1.545491	-0.919328	-0.333146
C67	C	1.379759	-0.907143	-0.362413
N68	N	1.297949	-0.876009	-0.337539
C69	C	1.666581	-1.112620	-0.641783
N70	N	1.694389	-1.143993	-0.722549
H71	H	1.651567	-0.919203	-0.618466
H72	H	1.640429	-0.387484	-0.907193
H73	H	1.692482	-0.917712	-0.482016
