data_functionalizedCrystal
_audit_creation_method	'MofGen! by Chris Wilmer'
_symmetry_space_group_name_H-M	'P1'
_symmetry_Int_Tables_number	1
_symmetry_cell_setting	triclinic
loop_
_symmetry_equiv_pos_as_xyz
  x,y,z
_cell_length_a	17.077404
_cell_length_b	18.050589
_cell_length_c	17.077396
_cell_angle_alpha	90.024642
_cell_angle_beta	90.019501
_cell_angle_gamma	90.028446
loop_
_atom_site_label
_atom_site_type_symbol
_atom_site_fract_x
_atom_site_fract_y
_atom_site_fract_z
Zn1	Zn	1.200026	-0.295655	0.443864
Zn2	Zn	1.700026	0.204345	0.943864
Zn3	Zn	1.199920	-0.419852	0.312606
Zn4	Zn	1.699920	0.080148	0.812606
Zn5	Zn	1.068757	-0.295681	0.312612
Zn6	Zn	1.568757	0.204319	0.812612
Zn7	Zn	1.068713	-0.419808	0.443830
Zn8	Zn	1.568713	0.080192	0.943830
O9	O	1.134354	-0.357749	0.378228
O10	O	1.634354	0.142251	0.878228
O11	O	1.309858	-0.312138	0.426464
O12	O	1.809858	0.187862	0.926464
O13	O	1.182496	-0.403410	0.202760
O14	O	1.682496	0.096590	0.702760
O15	O	1.086233	-0.191753	0.330039
O16	O	1.586233	0.308247	0.830039
O17	O	1.309781	-0.403385	0.330030
O18	O	1.809781	0.096615	0.830030
O19	O	1.182675	-0.191734	0.426469
O20	O	1.682675	0.308266	0.926469
O21	O	1.086131	-0.312182	0.202764
O22	O	1.586131	0.187818	0.702764
O23	O	0.958905	-0.312139	0.330006
O24	O	1.458905	0.187861	0.830006
O25	O	1.086157	-0.403310	0.553681
O26	O	1.586157	0.096690	1.053681
O27	O	0.958872	-0.403335	0.426412
O28	O	1.458872	0.096665	0.926412
O29	O	1.182632	-0.312095	0.553706
O30	O	1.682632	0.187905	1.053706
O31	O	1.182453	-0.523771	0.329997
O32	O	1.682453	-0.023771	0.829997
O33	O	1.086056	-0.523739	0.426407
O34	O	1.586056	-0.023739	0.926407
C35	C	0.930406	-0.357736	0.378206
C36	C	1.430406	0.142264	0.878206
C37	C	0.843156	-0.357748	0.378216
C38	C	1.343156	0.142252	0.878216
C39	C	1.134259	-0.550701	0.378215
C40	C	1.634259	-0.050701	0.878215
C41	C	1.134291	-0.633247	0.378236
C42	C	1.634291	-0.133247	0.878236
C43	C	0.802170	-0.405305	0.428333
C44	C	1.302170	0.094695	0.928333
C45	C	0.720189	-0.405307	0.428346
C46	C	1.220189	0.094693	0.928346
C47	C	0.679197	-0.357754	0.378236
C48	C	1.179197	0.142246	0.878236
C49	C	0.720189	-0.310192	0.328116
C50	C	1.220189	0.189808	0.828116
C51	C	0.802168	-0.310187	0.328108
C52	C	1.302168	0.189813	0.828108
C53	C	0.549319	-0.310206	0.328135
C54	C	1.049319	0.189794	0.828135
C55	C	0.467335	-0.310212	0.328142
C56	C	0.967335	0.189788	0.828142
C57	C	0.467340	-0.405326	0.428373
C58	C	0.967340	0.094674	0.928373
C59	C	0.549319	-0.405321	0.428365
C60	C	1.049319	0.094679	0.928365
C61	C	0.590306	-0.357760	0.378244
C62	C	1.090306	0.142240	0.878244
C63	C	1.081921	-0.832707	0.430645
C64	C	1.581921	-0.332707	0.930645
C65	C	1.062786	-0.882149	0.359016
C66	C	1.562786	-0.382149	0.859016
C67	C	1.134368	-0.784377	0.378246
C68	C	1.634368	-0.284377	0.878246
C69	C	1.153541	-0.882017	0.449883
C70	C	1.653541	-0.382017	0.949883
C71	C	1.134441	-0.930362	0.378262
C72	C	1.634441	-0.430362	0.878262
C73	C	1.115195	-0.832732	0.306579
C74	C	1.615195	-0.332732	0.806579
C75	C	1.205984	-0.832596	0.397495
C76	C	1.705984	-0.332596	0.897495
C77	C	1.186876	-0.882016	0.325816
C78	C	1.686876	-0.382016	0.825816
C79	C	1.134324	-0.700279	0.378238
C80	C	1.634324	-0.200279	0.878238
C81	C	1.134485	-1.014459	0.378262
C82	C	1.634485	-0.514459	0.878262
C83	C	1.339098	-0.357763	0.378250
C84	C	1.839098	0.142237	0.878250
C85	C	1.426348	-0.357769	0.378260
C86	C	1.926348	0.142231	0.878260
C87	C	1.134402	-0.357694	0.582972
C88	C	1.634402	0.142306	1.082972
C89	C	1.134422	-0.357671	0.670222
C90	C	1.634422	0.142329	1.170222
C91	C	1.134471	-0.164043	0.378258
C92	C	1.634471	0.335957	0.878258
C93	C	1.134520	-0.081498	0.378271
C94	C	1.634520	0.418502	0.878271
C95	C	1.134352	-0.357750	0.174280
C96	C	1.634352	0.142250	0.674280
C97	C	1.134484	-0.357564	0.087031
C98	C	1.634484	0.142436	0.587031
C99	C	1.184658	-0.310172	0.711226
C100	C	1.684658	0.189828	1.211226
C101	C	1.184667	-0.310147	0.793207
C102	C	1.684667	0.189853	1.293207
C103	C	1.134444	-0.357626	0.834182
C104	C	1.634444	0.142374	1.334182
C105	C	1.084202	-0.405128	0.793172
C106	C	1.584202	0.094872	1.293172
C107	C	1.084190	-0.405148	0.711193
C108	C	1.584190	0.094852	1.211193
C109	C	1.084234	-0.405083	0.964042
C110	C	1.584234	0.094917	1.464042
C111	C	1.084248	-0.405064	1.046026
C112	C	1.584248	0.094936	1.546026
C113	C	1.184712	-0.310082	1.046056
C114	C	1.684712	0.189918	1.546056
C115	C	1.184699	-0.310102	0.964077
C116	C	1.684699	0.189898	1.464077
C117	C	1.134458	-0.357605	0.923073
C118	C	1.634458	0.142395	1.423073
H119	H	0.835540	-0.444030	0.469136
H120	H	1.335540	0.055970	0.969136
H121	H	1.231259	-0.903530	0.281460
H122	H	1.731259	-0.403530	0.781460
C123	C	0.847253	-0.257872	0.272973
C124	C	1.347253	0.242128	0.772973
N125	N	0.881210	-0.218465	0.231444
N126	N	1.381210	0.281535	0.731444
C127	C	0.594409	-0.457635	0.483484
C128	C	1.094409	0.042365	0.983484
N129	N	0.628371	-0.497038	0.525002
N130	N	1.128371	0.002962	1.025002
C131	C	1.021916	-0.803449	0.490420
C132	C	1.521916	-0.303449	0.990420
N133	N	0.976719	-0.781409	0.535438
N134	N	1.476719	-0.281409	1.035438
C135	C	1.028927	-0.457402	0.666088
C136	C	1.528927	0.042598	1.166088
N137	N	0.987300	-0.496761	0.632117
N138	N	1.487300	0.003239	1.132117
C139	C	1.175412	-0.911264	0.531719
C140	C	1.675412	-0.411264	1.031719
N141	N	1.191879	-0.933290	0.593359
N142	N	1.691879	-0.433290	1.093359
H143	H	1.225600	-0.271445	0.930718
H144	H	1.725600	0.228555	1.430718
C145	C	1.287730	-0.803157	0.419523
C146	C	1.787730	-0.303157	0.919523
N147	N	1.349300	-0.780977	0.436126
N148	N	1.849300	-0.280977	0.936126
H149	H	1.225619	-0.271402	1.079446
H150	H	1.725619	0.228598	1.579446
C151	C	1.028995	-0.457288	1.091097
C152	C	1.528995	0.042712	1.591097
N153	N	0.987376	-0.496624	1.125044
N154	N	1.487376	0.003376	1.625044
H155	H	0.582688	-0.271470	0.287328
H156	H	1.082688	0.228530	0.787328
C157	C	0.981010	-0.911553	0.337024
C158	C	1.481010	-0.411553	0.837024
N159	N	0.919415	-0.933699	0.320465
N160	N	1.419415	-0.433699	0.820465
C161	C	0.422254	-0.457641	0.483511
C162	C	0.922254	0.042359	0.983511
N163	N	0.388291	-0.497044	0.525038
N164	N	0.888291	0.002956	1.025038
C165	C	0.422245	-0.257899	0.273021
C166	C	0.922245	0.242101	0.773021
N167	N	0.388283	-0.218496	0.231504
N168	N	0.888283	0.281504	0.731504
C169	C	0.675095	-0.257882	0.272996
C170	C	1.175095	0.242118	0.772996
N171	N	0.641130	-0.218482	0.231477
N172	N	1.141130	0.281518	0.731477
H173	H	1.225558	-0.271511	0.677871
H174	H	1.725558	0.228489	1.177871
C175	C	1.239933	-0.257895	0.838308
C176	C	1.739933	0.242105	1.338308
N177	N	1.281561	-0.218536	0.872278
N178	N	1.781561	0.281464	1.372278
H179	H	1.098937	-0.811172	0.245986
H180	H	1.598937	-0.311172	0.745986
C181	C	1.028948	-0.457348	0.838247
C182	C	1.528948	0.042652	1.338247
N183	N	0.987330	-0.496681	0.872197
N184	N	1.487330	0.003319	1.372197
H185	H	0.686822	-0.444033	0.469156
H186	H	1.186822	0.055967	0.969156
H187	H	1.043310	-0.443753	0.930658
H188	H	1.543310	0.056247	1.430658
