data_functionalizedCrystal
_audit_creation_method	'MofGen! by Chris Wilmer'
_symmetry_space_group_name_H-M	'P1'
_symmetry_Int_Tables_number	1
_symmetry_cell_setting	triclinic
loop_
_symmetry_equiv_pos_as_xyz
  x,y,z
_cell_length_a	25.639242
_cell_length_b	25.639240
_cell_length_c	18.101389
_cell_angle_alpha	90.022517
_cell_angle_beta	89.980048
_cell_angle_gamma	89.964534
loop_
_atom_site_label
_atom_site_type_symbol
_atom_site_fract_x
_atom_site_fract_y
_atom_site_fract_z
Zn1	Zn	0.799238	0.208313	-0.418731
Zn2	Zn	0.799146	0.295734	-0.294881
Zn3	Zn	0.711805	0.208303	-0.294902
Zn4	Zn	0.711752	0.295707	-0.418679
O5	O	0.755485	0.252014	-0.356798
O6	O	0.872391	0.219925	-0.402315
O7	O	0.787544	0.284144	-0.191251
O8	O	0.723464	0.135139	-0.311359
O9	O	0.872323	0.284153	-0.311323
O10	O	0.787700	0.135146	-0.402336
O11	O	0.723375	0.219908	-0.191266
O12	O	0.638633	0.219882	-0.311308
O13	O	0.723374	0.284107	-0.522319
O14	O	0.638594	0.284098	-0.402246
O15	O	0.787649	0.219899	-0.522357
O16	O	0.787492	0.368896	-0.311272
O17	O	0.723284	0.368876	-0.402226
C18	C	0.619643	0.251986	-0.356774
C19	C	0.561529	0.251987	-0.356781
C20	C	0.755387	0.387857	-0.356757
C21	C	0.755392	0.445971	-0.356765
C22	C	0.310378	0.218630	-0.404264
C23	C	0.364983	0.218625	-0.404260
O24	O	0.393256	0.190241	-0.444626
N25	N	0.392255	0.252008	-0.356807
C26	C	0.364920	0.285403	-0.309360
O27	O	0.393131	0.313798	-0.268997
C28	C	0.310316	0.285410	-0.309368
C29	C	0.283047	0.252021	-0.356819
C30	C	0.283109	0.185244	-0.451712
C31	C	0.228509	0.185249	-0.451715
C32	C	0.201177	0.218640	-0.404270
C33	C	0.228447	0.252026	-0.356822
C34	C	0.282982	0.318807	-0.261925
C35	C	0.228375	0.318812	-0.261938
C36	C	0.201106	0.285422	-0.309390
C37	C	0.146515	0.285421	-0.309381
N38	N	0.119243	0.252038	-0.356834
C39	C	0.146574	0.218647	-0.404279
C40	C	0.479590	0.285385	-0.309346
C41	C	0.534193	0.285376	-0.309333
C42	C	0.534252	0.218599	-0.404235
C43	C	0.479649	0.218606	-0.404244
C44	C	0.452318	0.252002	-0.356800
C45	C	0.031909	0.218659	-0.404281
C46	C	-0.022696	0.218665	-0.404278
C47	C	-0.022751	0.285444	-0.309379
C48	C	0.031850	0.285436	-0.309380
C49	C	0.059178	0.252042	-0.356837
O50	O	0.118207	0.313792	-0.269037
O51	O	0.118356	0.190262	-0.444642
C52	C	0.788962	0.806332	-0.309491
C53	C	0.788978	0.860936	-0.309498
O54	O	0.817451	0.889171	-0.269281
N55	N	0.755527	0.888254	-0.356815
C56	C	0.722062	0.860964	-0.404133
O57	O	0.693612	0.889213	-0.444380
C58	C	0.722049	0.806360	-0.404129
C59	C	0.755498	0.779046	-0.356804
C60	C	0.822409	0.779017	-0.262170
C61	C	0.822392	0.724417	-0.262162
C62	C	0.788928	0.697131	-0.309475
C63	C	0.755482	0.724445	-0.356796
C64	C	0.688587	0.779072	-0.451450
C65	C	0.688577	0.724465	-0.451442
C66	C	0.722027	0.697150	-0.404117
C67	C	0.722001	0.642559	-0.404101
N68	N	0.755452	0.615242	-0.356784
C69	C	0.788915	0.642527	-0.309471
C70	C	0.722093	0.975634	-0.404138
C71	C	0.722103	1.030237	-0.404139
C72	C	0.789019	1.030205	-0.309505
C73	C	0.789006	0.975602	-0.309501
C74	C	0.755543	0.948317	-0.356821
C75	C	0.788877	0.527862	-0.309458
C76	C	0.788856	0.473257	-0.309452
C77	C	0.721942	0.473293	-0.404088
C78	C	0.721961	0.527894	-0.404092
C79	C	0.755433	0.555177	-0.356774
O80	O	0.693545	0.614289	-0.444299
O81	O	0.817366	0.614271	-0.269237
C82	C	0.891858	0.252043	-0.356823
C83	C	0.949972	0.252055	-0.356833
C84	C	0.755515	0.252001	-0.549960
C85	C	0.755528	0.251996	-0.632274
C86	C	0.755579	1.115641	-0.356842
C87	C	0.755568	1.057527	-0.356829
C88	C	0.755559	0.251898	-0.931365
C89	C	0.714979	0.292167	-0.900016
C90	C	0.715089	0.292354	-0.814398
C91	C	0.755543	0.251946	-0.782983
C92	C	0.810626	0.266910	-0.814081
C93	C	0.810400	0.267174	-0.899726
C94	C	0.741534	0.196575	-0.899797
C95	C	0.740308	0.196894	-0.814146
C96	C	0.755538	0.251973	-0.699123
C97	C	0.755568	0.251872	-1.015225
C98	C	0.755485	0.251990	-0.164388
C99	C	0.755574	0.251848	-0.082074
H100	H	-0.044897	0.191473	-0.442918
C101	C	0.688214	0.178160	-0.928958
C102	C	0.684275	0.127499	-0.974335
C103	C	0.630953	0.109091	-1.003497
C104	C	0.581569	0.141343	-0.987282
C105	C	0.585506	0.192007	-0.941903
C106	C	0.638828	0.210415	-0.912741
H107	H	0.720834	0.103621	-0.986340
H108	H	0.628039	0.071586	-1.037090
H109	H	0.542097	0.127716	-1.008870
H110	H	0.548947	0.215885	-0.929897
H111	H	0.641742	0.247920	-0.879148
C112	C	0.826478	0.321802	-0.926722
C113	C	0.839433	0.364883	-0.870350
C114	C	0.855519	0.419510	-0.897342
C115	C	0.858650	0.431057	-0.980704
C116	C	0.845694	0.387975	-1.037080
C117	C	0.829609	0.333348	-1.010089
H118	H	0.837115	0.356337	-0.808636
H119	H	0.865109	0.451402	-0.855608
H120	H	0.870557	0.471495	-1.000685
H121	H	0.848012	0.396521	-1.098795
H122	H	0.820018	0.301456	-1.051823
C123	C	0.651765	0.694453	-0.503495
C124	C	0.674384	0.656875	-0.561665
C125	C	0.637570	0.626865	-0.613716
C126	C	0.578138	0.634432	-0.607596
C127	C	0.555516	0.672011	-0.549424
C128	C	0.592329	0.702021	-0.497373
H129	H	0.718382	0.651272	-0.566198
H130	H	0.654317	0.599046	-0.656779
H131	H	0.550886	0.612216	-0.646127
H132	H	0.511517	0.677614	-0.544891
H133	H	0.575582	0.729840	-0.454310
H134	H	0.849662	0.801228	-0.223642
C135	C	0.852636	0.229280	-0.927746
C136	C	0.837326	0.182548	-0.976589
C137	C	0.879565	0.144659	-1.004602
C138	C	0.937113	0.153501	-0.983772
C139	C	0.952425	0.200235	-0.934926
C140	C	0.910187	0.238125	-0.906912
H141	H	0.794723	0.176001	-0.992012
H142	H	0.868229	0.110063	-1.040762
H143	H	0.968380	0.125453	-1.004509
H144	H	0.995028	0.206783	-0.919503
H145	H	0.921522	0.272720	-0.870753
C146	C	0.852570	0.228533	-0.786596
C147	C	0.862616	0.222320	-0.703193
C148	C	0.904557	0.183940	-0.675709
C149	C	0.936452	0.151775	-0.731628
C150	C	0.926407	0.157987	-0.815036
C151	C	0.884466	0.196366	-0.842521
H152	H	0.839005	0.246131	-0.661794
H153	H	0.911993	0.179342	-0.613964
H154	H	0.967500	0.123364	-0.711282
H155	H	0.950018	0.134175	-0.856436
H156	H	0.877029	0.200965	-0.904266
H157	H	0.206126	0.346009	-0.223305
H158	H	0.054153	0.191466	-0.442925
C159	C	0.198513	0.148532	-0.503926
C160	C	0.160981	0.107450	-0.471971
C161	C	0.130988	0.070736	-0.524190
C162	C	0.138527	0.075104	-0.608363
C163	C	0.176061	0.116188	-0.640322
C164	C	0.206054	0.152902	-0.588104
H165	H	0.155399	0.104215	-0.409657
H166	H	0.103203	0.040323	-0.500531
H167	H	0.116325	0.047926	-0.647019
H168	H	0.181643	0.119423	-0.702636
H169	H	0.233839	0.183315	-0.611762
C170	C	0.685135	0.443270	-0.456132
C171	C	0.644094	0.405775	-0.423984
C172	C	0.607290	0.375749	-0.476032
C173	C	0.611528	0.383220	-0.560227
C174	C	0.652571	0.420718	-0.592379
C175	C	0.689375	0.450743	-0.540332
H176	H	0.640955	0.400243	-0.361653
H177	H	0.576907	0.347991	-0.452230
H178	H	0.584284	0.360994	-0.598756
H179	H	0.655710	0.426249	-0.654710
H180	H	0.719757	0.478501	-0.564133
H181	H	0.457450	0.191417	-0.442882
H182	H	0.305175	0.345996	-0.223285
C183	C	0.313166	0.148508	-0.503906
C184	C	0.305674	0.152858	-0.588083
C185	C	0.335725	0.116116	-0.640276
C186	C	0.373269	0.075024	-0.608292
C187	C	0.380762	0.070672	-0.524111
C188	C	0.350711	0.107414	-0.471917
H189	H	0.277881	0.183279	-0.611764
H190	H	0.330178	0.119338	-0.702593
H191	H	0.395515	0.047825	-0.646929
H192	H	0.408556	0.040251	-0.500430
H193	H	0.356258	0.104193	-0.409601
C194	C	0.825804	0.945558	-0.257448
C195	C	0.821575	0.953099	-0.173255
C196	C	0.858375	0.923059	-0.121201
C197	C	0.899405	0.885477	-0.153341
C198	C	0.903635	0.877935	-0.237538
C199	C	0.866835	0.907976	-0.289592
H200	H	0.791201	0.980920	-0.149459
H201	H	0.855243	0.928642	-0.058872
H202	H	0.926646	0.863240	-0.114807
H203	H	0.934009	0.850114	-0.261334
H204	H	0.869967	0.902392	-0.351921
H205	H	0.816269	1.052431	-0.270983
H206	H	0.694860	1.052472	-0.442669
C207	C	0.564185	0.322101	-0.257130
C208	C	0.556650	0.317748	-0.172955
C209	C	0.586640	0.354477	-0.120753
C210	C	0.624164	0.395559	-0.152728
C211	C	0.631700	0.399913	-0.236908
C212	C	0.601711	0.363184	-0.289109
H213	H	0.528871	0.287336	-0.149281
H214	H	0.581060	0.351254	-0.058437
H215	H	0.646364	0.422748	-0.114085
H216	H	0.659479	0.430325	-0.260581
H217	H	0.607290	0.366407	-0.351425
C218	C	0.564323	0.181874	-0.456436
C219	C	0.624385	0.181876	-0.456431
C220	C	0.654457	0.145156	-0.508630
C221	C	0.624468	0.108433	-0.560836
C222	C	0.564403	0.108430	-0.560844
C223	C	0.534331	0.145151	-0.508644
H224	H	0.646587	0.209061	-0.417783
H225	H	0.698921	0.145158	-0.508625
H226	H	0.646730	0.081251	-0.599477
H227	H	0.542201	0.081245	-0.599491
H228	H	0.489867	0.145148	-0.508650
C229	C	0.685274	0.945624	-0.456187
C230	C	0.625842	0.953191	-0.450058
C231	C	0.589025	0.923184	-0.502107
C232	C	0.611639	0.885609	-0.560284
C233	C	0.671074	0.878040	-0.566415
C234	C	0.707892	0.908047	-0.514367
H235	H	0.609099	0.981007	-0.406989
H236	H	0.545027	0.928787	-0.497567
H237	H	0.584385	0.863396	-0.598814
H238	H	0.687818	0.850224	-0.609484
H239	H	0.751890	0.902444	-0.518906
C240	C	0.449529	0.322117	-0.257144
C241	C	0.411982	0.363209	-0.289121
C242	C	0.381924	0.399941	-0.236920
C243	C	0.389413	0.395581	-0.152743
C244	C	0.426962	0.354487	-0.120763
C245	C	0.457020	0.317756	-0.172963
H246	H	0.406437	0.366438	-0.351437
H247	H	0.354128	0.430361	-0.260595
H248	H	0.367162	0.422772	-0.114102
H249	H	0.432507	0.351258	-0.058446
H250	H	0.484816	0.287335	-0.149289
C251	C	0.685547	0.181646	-0.786688
C252	C	0.654792	0.218990	-0.736207
C253	C	0.600031	0.203743	-0.708746
C254	C	0.576024	0.151152	-0.731765
C255	C	0.606779	0.113805	-0.782249
C256	C	0.661541	0.129051	-0.809710
H257	H	0.672563	0.257923	-0.719165
H258	H	0.577264	0.231390	-0.671375
H259	H	0.535487	0.139865	-0.711437
H260	H	0.589009	0.074871	-0.799292
H261	H	0.684308	0.101404	-0.847082
C262	C	0.659907	0.279701	-0.785994
C263	C	0.634010	0.227469	-0.806382
C264	C	0.578824	0.214818	-0.777987
C265	C	0.549536	0.254399	-0.729204
C266	C	0.575433	0.306634	-0.708814
C267	C	0.630619	0.319285	-0.737208
H268	H	0.655691	0.198166	-0.842496
H269	H	0.559653	0.176150	-0.793081
H270	H	0.508684	0.245033	-0.708184
H271	H	0.553752	0.335937	-0.672699
H272	H	0.649789	0.357954	-0.722114
H273	H	0.674010	0.282899	-0.920607
C274	C	0.727363	0.347228	-0.929081
C275	C	0.739897	0.391536	-0.874455
C276	C	0.752284	0.446597	-0.903520
C277	C	0.752138	0.457349	-0.987212
C278	C	0.739603	0.413040	-1.041844
C279	C	0.727216	0.357979	-1.012779
H280	H	0.740006	0.383578	-0.812496
H281	H	0.761563	0.479397	-0.863077
H282	H	0.761307	0.498108	-1.008727
H283	H	0.739494	0.420998	-1.103802
H284	H	0.717937	0.325179	-1.053221
H285	H	0.054053	0.312619	-0.270734
C286	C	0.727721	0.347741	-0.786788
C287	C	0.776148	0.357163	-0.738298
C288	C	0.788830	0.412551	-0.710726
C289	C	0.753086	0.458515	-0.731644
C290	C	0.704656	0.449094	-0.780136
C291	C	0.691974	0.393707	-0.807709
H292	H	0.802611	0.323136	-0.722811
H293	H	0.824681	0.419524	-0.674828
H294	H	0.762474	0.499516	-0.711233
H295	H	0.678193	0.483121	-0.795623
H296	H	0.656122	0.386733	-0.843606
H297	H	0.822723	0.306922	-0.792633
H298	H	0.767709	0.165298	-0.792762
H299	H	0.771090	0.166572	-0.920073
H300	H	0.694725	0.550134	-0.442630
H301	H	-0.045014	0.312627	-0.270748
C302	C	0.825653	0.443212	-0.257392
C303	C	0.803013	0.405717	-0.199210
C304	C	0.839810	0.375675	-0.147153
C305	C	0.899247	0.383128	-0.153278
C306	C	0.921890	0.420624	-0.211463
C307	C	0.885093	0.450667	-0.263520
H308	H	0.759012	0.400199	-0.194673
H309	H	0.823047	0.347918	-0.104081
H310	H	0.926486	0.360889	-0.114743
H311	H	0.965891	0.426143	-0.216000
H312	H	0.901856	0.478424	-0.306593
H313	H	0.816135	0.550070	-0.270929
C314	C	0.859193	0.694378	-0.210109
C315	C	0.854968	0.701925	-0.125916
C316	C	0.891774	0.671891	-0.073862
C317	C	0.932804	0.634310	-0.106000
C318	C	0.937030	0.626761	-0.190197
C319	C	0.900225	0.656795	-0.242251
H320	H	0.824594	0.729746	-0.102122
H321	H	0.888645	0.677480	-0.011534
H322	H	0.960049	0.612077	-0.067466
H323	H	0.967404	0.598940	-0.213992
H324	H	0.903353	0.651206	-0.304580
H325	H	0.661347	0.801302	-0.489984
