data_functionalizedCrystal
_audit_creation_method	'MofGen! by Chris Wilmer'
_symmetry_space_group_name_H-M	'P1'
_symmetry_Int_Tables_number	1
_symmetry_cell_setting	triclinic
loop_
_symmetry_equiv_pos_as_xyz
  x,y,z
_cell_length_a	14.971486
_cell_length_b	10.654550
_cell_length_c	13.448316
_cell_angle_alpha	89.998983
_cell_angle_beta	89.996447
_cell_angle_gamma	84.049516
loop_
_atom_site_label
_atom_site_type_symbol
_atom_site_fract_x
_atom_site_fract_y
_atom_site_fract_z
O1	O	1.187841	0.163651	-0.082575
O2	O	0.927547	0.183249	-0.082602
O3	O	1.063679	-0.009353	-0.082584
O4	O	1.051709	0.356253	-0.082593
O5	O	1.063656	-0.009348	0.082800
O6	O	0.927524	0.183254	0.082782
O7	O	1.187818	0.163656	0.082809
Cu8	Cu	1.057669	0.173455	0.097896
Cu9	Cu	1.057696	0.173450	-0.097689
O10	O	1.051686	0.356258	0.082791
C11	C	0.894206	0.182375	0.000087
C12	C	0.794895	0.179749	0.000077
C13	C	1.062788	-0.056139	0.000107
C14	C	1.060159	-0.195555	0.000103
C15	C	0.738285	0.292898	0.000075
C16	C	0.644972	0.290422	0.000090
C17	C	0.608271	0.174797	0.000099
C18	C	0.664888	0.061639	0.000104
C19	C	0.758199	0.064116	0.000096
C20	C	0.470397	0.056485	0.000117
C21	C	0.377080	0.054007	0.000123
C22	C	0.357171	0.282791	0.000112
C23	C	0.450482	0.285268	0.000104
C24	C	0.507092	0.172110	0.000106
C25	C	1.140311	-0.275900	0.000114
C26	C	1.137835	-0.406894	0.000107
C27	C	0.975048	-0.377185	0.000081
C28	C	0.977525	-0.246193	0.000082
C29	C	1.234295	-0.293054	0.000133
C30	C	1.231819	-0.424048	0.000126
C31	C	1.221159	0.164530	0.000118
C32	C	1.320470	0.167156	0.000122
C33	C	1.052577	0.403044	0.000098
C34	C	1.055206	0.542460	0.000096
N35	N	1.057656	0.173459	0.235461
N36	N	1.057716	0.173436	-0.235253
C37	C	1.118004	0.088187	0.712687
C38	C	1.117996	0.088195	0.608584
C39	C	1.057696	0.173448	0.556542
C40	C	0.997405	0.258707	0.608609
C41	C	0.997418	0.258703	0.712710
C42	C	0.997382	0.258706	0.391629
C43	C	0.997368	0.258708	0.287520
C44	C	1.117961	0.088198	0.287502
C45	C	1.117973	0.088194	0.391604
C46	C	1.057681	0.173452	0.443663
H47	H	0.768160	0.387053	0.000067
F48	F	1.268956	-0.484115	-0.093203
F49	F	0.892216	-0.160687	0.000048
H50	H	0.598884	0.382560	0.000088
H51	H	1.167070	0.018769	0.433976
H52	H	1.167104	0.018759	0.755052
H53	H	0.480361	0.379420	0.000087
F54	F	0.296921	0.403223	0.000111
F55	F	0.338021	-0.069054	0.000158
H56	H	0.516488	-0.035661	0.000121
F57	F	0.625825	-0.061419	0.000120
H58	H	1.167053	0.018779	0.245109
H59	H	1.167088	0.018779	0.566197
F60	F	0.933253	0.349442	0.768115
F61	F	1.273387	-0.246895	0.093479
H62	H	1.267221	-0.466186	0.069341
F63	F	0.933232	0.349447	0.553222
F64	F	0.933214	0.349452	0.447030
H65	H	0.804290	-0.028022	0.000096
H66	H	1.271065	-0.264092	-0.069071
F67	F	0.887108	-0.431089	0.000056
H68	H	0.948266	0.328132	0.245153
