data_functionalizedCrystal
_audit_creation_method	'MofGen! by Chris Wilmer'
_symmetry_space_group_name_H-M	'P1'
_symmetry_Int_Tables_number	1
_symmetry_cell_setting	triclinic
loop_
_symmetry_equiv_pos_as_xyz
  x,y,z
_cell_length_a	12.759395
_cell_length_b	12.759400
_cell_length_c	12.759386
_cell_angle_alpha	90.062396
_cell_angle_beta	90.042059
_cell_angle_gamma	90.012161
loop_
_atom_site_label
_atom_site_type_symbol
_atom_site_fract_x
_atom_site_fract_y
_atom_site_fract_z
Zn1	Zn	-1.606491	0.417955	-0.594009
Zn2	Zn	-1.606316	0.593769	-0.418329
Zn3	Zn	-1.430723	0.418097	-0.418345
Zn4	Zn	-1.430781	0.593585	-0.593968
O5	O	-1.518578	0.505851	-0.506163
O6	O	-1.753488	0.441295	-0.570715
O7	O	-1.582925	0.570601	-0.271310
O8	O	-1.454088	0.271057	-0.441672
O9	O	-1.753360	0.570464	-0.441644
O10	O	-1.583224	0.270953	-0.570731
O11	O	-1.453918	0.441536	-0.271322
O12	O	-1.283710	0.441358	-0.441632
O13	O	-1.454187	0.570151	-0.740995
O14	O	-1.283752	0.570289	-0.570661
O15	O	-1.583280	0.441117	-0.741025
O16	O	-1.582982	0.740765	-0.441604
O17	O	-1.454017	0.740631	-0.570645
C18	C	-1.245610	0.505819	-0.506144
C19	C	-1.128833	0.505831	-0.506161
C20	C	-1.128948	0.371544	-0.640780
C21	C	-1.074145	0.304411	-0.708097
C22	C	-0.964423	0.304425	-0.708108
C23	C	-0.909502	0.371577	-0.640792
C24	C	-0.964306	0.438710	-0.573475
C25	C	-1.074030	0.438691	-0.573474
C26	C	-0.964191	0.572990	-0.438852
C27	C	-1.073913	0.572983	-0.438845
C28	C	-0.909271	0.640142	-0.371537
C29	C	-0.964074	0.707282	-0.304223
C30	C	-1.073802	0.707266	-0.304216
C31	C	-1.128716	0.640116	-0.371528
C32	C	-1.518515	0.778819	-0.506141
C33	C	-1.518585	0.895595	-0.506167
C34	C	-1.518759	0.505598	-0.780197
C35	C	-1.518837	0.505490	-0.896973
C36	C	-0.792611	0.505874	-0.506177
C37	C	-0.909388	0.505857	-0.506169
C38	C	-1.518669	0.231818	-0.506208
C39	C	-1.518708	0.115041	-0.506227
C40	C	-1.585811	0.950493	-0.439049
C41	C	-1.585876	1.060217	-0.439082
C42	C	-1.451478	1.060136	-0.573352
C43	C	-1.451420	0.950414	-0.573324
C44	C	-1.652976	0.895674	-0.371892
C45	C	-1.720207	0.950571	-0.304768
C46	C	-1.720271	1.060295	-0.304801
C47	C	-1.653105	1.115122	-0.371957
C48	C	-1.518457	0.506028	-0.233195
C49	C	-1.518583	0.505840	-0.116419
C50	C	-1.450991	0.439049	-0.061613
C51	C	-1.451120	0.438871	0.048111
C52	C	-1.586437	0.572284	0.048213
C53	C	-1.586312	0.572456	-0.061509
C54	C	-1.383262	0.372433	-0.116522
C55	C	-1.315663	0.305637	-0.061716
C56	C	-1.315792	0.305459	0.048008
C57	C	-1.383520	0.372076	0.102925
H58	H	-0.819929	0.640146	-0.371547
C59	C	-1.241437	0.231979	0.108291
N60	N	-1.185425	0.176636	0.153695
C61	C	-1.241171	0.232357	-0.122127
N62	N	-1.185062	0.177161	-0.167627
C63	C	-1.377452	0.890024	-0.647141
N64	N	-1.321734	0.844538	-0.702739
C65	C	-0.904138	0.230576	-0.782159
N66	N	-0.858731	0.174955	-0.837936
C67	C	-1.383661	0.371873	0.223625
N68	N	-1.383762	0.371723	0.314535
H69	H	-1.383148	0.372572	-0.205865
H70	H	-1.653171	1.204467	-0.371986
H71	H	-0.820161	0.371574	-0.640798
C72	C	-1.660665	0.645933	-0.121799
N73	N	-1.716670	0.701277	-0.167210
H74	H	-1.118873	0.249735	-0.762902
H75	H	-1.652928	0.806331	-0.371855
C76	C	-1.660924	0.645567	0.108626
N77	N	-1.717025	0.700768	0.154129
H78	H	-0.919349	0.761948	-0.249416
H79	H	-1.118417	0.761931	-0.249395
C80	C	-1.249413	0.640090	-0.371525
N81	N	-1.340323	0.640063	-0.371522
H82	H	-1.775021	1.104990	-0.250153
C83	C	-1.794088	0.890260	-0.230904
N84	N	-1.849737	0.844835	-0.175266
H85	H	-1.396794	1.104785	-0.628026
H86	H	-1.218289	0.371521	-0.640773
