data_functionalizedCrystal
_audit_creation_method	'MofGen! by Chris Wilmer'
_symmetry_space_group_name_H-M	'P1'
_symmetry_Int_Tables_number	1
_symmetry_cell_setting	triclinic
loop_
_symmetry_equiv_pos_as_xyz
  x,y,z
_cell_length_a	14.560438
_cell_length_b	14.560432
_cell_length_c	14.560438
_cell_angle_alpha	90.000207
_cell_angle_beta	59.995857
_cell_angle_gamma	60.002653
loop_
_atom_site_label
_atom_site_type_symbol
_atom_site_fract_x
_atom_site_fract_y
_atom_site_fract_z
Zr1	Zr	1.005339	0.884756	-0.120592
O2	O	1.196946	0.738112	-0.267253
O3	O	0.813731	0.929710	-0.075625
O4	O	1.005343	0.929711	-0.267241
O5	O	1.005332	0.738111	0.075504
O6	O	1.005347	1.080848	-0.267242
O7	O	1.005334	0.738111	-0.075636
O8	O	0.662588	1.080846	0.075526
O9	O	1.348090	0.738113	-0.267263
O10	O	0.892545	1.061675	-0.056457
O11	O	0.892540	0.948883	0.056338
O12	O	1.118138	0.948884	-0.169266
O13	O	1.118133	0.836092	-0.056471
Zr14	Zr	1.005341	1.125804	0.120459
Zr15	Zr	1.005345	1.125803	-0.120593
Zr16	Zr	1.005335	0.884757	0.120460
Zr17	Zr	1.246396	0.884758	-0.120608
Zr18	Zr	0.764284	1.125802	0.120475
O19	O	1.196949	1.080850	0.075491
O20	O	1.196955	1.080850	-0.267254
O21	O	1.196940	0.738112	0.075492
O22	O	0.813734	1.272448	0.267120
O23	O	0.813740	1.272448	-0.075625
O24	O	0.813725	0.929710	0.267121
O25	O	1.005348	1.272449	-0.075638
O26	O	1.005337	1.080849	0.267108
O27	O	1.005333	0.929712	0.267108
O28	O	1.005345	1.272449	0.075503
O29	O	1.348095	0.929713	-0.267263
O30	O	0.662585	1.080847	0.267130
O31	O	0.662590	1.272447	0.267130
O32	O	0.662593	1.272447	0.075525
O33	O	1.348086	0.738113	-0.075659
O34	O	1.348091	0.929714	-0.075659
O35	O	0.892541	1.061676	0.169133
O36	O	0.892546	1.174468	0.056338
O37	O	1.118139	1.061677	-0.056471
O38	O	1.118134	0.948885	0.056324
C39	C	0.703814	1.005278	-0.000047
C40	C	0.601479	1.005277	-0.000041
C41	C	0.636693	0.922012	-0.083323
C42	C	0.540553	0.922017	-0.083352
C43	C	0.373987	1.088557	0.083194
C44	C	0.470126	1.088555	0.083217
C45	C	1.005332	0.703767	-0.000066
C46	C	1.005329	0.601436	-0.000066
C47	C	0.769808	0.719174	0.117697
C48	C	0.652051	0.729965	0.176573
C49	C	0.652057	0.633813	0.176570
C50	C	0.769832	0.526860	0.117687
C51	C	0.887588	0.516068	0.058812
C52	C	0.887570	0.612229	0.058818
C53	C	1.123107	0.398332	-0.058943
C54	C	1.123104	0.494483	-0.058948
C55	C	1.240882	0.291379	-0.117826
C56	C	1.358641	0.280586	-0.176710
C57	C	1.358631	0.376747	-0.176705
C58	C	1.240861	0.483691	-0.117824
C59	C	1.306865	1.005282	-0.000086
C60	C	1.409200	1.005283	-0.000093
C61	C	1.005345	1.005280	-0.301586
C62	C	1.005347	1.005279	-0.403919
C63	C	1.005348	1.306793	-0.000067
C64	C	1.005350	1.409124	-0.000067
C65	C	1.005350	1.088542	-0.451995
C66	C	1.005338	1.088546	-0.548141
C67	C	1.005325	0.922013	-0.548129
C68	C	1.005328	0.922016	-0.451980
C69	C	1.005334	1.005280	0.301453
C70	C	1.005333	1.005281	0.403786
C71	C	0.703822	1.306791	-0.000048
C72	C	0.601490	1.409121	-0.000041
C73	C	0.703809	1.005278	0.301472
C74	C	0.601472	1.005278	0.403812
C75	C	0.703817	1.306791	0.301472
C76	C	0.601483	1.409122	0.403811
C77	C	1.306863	0.703769	-0.301605
C78	C	1.409197	0.601439	-0.403944
C79	C	1.306858	0.703769	-0.000085
C80	C	1.409190	0.601439	-0.000092
C81	C	1.306871	1.005282	-0.301606
C82	C	1.409207	1.005282	-0.403945
C83	C	0.553411	1.398322	-0.058913
C84	C	0.457267	1.494476	-0.058911
C85	C	0.457285	1.612224	0.058844
C86	C	0.553434	1.516071	0.058834
C87	C	0.553393	1.064153	0.510769
C88	C	0.457245	1.064139	0.606924
C89	C	0.457262	0.946374	0.489151
C90	C	0.553414	0.946382	0.392999
C91	C	0.553406	1.516073	0.393016
C92	C	0.457261	1.612219	0.489178
C93	C	0.457273	1.494449	0.606929
C94	C	0.553423	1.398305	0.510767
H95	H	0.569236	0.854215	-0.151170
Cl96	Cl	1.005339	1.193225	-0.608575
H97	H	1.005313	0.854221	-0.587272
Cl98	Cl	0.801818	0.817324	-0.187994
H99	H	0.769826	0.448573	0.117702
Cl100	Cl	1.005315	0.817339	-0.391531
Cl101	Cl	0.613869	0.872354	0.258528
H102	H	0.418121	1.699301	0.480381
H103	H	0.267031	1.156358	0.150981
H104	H	0.441443	1.156366	0.151038
Cl105	Cl	0.396830	1.480893	-0.132928
Cl106	Cl	0.613828	1.263874	-0.132936
Cl107	Cl	1.240889	0.170501	-0.117820
Cl108	Cl	0.396835	0.872342	0.475568
H109	H	0.418144	1.699313	0.106780
Cl110	Cl	0.613809	1.138190	0.524366
Cl111	Cl	0.613887	1.529648	0.132845
Cl112	Cl	0.396846	1.480862	0.741390
H113	H	0.556169	0.642605	0.224516
Cl114	Cl	0.613829	1.529673	0.258560
H115	H	0.592571	1.311214	0.519566
H116	H	0.769792	0.797472	0.117696
Cl117	Cl	0.503999	0.864420	0.250615
Cl118	Cl	0.396810	1.138154	0.741384
H119	H	1.454523	0.367947	-0.224635
Cl120	Cl	1.240838	0.604578	-0.117818
Cl121	Cl	1.005367	1.193220	-0.391576
Cl122	Cl	1.506684	0.146136	-0.250716
