data_functionalizedCrystal
_audit_creation_method	'MofGen! by Chris Wilmer'
_symmetry_space_group_name_H-M	'P1'
_symmetry_Int_Tables_number	1
_symmetry_cell_setting	triclinic
loop_
_symmetry_equiv_pos_as_xyz
  x,y,z
_cell_length_a	12.645330
_cell_length_b	19.805407
_cell_length_c	19.805399
_cell_angle_alpha	89.978936
_cell_angle_beta	90.021721
_cell_angle_gamma	89.983323
loop_
_atom_site_label
_atom_site_type_symbol
_atom_site_fract_x
_atom_site_fract_y
_atom_site_fract_z
Zn1	Zn	-0.422093	-1.034777	0.382774
Zn2	Zn	-0.599371	-1.034709	0.269597
Zn3	Zn	-0.422119	-0.921591	0.269596
Zn4	Zn	-0.599311	-0.921572	0.382741
O5	O	-0.510723	-0.978162	0.326177
O6	O	-0.445623	-1.129484	0.367775
O7	O	-0.575894	-1.019683	0.174881
O8	O	-0.273768	-0.936642	0.284622
O9	O	-0.575868	-1.129434	0.284625
O10	O	-0.273749	-1.019799	0.367774
O11	O	-0.445667	-0.936576	0.174879
O12	O	-0.445610	-0.826872	0.284590
O13	O	-0.575767	-0.936609	0.477462
O14	O	-0.575792	-0.826858	0.367718
O15	O	-0.445565	-1.019780	0.477486
O16	O	-0.747710	-1.019664	0.284593
O17	O	-0.747666	-0.936543	0.367719
C18	C	-0.510698	-0.802306	0.326151
C19	C	-0.510713	-0.727074	0.326155
C20	C	-0.578600	-0.691740	0.369369
C21	C	-0.578600	-0.621052	0.369377
C22	C	-0.510717	-0.585699	0.326167
C23	C	-0.442823	-0.621037	0.282952
C24	C	-0.442818	-0.691725	0.282948
C25	C	-0.442838	-0.335964	0.282966
C26	C	-0.442850	-0.265272	0.282972
C27	C	-0.578620	-0.265292	0.369395
C28	C	-0.578616	-0.335979	0.369392
C29	C	-0.510717	-0.371311	0.326179
C30	C	-0.510717	-0.447960	0.326172
C31	C	-0.510722	-0.509051	0.326170
C32	C	-0.786153	-0.978113	0.326168
C33	C	-0.903983	-0.978154	0.326186
C34	C	-1.071564	-0.926078	0.378642
C35	C	-0.949004	-0.925811	0.378474
C36	C	-0.948571	-0.958847	0.254853
C37	C	-1.071169	-0.958530	0.255172
C38	C	-1.071076	-1.049854	0.344485
C39	C	-0.948469	-1.049415	0.346044
C40	C	-0.234218	-0.978230	0.326201
C41	C	-0.116388	-0.978259	0.326212
C42	C	-0.510657	-0.978200	0.502720
C43	C	-0.510628	-0.978216	0.577952
C44	C	-0.510742	-0.154705	0.326198
C45	C	-0.510733	-0.229937	0.326190
C46	C	-0.510713	-0.978163	0.150321
C47	C	-0.510443	-0.978278	0.075090
C48	C	-0.442829	-1.021524	0.613310
C49	C	-0.442798	-1.021531	0.683998
C50	C	-0.510573	-0.978233	0.719328
C51	C	-0.578375	-0.934920	0.683965
C52	C	-0.578400	-0.934910	0.613278
C53	C	-0.578276	-0.934958	0.969038
C54	C	-0.578249	-0.934973	1.039730
C55	C	-0.442674	-1.021579	1.039759
C56	C	-0.442699	-1.021570	0.969072
C57	C	-0.510497	-0.978255	0.933715
C58	C	-0.510528	-0.978247	0.857067
C59	C	-0.510548	-0.978244	0.795975
H60	H	-0.633902	-0.236515	0.404584
H61	H	-0.633598	-0.899638	0.584490
H62	H	-1.100824	-0.994887	0.214775
C63	C	-0.368172	-0.374821	0.235423
H64	H	-0.327759	-0.343640	0.209683
H65	H	-0.322026	-0.402418	0.261354
H66	H	-0.408677	-0.402373	0.205886
H67	H	-0.387591	-1.056799	0.712784
C68	C	-0.653283	-0.374864	0.416924
H69	H	-0.693708	-0.343696	0.442667
H70	H	-0.699418	-0.402423	0.390984
H71	H	-0.612777	-0.402455	0.446459
H72	H	-1.100062	-1.088731	0.306297
C73	C	-0.909178	-1.008555	0.200632
H74	H	-0.937077	-0.995950	0.157901
H75	H	-0.834124	-1.007475	0.198946
H76	H	-0.932049	-1.052909	0.211594
C77	C	-0.368157	-0.582151	0.235420
H78	H	-0.377889	-0.534991	0.241605
H79	H	-0.296947	-0.593748	0.245398
H80	H	-0.383587	-0.593716	0.189924
C81	C	-0.368148	-1.069195	0.930210
H82	H	-0.377879	-1.062990	0.883047
H83	H	-0.296915	-1.059308	0.941799
H84	H	-0.383670	-1.114673	0.941802
H85	H	-0.387565	-0.236489	0.247786
H86	H	-0.387642	-1.056785	0.584550
C87	C	-0.907234	-0.888879	0.233566
H88	H	-0.862816	-0.871339	0.268049
H89	H	-0.868104	-0.892921	0.192834
H90	H	-0.965290	-0.859204	0.226698
C91	C	-0.368090	-1.069221	1.078653
H92	H	-0.377770	-1.063024	1.125812
H93	H	-0.383619	-1.114692	1.067077
H94	H	-0.296861	-1.059330	1.067071
C95	C	-0.652797	-0.887338	1.078592
H96	H	-0.693171	-0.861534	1.047411
H97	H	-0.698984	-0.913219	1.106168
H98	H	-0.612216	-0.857863	1.106164
C99	C	-1.112740	-1.073647	0.413560
H100	H	-1.158164	-1.040134	0.431904
H101	H	-1.150868	-1.114601	0.408084
H102	H	-1.054887	-1.080867	0.443316
C103	C	-0.652829	-0.887300	0.930155
H104	H	-0.693187	-0.861516	0.961322
H105	H	-0.612259	-0.857819	0.902587
H106	H	-0.699048	-0.913162	0.902572
C107	C	-0.368141	-0.730592	0.235414
H108	H	-0.327718	-0.699414	0.209677
H109	H	-0.322005	-0.758184	0.261357
H110	H	-0.408632	-0.758149	0.205874
C111	C	-0.652927	-0.887294	0.722825
H112	H	-0.643211	-0.893507	0.769988
H113	H	-0.637412	-0.841818	0.711234
H114	H	-0.724163	-0.897186	0.711234
H115	H	-0.633882	-0.592286	0.404565
C116	C	-1.111432	-0.942179	0.450316
H117	H	-1.155763	-0.980873	0.448911
H118	H	-1.052812	-0.950787	0.479069
H119	H	-1.150381	-0.904791	0.467178
H120	H	-0.633882	-0.720520	0.404553
H121	H	-0.918855	-0.937890	0.431366
C122	C	-1.113301	-0.854822	0.362506
H123	H	-1.085847	-0.823607	0.394424
H124	H	-1.091473	-0.842126	0.318405
H125	H	-1.188345	-0.854771	0.364747
C126	C	-0.909499	-0.854113	0.362110
H127	H	-0.968379	-0.825036	0.355534
H128	H	-0.867776	-0.837847	0.398528
H129	H	-0.867984	-0.855220	0.322158
C130	C	-1.109931	-0.887828	0.234268
H131	H	-1.050751	-0.859570	0.225665
H132	H	-1.151803	-0.891298	0.194590
H133	H	-1.151137	-0.868991	0.269665
C134	C	-0.909084	-1.069093	0.416957
H135	H	-0.865705	-1.034033	0.434393
H136	H	-0.967965	-1.075704	0.445985
H137	H	-0.869257	-1.109679	0.414237
H138	H	-0.917817	-1.090340	0.310638
