data_functionalizedCrystal
_audit_creation_method	'MofGen! by Chris Wilmer'
_symmetry_space_group_name_H-M	'P1'
_symmetry_Int_Tables_number	1
_symmetry_cell_setting	triclinic
loop_
_symmetry_equiv_pos_as_xyz
  x,y,z
_cell_length_a	16.992694
_cell_length_b	10.654550
_cell_length_c	9.130313
_cell_angle_alpha	89.997153
_cell_angle_beta	90.001860
_cell_angle_gamma	87.576577
loop_
_atom_site_label
_atom_site_type_symbol
_atom_site_fract_x
_atom_site_fract_y
_atom_site_fract_z
O1	O	-1.041840	-0.266428	0.121615
O2	O	-0.813538	-0.263505	0.121658
O3	O	-0.932938	-0.082681	0.121627
O4	O	-0.922440	-0.447253	0.121647
O5	O	-0.932929	-0.082681	-0.121972
O6	O	-0.813529	-0.263505	-0.121940
O7	O	-1.041830	-0.266428	-0.121984
Cu8	Cu	-0.927679	-0.264966	-0.144204
Cu9	Cu	-0.927690	-0.264967	0.143879
O10	O	-0.922431	-0.447252	-0.121952
C11	C	-0.784301	-0.259745	-0.000136
C12	C	-0.697196	-0.248526	-0.000119
C13	C	-0.932163	-0.035816	-0.000172
C14	C	-0.929856	0.103826	-0.000169
C15	C	-1.071068	-0.270188	-0.000186
C16	C	-1.158173	-0.281408	-0.000193
C17	C	-0.647544	-0.356776	-0.000114
C18	C	-0.565700	-0.346227	-0.000135
C19	C	-0.533509	-0.227426	-0.000150
C20	C	-0.583167	-0.119167	-0.000160
C21	C	-0.665010	-0.129718	-0.000149
C22	C	-0.289674	-0.183699	-0.000192
C23	C	-0.207825	-0.173157	-0.000198
C24	C	-0.190363	-0.400218	-0.000176
C25	C	-0.272208	-0.410758	-0.000157
C26	C	-0.321859	-0.302499	-0.000174
N27	N	-0.449852	-0.216640	-0.000167
N28	N	-0.405515	-0.313286	-0.000168
C29	C	-0.923206	-0.494117	-0.000150
C30	C	-0.925512	-0.633759	-0.000143
N31	N	-0.927677	-0.264965	-0.346827
C32	C	-1.000157	0.177237	-0.000182
C33	C	-0.997985	0.308445	-0.000164
C34	C	-0.855206	0.292820	-0.000126
C35	C	-0.857379	0.161614	-0.000134
C36	C	-0.975671	-0.345995	-0.423479
C37	C	-0.975683	-0.345989	-0.576815
C38	C	-0.879702	-0.183920	-0.576836
C39	C	-0.879694	-0.183921	-0.423502
N40	N	-0.927698	-0.264959	0.346502
H41	H	-0.673747	-0.453517	-0.000101
F42	F	-0.342506	-0.068479	-0.000210
F43	F	-0.306461	-0.537202	-0.000133
H44	H	-0.796197	0.339888	-0.000100
H45	H	-1.014766	-0.411970	-0.639218
H46	H	-0.149929	-0.488356	-0.000165
H47	H	-0.840635	-0.117938	-0.639283
F48	F	-1.077294	0.115738	-0.000218
F49	F	-0.173568	-0.046707	-0.000240
H50	H	-0.705436	-0.041568	-0.000152
H51	H	-0.800128	0.101841	-0.000119
F52	F	-0.828609	-0.097675	-0.341919
F53	F	-0.548906	0.007271	-0.000185
F54	F	-1.072809	0.386569	-0.000174
F55	F	-1.026743	-0.432243	-0.341881
H56	H	-0.525276	-0.434377	-0.000129
