data_functionalizedCrystal
_audit_creation_method	'MofGen! by Chris Wilmer'
_symmetry_space_group_name_H-M	'P1'
_symmetry_Int_Tables_number	1
_symmetry_cell_setting	triclinic
loop_
_symmetry_equiv_pos_as_xyz
  x,y,z
_cell_length_a	15.995292
_cell_length_b	17.019294
_cell_length_c	14.472310
_cell_angle_alpha	86.119952
_cell_angle_beta	89.985801
_cell_angle_gamma	83.431263
loop_
_atom_site_label
_atom_site_type_symbol
_atom_site_fract_x
_atom_site_fract_y
_atom_site_fract_z
O1	O	1.110907	0.101455	-0.084937
O2	O	1.610907	0.601455	0.415063
O3	O	0.867110	0.114059	-0.085936
O4	O	1.367110	0.614059	0.414064
O5	O	0.995808	-0.007076	-0.076295
O6	O	1.495808	0.492924	0.423705
O7	O	0.982209	0.222591	-0.094578
O8	O	1.482209	0.722591	0.405422
O9	O	0.995775	-0.007069	0.077386
O10	O	1.495775	0.492931	0.577386
O11	O	0.867077	0.114066	0.067745
O12	O	1.367077	0.614066	0.567745
O13	O	1.110874	0.101463	0.068744
O14	O	1.610874	0.601463	0.568744
Cu15	Cu	0.988972	0.107765	0.082277
Cu16	Cu	1.488972	0.607765	0.582277
Cu17	Cu	0.989011	0.107757	-0.099469
Cu18	Cu	1.489011	0.607757	0.400531
O19	O	0.982176	0.222598	0.059103
O20	O	1.482176	0.722598	0.559103
C21	C	0.835899	0.113550	-0.009054
C22	C	1.335899	0.613550	0.490946
C23	C	0.742947	0.112012	-0.008930
C24	C	1.242947	0.612012	0.491070
C25	C	0.405216	0.106358	-0.008491
C26	C	0.905216	0.606358	0.491509
C27	C	0.428425	0.193791	-0.015794
C28	C	0.928425	0.693791	0.484206
C29	C	0.525098	0.195452	-0.015576
C30	C	1.025098	0.695452	0.484424
C31	C	0.572768	0.109164	-0.008709
C32	C	1.072768	0.609164	0.491291
C33	C	0.543699	0.065456	0.082527
C34	C	1.043699	0.565456	0.582527
C35	C	0.446910	0.064403	0.082680
C36	C	0.946910	0.564403	0.582680
C37	C	0.447094	0.062610	-0.091942
C38	C	0.947094	0.562610	0.408058
C39	C	0.543583	0.065850	-0.093356
C40	C	1.043583	0.565850	0.406644
C41	C	0.667462	0.110745	-0.008830
C42	C	1.167462	0.610745	0.491170
C43	C	0.310522	0.104775	-0.008364
C44	C	0.810522	0.604775	0.491636
C45	C	0.995275	-0.036461	0.002883
C46	C	1.495275	0.463539	0.502883
C47	C	0.993727	-0.124031	0.009848
C48	C	1.493727	0.375969	0.509848
C49	C	0.993020	-0.165171	-0.070650
C50	C	1.493020	0.334829	0.429350
C51	C	0.991560	-0.247451	-0.064103
C52	C	1.491560	0.252549	0.435897
C53	C	0.990813	-0.288591	0.022945
C54	C	1.490813	0.211409	0.522945
C55	C	0.991518	-0.247445	0.103449
C56	C	1.491518	0.252555	0.603449
C57	C	0.992972	-0.165166	0.096901
C58	C	1.492972	0.334834	0.596901
C59	C	0.986416	-0.537022	0.046908
C60	C	1.486416	-0.037022	0.546908
C61	C	0.984964	-0.619307	0.053450
C62	C	1.484964	-0.119307	0.553450
C63	C	0.985004	-0.619307	-0.114103
C64	C	1.485004	-0.119307	0.385897
C65	C	0.986464	-0.537027	-0.120643
C66	C	1.486464	-0.037027	0.379357
C67	C	0.987164	-0.495888	-0.040139
C68	C	1.487164	0.004112	0.459861
C69	C	0.989323	-0.372695	0.029639
C70	C	1.489323	0.127305	0.529639
C71	C	0.988648	-0.411784	-0.046834
C72	C	1.488648	0.088216	0.453166
C73	C	1.142085	0.101972	-0.008140
C74	C	1.642085	0.601972	0.491860
C75	C	1.235036	0.103510	-0.008270
C76	C	1.735036	0.603510	0.491730
C77	C	0.982708	0.251983	-0.020077
C78	C	1.482708	0.751983	0.479923
C79	C	0.984257	0.339553	-0.027049
C80	C	1.484257	0.839553	0.472951
N81	N	0.988951	0.107770	0.210108
N82	N	1.488951	0.607770	0.710108
N83	N	0.989040	0.107745	-0.227299
N84	N	1.489040	0.607745	0.272701
C85	C	0.989010	0.107754	0.584200
C86	C	1.489010	0.607754	1.084200
C87	C	0.919916	0.172354	0.539893
C88	C	1.419916	0.672354	1.039893
C89	C	0.920075	0.172589	0.432786
C90	C	1.420075	0.672589	0.932786
C91	C	0.988980	0.107762	0.398608
C92	C	1.488980	0.607762	0.898608
C93	C	1.076326	0.125722	0.436014
C94	C	1.576326	0.625722	0.936014
C95	C	1.075938	0.126181	0.543099
C96	C	1.575938	0.626181	1.043099
C97	C	0.971539	0.025002	0.551317
C98	C	1.471539	0.525002	1.051317
C99	C	0.969534	0.025554	0.444146
C100	C	1.469534	0.525554	0.944146
C101	C	0.988969	0.107765	0.293720
C102	C	1.488969	0.607765	0.793720
C103	C	0.989028	0.107752	0.689088
C104	C	1.489028	0.607752	1.189088
H105	H	0.432434	0.000298	0.091768
H106	H	0.932434	0.500298	0.591768
C107	C	1.097643	0.206328	0.393354
C108	C	1.597643	0.706328	0.893354
N109	N	1.113692	0.267044	0.361227
N110	N	1.613692	0.767044	0.861227
C111	C	0.588217	-0.019242	-0.093740
C112	C	1.088217	0.480758	0.406260
N113	N	0.621833	-0.083337	-0.094021
N114	N	1.121833	0.416663	0.405979
H115	H	0.984432	-0.652812	-0.179645
H116	H	1.484432	-0.152812	0.320355
C117	C	0.410610	0.105320	0.168038
C118	C	0.910610	0.605320	0.668038
N119	N	0.383272	0.136146	0.232328
N120	N	0.883272	0.636146	0.732328
H121	H	0.433177	-0.001746	-0.087414
H122	H	0.933177	0.498254	0.412586
C123	C	1.147494	0.065054	0.582965
C124	C	1.647494	0.565054	1.082965
N125	N	1.201398	0.019024	0.612986
N126	N	1.701398	0.519024	1.112986
C127	C	0.831916	0.158154	0.575884
C128	C	1.331916	0.658154	1.075884
N129	N	0.765632	0.147462	0.603005
N130	N	1.265632	0.647462	1.103005
C131	C	0.887349	0.001682	0.589708
C132	C	1.387349	0.501682	1.089708
N133	N	0.823933	-0.015873	0.618623
N134	N	1.323933	0.484127	1.118623
H135	H	0.987003	-0.503538	0.112461
H136	H	1.487003	-0.003538	0.612461
C137	C	0.990690	-0.292701	0.199203
C138	C	1.490690	0.207299	0.699203
N139	N	0.990069	-0.326788	0.271326
N140	N	1.490069	0.173212	0.771326
C141	C	0.987285	-0.491779	-0.216402
C142	C	1.487285	0.008221	0.283598
N143	N	0.987907	-0.457699	-0.288529
N144	N	1.487907	0.042301	0.211471
C145	C	0.934764	0.254849	0.569677
C146	C	1.434764	0.754849	1.069677
N147	N	0.945951	0.316983	0.592112
N148	N	1.445951	0.816983	1.092112
H149	H	0.575642	0.001959	0.090843
H150	H	1.075642	0.501959	0.590843
H151	H	0.563708	0.095814	0.145420
H152	H	1.063708	0.595814	0.645420
H153	H	1.128966	0.079922	0.414176
H154	H	1.628966	0.579922	0.914176
C155	C	0.989474	-0.366529	-0.142584
C156	C	1.489474	0.133471	0.357416
N157	N	0.990102	-0.332436	-0.214703
N158	N	1.490102	0.167564	0.285297
H159	H	0.905282	0.011924	0.419850
H160	H	1.405282	0.511924	0.919850
H161	H	0.931222	0.233998	0.402263
H162	H	1.431222	0.733998	0.902263
H163	H	1.016598	-0.024769	0.421377
H164	H	1.516598	0.475231	0.921377
H165	H	0.418749	0.089935	-0.160632
H166	H	0.918749	0.589935	0.339368
C167	C	0.993753	-0.119913	0.185456
C168	C	1.493753	0.380087	0.685456
N169	N	0.994338	-0.085829	0.252159
N170	N	1.494338	0.414171	0.752159
C171	C	0.993841	-0.119925	-0.166410
C172	C	1.493841	0.380075	0.333590
N173	N	0.994456	-0.085847	-0.238539
N174	N	1.494456	0.414153	0.261461
C175	C	0.984140	-0.664559	0.149213
C176	C	1.484140	-0.164559	0.649213
N177	N	0.983520	-0.698643	0.221338
N178	N	1.483520	-0.198643	0.721338
C179	C	0.389156	0.239070	0.065148
C180	C	0.889156	0.739070	0.565148
N181	N	0.359578	0.273173	0.126116
N182	N	0.859578	0.773173	0.626116
H183	H	0.562129	0.097674	-0.160811
H184	H	1.062129	0.597674	0.339189
C185	C	1.096741	0.207716	0.570351
C186	C	1.596741	0.707716	1.070351
N187	N	1.112404	0.269133	0.590872
N188	N	1.612404	0.769133	1.090872
H189	H	1.021927	-0.023071	0.580470
H190	H	1.521927	0.476929	1.080470
H191	H	0.544098	0.229679	-0.081210
H192	H	1.044098	0.729679	0.418790
C193	C	0.988501	-0.417957	0.125389
C194	C	1.488501	0.082043	0.625389
N195	N	0.987879	-0.452051	0.197508
N196	N	1.487879	0.047949	0.697508
C197	C	0.832354	0.158151	0.398464
C198	C	1.332354	0.658151	0.898464
N199	N	0.766278	0.147280	0.372617
N200	N	1.266278	0.647280	0.872617
H201	H	0.400402	0.227488	-0.081411
H202	H	0.900402	0.727488	0.418589
C203	C	0.549892	0.241971	0.065861
C204	C	1.049892	0.741971	0.565861
N205	N	0.568567	0.277008	0.127205
N206	N	1.068567	0.777008	0.627205
H207	H	0.990987	-0.280944	-0.129654
H208	H	1.490987	0.219056	0.370346
