data_functionalizedCrystal
_audit_creation_method	'MofGen! by Chris Wilmer'
_symmetry_space_group_name_H-M	'P1'
_symmetry_Int_Tables_number	1
_symmetry_cell_setting	triclinic
loop_
_symmetry_equiv_pos_as_xyz
  x,y,z
_cell_length_a	19.288864
_cell_length_b	17.699083
_cell_length_c	18.366186
_cell_angle_alpha	89.992864
_cell_angle_beta	89.977106
_cell_angle_gamma	83.209630
loop_
_atom_site_label
_atom_site_type_symbol
_atom_site_fract_x
_atom_site_fract_y
_atom_site_fract_z
O1	O	0.921465	0.094417	-0.060785
O2	O	1.421465	0.594417	0.439215
O3	O	0.719219	0.107154	-0.060735
O4	O	1.219219	0.607154	0.439265
O5	O	0.826056	-0.009412	-0.060755
O6	O	1.326056	0.490588	0.439245
O7	O	0.814628	0.210983	-0.060765
O8	O	1.314628	0.710983	0.439235
O9	O	0.826038	-0.009417	0.060345
O10	O	1.326038	0.490583	0.560345
O11	O	0.719201	0.107148	0.060364
O12	O	1.219201	0.607148	0.560364
O13	O	0.921446	0.094412	0.060315
O14	O	1.421446	0.594412	0.560315
Zn15	Zn	0.820321	0.100779	0.079567
Zn16	Zn	1.320321	0.600779	0.579567
Zn17	Zn	0.820345	0.100786	-0.079987
Zn18	Zn	1.320345	0.600786	0.420013
O19	O	0.814610	0.210977	0.060335
O20	O	1.314610	0.710977	0.560335
C21	C	0.693333	0.106741	-0.000179
C22	C	1.193333	0.606741	0.499821
C23	C	0.616228	0.105511	-0.000160
C24	C	1.116228	0.605511	0.499840
C25	C	0.571613	0.173906	-0.000174
C26	C	1.071613	0.673906	0.499826
C27	C	0.499164	0.172751	-0.000182
C28	C	0.999164	0.672751	0.499818
C29	C	0.471334	0.103196	-0.000190
C30	C	0.971334	0.603196	0.499810
C31	C	0.515959	0.034791	-0.000172
C32	C	1.015959	0.534791	0.499828
C33	C	0.588406	0.035949	-0.000156
C34	C	1.088406	0.535949	0.499844
C35	C	0.363014	0.048520	-0.042639
C36	C	0.863014	0.548520	0.457361
C37	C	0.290568	0.047365	-0.042659
C38	C	0.790568	0.547365	0.457341
C39	C	0.247884	0.099622	-0.000234
C40	C	0.747884	0.599622	0.499766
C41	C	0.277654	0.153047	0.042200
C42	C	0.777654	0.653047	0.542200
C43	C	0.350101	0.154205	0.042216
C44	C	0.850101	0.654205	0.542216
C45	C	0.392779	0.101932	-0.000206
C46	C	0.892779	0.601932	0.499794
C47	C	0.124712	0.166769	-0.000256
C48	C	0.624712	0.666769	0.499744
C49	C	0.052262	0.165610	-0.000260
C50	C	0.552262	0.665610	0.499740
C51	C	0.069059	0.027649	-0.000257
C52	C	0.569059	0.527649	0.499743
C53	C	0.141507	0.028809	-0.000246
C54	C	0.641507	0.528809	0.499754
C55	C	0.169329	0.098371	-0.000249
C56	C	0.669329	0.598371	0.499751
C57	C	0.825637	-0.037611	-0.000205
C58	C	1.325637	0.462389	0.499795
C59	C	0.824409	-0.121627	-0.000204
C60	C	1.324409	0.378373	0.499796
C61	C	0.887120	-0.170336	-0.000219
C62	C	1.387120	0.329664	0.499781
C63	C	0.885961	-0.249278	-0.000225
C64	C	1.385961	0.250722	0.499775
C65	C	0.822091	-0.279509	-0.000211
C66	C	1.322091	0.220491	0.499789
C67	C	0.759375	-0.230794	-0.000199
C68	C	1.259375	0.269206	0.499801
C69	C	0.760535	-0.151854	-0.000198
C70	C	1.260535	0.348146	0.499802
C71	C	0.754699	-0.549150	-0.000204
C72	C	1.254699	-0.049150	0.499796
C73	C	0.753545	-0.628097	-0.000203
C74	C	1.253545	-0.128097	0.499797
C75	C	0.880126	-0.646575	-0.000230
C76	C	1.380126	-0.146575	0.499770
C77	C	0.881285	-0.567635	-0.000230
C78	C	1.381285	-0.067635	0.499770
C79	C	0.818570	-0.518926	-0.000221
C80	C	1.318570	-0.018926	0.499779
C81	C	0.819827	-0.433329	-0.000216
C82	C	1.319827	0.066671	0.499784
C83	C	0.820834	-0.365105	-0.000211
C84	C	1.320834	0.134895	0.499789
C85	C	0.947332	0.094824	-0.000243
C86	C	1.447332	0.594824	0.499757
C87	C	1.024437	0.096054	-0.000267
C88	C	1.524437	0.596054	0.499733
C89	C	0.815028	0.239176	-0.000217
C90	C	1.315028	0.739176	0.499783
C91	C	0.816257	0.323193	-0.000222
C92	C	1.316257	0.823193	0.499778
N93	N	0.820310	0.100773	0.188458
N94	N	1.320310	0.600773	0.688458
N95	N	0.820361	0.100786	-0.188878
N96	N	1.320361	0.600786	0.311122
C97	C	0.867632	0.049183	0.226550
C98	C	1.367632	0.549183	0.726550
C99	C	0.867637	0.049180	0.302777
C100	C	1.367637	0.549180	0.802777
C101	C	0.820325	0.100780	0.340911
C102	C	1.320325	0.600780	0.840911
C103	C	0.772993	0.152373	0.302810
C104	C	1.272993	0.652373	0.802810
C105	C	0.772986	0.152370	0.226583
C106	C	1.272986	0.652370	0.726583
C107	C	0.811108	0.169742	0.461669
C108	C	1.311108	0.669742	0.961669
C109	C	0.811121	0.169746	0.537894
C110	C	1.311121	0.669746	1.037894
C111	C	0.820345	0.100789	0.576018
C112	C	1.320345	0.600789	1.076018
C113	C	0.829571	0.031825	0.537908
C114	C	1.329571	0.531825	1.037908
C115	C	0.829563	0.031822	0.461681
C116	C	1.329563	0.531822	0.961681
C117	C	0.820328	0.100788	0.423565
C118	C	1.320328	0.600788	0.923565
C119	C	0.867675	0.049191	0.696765
C120	C	1.367675	0.549191	1.196765
C121	C	0.867674	0.049187	0.772994
C122	C	1.367674	0.549187	1.272994
C123	C	0.773034	0.152387	0.773025
C124	C	1.273034	0.652387	1.273025
C125	C	0.773031	0.152385	0.696797
C126	C	1.273031	0.652385	1.196797
C127	C	0.820355	0.100788	0.658672
C128	C	1.320355	0.600788	1.158672
H129	H	0.266335	0.003866	-0.077214
H130	H	0.766335	0.503866	0.422786
C131	C	0.800967	0.245599	0.419740
C132	C	1.300967	0.745599	0.919740
H133	H	0.795485	0.286670	0.453352
H134	H	1.295485	0.786670	0.953352
H135	H	0.760520	0.247247	0.390023
H136	H	1.260520	0.747247	0.890023
H137	H	0.840650	0.249681	0.389986
H138	H	1.340650	0.749681	0.889986
H139	H	0.046401	-0.028984	-0.000308
H140	H	0.546401	0.471016	0.499692
C141	C	0.720933	0.209127	0.184681
C142	C	1.220933	0.709127	0.684681
H143	H	0.692758	0.239861	0.218306
H144	H	1.192758	0.739861	0.718306
H145	H	0.692067	0.181982	0.154961
H146	H	1.192067	0.681982	0.654961
H147	H	0.745868	0.240567	0.154931
H148	H	1.245868	0.740567	0.654931
H149	H	0.906208	0.007172	0.804009
H150	H	1.406208	0.507172	1.304009
C151	C	0.720983	0.209143	0.654894
C152	C	1.220983	0.709143	1.154894
H153	H	0.692810	0.239878	0.688520
H154	H	1.192810	0.739878	1.188520
H155	H	0.692115	0.181997	0.625176
H156	H	1.192115	0.681997	1.125176
H157	H	0.745917	0.240581	0.625142
H158	H	1.245917	0.740581	1.125142
C159	C	0.602213	0.250421	-0.000165
C160	C	1.102213	0.750421	0.499835
H161	H	0.565261	0.290990	-0.000167
H162	H	1.065261	0.790990	0.499833
H163	H	0.630153	0.253747	-0.042386
H164	H	1.130153	0.753747	0.457614
H165	H	0.630097	0.253736	0.042080
H166	H	1.130097	0.753736	0.542080
H167	H	0.837073	-0.024330	0.430655
H168	H	1.337073	0.475670	0.930655
H169	H	0.709469	-0.112195	-0.000187
H170	H	1.209469	0.387805	0.499813
H171	H	0.906165	0.007168	0.195510
H172	H	1.406165	0.507168	0.695510
C173	C	0.685717	-0.495578	-0.000195
C174	C	1.185717	0.004422	0.499805
H175	H	0.695550	-0.444233	-0.000207
H176	H	1.195550	0.055767	0.499793
H177	H	0.659512	-0.504720	0.042039
H178	H	1.159512	-0.004720	0.542039
H179	H	0.659535	-0.504720	-0.042427
H180	H	1.159535	-0.004720	0.457573
H181	H	0.734510	0.194397	0.804072
H182	H	1.234510	0.694397	1.304072
C183	C	0.949115	-0.700153	-0.000248
C184	C	1.449115	-0.200153	0.499752
H185	H	0.987318	-0.670841	-0.000247
H186	H	1.487318	-0.170841	0.499753
H187	H	0.951305	-0.731326	-0.042479
H188	H	1.451305	-0.231326	0.457521
H189	H	0.951286	-0.731336	0.041986
H190	H	1.451286	-0.231336	0.541986
H191	H	0.397762	0.005964	-0.077190
H192	H	0.897762	0.505964	0.422810
C193	C	0.003182	0.240847	-0.000277
C194	C	0.503182	0.740847	0.499723
H195	H	-0.043950	0.230197	-0.000277
H196	H	0.456050	0.730197	0.499723
H197	H	0.011627	0.269377	-0.042508
H198	H	0.511627	0.769377	0.457492
H199	H	0.011582	0.269380	0.041957
H200	H	0.511582	0.769380	0.541957
C201	C	0.720954	0.209134	0.344753
C202	C	1.220954	0.709134	0.844753
H203	H	0.727741	0.201753	0.395607
H204	H	1.227741	0.701753	0.895607
H205	H	0.674612	0.201043	0.332289
H206	H	1.174612	0.701043	0.832289
H207	H	0.728412	0.259628	0.332246
H208	H	1.228412	0.759628	0.832246
C209	C	0.919695	-0.007570	0.344687
C210	C	1.419695	0.492430	0.844687
H211	H	0.947879	-0.038296	0.311063
H212	H	1.447879	0.461704	0.811063
H213	H	0.894770	-0.039007	0.374444
H214	H	1.394770	0.460993	0.874444
H215	H	0.948562	0.019589	0.374401
H216	H	1.448562	0.519589	0.874401
H217	H	0.462831	0.228448	-0.000192
H218	H	0.962831	0.728448	0.499808
H219	H	0.707371	-0.255414	-0.000193
H220	H	1.207371	0.244586	0.499807
H221	H	0.374336	0.197703	0.076770
H222	H	0.874336	0.697703	0.576770
C223	C	0.800974	0.245599	0.579812
C224	C	1.300974	0.745599	1.079812
H225	H	0.802308	0.235726	0.630669
H226	H	1.302308	0.735726	1.130669
H227	H	0.757119	0.272706	0.567340
H228	H	1.257119	0.772706	1.067340
H229	H	0.837247	0.275159	0.567293
H230	H	1.337247	0.775159	1.067293
C231	C	0.839722	-0.044033	0.579830
C232	C	1.339722	0.455967	1.079830
H233	H	0.845221	-0.085102	0.546216
H234	H	1.345221	0.414898	1.046216
H235	H	0.800048	-0.048128	0.609588
H236	H	1.300048	0.451872	1.109588
H237	H	0.880175	-0.045671	0.609544
H238	H	1.380175	0.454329	1.109544
C239	C	0.485350	-0.041717	-0.000185
C240	C	0.985350	0.458283	0.499815
H241	H	0.435812	-0.032612	-0.000204
H242	H	0.935812	0.467388	0.499796
H243	H	0.500646	-0.069874	0.042048
H244	H	1.000646	0.430126	0.542048
H245	H	0.500699	-0.069864	-0.042417
H246	H	1.000699	0.430136	0.457583
C247	C	0.230711	0.210537	0.088865
C248	C	0.730711	0.710537	0.588865
H249	H	0.183302	0.202194	0.082785
H250	H	0.683302	0.702194	0.582785
H251	H	0.236498	0.260801	0.073945
H252	H	0.736498	0.760801	0.573945
H253	H	0.243367	0.204073	0.138657
H254	H	0.743367	0.704073	0.638657
H255	H	0.939130	-0.145729	-0.000225
H256	H	1.439130	0.354271	0.499775
C257	C	0.954943	-0.302855	-0.000233
C258	C	1.454943	0.197145	0.499767
H259	H	0.993147	-0.273544	-0.000230
H260	H	1.493147	0.226456	0.499770
H261	H	0.957136	-0.334030	-0.042463
H262	H	1.457136	0.165970	0.457537
H263	H	0.957110	-0.334037	0.042002
H264	H	1.457110	0.165963	0.542002
C265	C	0.155319	0.243282	-0.000253
C266	C	0.655319	0.743282	0.499747
H267	H	0.118368	0.283852	-0.000252
H268	H	0.618368	0.783852	0.499748
H269	H	0.183253	0.246604	-0.042479
H270	H	0.683253	0.746604	0.457521
H271	H	0.183209	0.246598	0.041987
H272	H	0.683209	0.746598	0.541987
C273	C	0.637488	-0.039287	-0.000146
C274	C	1.137488	0.460713	0.499854
H275	H	0.684620	-0.028635	-0.000133
H276	H	1.184620	0.471365	0.499867
H277	H	0.629088	-0.067819	-0.042376
H278	H	1.129088	0.432181	0.457624
H279	H	0.629044	-0.067819	0.042090
H280	H	1.129044	0.432181	0.542090
C281	C	0.190586	-0.046427	-0.000241
C282	C	0.690586	0.453573	0.499759
H283	H	0.163638	-0.088018	-0.000253
H284	H	0.663638	0.411982	0.499747
H285	H	0.219175	-0.048847	0.041993
H286	H	0.719175	0.451153	0.541993
H287	H	0.219218	-0.048837	-0.042472
H288	H	0.719218	0.451163	0.457528
C289	C	0.951542	-0.534384	-0.000247
C290	C	1.451542	-0.034384	0.499753
H291	H	0.988725	-0.574701	-0.000264
H292	H	1.488725	-0.074701	0.499736
H293	H	0.954621	-0.503977	0.041980
H294	H	1.454621	-0.003977	0.541980
H295	H	0.954627	-0.503971	-0.042485
H296	H	1.454627	-0.003971	0.457515
H297	H	0.701531	-0.652707	-0.000190
H298	H	1.201531	-0.152707	0.499810
H299	H	0.906207	0.007175	0.665722
H300	H	1.406207	0.507175	1.165722
