data_functionalizedCrystal
_audit_creation_method	'MofGen! by Chris Wilmer'
_symmetry_space_group_name_H-M	'P1'
_symmetry_Int_Tables_number	1
_symmetry_cell_setting	triclinic
loop_
_symmetry_equiv_pos_as_xyz
  x,y,z
_cell_length_a	16.974800
_cell_length_b	11.026607
_cell_length_c	16.053802
_cell_angle_alpha	93.134017
_cell_angle_beta	91.074188
_cell_angle_gamma	95.962169
loop_
_atom_site_label
_atom_site_type_symbol
_atom_site_fract_x
_atom_site_fract_y
_atom_site_fract_z
O1	O	1.071034	0.154760	0.002968
O2	O	1.571034	0.654760	0.502968
O3	O	0.844209	0.173345	-0.012366
O4	O	1.344209	0.673345	0.487634
O5	O	0.938822	-0.012661	-0.005967
O6	O	1.438822	0.487339	0.494033
O7	O	0.976421	0.340766	-0.003431
O8	O	1.476421	0.840766	0.496569
O9	O	0.933609	-0.002465	0.132540
O10	O	1.433609	0.497535	0.632540
O11	O	0.838995	0.183541	0.126141
O12	O	1.338995	0.683541	0.626141
O13	O	1.065820	0.164956	0.141474
O14	O	1.565820	0.664956	0.641474
Zn15	Zn	0.951580	0.175867	0.155798
Zn16	Zn	1.451580	0.675867	0.655798
Zn17	Zn	0.958449	0.162434	-0.026690
Zn18	Zn	1.458449	0.662434	0.473310
O19	O	0.971207	0.350962	0.135075
O20	O	1.471207	0.850962	0.635075
C21	C	0.812112	0.177550	0.054894
C22	C	1.312112	0.677550	0.554894
C23	C	0.724240	0.174872	0.048954
C24	C	1.224240	0.674872	0.548954
C25	C	0.680120	0.179170	0.121665
C26	C	1.180120	0.679170	0.621665
C27	C	0.597553	0.176635	0.116086
C28	C	1.097553	0.676635	0.616086
C29	C	0.559109	0.169812	0.037795
C30	C	1.059109	0.669812	0.537795
C31	C	0.603235	0.165511	-0.034922
C32	C	1.103235	0.665511	0.465078
C33	C	0.685799	0.168037	-0.029342
C34	C	1.185799	0.668037	0.470658
C35	C	0.312481	0.161653	0.013011
C36	C	0.812481	0.661653	0.513011
C37	C	0.229910	0.159131	0.007436
C38	C	0.729910	0.659131	0.507436
C39	C	0.224234	0.170253	0.158444
C40	C	0.724234	0.670253	0.658444
C41	C	0.306801	0.172786	0.164017
C42	C	0.806801	0.672786	0.664017
C43	C	0.350919	0.168478	0.091301
C44	C	0.850919	0.668478	0.591301
N45	N	0.474712	0.167225	0.032090
N46	N	0.974712	0.667225	0.532090
N47	N	0.435313	0.171057	0.097006
N48	N	0.935313	0.671057	0.597006
C49	C	0.929279	-0.052796	0.062817
C50	C	1.429279	0.447204	0.562817
C51	C	0.908603	-0.187577	0.061416
C52	C	1.408603	0.312423	0.561416
C53	C	0.965695	-0.261199	0.065274
C54	C	1.465695	0.238801	0.565274
C55	C	0.944326	-0.400502	0.063826
C56	C	1.444326	0.099498	0.563826
C57	C	1.097917	0.160752	0.074213
C58	C	1.597917	0.660752	0.574213
C59	C	1.185790	0.163428	0.080147
C60	C	1.685790	0.663428	0.580147
C61	C	0.980750	0.391097	0.066290
C62	C	1.480750	0.891097	0.566290
C63	C	1.001427	0.525878	0.067685
C64	C	1.501427	1.025878	0.567685
N65	N	0.946898	0.185035	0.280342
N66	N	1.446898	0.685035	0.780342
N67	N	0.963137	0.153257	-0.151233
N68	N	1.463137	0.653257	0.348767
C69	C	0.987178	0.105917	0.326760
C70	C	1.487178	0.605917	0.826760
C71	C	0.983912	0.112342	0.413946
C72	C	1.483912	0.612342	0.913946
C73	C	0.940369	0.197890	0.454712
C74	C	1.440369	0.697890	0.954712
C75	C	0.900083	0.277011	0.408288
C76	C	1.400083	0.777011	0.908288
C77	C	0.903345	0.270580	0.321103
C78	C	1.403345	0.770580	0.821103
C79	C	0.926113	0.225947	0.715158
C80	C	1.426113	0.725947	1.215158
C81	C	0.922856	0.232374	0.802349
C82	C	1.422856	0.732374	1.302349
C83	C	1.006684	0.067703	0.808001
C84	C	1.506684	0.567703	1.308001
C85	C	1.009947	0.061284	0.720815
C86	C	1.509947	0.561284	1.220815
C87	C	0.969657	0.140401	0.674398
C88	C	1.469657	0.640401	1.174398
N89	N	0.937031	0.204461	0.543830
N90	N	1.437031	0.704461	1.043830
N91	N	0.972991	0.133823	0.585281
N92	N	1.472991	0.633823	1.085281
H93	H	0.561632	0.180114	0.175295
H94	H	1.061632	0.680114	0.675295
H95	H	0.571926	0.159946	-0.098668
H96	H	1.071926	0.659946	0.401332
H97	H	0.338096	0.178337	0.227770
H98	H	0.838096	0.678337	0.727770
H99	H	0.887396	0.302043	0.835536
H100	H	1.387396	0.802043	1.335536
H101	H	0.721722	0.164540	-0.088551
H102	H	1.221722	0.664540	0.411449
H103	H	0.864624	0.346663	0.441484
H104	H	1.364624	0.846663	0.941484
H105	H	0.870543	0.335004	0.283310
H106	H	1.370543	0.835004	0.783310
C107	C	0.095147	0.171307	0.216945
C108	C	0.595147	0.671307	0.716945
C109	C	0.175736	0.174970	0.238370
C110	C	0.675736	0.674970	0.738370
H111	H	0.065208	0.174207	0.266292
H112	H	0.565208	0.674207	0.766292
H113	H	0.086807	0.239342	0.185289
H114	H	0.586807	0.739342	0.685289
H115	H	0.078770	0.097873	0.184734
H116	H	0.578770	0.597873	0.684734
H117	H	0.192114	0.248409	0.270576
H118	H	0.692114	0.748409	0.770576
H119	H	0.184080	0.106929	0.270040
H120	H	0.684080	0.606929	0.770040
C121	C	1.123690	-0.453931	0.147332
C122	C	1.623690	0.046069	0.647332
C123	C	1.088777	-0.420013	0.073592
C124	C	1.588777	0.079987	0.573592
H125	H	1.177616	-0.420531	0.150974
H126	H	1.677616	0.079469	0.650974
H127	H	1.096360	-0.423821	0.193899
H128	H	1.596360	0.076179	0.693899
H129	H	1.120781	-0.540448	0.147126
H130	H	1.620781	-0.040448	0.647126
H131	H	1.091681	-0.333496	0.073801
H132	H	1.591681	0.166504	0.573801
H133	H	1.116115	-0.450117	0.027013
H134	H	1.616115	0.049883	0.527013
C135	C	1.087958	-0.241004	0.144914
C136	C	1.587958	0.258996	0.644914
C137	C	1.053042	-0.207087	0.071175
C138	C	1.553042	0.292913	0.571175
H139	H	1.141885	-0.207607	0.148552
H140	H	1.641885	0.292393	0.648552
H141	H	1.060633	-0.210891	0.191482
H142	H	1.560633	0.289109	0.691482
H143	H	1.085048	-0.327521	0.144709
H144	H	1.585048	0.172479	0.644709
H145	H	1.055947	-0.120570	0.071383
H146	H	1.555947	0.379430	0.571383
H147	H	1.080375	-0.237194	0.024596
H148	H	1.580375	0.262806	0.524596
H149	H	0.198612	0.153578	-0.056321
H150	H	0.698612	0.653578	0.443679
C151	C	0.852715	-0.582140	0.057631
C152	C	1.352715	-0.082140	0.557631
C153	C	0.856977	-0.454616	0.057921
C154	C	1.356977	0.045384	0.557921
H155	H	0.798789	-0.615546	0.053991
H156	H	1.298789	-0.115546	0.553991
H157	H	0.880041	-0.612231	0.011057
H158	H	1.380041	-0.112231	0.511057
H159	H	0.876412	-0.605127	0.107659
H160	H	1.376412	-0.105127	0.607659
H161	H	0.833285	-0.431629	0.007891
H162	H	1.333285	0.068371	0.507891
H163	H	0.829639	-0.424514	0.104499
H164	H	1.329639	0.075486	0.604499
H165	H	0.843903	-0.227677	0.057037
H166	H	1.343903	0.272323	0.557037
H167	H	1.022640	0.036260	0.293574
H168	H	1.522640	0.536260	0.793574
C169	C	0.973935	-0.045602	0.511564
C170	C	1.473935	0.454398	1.011564
C171	C	1.028196	0.025373	0.464963
C172	C	1.528196	0.525373	0.964963
H173	H	1.001277	-0.099301	0.543053
H174	H	1.501277	0.400699	1.043053
H175	H	0.947542	0.006257	0.548322
H176	H	1.447542	0.506257	1.048322
H177	H	0.936193	-0.091914	0.474917
H178	H	1.436193	0.408086	0.974917
H179	H	1.065935	0.071692	0.501610
H180	H	1.565935	0.571692	1.001610
H181	H	1.054601	-0.026493	0.428202
H182	H	1.554601	0.473507	0.928202
H183	H	1.045403	-0.008376	0.687625
H184	H	1.545403	0.491624	1.187625
C185	C	0.996684	-0.090226	0.905625
C186	C	1.496684	0.409774	1.405625
C187	C	1.050958	-0.019271	0.859025
C188	C	1.550958	0.480729	1.359025
H189	H	1.024017	-0.143929	0.937121
H190	H	1.524017	0.356071	1.437121
H191	H	0.970295	-0.038353	0.942377
H192	H	1.470295	0.461647	1.442377
H193	H	0.958941	-0.136533	0.868978
H194	H	1.458941	0.363467	1.368978
H195	H	1.088698	0.027043	0.895673
H196	H	1.588698	0.527043	1.395673
H197	H	1.077360	-0.071150	0.822270
H198	H	1.577360	0.428850	1.322270
H199	H	0.893310	0.290369	0.677372
H200	H	1.393310	0.790369	1.177372
C201	C	0.348659	0.257224	-0.113584
C202	C	0.848659	0.757224	0.386416
C203	C	0.360967	0.156927	-0.066920
C204	C	0.860967	0.656927	0.433080
H205	H	0.378599	0.254307	-0.162930
H206	H	0.878599	0.754307	0.337070
H207	H	0.293990	0.254739	-0.128101
H208	H	0.793990	0.754739	0.371899
H209	H	0.365055	0.330647	-0.081370
H210	H	0.865055	0.830647	0.418630
H211	H	0.344565	0.083503	-0.099132
H212	H	0.844565	0.583503	0.400868
H213	H	0.415648	0.159401	-0.052404
H214	H	0.915648	0.659401	0.447596
H215	H	0.711415	0.184736	0.185418
H216	H	1.211415	0.684736	0.685418
