data_functionalizedCrystal
_audit_creation_method	'MofGen! by Chris Wilmer'
_symmetry_space_group_name_H-M	'P1'
_symmetry_Int_Tables_number	1
_symmetry_cell_setting	triclinic
loop_
_symmetry_equiv_pos_as_xyz
  x,y,z
_cell_length_a	16.109301
_cell_length_b	19.288840
_cell_length_c	18.366186
_cell_angle_alpha	90.016305
_cell_angle_beta	90.006550
_cell_angle_gamma	83.293748
loop_
_atom_site_label
_atom_site_type_symbol
_atom_site_fract_x
_atom_site_fract_y
_atom_site_fract_z
O1	O	0.103615	0.921611	0.060674
O2	O	0.117628	0.719382	0.060649
O3	O	-0.010429	0.826052	0.060654
O4	O	0.231672	0.814941	0.060668
O5	O	-0.010432	0.826034	-0.060445
O6	O	0.117625	0.719363	-0.060451
O7	O	0.103612	0.921593	-0.060426
Zn8	Zn	0.110618	0.820475	-0.079665
Zn9	Zn	0.110622	0.820500	0.079888
O10	O	0.231669	0.814923	-0.060432
C11	C	0.117179	0.693495	0.000096
C12	C	0.115836	0.616387	0.000086
C13	C	0.115193	0.580192	0.066099
C14	C	0.113921	0.507742	0.066108
C15	C	0.113277	0.471492	0.000100
C16	C	0.113925	0.507695	-0.065922
C17	C	0.115204	0.580143	-0.065929
C18	C	0.062550	0.362035	-0.050464
C19	C	0.061266	0.289589	-0.050455
C20	C	0.109334	0.248039	0.000119
C21	C	0.158676	0.278944	0.050694
C22	C	0.159956	0.351391	0.050687
C23	C	0.111890	0.392934	0.000100
C24	C	0.107313	0.133285	0.066146
C25	C	0.106047	0.060833	0.066152
C26	C	0.106042	0.060788	-0.065880
C27	C	0.107317	0.133238	-0.065884
C28	C	0.107948	0.169482	0.000131
C29	C	-0.041404	0.825593	0.000104
C30	C	-0.133694	0.824243	0.000103
C31	C	-0.356179	0.884402	0.000122
C32	C	-0.442895	0.883129	0.000128
C33	C	-0.422574	0.756568	0.000109
C34	C	-0.335860	0.757842	0.000109
C35	C	-0.302665	0.821761	0.000111
C36	C	-0.476095	0.819214	0.000118
C37	C	-0.570116	0.817833	0.000124
C38	C	-0.208638	0.823142	0.000106
C39	C	0.262644	0.815382	0.000120
C40	C	0.354934	0.816731	0.000126
C41	C	0.104061	0.947480	0.000129
C42	C	0.105404	1.024588	0.000143
N43	N	0.110614	0.820464	-0.188557
C44	C	0.160911	0.862572	-0.226642
C45	C	0.160908	0.862583	-0.302870
C46	C	0.110619	0.820473	-0.341009
C47	C	0.060312	0.778363	-0.302914
C48	C	0.060309	0.778358	-0.226688
C49	C	0.108523	0.757856	-0.461798
C50	C	0.108531	0.757859	-0.538023
C51	C	0.110622	0.820489	-0.576117
C52	C	0.112721	0.883116	-0.537976
C53	C	0.112719	0.883112	-0.461750
C54	C	0.110616	0.820474	-0.423664
C55	C	0.160919	0.862613	-0.696858
C56	C	0.160910	0.862626	-0.773087
C57	C	0.060319	0.778399	-0.773129
C58	C	0.060322	0.778392	-0.696902
C59	C	0.110627	0.820498	-0.658770
N60	N	0.110619	0.820517	0.188779
H61	H	0.200134	0.376551	0.091866
C62	C	-0.459088	0.686261	0.000104
H63	H	-0.414795	0.649137	0.000106
H64	H	-0.492499	0.683125	-0.042125
H65	H	-0.492485	0.683142	0.042341
C66	C	0.105608	0.020892	-0.138487
H67	H	0.104833	-0.027449	-0.129029
H68	H	0.154373	0.027517	-0.165456
H69	H	0.057419	0.037977	-0.165767
C70	C	0.105335	0.021019	0.138770
H71	H	0.105886	0.052985	0.178082
H72	H	0.153308	-0.012558	0.141528
H73	H	0.056357	-0.001925	0.141507
C74	C	0.211557	0.233247	0.106326
H75	H	0.203739	0.185673	0.099083
H76	H	0.194648	0.247012	0.154247
H77	H	0.268914	0.238856	0.099956
H78	H	-0.292286	0.706829	0.000102
H79	H	0.115729	0.609612	-0.119686
C80	C	0.108023	0.173155	0.138757
H81	H	0.107472	0.141218	0.178075
H82	H	0.060050	0.206733	0.141501
H83	H	0.157002	0.196101	0.141496
H84	H	0.115707	0.609698	0.119854
H85	H	0.113399	0.478266	0.119865
C86	C	0.108014	0.173056	-0.138499
H87	H	0.107441	0.141093	-0.177811
H88	H	0.156984	0.196002	-0.141245
H89	H	0.060032	0.206631	-0.141247
C90	C	0.115016	0.951996	-0.419797
H91	H	0.116255	0.989301	-0.453396
H92	H	0.163558	0.948763	-0.390053
H93	H	0.066633	0.960429	-0.390068
H94	H	-0.486463	0.934137	0.000138
H95	H	0.201869	0.896861	-0.195601
H96	H	0.201879	0.896899	-0.665809
C97	C	0.216238	0.908900	-0.344777
H98	H	0.209030	0.902875	-0.395636
H99	H	0.273164	0.895976	-0.332283
H100	H	0.200640	0.956431	-0.332272
H101	H	0.021084	0.264433	-0.091633
H102	H	0.023405	0.395861	-0.091650
H103	H	0.113402	0.478175	-0.119666
H104	H	0.114428	0.934115	-0.568990
C105	C	0.216241	0.908944	-0.814985
H106	H	0.209033	0.902923	-0.865844
H107	H	0.273167	0.896017	-0.802491
H108	H	0.200646	0.956474	-0.802476
C109	C	0.005002	0.732078	-0.815073
H110	H	0.012209	0.738108	-0.865926
H111	H	-0.051926	0.744996	-0.802583
H112	H	0.020606	0.684548	-0.802597
C113	C	-0.319667	0.954709	0.000133
H114	H	-0.363961	0.991833	0.000147
H115	H	-0.286267	0.957835	-0.042096
H116	H	-0.286258	0.957840	0.042369
C117	C	0.005005	0.732064	-0.655005
H118	H	-0.024941	0.706982	-0.688635
H119	H	-0.033349	0.760532	-0.625261
H120	H	0.039184	0.700085	-0.625279
C121	C	0.106225	0.688975	-0.579975
H122	H	0.106537	0.697945	-0.630827
H123	H	0.056903	0.669081	-0.567498
H124	H	0.153828	0.657403	-0.567485
C125	C	0.106228	0.688958	-0.419903
H126	H	0.104992	0.651661	-0.453533
H127	H	0.057683	0.692185	-0.390169
H128	H	0.154608	0.680519	-0.390166
C129	C	0.004998	0.732041	-0.344864
H130	H	0.012210	0.738068	-0.395717
H131	H	-0.051931	0.744959	-0.332377
H132	H	0.020601	0.684511	-0.332385
H133	H	0.019351	0.744067	-0.195679
