data_functionalizedCrystal
_audit_creation_method	'MofGen! by Chris Wilmer'
_symmetry_space_group_name_H-M	'P1'
_symmetry_Int_Tables_number	1
_symmetry_cell_setting	triclinic
loop_
_symmetry_equiv_pos_as_xyz
  x,y,z
_cell_length_a	12.759401
_cell_length_b	16.120484
_cell_length_c	12.759393
_cell_angle_alpha	92.864008
_cell_angle_beta	89.979062
_cell_angle_gamma	92.926992
loop_
_atom_site_label
_atom_site_type_symbol
_atom_site_fract_x
_atom_site_fract_y
_atom_site_fract_z
Zn1	Zn	1.584985	-0.331832	-0.615183
Zn2	Zn	1.575933	-0.471268	-0.448395
Zn3	Zn	1.409280	-0.331877	-0.439521
Zn4	Zn	1.400336	-0.471209	-0.624029
O5	O	1.492634	-0.401546	-0.531782
O6	O	1.730804	-0.350334	-0.593070
O7	O	1.553781	-0.452820	-0.300200
O8	O	1.440119	-0.215205	-0.455406
O9	O	1.724154	-0.452777	-0.470532
O10	O	1.569208	-0.215173	-0.584465
O11	O	1.431342	-0.350410	-0.293680
O12	O	1.261073	-0.350354	-0.463984
O13	O	1.424875	-0.452678	-0.769874
O14	O	1.254502	-0.452721	-0.599541
O15	O	1.560535	-0.350278	-0.763375
O16	O	1.545108	-0.587925	-0.479110
O17	O	1.416098	-0.587883	-0.608147
C18	C	1.219667	-0.401536	-0.531760
C19	C	1.102889	-0.401552	-0.531777
C20	C	1.044628	-0.454936	-0.602261
C21	C	0.934904	-0.454939	-0.602282
C22	C	0.941712	-0.348172	-0.461326
C23	C	1.051434	-0.348166	-0.461311
C24	C	1.478679	-0.618154	-0.545574
C25	C	1.472805	-0.710820	-0.551509
C26	C	1.462088	-0.880481	-0.562368
C27	C	1.523367	-0.921772	-0.501213
C28	C	1.517404	-1.016177	-0.507255
C29	C	1.468050	-0.786067	-0.556327
C30	C	1.766666	-0.401557	-0.531804
C31	C	1.883442	-0.401562	-0.531814
C32	C	1.492717	-0.401466	-0.805810
C33	C	1.492753	-0.401432	-0.922585
C34	C	1.506671	-0.184093	-0.517959
C35	C	1.512653	-0.091427	-0.512068
C36	C	1.563397	-0.348104	-0.974064
C37	C	1.563417	-0.348068	-1.083786
C38	C	1.422146	-0.454696	-1.090540
C39	C	1.422122	-0.454727	-0.980820
C40	C	1.492614	-0.401566	-0.258816
C41	C	1.492797	-0.401365	-0.142027
H42	H	1.086519	-0.498404	-0.659642
C43	C	1.641133	-0.289405	-1.140407
N44	N	1.699673	-0.245217	-1.183054
H45	H	0.899804	-0.304708	-0.403953
C46	C	1.115526	-0.289436	-0.383769
N47	N	1.163799	-0.245202	-0.325367
H48	H	0.887472	-0.498408	-0.659679
C49	C	1.344454	-0.513315	-1.154609
N50	N	1.285934	-0.557468	-1.202865
H51	H	1.580308	-0.886221	-0.444319
C52	C	1.641084	-0.289471	-0.910008
N53	N	1.699598	-0.245304	-0.861764
H54	H	1.405150	-0.916029	-0.619256
C55	C	1.344401	-0.513392	-0.924190
N56	N	1.285861	-0.557575	-0.881536
