data_functionalizedCrystal
_audit_creation_method	'MofGen! by Chris Wilmer'
_symmetry_space_group_name_H-M	'P1'
_symmetry_Int_Tables_number	1
_symmetry_cell_setting	triclinic
loop_
_symmetry_equiv_pos_as_xyz
  x,y,z
_cell_length_a	21.295418
_cell_length_b	21.295417
_cell_length_c	21.295411
_cell_angle_alpha	90.021644
_cell_angle_beta	90.043738
_cell_angle_gamma	90.046319
loop_
_atom_site_label
_atom_site_type_symbol
_atom_site_fract_x
_atom_site_fract_y
_atom_site_fract_z
Zn1	Zn	0.962356	-0.250415	0.356234
Zn2	Zn	1.295689	0.082918	0.689567
Zn3	Zn	1.629022	0.416251	1.022900
Zn4	Zn	0.962258	-0.355667	0.250959
Zn5	Zn	1.295592	-0.022334	0.584292
Zn6	Zn	1.628925	0.311000	0.917626
Zn7	Zn	0.857079	-0.250445	0.250943
Zn8	Zn	1.190412	0.082889	0.584277
Zn9	Zn	1.523746	0.416222	0.917610
Zn10	Zn	0.857048	-0.355680	0.356155
Zn11	Zn	1.190382	-0.022346	0.689489
Zn12	Zn	1.523715	0.310987	1.022822
O13	O	0.909685	-0.303052	0.303573
O14	O	1.243019	0.030282	0.636906
O15	O	1.576352	0.363615	0.970240
O16	O	1.050432	-0.264360	0.342308
O17	O	1.383766	0.068974	0.675641
O18	O	1.717099	0.402307	1.008975
O19	O	0.948278	-0.341716	0.162867
O20	O	1.281611	-0.008383	0.496201
O21	O	1.614945	0.324950	0.829534
O22	O	0.871098	-0.162351	0.264937
O23	O	1.204431	0.170982	0.598270
O24	O	1.537764	0.504315	0.931603
O25	O	1.050361	-0.341688	0.264963
O26	O	1.383694	-0.008354	0.598296
O27	O	1.717027	0.324979	0.931630
O28	O	0.948444	-0.162330	0.342293
O29	O	1.281778	0.171004	0.675626
O30	O	1.615111	0.504337	1.008960
O31	O	0.871003	-0.264410	0.162856
O32	O	1.204337	0.068923	0.496189
O33	O	1.537670	0.402257	0.829523
O34	O	0.768985	-0.264422	0.264861
O35	O	1.102319	0.068911	0.598194
O36	O	1.435652	0.402245	0.931527
O37	O	0.871046	-0.341709	0.444255
O38	O	1.204379	-0.008376	0.777589
O39	O	1.537712	0.324958	1.110922
O40	O	0.768963	-0.341738	0.342160
O41	O	1.102296	-0.008404	0.675493
O42	O	1.435630	0.324929	1.008826
O43	O	0.948415	-0.264372	0.444313
O44	O	1.281748	0.068962	0.777646
O45	O	1.615081	0.402295	1.110979
O46	O	0.948248	-0.443758	0.264887
O47	O	1.281582	-0.110425	0.598221
O48	O	1.614915	0.222909	0.931554
O49	O	0.870951	-0.443767	0.342175
O50	O	1.204284	-0.110434	0.675508
O51	O	1.537618	0.222899	1.008841
C52	C	0.746134	-0.303085	0.303500
C53	C	1.079467	0.030249	0.636834
C54	C	1.412800	0.363582	0.970167
C55	C	0.676166	-0.303114	0.303484
C56	C	1.009499	0.030219	0.636818
C57	C	1.342832	0.363553	0.970151
C58	C	0.643304	-0.343426	0.343674
C59	C	0.976637	-0.010092	0.677007
C60	C	1.309970	0.323241	1.010340
C61	C	0.577561	-0.343410	0.343702
C62	C	0.910894	-0.010077	0.677035
C63	C	1.244228	0.323257	1.010369
C64	C	0.544683	-0.303090	0.303530
C65	C	0.878016	0.030244	0.636863
C66	C	1.211350	0.363577	0.970196
C67	C	0.577553	-0.262770	0.263337
C68	C	0.910886	0.070563	0.596671
C69	C	1.244220	0.403896	0.930004
C70	C	0.643294	-0.262783	0.263315
C71	C	0.976627	0.070551	0.596648
C72	C	1.309961	0.403884	0.929982
N73	N	0.441407	-0.298163	0.248472
N74	N	0.774740	0.035171	0.581805
N75	N	1.108074	0.368504	0.915139
N76	N	0.378956	-0.298155	0.248495
N77	N	0.712289	0.035179	0.581829
N78	N	1.045622	0.368512	0.915162
C79	C	0.346608	-0.303050	0.303596
C80	C	0.679942	0.030284	0.636930
C81	C	1.013275	0.363617	0.970263
N82	N	0.379072	-0.307965	0.358675
N83	N	0.712405	0.025368	0.692008
N84	N	1.045739	0.358702	1.025341
N85	N	0.441529	-0.307976	0.358650
N86	N	0.774862	0.025357	0.691984
N87	N	1.108196	0.358691	1.025317
C88	C	0.473398	-0.303072	0.303550
C89	C	0.806731	0.030262	0.636883
C90	C	1.140064	0.363595	0.970217
C91	C	0.242461	-0.343346	0.343820
C92	C	0.575794	-0.010013	0.677153
C93	C	0.909128	0.323320	1.010486
C94	C	0.176717	-0.343326	0.343849
C95	C	0.510051	-0.009993	0.677182
C96	C	0.843384	0.323340	1.010516
C97	C	0.176710	-0.262690	0.263479
C98	C	0.510044	0.070643	0.596812
C99	C	0.843377	0.403977	0.930146
C100	C	0.242453	-0.262707	0.263455
C101	C	0.575786	0.070627	0.596789
C102	C	0.909119	0.403960	0.930122
C103	C	0.275324	-0.303038	0.303625
C104	C	0.608657	0.030295	0.636958
C105	C	0.941991	0.363628	0.970291
C106	C	0.909603	-0.466603	0.303538
C107	C	1.242936	-0.133270	0.636871
C108	C	1.576269	0.200063	0.970205
C109	C	0.909625	-0.536571	0.303544
C110	C	1.242958	-0.203238	0.636877
C111	C	1.576292	0.130095	0.970211
C112	C	0.949910	-0.569412	0.263342
C113	C	1.283243	-0.236079	0.596675
C114	C	1.616576	0.097254	0.930009
C115	C	0.949939	-0.635155	0.263356
C116	C	1.283272	-0.301822	0.596689
C117	C	1.616606	0.031512	0.930023
C118	C	0.909673	-0.668054	0.303566
C119	C	1.243006	-0.334721	0.636899
C120	C	1.576340	-0.001387	0.970233
C121	C	0.869386	-0.635205	0.343776
C122	C	1.202719	-0.301872	0.677109
C123	C	1.536052	0.031462	1.010443
C124	C	0.869362	-0.569464	0.343765
C125	C	1.202695	-0.236130	0.677098
C126	C	1.536028	0.097203	1.010432
N127	N	0.854606	-0.771336	0.308340
N128	N	1.187939	-0.438002	0.641674
N129	N	1.521272	-0.104669	0.975007
N130	N	0.854630	-0.833787	0.308347
N131	N	1.187964	-0.500454	0.641680
N132	N	1.521297	-0.167120	0.975014
C133	C	0.909743	-0.866129	0.303602
C134	C	1.243077	-0.532795	0.636935
C135	C	1.576410	-0.199462	0.970269
N136	N	0.964832	-0.833659	0.298838
N137	N	1.298166	-0.500326	0.632171
N138	N	1.631499	-0.166993	0.965504
N139	N	0.964807	-0.771202	0.298828
N140	N	1.298140	-0.437869	0.632161
N141	N	1.631474	-0.104535	0.965494
C142	C	0.909695	-0.739339	0.303582
C143	C	1.243028	-0.406006	0.636916
C144	C	1.576361	-0.072673	0.970249
C145	C	0.950063	-0.970255	0.263413
C146	C	1.283397	-0.636922	0.596746
C147	C	1.616730	-0.303588	0.930080
C148	C	0.950094	-1.035999	0.263431
C149	C	1.283427	-0.702665	0.596765
C150	C	1.616760	-0.369332	0.930098
C151	C	0.869535	-1.036048	0.343848
C152	C	1.202868	-0.702714	0.677181
C153	C	1.536201	-0.369381	1.010515
C154	C	0.869510	-0.970305	0.343833
C155	C	1.202843	-0.636972	0.677166
C156	C	1.536176	-0.303638	1.010500
C157	C	0.909773	-0.937413	0.303612
C158	C	1.243106	-0.604079	0.636945
C159	C	1.576440	-0.270746	0.970279
C160	C	1.073876	-0.303019	0.303646
C161	C	1.407209	0.030314	0.636979
C162	C	1.740542	0.363648	0.970313
C163	C	1.143844	-0.303005	0.303677
C164	C	1.477177	0.030328	0.637010
C165	C	1.810510	0.363662	0.970344
C166	C	0.909738	-0.303038	0.467763
C167	C	1.243071	0.030295	0.801097
C168	C	1.576404	0.363628	1.134430
C169	C	0.909760	-0.303033	0.537731
C170	C	1.243093	0.030301	0.871065
C171	C	1.576427	0.363634	1.204398
C172	C	0.909785	-0.138861	0.303622
C173	C	1.243119	0.194472	0.636955
C174	C	1.576452	0.527805	0.970288
C175	C	0.909828	-0.068893	0.303642
C176	C	1.243161	0.264440	0.636976
C177	C	1.576495	0.597773	0.970309
C178	C	0.909670	-0.303019	0.140021
C179	C	1.243003	0.030314	0.473355
C180	C	1.576336	0.363647	0.806688
C181	C	0.909769	-0.302848	0.070054
C182	C	1.243103	0.030486	0.403387
C183	C	1.576436	0.363819	0.736720
C184	C	0.950044	-0.262761	0.570629
C185	C	1.283377	0.070572	0.903962
C186	C	1.616711	0.403905	1.237296
C187	C	0.950043	-0.262734	0.636371
C188	C	1.283377	0.070599	0.969705
C189	C	1.616710	0.403933	1.303038
C190	C	0.909765	-0.302989	0.669214
C191	C	1.243098	0.030344	1.002547
C192	C	1.576431	0.363677	1.335881
C193	C	0.869473	-0.343263	0.636308
C194	C	1.202806	-0.009930	0.969642
C195	C	1.536139	0.323403	1.302975
C196	C	0.869470	-0.343285	0.570567
C197	C	1.202804	-0.009952	0.903900
C198	C	1.536137	0.323382	1.237234
N199	N	0.904908	-0.358058	0.772428
N200	N	1.238241	-0.024725	1.105761
N201	N	1.571575	0.308608	1.439094
N202	N	0.904914	-0.358036	0.834879
N203	N	1.238247	-0.024703	1.168213
N204	N	1.571581	0.308631	1.501546
C205	C	0.909769	-0.302926	0.867289
C206	C	1.243102	0.030408	1.200622
C207	C	1.576435	0.363741	1.533955
N208	N	0.914629	-0.247837	0.834888
N209	N	1.247963	0.085496	1.168221
N210	N	1.581296	0.418830	1.501554
N211	N	0.914627	-0.247860	0.772430
N212	N	1.247960	0.085473	1.105764
N213	N	1.581293	0.418807	1.439097
C214	C	0.909763	-0.302970	0.740499
C215	C	1.243096	0.030363	1.073833
C216	C	1.576429	0.363697	1.407166
C217	C	0.950054	-0.262621	0.971472
C218	C	1.283388	0.070712	1.304805
C219	C	1.616721	0.404045	1.638139
C220	C	0.950049	-0.262593	1.037216
C221	C	1.283382	0.070740	1.370549
C222	C	1.616716	0.404074	1.703882
C223	C	0.869482	-0.343128	1.037151
C224	C	1.202815	-0.009795	1.370485
C225	C	1.536148	0.323539	1.703818
C226	C	0.869484	-0.343151	0.971409
C227	C	1.202817	-0.009817	1.304742
C228	C	1.536150	0.323516	1.638076
C229	C	0.909773	-0.302898	0.938573
C230	C	1.243107	0.030435	1.271906
C231	C	1.576440	0.363769	1.605240
H232	H	0.149942	-0.229857	0.230773
H233	H	0.483275	0.103476	0.564106
H234	H	0.816608	0.436809	0.897440
O235	O	0.678735	-0.219305	0.219956
O236	O	1.012069	0.114029	0.553290
O237	O	1.345402	0.447362	0.886623
H238	H	0.708749	-0.187320	0.248175
H239	H	1.042083	0.146013	0.581509
H240	H	1.375416	0.479347	0.914842
H241	H	0.269209	-0.229884	0.230726
H242	H	0.602543	0.103450	0.564059
H243	H	0.935876	0.436783	0.897392
O244	O	0.826042	-0.934885	0.387182
O245	O	1.159375	-0.601551	0.720515
O246	O	1.492708	-0.268218	1.053849
H247	H	0.836807	-0.947465	0.436605
H248	H	1.170140	-0.614132	0.769938
H249	H	1.503474	-0.280799	1.103271
H250	H	0.550800	-0.376236	0.376431
H251	H	0.884133	-0.042903	0.709765
H252	H	1.217466	0.290430	1.043098
O253	O	0.826025	-0.386589	0.935935
O254	O	1.159358	-0.053256	1.269268
O255	O	1.492691	0.280078	1.602601
H256	H	0.854165	-0.418626	0.905995
H257	H	1.187498	-0.085292	1.239328
H258	H	1.520832	0.248041	1.572661
O259	O	0.826032	-0.386545	1.072563
O260	O	1.159366	-0.053212	1.405896
O261	O	1.492699	0.280121	1.739229
H262	H	0.854185	-0.418562	1.102531
H263	H	1.187518	-0.085228	1.435865
H264	H	1.520852	0.248105	1.769198
O265	O	0.542097	-0.219294	0.219993
O266	O	0.875431	0.114039	0.553327
O267	O	1.208764	0.447373	0.886660
H268	H	0.490862	-0.226067	0.226751
H269	H	0.824195	0.107266	0.560084
H270	H	1.157528	0.440600	0.893418
O271	O	0.993398	-0.670595	0.220006
O272	O	1.326731	-0.337261	0.553340
O273	O	1.660064	-0.003928	0.886673
H274	H	0.965252	-0.700607	0.187957
H275	H	1.298585	-0.367273	0.521290
H276	H	1.631919	-0.033940	0.854623
O277	O	0.993553	-1.071420	0.220072
O278	O	1.326887	-0.738087	0.553406
O279	O	1.660220	-0.404753	0.886739
H280	H	0.986814	-1.122661	0.226843
H281	H	1.320148	-0.789327	0.560176
H282	H	1.653481	-0.455994	0.893510
O283	O	0.993495	-0.219346	0.535211
O284	O	1.326828	0.113987	0.868545
O285	O	1.660161	0.447320	1.201878
H286	H	1.021504	-0.191335	0.569137
H287	H	1.354838	0.141998	0.902470
H288	H	1.688171	0.475331	1.235803
O289	O	0.993343	-0.533934	0.219972
O290	O	1.326676	-0.200601	0.553305
O291	O	1.660010	0.132733	0.886638
H292	H	1.021366	-0.567820	0.192024
H293	H	1.354699	-0.234486	0.525357
H294	H	1.688032	0.098847	0.858690
O295	O	0.277923	-0.386835	0.387150
O296	O	0.611256	-0.053502	0.720484
O297	O	0.944590	0.279831	1.053817
H298	H	0.244024	-0.414857	0.415111
H299	H	0.577357	-0.081523	0.748444
H300	H	0.910691	0.251810	1.081778
H301	H	0.982846	-0.229937	0.663162
H302	H	1.316180	0.103396	0.996495
H303	H	1.649513	0.436730	1.329829
H304	H	0.836676	-0.376038	0.663053
H305	H	1.170009	-0.042704	0.996386
H306	H	1.503342	0.290629	1.329720
H307	H	0.836602	-0.661996	0.376516
H308	H	1.169935	-0.328662	0.709850
H309	H	1.503268	0.004671	1.043183
H310	H	0.836557	-0.542724	0.376503
H311	H	1.169890	-0.209391	0.709837
H312	H	1.503223	0.123943	1.043170
H313	H	0.982850	-0.943473	0.230664
H314	H	1.316184	-0.610140	0.563998
H315	H	1.649517	-0.276806	0.897331
O316	O	0.826100	-1.071521	0.387217
O317	O	1.159433	-0.738187	0.720550
O318	O	1.492766	-0.404854	1.053883
H319	H	0.832880	-1.122753	0.380468
H320	H	1.166213	-0.789419	0.713801
H321	H	1.499547	-0.456086	1.047135
O322	O	0.826004	-0.386714	0.535087
O323	O	1.159337	-0.053381	0.868421
O324	O	1.492670	0.279953	1.201754
H325	H	0.836759	-0.436117	0.547705
H326	H	1.170092	-0.102783	0.881038
H327	H	1.503425	0.230550	1.214372
H328	H	0.982857	-0.229842	0.944736
H329	H	1.316190	0.103492	1.278069
H330	H	1.649524	0.436825	1.611402
O331	O	0.993497	-0.219154	1.072706
O332	O	1.326830	0.114179	1.406039
O333	O	1.660163	0.447513	1.739372
H334	H	1.042895	-0.229952	1.060133
H335	H	1.376229	0.103381	1.393466
H336	H	1.709562	0.436714	1.726799
O337	O	0.678759	-0.386915	0.387006
O338	O	1.012093	-0.053582	0.720339
O339	O	1.345426	0.279751	1.053672
H340	H	0.644859	-0.414939	0.414962
H341	H	0.978192	-0.081606	0.748295
H342	H	1.311526	0.251728	1.081629
H343	H	0.149962	-0.376152	0.376580
H344	H	0.483296	-0.042818	0.709913
H345	H	0.816629	0.290515	1.043247
