data_functionalizedCrystal
_audit_creation_method	'MofGen! by Chris Wilmer'
_symmetry_space_group_name_H-M	'P1'
_symmetry_Int_Tables_number	1
_symmetry_cell_setting	triclinic
loop_
_symmetry_equiv_pos_as_xyz
  x,y,z
_cell_length_a	8.597340
_cell_length_b	14.044220
_cell_length_c	7.088929
_cell_angle_alpha	83.206932
_cell_angle_beta	103.954719
_cell_angle_gamma	89.223217
loop_
_atom_site_label
_atom_site_type_symbol
_atom_site_fract_x
_atom_site_fract_y
_atom_site_fract_z
O1	O	2.119898	0.130164	0.190218
O2	O	2.619898	0.630164	0.690218
O3	O	1.657418	0.145636	0.114029
O4	O	2.157418	0.645636	0.614029
O5	O	1.881718	-0.000080	0.150999
O6	O	2.381718	0.499920	0.650999
O7	O	1.895598	0.275880	0.153248
O8	O	2.395598	0.775880	0.653248
O9	O	1.911687	-0.019598	0.473914
O10	O	2.411687	0.480402	0.973914
O11	O	1.687387	0.126118	0.436943
O12	O	2.187387	0.626118	0.936943
O13	O	2.149867	0.110646	0.513133
O14	O	2.649867	0.610646	1.013133
Cu15	Cu	1.921363	0.116600	0.504523
Cu16	Cu	2.421363	0.616600	1.004523
Cu17	Cu	1.885921	0.139682	0.122639
Cu18	Cu	2.385921	0.639682	0.622639
O19	O	1.925567	0.256362	0.476162
O20	O	2.425567	0.756362	0.976162
C21	C	1.612857	0.135303	0.265677
C22	C	2.112857	0.635303	0.765677
C23	C	1.435431	0.133580	0.236448
C24	C	1.935431	0.633580	0.736448
C25	C	1.890625	-0.045148	0.311456
C26	C	2.390625	0.454852	0.811456
C27	C	1.872498	-0.150359	0.308472
C28	C	2.372498	0.349641	0.808472
C29	C	1.839354	-0.342992	0.302984
C30	C	2.339354	0.157008	0.802984
C31	C	1.967922	-0.400731	0.324159
C32	C	2.467922	0.099269	0.824159
C33	C	1.949481	-0.507918	0.321105
C34	C	2.449481	-0.007918	0.821105
C35	C	1.857793	-0.235794	0.306037
C36	C	2.357793	0.264206	0.806037
C37	C	2.194427	0.120979	0.361480
C38	C	2.694427	0.620979	0.861480
C39	C	2.371852	0.122703	0.390696
C40	C	2.871852	0.622703	0.890696
N41	N	1.946303	0.100365	0.773121
N42	N	2.446303	0.600365	1.273121
C43	C	1.916659	0.301431	0.315701
C44	C	2.416659	0.801431	0.815701
C45	C	1.934786	0.406642	0.318672
C46	C	2.434786	0.906642	0.818672
N47	N	1.860993	0.155909	-0.145958
N48	N	2.360993	0.655909	0.354042
H49	H	1.453158	0.114701	0.545123
H50	H	1.953158	0.614701	1.045123
Cl51	Cl	1.309899	0.145921	-0.001995
Cl52	Cl	1.809899	0.645921	0.498005
Cl53	Cl	2.159250	-0.352770	0.355699
Cl54	Cl	2.659250	0.147230	0.855699
H55	H	2.034736	0.042808	0.869353
H56	H	2.534736	0.542808	1.369353
Cl57	Cl	1.648040	-0.390955	0.271458
Cl58	Cl	2.148040	0.109045	0.771458
Cl59	Cl	1.724484	0.244779	0.705489
Cl60	Cl	2.224484	0.744779	1.205489
