data_functionalizedCrystal
_audit_creation_method	'MofGen! by Chris Wilmer'
_symmetry_space_group_name_H-M	'P1'
_symmetry_Int_Tables_number	1
_symmetry_cell_setting	triclinic
loop_
_symmetry_equiv_pos_as_xyz
  x,y,z
_cell_length_a	14.519709
_cell_length_b	10.654550
_cell_length_c	9.130313
_cell_angle_alpha	90.004369
_cell_angle_beta	89.997908
_cell_angle_gamma	84.082538
loop_
_atom_site_label
_atom_site_type_symbol
_atom_site_fract_x
_atom_site_fract_y
_atom_site_fract_z
O1	O	-1.224720	-0.164623	-0.121608
O2	O	-0.724720	0.335377	0.378392
O3	O	-0.956343	-0.184009	-0.121653
O4	O	-0.456343	0.315991	0.378347
O5	O	-1.096702	0.008483	-0.121620
O6	O	-0.596702	0.508483	0.378380
O7	O	-1.084361	-0.357115	-0.121641
O8	O	-0.584361	0.142885	0.378359
O9	O	-1.096692	0.008488	0.121979
O10	O	-0.596692	0.508488	0.621979
O11	O	-0.956334	-0.184004	0.121946
O12	O	-0.456334	0.315996	0.621946
O13	O	-1.224710	-0.164617	0.121991
O14	O	-0.724710	0.335383	0.621991
Cu15	Cu	-1.090521	-0.174310	0.144211
Cu16	Cu	-0.590521	0.325690	0.644211
Cu17	Cu	-1.090532	-0.174317	-0.143873
Cu18	Cu	-0.590532	0.325683	0.356127
O19	O	-1.084351	-0.357109	0.121958
O20	O	-0.584351	0.142891	0.621958
C21	C	-0.921974	-0.183103	0.000141
C22	C	-0.421974	0.316897	0.500141
C23	C	-0.819579	-0.180396	0.000124
C24	C	-0.319579	0.319604	0.500124
C25	C	-1.259079	-0.165524	0.000194
C26	C	-0.759079	0.334476	0.500194
C27	C	-1.361475	-0.168231	0.000201
C28	C	-0.861475	0.331769	0.500201
C29	C	-1.095791	0.055275	0.000178
C30	C	-0.595791	0.555275	0.500178
C31	C	-1.093080	0.194692	0.000176
C32	C	-0.593080	0.694692	0.500176
C33	C	-0.444631	-0.170428	0.000191
C34	C	0.055369	0.329572	0.500191
C35	C	-0.548954	-0.173196	0.000172
C36	C	-0.048954	0.326804	0.500172
C37	C	-0.632102	-0.175412	0.000156
C38	C	-0.132102	0.324588	0.500156
C39	C	-0.736431	-0.178180	0.000140
C40	C	-0.236431	0.321820	0.500140
C41	C	-1.085262	-0.403901	0.000156
C42	C	-0.585262	0.096099	0.500156
C43	C	-1.087973	-0.543318	0.000150
C44	C	-0.587973	-0.043318	0.500150
N45	N	-1.090520	-0.174305	0.346834
N46	N	-0.590520	0.325695	0.846834
C47	C	-1.175721	0.274972	0.000189
C48	C	-0.675721	0.774972	0.500189
C49	C	-1.173168	0.405968	0.000171
C50	C	-0.673168	0.905968	0.500171
C51	C	-1.005326	0.376391	0.000132
C52	C	-0.505326	0.876391	0.500132
C53	C	-1.007880	0.245397	0.000140
C54	C	-0.507880	0.745397	0.500140
N55	N	-1.090541	-0.174312	-0.346496
N56	N	-0.590541	0.325688	0.153504
C57	C	-1.152692	-0.089105	0.423500
C58	C	-0.652692	0.410895	0.923500
C59	C	-1.152701	-0.089105	0.576837
C60	C	-0.652701	0.410895	1.076837
C61	C	-1.028362	-0.259516	0.576827
C62	C	-0.528362	0.240484	1.076827
C63	C	-1.028350	-0.259509	0.423493
C64	C	-0.528350	0.240491	0.923493
H65	H	-1.240463	0.471328	0.000178
H66	H	-0.740463	0.971328	0.500178
C67	C	-0.913387	0.080919	-0.125107
C68	C	-0.413387	0.580919	0.374893
C69	C	-0.917033	0.157144	0.000121
C70	C	-0.417033	0.657144	0.500121
H71	H	-0.857302	0.026442	-0.125125
H72	H	-0.357302	0.526442	0.374875
H73	H	-0.964487	0.031978	-0.125081
H74	H	-0.464487	0.531978	0.374919
H75	H	-0.915886	0.132645	-0.210044
H76	H	-0.415886	0.632645	0.289956
H77	H	-0.914541	0.105418	0.085059
H78	H	-0.414541	0.605418	0.585059
H79	H	-0.865919	0.206089	0.000108
H80	H	-0.365919	0.706089	0.500108
C81	C	-0.869186	-0.332759	0.624067
C82	C	-0.369186	0.167241	1.124067
C83	C	-0.960031	-0.353169	0.661103
C84	C	-0.460031	0.146831	1.161103
H85	H	-0.827003	-0.390575	0.676103
H86	H	-0.327003	0.109425	1.176103
H87	H	-0.860284	-0.344956	0.521788
H88	H	-0.360284	0.155044	1.021788
H89	H	-0.858657	-0.248908	0.649217
H90	H	-0.358657	0.251092	1.149217
H91	H	-0.970562	-0.437019	0.635943
H92	H	-0.470562	0.062981	1.135943
H93	H	-0.968937	-0.340983	0.763405
H94	H	-0.468937	0.159017	1.263405
H95	H	-0.935959	0.417692	0.000106
H96	H	-0.435959	0.917692	0.500106
C97	C	-1.275586	0.079348	0.438916
C98	C	-0.775586	0.579348	0.938916
C99	C	-1.221019	0.004561	0.339234
C100	C	-0.721019	0.504561	0.839234
H101	H	-1.317764	0.137181	0.386894
H102	H	-0.817764	0.637181	0.886894
H103	H	-1.309095	0.026969	0.498703
H104	H	-0.809095	0.526969	0.998703
H105	H	-1.236905	0.124630	0.498739
H106	H	-0.736905	0.624630	0.998739
H107	H	-1.259700	-0.040728	0.279417
H108	H	-0.759700	0.459272	0.779417
H109	H	-1.187508	0.056947	0.279422
H110	H	-0.687508	0.556947	0.779422
C111	C	-0.975571	-0.476759	0.376240
C112	C	-0.475571	0.023241	0.876240
C113	C	-0.960008	-0.353172	0.339210
C114	C	-0.460008	0.146828	0.839210
H115	H	-0.933383	-0.534575	0.324198
H116	H	-0.433383	-0.034575	0.824198
H117	H	-0.966677	-0.488953	0.478518
H118	H	-0.466677	0.011047	0.978518
H119	H	-1.037205	-0.490569	0.351092
H120	H	-0.537205	0.009431	0.851092
H121	H	-0.898375	-0.339359	0.364368
H122	H	-0.398375	0.160641	0.864368
H123	H	-0.968894	-0.340973	0.236909
H124	H	-0.468894	0.159027	0.736909
H125	H	-1.245096	0.233692	0.000215
H126	H	-0.745096	0.733692	0.500215
H127	H	-1.203325	-0.019726	0.639254
H128	H	-0.703325	0.480274	1.139254
