data_functionalizedCrystal
_audit_creation_method	'MofGen! by Chris Wilmer'
_symmetry_space_group_name_H-M	'P1'
_symmetry_Int_Tables_number	1
_symmetry_cell_setting	triclinic
loop_
_symmetry_equiv_pos_as_xyz
  x,y,z
_cell_length_a	7.681481
_cell_length_b	16.109301
_cell_length_c	16.109304
_cell_angle_alpha	96.537941
_cell_angle_beta	84.262260
_cell_angle_gamma	84.275465
loop_
_atom_site_label
_atom_site_type_symbol
_atom_site_fract_x
_atom_site_fract_y
_atom_site_fract_z
O1	O	-0.146307	-1.095276	0.114734
O2	O	-0.146334	-0.853213	0.128035
O3	O	-0.146321	-0.980893	0.000353
O4	O	-0.146320	-0.967596	0.242415
O5	O	0.146539	-0.996608	-0.015398
O6	O	0.146526	-0.868928	0.112284
O7	O	0.146552	-1.110992	0.098983
Zn8	Zn	0.193037	-0.992455	0.103132
Zn9	Zn	-0.192818	-0.971750	0.123885
O10	O	0.146539	-0.983312	0.226664
C11	C	0.000092	-0.830096	0.119621
C12	C	0.000082	-0.737800	0.118006
N13	N	0.456372	-1.006592	0.088969
N14	N	-0.456154	-0.957619	0.138042
C15	C	0.000105	-0.988212	-0.038497
C16	C	0.000093	-0.986595	-0.130791
C17	C	0.000122	-1.134109	0.107397
C18	C	0.000121	-1.226404	0.109012
C19	C	0.000102	-0.515529	0.190013
C20	C	0.000114	-0.428809	0.188488
C21	C	0.000106	-0.448682	0.037000
C22	C	0.000107	-0.535401	0.038525
C23	C	0.000097	-0.568821	0.115034
C24	C	0.000107	-0.395383	0.111984
C25	C	0.000119	-0.301357	0.110331
C26	C	0.000088	-0.662853	0.116688
C27	C	-0.159539	-0.974295	-0.334543
C28	C	-0.159537	-0.972769	-0.421263
C29	C	0.159754	-0.989907	-0.438433
C30	C	0.159751	-0.991427	-0.351713
C31	C	0.000099	-0.983625	-0.299771
C32	C	0.000104	-0.980579	-0.473211
C33	C	0.000107	-0.978924	-0.567237
C34	C	0.000096	-0.985278	-0.205739
C35	C	0.000110	-0.975993	0.265514
C36	C	0.000110	-0.977609	0.357810
H37	H	0.468644	-0.907627	0.188131
H38	H	-0.289537	-0.967940	-0.292253
F39	F	0.554673	-1.071948	0.023502
F40	F	0.000098	-0.551095	0.271440
H41	H	0.000122	-0.385422	0.249543
F42	F	0.000110	-0.413105	-0.044422
F43	F	0.000113	-0.592123	-0.041283
H44	H	-0.289530	-0.965170	-0.449570
F45	F	0.329657	-0.998210	-0.493720
H46	H	0.289755	-0.999020	-0.323402
