data_functionalizedCrystal
_audit_creation_method	'MofGen! by Chris Wilmer'
_symmetry_space_group_name_H-M	'P1'
_symmetry_Int_Tables_number	1
_symmetry_cell_setting	triclinic
loop_
_symmetry_equiv_pos_as_xyz
  x,y,z
_cell_length_a	12.837943
_cell_length_b	15.995292
_cell_length_c	11.892095
_cell_angle_alpha	93.891493
_cell_angle_beta	85.689438
_cell_angle_gamma	89.148778
loop_
_atom_site_label
_atom_site_type_symbol
_atom_site_fract_x
_atom_site_fract_y
_atom_site_fract_z
O1	O	1.382024	0.212848	-0.093967
O2	O	1.080222	0.202095	-0.093975
O3	O	1.239405	0.086242	-0.093973
O4	O	1.222842	0.328702	-0.093970
O5	O	1.226132	0.095885	0.094035
O6	O	1.066950	0.211739	0.094032
O7	O	1.368752	0.222492	0.094040
Zn8	Zn	1.215744	0.218646	0.123886
Zn9	Zn	1.233231	0.205941	-0.123821
O10	O	1.209569	0.338345	0.094038
C11	C	1.034966	0.203285	0.000028
C12	C	0.919892	0.192451	0.000025
C13	C	0.678899	0.322690	0.000042
C14	C	0.570776	0.312515	0.000040
C15	C	0.595520	0.161926	0.000026
C16	C	0.703644	0.172102	0.000028
C17	C	0.745329	0.252486	0.000035
C18	C	0.853454	0.262660	0.000029
C19	C	0.878196	0.112072	0.000023
C20	C	0.770073	0.101897	0.000021
C21	C	1.232095	0.059814	0.000028
C22	C	1.230074	-0.033301	0.000020
C23	C	1.222644	-0.371632	0.000030
C24	C	1.337508	-0.339130	0.000453
C25	C	1.339722	-0.242303	0.000025
C26	C	1.226331	-0.203782	0.000025
C27	C	1.176468	-0.242973	-0.107334
C28	C	1.175091	-0.339878	-0.107420
C29	C	1.157652	-0.328956	0.106380
C30	C	1.161810	-0.232051	0.107795
C31	C	1.228409	-0.108920	0.000019
C32	C	1.220563	-0.466494	0.000028
C33	C	1.414008	0.221302	0.000035
C34	C	1.529083	0.232136	0.000031
C35	C	1.216880	0.364773	0.000034
C36	C	1.218901	0.457887	0.000035
N37	N	1.203817	0.227317	0.292940
N38	N	1.245165	0.197264	-0.292875
C39	C	1.328157	0.136878	0.529590
C40	C	1.319828	0.142946	0.647932
C41	C	1.178825	0.245516	0.647968
C42	C	1.187154	0.239448	0.529626
C43	C	1.261824	0.185128	0.470441
C44	C	1.270157	0.179065	0.352097
C45	C	1.129150	0.281630	0.352136
C46	C	1.120821	0.287698	0.470477
H47	H	0.736117	0.036451	0.000029
N48	N	1.098298	0.304108	0.711800
H49	H	1.026180	0.287512	0.691220
H50	H	1.103174	0.300608	0.795725
N51	N	1.209771	-0.197634	0.213005
H52	H	1.167937	-0.216022	0.282038
H53	H	1.284079	-0.219432	0.212216
N54	N	1.350682	0.120465	0.288276
H55	H	1.314527	0.077699	0.239189
H56	H	1.400017	0.153672	0.239227
H57	H	0.516692	0.369683	0.000050
H58	H	0.561554	0.096486	0.000114
H59	H	1.078588	-0.205353	0.114279
N60	N	0.949838	0.036342	0.000026
H61	H	0.941345	-0.001918	-0.069670
H62	H	1.024629	0.055047	0.000071
N63	N	0.898415	0.349358	0.000048
H64	H	0.976991	0.345154	0.000046
H65	H	0.879031	0.376890	-0.069643
N66	N	1.408699	0.078305	0.465746
H67	H	1.449462	0.048661	0.521175
H68	H	1.372486	0.035585	0.416650
H69	H	1.379276	-0.215741	0.076982
H70	H	1.060023	0.331922	0.518679
N71	N	1.057587	0.333672	0.288349
H72	H	1.068059	0.395112	0.308948
H73	H	1.074223	0.321522	0.204417
H74	H	1.073030	-0.349657	0.107103
H75	H	0.712840	0.388142	0.000046
N76	N	1.406871	-0.218368	-0.102088
H77	H	1.435141	-0.270750	-0.147002
H78	H	1.363467	-0.184698	-0.150925
N79	N	1.388977	-0.366294	0.102439
H80	H	1.338342	-0.399935	0.149359
H81	H	1.453099	-0.401899	0.076741
H82	H	1.373842	0.103655	0.696087
H83	H	1.220538	-0.367636	-0.187673
N84	N	1.403001	-0.378114	-0.100957
H85	H	1.372083	-0.362455	-0.172463
H86	H	1.476650	-0.356894	-0.099944
H87	H	1.091194	-0.361399	-0.112284
H88	H	1.093309	-0.217967	-0.111325
H89	H	1.221998	-0.223827	-0.187230
H90	H	1.188090	-0.349984	0.187758
