data_functionalizedCrystal
_audit_creation_method	'MofGen! by Chris Wilmer'
_symmetry_space_group_name_H-M	'P1'
_symmetry_Int_Tables_number	1
_symmetry_cell_setting	triclinic
loop_
_symmetry_equiv_pos_as_xyz
  x,y,z
_cell_length_a	16.625548
_cell_length_b	21.295417
_cell_length_c	16.625539
_cell_angle_alpha	89.968491
_cell_angle_beta	89.982945
_cell_angle_gamma	90.031575
loop_
_atom_site_label
_atom_site_type_symbol
_atom_site_fract_x
_atom_site_fract_y
_atom_site_fract_z
Zn1	Zn	1.232607	-0.250602	-0.455881
Zn2	Zn	1.232500	-0.355872	-0.321036
Zn3	Zn	1.097778	-0.250622	-0.321061
Zn4	Zn	1.097721	-0.355839	-0.455826
O5	O	1.165151	-0.303234	-0.388451
O6	O	1.345426	-0.264571	-0.438006
O7	O	1.214608	-0.341932	-0.208207
O8	O	1.115732	-0.162530	-0.338979
O9	O	1.345347	-0.341913	-0.338936
O10	O	1.214791	-0.162515	-0.438030
O11	O	1.115628	-0.264606	-0.208226
O12	O	0.984938	-0.264574	-0.338926
O13	O	1.115635	-0.341857	-0.568666
O14	O	0.984896	-0.341877	-0.437937
O15	O	1.214736	-0.264539	-0.568706
O16	O	1.214553	-0.443957	-0.338883
O17	O	1.115531	-0.443933	-0.437912
C18	C	0.955661	-0.303225	-0.388429
C19	C	0.866039	-0.303236	-0.388438
C20	C	0.537864	-0.303240	-0.388473
C21	C	0.629172	-0.303237	-0.388460
C22	C	0.701949	-0.303238	-0.388455
C23	C	0.793263	-0.303235	-0.388444
C24	C	1.165046	-0.466785	-0.388407
C25	C	1.165074	-0.536753	-0.388414
C26	C	1.216681	-0.569612	-0.336903
C27	C	1.216719	-0.635354	-0.336921
C28	C	1.165135	-0.668236	-0.388442
C29	C	1.113525	-0.635370	-0.439964
C30	C	1.113495	-0.569628	-0.439950
N31	N	1.094600	-0.771503	-0.394581
N32	N	1.094631	-0.833954	-0.394590
C33	C	1.165226	-0.866311	-0.388488
N34	N	1.235789	-0.833856	-0.382362
N35	N	1.235757	-0.771399	-0.382350
C36	C	1.165163	-0.739521	-0.388463
C37	C	1.216878	-0.970454	-0.336993
C38	C	1.216917	-1.036198	-0.337017
C39	C	1.113716	-1.036212	-0.440056
C40	C	1.113684	-0.970470	-0.440037
C41	C	1.165264	-0.937595	-0.388501
C42	C	1.375460	-0.303243	-0.388474
C43	C	1.465081	-0.303247	-0.388484
C44	C	1.165191	-0.303192	-0.598760
C45	C	1.165208	-0.303174	-0.688381
C46	C	1.165280	-0.139043	-0.388514
C47	C	1.165334	-0.069075	-0.388540
C48	C	1.165221	-0.303161	-0.761164
C49	C	1.165240	-0.303137	-0.852472
C50	C	1.165259	-0.303115	-0.925249
C51	C	1.165279	-0.303092	-1.016563
C52	C	1.165158	-0.303230	-0.178960
C53	C	1.165298	-0.303070	-0.089340
H54	H	1.258682	-0.542847	-0.294941
O55	O	1.063637	-1.068243	-0.490032
C56	C	1.017990	-1.169527	-0.535764
C57	C	1.074730	-1.133328	-0.479106
H58	H	1.026951	-1.222155	-0.526962
H59	H	0.952958	-1.156706	-0.521544
H60	H	1.032098	-1.156514	-0.600780
H61	H	1.060695	-1.146322	-0.414072
H62	H	1.139746	-1.146152	-0.493396
O63	O	1.063507	-0.938478	-0.489957
C64	C	0.954573	-0.864354	-0.500681
C65	C	1.011361	-0.900534	-0.444051
H66	H	0.912387	-0.833678	-0.463588
H67	H	0.991506	-0.833482	-0.542855
H68	H	0.917747	-0.899157	-0.537527
H69	H	1.048199	-0.865777	-0.407152
H70	H	0.974381	-0.931415	-0.401930
O71	O	1.266874	-0.667184	-0.286800
C72	C	1.369250	-0.660237	-0.184620
C73	C	1.312479	-0.624114	-0.241327
H74	H	1.406149	-0.625431	-0.147852
H75	H	1.332302	-0.691046	-0.142383
H76	H	1.411368	-0.690984	-0.221692
H77	H	1.270349	-0.593333	-0.204320
H78	H	1.349477	-0.593345	-0.283566
H79	H	1.071470	-0.542875	-0.481898
O80	O	1.267058	-0.938612	-0.286912
C81	C	1.369381	-0.945535	-0.184676
C82	C	1.312609	-0.981672	-0.241367
H83	H	1.406211	-0.980333	-0.147826
H84	H	1.411557	-0.914719	-0.221684
H85	H	1.332356	-0.914794	-0.142508
H86	H	1.349568	-1.012447	-0.283546
H87	H	1.270430	-1.012448	-0.204309
O88	O	1.063305	-0.667239	-0.489972
C89	C	0.926135	-0.687457	-0.528963
C90	C	0.982916	-0.651317	-0.472285
H91	H	0.861128	-0.674608	-0.514672
H92	H	0.940184	-0.674473	-0.594002
H93	H	0.935061	-0.740086	-0.520137
H94	H	0.974022	-0.598680	-0.481039
H95	H	0.968853	-0.664353	-0.407267
O96	O	1.267202	-1.068118	-0.287128
C97	C	1.376189	-1.142205	-0.276512
C98	C	1.319260	-1.106101	-0.333080
H99	H	1.418281	-1.172932	-0.313640
H100	H	1.413101	-1.107408	-0.239739
H101	H	1.339284	-1.173036	-0.234265
H102	H	1.356103	-1.075269	-0.375375
H103	H	1.282346	-1.140932	-0.369796
