data_functionalizedCrystal
_audit_creation_method	'MofGen! by Chris Wilmer'
_symmetry_space_group_name_H-M	'P1'
_symmetry_Int_Tables_number	1
_symmetry_cell_setting	triclinic
loop_
_symmetry_equiv_pos_as_xyz
  x,y,z
_cell_length_a	15.537862
_cell_length_b	19.188924
_cell_length_c	14.185328
_cell_angle_alpha	104.820741
_cell_angle_beta	108.250482
_cell_angle_gamma	65.203199
loop_
_atom_site_label
_atom_site_type_symbol
_atom_site_fract_x
_atom_site_fract_y
_atom_site_fract_z
O1	O	1.269931	-0.217781	0.083354
O2	O	0.995327	-0.137059	0.083372
O3	O	1.140554	-0.281069	0.083351
O4	O	1.124704	-0.073771	0.083375
O5	O	1.102488	-0.299682	-0.083493
O6	O	0.957261	-0.155672	-0.083471
O7	O	1.231865	-0.236393	-0.083490
Cu8	Cu	1.091087	-0.197732	-0.098715
Cu9	Cu	1.136105	-0.175720	0.098597
O10	O	1.086638	-0.092384	-0.083468
C11	C	0.941162	-0.137920	-0.000047
C12	C	0.836480	-0.112762	-0.000041
C13	C	0.677431	-0.010787	-0.000024
C14	C	0.775798	-0.034434	-0.000030
C15	C	0.798811	-0.167473	-0.000051
C16	C	0.700444	-0.143838	-0.000050
C17	C	0.639762	-0.065493	-0.000035
C18	C	0.662774	-0.198544	-0.000061
C19	C	0.564417	-0.174909	-0.000055
C20	C	0.503729	-0.096568	-0.000038
C21	C	0.541404	-0.041859	-0.000029
C22	C	0.723460	-0.276887	-0.000068
C23	C	0.685790	-0.331593	-0.000079
C24	C	0.587429	-0.307959	-0.000080
C25	C	0.526742	-0.229618	-0.000063
C26	C	0.549754	-0.362669	-0.000088
C27	C	0.451397	-0.339034	-0.000082
C28	C	0.428384	-0.205984	-0.000057
C29	C	1.121009	-0.316258	-0.000072
C30	C	1.119470	-0.393376	-0.000075
C31	C	1.139502	-0.419449	0.090872
C32	C	1.138045	-0.491905	0.090880
C33	C	1.116574	-0.538292	-0.000064
C34	C	1.096534	-0.512210	-0.091023
C35	C	1.097982	-0.439752	-0.091028
N36	N	1.152521	-0.678416	-0.067755
N37	N	1.151148	-0.747248	-0.067744
C38	C	1.112208	-0.756602	-0.000054
N39	N	1.074707	-0.694527	0.067640
N40	N	1.076084	-0.625690	0.067631
C41	C	1.115001	-0.616861	-0.000069
C42	C	1.130661	-0.861238	0.090907
C43	C	1.129197	-0.933694	0.090911
C44	C	1.087695	-0.954001	-0.090994
C45	C	1.089150	-0.881544	-0.090996
C46	C	1.110638	-0.835168	-0.000042
C47	C	1.286031	-0.235533	-0.000068
C48	C	1.390714	-0.260690	-0.000068
C49	C	1.106184	-0.057195	-0.000043
C50	C	1.107724	0.019925	-0.000034
N51	N	1.059432	-0.213216	-0.237493
C52	C	1.260697	-0.114713	-0.605096
C53	C	1.236740	-0.126458	-0.710123
C54	C	1.122722	-0.182294	-0.710111
C55	C	1.146666	-0.170550	-0.605081
C56	C	1.215655	-0.136760	-0.552582
C57	C	1.101624	-0.192597	-0.552568
C58	C	1.125570	-0.180858	-0.447548
C59	C	1.194558	-0.147071	-0.395041
C60	C	1.239601	-0.125020	-0.447562
C61	C	1.032641	-0.226392	-0.605069
C62	C	0.987599	-0.248440	-0.552555
C63	C	1.011539	-0.236695	-0.447533
C64	C	1.080528	-0.202909	-0.395027
C65	C	0.966497	-0.258746	-0.395012
C66	C	0.990443	-0.247006	-0.289992
C67	C	1.104474	-0.191169	-0.290007
N68	N	1.167768	-0.160244	0.237376
H69	H	0.378969	-0.142190	-0.000059
F70	F	0.942520	-0.270487	-0.234100
H71	H	1.072845	-0.860319	-0.165055
F72	F	0.614350	-0.446044	-0.000093
H73	H	1.066554	-0.209809	-0.752870
H74	H	1.013152	-0.235956	-0.690583
H75	H	1.156996	-0.381693	0.164934
F76	F	0.914178	-0.284401	-0.608440
F77	F	0.612839	0.072594	-0.000027
H78	H	1.154352	-0.513135	0.164942
H79	H	0.806460	0.010119	-0.000033
F80	F	0.863403	-0.250850	-0.000066
F81	F	1.073677	-0.561577	-0.187812
H82	H	0.803553	-0.296125	-0.000054
F83	F	0.399048	-0.071413	-0.000027
H84	H	0.735212	-0.395381	-0.000087
H85	H	1.081665	-0.418524	-0.165090
H86	H	0.420726	-0.383581	-0.000090
H87	H	1.273424	-0.108501	-0.752876
H88	H	1.214056	-0.137515	-0.309527
H89	H	1.160641	-0.163643	-0.247259
H90	H	0.910333	-0.286265	-0.437773
H91	H	1.148152	-0.823475	0.164967
F92	F	0.476811	0.041523	-0.000032
F93	F	1.150513	-0.961438	0.187714
F94	F	1.064839	-1.003363	-0.187785
H95	H	1.295768	-0.097495	-0.404814
H96	H	1.316864	-0.087187	-0.562348
