data_functionalizedCrystal
_audit_creation_method	'MofGen! by Chris Wilmer'
_symmetry_space_group_name_H-M	'P1'
_symmetry_Int_Tables_number	1
_symmetry_cell_setting	triclinic
loop_
_symmetry_equiv_pos_as_xyz
  x,y,z
_cell_length_a	21.295417
_cell_length_b	19.121379
_cell_length_c	19.121175
_cell_angle_alpha	90.126312
_cell_angle_beta	92.410242
_cell_angle_gamma	87.528688
loop_
_atom_site_label
_atom_site_type_symbol
_atom_site_fract_x
_atom_site_fract_y
_atom_site_fract_z
Zn1	Zn	-0.222425	-1.088629	-0.350792
Zn2	Zn	0.277575	-0.588629	0.149208
Zn3	Zn	-0.323407	-1.083537	-0.233552
Zn4	Zn	0.176593	-0.583537	0.266448
Zn5	Zn	-0.222824	-0.966399	-0.238556
Zn6	Zn	0.277176	-0.466399	0.261444
Zn7	Zn	-0.332332	-0.971345	-0.355733
Zn8	Zn	0.167668	-0.471345	0.144267
O9	O	-0.275247	-1.027478	-0.294658
O10	O	0.224753	-0.527478	0.205342
O11	O	-0.231919	-1.186060	-0.331078
O12	O	0.268081	-0.686060	0.168922
O13	O	-0.306497	-1.063798	-0.136111
O14	O	0.193503	-0.563798	0.363889
O15	O	-0.134681	-0.982674	-0.253471
O16	O	0.365319	-0.482674	0.246529
O17	O	-0.306110	-1.182319	-0.244942
O18	O	0.193890	-0.682319	0.255058
O19	O	-0.134387	-1.072476	-0.335931
O20	O	0.365613	-0.572476	0.164069
O21	O	-0.232599	-0.977737	-0.139788
O22	O	0.267401	-0.477737	0.360212
O23	O	-0.241253	-0.868949	-0.258262
O24	O	0.258747	-0.368949	0.241738
O25	O	-0.321321	-0.991104	-0.453182
O26	O	0.178679	-0.491104	0.046818
O27	O	-0.321707	-0.872583	-0.344352
O28	O	0.178293	-0.372583	0.155648
O29	O	-0.240573	-1.077272	-0.449552
O30	O	0.259427	-0.577272	0.050448
O31	O	-0.412682	-1.068594	-0.249733
O32	O	0.087318	-0.568594	0.250267
O33	O	-0.419239	-0.986167	-0.339499
O34	O	0.080761	-0.486167	0.160501
C35	C	-0.282492	-0.845328	-0.302386
C36	C	0.217508	-0.345328	0.197614
C37	C	-0.285607	-0.767404	-0.305709
C38	C	0.214393	-0.267404	0.194291
C39	C	-0.245124	-0.728886	-0.262522
C40	C	0.254876	-0.228886	0.237478
C41	C	-0.248057	-0.655669	-0.265644
C42	C	0.251943	-0.155669	0.234356
C43	C	-0.291470	-0.620971	-0.311957
C44	C	0.208530	-0.120971	0.188043
C45	C	-0.331957	-0.659494	-0.355146
C46	C	0.168043	-0.159494	0.144854
C47	C	-0.329027	-0.732710	-0.352020
C48	C	0.170973	-0.232710	0.147980
C49	C	-0.302418	-0.400001	-0.323631
C50	C	0.197582	0.099999	0.176369
C51	C	-0.305343	-0.326780	-0.326755
C52	C	0.194657	0.173220	0.173245
C53	C	-0.221443	-0.322959	-0.237251
C54	C	0.278557	0.177041	0.262749
C55	C	-0.218515	-0.396177	-0.234132
C56	C	0.281485	0.103823	0.265868
C57	C	-0.259004	-0.434694	-0.277319
C58	C	0.240996	0.065306	0.222681
C59	C	-0.294467	-0.546131	-0.315151
C60	C	0.205533	-0.046131	0.184849
C61	C	-0.256010	-0.509533	-0.274121
C62	C	0.243990	-0.009533	0.225879
C63	C	-0.438801	-1.027384	-0.294623
C64	C	0.061199	-0.527384	0.205377
C65	C	-0.508768	-1.027409	-0.294629
C66	C	-0.008768	-0.527409	0.205371
C67	C	-0.538200	-1.070371	-0.247932
C68	C	-0.038200	-0.570371	0.252068
C69	C	-0.603942	-1.070404	-0.247947
C70	C	-0.103942	-0.570404	0.252053
C71	C	-0.640250	-1.027463	-0.294651
C72	C	-0.140250	-0.527463	0.205349
C73	C	-0.610811	-0.984499	-0.341357
C74	C	-0.110811	-0.484499	0.158643
C75	C	-0.545070	-0.984472	-0.341346
C76	C	-0.045070	-0.484472	0.158654
N77	N	-0.746155	-0.966362	-0.302598
N78	N	-0.246155	-0.466362	0.197402
N79	N	-0.808605	-0.966389	-0.302604
N80	N	-0.308605	-0.466389	0.197396
C81	C	-0.838323	-1.027544	-0.294688
C82	C	-0.338323	-0.527544	0.205312
N83	N	-0.803230	-1.088670	-0.286752
N84	N	-0.303230	-0.588670	0.213248
N85	N	-0.740773	-1.088642	-0.286742
N86	N	-0.240773	-0.588642	0.213258
C87	C	-0.711535	-1.027488	-0.294669
C88	C	-0.211535	-0.527488	0.205331
C89	C	-0.939039	-1.070545	-0.248004
C90	C	-0.439039	-0.570545	0.251996
C91	C	-1.004782	-1.070580	-0.248023
C92	C	-0.504782	-0.570580	0.251977
C93	C	-1.011649	-0.984669	-0.341430
C94	C	-0.511649	-0.484669	0.158570
C95	C	-0.945907	-0.984640	-0.341414
C96	C	-0.445907	-0.484640	0.158586
C97	C	-0.909606	-1.027577	-0.294698
C98	C	-0.409606	-0.527577	0.205302
C99	C	-0.111054	-1.027591	-0.294708
C100	C	0.388946	-0.527591	0.205292
C101	C	-0.041085	-1.027640	-0.294729
C102	C	0.458915	-0.527640	0.205271
C103	C	-0.281898	-1.035307	-0.477516
C104	C	0.218102	-0.535307	0.022484
C105	C	-0.284732	-1.038644	-0.555439
C106	C	0.215268	-0.538644	-0.055439
C107	C	-0.267971	-0.210338	-0.286894
C108	C	0.232029	0.289662	0.213106
C109	C	-0.264860	-0.288262	-0.283567
C110	C	0.235140	0.211738	0.216433
C111	C	-0.247589	-0.995406	-0.593961
C112	C	0.252411	-0.495406	-0.093961
C113	C	-0.250257	-0.998539	-0.667178
C114	C	0.249743	-0.498539	-0.167178
C115	C	-0.290065	-1.044913	-0.701871
C116	C	0.209935	-0.544913	-0.201871
C117	C	-0.327212	-1.088152	-0.663344
C118	C	0.172788	-0.588152	-0.163344
C119	C	-0.324547	-1.085016	-0.590129
C120	C	0.175453	-0.585016	-0.090129
C121	C	-0.300040	-1.056621	-0.922839
C122	C	0.199960	-0.556621	-0.422839
C123	C	-0.302701	-1.059756	-0.996060
C124	C	0.197299	-0.559756	-0.496060
C125	C	-0.225747	-0.970141	-0.999889
C126	C	0.274253	-0.470141	-0.499889
C127	C	-0.223083	-0.967011	-0.926672
C128	C	0.276917	-0.467011	-0.426672
C129	C	-0.260232	-1.010248	-0.888151
C130	C	0.239768	-0.510248	-0.388151
C131	C	-0.292792	-1.048117	-0.776711
C132	C	0.207208	-0.548117	-0.276711
C133	C	-0.257508	-1.007040	-0.813313
C134	C	0.242492	-0.507040	-0.313313
C135	C	-0.268576	-1.019719	-0.112511
C136	C	0.231424	-0.519719	0.387489
C137	C	-0.265559	-1.016518	-0.034582
C138	C	0.234441	-0.516518	0.465418
H139	H	-0.215095	-0.624310	-0.230472
H140	H	0.284905	-0.124310	0.269528
H141	H	-0.921943	-0.949654	-0.379437
H142	H	-0.421943	-0.449654	0.120563
H143	H	-0.329813	-0.517872	-0.352860
H144	H	0.170187	-0.017872	0.147140
H145	H	-1.028744	-1.105569	-0.209998
H146	H	-0.528744	-0.605569	0.290002
C147	C	-0.498272	-1.117595	-0.196535
C148	C	0.001728	-0.617595	0.303465
N149	N	-0.468198	-1.153162	-0.157819
N150	N	0.031802	-0.653162	0.342181
H151	H	-0.220665	-0.537787	-0.236410
H152	H	0.279335	-0.037787	0.263590
H153	H	-0.209768	-0.757132	-0.224814
H154	H	0.290232	-0.257132	0.275186
C155	C	-0.346957	-0.442360	-0.371138
C156	C	0.153043	0.057640	0.128862
N157	N	-0.380507	-0.474267	-0.406922
N158	N	0.119493	0.025733	0.093078
H159	H	-0.521106	-0.949487	-0.379373
H160	H	-0.021106	-0.449487	0.120627
H161	H	-0.220014	-0.963327	-0.698540
H162	H	0.279986	-0.463327	-0.198540
C163	C	-0.170758	-0.434339	-0.183183
C164	C	0.329242	0.065661	0.316817
N165	N	-0.134786	-0.463083	-0.144808
N166	N	0.365214	0.036917	0.355192
H167	H	-0.190669	-0.929247	-0.898429
H168	H	0.309331	-0.429247	-0.398429
C169	C	-0.650750	-0.937261	-0.392730
C170	C	-0.150750	-0.437261	0.107270
N171	N	-0.680833	-0.901681	-0.431426
N172	N	-0.180833	-0.401681	0.068574
H173	H	-0.340695	-0.298531	-0.364473
H174	H	0.159305	0.201469	0.135527
C175	C	-0.176912	-0.280585	-0.189745
C176	C	0.323088	0.219415	0.310255
N177	N	-0.143370	-0.248668	-0.153959
N178	N	0.356630	0.251332	0.346041
C179	C	-0.379712	-0.621324	-0.406091
C180	C	0.120288	-0.121324	0.093909
N181	N	-0.415681	-0.592574	-0.444466
N182	N	0.084319	-0.092574	0.055534
H183	H	-0.909481	-1.105510	-0.209966
H184	H	-0.409481	-0.605510	0.290034
C185	C	-1.051584	-0.937434	-0.392807
C186	C	-0.551584	-0.437434	0.107193
N187	N	-1.081667	-0.901857	-0.431507
N188	N	-0.581667	-0.401857	0.068493
H189	H	-0.361993	-0.764071	-0.387188
H190	H	0.138007	-0.264071	0.112812
C191	C	-0.636324	-1.117663	-0.196571
C192	C	-0.136324	-0.617663	0.303429
N193	N	-0.660712	-1.153257	-0.157873
N194	N	-0.160712	-0.653257	0.342127
C195	C	-0.365404	-1.132584	-0.547755
C196	C	0.134596	-0.632584	-0.047755
N197	N	-0.396179	-1.168414	-0.515839
N198	N	0.103821	-0.668414	-0.015839
C199	C	-0.203797	-0.944390	-0.555805
C200	C	0.296203	-0.444390	-0.055805
N201	N	-0.170814	-0.905962	-0.527068
N202	N	0.329186	-0.405962	-0.027068
H203	H	-0.195503	-0.934939	-1.031260
H204	H	0.304497	-0.434939	-0.531260
H205	H	-0.335118	-1.097522	-1.024305
H206	H	0.164882	-0.597522	-0.524305
H207	H	-0.330297	-1.091820	-0.891485
H208	H	0.169703	-0.591820	-0.391485
H209	H	-0.225099	-0.969280	-0.785063
H210	H	0.274901	-0.469280	-0.285063
C211	C	-0.371150	-1.139005	-0.701516
C212	C	0.128850	-0.639005	-0.201516
N213	N	-0.404297	-1.177253	-0.730269
N214	N	0.095703	-0.677253	-0.230269
H215	H	-0.325204	-1.085875	-0.804967
H216	H	0.174796	-0.585875	-0.304967
