data_functionalizedCrystal
_audit_creation_method	'MofGen! by Chris Wilmer'
_symmetry_space_group_name_H-M	'P1'
_symmetry_Int_Tables_number	1
_symmetry_cell_setting	triclinic
loop_
_symmetry_equiv_pos_as_xyz
  x,y,z
_cell_length_a	27.732048
_cell_length_b	11.792241
_cell_length_c	10.268362
_cell_angle_alpha	90.000374
_cell_angle_beta	89.989776
_cell_angle_gamma	96.581964
loop_
_atom_site_label
_atom_site_type_symbol
_atom_site_fract_x
_atom_site_fract_y
_atom_site_fract_z
O1	O	0.066248	-1.504790	-0.108189
O2	O	0.073076	-1.174230	-0.108221
O3	O	-0.000675	-1.349776	-0.108179
O4	O	0.139999	-1.329243	-0.108231
O5	O	-0.000678	-1.349761	0.108421
O6	O	0.073073	-1.174215	0.108379
O7	O	0.066245	-1.504775	0.108411
Cu8	Cu	0.069659	-1.339493	0.128173
Cu9	Cu	0.069662	-1.339511	-0.127983
O10	O	0.139996	-1.329228	0.108370
C11	C	0.072645	-1.131945	0.000075
C12	C	0.071362	-1.005973	0.000064
C13	C	-0.018686	-1.349338	0.000124
C14	C	-0.072348	-1.348040	0.000135
C15	C	0.066676	-1.547059	0.000112
C16	C	0.067959	-1.673032	0.000114
C17	C	-0.410609	-1.443606	0.000077
C18	C	-0.612297	-1.438790	0.000059
O19	O	-0.643045	-1.526178	0.000010
N20	N	-0.632024	-1.334698	0.000050
C21	C	-0.601327	-1.231803	0.000037
O22	O	-0.622734	-1.143157	0.000016
C23	C	-0.399640	-1.236620	0.000046
C24	C	-0.379915	-1.340718	0.000069
C25	C	-0.390884	-1.547695	0.000098
C26	C	-0.340465	-1.548898	0.000110
C27	C	-0.309771	-1.446011	0.000101
C28	C	-0.329496	-1.341921	0.000080
C29	C	-0.368943	-1.133726	0.000024
C30	C	-0.318519	-1.134940	0.000023
C31	C	-0.298794	-1.239038	0.000045
C32	C	-0.248384	-1.240237	0.000083
N33	N	-0.228656	-1.344328	0.000092
C34	C	-0.259350	-1.447215	0.000101
C35	C	-0.707215	-1.229282	0.000035
C36	C	-0.757637	-1.228077	0.000035
C37	C	-0.768603	-1.435065	0.000054
C38	C	-0.718181	-1.436268	0.000063
C39	C	-0.687488	-1.333374	0.000044
C40	C	-0.153466	-1.449733	0.000127
C41	C	-0.103042	-1.450927	0.000144
C42	C	-0.092080	-1.243941	0.000118
C43	C	-0.142500	-1.242746	0.000108
C44	C	-0.173192	-1.345652	0.000108
O45	O	-0.217607	-1.152896	0.000117
O46	O	-0.237933	-1.535849	0.000093
C47	C	-0.461028	-1.442403	0.000066
C48	C	-0.480753	-1.338313	0.000045
C49	C	-0.450060	-1.235426	0.000036
C50	C	-0.531175	-1.337108	0.000045
C51	C	-0.561868	-1.439996	0.000054
C52	C	-0.542141	-1.544087	0.000063
C53	C	-0.491722	-1.545290	0.000074
C54	C	-0.469787	-1.131334	0.000027
C55	C	-0.520207	-1.130140	0.000017
C56	C	-0.550900	-1.233027	0.000026
C57	C	0.158007	-1.329667	0.000063
C58	C	0.211669	-1.330965	0.000044
N59	N	0.069656	-1.339489	0.308339
C60	C	0.069001	-0.775336	0.000103
C61	C	0.070313	-0.903679	0.000082
N62	N	0.069661	-1.339525	-0.308148
C63	C	0.069661	-1.339506	0.574009
C64	C	0.069660	-1.339493	0.426171
H65	H	-0.086985	-1.535700	0.000165
C66	C	-0.419261	-1.012295	-0.111370
C67	C	-0.390616	-1.019296	-0.000016
H68	H	-0.432641	-0.941647	-0.111391
H69	H	-0.399812	-1.017091	-0.186881
H70	H	-0.444762	-1.073391	-0.111342
H71	H	-0.365112	-0.958204	-0.000048
H72	H	-0.410065	-1.014488	0.075516
C73	C	-0.807965	-1.106644	-0.111323
C74	C	-0.779316	-1.113651	0.000024
H75	H	-0.821349	-1.036002	-0.111329
H76	H	-0.788517	-1.111424	-0.186840
H77	H	-0.833463	-1.167748	-0.111301
H78	H	-0.753815	-1.052552	-0.000003
H79	H	-0.798765	-1.108860	0.075560
H80	H	-0.702125	-1.521034	0.000080
H81	H	-0.293530	-1.051148	0.000006
H82	H	-0.475667	-1.630058	0.000092
C83	C	-0.453936	-1.666467	-0.111236
C84	C	-0.424616	-1.660805	0.000108
H85	H	-0.474756	-1.736305	-0.111224
H86	H	-0.472906	-1.604323	-0.111236
H87	H	-0.434029	-1.662631	-0.186763
H88	H	-0.444524	-1.664632	0.075635
H89	H	-0.405644	-1.722966	0.000120
H90	H	-0.682229	-1.145488	0.000019
C91	C	-0.126592	-1.038270	0.000076
C92	C	-0.164184	-1.128322	0.000082
H93	H	-0.139978	-0.967629	0.000040
H94	H	-0.107166	-1.043032	0.075618
H95	H	-0.107143	-1.043067	-0.075449
H96	H	-0.183631	-1.123529	0.075612
H97	H	-0.183618	-1.123557	-0.075468
C98	C	-0.216535	-1.568470	0.111474
C99	C	-0.187199	-1.562846	0.000134
H100	H	-0.237362	-1.638298	0.111478
H101	H	-0.196643	-1.564625	0.186996
H102	H	-0.235503	-1.506308	0.111445
H103	H	-0.168229	-1.625004	0.000168
H104	H	-0.207094	-1.566702	-0.075406
C105	C	-0.009915	-1.153902	0.000102
C106	C	-0.058335	-1.130850	0.000100
H107	H	0.010918	-1.084083	0.000076
H108	H	-0.003915	-1.196603	0.075642
H109	H	-0.003908	-1.196640	-0.075425
H110	H	-0.064342	-1.088120	0.075633
H111	H	-0.064338	-1.088132	-0.075448
H112	H	-0.793603	-1.518839	0.000062
C113	C	-0.624306	-1.634128	0.000044
C114	C	-0.575886	-1.657183	0.000063
H115	H	-0.645139	-1.703946	0.000030
H116	H	-0.630318	-1.591414	0.075571
H117	H	-0.630299	-1.591402	-0.075496
H118	H	-0.569892	-1.699902	0.075609
H119	H	-0.569872	-1.699915	-0.075471
H120	H	-0.536261	-1.045364	0.000010
H121	H	-0.324410	-1.633666	0.000122
H122	H	-0.444801	-1.047549	0.000017
