data_functionalizedCrystal
_audit_creation_method	'MofGen! by Chris Wilmer'
_symmetry_space_group_name_H-M	'P1'
_symmetry_Int_Tables_number	1
_symmetry_cell_setting	triclinic
loop_
_symmetry_equiv_pos_as_xyz
  x,y,z
_cell_length_a	12.837943
_cell_length_b	10.654550
_cell_length_c	9.730223
_cell_angle_alpha	89.996328
_cell_angle_beta	89.998521
_cell_angle_gamma	89.656935
loop_
_atom_site_label
_atom_site_type_symbol
_atom_site_fract_x
_atom_site_fract_y
_atom_site_fract_z
O1	O	-1.377800	-0.326749	0.114265
O2	O	-1.075879	-0.310608	0.114273
O3	O	-1.233781	-0.136697	0.114260
O4	O	-1.219898	-0.500661	0.114278
O5	O	-1.233773	-0.136693	-0.114320
O6	O	-1.075870	-0.310604	-0.114307
O7	O	-1.377792	-0.326745	-0.114315
Zn8	Zn	-1.226830	-0.318674	-0.150603
Zn9	Zn	-1.226841	-0.318679	0.150561
O10	O	-1.219889	-0.500656	-0.114302
C11	C	-1.037215	-0.305153	-0.000016
C12	C	-0.922021	-0.288891	-0.000013
C13	C	-1.232758	-0.089786	-0.000029
C14	C	-1.229708	0.049990	-0.000027
C15	C	-1.416456	-0.332200	-0.000023
C16	C	-1.531650	-0.348462	-0.000017
C17	C	-0.682468	-0.484395	-0.000023
C18	C	-0.574232	-0.469121	-0.000021
C19	C	-0.597312	-0.243070	-0.000018
C20	C	-0.705547	-0.258344	-0.000019
C21	C	-0.748121	-0.379010	-0.000020
C22	C	-0.856359	-0.394284	-0.000012
C23	C	-0.879436	-0.168233	-0.000018
C24	C	-0.771201	-0.152959	-0.000016
C25	C	-1.220913	-0.547568	-0.000010
C26	C	-1.223963	-0.687344	-0.000003
N27	N	-1.226830	-0.318670	-0.356139
C28	C	-1.322678	0.119331	-0.000029
C29	C	-1.319806	0.250665	-0.000012
C30	C	-1.130985	0.243307	0.000003
C31	C	-1.133858	0.111975	-0.000004
C32	C	-1.296778	-0.241697	-0.571963
C33	C	-1.296772	-0.241698	-0.428080
C34	C	-1.156897	-0.395656	-0.428089
C35	C	-1.156910	-0.395661	-0.571969
N36	N	-1.226849	-0.318674	0.356098
H37	H	-0.717132	-0.582647	-0.000022
O38	O	-1.364816	-0.166883	-0.641627
C39	C	-1.426516	-0.098918	-0.547271
H40	H	-1.428050	-0.150593	-0.444705
H41	H	-1.392158	-0.001492	-0.531979
C42	C	-1.536369	-0.023008	-0.729380
C43	C	-1.538260	-0.086482	-0.603410
H44	H	-1.605297	-0.015331	-0.764010
H45	H	-1.494798	-0.068793	-0.792951
H46	H	-1.507732	0.058173	-0.716619
H47	H	-1.566884	-0.167667	-0.616175
H48	H	-1.579839	-0.040710	-0.539842
H49	H	-0.891020	-0.492536	-0.000015
O50	O	-1.364484	-0.166675	-0.358151
C51	C	-1.308235	-0.082426	-0.275113
H52	H	-1.227480	-0.122877	-0.253464
H53	H	-1.300357	0.011207	-0.330754
C54	C	-1.465702	-0.012552	-0.165081
C55	C	-1.366521	-0.062240	-0.138482
H56	H	-1.501657	-0.000095	-0.080802
H57	H	-1.503600	-0.069308	-0.221028
H58	H	-1.459123	0.065470	-0.211451
H59	H	-1.373101	-0.140267	-0.092128
H60	H	-1.328626	-0.005496	-0.082523
H61	H	-0.520780	-0.554937	-0.000028
H62	H	-1.099953	-0.458334	-0.369506
O63	O	-1.088875	-0.470474	-0.641647
C64	C	-1.027153	-0.538438	-0.547308
H65	H	-1.025599	-0.486764	-0.444749
H66	H	-1.061505	-0.635865	-0.531989
C67	C	-0.917335	-0.614342	-0.729453
C68	C	-0.915420	-0.550868	-0.603493
H69	H	-0.848414	-0.622015	-0.764112
H70	H	-0.958920	-0.568557	-0.793013
H71	H	-0.945967	-0.695524	-0.716671
H72	H	-0.886801	-0.469683	-0.616280
H73	H	-0.873827	-0.596640	-0.539936
H74	H	-0.736522	-0.054715	-0.000032
H75	H	-0.562629	-0.144828	-0.000131
H76	H	-0.932904	-0.082421	-0.000006
H77	H	-1.400725	0.068867	-0.000044
H78	H	-1.395513	0.307116	-0.000010
H79	H	-1.052948	0.293791	0.000019
H80	H	-1.058146	0.055516	0.000002
