data_functionalizedCrystal
_audit_creation_method	'MofGen! by Chris Wilmer'
_symmetry_space_group_name_H-M	'P1'
_symmetry_Int_Tables_number	1
_symmetry_cell_setting	triclinic
loop_
_symmetry_equiv_pos_as_xyz
  x,y,z
_cell_length_a	16.992701
_cell_length_b	12.811415
_cell_length_c	16.053802
_cell_angle_alpha	87.154093
_cell_angle_beta	87.243340
_cell_angle_gamma	87.340280
loop_
_atom_site_label
_atom_site_type_symbol
_atom_site_fract_x
_atom_site_fract_y
_atom_site_fract_z
O1	O	1.045194	0.217482	-0.085899
O2	O	0.816892	0.215053	-0.085716
O3	O	0.936241	0.064642	-0.074324
O4	O	0.925845	0.367893	-0.097291
O5	O	0.929672	0.072884	0.063911
O6	O	0.810323	0.223296	0.052519
O7	O	1.038625	0.225724	0.052335
Zn8	Zn	0.923431	0.225819	0.074375
Zn9	Zn	0.932086	0.214959	-0.107755
O10	O	0.919275	0.376136	0.040943
C11	C	0.784373	0.216047	-0.016362
C12	C	0.697265	0.206716	-0.015655
C13	C	0.207875	0.144019	-0.010910
C14	C	0.289721	0.152795	-0.011569
C15	C	0.321944	0.251614	-0.019058
C16	C	0.272315	0.341663	-0.025878
C17	C	0.190469	0.332887	-0.025212
C18	C	0.565791	0.287989	-0.021810
C19	C	0.647642	0.296759	-0.022478
C20	C	0.665043	0.107889	-0.008167
C21	C	0.583196	0.099121	-0.007507
C22	C	0.533574	0.189170	-0.014324
N23	N	0.405604	0.260586	-0.019735
N24	N	0.449915	0.180197	-0.013641
C25	C	0.932173	0.029781	-0.002256
C26	C	0.929828	-0.086375	0.006536
C27	C	0.932570	-0.313620	-0.127663
C28	C	0.930367	-0.422758	-0.119406
C29	C	0.923213	-0.413792	0.031306
C30	C	0.925416	-0.304653	0.023050
C31	C	0.930096	-0.254571	-0.056438
C32	C	0.932304	-0.145431	-0.064694
C33	C	0.925145	-0.136466	0.086018
C34	C	0.922941	-0.245605	0.094275
C35	C	1.071143	0.224730	-0.017020
C36	C	1.158252	0.234061	-0.017732
C37	C	0.923344	0.410997	-0.031126
C38	C	0.925689	0.527152	-0.039924
N39	N	0.917529	0.233230	0.198674
N40	N	0.937994	0.207539	-0.232053
C41	C	0.968331	0.169256	0.247213
C42	C	0.964210	0.174451	0.334227
C43	C	0.909291	0.243626	0.372698
C44	C	0.858483	0.307603	0.324153
C45	C	0.862601	0.302402	0.237142
C46	C	0.891304	0.266315	0.632390
C47	C	0.887192	0.271514	0.719407
C48	C	0.992918	0.138359	0.729475
C49	C	0.997034	0.133169	0.642461
C50	C	0.946224	0.197142	0.593924
N51	N	0.905079	0.248941	0.461640
N52	N	0.950433	0.191822	0.504984
H53	H	0.330121	0.079472	-0.006010
C54	C	0.135885	0.431941	-0.032719
N55	N	0.094772	0.506552	-0.038372
C56	C	0.937722	-0.258528	-0.215098
N57	N	0.941602	-0.217034	-0.280957
C58	C	0.307762	0.450366	-0.034113
N59	N	0.334461	0.532243	-0.040318
C60	C	0.826771	0.347612	0.761724
N61	N	0.781265	0.404927	0.793598
H62	H	0.936117	-0.104657	-0.129417
H63	H	0.813762	0.363924	0.355482
H64	H	0.849934	0.318407	0.592877
H65	H	0.932379	-0.470831	-0.177405
C66	C	0.683085	0.405472	-0.030714
N67	N	0.709780	0.487351	-0.036920
H68	H	1.013056	0.112931	0.215895
C69	C	0.547757	-0.009587	0.000747
N70	N	0.521064	-0.091467	0.006969
C71	C	0.719633	0.008842	-0.000657
N72	N	0.760750	-0.065764	0.005005
C73	C	0.511216	0.387048	-0.029297
N74	N	0.470107	0.461665	-0.034932
H75	H	0.919396	-0.454587	0.096021
C76	C	0.172438	0.035309	-0.002671
N77	N	0.145749	-0.046574	0.003540
H78	H	0.919128	-0.286396	0.158991
C79	C	0.922424	-0.071504	0.164371
N80	N	0.920378	-0.022574	0.223385
C81	C	1.020078	0.104047	0.387618
N82	N	1.062153	0.051005	0.427833
C83	C	0.806720	0.372788	0.183748
N84	N	0.764630	0.425806	0.143532
H85	H	1.041754	0.076841	0.611140
H86	H	1.034285	0.086274	0.769002
