data_functionalizedCrystal
_audit_creation_method	'MofGen! by Chris Wilmer'
_symmetry_space_group_name_H-M	'P1'
_symmetry_Int_Tables_number	1
_symmetry_cell_setting	triclinic
loop_
_symmetry_equiv_pos_as_xyz
  x,y,z
_cell_length_a	12.759400
_cell_length_b	19.077105
_cell_length_c	19.077579
_cell_angle_alpha	94.699334
_cell_angle_beta	87.678171
_cell_angle_gamma	92.288832
loop_
_atom_site_label
_atom_site_type_symbol
_atom_site_fract_x
_atom_site_fract_y
_atom_site_fract_z
Zn1	Zn	-0.457488	-1.093759	-0.441867
Zn2	Zn	0.042512	-0.593759	0.058133
Zn3	Zn	-0.639964	-1.088965	-0.323985
Zn4	Zn	-0.139964	-0.588965	0.176015
Zn5	Zn	-0.457506	-0.971144	-0.319263
Zn6	Zn	0.042494	-0.471144	0.180737
Zn7	Zn	-0.626329	-0.975857	-0.437104
Zn8	Zn	-0.126329	-0.475857	0.062896
O9	O	-0.545322	-1.032431	-0.380555
O10	O	-0.045322	-0.532431	0.119445
O11	O	-0.487393	-1.191774	-0.430199
O12	O	0.012607	-0.691774	0.069801
O13	O	-0.621475	-1.069357	-0.224707
O14	O	-0.121475	-0.569357	0.275293
O15	O	-0.310483	-0.987443	-0.335544
O16	O	0.189517	-0.487443	0.164456
O17	O	-0.621457	-1.188252	-0.343592
O18	O	-0.121457	-0.688252	0.156408
O19	O	-0.310470	-1.077527	-0.425621
O20	O	0.189530	-0.577527	0.074379
O21	O	-0.487423	-0.982795	-0.221238
O22	O	0.012577	-0.482795	0.278762
O23	O	-0.474201	-0.873118	-0.330925
O24	O	0.025799	-0.373118	0.169075
O25	O	-0.598218	-0.995476	-0.536386
O26	O	-0.098218	-0.495476	-0.036386
O27	O	-0.598235	-0.876581	-0.417502
O28	O	-0.098235	-0.376581	0.082498
O29	O	-0.474171	-1.082097	-0.539886
O30	O	0.025829	-0.582097	-0.039886
O31	O	-0.785176	-1.073928	-0.338973
O32	O	-0.285176	-0.573928	0.161027
O33	O	-0.775158	-0.990828	-0.422081
O34	O	-0.275158	-0.490828	0.077919
C35	C	-0.534741	-0.849271	-0.373185
C36	C	-0.034741	-0.349271	0.126815
C37	C	-0.530239	-0.770915	-0.370049
C38	C	-0.030239	-0.270915	0.129951
C39	C	-0.818287	-1.032389	-0.380538
C40	C	-0.318287	-0.532389	0.119462
C41	C	-0.935066	-1.032436	-0.380557
C42	C	-0.435066	-0.532436	0.119443
C43	C	-0.534671	-1.039847	-0.564431
C44	C	-0.034671	-0.539847	-0.064431
C45	C	-0.530133	-1.043007	-0.642788
C46	C	-0.030133	-0.543007	-0.142788
C47	C	-0.995109	-1.075758	-0.337335
C48	C	-0.495109	-0.575758	0.162665
C49	C	-1.104834	-1.075802	-0.337358
C50	C	-0.604834	-0.575802	0.162642
C51	C	-1.094463	-0.989196	-0.423829
C52	C	-0.594463	-0.489196	0.076171
C53	C	-0.984739	-0.989156	-0.423808
C54	C	-0.484739	-0.489156	0.076192
C55	C	-0.945435	-1.119038	-0.294084
C56	C	-0.445435	-0.619038	0.205916
C57	C	-1.005479	-1.162363	-0.250857
C58	C	-0.505479	-0.662363	0.249143
C59	C	-1.115205	-1.162407	-0.250881
C60	C	-0.615205	-0.662407	0.249119
C61	C	-1.164886	-1.119126	-0.294131
C62	C	-0.664886	-0.619126	0.205869
C63	C	-0.271290	-1.032494	-0.380587
C64	C	0.228710	-0.532494	0.119413
C65	C	-0.154514	-1.032520	-0.380601
C66	C	0.345486	-0.532520	0.119399
C67	C	-0.555944	-1.216307	-0.387954
C68	C	-0.055944	-0.716307	0.112046
C69	C	-0.560471	-1.294664	-0.391107
C70	C	-0.060471	-0.794664	0.108893
C71	C	-0.592807	-0.735921	-0.413580
C72	C	-0.092807	-0.235921	0.086420
C73	C	-0.588563	-0.662297	-0.410637
C74	C	-0.088563	-0.162297	0.089363
C75	C	-0.521756	-0.623668	-0.364158
C76	C	-0.021756	-0.123668	0.135842
C77	C	-0.459181	-0.658667	-0.320624
C78	C	0.040819	-0.158667	0.179376
C79	C	-0.463420	-0.732289	-0.323572
C80	C	0.036580	-0.232289	0.176428
C81	C	-0.502135	-0.403285	-0.350520
C82	C	-0.002135	0.096715	0.149480
C83	C	-0.497903	-0.329657	-0.347575
C84	C	0.002097	0.170343	0.152425
C85	C	-0.627284	-0.333293	-0.437589
C86	C	-0.127284	0.166707	0.062411
C87	C	-0.631522	-0.406917	-0.440529
C88	C	-0.131522	0.093083	0.059471
C89	C	-0.568943	-0.441909	-0.396998
C90	C	-0.068943	0.058091	0.103002
N91	N	-0.517418	-0.548413	-0.361147
N92	N	-0.017418	-0.048413	0.138853
N93	N	-0.573276	-0.517163	-0.400014
N94	N	-0.073276	-0.017163	0.099986
C95	C	-0.497659	-1.065673	-1.084052
C96	C	0.002341	-0.565673	-0.584052
C97	C	-0.501928	-1.062699	-1.010427
C98	C	-0.001928	-0.562699	-0.510427
C99	C	-0.568641	-1.016110	-0.971796
C100	C	-0.068641	-0.516110	-0.471796
C101	C	-0.631096	-0.972496	-1.006793
C102	C	-0.131096	-0.472496	-0.506793
C103	C	-0.626832	-0.975474	-1.080417
C104	C	-0.126832	-0.475474	-0.580417
C105	C	-0.588324	-1.002371	-0.751409
C106	C	-0.088324	-0.502371	-0.251409
C107	C	-0.592581	-0.999395	-0.677780
C108	C	-0.092581	-0.499395	-0.177780
C109	C	-0.463414	-1.089600	-0.681419
C110	C	0.036586	-0.589600	-0.181419
C111	C	-0.459151	-1.092571	-0.755044
C112	C	0.040849	-0.592571	-0.255044
C113	C	-0.521610	-1.048960	-0.790035
C114	C	-0.021610	-0.548960	-0.290035
N115	N	-0.573004	-1.013068	-0.896539
N116	N	-0.073004	-0.513068	-0.396539
N117	N	-0.517252	-1.052006	-0.865291
N118	N	-0.017252	-0.552006	-0.365291
C119	C	-0.555857	-1.025085	-0.197395
C120	C	-0.055857	-0.525085	0.302605
C121	C	-0.560107	-1.022061	-0.119044
C122	C	-0.060107	-0.522061	0.380956
H123	H	-0.856092	-1.119005	-0.294058
H124	H	-0.356092	-0.619005	0.205942
C125	C	-1.149105	-0.941588	-0.471397
C126	C	-0.649105	-0.441588	0.028603
H127	H	-1.097629	-0.915784	-0.497141
H128	H	-0.597629	-0.415784	0.002859
H129	H	-1.191756	-0.909821	-0.443179
H130	H	-0.691756	-0.409821	0.056821
H131	H	-1.191629	-0.969791	-0.503229
H132	H	-0.691629	-0.469791	-0.003229
H133	H	-0.685420	-0.934565	-0.975334
H134	H	-0.185420	-0.434565	-0.475334
C135	C	-0.385690	-0.616180	-0.269499
C136	C	0.114310	-0.116180	0.230501
H137	H	-0.349026	-0.647567	-0.244000
H138	H	0.150974	-0.147567	0.256000
H139	H	-0.425933	-0.586207	-0.237585
H140	H	0.074067	-0.086207	0.262415
H141	H	-0.336754	-0.588562	-0.295375
H142	H	0.163246	-0.088562	0.204625
C143	C	-0.665969	-0.948147	-0.635284
C144	C	-0.165969	-0.448147	-0.135284
H145	H	-0.659551	-0.952616	-0.586425
H146	H	-0.159551	-0.452616	-0.086425
H147	H	-0.736459	-0.958934	-0.647750
H148	H	-0.236459	-0.458934	-0.147750
H149	H	-0.647151	-0.901270	-0.645451
H150	H	-0.147151	-0.401270	-0.145451
C151	C	-0.394598	-0.770785	-0.275688
C152	C	0.105402	-0.270785	0.224312
H153	H	-0.406682	-0.820165	-0.284105
H154	H	0.093318	-0.320165	0.215895
H155	H	-0.411907	-0.756799	-0.227820
H156	H	0.088093	-0.256799	0.272180
H157	H	-0.322732	-0.759149	-0.285612
H158	H	0.177268	-0.259149	0.214388
C159	C	-0.424278	-1.116922	-1.126543
C160	C	0.075722	-0.616922	-0.626543
H161	H	-0.430674	-1.112447	-1.175403
H162	H	0.069326	-0.612447	-0.675403
H163	H	-0.443095	-1.163795	-1.116375
H164	H	0.056905	-0.663795	-0.616375
H165	H	-0.353785	-1.106133	-1.114072
H166	H	0.146215	-0.606133	-0.614072
H167	H	-0.677685	-0.939961	-1.108907
H168	H	-0.177685	-0.439961	-0.608907
C169	C	-0.918688	-0.941507	-0.471355
C170	C	-0.418688	-0.441507	0.028645
H171	H	-0.963985	-0.915731	-0.497111
H172	H	-0.463985	-0.415731	0.002889
H173	H	-0.875611	-0.969679	-0.503166
H174	H	-0.375611	-0.469679	-0.003166
H175	H	-0.875728	-0.909704	-0.443120
H176	H	-0.375728	-0.409704	0.056880
C177	C	-0.424422	-0.287163	-0.296441
C178	C	0.075578	0.212837	0.203559
H179	H	-0.430876	-0.238304	-0.300914
H180	H	0.069124	0.261696	0.199086
H181	H	-0.353944	-0.299650	-0.307316
H182	H	0.146056	0.200350	0.192684
H183	H	-0.443140	-0.297310	-0.249539
H184	H	0.056860	0.202690	0.250461
H185	H	-0.451078	-1.098215	-0.981940
H186	H	0.048922	-0.598215	-0.481940
C187	C	-1.285581	-1.119179	-0.294159
C188	C	-0.785581	-0.619179	0.205841
H189	H	-1.314229	-1.151178	-0.262222
H190	H	-0.814229	-0.651178	0.237778
H191	H	-1.308422	-1.133177	-0.340156
H192	H	-0.808422	-0.633177	0.159844
H193	H	-1.308554	-1.073210	-0.280102
H194	H	-0.808554	-0.573210	0.219898
C195	C	-0.666294	-0.778407	-0.464709
C196	C	-0.166294	-0.278407	0.035291
H197	H	-0.702941	-0.747019	-0.490218
H198	H	-0.202941	-0.247019	0.009782
H199	H	-0.715228	-0.806027	-0.438842
H200	H	-0.215228	-0.306027	0.061158
H201	H	-0.626040	-0.808378	-0.496624
H202	H	-0.126040	-0.308378	0.003376
C203	C	-0.950835	-1.209965	-0.203284
C204	C	-0.450835	-0.709965	0.296716
H205	H	-0.876888	-1.203730	-0.209454
H206	H	-0.376888	-0.703730	0.290546
H207	H	-0.970878	-1.257749	-0.215543
H208	H	-0.470878	-0.757749	0.284457
H209	H	-0.971017	-1.197773	-0.155499
H210	H	-0.471017	-0.697773	0.344501
H211	H	-0.678231	-0.304795	-0.473030
H212	H	-0.178231	0.195205	0.026970
H213	H	-0.404831	-1.130512	-0.786493
H214	H	0.095169	-0.630512	-0.286493
C215	C	-0.657015	-0.954393	-0.789890
C216	C	-0.157015	-0.454393	-0.289890
H217	H	-0.697345	-0.926215	-0.756336
H218	H	-0.197345	-0.426215	-0.256336
H219	H	-0.702693	-0.982504	-0.819688
H220	H	-0.202693	-0.482504	-0.319688
H221	H	-0.613376	-0.924847	-0.817381
H222	H	-0.113376	-0.424847	-0.317381
C223	C	-0.657455	-0.623806	-0.458479
C224	C	-0.157455	-0.123806	0.041521
H225	H	-0.697878	-0.657356	-0.486563
H226	H	-0.197878	-0.157356	0.013437
H227	H	-0.613961	-0.596318	-0.488108
H228	H	-0.113961	-0.096318	0.011892
H229	H	-0.703063	-0.594004	-0.430265
H230	H	-0.203063	-0.094004	0.069735
C231	C	-0.394725	-1.137574	-0.642928
C232	C	0.105275	-0.637574	-0.142928
H233	H	-0.406823	-1.129134	-0.593547
H234	H	0.093177	-0.629134	-0.093547
H235	H	-0.322839	-1.127767	-0.654588
H236	H	0.177161	-0.627767	-0.154588
H237	H	-0.412155	-1.185425	-0.656894
H238	H	0.087845	-0.685425	-0.156894
H239	H	-0.685926	-0.438364	-0.478376
H240	H	-0.185926	0.061636	0.021624
H241	H	-1.164090	-1.197690	-0.215689
H242	H	-0.664090	-0.697690	0.284311
H243	H	-0.451187	-0.431766	-0.315069
H244	H	0.048813	0.068234	0.184931
