data_functionalizedCrystal
_audit_creation_method	'MofGen! by Chris Wilmer'
_symmetry_space_group_name_H-M	'P1'
_symmetry_Int_Tables_number	1
_symmetry_cell_setting	triclinic
loop_
_symmetry_equiv_pos_as_xyz
  x,y,z
_cell_length_a	16.974800
_cell_length_b	15.625429
_cell_length_c	16.053802
_cell_angle_alpha	74.515382
_cell_angle_beta	91.074188
_cell_angle_gamma	84.971360
loop_
_atom_site_label
_atom_site_type_symbol
_atom_site_fract_x
_atom_site_fract_y
_atom_site_fract_z
O1	O	1.050839	0.113053	-0.032622
O2	O	0.821589	0.126630	-0.052229
O3	O	0.940475	-0.009249	-0.003055
O4	O	0.931953	0.248932	-0.081795
O5	O	0.933930	-0.001801	0.133106
O6	O	0.815045	0.134078	0.083933
O7	O	1.044295	0.120501	0.103540
Zn8	Zn	0.928631	0.128472	0.115355
Zn9	Zn	0.937253	0.118659	-0.064044
O10	O	0.925409	0.256380	0.054366
C11	C	0.936169	-0.038568	0.074958
C12	C	0.933080	-0.137026	0.104552
C13	C	0.788944	0.129701	0.014064
C14	C	0.701420	0.127745	0.008740
C15	C	0.656739	0.130885	0.080462
C16	C	0.574503	0.129033	0.075466
C17	C	0.536949	0.124049	-0.001256
C18	C	0.581637	0.120907	-0.072983
C19	C	0.663872	0.122752	-0.067984
C20	C	0.291386	0.118089	-0.024164
C21	C	0.209145	0.116246	-0.029158
C22	C	0.202017	0.124371	0.119292
C23	C	0.284253	0.126221	0.124283
C24	C	0.328934	0.123074	0.052557
N25	N	0.452891	0.122159	-0.006365
N26	N	0.412992	0.124958	0.057669
C27	C	0.940733	-0.481143	-0.169197
C28	C	0.937826	-0.573657	-0.141364
C29	C	0.930692	-0.565524	0.007070
C30	C	0.933603	-0.473007	-0.020750
C31	C	0.938622	-0.430824	-0.108885
C32	C	0.931492	-0.422689	0.039562
C33	C	0.934398	-0.330180	0.011743
C34	C	0.939415	-0.287989	-0.076388
C35	C	0.941529	-0.338315	-0.136704
C36	C	0.926466	-0.464873	0.127696
C37	C	0.924355	-0.414554	0.188008
C38	C	0.927267	-0.322044	0.160190
C39	C	0.932285	-0.279854	0.072059
C40	C	0.925154	-0.271719	0.220505
C41	C	0.928060	-0.179209	0.192686
C42	C	0.935191	-0.187345	0.044240
C43	C	1.076940	0.117430	0.037245
C44	C	1.164464	0.119385	0.042565
C45	C	0.929715	0.285699	-0.023648
C46	C	0.932804	0.384157	-0.053248
N47	N	0.922752	0.135169	0.237790
N48	N	0.943138	0.111955	-0.186477
C49	C	0.973357	0.077373	0.302403
C50	C	0.969252	0.082066	0.388111
C51	C	0.914546	0.144560	0.409205
C52	C	0.863935	0.202358	0.344585
C53	C	0.868037	0.197660	0.258879
C54	C	0.896629	0.165056	0.663198
C55	C	0.892533	0.169751	0.748911
C56	C	0.997849	0.049457	0.792432
C57	C	1.001949	0.044768	0.706722
C58	C	0.951336	0.102564	0.642110
N59	N	0.910350	0.149360	0.496811
N60	N	0.955528	0.097758	0.554506
H61	H	0.687309	0.134951	0.142935
O62	O	0.946152	-0.435638	-0.264258
H63	H	0.894086	-0.385902	-0.286454
H64	H	0.551055	0.116842	-0.135450
H65	H	0.538129	0.131574	0.133875
H66	H	0.327756	0.115523	-0.082567
H67	H	0.826827	0.244723	0.206271
O68	O	1.023845	0.019729	0.457791
H69	H	0.988138	-0.021351	0.507642
H70	H	0.700250	0.120197	-0.126389
H71	H	0.939285	-0.152998	-0.027527
H72	H	0.941773	-0.212661	-0.099038
H73	H	0.945623	-0.303968	-0.208471
O74	O	0.842049	0.227397	0.593513
H75	H	0.803328	0.271647	0.622581
H76	H	0.178571	0.112190	-0.091638
H77	H	0.939538	-0.614623	-0.190485
H78	H	0.926602	-0.599882	0.078830
H79	H	0.314824	0.130276	0.186759
O80	O	0.923340	-0.564653	0.157702
H81	H	0.870559	-0.583027	0.127013
O82	O	0.153784	0.128214	0.196511
H83	H	0.090275	0.126254	0.180100
H84	H	0.926325	-0.138236	0.241797
O85	O	0.918959	-0.460055	0.283067
H86	H	0.917303	-0.532838	0.292282
O87	O	0.919749	-0.317220	0.315563
H88	H	0.918089	-0.390002	0.324775
O89	O	1.032359	0.009966	0.279654
H90	H	1.066852	-0.029441	0.338987
O91	O	1.060948	-0.022643	0.683972
H92	H	1.095442	-0.062051	0.743303
H93	H	0.819388	0.253239	0.361764
H94	H	1.039056	0.002402	0.845046
H95	H	0.847982	0.220644	0.766077
