data_functionalizedCrystal
_audit_creation_method	'MofGen! by Chris Wilmer'
_symmetry_space_group_name_H-M	'P1'
_symmetry_Int_Tables_number	1
_symmetry_cell_setting	triclinic
loop_
_symmetry_equiv_pos_as_xyz
  x,y,z
_cell_length_a	13.897449
_cell_length_b	12.827892
_cell_length_c	12.827885
_cell_angle_alpha	90.029786
_cell_angle_beta	89.979901
_cell_angle_gamma	89.983328
loop_
_atom_site_label
_atom_site_type_symbol
_atom_site_fract_x
_atom_site_fract_y
_atom_site_fract_z
Zn1	Zn	1.474712	0.415947	-0.590872
Zn2	Zn	1.974712	0.915947	-0.090872
Zn3	Zn	1.474614	0.590724	-0.416132
Zn4	Zn	1.974614	1.090724	0.083868
Zn5	Zn	1.313403	0.416002	-0.416143
Zn6	Zn	1.813403	0.916002	0.083857
Zn7	Zn	1.313389	0.590650	-0.590830
Zn8	Zn	1.813389	1.090650	-0.090830
O9	O	1.394030	0.503331	-0.503494
O10	O	1.894030	1.003331	-0.003494
O11	O	1.609681	0.439139	-0.567705
O12	O	2.109681	0.939139	-0.067705
O13	O	1.453194	0.567601	-0.269897
O14	O	1.953194	1.067601	0.230103
O15	O	1.334848	0.269758	-0.439343
O16	O	1.834848	0.769758	0.060657
O17	O	1.609609	0.567547	-0.439325
O18	O	2.109609	1.067547	0.060675
O19	O	1.453361	0.269718	-0.567716
O20	O	1.953361	0.769718	-0.067716
O21	O	1.334753	0.439233	-0.269905
O22	O	1.834753	0.939233	0.230095
O23	O	1.178420	0.439161	-0.439302
O24	O	1.678420	0.939161	0.060698
O25	O	1.334824	0.567422	-0.737071
O26	O	1.834824	1.067422	-0.237071
O27	O	1.178410	0.567475	-0.567644
O28	O	1.678410	1.067475	-0.067644
O29	O	1.453347	0.439068	-0.737102
O30	O	1.953347	0.939068	-0.237102
O31	O	1.453181	0.736950	-0.439284
O32	O	1.953181	1.236950	0.060716
O33	O	1.334730	0.736896	-0.567633
O34	O	1.834730	1.236896	-0.067633
C35	C	1.393969	0.774841	-0.503476
C36	C	1.893969	1.274841	-0.003476
C37	C	1.394032	0.890994	-0.503503
C38	C	1.894032	1.390994	-0.003503
C39	C	1.143415	0.503317	-0.503470
C40	C	1.643415	1.003317	-0.003470
C41	C	1.036201	0.503336	-0.503485
C42	C	1.536201	1.003336	-0.003485
C43	C	1.394095	0.503230	-0.776064
C44	C	1.894095	1.003230	-0.276064
C45	C	1.394123	0.503188	-0.892218
C46	C	1.894123	1.003188	-0.392218
C47	C	0.839906	0.503340	-0.503512
C48	C	1.339906	1.003340	-0.003512
C49	C	0.949139	0.503334	-0.503494
C50	C	1.449139	1.003334	-0.003494
C51	C	1.645623	0.503345	-0.503519
C52	C	2.145623	1.003345	-0.003519
C53	C	1.752836	0.503352	-0.503529
C54	C	2.252836	1.003352	-0.003529
C55	C	1.394116	0.230761	-0.503535
C56	C	1.894116	0.730761	-0.003535
C57	C	1.394153	0.114607	-0.503553
C58	C	1.894153	0.614607	-0.003553
C59	C	1.452715	0.942771	-0.440062
C60	C	1.952715	1.442771	0.059938
C61	C	1.452781	1.062821	-0.440088
C62	C	1.952781	1.562821	0.059912
C63	C	1.335523	0.566630	-1.064031
C64	C	1.835523	1.066630	-0.564031
C65	C	1.335493	0.566675	-0.943981
C66	C	1.835493	1.066675	-0.443981
C67	C	1.394020	0.503355	-0.231984
C68	C	1.894020	1.003355	0.268016
C69	C	1.394179	0.503104	-0.115832
C70	C	1.894179	1.003104	0.384168
H71	H	1.502911	0.898225	-0.385731
H72	H	2.002911	1.398225	0.114269
H73	H	1.285280	0.621066	-0.899434
H74	H	1.785280	1.121066	-0.399434
H75	H	1.444346	0.448801	-0.936758
H76	H	1.944346	0.948801	-0.436758
H77	H	1.444369	0.448746	-1.071303
H78	H	1.944369	0.948746	-0.571303
H79	H	1.503019	1.107348	-0.385771
H80	H	2.003019	1.607348	0.114229
H81	H	1.343844	0.935542	-0.557840
H82	H	1.843844	1.435542	-0.057840
F83	F	1.328475	1.056418	-0.574546
F84	F	1.828475	1.556418	-0.074546
H85	H	1.285326	0.620980	-1.108560
H86	H	1.785326	1.120980	-0.608560
