data_functionalizedCrystal
_audit_creation_method	'MofGen! by Chris Wilmer'
_symmetry_space_group_name_H-M	'P1'
_symmetry_Int_Tables_number	1
_symmetry_cell_setting	triclinic
loop_
_symmetry_equiv_pos_as_xyz
  x,y,z
_cell_length_a	18.215407
_cell_length_b	25.639240
_cell_length_c	18.215399
_cell_angle_alpha	90.037217
_cell_angle_beta	90.019833
_cell_angle_gamma	90.033205
loop_
_atom_site_label
_atom_site_type_symbol
_atom_site_fract_x
_atom_site_fract_y
_atom_site_fract_z
Zn1	Zn	1.125032	-0.208150	0.416068
Zn2	Zn	1.124923	-0.295586	0.292982
Zn3	Zn	1.001964	-0.208167	0.293016
Zn4	Zn	1.001913	-0.295557	0.416007
O5	O	1.063458	-0.251865	0.354518
O6	O	1.228002	-0.219754	0.399752
O7	O	1.108588	-0.284009	0.190002
O8	O	1.018356	-0.135000	0.309379
O9	O	1.227922	-0.283992	0.309322
O10	O	1.108773	-0.134987	0.399785
O11	O	1.018251	-0.219783	0.190027
O12	O	0.898973	-0.219754	0.309319
O13	O	1.018269	-0.283943	0.519000
O14	O	0.898936	-0.283959	0.399681
O15	O	1.108724	-0.219725	0.519045
O16	O	1.108539	-0.368747	0.309262
O17	O	1.018164	-0.368726	0.399648
C18	C	1.063354	-0.387708	0.354461
C19	C	1.063377	-0.445822	0.354461
C20	C	0.872252	-0.251856	0.354497
C21	C	0.790453	-0.251865	0.354506
C22	C	0.602259	-0.285349	0.401498
C23	C	0.525400	-0.285350	0.401507
C24	C	0.525409	-0.218391	0.307555
C25	C	0.602267	-0.218387	0.307550
C26	C	0.640689	-0.251869	0.354520
C27	C	0.486973	-0.251874	0.354535
C28	C	0.403640	-0.251876	0.354544
C29	C	0.724028	-0.251867	0.354512
C30	C	1.110562	-0.806140	0.401678
C31	C	1.110583	-0.860744	0.401693
O32	O	1.150578	-0.888942	0.441779
N33	N	1.063560	-0.888104	0.354590
C34	C	1.016507	-0.860857	0.307474
O35	O	0.976512	-0.889143	0.267410
C36	C	1.016482	-0.806254	0.307463
C37	C	1.063514	-0.778896	0.354564
C38	C	1.157589	-0.778782	0.448776
C39	C	1.157568	-0.724182	0.448760
C40	C	1.110520	-0.696938	0.401646
C41	C	1.063493	-0.724296	0.354548
C42	C	0.969426	-0.779008	0.260351
C43	C	0.969405	-0.724401	0.260345
C44	C	1.016436	-0.697043	0.307446
C45	C	1.016424	-0.642452	0.307418
N46	N	1.063447	-0.615092	0.354521
C47	C	1.110495	-0.642335	0.401635
C48	C	1.016562	-0.975528	0.307500
C49	C	1.016590	-1.030130	0.307507
C50	C	1.110666	-1.030013	0.401727
C51	C	1.110641	-0.975410	0.401717
C52	C	1.063585	-0.948167	0.354604
C53	C	1.110448	-0.527670	0.401597
C54	C	1.110425	-0.473065	0.401575
C55	C	1.016347	-0.473186	0.307357
C56	C	1.016372	-0.527787	0.307377
C57	C	1.063425	-0.555027	0.354503
O58	O	0.976448	-0.614219	0.267354
O59	O	1.150477	-0.614043	0.441698
C60	C	1.255411	-0.251874	0.354540
C61	C	1.337210	-0.251878	0.354549
C62	C	1.063503	-0.251829	0.546471
C63	C	1.063522	-0.251814	0.628270
C64	C	1.063583	-0.115492	0.354592
C65	C	1.063636	-0.057378	0.354624
C66	C	1.063456	-0.251863	0.163312
C67	C	1.063579	-0.251731	0.081514
C68	C	1.110639	-0.218344	0.816489
C69	C	1.110647	-0.218329	0.893348
C70	C	1.016457	-0.285202	0.893290
C71	C	1.016446	-0.285214	0.816432
C72	C	1.063540	-0.251786	0.778034
C73	C	1.063561	-0.251759	0.931750
C74	C	1.063570	-0.251742	1.015084
C75	C	1.063530	-0.251801	0.694695
H76	H	0.633540	-0.312611	0.439746
H77	H	1.148984	-0.191123	0.785227
O78	O	1.156470	-0.185828	0.930589
C79	C	1.198017	-0.156318	0.880213
H80	H	1.200538	-0.177745	0.825416
H81	H	1.256009	-0.150739	0.902435
H82	H	1.171102	-0.116610	0.872055
O83	O	0.970785	-0.317658	0.930705
C84	C	0.980881	-0.310469	1.006788
H85	H	1.037692	-0.293345	1.017306
H86	H	0.975860	-0.349627	1.035973
H87	H	0.937257	-0.282621	1.028608
O88	O	0.970669	-0.317752	0.779186
C89	C	0.929097	-0.347248	0.829556
H90	H	0.959245	-0.349053	0.884349
H91	H	0.921208	-0.388445	0.807320
H92	H	0.873221	-0.328099	0.837730
O93	O	0.970719	-0.446742	0.261491
C94	C	0.986823	-0.460121	0.188157
H95	H	1.045623	-0.475097	0.184485
H96	H	0.980483	-0.424234	0.151791
H97	H	0.947388	-0.491850	0.168895
O98	O	0.970840	-1.056621	0.261723
C99	C	0.929328	-1.020859	0.220126
H100	H	0.926752	-0.981921	0.250261
H101	H	0.871353	-1.036672	0.212223
H102	H	0.956309	-1.015068	0.164257
H103	H	0.494113	-0.312613	0.439762
H104	H	0.494116	-0.191131	0.269313
H105	H	0.633558	-0.191120	0.269296
H106	H	1.148758	-0.549843	0.439977
O107	O	1.156135	-0.446571	0.447403
C108	C	1.197674	-0.482330	0.488977
H109	H	1.167542	-0.521269	0.491505
H110	H	1.205484	-0.466516	0.546965
H111	H	1.253585	-0.488121	0.462082
O112	O	0.923836	-0.805600	0.214528
C113	C	0.965754	-0.837201	0.167043
H114	H	1.023714	-0.820720	0.162530
H115	H	0.939153	-0.837867	0.110390
H116	H	0.968289	-0.878570	0.189809
O117	O	1.203274	-0.697691	0.494587
C118	C	1.244811	-0.733455	0.536156
H119	H	1.214676	-0.772394	0.538677
H120	H	1.252622	-0.717646	0.594147
H121	H	1.300722	-0.739245	0.509260
O122	O	1.203192	-0.805264	0.494623
C123	C	1.161295	-0.836861	0.542120
H124	H	1.103318	-0.820449	0.546612
H125	H	1.187885	-0.837423	0.598778
H126	H	1.158801	-0.878261	0.519379
H127	H	1.148937	-0.953139	0.440071
O128	O	1.156260	-1.056506	0.447579
C129	C	1.114339	-1.088098	0.495062
H130	H	1.056370	-1.071672	0.499547
H131	H	1.140920	-1.088673	0.551724
H132	H	1.111830	-1.129494	0.472311
O133	O	0.923591	-0.697995	0.214614
C134	C	0.850241	-0.711365	0.230652
H135	H	0.848719	-0.750994	0.258953
H136	H	0.817269	-0.713287	0.177512
H137	H	0.825421	-0.680626	0.268458
O138	O	0.970587	-0.554343	0.261699
C139	C	0.897227	-0.541022	0.277697
H140	H	0.893473	-0.525975	0.336480
H141	H	0.860884	-0.576956	0.271339
H142	H	0.878003	-0.509364	0.238211
H143	H	0.978246	-0.953350	0.269129
