data_functionalizedCrystal
_audit_creation_method	'MofGen! by Chris Wilmer'
_symmetry_space_group_name_H-M	'P1'
_symmetry_Int_Tables_number	1
_symmetry_cell_setting	triclinic
loop_
_symmetry_equiv_pos_as_xyz
  x,y,z
_cell_length_a	12.759401
_cell_length_b	12.759394
_cell_length_c	12.759393
_cell_angle_alpha	89.969918
_cell_angle_beta	89.980789
_cell_angle_gamma	90.014282
loop_
_atom_site_label
_atom_site_type_symbol
_atom_site_fract_x
_atom_site_fract_y
_atom_site_fract_z
Zn1	Zn	1.606268	-0.418198	-0.593992
Zn2	Zn	1.606163	-0.593915	-0.418315
Zn3	Zn	1.430568	-0.418252	-0.418331
Zn4	Zn	1.430561	-0.593837	-0.593956
O5	O	1.518390	-0.506051	-0.506148
O6	O	1.753275	-0.441517	-0.570696
O7	O	1.582829	-0.570669	-0.271296
O8	O	1.453922	-0.271224	-0.441654
O9	O	1.753198	-0.570616	-0.441627
O10	O	1.583008	-0.271184	-0.570712
O11	O	1.453820	-0.441610	-0.271308
O12	O	1.283546	-0.441534	-0.441620
O13	O	1.453910	-0.570482	-0.740982
O14	O	1.283541	-0.570535	-0.570651
O15	O	1.583001	-0.441441	-0.741008
O16	O	1.582822	-0.740926	-0.441592
O17	O	1.453808	-0.740868	-0.570635
C18	C	1.245422	-0.506032	-0.506134
C19	C	1.128646	-0.506050	-0.506152
C20	C	1.073825	-0.438950	-0.573462
C21	C	0.964101	-0.438960	-0.573469
C22	C	0.964029	-0.573181	-0.438853
C23	C	1.073751	-0.573164	-0.438842
C24	C	1.518331	-0.779018	-0.506131
C25	C	1.518403	-0.895795	-0.506159
C26	C	1.652719	-0.895595	-0.640647
C27	C	1.719910	-0.950356	-0.707899
C28	C	1.719973	-1.060078	-0.707922
C29	C	1.652834	-1.115041	-0.640687
C30	C	1.585643	-1.060280	-0.573435
C31	C	1.585590	-0.950556	-0.573418
C32	C	1.451323	-1.060479	-0.438954
C33	C	1.451264	-0.950758	-0.438924
C34	C	1.384184	-1.115443	-0.371720
C35	C	1.316997	-1.060682	-0.304461
C36	C	1.316938	-0.950953	-0.304440
C37	C	1.384073	-0.895997	-0.371672
C38	C	1.792423	-0.506069	-0.506164
C39	C	1.909200	-0.506078	-0.506171
C40	C	1.518466	-0.505947	-0.780182
C41	C	1.518499	-0.505903	-0.896959
C42	C	1.518477	-0.232017	-0.506189
C43	C	1.518514	-0.115240	-0.506206
C44	C	1.585743	-0.438661	-1.061567
C45	C	1.585723	-0.438702	-0.951843
C46	C	1.451298	-0.573076	-0.951804
C47	C	1.451324	-0.573039	-1.061526
C48	C	1.518374	-0.506078	-0.233181
C49	C	1.518545	-0.505826	-0.116405
H50	H	1.118387	-0.627806	-0.384024
Cl51	Cl	1.804440	-1.128923	-0.792470
Cl52	Cl	1.366847	-0.657490	-1.130470
Cl53	Cl	1.652632	-0.757658	-0.640638
H54	H	1.384036	-0.806656	-0.371658
Cl55	Cl	1.142832	-0.354573	-0.658076
Cl56	Cl	1.804299	-0.881255	-0.792427
Cl57	Cl	1.366789	-0.657560	-0.882806
H58	H	1.640443	-0.384010	-0.907199
Cl59	Cl	0.895187	-0.354601	-0.658090
Cl60	Cl	1.670248	-0.354163	-1.130554
H61	H	0.919320	-0.627824	-0.384053
Cl62	Cl	1.653065	-1.252977	-0.640568
H63	H	1.384236	-1.204784	-0.371747
Cl64	Cl	1.232595	-1.129782	-0.219957
H65	H	1.262219	-0.906373	-0.249679
