data_functionalizedCrystal
_audit_creation_method	'MofGen! by Chris Wilmer'
_symmetry_space_group_name_H-M	'P1'
_symmetry_Int_Tables_number	1
_symmetry_cell_setting	triclinic
loop_
_symmetry_equiv_pos_as_xyz
  x,y,z
_cell_length_a	12.811457
_cell_length_b	14.044190
_cell_length_c	11.892095
_cell_angle_alpha	94.240074
_cell_angle_beta	91.498327
_cell_angle_gamma	88.597539
loop_
_atom_site_label
_atom_site_type_symbol
_atom_site_fract_x
_atom_site_fract_y
_atom_site_fract_z
O1	O	1.401373	0.130896	0.049646
O2	O	1.099119	0.142797	0.018657
O3	O	1.245704	-0.001185	0.033708
O4	O	1.254788	0.274878	0.034595
O5	O	1.233480	0.010802	0.220460
O6	O	1.086895	0.154783	0.205409
O7	O	1.389149	0.142883	0.236399
Zn8	Zn	1.236081	0.150736	0.250555
Zn9	Zn	1.252187	0.134943	0.004501
O10	O	1.242564	0.286864	0.221347
C11	C	1.054092	0.147756	0.108043
C12	C	0.938134	0.144663	0.096155
C13	C	0.706909	0.151902	0.277437
C14	C	0.597956	0.148996	0.266273
C15	C	0.611274	0.135938	0.062664
C16	C	0.720227	0.138844	0.073828
C17	C	0.768040	0.146828	0.181218
C18	C	0.876995	0.149740	0.192381
C19	C	0.890311	0.136676	-0.011226
C20	C	0.781358	0.133770	-0.022390
C21	C	1.235619	-0.030548	0.126680
C22	C	1.223768	-0.135898	0.125475
C23	C	1.286151	-0.385529	0.131827
C24	C	1.202122	-0.328786	0.123219
C25	C	1.214169	-0.221453	0.124475
C26	C	1.274106	-0.492872	0.130571
C27	C	1.434177	0.137924	0.147010
C28	C	1.550135	0.141016	0.158890
C29	C	1.252649	0.316227	0.128373
C30	C	1.264501	0.421577	0.129570
N31	N	1.225098	0.161513	0.418481
N32	N	1.263178	0.124159	-0.163425
C33	C	1.339604	0.049111	0.666886
C34	C	1.331934	0.056651	0.784441
C35	C	1.202085	0.184129	0.771146
C36	C	1.209754	0.176588	0.653592
C37	C	1.278517	0.109078	0.601466
C38	C	1.286191	0.101543	0.483910
C39	C	1.156337	0.229016	0.470617
C40	C	1.148667	0.236556	0.588171
H41	H	0.940095	0.132550	-0.089575
O42	O	1.135136	0.249593	0.821731
C43	C	1.032334	0.231195	0.782276
H44	H	1.026882	0.153155	0.749174
H45	H	0.975959	0.246468	0.854337
H46	H	1.011030	0.279082	0.711417
O47	O	1.352860	0.035820	0.433336
C48	C	1.325279	-0.056429	0.459501
H49	H	1.239616	-0.055710	0.483253
H50	H	1.337892	-0.108899	0.382996
H51	H	1.376024	-0.079272	0.533410
H52	H	1.367131	-0.353501	0.140141
O53	O	1.406419	-0.016541	0.616422
C54	C	1.458719	-0.067833	0.699376
H55	H	1.410392	-0.064006	0.778791
H56	H	1.469809	-0.145608	0.666324
H57	H	1.538245	-0.035363	0.720091
H58	H	1.121136	-0.360816	0.114909
H59	H	1.381676	0.007818	0.837703
H60	H	1.092679	0.291519	0.630625
H61	H	1.106599	0.277848	0.417338
H62	H	0.915922	0.156247	0.279823
H63	H	0.745839	0.158415	0.364878
H64	H	0.572326	0.129422	-0.024767
O65	O	0.538726	0.153981	0.359856
C66	C	0.604297	0.161624	0.457029
H67	H	0.682388	0.191755	0.434983
H68	H	0.565820	0.211315	0.524760
H69	H	0.617705	0.087985	0.489920
O70	O	0.734848	0.126188	-0.126678
C71	C	0.668025	0.206101	-0.139644
H72	H	0.694163	0.267990	-0.078809
H73	H	0.671273	0.227823	-0.229953
H74	H	0.584609	0.187112	-0.120654
