data_functionalizedCrystal
_audit_creation_method	'MofGen! by Chris Wilmer'
_symmetry_space_group_name_H-M	'P1'
_symmetry_Int_Tables_number	1
_symmetry_cell_setting	triclinic
loop_
_symmetry_equiv_pos_as_xyz
  x,y,z
_cell_length_a	14.519709
_cell_length_b	13.101039
_cell_length_c	14.519731
_cell_angle_alpha	86.632198
_cell_angle_beta	96.315501
_cell_angle_gamma	86.642264
loop_
_atom_site_label
_atom_site_type_symbol
_atom_site_fract_x
_atom_site_fract_y
_atom_site_fract_z
O1	O	-1.228933	0.085070	0.115817
O2	O	-0.728933	0.585070	0.615817
O3	O	-0.960459	0.085105	0.130051
O4	O	-0.460459	0.585105	0.630051
O5	O	-1.101803	0.085077	-0.011302
O6	O	-0.601803	0.585077	0.488698
O7	O	-1.087588	0.085098	0.257171
O8	O	-0.587588	0.585098	0.757171
O9	O	-1.091662	-0.085351	-0.001144
O10	O	-0.591662	0.414649	0.498856
O11	O	-0.950318	-0.085323	0.140210
O12	O	-0.450318	0.414677	0.640210
O13	O	-1.218791	-0.085358	0.125976
O14	O	-0.718791	0.414642	0.625976
Zn15	Zn	-1.082944	-0.112400	0.134706
Zn16	Zn	-0.582944	0.387600	0.634706
Zn17	Zn	-1.096306	0.112147	0.121321
Zn18	Zn	-0.596306	0.612147	0.621321
O19	O	-1.077447	-0.085330	0.267329
O20	O	-0.577447	0.414670	0.767329
C21	C	-0.921029	-0.000105	0.134467
C22	C	-0.421029	0.499895	0.634467
C23	C	-0.818648	-0.000092	0.132478
C24	C	-0.318648	0.499908	0.632478
C25	C	-0.443749	-0.000136	0.125161
C26	C	0.056251	0.499864	0.625161
C27	C	-0.548058	-0.000123	0.127193
C28	C	-0.048058	0.499877	0.627193
C29	C	-0.631195	-0.000113	0.128819
C30	C	-0.131195	0.499887	0.628819
C31	C	-0.735511	-0.000102	0.130852
C32	C	-0.235511	0.499898	0.630852
N33	N	-1.073832	-0.265646	0.143840
N34	N	-0.573832	0.234354	0.643840
C35	C	-1.061435	-0.474686	0.156276
C36	C	-0.561435	0.025314	0.656276
C37	C	-1.117820	-0.525573	0.099747
C38	C	-0.617820	-0.025573	0.599747
C39	C	-1.110922	-0.641890	0.106667
C40	C	-0.610922	-0.141890	0.606667
C41	C	-1.068332	-0.358359	0.149357
C42	C	-0.568332	0.141641	0.649357
C43	C	-0.258222	-0.000143	0.121560
C44	C	0.241778	0.499857	0.621560
C45	C	-0.360603	-0.000142	0.123548
C46	C	0.139397	0.499858	0.623548
C47	C	-1.096066	-0.000137	-0.040582
C48	C	-0.596066	0.499863	0.459418
C49	C	-1.094070	-0.000137	-0.142963
C50	C	-0.594070	0.499863	0.357037
N51	N	-1.105425	0.265393	0.112180
N52	N	-0.605425	0.765393	0.612180
C53	C	-1.092449	-0.000135	-0.226107
C54	C	-0.592449	0.499865	0.273893
C55	C	-1.090423	-0.000127	-0.330416
C56	C	-0.590423	0.499873	0.169584
C57	C	-1.088815	-0.000120	-0.413556
C58	C	-0.588815	0.499880	0.086444
C59	C	-1.086789	-0.000114	-0.517871
C60	C	-0.586789	0.499886	-0.017871
C61	C	-1.083184	-0.000114	0.296609
C62	C	-0.583184	0.499886	0.796609
C63	C	-1.085181	-0.000107	0.398989
C64	C	-0.585181	0.499893	0.898989
H65	H	-1.007985	-0.518473	0.209865
H66	H	-0.507985	-0.018473	0.709865
O67	O	-1.188627	-0.467576	0.028754
O68	O	-0.688627	0.032424	0.528754
H69	H	-1.236443	-0.418698	0.064732
H70	H	-0.736443	0.081302	0.564732
