data_functionalizedCrystal
_audit_creation_method	'MofGen! by Chris Wilmer'
_symmetry_space_group_name_H-M	'P1'
_symmetry_Int_Tables_number	1
_symmetry_cell_setting	triclinic
loop_
_symmetry_equiv_pos_as_xyz
  x,y,z
_cell_length_a	18.101398
_cell_length_b	13.897448
_cell_length_c	13.897441
_cell_angle_alpha	89.969401
_cell_angle_beta	90.027215
_cell_angle_gamma	89.987041
loop_
_atom_site_label
_atom_site_type_symbol
_atom_site_fract_x
_atom_site_fract_y
_atom_site_fract_z
Zn1	Zn	1.132211	0.384106	0.545548
Zn2	Zn	1.132130	0.545428	0.384249
Zn3	Zn	1.008364	0.384135	0.384248
Zn4	Zn	1.008350	0.545347	0.545484
O5	O	1.070264	0.464754	0.464882
O6	O	1.235833	0.405527	0.524179
O7	O	1.115684	0.524077	0.249267
O8	O	1.024832	0.249149	0.405671
O9	O	1.235773	0.524049	0.405673
O10	O	1.115823	0.249128	0.524178
O11	O	1.024753	0.405576	0.249267
O12	O	0.904729	0.405499	0.405609
O13	O	1.024808	0.523913	0.680474
O14	O	0.904719	0.523941	0.524068
O15	O	1.115809	0.405449	0.680521
O16	O	1.115670	0.680399	0.405611
O17	O	1.024730	0.680340	0.524069
C18	C	1.070210	0.715368	0.464854
C19	C	1.070254	0.822582	0.464875
C20	C	0.877853	0.464715	0.464832
C21	C	0.795539	0.464721	0.464833
C22	C	1.070316	0.464669	0.716475
C23	C	1.070339	0.464632	0.823689
C24	C	0.496448	0.464781	0.464914
C25	C	0.527755	0.389888	0.390747
C26	C	0.613373	0.390089	0.390430
C27	C	0.644831	0.464751	0.464874
C28	C	0.613730	0.566363	0.437102
C29	C	0.528084	0.565946	0.436586
C30	C	0.528062	0.438946	0.567029
C31	C	0.613712	0.436683	0.566471
C32	C	0.728690	0.464740	0.464853
C33	C	0.412589	0.464799	0.464933
C34	C	1.263426	0.464794	0.464933
C35	C	1.345740	0.464811	0.464955
C36	C	1.070338	0.213161	0.464931
C37	C	1.070370	0.105947	0.464952
C38	C	1.070332	1.018877	0.464935
C39	C	1.070287	0.909645	0.464904
C40	C	1.070254	0.464769	0.214268
C41	C	1.070375	0.464534	0.107055
C42	C	1.070359	0.464567	1.019985
C43	C	1.070345	0.464606	0.910752
H44	H	0.634401	0.314740	0.407838
H45	H	0.507817	0.493495	0.622290
H46	H	0.507172	0.314309	0.407963
F47	F	0.640111	0.412410	0.291528
H48	H	0.634106	0.623659	0.489432
F49	F	0.641719	0.595498	0.340581
F50	F	0.501013	0.641355	0.504110
F51	F	0.499577	0.411945	0.292424
H52	H	0.634044	0.361908	0.587413
H53	H	0.635129	0.487256	0.624693
H54	H	0.506478	0.366140	0.592280
H55	H	0.508074	0.587856	0.361936
