data_functionalizedCrystal
_audit_creation_method	'MofGen! by Chris Wilmer'
_symmetry_space_group_name_H-M	'P1'
_symmetry_Int_Tables_number	1
_symmetry_cell_setting	triclinic
loop_
_symmetry_equiv_pos_as_xyz
  x,y,z
_cell_length_a	15.995350
_cell_length_b	17.038272
_cell_length_c	14.472310
_cell_angle_alpha	89.999298
_cell_angle_beta	89.990621
_cell_angle_gamma	87.301966
loop_
_atom_site_label
_atom_site_type_symbol
_atom_site_fract_x
_atom_site_fract_y
_atom_site_fract_z
O1	O	1.118175	0.100774	-0.076763
O2	O	0.875286	0.113219	-0.076782
O3	O	0.995287	-0.006819	-0.076766
O4	O	0.998174	0.220812	-0.076780
O5	O	0.995254	-0.006812	0.076916
O6	O	0.875253	0.113226	0.076900
O7	O	1.118142	0.100781	0.076919
Cu8	Cu	0.996695	0.107004	0.090942
Cu9	Cu	0.996733	0.106996	-0.090805
O10	O	0.998141	0.220819	0.076902
C11	C	0.844038	0.112708	0.000056
C12	C	0.750978	0.111165	0.000049
C13	C	0.992645	-0.035945	0.000075
C14	C	0.984810	-0.122740	0.000074
C15	C	0.412836	0.105626	0.000069
C16	C	0.454180	0.020137	0.000417
C17	C	0.550981	0.021680	0.000064
C18	C	0.580592	0.108374	0.000060
C19	C	0.542527	0.150536	-0.087699
C20	C	0.445739	0.148388	-0.087766
C21	C	0.445488	0.150162	0.086999
C22	C	0.542432	0.150142	0.088152
C23	C	0.675401	0.109931	0.000051
C24	C	0.318027	0.104071	0.000071
C25	C	1.056739	-0.172836	0.000081
C26	C	1.049373	-0.254389	0.000072
C27	C	0.970077	-0.285843	0.000062
C28	C	0.898143	-0.235740	0.000053
C29	C	0.905510	-0.154189	0.000056
C30	C	0.944051	-0.531607	0.000047
C31	C	0.936689	-0.613164	0.000048
C32	C	1.087920	-0.631807	0.000065
C33	C	1.095280	-0.550254	0.000073
C34	C	1.023346	-0.500158	0.000059
C35	C	0.962546	-0.369202	0.000056
C36	C	1.030878	-0.416801	0.000059
C37	C	1.149390	0.101292	0.000078
C38	C	1.242450	0.102834	0.000079
C39	C	1.000784	0.249944	0.000059
C40	C	1.008618	0.336739	0.000054
N41	N	0.996674	0.107009	0.218773
N42	N	0.996761	0.106984	-0.218636
C43	C	0.996732	0.106993	0.592864
C44	C	0.932276	0.171007	0.553689
C45	C	0.932452	0.171241	0.446601
C46	C	0.996702	0.107001	0.407273
C47	C	1.085336	0.124819	0.446115
C48	C	1.084981	0.125274	0.553237
C49	C	0.973320	0.024970	0.553397
C50	C	0.971356	0.025517	0.446269
C51	C	0.996691	0.107004	0.302385
C52	C	0.996749	0.106991	0.697752
H53	H	0.577035	-0.011462	0.062974
H54	H	0.866382	0.160566	0.579472
N55	N	1.111924	0.203149	0.410567
H56	H	1.066691	0.227199	0.369311
H57	H	1.121355	0.239332	0.464462
H58	H	1.146484	-0.672604	0.000074
H59	H	0.897983	-0.394821	0.000050
N60	N	0.889138	0.002282	0.589215
H61	H	0.865323	0.044948	0.631395
H62	H	0.849863	-0.004642	0.535500
N63	N	0.415648	0.113139	0.175113
H64	H	0.437315	0.142617	0.230011
H65	H	0.352447	0.115482	0.176268
H66	H	0.425254	0.117636	-0.153365
N67	N	1.028915	-0.040542	0.410826
H68	H	0.995303	-0.079150	0.375261
H69	H	1.072418	-0.018419	0.368842
H70	H	0.885477	-0.490828	0.000036
H71	H	1.020257	-0.022668	0.578729
H72	H	0.906126	0.011995	0.420882
H73	H	0.417962	0.211153	-0.091752
H74	H	0.433211	-0.014032	0.063353
H75	H	0.432177	-0.013880	-0.062167
H76	H	0.576475	-0.011692	-0.062951
N77	N	1.150823	0.065861	0.587543
H78	H	1.193174	0.093282	0.626199
H79	H	1.123407	0.025005	0.626293
N80	N	1.142266	-0.138914	0.000093
H81	H	1.148680	-0.105498	0.057068
H82	H	1.186660	-0.183071	0.000061
N83	N	1.126952	-0.308422	0.000084
H84	H	1.178303	-0.276121	0.000099
H85	H	1.127170	-0.342664	0.057056
H86	H	0.833579	-0.261356	0.000039
N87	N	0.845428	0.157186	0.411819
H88	H	0.805211	0.200166	0.435193
H89	H	0.845445	0.157295	0.342033
N90	N	0.567253	0.234900	-0.092044
H91	H	0.603454	0.246628	-0.037033
H92	H	0.599531	0.243562	-0.150864
H93	H	0.872114	-0.638770	0.000055
H94	H	0.568829	0.121246	-0.153008
N95	N	0.568738	0.233887	0.095176
H96	H	0.631756	0.234358	0.099086
H97	H	0.548732	0.264177	0.038754
H98	H	0.418217	0.213193	0.087589
N99	N	0.827931	-0.100152	0.000043
H100	H	0.776579	-0.132451	0.000038
H101	H	0.827679	-0.065909	0.057014
H102	H	0.567542	0.119364	0.153076
H103	H	1.159850	-0.524651	0.000081
H104	H	1.095440	-0.391187	0.000046
H105	H	0.947652	0.231532	0.580596
N106	N	0.952835	0.251922	0.412630
H107	H	0.961770	0.287466	0.467244
H108	H	1.005404	0.247913	0.373918
N109	N	1.111125	0.204507	0.586335
H110	H	1.169202	0.214137	0.562805
H111	H	1.070483	0.246829	0.562252
H112	H	1.134688	0.079434	0.420639
