data_functionalizedCrystal
_audit_creation_method	'MofGen! by Chris Wilmer'
_symmetry_space_group_name_H-M	'P1'
_symmetry_Int_Tables_number	1
_symmetry_cell_setting	triclinic
loop_
_symmetry_equiv_pos_as_xyz
  x,y,z
_cell_length_a	12.759401
_cell_length_b	16.120484
_cell_length_c	12.759393
_cell_angle_alpha	92.862829
_cell_angle_beta	89.980163
_cell_angle_gamma	92.926992
loop_
_atom_site_label
_atom_site_type_symbol
_atom_site_fract_x
_atom_site_fract_y
_atom_site_fract_z
Zn1	Zn	1.584973	-0.331823	-0.615182
Zn2	Zn	1.575925	-0.471261	-0.448395
Zn3	Zn	1.409272	-0.331870	-0.439520
Zn4	Zn	1.400325	-0.471200	-0.624028
O5	O	1.492624	-0.401538	-0.531781
O6	O	1.730794	-0.350325	-0.593069
O7	O	1.553776	-0.452815	-0.300199
O8	O	1.440111	-0.215198	-0.455406
O9	O	1.724146	-0.452770	-0.470531
O10	O	1.569198	-0.215164	-0.584464
O11	O	1.431337	-0.350405	-0.293679
O12	O	1.261065	-0.350346	-0.463984
O13	O	1.424861	-0.452666	-0.769873
O14	O	1.254491	-0.452711	-0.599541
O15	O	1.560522	-0.350266	-0.763374
O16	O	1.545100	-0.587918	-0.479109
O17	O	1.416087	-0.587873	-0.608146
C18	C	1.219657	-0.401528	-0.531760
C19	C	1.102879	-0.401544	-0.531777
C20	C	1.478669	-0.618145	-0.545573
C21	C	1.472795	-0.710811	-0.551509
C22	C	1.044617	-0.454926	-0.602261
C23	C	0.934893	-0.454929	-0.602282
C24	C	0.941703	-0.348165	-0.461326
C25	C	1.051426	-0.348158	-0.461310
C26	C	1.462078	-0.880472	-0.562367
C27	C	1.523358	-0.921764	-0.501213
C28	C	1.517395	-1.016169	-0.507254
C29	C	1.468040	-0.786058	-0.556327
C30	C	1.766656	-0.401549	-0.531804
C31	C	1.883433	-0.401554	-0.531813
C32	C	1.492703	-0.401454	-0.805809
C33	C	1.492736	-0.401418	-0.922584
C34	C	1.506662	-0.184085	-0.517958
C35	C	1.512644	-0.091419	-0.512068
C36	C	1.429007	-0.348083	-0.974050
C37	C	1.429033	-0.348058	-1.083772
C38	C	1.556526	-0.454703	-1.090553
C39	C	1.556494	-0.454733	-0.980833
C40	C	1.492610	-0.401562	-0.258815
C41	C	1.492795	-0.401363	-0.142027
H42	H	1.086507	-0.498394	-0.659642
H43	H	1.098865	-0.304683	-0.403913
O44	O	0.878454	-0.506866	-0.670787
C45	C	0.947403	-0.553964	-0.732993
H46	H	1.025411	-0.556805	-0.690120
H47	H	0.911475	-0.619662	-0.748250
H48	H	0.961076	-0.523510	-0.810910
H49	H	1.405139	-0.916019	-0.619255
H50	H	0.899796	-0.304702	-0.403953
H51	H	1.377137	-0.304628	-1.125671
O52	O	1.591194	-0.879232	-0.433355
C53	C	1.582130	-0.793075	-0.442359
H54	H	1.501764	-0.781324	-0.475970
H55	H	1.591336	-0.759959	-0.361589
H56	H	1.645960	-0.768274	-0.496796
O57	O	1.366969	-0.296276	-0.917627
C58	C	1.310743	-0.249184	-0.986585
H59	H	1.304929	-0.283311	-1.066966
H60	H	1.228529	-0.240299	-0.954316
H61	H	1.353304	-0.185863	-0.994235
H62	H	1.608437	-0.498110	-1.137993
H63	H	1.608392	-0.498167	-0.938929
