data_functionalizedCrystal
_audit_creation_method	'MofGen! by Chris Wilmer'
_symmetry_space_group_name_H-M	'P1'
_symmetry_Int_Tables_number	1
_symmetry_cell_setting	triclinic
loop_
_symmetry_equiv_pos_as_xyz
  x,y,z
_cell_length_a	6.817900
_cell_length_b	12.200875
_cell_length_c	9.582889
_cell_angle_alpha	91.576692
_cell_angle_beta	111.207298
_cell_angle_gamma	107.143593
loop_
_atom_site_label
_atom_site_type_symbol
_atom_site_fract_x
_atom_site_fract_y
_atom_site_fract_z
V1	V	-4.108301	-0.357451	-0.207395
V2	V	-3.608301	0.142549	0.292605
O3	O	-4.053185	-0.350862	0.009616
O4	O	-3.553185	0.149138	0.509616
O5	O	-4.098767	-0.354798	-0.410894
O6	O	-3.598767	0.145202	0.089106
O7	O	-4.077439	-0.513442	-0.204359
O8	O	-3.577439	-0.013442	0.295641
O9	O	-4.074661	-0.191120	-0.198349
O10	O	-3.574661	0.308880	0.301651
V11	V	-4.584621	-0.337581	-0.181420
V12	V	-4.084621	0.162419	0.318580
O13	O	-4.385362	-0.401035	-0.264374
O14	O	-3.885362	0.098965	0.235626
O15	O	-4.757758	-0.293997	-0.124441
O16	O	-4.257758	0.206003	0.375559
O17	O	-4.370948	-0.340234	0.022078
O18	O	-3.870948	0.159766	0.522078
O19	O	-4.757134	-0.344170	-0.398432
O20	O	-4.257134	0.155830	0.101568
O21	O	-4.735658	-0.503912	-0.190467
O22	O	-4.235658	-0.003912	0.309533
O23	O	-4.392277	-0.181590	-0.184457
O24	O	-3.892277	0.318410	0.315543
C25	C	-3.952656	-0.349105	-0.460498
C26	C	-3.452656	0.150895	0.039502
C27	C	-4.026264	-0.347976	-0.626861
C28	C	-3.526264	0.152024	-0.126861
C29	C	-3.925448	-0.551470	-0.197040
C30	C	-3.425448	-0.051470	0.302960
C31	C	-3.981755	-0.678992	-0.195903
C32	C	-3.481755	-0.178992	0.304097
C33	C	-4.084806	-0.912469	-0.193825
C34	C	-3.584806	-0.412469	0.306175
C35	C	-4.027453	-0.782546	-0.194981
C36	C	-3.527453	-0.282546	0.305019
C37	C	-4.180403	-0.345923	0.071674
C38	C	-3.680403	0.154077	0.571674
C39	C	-4.086034	-0.347060	0.238036
C40	C	-3.586034	0.152940	0.738036
C41	C	-4.207610	-0.143556	-0.191781
C42	C	-3.707610	0.356444	0.308219
C43	C	-4.130540	-0.016032	-0.192910
C44	C	-3.630540	0.483968	0.307090
