data_functionalizedCrystal
_audit_creation_method	'MofGen! by Chris Wilmer'
_symmetry_space_group_name_H-M	'P1'
_symmetry_Int_Tables_number	1
_symmetry_cell_setting	triclinic
loop_
_symmetry_equiv_pos_as_xyz
  x,y,z
_cell_length_a	16.625546
_cell_length_b	21.395364
_cell_length_c	21.395355
_cell_angle_alpha	89.974702
_cell_angle_beta	90.018476
_cell_angle_gamma	89.960831
loop_
_atom_site_label
_atom_site_type_symbol
_atom_site_fract_x
_atom_site_fract_y
_atom_site_fract_z
Zn1	Zn	-0.320736	-0.957895	0.354274
Zn2	Zn	-0.455551	-0.957813	0.249497
Zn3	Zn	-0.320775	-0.853110	0.249509
Zn4	Zn	-0.455569	-0.853094	0.354236
O5	O	-0.388158	-0.905478	0.301879
O6	O	-0.338595	-1.045562	0.340386
O7	O	-0.437681	-0.943896	0.161821
O8	O	-0.207937	-0.867051	0.263428
O9	O	-0.437643	-1.045501	0.263407
O10	O	-0.207909	-0.944036	0.340398
O11	O	-0.338662	-0.866971	0.161830
O12	O	-0.338680	-0.765430	0.263391
O13	O	-0.437675	-0.867024	0.441919
O14	O	-0.437713	-0.765419	0.340333
O15	O	-0.338613	-0.944021	0.441947
O16	O	-0.568386	-0.943880	0.263369
O17	O	-0.568399	-0.866944	0.340320
C18	C	-0.388203	-0.742690	0.301859
C19	C	-0.388242	-0.673049	0.301866
C20	C	-0.336754	-0.640390	0.342010
C21	C	-0.336735	-0.574955	0.342012
C22	C	-0.388219	-0.542181	0.301875
C23	C	-0.439711	-0.574848	0.261723
C24	C	-0.439723	-0.640282	0.261718
C25	C	-0.460836	-0.438465	0.296837
C26	C	-0.460825	-0.373032	0.296846
C27	C	-0.388183	-0.340360	0.301887
C28	C	-0.315548	-0.373130	0.306932
C29	C	-0.315559	-0.438564	0.306927
C30	C	-0.388212	-0.471228	0.301876
C31	C	-0.336669	-0.236748	0.342035
C32	C	-0.336649	-0.171312	0.342032
C33	C	-0.439632	-0.171206	0.261747
C34	C	-0.439645	-0.236642	0.261746
C35	C	-0.388165	-0.269409	0.301894
C36	C	-0.597649	-0.905419	0.301853
C37	C	-0.687270	-0.905451	0.301862
C38	C	-1.015445	-0.905560	0.301928
C39	C	-0.924137	-0.905528	0.301911
C40	C	-0.851360	-0.905505	0.301895
C41	C	-0.760046	-0.905473	0.301879
C42	C	-0.177849	-0.905555	0.301919
C43	C	-0.088228	-0.905587	0.301936
C44	C	-0.388141	-0.905530	0.465302
C45	C	-0.388134	-0.905552	0.534944
C46	C	-0.388122	-0.068901	0.301896
C47	C	-0.388133	-0.138543	0.301895
C48	C	-0.388116	-0.905462	0.139091
C49	C	-0.387896	-0.905562	0.069451
C50	C	-0.336551	-0.945643	0.567672
C51	C	-0.336516	-0.945642	0.633108
C52	C	-0.388079	-0.905557	0.665812
C53	C	-0.439667	-0.865459	0.633075
C54	C	-0.439694	-0.865456	0.567641
C55	C	-0.460682	-0.900589	0.769478
C56	C	-0.460656	-0.900596	0.834911
C57	C	-0.387994	-0.905561	0.867633
C58	C	-0.315357	-0.910532	0.834914
C59	C	-0.315384	-0.910530	0.769480
C60	C	-0.388055	-0.905555	0.736764
C61	C	-0.336369	-0.945653	0.971314
C62	C	-0.336333	-0.945647	1.036751
C63	C	-0.439490	-0.865468	1.036717
C64	C	-0.439519	-0.865470	0.971282
C65	C	-0.387960	-0.905565	0.938584
H66	H	-0.481576	-0.263233	0.229058
H67	H	-0.519969	-0.346356	0.292741
H68	H	-0.294566	-0.978291	0.541054
C69	C	-0.540558	-0.895127	0.870895
N70	N	-0.600743	-0.891007	0.897997
C71	C	-0.496445	-0.821353	0.531638
N72	N	-0.539191	-0.788135	0.504520
H73	H	-0.294506	-0.978287	0.659761
H74	H	-0.294381	-0.978298	0.944691
C75	C	-0.279582	-0.989751	1.072753
N76	N	-0.236837	-1.022972	1.099870
H77	H	-0.481552	-0.144523	0.229066
H78	H	-0.519995	-0.465060	0.292731
H79	H	-0.294803	-0.548358	0.374702
C80	C	-0.496371	-0.676208	0.217557
N81	N	-0.539041	-0.703269	0.184295
H82	H	-0.481529	-0.832827	0.944633
H83	H	-0.294745	-0.263429	0.374722
H84	H	-0.481647	-0.832820	0.659707
C85	C	-0.280113	-0.676430	0.386166
N86	N	-0.237448	-0.703576	0.419422
C87	C	-0.496344	-0.538796	0.217573
N88	N	-0.539001	-0.511641	0.184316
H89	H	-0.519837	-0.896379	0.742841
H90	H	-0.294716	-0.144722	0.374722
H91	H	-0.256418	-0.465242	0.311032
H92	H	-0.256189	-0.914576	0.861555
C93	C	-0.235633	-0.337196	0.312471
N94	N	-0.175443	-0.310128	0.316642
C95	C	-0.235483	-0.915989	0.733492
N96	N	-0.175301	-0.920097	0.706386
C97	C	-0.496212	-0.821374	1.072688
N98	N	-0.538935	-0.788162	1.099784
