data_functionalizedCrystal
_audit_creation_method	'MofGen! by Chris Wilmer'
_symmetry_space_group_name_H-M	'P1'
_symmetry_Int_Tables_number	1
_symmetry_cell_setting	triclinic
loop_
_symmetry_equiv_pos_as_xyz
  x,y,z
_cell_length_a	26.210047
_cell_length_b	12.837943
_cell_length_c	12.837942
_cell_angle_alpha	94.828940
_cell_angle_beta	90.005638
_cell_angle_gamma	89.991209
loop_
_atom_site_label
_atom_site_type_symbol
_atom_site_fract_x
_atom_site_fract_y
_atom_site_fract_z
O1	O	0.042419	-1.402343	-0.272126
O2	O	0.542419	-0.902343	0.227874
O3	O	0.042422	-1.099209	-0.258683
O4	O	0.542422	-0.599209	0.241317
O5	O	0.042418	-1.244054	-0.113838
O6	O	0.542418	-0.744054	0.386162
O7	O	0.042424	-1.257498	-0.416971
O8	O	0.542424	-0.757498	0.083029
O9	O	-0.042440	-1.244026	-0.113860
O10	O	0.457560	-0.744026	0.386140
O11	O	-0.042436	-1.099181	-0.258705
O12	O	0.457564	-0.599181	0.241295
O13	O	-0.042439	-1.402314	-0.272148
O14	O	0.457561	-0.902314	0.227852
Cu15	Cu	-0.050185	-1.250745	-0.265429
Cu16	Cu	0.449815	-0.750745	0.234571
Cu17	Cu	0.050169	-1.250779	-0.265403
Cu18	Cu	0.550169	-0.750779	0.234597
O19	O	-0.042434	-1.257469	-0.416993
O20	O	0.457566	-0.757469	0.083007
C21	C	-0.000006	-1.060126	-0.254153
C22	C	0.499994	-0.560126	0.245847
C23	C	-0.000005	-0.943711	-0.240608
C24	C	0.499995	-0.443711	0.259392
C25	C	-0.000011	-1.239499	-0.074780
C26	C	0.499989	-0.739499	0.425220
C27	C	-0.000010	-1.225954	0.041635
C28	C	0.499990	-0.725954	0.541635
N29	N	-0.120769	-1.250729	-0.265447
N30	N	0.379231	-0.750729	0.234553
C31	C	-0.473285	-1.314910	-0.201281
C32	C	0.026715	-0.814910	0.298719
C33	C	-0.686944	-1.314932	-0.201268
C34	C	-0.186944	-0.814932	0.298732
O35	O	-0.714568	-1.369462	-0.146712
O36	O	-0.214568	-0.869462	0.353288
N37	N	-0.713663	-1.250782	-0.265380
N38	N	-0.213663	-0.750782	0.234620
C39	C	-0.686964	-1.186617	-0.329495
C40	C	-0.186964	-0.686617	0.170505
O41	O	-0.714593	-1.132046	-0.384017
O42	O	-0.214593	-0.632046	0.115983
C43	C	-0.473307	-1.186591	-0.329501
C44	C	0.026693	-0.686591	0.170499
C45	C	-0.446590	-1.250753	-0.265392
C46	C	0.053410	-0.750753	0.234608
C47	C	-0.446569	-1.379066	-0.137177
C48	C	0.053431	-0.879066	0.362823
C49	C	-0.393157	-1.379065	-0.137185
C50	C	0.106843	-0.879065	0.362815
C51	C	-0.366462	-1.314907	-0.201296
C52	C	0.133538	-0.814907	0.298704
C53	C	-0.393179	-1.250751	-0.265400
C54	C	0.106821	-0.750751	0.234600
C55	C	-0.446609	-1.122421	-0.393609
C56	C	0.053391	-0.622421	0.106391
C57	C	-0.393191	-1.122418	-0.393603
C58	C	0.106809	-0.622418	0.106397
C59	C	-0.366475	-1.186580	-0.329494
C60	C	0.133525	-0.686580	0.170506
C61	C	-0.313073	-1.186591	-0.329520
C62	C	0.186927	-0.686591	0.170480
N63	N	-0.286353	-1.250741	-0.265408
N64	N	0.213647	-0.750741	0.234592
C65	C	-0.313048	-1.314899	-0.201296
C66	C	0.186952	-0.814899	0.298704
C67	C	-0.799138	-1.186637	-0.329488
C68	C	-0.299138	-0.686637	0.170512
C69	C	-0.852552	-1.186645	-0.329489
C70	C	-0.352552	-0.686645	0.170511
C71	C	-0.852528	-1.314959	-0.201260
C72	C	-0.352528	-0.814959	0.298740
C73	C	-0.799113	-1.314956	-0.201267
C74	C	-0.299113	-0.814956	0.298733
C75	C	-0.772419	-1.250787	-0.265377
C76	C	-0.272419	-0.750787	0.234623
C77	C	-0.200880	-1.314891	-0.201318
C78	C	0.299120	-0.814891	0.298682
C79	C	-0.147464	-1.314887	-0.201335
C80	C	0.352536	-0.814887	0.298665
C81	C	-0.147493	-1.186569	-0.329559
C82	C	0.352507	-0.686569	0.170441
C83	C	-0.200905	-1.186577	-0.329546
C84	C	0.299095	-0.686577	0.170454
C85	C	-0.227597	-1.250741	-0.265418
C86	C	0.272403	-0.750741	0.234582
O87	O	-0.285416	-1.132081	-0.384039
O88	O	0.214584	-0.632081	0.115961
O89	O	-0.285410	-1.369445	-0.146764
O90	O	0.214590	-0.869445	0.353236
C91	C	-0.526697	-1.314912	-0.201273
C92	C	-0.026697	-0.814912	0.298727
C93	C	-0.553413	-1.250756	-0.265376
C94	C	-0.053413	-0.750756	0.234624
C95	C	-0.526718	-1.186599	-0.329488
C96	C	-0.026718	-0.686599	0.170512
C97	C	-0.606827	-1.250764	-0.265377
C98	C	-0.106827	-0.750764	0.234623
C99	C	-0.633522	-1.314922	-0.201265
C100	C	-0.133522	-0.814922	0.298735
C101	C	-0.606803	-1.379072	-0.137153
C102	C	-0.106803	-0.879072	0.362847
C103	C	-0.553392	-1.379070	-0.137161
C104	C	-0.053392	-0.879070	0.362839
C105	C	-0.553438	-1.122448	-0.393600
C106	C	-0.053438	-0.622448	0.106400
C107	C	-0.606849	-1.122456	-0.393588
C108	C	-0.106849	-0.622456	0.106412
C109	C	-0.633544	-1.186614	-0.329476
C110	C	-0.133544	-0.686614	0.170524
N111	N	0.120753	-1.250802	-0.265377
N112	N	0.620753	-0.750802	0.234623
C113	C	-0.000009	-1.441398	-0.276679
C114	C	0.499991	-0.941398	0.223321
C115	C	-0.000007	-1.557813	-0.290223
C116	C	0.499993	-1.057813	0.209777
C117	C	-0.000009	-0.718837	-0.403437
C118	C	0.499991	-0.218837	0.096563
C119	C	-0.000008	-0.609454	-0.390716
C120	C	0.499992	-0.109454	0.109284
C121	C	-0.000007	-0.615562	-0.202445
C122	C	0.499993	-0.115562	0.297555
C123	C	-0.000007	-0.724944	-0.215166
C124	C	0.499993	-0.224944	0.284834
C125	C	-0.000008	-0.776578	-0.315666
C126	C	0.499992	-0.276578	0.184334
C127	C	-0.000005	-0.885962	-0.328386
C128	C	0.499995	-0.385962	0.171614
C129	C	-0.000007	-0.892067	-0.140116
C130	C	0.499993	-0.392067	0.359884
C131	C	-0.000006	-0.782685	-0.127395
C132	C	0.499994	-0.282685	0.372605
C133	C	-0.000004	-1.262025	-0.456052
C134	C	0.499996	-0.762025	0.043948
C135	C	-0.000002	-1.275569	-0.572467
C136	C	0.499998	-0.775569	-0.072467
C137	C	-0.000001	-1.388784	0.266510
C138	C	0.499999	-0.888784	0.766510
C139	C	0.000000	-1.376062	0.375892
C140	C	0.500000	-0.876062	0.875892
C141	C	-0.000003	-1.187791	0.369785
C142	C	0.499997	-0.687791	0.869785
C143	C	-0.000004	-1.200513	0.260402
C144	C	0.499996	-0.700513	0.760402
C145	C	-0.000004	-1.301012	0.208769
C146	C	0.499996	-0.801012	0.708769
C147	C	-0.000008	-1.313732	0.099384
C148	C	0.499992	-0.813732	0.599384
C149	C	-0.000008	-1.125462	0.093279
C150	C	0.499992	-0.625462	0.593279
C151	C	-0.000007	-1.112741	0.202661
C152	C	0.499993	-0.612741	0.702661
H153	H	-0.125713	-1.367139	-0.149131
H154	H	0.374287	-0.867139	0.350869
H155	H	-0.777363	-1.367201	-0.149064
H156	H	-0.277363	-0.867201	0.350936
Cl157	Cl	-0.000003	-0.783751	-0.529775
Cl158	Cl	0.499997	-0.283751	-0.029775
Cl159	Cl	-0.359637	-1.041741	-0.474202
Cl160	Cl	0.140363	-0.541741	0.025798
H161	H	-0.000011	-0.562446	-0.462189
H162	H	0.499989	-0.062446	0.037811
Cl163	Cl	-0.234490	-1.105926	-0.410154
Cl164	Cl	0.265510	-0.605926	0.089846
H165	H	-0.000049	-0.573502	-0.120623
H166	H	0.499951	-0.073502	0.379377
H167	H	-0.222607	-1.367138	-0.149098
H168	H	0.277393	-0.867138	0.350902
H169	H	-0.628547	-1.431316	-0.084954
H170	H	-0.128547	-0.931316	0.415046
H171	H	-0.874272	-1.367200	-0.149060
H172	H	-0.374272	-0.867200	0.350940
H173	H	-0.125750	-1.134336	-0.381761
H174	H	0.374250	-0.634336	0.118239
H175	H	-0.468354	-1.070174	-0.445811
H176	H	0.031646	-0.570174	0.054189
H177	H	-0.000006	-0.928000	-0.410218
H178	H	0.499994	-0.428000	0.089782
Cl179	Cl	-0.000007	-0.717764	-0.001059
Cl180	Cl	0.499993	-0.217764	0.498941
Cl181	Cl	0.000011	-1.061460	0.434714
Cl182	Cl	0.500011	-0.561460	0.934714
Cl183	Cl	0.000003	-0.964662	-0.029768
Cl184	Cl	0.500003	-0.464662	0.470232
Cl185	Cl	-0.000011	-1.440073	0.034474
Cl186	Cl	0.499989	-0.940073	0.534474
H187	H	-0.000005	-1.470614	0.224469
H188	H	0.499995	-0.970614	0.724469
H189	H	-0.531643	-1.431317	-0.084958
H190	H	-0.031643	-0.931317	0.415042
Cl191	Cl	0.000005	-1.486409	0.448478
Cl192	Cl	0.500005	-0.986409	0.948478
H193	H	-0.000006	-1.030917	0.244717
H194	H	0.499994	-0.530917	0.744717
H195	H	-0.000015	-1.053992	0.046254
H196	H	0.499985	-0.553992	0.546254
H197	H	-0.468299	-1.431311	-0.084964
H198	H	0.031701	-0.931311	0.415036
Cl199	Cl	-0.359577	-1.459721	-0.056581
Cl200	Cl	0.140423	-0.959721	0.443419
H201	H	-0.777407	-1.134382	-0.381697
H202	H	-0.277407	-0.634382	0.118303
Cl203	Cl	-0.640430	-1.041792	-0.474194
Cl204	Cl	-0.140430	-0.541792	0.025806
Cl205	Cl	-0.886132	-1.105996	-0.410100
Cl206	Cl	-0.386132	-0.605996	0.089900
H207	H	-0.531707	-1.070202	-0.445806
H208	H	-0.031707	-0.570202	0.054194
