data_functionalizedCrystal
_audit_creation_method	'MofGen! by Chris Wilmer'
_symmetry_space_group_name_H-M	'P1'
_symmetry_Int_Tables_number	1
_symmetry_cell_setting	triclinic
loop_
_symmetry_equiv_pos_as_xyz
  x,y,z
_cell_length_a	23.096457
_cell_length_b	12.477989
_cell_length_c	12.477952
_cell_angle_alpha	61.136533
_cell_angle_beta	84.700126
_cell_angle_gamma	55.725385
loop_
_atom_site_label
_atom_site_type_symbol
_atom_site_fract_x
_atom_site_fract_y
_atom_site_fract_z
Zr1	Zr	0.519402	1.178105	-0.064025
O2	O	0.426872	1.402640	-0.221151
O3	O	0.553769	0.953568	-0.026068
O4	O	0.556316	1.178106	-0.235883
O5	O	0.415489	1.178102	0.165786
O6	O	0.651597	1.178109	-0.235890
O7	O	0.424325	1.178102	-0.011335
O8	O	0.647041	0.776451	0.139432
O9	O	0.420045	1.579760	-0.209536
O10	O	0.632282	1.045926	0.002452
O11	O	0.554581	1.045924	0.134640
O12	O	0.557580	1.310289	-0.112391
O13	O	0.479879	1.310286	0.019797
Zr14	Zr	0.657271	1.178109	0.218453
Zr15	Zr	0.671364	1.178110	-0.064035
Zr16	Zr	0.505310	1.178104	0.218463
Zr17	Zr	0.508514	1.460590	-0.045500
Zr18	Zr	0.668160	0.895624	0.199928
O19	O	0.622904	1.402646	0.180496
O20	O	0.642942	1.402647	-0.221165
O21	O	0.406835	1.402640	0.180510
O22	O	0.749802	0.953574	0.375579
O23	O	0.769839	0.953575	-0.026082
O24	O	0.533732	0.953567	0.375593
O25	O	0.761184	1.178112	-0.011358
O26	O	0.620358	1.178108	0.390311
O27	O	0.525077	1.178105	0.390318
O28	O	0.752348	1.178112	0.165763
O29	O	0.540834	1.579763	-0.209544
O30	O	0.635840	0.776451	0.363972
O31	O	0.756629	0.776454	0.363964
O32	O	0.767830	0.776455	0.139424
O33	O	0.408843	1.579759	0.015004
O34	O	0.529633	1.579763	0.014996
O35	O	0.619094	1.045926	0.266819
O36	O	0.696795	1.045928	0.134630
O37	O	0.622092	1.310291	0.019788
O38	O	0.544391	1.310288	0.151976
C39	C	0.601957	0.824761	0.054042
C40	C	0.606579	0.704839	0.046178
C41	C	0.398256	1.178101	0.077226
C42	C	0.333744	1.178099	0.077231
C43	C	0.342433	1.040109	0.137165
C44	C	0.281818	1.040107	0.137171
C45	C	0.212514	1.178103	0.077217
C46	C	0.203828	1.316111	0.017281
C47	C	0.264443	1.316109	0.017288
N48	N	0.091362	1.280821	-0.028347
N49	N	0.033783	1.280813	-0.028352
C50	C	0.029882	1.178116	0.077194
N51	N	0.085743	1.075404	0.182742
N52	N	0.143329	1.075408	0.182744
C53	C	0.146783	1.178120	0.077203
C54	C	-0.027153	1.040114	0.137140
C55	C	-0.087771	1.040118	0.137150
C56	C	-0.165761	1.316126	0.017247
C57	C	-0.105143	1.316119	0.017250
C58	C	-0.035841	1.178108	0.077193
C59	C	0.778418	1.178113	0.077201
C60	C	0.842929	1.178115	0.077197
C61	C	0.605964	1.178108	-0.276135
C62	C	0.611947	1.178108	-0.396058
C63	C	0.574717	1.531453	0.100385
C64	C	0.570095	1.651375	0.108250
C65	C	0.570709	1.178107	0.430563
C66	C	0.564727	1.178106	0.550486
C67	C	0.792037	0.824767	0.054030
C68	C	0.861172	0.704847	0.046162
C69	C	0.584329	0.824761	0.407391
C70	C	0.582969	0.704838	0.519451
C71	C	0.774410	0.824767	0.407379
C72	C	0.837562	0.704846	0.519434
C73	C	0.402264	1.531447	-0.252951
C74	C	0.339112	1.651368	-0.365006
C75	C	0.384636	1.531447	0.100398
C76	C	0.315502	1.651367	0.108266
C77	C	0.592344	1.531453	-0.252964
C78	C	0.593705	1.651376	-0.365023
C79	C	0.859963	0.648530	-0.026541
C80	C	0.924917	0.535868	-0.033960
C81	C	0.991078	0.479517	0.031332
C82	C	0.992284	0.535845	0.104038
C83	C	0.927332	0.648513	0.111449
C84	C	0.907784	0.648532	0.503055
C85	C	0.967127	0.535869	0.608333
C86	C	0.956247	0.479516	0.729988
C87	C	0.886017	0.535842	0.746365
C88	C	0.826675	0.648510	0.641088
C89	C	0.268890	1.707696	-0.348626
C90	C	0.209545	1.820394	-0.453902
C91	C	0.220425	1.876753	-0.575556
C92	C	0.290655	1.820420	-0.591933
C93	C	0.349997	1.707732	-0.486659
C94	C	0.316711	1.707696	0.180958
C95	C	0.251757	1.820389	0.188348
C96	C	0.185596	1.876744	0.123052
C97	C	0.184390	1.820411	0.050351
C98	C	0.249342	1.707727	0.042955
H99	H	0.535318	0.697355	0.167400
F100	F	-0.114391	1.462989	-0.046548
F101	F	1.062705	0.475853	0.173525
F102	F	1.041864	0.475939	0.590877
H103	H	0.299505	1.866322	-0.690997
H104	H	0.641352	0.658867	-0.012988
F105	F	0.670767	1.178121	-0.456159
F106	F	0.928628	0.708430	0.188840
F107	F	0.919379	0.708494	0.373591
F108	F	1.019411	0.359602	0.842022
F109	F	1.060202	0.359603	0.023435
F110	F	0.416186	0.893225	0.200969
H111	H	0.519719	1.178113	-0.403533
F112	F	0.291063	0.893232	0.200959
H113	H	0.407175	1.661871	-0.500011
H114	H	0.147397	1.428469	-0.031533
H115	H	0.923921	0.490019	-0.093164
H116	H	0.257362	1.428481	-0.031515
F117	F	0.789557	0.708487	-0.096045
H118	H	0.252753	1.866237	0.247553
F119	F	0.525807	1.644755	-0.497780
H120	H	0.621625	1.697360	-0.351845
H121	H	0.130513	1.866312	-0.002810
F122	F	0.046605	0.893234	0.200942
F123	F	0.751941	0.708425	0.658539
H124	H	0.260017	1.661815	-0.249579
H125	H	0.152366	1.866241	-0.440543
H126	H	0.248349	1.661868	-0.016235
H127	H	0.877169	0.489942	0.845430
H128	H	0.370576	1.661820	0.234140
H129	H	-0.080690	0.927745	0.185964
F130	F	-0.239515	1.462993	-0.046552
F131	F	0.157259	1.996685	-0.687589
H132	H	0.132713	1.968498	0.129085
