data_functionalizedCrystal
_audit_creation_method	'MofGen! by Chris Wilmer'
_symmetry_space_group_name_H-M	'P1'
_symmetry_Int_Tables_number	1
_symmetry_cell_setting	triclinic
loop_
_symmetry_equiv_pos_as_xyz
  x,y,z
_cell_length_a	6.817900
_cell_length_b	15.866870
_cell_length_c	16.015572
_cell_angle_alpha	95.305972
_cell_angle_beta	104.485554
_cell_angle_gamma	102.655915
loop_
_atom_site_label
_atom_site_type_symbol
_atom_site_fract_x
_atom_site_fract_y
_atom_site_fract_z
V1	V	-3.996844	-0.034800	-0.280476
O2	O	-3.966447	0.088700	-0.236015
O3	O	-3.966340	-0.152703	-0.316185
O4	O	-3.927287	0.003921	-0.385636
O5	O	-4.005770	-0.069009	-0.166083
V6	V	-4.480895	-0.024540	-0.262223
O7	O	-4.256945	-0.057306	-0.320516
O8	O	-4.670991	-0.002034	-0.222183
O9	O	-4.288193	0.093362	-0.226515
O10	O	-4.628689	-0.148040	-0.306685
O11	O	-4.589366	0.009668	-0.376616
O12	O	-4.327246	-0.063262	-0.157064
C13	C	-3.816378	-0.182638	-0.321469
C14	C	-3.872583	-0.278779	-0.351366
C15	C	-3.917279	-0.657597	-0.074048
C16	C	-3.970096	-0.747931	-0.102166
C17	C	-4.026156	-0.722870	-0.252428
C18	C	-3.973333	-0.632531	-0.224321
C19	C	-3.918899	-0.599902	-0.135131
C20	C	-3.974953	-0.574837	-0.285404
C21	C	-3.922145	-0.484506	-0.257300
C22	C	-3.867716	-0.451870	-0.168113
C23	C	-3.866091	-0.509571	-0.107027
C24	C	-4.029402	-0.607468	-0.374595
C25	C	-4.031022	-0.549773	-0.435678
C26	C	-3.978199	-0.459441	-0.407574
C27	C	-3.923770	-0.426804	-0.318387
C28	C	-3.979824	-0.401739	-0.468660
C29	C	-3.927016	-0.311408	-0.440556
C30	C	-3.870962	-0.336474	-0.290283
C31	C	-3.766562	0.017152	-0.410059
C32	C	-3.791093	0.048031	-0.496274
C33	C	-4.121327	-0.226050	-0.961199
C34	C	-4.144378	-0.197007	-1.042199
C35	C	-4.044584	-0.046745	-0.969635
C36	C	-4.021514	-0.075776	-0.888628
C37	C	-4.059892	-0.165429	-0.884418
C38	C	-3.960078	-0.015155	-0.811846
C39	C	-3.937021	-0.044184	-0.730846
C40	C	-3.975400	-0.133834	-0.726628
C41	C	-4.036835	-0.194459	-0.803418
C42	C	-3.921715	0.074498	-0.816058
C43	C	-3.860280	0.135118	-0.739276
C44	C	-3.837207	0.106090	-0.658274
C45	C	-3.875586	0.016440	-0.654056
C46	C	-3.775772	0.166714	-0.581484
C47	C	-3.752715	0.137685	-0.500484
C48	C	-3.852529	-0.012589	-0.573056
C49	C	-4.101498	0.123292	-0.221230
C50	C	-4.024530	0.219434	-0.191339
C51	C	-4.151314	-0.076497	-0.132637
C52	C	-4.106021	-0.107372	-0.046420
H53	H	-3.928368	-0.264432	-0.490297
H54	H	-3.968765	-0.794905	-0.052418
H55	H	-3.702689	0.187049	-0.437965
H56	H	-3.821734	-0.483003	-0.034398
O57	O	-3.864247	-0.625745	0.012564
C58	C	-3.758162	-0.497689	0.122447
C59	C	-3.818129	-0.533643	0.024342
H60	H	-3.720903	-0.423221	0.132000
H61	H	-3.614903	-0.519226	0.158059
H62	H	-3.894447	-0.524014	0.149909
H63	H	-3.681979	-0.507334	-0.003198
H64	H	-3.961455	-0.512113	-0.011209
O65	O	-4.007647	0.040343	-0.973699
C66	C	-4.102267	0.174892	-0.941471
C67	C	-4.144349	0.076270	-0.936834
H68	H	-4.212735	0.203972	-0.911654
H69	H	-4.129409	0.185275	-1.012544
H70	H	-3.933373	0.208455	-0.903593
H71	H	-4.313228	0.042643	-0.974667
H72	H	-4.117067	0.065951	-0.865741
H73	H	-3.883753	-0.085593	-0.569629
O74	O	-3.953189	-0.162188	-0.648021
C75	C	-3.974741	-0.286303	-0.571605
C76	C	-4.000022	-0.254313	-0.660685
H77	H	-4.012550	-0.360789	-0.581813
H78	H	-4.086128	-0.263199	-0.537601
H79	H	-3.806662	-0.258592	-0.529445
H80	H	-4.168032	-0.282011	-0.702914
H81	H	-3.888509	-0.277407	-0.694621
O82	O	-4.078989	-0.754714	-0.339029
C83	C	-4.185302	-0.882766	-0.448929
C84	C	-4.125472	-0.846823	-0.350826
H85	H	-4.222942	-0.957240	-0.458499
H86	H	-4.049005	-0.856554	-0.476426
H87	H	-4.328408	-0.861106	-0.484496
H88	H	-3.982421	-0.868469	-0.315186
H89	H	-4.261888	-0.873031	-0.323395
O90	O	-4.083856	-0.581618	-0.522279
C91	C	-4.190169	-0.709670	-0.632179
C92	C	-4.130339	-0.673726	-0.534076
H93	H	-4.227809	-0.784144	-0.641749
H94	H	-4.053871	-0.683457	-0.659676
H95	H	-4.333275	-0.688010	-0.667746
H96	H	-3.987288	-0.695372	-0.498436
H97	H	-4.266755	-0.699934	-0.506645
H98	H	-3.824726	-0.378316	-0.145233
O99	O	-3.738528	0.253829	-0.585429
C100	C	-3.637017	0.399819	-0.504900
C101	C	-3.679165	0.301186	-0.500311
H102	H	-3.588971	0.438137	-0.436090
H103	H	-3.785036	0.414958	-0.545044
H104	H	-3.505689	0.419383	-0.536970
H105	H	-3.810423	0.281554	-0.468222
H106	H	-3.531044	0.286101	-0.460196
O107	O	-4.032675	-0.433585	-0.555262
C108	C	-4.139031	-0.561641	-0.665159
C109	C	-4.079170	-0.525694	-0.567056
H110	H	-4.176680	-0.636115	-0.674727
H111	H	-4.002745	-0.535434	-0.692665
H112	H	-4.282138	-0.539979	-0.700720
H113	H	-3.936116	-0.547342	-0.531422
H114	H	-4.215573	-0.551897	-0.539617
H115	H	-4.072401	-0.681022	-0.397475
H116	H	-4.068059	-0.267463	-0.799991
H117	H	-4.152551	-0.299054	-0.957772
H118	H	-4.194399	-0.246378	-1.104718
O119	O	-3.823330	0.222177	-0.743493
C120	C	-3.964423	0.339392	-0.797845
C121	C	-4.006544	0.240778	-0.793158
H122	H	-4.112534	0.354465	-0.837981
H123	H	-3.833119	0.359010	-0.829919
H124	H	-3.916453	0.377718	-0.729041
H125	H	-4.054601	0.202384	-0.861931
H126	H	-4.137784	0.221228	-0.761037
H127	H	-3.940461	0.098131	-0.882015
O128	O	-3.818460	-0.304812	-0.203644
C129	C	-3.927350	-0.301510	-0.071621
C130	C	-3.987079	-0.337417	-0.169729
H131	H	-4.063628	-0.327871	-0.044168
H132	H	-3.890009	-0.227038	-0.061992
H133	H	-3.784110	-0.323087	-0.036058
H134	H	-4.130353	-0.315906	-0.205356
H135	H	-4.024287	-0.411885	-0.179294
