data_functionalizedCrystal
_audit_creation_method	'MofGen! by Chris Wilmer'
_symmetry_space_group_name_H-M	'P1'
_symmetry_Int_Tables_number	1
_symmetry_cell_setting	triclinic
loop_
_symmetry_equiv_pos_as_xyz
  x,y,z
_cell_length_a	12.759401
_cell_length_b	12.594516
_cell_length_c	12.594509
_cell_angle_alpha	89.973801
_cell_angle_beta	89.982054
_cell_angle_gamma	90.016479
loop_
_atom_site_label
_atom_site_type_symbol
_atom_site_fract_x
_atom_site_fract_y
_atom_site_fract_z
Zn1	Zn	1.606239	-0.423698	-0.601779
Zn2	Zn	1.606131	-0.601708	-0.423807
Zn3	Zn	1.430543	-0.423745	-0.423818
Zn4	Zn	1.430525	-0.601636	-0.601747
O5	O	1.518359	-0.512697	-0.512788
O6	O	1.753245	-0.447322	-0.578179
O7	O	1.582801	-0.578151	-0.274863
O8	O	1.453901	-0.274793	-0.447443
O9	O	1.753166	-0.578105	-0.447424
O10	O	1.582985	-0.274758	-0.578190
O11	O	1.453797	-0.447403	-0.274871
O12	O	1.283519	-0.447333	-0.447413
O13	O	1.453872	-0.577982	-0.750697
O14	O	1.283506	-0.578028	-0.578136
O15	O	1.582968	-0.447252	-0.750721
O16	O	1.582784	-0.750644	-0.447393
O17	O	1.453767	-0.750592	-0.578125
C18	C	1.245392	-0.512679	-0.512773
C19	C	1.128615	-0.512696	-0.512792
C20	C	1.073795	-0.444721	-0.580981
C21	C	0.964071	-0.444731	-0.580988
C22	C	0.963997	-0.580703	-0.444613
C23	C	1.073719	-0.580686	-0.444602
C24	C	1.518290	-0.789238	-0.512778
C25	C	1.518357	-0.907543	-0.512809
C26	C	1.448178	-0.976806	-0.583864
C27	C	1.422580	-1.047672	-0.486742
C28	C	1.544051	-1.047477	-0.609947
C29	C	1.492708	-0.976851	-0.415636
C30	C	1.614224	-0.976649	-0.538906
C31	C	1.588662	-1.047483	-0.441717
C32	C	1.792392	-0.512716	-0.512804
C33	C	1.909169	-0.512724	-0.512810
C34	C	1.518430	-0.512604	-0.790409
C35	C	1.518460	-0.512564	-0.908714
C36	C	1.518457	-0.235076	-0.512822
C37	C	1.518499	-0.116771	-0.512836
C38	C	1.448266	-0.583628	-0.977955
C39	C	1.544132	-0.609633	-1.048741
C40	C	1.422669	-0.486494	-1.048728
C41	C	1.614375	-0.538620	-0.977942
C42	C	1.492848	-0.415436	-0.977923
C43	C	1.588779	-0.441405	-1.048677
C44	C	1.518350	-0.512713	-0.236247
C45	C	1.518523	-0.512453	-0.117942
H46	H	0.919287	-0.636059	-0.389097
H47	H	1.118488	-0.389356	-0.636502
H48	H	1.695213	-0.945432	-0.561003
O49	O	1.667357	-1.088335	-0.362050
H50	H	1.727349	-1.136751	-0.403606
O51	O	1.315272	-1.088991	-0.457504
H52	H	1.316512	-1.177110	-0.457031
H53	H	1.118355	-0.636041	-0.389068
O54	O	1.369434	-0.935677	-0.663340
H55	H	1.289974	-0.964123	-0.641427
H56	H	1.470940	-0.945955	-0.333475
O57	O	1.721706	-0.567735	-0.936709
H58	H	1.743272	-0.648057	-0.965604
H59	H	0.919441	-0.389377	-0.636513
H60	H	1.565726	-1.078500	-0.692085
O61	O	1.369708	-0.663348	-0.936792
H62	H	1.391254	-0.743867	-0.965150
O63	O	1.667525	-0.361735	-1.089565
H64	H	1.746954	-0.383579	-1.061061
O65	O	1.572876	-0.718364	-1.089963
H66	H	1.514471	-0.777260	-1.061650
O67	O	1.464064	-0.306744	-0.936646
H68	H	1.384446	-0.285332	-0.964934
H69	H	1.341633	-0.464491	-1.079822
