data_functionalizedCrystal
_audit_creation_method	'MofGen! by Chris Wilmer'
_symmetry_space_group_name_H-M	'P1'
_symmetry_Int_Tables_number	1
_symmetry_cell_setting	triclinic
loop_
_symmetry_equiv_pos_as_xyz
  x,y,z
_cell_length_a	15.625950
_cell_length_b	23.532407
_cell_length_c	14.750522
_cell_angle_alpha	104.276273
_cell_angle_beta	86.556530
_cell_angle_gamma	83.582877
loop_
_atom_site_label
_atom_site_type_symbol
_atom_site_fract_x
_atom_site_fract_y
_atom_site_fract_z
O1	O	1.127446	0.031171	-0.312510
O2	O	0.883392	0.051767	-0.227576
O3	O	1.012775	-0.041784	-0.272620
O4	O	0.998063	0.124723	-0.267465
O5	O	0.980489	-0.062319	-0.421047
O6	O	0.851105	0.031232	-0.376002
O7	O	1.095160	0.010637	-0.460936
Zn8	Zn	0.968007	0.017674	-0.442035
Zn9	Zn	1.010545	0.044729	-0.246477
O10	O	0.965777	0.104188	-0.415892
C11	C	0.836031	0.042600	-0.290925
C12	C	0.743012	0.045871	-0.258554
C13	C	0.349018	0.000709	-0.556517
C14	C	0.261619	0.003800	-0.526058
C15	C	0.296860	0.026185	-0.364264
C16	C	0.384263	0.023098	-0.394710
C17	C	0.410335	0.010360	-0.490837
C18	C	0.445579	0.032749	-0.329030
C19	C	0.532975	0.029660	-0.359474
C20	C	0.559055	0.016920	-0.455597
C21	C	0.497730	0.007271	-0.521281
C22	C	0.419507	0.045483	-0.232903
C23	C	0.480823	0.055134	-0.167223
C24	C	0.568220	0.052049	-0.197666
C25	C	0.594300	0.039310	-0.293790
C26	C	0.629544	0.061699	-0.131983
C27	C	0.716940	0.058610	-0.162427
C28	C	0.681695	0.036221	-0.324234
C29	C	0.996257	-0.073252	-0.346705
C30	C	0.995128	-0.136421	-0.346320
C31	C	1.064639	-0.538533	-0.370458
C32	C	1.063594	-0.597887	-0.370087
O33	O	1.128028	-0.637424	-0.392476
N34	N	0.986673	-0.617175	-0.343318
C35	C	0.910795	-0.577104	-0.316910
O36	O	0.845272	-0.598960	-0.294106
C37	C	0.911843	-0.517750	-0.317275
C38	C	0.988766	-0.498468	-0.344055
C39	C	1.141557	-0.519250	-0.397234
C40	C	1.142601	-0.459900	-0.397607
C41	C	1.066728	-0.419834	-0.371203
C42	C	0.989811	-0.439118	-0.344427
C43	C	0.835967	-0.477680	-0.290861
C44	C	0.837021	-0.418323	-0.291227
C45	C	0.913945	-0.399040	-0.318007
C46	C	0.914983	-0.339703	-0.318396
N47	N	0.991903	-0.320415	-0.345165
C48	C	1.067776	-0.360481	-0.371568
C49	C	0.908601	-0.701751	-0.316144
C50	C	0.907551	-0.761104	-0.315785
C51	C	1.060351	-0.781883	-0.368960
C52	C	1.061398	-0.722530	-0.369326
C53	C	0.985522	-0.682463	-0.342913
C54	C	1.069964	-0.235842	-0.372350
C55	C	1.071001	-0.176486	-0.372724
C56	C	0.918203	-0.155712	-0.319544
C57	C	0.917164	-0.215063	-0.319174
C58	C	0.993052	-0.255126	-0.345577
O59	O	0.850583	-0.300133	-0.296016
O60	O	1.133291	-0.338615	-0.394357
C61	C	1.142521	0.019804	-0.397585
C62	C	1.235542	0.016534	-0.429950
C63	C	0.982296	0.135656	-0.341805
C64	C	0.983425	0.198826	-0.342184
N65	N	0.938981	-0.000791	-0.575501
C66	C	1.120571	0.114779	-0.990445
C67	C	1.100252	0.101830	-1.083881
C68	C	0.999194	0.037485	-1.048713
C69	C	1.019502	0.050431	-0.955271
C70	C	1.080192	0.089078	-0.926146
C71	C	0.979122	0.024730	-0.890972
C72	C	0.999432	0.037672	-0.797539
C73	C	1.060121	0.076316	-0.768407
C74	C	1.100501	0.102020	-0.832714
C75	C	0.918437	-0.013920	-0.920100
C76	C	0.878057	-0.039621	-0.855801
C77	C	0.898362	-0.026676	-0.762365
C78	C	0.959051	0.011968	-0.733233
C79	C	0.857982	-0.052380	-0.698058
C80	C	0.878291	-0.039437	-0.604626
C81	C	0.979361	0.024910	-0.639800
N82	N	1.039577	0.063190	-0.113014
H83	H	0.518957	-0.003093	-0.599557
O84	O	1.133990	-0.820880	-0.394533
C85	C	1.116558	-0.877402	-0.388482
H86	H	1.056864	-0.872680	-0.337487
H87	H	1.104398	-0.904600	-0.460845
C88	C	1.267898	-0.914579	-0.415640
C89	C	1.194584	-0.908780	-0.353001
H90	H	1.316029	-0.933936	-0.393758
H91	H	1.279643	-0.876500	-0.419720
H92	H	1.257753	-0.937243	-0.475938
H93	H	1.204727	-0.886111	-0.292708
H94	H	1.182843	-0.946856	-0.348910
H95	H	0.844909	-0.776800	-0.293994
O96	O	0.839044	-0.064305	-0.542043
C97	C	0.793307	-0.019402	-0.468021
H98	H	0.822068	0.023589	-0.462987
H99	H	0.722413	-0.012720	-0.482084
C100	C	0.764935	-0.090254	-0.381149
C101	C	0.800265	-0.037453	-0.374962
H102	H	0.769223	-0.101389	-0.323746
H103	H	0.795746	-0.120506	-0.431020
H104	H	0.705860	-0.084678	-0.392872
H105	H	0.859342	-0.043031	-0.363251
H106	H	0.769464	-0.007202	-0.325086
O107	O	0.455341	0.067528	-0.073882
C108	C	0.365058	0.068169	-0.061094
H109	H	0.334362	0.077157	-0.125205
H110	H	0.350251	0.023482	-0.051810
C111	C	0.365604	0.106053	0.105682
C112	C	0.327902	0.117097	0.026942
H113	H	0.342684	0.136231	0.159989
H114	H	0.426430	0.105619	0.097068
H115	H	0.353262	0.068812	0.113405
H116	H	0.340253	0.154332	0.019213
H117	H	0.267077	0.117538	0.035558
O118	O	1.038242	0.062525	-0.611578
C119	C	1.009560	0.118284	-0.626144
H120	H	0.962297	0.112857	-0.682674
H121	H	0.975852	0.148652	-0.557863
C122	C	1.145656	0.152167	-0.588500
C123	C	1.087612	0.145500	-0.657937
H124	H	1.193802	0.168957	-0.608107
H125	H	1.164979	0.114602	-0.578683
H126	H	1.117556	0.177472	-0.531605
H127	H	1.115709	0.120190	-0.714827
H128	H	1.068296	0.183062	-0.667764
H129	H	0.702922	0.025856	-0.402510
O130	O	0.940233	-0.000021	-1.077152
C131	C	0.930922	-0.005908	-1.173392
H132	H	0.951645	0.034373	-1.194318
H133	H	0.973191	-0.047538	-1.216665
C134	C	0.810207	-0.059990	-1.166097
C135	C	0.835653	-0.010514	-1.191796
H136	H	0.751442	-0.062835	-1.177451
H137	H	0.816481	-0.056026	-1.101258
H138	H	0.845439	-0.094676	-1.202160
H139	H	0.800429	0.024171	-1.155725
H140	H	0.829371	-0.014473	-1.256629
O141	O	1.143760	-0.274683	-0.397901
C142	C	1.207208	-0.255861	-0.337285
H143	H	1.191810	-0.206264	-0.304359
H144	H	1.207750	-0.280375	-0.279566
C145	C	1.315495	-0.330097	-0.433956
C146	C	1.296587	-0.269181	-0.393522
H147	H	1.370629	-0.338316	-0.468644
H148	H	1.272749	-0.342780	-0.474793
H149	H	1.315941	-0.350518	-0.385850
H150	H	1.296131	-0.248762	-0.441629
H151	H	1.339336	-0.256495	-0.352695
O152	O	0.374210	-0.011696	-0.649933
C153	C	0.301347	-0.019534	-0.701381
H154	H	0.247823	-0.032239	-0.657229
H155	H	0.277482	0.023447	-0.719825
C156	C	0.392035	-0.053389	-0.846538
C157	C	0.326298	-0.068998	-0.792312
H158	H	0.407426	-0.083898	-0.902631
H159	H	0.441124	-0.048106	-0.811878
H160	H	0.372139	-0.017570	-0.861898
H161	H	0.346199	-0.104812	-0.776943
H162	H	0.277213	-0.074288	-0.826972
H163	H	0.630219	0.014405	-0.480383
H164	H	0.901908	-0.024460	-0.996182
H165	H	0.828646	-0.071089	-0.879529
O166	O	0.763368	-0.379359	-0.265421
C167	C	0.776130	-0.333752	-0.187188
H168	H	0.830860	-0.350094	-0.148439
H169	H	0.793661	-0.293967	-0.211992
C170	C	0.625236	-0.295531	-0.168160
C171	C	0.692452	-0.315604	-0.120563
H172	H	0.573619	-0.284334	-0.127064
H173	H	0.616639	-0.326256	-0.220869
H174	H	0.639857	-0.262379	-0.188828
H175	H	0.677835	-0.348760	-0.099907
H176	H	0.701045	-0.284885	-0.067849
O177	O	0.202039	-0.005668	-0.589833
C178	C	0.160298	-0.054300	-0.580498
H179	H	0.203544	-0.083661	-0.546177
H180	H	0.096564	-0.037700	-0.534907
C181	C	0.089262	-0.054125	-0.720403
C182	C	0.142381	-0.090189	-0.678256
H183	H	0.078207	-0.076262	-0.780703
H184	H	0.117382	-0.021359	-0.726691
H185	H	0.036157	-0.040294	-0.682400
H186	H	0.195489	-0.104014	-0.716252
H187	H	0.114270	-0.122959	-0.671976
H188	H	0.808574	-0.083850	-0.721789
H189	H	1.149912	0.133497	-0.808996
H190	H	0.275620	0.036554	-0.285997
H191	H	0.608304	0.072064	-0.053716
O192	O	0.834801	-0.662916	-0.290510
C193	C	0.766697	-0.692672	-0.266786
H194	H	0.782246	-0.741917	-0.302422
H195	H	0.758582	-0.685932	-0.187365
C196	C	0.663163	-0.607273	-0.256252
C197	C	0.682258	-0.667756	-0.300027
H198	H	0.611076	-0.591902	-0.276752
H199	H	0.709046	-0.587225	-0.272232
H200	H	0.656406	-0.601665	-0.190070
H201	H	0.689025	-0.673362	-0.366206
H202	H	0.636374	-0.687804	-0.284059
H203	H	1.205241	-0.444206	-0.419410
O204	O	1.215334	-0.558093	-0.422955
C205	C	1.283442	-0.528329	-0.446638
H206	H	1.255663	-0.486862	-0.467192
H207	H	1.322537	-0.515354	-0.383648
C208	C	1.376669	-0.620287	-0.504589
C209	C	1.342551	-0.569360	-0.529842
H210	H	1.413134	-0.645597	-0.555910
H211	H	1.330785	-0.640340	-0.488630
H212	H	1.409243	-0.609467	-0.452096
H213	H	1.309970	-0.580180	-0.582326
H214	H	1.388432	-0.549309	-0.545812
O215	O	1.179452	0.152393	-0.962223
C216	C	1.150770	0.208152	-0.976789
H217	H	1.103507	0.202725	-1.033319
H218	H	1.117063	0.238520	-0.908508
C219	C	1.286866	0.242035	-0.939145
C220	C	1.228823	0.235369	-1.008582
H221	H	1.335012	0.258825	-0.958752
H222	H	1.306190	0.204470	-0.929328
H223	H	1.258767	0.267340	-0.882250
H224	H	1.256920	0.210058	-1.065472
H225	H	1.209506	0.272930	-1.018409
O226	O	0.776390	0.068031	-0.098502
C227	C	0.734640	0.079927	-0.007131
H228	H	0.663560	0.097033	-0.007884
H229	H	0.739927	0.037606	0.017795
C230	C	0.865214	0.105970	0.060951
C231	C	0.777914	0.126986	0.060027
H232	H	0.891908	0.134996	0.102378
H233	H	0.893343	0.097954	-0.000607
H234	H	0.869608	0.070703	0.081720
H235	H	0.773521	0.162248	0.039247
H236	H	0.749785	0.135009	0.121583
H237	H	1.124036	-0.706834	-0.391131
H238	H	1.076658	0.086852	-0.692328
H239	H	0.773329	-0.493368	-0.269049
O240	O	1.139565	0.126705	-1.146418
C241	C	1.185269	0.081800	-1.220461
H242	H	1.200771	0.039945	-1.195557
H243	H	1.143989	0.072242	-1.282264
C244	C	1.250979	0.153608	-1.282083
C245	C	1.270024	0.102202	-1.251493
H246	H	1.303258	0.166193	-1.301229
H247	H	1.220185	0.183861	-1.232201
H248	H	1.216576	0.145636	-1.333582
H249	H	1.304417	0.110176	-1.199989
H250	H	1.300826	0.071950	-1.301368
H251	H	0.348342	0.048001	-0.208119
H252	H	0.854522	-0.230766	-0.297393
H253	H	1.133644	-0.160791	-0.394534
H254	H	0.856429	-0.123080	-0.298050
