data_functionalizedCrystal
_audit_creation_method	'MofGen! by Chris Wilmer'
_symmetry_space_group_name_H-M	'P1'
_symmetry_Int_Tables_number	1
_symmetry_cell_setting	triclinic
loop_
_symmetry_equiv_pos_as_xyz
  x,y,z
_cell_length_a	10.654550
_cell_length_b	14.853559
_cell_length_c	9.130313
_cell_angle_alpha	90.000938
_cell_angle_beta	89.996220
_cell_angle_gamma	84.058178
loop_
_atom_site_label
_atom_site_type_symbol
_atom_site_fract_x
_atom_site_fract_y
_atom_site_fract_z
O1	O	1.666513	0.126622	-0.121912
O2	O	1.300909	0.138687	-0.121888
O3	O	1.493482	0.001476	-0.121899
O4	O	1.473940	0.263832	-0.121901
O5	O	1.493480	0.001480	0.121700
O6	O	1.300907	0.138690	0.121711
O7	O	1.666511	0.126626	0.121687
Cu8	Cu	1.483708	0.132658	0.143941
Cu9	Cu	1.483711	0.132654	-0.144142
O10	O	1.473937	0.263836	0.121698
C11	C	1.254119	0.137803	-0.000085
C12	C	1.114703	0.135152	-0.000076
C13	C	1.492598	-0.032115	-0.000102
C14	C	1.489950	-0.132213	-0.000110
C15	C	1.034375	0.215939	-0.000098
C16	C	0.903380	0.213444	-0.000123
C17	C	0.933055	0.049367	-0.000111
C18	C	1.064047	0.051864	-0.000075
C19	C	1.085031	0.299228	-0.000099
C20	C	1.004701	0.380022	-0.000123
C21	C	0.873706	0.377526	-0.000148
C22	C	0.823041	0.294237	-0.000150
C23	C	1.478718	-0.555451	-0.132895
C24	C	1.478716	-0.555441	0.132685
C25	C	1.481214	-0.461395	0.132687
C26	C	1.482463	-0.414372	-0.000105
C27	C	1.481213	-0.461395	-0.132898
C28	C	1.482451	-0.414363	0.265477
C29	C	1.484948	-0.320311	0.265484
C30	C	1.486205	-0.273286	0.132690
C31	C	1.484957	-0.320316	-0.000108
C32	C	1.486206	-0.273293	-0.132900
C33	C	1.484967	-0.320321	-0.265700
C34	C	1.482471	-0.414371	-0.265692
C35	C	1.488701	-0.179237	0.132682
C36	C	1.488700	-0.179237	-0.132903
C37	C	1.713301	0.127510	-0.000119
C38	C	1.852716	0.130160	-0.000137
C39	C	1.474822	0.297428	-0.000102
C40	C	1.477470	0.397526	-0.000104
N41	N	1.483716	0.132661	0.346564
N42	N	1.483714	0.132644	-0.346765
C43	C	1.569009	0.071925	0.423211
C44	C	1.569006	0.071914	0.576548
C45	C	1.398412	0.193383	0.576577
C46	C	1.398410	0.193389	0.423243
C47	C	1.654315	0.011197	0.346532
C48	C	1.739616	-0.049543	0.423179
C49	C	1.739612	-0.049553	0.576516
C50	C	1.654308	0.011176	0.653206
H51	H	1.191692	0.301270	-0.000085
H52	H	1.485961	-0.282028	0.373617
C53	C	1.832014	-0.115604	0.659813
C54	C	1.765038	-0.171266	0.747805
C55	C	1.850123	-0.232130	0.824540
H56	H	1.884371	-0.082931	0.719752
H57	H	1.882797	-0.151821	0.592226
H58	H	1.714278	-0.135054	0.815384
H59	H	1.712686	-0.203959	0.687902
H60	H	1.900905	-0.268346	0.756954
H61	H	1.902475	-0.199449	0.884472
H62	H	1.804692	-0.269909	0.884242
H63	H	1.328961	0.242827	0.639028
H64	H	1.477691	-0.593733	0.240798
H65	H	1.809061	-0.098992	0.360731
H66	H	1.654327	0.011202	0.221678
C67	C	1.305756	0.259434	0.340280
C68	C	1.231080	0.312638	0.440247
C69	C	1.145720	0.373496	0.363874
H70	H	1.253312	0.226759	0.280458
H71	H	1.350960	0.297317	0.280497
H72	H	1.185878	0.274761	0.500005
H73	H	1.283489	0.345333	0.500072
H74	H	1.190925	0.411378	0.304091
H75	H	1.093285	0.340812	0.304055
H76	H	1.095050	0.409607	0.431690
H77	H	1.489682	-0.140948	0.240805
H78	H	1.654304	0.011156	0.778063
H79	H	1.485974	-0.282022	-0.373819
H80	H	1.481461	-0.452670	-0.373810
C81	C	0.786427	0.465211	0.000130
C82	C	0.710349	0.468593	0.125456
C83	C	0.629946	0.549362	0.125762
H84	H	0.734613	0.467727	-0.084732
H85	H	0.835316	0.515195	0.000213
H86	H	0.661465	0.418622	0.125359
H87	H	0.762130	0.466092	0.210338
H88	H	0.678835	0.599346	0.125845
H89	H	0.578140	0.551871	0.040895
H90	H	0.578326	0.551671	0.210800
C91	C	0.878122	-0.041083	0.000171
C92	C	0.918872	-0.089961	0.125523
C93	C	0.868282	-0.173283	0.125835
H94	H	0.905675	-0.074490	-0.084673
H95	H	0.788597	-0.031037	0.000221
H96	H	1.008377	-0.100010	0.125460
H97	H	0.891321	-0.056581	0.210387
H98	H	0.778758	-0.163238	0.125885
H99	H	0.895839	-0.206682	0.040986
H100	H	0.895914	-0.206454	0.210891
H101	H	1.481427	-0.452656	0.373589
C102	C	1.151329	-0.035820	0.000244
C103	C	1.227342	-0.039187	0.125610
C104	C	1.307748	-0.119954	0.125970
H105	H	1.203187	-0.038344	-0.084590
H106	H	1.102442	-0.085805	0.000307
H107	H	1.276224	0.010785	0.125533
H108	H	1.175517	-0.036677	0.210464
H109	H	1.258861	-0.169939	0.126033
H110	H	1.359598	-0.122471	0.041130
H111	H	1.359324	-0.122253	0.211035
H112	H	1.477714	-0.593746	-0.241018
C113	C	1.059772	0.470421	-0.000421
C114	C	1.134105	0.476653	-0.125753
C115	C	1.184838	0.559922	-0.126087
H116	H	1.110326	0.474900	0.084436
H117	H	0.993200	0.518204	-0.000513
H118	H	1.200668	0.428883	-0.125647
H119	H	1.083580	0.472190	-0.210630
H120	H	1.118266	0.607705	-0.126180
H121	H	1.235386	0.564394	-0.041225
H122	H	1.235269	0.564165	-0.211130
C123	C	1.489988	-0.128343	-0.277236
C124	C	1.488338	-0.189658	-0.393523
C125	C	1.489507	-0.142807	-0.526502
H126	H	1.564114	-0.098065	-0.282969
H127	H	1.417752	-0.085254	-0.282835
H128	H	1.560567	-0.232731	-0.387926
H129	H	1.414218	-0.219939	-0.387839
H130	H	1.417271	-0.099718	-0.532102
H131	H	1.563634	-0.112531	-0.532220
H132	H	1.488376	-0.184401	-0.605419
H133	H	0.716375	0.292212	-0.000148
