data_functionalizedCrystal
_audit_creation_method	'MofGen! by Chris Wilmer'
_symmetry_space_group_name_H-M	'P1'
_symmetry_Int_Tables_number	1
_symmetry_cell_setting	triclinic
loop_
_symmetry_equiv_pos_as_xyz
  x,y,z
_cell_length_a	12.827893
_cell_length_b	16.625546
_cell_length_c	16.625539
_cell_angle_alpha	90.030397
_cell_angle_beta	90.018604
_cell_angle_gamma	90.022629
loop_
_atom_site_label
_atom_site_type_symbol
_atom_site_fract_x
_atom_site_fract_y
_atom_site_fract_z
Zn1	Zn	1.597611	-0.320997	0.455855
Zn2	Zn	1.847611	-0.070997	0.705855
Zn3	Zn	2.097611	0.179003	0.955855
Zn4	Zn	2.347611	0.429003	1.205855
Zn5	Zn	1.597486	-0.455840	0.321018
Zn6	Zn	1.847486	-0.205840	0.571018
Zn7	Zn	2.097486	0.044160	0.821018
Zn8	Zn	2.347486	0.294160	1.071018
Zn9	Zn	1.422855	-0.321025	0.321041
Zn10	Zn	1.672855	-0.071025	0.571041
Zn11	Zn	1.922855	0.178975	0.821041
Zn12	Zn	2.172855	0.428975	1.071041
Zn13	Zn	1.422816	-0.455791	0.455812
Zn14	Zn	1.672816	-0.205791	0.705812
Zn15	Zn	1.922816	0.044209	0.955812
Zn16	Zn	2.172816	0.294209	1.205812
O17	O	1.510192	-0.388413	0.388431
O18	O	1.760192	-0.138413	0.638431
O19	O	2.010192	0.111587	0.888431
O20	O	2.260192	0.361587	1.138431
O21	O	1.743831	-0.338892	0.437977
O22	O	1.993831	-0.088892	0.687977
O23	O	2.243831	0.161108	0.937977
O24	O	2.493831	0.411108	1.187977
O25	O	1.574284	-0.437989	0.208188
O26	O	1.824284	-0.187989	0.458188
O27	O	2.074284	0.062011	0.708188
O28	O	2.324284	0.312011	0.958188
O29	O	1.446105	-0.208189	0.338952
O30	O	1.696105	0.041811	0.588952
O31	O	1.946105	0.291811	0.838952
O32	O	2.196105	0.541811	1.088952
O33	O	1.743739	-0.437961	0.338913
O34	O	1.993739	-0.187961	0.588913
O35	O	2.243739	0.062039	0.838913
O36	O	2.493739	0.312039	1.088913
O37	O	1.574498	-0.208168	0.438000
O38	O	1.824498	0.041832	0.688000
O39	O	2.074498	0.291832	0.938000
O40	O	2.324498	0.541832	1.188000
O41	O	1.445983	-0.338941	0.208205
O42	O	1.695983	-0.088941	0.458205
O43	O	1.945983	0.161059	0.708205
O44	O	2.195983	0.411059	0.958205
O45	O	1.276614	-0.338894	0.338910
O46	O	1.526614	-0.088894	0.588910
O47	O	1.776614	0.161106	0.838910
O48	O	2.026614	0.411106	1.088910
O49	O	1.446040	-0.437878	0.568650
O50	O	1.696040	-0.187878	0.818650
O51	O	1.946040	0.062122	1.068650
O52	O	2.196040	0.312122	1.318650
O53	O	1.276585	-0.437906	0.437926
O54	O	1.526585	-0.187906	0.687926
O55	O	1.776585	0.062094	0.937926
O56	O	2.026585	0.312094	1.187926
O57	O	1.574461	-0.338845	0.568682
O58	O	1.824461	-0.088845	0.818682
O59	O	2.074461	0.161155	1.068682
O60	O	2.324461	0.411155	1.318682
O61	O	1.574247	-0.568666	0.338871
O62	O	1.824247	-0.318666	0.588871
O63	O	2.074247	-0.068666	0.838871
O64	O	2.324247	0.181334	1.088871
O65	O	1.445918	-0.568630	0.437904
O66	O	1.695918	-0.318630	0.687904
O67	O	1.945918	-0.068630	0.937904
O68	O	2.195918	0.181370	1.187904
C69	C	1.238682	-0.388398	0.388416
C70	C	1.488682	-0.138398	0.638416
C71	C	1.738682	0.111602	0.888416
C72	C	1.988682	0.361602	1.138416
C73	C	1.122529	-0.388412	0.388429
C74	C	1.372529	-0.138412	0.638429
C75	C	1.622529	0.111588	0.888429
C76	C	1.872529	0.361588	1.138429
C77	C	1.070790	-0.339476	0.437525
C78	C	1.320790	-0.089476	0.687525
C79	C	1.570790	0.160524	0.937525
C80	C	1.820790	0.410524	1.187525
C81	C	0.950739	-0.339489	0.437539
C82	C	1.200739	-0.089489	0.687539
C83	C	1.450739	0.160511	0.937539
C84	C	1.700739	0.410511	1.187539
C85	C	1.510093	-0.597904	0.388398
C86	C	1.760093	-0.347904	0.638398
C87	C	2.010093	-0.097904	0.888398
C88	C	2.260093	0.152096	1.138398
C89	C	1.510146	-0.687525	0.388410
C90	C	1.760146	-0.437525	0.638410
C91	C	2.010146	-0.187525	0.888410
C92	C	2.260146	0.062475	1.138410
C93	C	1.510329	-1.015701	0.388494
C94	C	1.760329	-0.765701	0.638494
C95	C	2.010329	-0.515701	0.888494
C96	C	2.260329	-0.265701	1.138494
C97	C	1.510275	-0.924392	0.388473
C98	C	1.760275	-0.674392	0.638473
C99	C	2.010275	-0.424392	0.888473
C100	C	2.260275	-0.174392	1.138473
C101	C	1.510237	-0.851616	0.388452
C102	C	1.760237	-0.601616	0.638452
C103	C	2.010237	-0.351616	0.888452
C104	C	2.260237	-0.101616	1.138452
C105	C	1.510184	-0.760302	0.388431
C106	C	1.760184	-0.510302	0.638431
C107	C	2.010184	-0.260302	0.888431
C108	C	2.260184	-0.010302	1.138431
C109	C	1.782762	-0.388429	0.388447
C110	C	2.032762	-0.138429	0.638447
C111	C	2.282762	0.111571	0.888447
C112	C	2.532762	0.361571	1.138447
C113	C	1.898915	-0.388435	0.388454
C114	C	2.148915	-0.138435	0.638454
C115	C	2.398915	0.111565	0.888454
C116	C	2.648915	0.361565	1.138454
C117	C	1.510320	-0.178104	0.388483
C118	C	1.760320	0.071896	0.638483
C119	C	2.010320	0.321896	0.888483
C120	C	2.260320	0.571896	1.138483
C121	C	1.510374	-0.088483	0.388505
C122	C	1.760374	0.161517	0.638505
C123	C	2.010374	0.411517	0.888505
C124	C	2.260374	0.661517	1.138505
C125	C	1.510260	-0.388353	0.598740
C126	C	1.760260	-0.138353	0.848740
C127	C	2.010260	0.111647	1.098740
C128	C	2.260260	0.361647	1.348740
C129	C	1.510289	-0.388328	0.688362
C130	C	1.760289	-0.138328	0.938362
C131	C	2.010289	0.111672	1.188362
C132	C	2.260289	0.361672	1.438362
C133	C	1.510185	-0.388415	0.178941
C134	C	1.760185	-0.138415	0.428941
C135	C	2.010185	0.111585	0.678941
C136	C	2.260185	0.361585	0.928941
C137	C	1.510358	-0.388213	0.089320
C138	C	1.760358	-0.138213	0.339320
C139	C	2.010358	0.111787	0.589320
C140	C	2.260358	0.361787	0.839320
C141	C	1.510337	-0.388237	1.016537
C142	C	1.760337	-0.138237	1.266537
C143	C	2.010337	0.111763	1.516537
C144	C	2.260337	0.361763	1.766537
C145	C	1.510321	-0.388265	0.925229
C146	C	1.760321	-0.138265	1.175229
C147	C	2.010321	0.111735	1.425229
C148	C	2.260321	0.361735	1.675229
C149	C	1.510314	-0.388283	0.852452
C150	C	1.760314	-0.138283	1.102452
C151	C	2.010314	0.111717	1.352452
C152	C	2.260314	0.361717	1.602452
C153	C	1.510296	-0.388310	0.761138
C154	C	1.760296	-0.138310	1.011138
C155	C	2.010296	0.111690	1.261138
C156	C	2.260296	0.361690	1.511138
H157	H	1.077948	-0.430314	0.346404
H158	H	1.327948	-0.180314	0.596404
H159	H	1.577948	0.069686	0.846404
H160	H	1.827948	0.319686	1.096404
H161	H	1.115371	-0.297569	0.479545
H162	H	1.365371	-0.047569	0.729545
H163	H	1.615371	0.202431	0.979545
H164	H	1.865371	0.452431	1.229545
H165	H	0.943403	-0.430337	0.346423
H166	H	1.193403	-0.180337	0.596423
H167	H	1.443403	0.069663	0.846423
H168	H	1.693403	0.319663	1.096423
H169	H	0.906245	-0.297596	0.479576
H170	H	1.156245	-0.047596	0.729576
H171	H	1.406245	0.202404	0.979576
H172	H	1.656245	0.452404	1.229576
