data_functionalizedCrystal
_audit_creation_method	'MofGen! by Chris Wilmer'
_symmetry_space_group_name_H-M	'P1'
_symmetry_Int_Tables_number	1
_symmetry_cell_setting	triclinic
loop_
_symmetry_equiv_pos_as_xyz
  x,y,z
_cell_length_a	8.559649
_cell_length_b	10.268362
_cell_length_c	8.597278
_cell_angle_alpha	82.299169
_cell_angle_beta	77.625102
_cell_angle_gamma	89.995647
loop_
_atom_site_label
_atom_site_type_symbol
_atom_site_fract_x
_atom_site_fract_y
_atom_site_fract_z
O1	O	2.119299	-0.102316	-0.053152
O2	O	1.655360	-0.111399	0.027748
O3	O	1.896457	-0.081095	-0.242268
O4	O	1.878203	-0.132619	0.216864
O5	O	1.896431	0.135504	-0.242254
O6	O	1.655335	0.105201	0.027762
O7	O	2.119274	0.114284	-0.053138
Cu8	Cu	1.887302	0.129519	-0.012687
Cu9	Cu	1.887332	-0.126634	-0.012703
O10	O	1.878177	0.083980	0.216878
C11	C	1.595914	-0.003788	0.033886
C12	C	1.418819	-0.005838	0.052135
N13	N	1.887292	0.309684	-0.012677
C14	C	1.887302	0.427526	-0.012676
C15	C	1.887321	0.575366	-0.012691
C16	C	2.178720	0.006670	-0.059276
C17	C	2.355815	0.008711	-0.077525
C18	C	1.894482	0.033737	-0.300495
C19	C	1.888617	0.053201	-0.474014
N20	N	1.887343	0.693201	-0.012713
C21	C	1.880152	-0.030855	0.275106
C22	C	1.886017	-0.050327	0.448625
H23	H	1.437358	0.022729	-0.202493
H24	H	1.888263	-0.153865	-0.484848
H25	H	1.337267	-0.019869	0.177112
F26	F	1.885654	0.188525	-0.560950
