data_functionalizedCrystal
_audit_creation_method	'MofGen! by Chris Wilmer'
_symmetry_space_group_name_H-M	'P1'
_symmetry_Int_Tables_number	1
_symmetry_cell_setting	triclinic
loop_
_symmetry_equiv_pos_as_xyz
  x,y,z
_cell_length_a	17.640112
_cell_length_b	21.295417
_cell_length_c	17.639306
_cell_angle_alpha	101.182150
_cell_angle_beta	87.804122
_cell_angle_gamma	101.256239
loop_
_atom_site_label
_atom_site_type_symbol
_atom_site_fract_x
_atom_site_fract_y
_atom_site_fract_z
Zn1	Zn	1.247725	-0.080914	-0.195061
Zn2	Zn	1.221964	-0.169894	-0.068081
Zn3	Zn	1.095076	-0.089221	-0.093713
Zn4	Zn	1.120668	-0.210748	-0.220650
O5	O	1.171358	-0.137694	-0.144376
O6	O	1.350585	-0.072143	-0.156781
O7	O	1.183640	-0.145572	0.034784
O8	O	1.115396	-0.000021	-0.107176
O9	O	1.331658	-0.137517	-0.063489
O10	O	1.227547	0.006082	-0.181636
O11	O	1.090416	-0.086302	0.015952
O12	O	0.992193	-0.125916	-0.131988
O13	O	1.159014	-0.207146	-0.323521
O14	O	1.010995	-0.215201	-0.225248
O15	O	1.252363	-0.111758	-0.304721
O16	O	1.208455	-0.263411	-0.088301
O17	O	1.134034	-0.293426	-0.200393
C18	C	0.974038	-0.175893	-0.184177
C19	C	0.889627	-0.192253	-0.201221
C20	C	0.563034	-0.013405	-0.014896
C21	C	0.483719	-0.028791	-0.030922
C22	C	0.503318	-0.121853	-0.127866
C23	C	0.582637	-0.106473	-0.111851
C24	C	0.612488	-0.052248	-0.055364
C25	C	0.632091	-0.145316	-0.152319
C26	C	0.711402	-0.129939	-0.136301
C27	C	0.741259	-0.075718	-0.079816
C28	C	0.691799	-0.036871	-0.039347
C29	C	0.602238	-0.199543	-0.208801
C30	C	0.651692	-0.238387	-0.249269
C31	C	0.731005	-0.223007	-0.233256
C32	C	0.760862	-0.168786	-0.176771
C33	C	0.780465	-0.261854	-0.273725
C34	C	0.859776	-0.246477	-0.257708
C35	C	0.840173	-0.153409	-0.160753
C36	C	1.171250	-0.301260	-0.144354
C37	C	1.171278	-0.371224	-0.144356
C38	C	1.210083	-0.388439	-0.086031
C39	C	1.210122	-0.454176	-0.086041
C40	C	1.171341	-0.502698	-0.144371
C41	C	1.132535	-0.485477	-0.202706
C42	C	1.132504	-0.419740	-0.202699
N43	N	1.106074	-0.619573	-0.163561
N44	N	1.106105	-0.682020	-0.163563
C45	C	1.171435	-0.700762	-0.144397
N46	N	1.236732	-0.654696	-0.125214
N47	N	1.236699	-0.592243	-0.125209
C48	C	1.171372	-0.573981	-0.144386
C49	C	1.210286	-0.789256	-0.086079
C50	C	1.210327	-0.854996	-0.086094
C51	C	1.132733	-0.886296	-0.202757
C52	C	1.132699	-0.820557	-0.202745
C53	C	1.171474	-0.772041	-0.144402
C54	C	1.369449	-0.099346	-0.104421
C55	C	1.453863	-0.083005	-0.087395
C56	C	1.211417	-0.163082	-0.342445
C57	C	1.228487	-0.173901	-0.426850
C58	C	1.171491	0.026512	-0.144411
C59	C	1.171547	0.096487	-0.144426
C60	C	1.041970	-0.055212	-0.753490
C61	C	1.058028	-0.065388	-0.832798
C62	C	1.155092	-0.127100	-0.813170
C63	C	1.139045	-0.116926	-0.733858
C64	C	1.082483	-0.080983	-0.704025
C65	C	1.179558	-0.142697	-0.684394
C66	C	1.163509	-0.132527	-0.605089
C67	C	1.106948	-0.096587	-0.575250
C68	C	1.066434	-0.070813	-0.624721
C69	C	1.236116	-0.178644	-0.714229
C70	C	1.276629	-0.204415	-0.664764
C71	C	1.260584	-0.194241	-0.585458
C72	C	1.204023	-0.158301	-0.555619
C73	C	1.301098	-0.220015	-0.535987
C74	C	1.285049	-0.209845	-0.456683
C75	C	1.187974	-0.148131	-0.476315
C76	C	1.131499	-0.112351	0.052930
C77	C	1.114576	-0.101326	0.137364
H78	H	0.479002	-0.166004	-0.173855
H79	H	0.995919	-0.025935	-0.729197
H80	H	0.716107	0.007292	0.006639
Br81	Br	1.262790	-0.477548	-0.006880
H82	H	1.101097	-0.806541	-0.250236
Br83	Br	0.880694	-0.079813	-0.084099
H84	H	1.093877	-0.088312	-0.510676
Br85	Br	0.416601	0.023927	0.024013
H86	H	1.100961	-0.524988	-0.250200
H87	H	1.100904	-0.405725	-0.250195
H88	H	1.241658	-0.348937	-0.038527
H89	H	1.241861	-0.749752	-0.038575
H90	H	1.347145	-0.249286	-0.560291
Br91	Br	0.494597	-0.220421	-0.230527
Br92	Br	1.111221	-0.099339	-0.435817
Br93	Br	0.603555	0.060192	0.061758
Br94	Br	1.263005	-0.878358	-0.006938
H95	H	1.020384	-0.041536	-0.600428
H96	H	1.101161	-0.925802	-0.250253
Br97	Br	1.003064	-0.030385	-0.899924
Br98	Br	1.231847	-0.175884	-0.853666
Br99	Br	0.926897	-0.299196	-0.312624
Br100	Br	1.340025	-0.244825	-0.389548
H101	H	1.322679	-0.233683	-0.689066
Br102	Br	0.611170	-0.311982	-0.325915
Br103	Br	0.739939	-0.335454	-0.350364
H104	H	1.249183	-0.186921	-0.778804
H105	H	0.805839	-0.063200	-0.066774
