data_functionalizedCrystal
_audit_creation_method	'MofGen! by Chris Wilmer'
_symmetry_space_group_name_H-M	'P1'
_symmetry_Int_Tables_number	1
_symmetry_cell_setting	triclinic
loop_
_symmetry_equiv_pos_as_xyz
  x,y,z
_cell_length_a	19.805407
_cell_length_b	21.295417
_cell_length_c	19.805399
_cell_angle_alpha	90.029796
_cell_angle_beta	90.019573
_cell_angle_gamma	90.029702
loop_
_atom_site_label
_atom_site_type_symbol
_atom_site_fract_x
_atom_site_fract_y
_atom_site_fract_z
Zn1	Zn	1.034720	-0.250624	0.382709
Zn2	Zn	1.368054	0.082710	0.716043
Zn3	Zn	1.701387	0.416043	1.049376
Zn4	Zn	1.034629	-0.355893	0.269517
Zn5	Zn	1.367962	-0.022559	0.602850
Zn6	Zn	1.701295	0.310774	0.936183
Zn7	Zn	0.921535	-0.250641	0.269534
Zn8	Zn	1.254868	0.082692	0.602867
Zn9	Zn	1.588201	0.416026	0.936200
Zn10	Zn	0.921492	-0.355859	0.382663
Zn11	Zn	1.254825	-0.022526	0.715997
Zn12	Zn	1.588159	0.310808	1.049330
O13	O	0.978094	-0.303254	0.326106
O14	O	1.311427	0.030079	0.659439
O15	O	1.644761	0.363413	0.992772
O16	O	1.129425	-0.264595	0.367706
O17	O	1.462758	0.068739	0.701039
O18	O	1.796091	0.402072	1.034373
O19	O	1.019606	-0.341952	0.174802
O20	O	1.352939	-0.008619	0.508136
O21	O	1.686273	0.324715	0.841469
O22	O	0.936605	-0.162549	0.284573
O23	O	1.269939	0.170784	0.617907
O24	O	1.603272	0.504117	0.951240
O25	O	1.129357	-0.341935	0.284544
O26	O	1.462691	-0.008602	0.617877
O27	O	1.796024	0.324732	0.951210
O28	O	1.019762	-0.162537	0.367723
O29	O	1.353096	0.170797	0.701056
O30	O	1.686429	0.504130	1.034389
O31	O	0.936517	-0.264624	0.174815
O32	O	1.269850	0.068709	0.508148
O33	O	1.603183	0.402042	0.841482
O34	O	0.826813	-0.264592	0.284529
O35	O	1.160146	0.068742	0.617862
O36	O	1.493479	0.402075	0.951195
O37	O	0.936532	-0.341878	0.477386
O38	O	1.269866	-0.008545	0.810719
O39	O	1.603199	0.324789	1.144053
O40	O	0.826781	-0.341895	0.367644
O41	O	1.160114	-0.008562	0.700978
O42	O	1.493448	0.324772	1.034311
O43	O	1.019721	-0.264562	0.477420
O44	O	1.353054	0.068771	0.810753
O45	O	1.686387	0.402104	1.144086
O46	O	1.019564	-0.443977	0.284499
O47	O	1.352898	-0.110644	0.617833
O48	O	1.686231	0.222689	0.951166
O49	O	0.936443	-0.443953	0.367628
O50	O	1.269777	-0.110620	0.700961
O51	O	1.603110	0.222714	1.034294
C52	C	0.802238	-0.303242	0.326084
C53	C	1.135571	0.030091	0.659417
C54	C	1.468904	0.363425	0.992751
C55	C	0.727006	-0.303252	0.326091
C56	C	1.060339	0.030081	0.659424
C57	C	1.393673	0.363415	0.992757
C58	C	0.978008	-0.466806	0.326071
C59	C	1.311341	-0.133472	0.659405
C60	C	1.644674	0.199861	0.992738
C61	C	0.978033	-0.536774	0.326079
C62	C	1.311366	-0.203441	0.659413
C63	C	1.644699	0.129893	0.992746
C64	C	0.691663	-0.343564	0.369299
C65	C	1.024996	-0.010231	0.702632
C66	C	1.358330	0.323102	1.035966
C67	C	0.620975	-0.343566	0.369308
C68	C	0.954308	-0.010232	0.702642
C69	C	1.287641	0.323101	1.035975
C70	C	0.585630	-0.303257	0.326106
C71	C	0.918964	0.030076	0.659439
C72	C	1.252297	0.363410	0.992772
C73	C	0.620978	-0.262940	0.282895
C74	C	0.954311	0.070393	0.616229
C75	C	1.287645	0.403726	0.949562
C76	C	0.691665	-0.262936	0.282890
C77	C	1.024999	0.070397	0.616223
C78	C	1.358332	0.403730	0.949557
C79	C	0.335905	-0.262954	0.282918
C80	C	0.669238	0.070379	0.616251
C81	C	1.002571	0.403713	0.949585
C82	C	0.265213	-0.262962	0.282925
C83	C	0.598546	0.070371	0.616259
C84	C	0.931879	0.403704	0.949592
C85	C	0.265214	-0.343583	0.369336
C86	C	0.598547	-0.010250	0.702670
C87	C	0.931881	0.323083	1.036003
C88	C	0.335901	-0.343579	0.369331
C89	C	0.669235	-0.010246	0.702664
C90	C	1.002568	0.323087	1.035997
C91	C	0.371243	-0.303261	0.326123
C92	C	0.704576	0.030073	0.659457
C93	C	1.037910	0.363406	0.992790
C94	C	0.447891	-0.303259	0.326114
C95	C	0.781225	0.030074	0.659448
C96	C	1.114558	0.363408	0.992781
C97	C	0.508983	-0.303261	0.326111
C98	C	0.842316	0.030072	0.659444
C99	C	1.175650	0.363405	0.992777
C100	C	1.021308	-0.569577	0.369406
C101	C	1.354641	-0.236243	0.702740
C102	C	1.687974	0.097090	1.036073
C103	C	1.021331	-0.635319	0.369423
C104	C	1.354665	-0.301986	0.702756
C105	C	1.687998	0.031347	1.036090
C106	C	0.978087	-0.668256	0.326101
C107	C	1.311421	-0.334923	0.659434
C108	C	1.644754	-0.001590	0.992767
C109	C	0.934804	-0.635446	0.282771
C110	C	1.268137	-0.302112	0.616104
C111	C	1.601471	0.031221	0.949438
C112	C	0.934777	-0.569704	0.282760
C113	C	1.268110	-0.236371	0.616094
C114	C	1.601443	0.096962	0.949427
N115	N	0.972976	-0.771518	0.266865
N116	N	1.306309	-0.438184	0.600198
N117	N	1.639643	-0.104851	0.933532
N118	N	0.973006	-0.833969	0.266877
N119	N	1.306339	-0.500636	0.600210
N120	N	1.639673	-0.167302	0.933544
C121	C	0.978167	-0.866331	0.326131
C122	C	1.311500	-0.532998	0.659465
C123	C	1.644833	-0.199664	0.992798
N124	N	0.983309	-0.833882	0.385374
N125	N	1.316642	-0.500549	0.718708
N126	N	1.649976	-0.167216	1.052041
N127	N	0.983283	-0.771425	0.385362
N128	N	1.316616	-0.438092	0.718695
N129	N	1.649949	-0.104759	1.052028
C130	C	0.978112	-0.739542	0.326108
C131	C	1.311445	-0.406208	0.659441
C132	C	1.644779	-0.072875	0.992774
C133	C	1.021470	-0.970419	0.369480
C134	C	1.354803	-0.637086	0.702813
C135	C	1.688136	-0.303753	1.036147
C136	C	1.021489	-1.036163	0.369498
C137	C	1.354822	-0.702830	0.702831
C138	C	1.688156	-0.369496	1.036164
C139	C	0.934965	-1.036288	0.282840
C140	C	1.268298	-0.702955	0.616173
C141	C	1.601632	-0.369622	0.949506
C142	C	0.934942	-0.970546	0.282828
C143	C	1.268276	-0.637212	0.616161
C144	C	1.601609	-0.303879	0.949494
C145	C	0.978198	-0.937615	0.326147
C146	C	1.311532	-0.604282	0.659480
C147	C	1.644865	-0.270949	0.992814
C148	C	1.154637	-0.303267	0.326128
C149	C	1.487970	0.030067	0.659461
C150	C	1.821303	0.363400	0.992795
C151	C	1.229869	-0.303272	0.326138
C152	C	1.563202	0.030061	0.659471
C153	C	1.896535	0.363395	0.992804
C154	C	0.978132	-0.303214	0.502649
C155	C	1.311465	0.030119	0.835982
C156	C	1.644798	0.363452	1.169315
C157	C	0.978148	-0.303198	0.577881
C158	C	1.311481	0.030136	0.911214
C159	C	1.644815	0.363469	1.244547
C160	C	0.978199	-0.139064	0.326155
C161	C	1.311532	0.194269	0.659488
C162	C	1.644866	0.527603	0.992822
C163	C	0.978244	-0.069096	0.326176
C164	C	1.311577	0.264238	0.659509
C165	C	1.644910	0.597571	0.992843
C166	C	0.978095	-0.303248	0.150250
C167	C	1.311428	0.030085	0.483583
C168	C	1.644762	0.363418	0.816916
C169	C	0.978210	-0.303088	0.075018
C170	C	1.311543	0.030246	0.408351
C171	C	1.644877	0.363579	0.741685
C172	C	1.021465	-0.262937	0.613243
C173	C	1.354798	0.070396	0.946577
C174	C	1.688132	0.403729	1.279910
C175	C	1.021472	-0.262919	0.683932
C176	C	1.354805	0.070414	1.017265
C177	C	1.688139	0.403748	1.350599
C178	C	0.978165	-0.303165	0.719256
C179	C	1.311498	0.030169	1.052590
C180	C	1.644831	0.363502	1.385923
C181	C	0.934843	-0.343427	0.683888
C182	C	1.268176	-0.010094	1.017222
C183	C	1.601510	0.323240	1.350555
C184	C	0.934833	-0.343441	0.613201
C185	C	1.268166	-0.010108	0.946535
C186	C	1.601500	0.323225	1.279868
C187	C	0.934881	-0.343368	0.968962
C188	C	1.268214	-0.010035	1.302295
C189	C	1.601548	0.323298	1.635629
C190	C	0.934896	-0.343352	1.039654
C191	C	1.268229	-0.010018	1.372987
C192	C	1.601562	0.323315	1.706321
C193	C	1.021520	-0.262846	1.039692
C194	C	1.354854	0.070488	1.373026
C195	C	1.688187	0.403821	1.706359
C196	C	1.021510	-0.262860	0.969005
C197	C	1.354844	0.070473	1.302339
C198	C	1.688177	0.403806	1.635672
C199	C	0.978186	-0.303120	0.933644
C200	C	1.311520	0.030214	1.266977
C201	C	1.644853	0.363547	1.600310
C202	C	0.978178	-0.303138	0.856995
C203	C	1.311512	0.030195	1.190329
C204	C	1.644845	0.363528	1.523662
C205	C	0.978176	-0.303150	0.795903
C206	C	1.311509	0.030183	1.129237
C207	C	1.644842	0.363517	1.462570
H208	H	0.720435	-0.376390	0.404477
H209	H	1.053769	-0.043057	0.737811
H210	H	1.387102	0.290276	1.071144
H211	H	0.899536	-0.542996	0.247478
H212	H	1.232870	-0.209662	0.580811
H213	H	1.566203	0.123671	0.914144
Cl214	Cl	1.075915	-0.212343	0.568843
Cl215	Cl	1.409249	0.120991	0.902176
Cl216	Cl	1.742582	0.454324	1.235509
Cl217	Cl	0.880373	-0.394055	0.568745
Cl218	Cl	1.213706	-0.060721	0.902078
Cl219	Cl	1.547039	0.272612	1.235412
Cl220	Cl	1.075889	-1.077402	0.423979
Cl221	Cl	1.409222	-0.744068	0.757313
Cl222	Cl	1.742555	-0.410735	1.090646
H223	H	1.056747	-0.230136	0.712721
H224	H	1.390080	0.103197	1.046054
H225	H	1.723414	0.436530	1.379388
H226	H	0.236437	-0.230134	0.247744
H227	H	0.569771	0.103199	0.581078
H228	H	0.903104	0.436532	0.914411
H229	H	0.899614	-0.376159	0.940179
H230	H	1.232947	-0.042826	1.273512
H231	H	1.566280	0.290507	1.606846
H232	H	0.899707	-0.943836	0.247544
H233	H	1.233040	-0.610503	0.580877
H234	H	1.566373	-0.277169	0.914211
H235	H	1.056565	-0.662032	0.404713
H236	H	1.389899	-0.328699	0.738046
H237	H	1.723232	0.004634	1.071380
H238	H	1.056778	-0.230090	0.940248
H239	H	1.390111	0.103243	1.273581
H240	H	1.723445	0.436577	1.606914
Cl241	Cl	1.075983	-0.212230	1.084151
Cl242	Cl	1.409317	0.121103	1.417485
Cl243	Cl	1.742650	0.454436	1.750818
Cl244	Cl	0.880598	-1.077689	0.228379
Cl245	Cl	1.213932	-0.744355	0.561712
Cl246	Cl	1.547265	-0.411022	0.895045
Cl247	Cl	0.880397	-0.394020	0.728296
Cl248	Cl	1.213730	-0.060686	1.061630
Cl249	Cl	1.547063	0.272647	1.394963
Cl250	Cl	0.880447	-0.393950	1.084061
Cl251	Cl	1.213781	-0.060617	1.417394
Cl252	Cl	1.547114	0.272717	1.750728
H253	H	0.236430	-0.376410	0.404521
H254	H	0.569764	-0.043077	0.737854
H255	H	0.903097	0.290256	1.071187
Cl256	Cl	0.576545	-0.212262	0.228588
Cl257	Cl	0.909879	0.121071	0.561921
Cl258	Cl	1.243212	0.454405	0.895254
Cl259	Cl	0.380330	-0.394257	0.423642
Cl260	Cl	0.713663	-0.060924	0.756976
Cl261	Cl	1.046997	0.272409	1.090309
H262	H	0.592201	-0.376392	0.404492
H263	H	0.925535	-0.043059	0.737826
H264	H	1.258868	0.290274	1.071159
Cl265	Cl	1.075844	-0.929018	0.423940
Cl266	Cl	1.409178	-0.595685	0.757274
Cl267	Cl	1.742511	-0.262351	1.090607
Cl268	Cl	0.880436	-0.676851	0.228313
Cl269	Cl	1.213769	-0.343518	0.561646
Cl270	Cl	1.547103	-0.010185	0.894979
Cl271	Cl	0.380325	-0.212266	0.228602
Cl272	Cl	0.713658	0.121068	0.561935
Cl273	Cl	1.046992	0.454401	0.895268
Cl274	Cl	0.736097	-0.212254	0.228570
Cl275	Cl	1.069430	0.121079	0.561904
Cl276	Cl	1.402763	0.454412	0.895237
Cl277	Cl	1.075682	-0.528182	0.423869
Cl278	Cl	1.409015	-0.194848	0.757203
Cl279	Cl	1.742348	0.138485	1.090536
