data_functionalizedCrystal
_audit_creation_method	'MofGen! by Chris Wilmer'
_symmetry_space_group_name_H-M	'P1'
_symmetry_Int_Tables_number	1
_symmetry_cell_setting	triclinic
loop_
_symmetry_equiv_pos_as_xyz
  x,y,z
_cell_length_a	16.625546
_cell_length_b	13.897449
_cell_length_c	13.897441
_cell_angle_alpha	90.016656
_cell_angle_beta	90.033447
_cell_angle_gamma	90.027294
loop_
_atom_site_label
_atom_site_type_symbol
_atom_site_fract_x
_atom_site_fract_y
_atom_site_fract_z
Zn1	Zn	-0.320872	1.474671	0.545257
Zn2	Zn	-0.455722	1.474551	0.383951
Zn3	Zn	-0.320919	1.313360	0.383987
Zn4	Zn	-0.455678	1.313328	0.545215
O5	O	-0.388298	1.393977	0.464602
O6	O	-0.338759	1.609636	0.523862
O7	O	-0.437879	1.453132	0.248974
O8	O	-0.208080	1.334821	0.405413
O9	O	-0.437833	1.609549	0.405351
O10	O	-0.208046	1.453336	0.523897
O11	O	-0.338839	1.334705	0.249001
O12	O	-0.338796	1.178374	0.405372
O13	O	-0.437757	1.334767	0.680202
O14	O	-0.437803	1.178351	0.523825
O15	O	-0.338716	1.453305	0.680233
O16	O	-0.568549	1.453101	0.405310
O17	O	-0.568516	1.334651	0.523790
C18	C	-0.597789	1.393886	0.464562
C19	C	-0.687410	1.393935	0.464577
C20	C	-0.388300	1.143363	0.464598
C21	C	-0.388320	1.036149	0.464619
C22	C	-0.388227	1.394046	0.716195
C23	C	-0.388196	1.394075	0.823409
C24	C	-1.015585	1.394104	0.464677
C25	C	-0.924277	1.394054	0.464652
C26	C	-0.851500	1.394019	0.464627
C27	C	-0.760186	1.393970	0.464602
C28	C	-0.177989	1.394095	0.464664
C29	C	-0.088368	1.394146	0.464690
C30	C	-0.388296	1.645570	0.464607
C31	C	-0.388295	1.752784	0.464609
C32	C	-0.388318	1.949079	0.464613
C33	C	-0.388308	1.839847	0.464608
C34	C	-0.388311	1.393965	0.213988
C35	C	-0.388114	1.394122	0.106775
C36	C	-0.388142	1.394101	1.019705
C37	C	-0.388174	1.394084	0.910472
