data_functionalizedCrystal
_audit_creation_method	'MofGen! by Chris Wilmer'
_symmetry_space_group_name_H-M	'P1'
_symmetry_Int_Tables_number	1
_symmetry_cell_setting	triclinic
loop_
_symmetry_equiv_pos_as_xyz
  x,y,z
_cell_length_a	19.805407
_cell_length_b	12.827892
_cell_length_c	19.805399
_cell_angle_alpha	90.022719
_cell_angle_beta	90.019573
_cell_angle_gamma	90.015392
loop_
_atom_site_label
_atom_site_type_symbol
_atom_site_fract_x
_atom_site_fract_y
_atom_site_fract_z
Zn1	Zn	1.034788	-0.416057	0.382743
Zn2	Zn	1.534788	0.083943	0.882743
Zn3	Zn	1.034724	-0.590812	0.269564
Zn4	Zn	1.534724	-0.090812	0.769564
Zn5	Zn	0.921602	-0.416086	0.269567
Zn6	Zn	1.421602	0.083914	0.769567
Zn7	Zn	0.921587	-0.590757	0.382711
Zn8	Zn	1.421587	-0.090757	0.882711
O9	O	0.978175	-0.503428	0.326146
O10	O	1.478175	-0.003428	0.826146
O11	O	1.129496	-0.439250	0.367741
O12	O	1.629496	0.060750	0.867741
O13	O	1.019698	-0.567670	0.174848
O14	O	1.519698	-0.067670	0.674848
O15	O	0.936649	-0.269846	0.284595
O16	O	1.436649	0.230154	0.784595
O17	O	1.129449	-0.567642	0.284589
O18	O	1.629449	-0.067642	0.784589
O19	O	1.019806	-0.269825	0.367744
O20	O	1.519806	0.230175	0.867744
O21	O	0.936588	-0.439299	0.174850
O22	O	1.436588	0.060701	0.674850
O23	O	0.826884	-0.439245	0.284564
O24	O	1.326884	0.060755	0.784564
O25	O	0.936624	-0.567547	0.477431
O26	O	1.436624	-0.067547	0.977431
O27	O	0.826873	-0.567575	0.367690
O28	O	1.326873	-0.067575	0.867690
O29	O	1.019792	-0.439196	0.477455
O30	O	1.519792	0.060804	0.977455
O31	O	1.019684	-0.737041	0.284558
O32	O	1.519684	-0.237041	0.784558
O33	O	0.936563	-0.737000	0.367687
O34	O	1.436563	-0.237000	0.867687
C35	C	0.802319	-0.503408	0.326124
C36	C	1.302319	-0.003408	0.826124
C37	C	0.727087	-0.503425	0.326131
C38	C	1.227087	-0.003425	0.826131
C39	C	0.978133	-0.774938	0.326134
C40	C	1.478133	-0.274938	0.826134
C41	C	0.978177	-0.891091	0.326151
C42	C	1.478177	-0.391091	0.826151
C43	C	0.691755	-0.570347	0.369345
C44	C	1.191755	-0.070347	0.869345
C45	C	0.621067	-0.570349	0.369354
C46	C	1.121067	-0.070349	0.869354
C47	C	0.585712	-0.503433	0.326146
C48	C	1.085712	-0.003433	0.826146
C49	C	0.621049	-0.436504	0.282930
C50	C	1.121049	0.063496	0.782930
C51	C	0.691736	-0.436497	0.282925
C52	C	1.191736	0.063503	0.782925
C53	C	0.335975	-0.436527	0.282953
C54	C	0.835975	0.063473	0.782953
C55	C	0.265283	-0.436540	0.282960
C56	C	0.765283	0.063460	0.782960
C57	C	0.265306	-0.570378	0.369382
C58	C	0.765306	-0.070378	0.869382
C59	C	0.335993	-0.570372	0.369376
C60	C	0.835993	-0.070372	0.869376
C61	C	0.371324	-0.503439	0.326164
C62	C	0.871324	-0.003439	0.826164
C63	C	0.447973	-0.503436	0.326155
C64	C	0.947973	-0.003436	0.826155
C65	C	0.509065	-0.503440	0.326151
C66	C	1.009065	-0.003440	0.826151
C67	C	1.019307	-0.942782	0.367333
C68	C	1.519307	-0.442782	0.867333
C69	C	1.019353	-1.062832	0.367352
C70	C	1.519353	-0.562832	0.867352
C71	C	1.154718	-0.503449	0.326168
C72	C	1.654718	-0.003449	0.826168
C73	C	1.229950	-0.503458	0.326178
C74	C	1.729950	-0.003458	0.826178
C75	C	0.978213	-0.503362	0.502689
C76	C	1.478213	-0.003362	1.002689
C77	C	0.978229	-0.503334	0.577921
C78	C	1.478229	-0.003334	1.077921
C79	C	0.978236	-0.230858	0.326173
C80	C	1.478236	0.269142	0.826173
C81	C	0.978262	-0.114705	0.326185
C82	C	1.478262	0.385295	0.826185
C83	C	0.978176	-0.503418	0.150290
C84	C	1.478176	-0.003418	0.650290
C85	C	0.978291	-0.503152	0.075058
C86	C	1.478291	-0.003152	0.575058
C87	C	1.021536	-0.436499	0.613278
C88	C	1.521536	0.063501	1.113278
C89	C	1.021543	-0.436468	0.683967
C90	C	1.521543	0.063532	1.183967
C91	C	0.978246	-0.503280	0.719297
C92	C	1.478246	-0.003280	1.219297
C93	C	0.934935	-0.570118	0.683934
C94	C	1.434935	-0.070118	1.183934
C95	C	0.934925	-0.570143	0.613247
C96	C	1.434925	-0.070143	1.113247
C97	C	0.934973	-0.570021	0.969008
C98	C	1.434973	-0.070021	1.469008
C99	C	0.934988	-0.569994	1.039700
C100	C	1.434988	-0.069994	1.539700
C101	C	1.021591	-0.436347	1.039727
C102	C	1.521591	0.063653	1.539727
C103	C	1.021581	-0.436371	0.969040
C104	C	1.521581	0.063629	1.469040
C105	C	0.978268	-0.503205	0.933684
C106	C	1.478268	-0.003205	1.433684
C107	C	0.978260	-0.503236	0.857036
C108	C	1.478260	-0.003236	1.357036
C109	C	0.978257	-0.503255	0.795944
C110	C	1.478257	-0.003255	1.295944
H111	H	0.592303	-0.624844	0.404542
H112	H	1.092303	-0.124844	0.904542
H113	H	1.056840	-0.381970	0.940278
H114	H	1.556840	0.118030	1.440278
H115	H	0.236499	-0.382043	0.247775
H116	H	0.736499	0.117957	0.747775
H117	H	1.056856	-0.381923	1.068523
H118	H	1.556856	0.118077	1.568523
H119	H	0.364776	-0.624865	0.404559
H120	H	0.864776	-0.124865	0.904559
N121	N	1.065906	-0.883676	0.414016
N122	N	1.565906	-0.383676	0.914016
H123	H	1.114292	-0.902559	0.403564
H124	H	1.614292	-0.402559	0.903564
H125	H	1.055327	-0.902604	0.462363
H126	H	1.555327	-0.402604	0.962363
H127	H	0.899715	-0.624457	0.940229
H128	H	1.399715	-0.124457	1.440229
H129	H	1.056809	-0.382046	0.712752
H130	H	1.556809	0.117954	1.212752
H131	H	0.899680	-0.624514	0.712705
H132	H	1.399680	-0.124514	1.212705
H133	H	1.054569	-1.107286	0.402606
H134	H	1.554569	-0.607286	0.902606
N135	N	0.729883	-0.642521	0.415950
N136	N	1.229883	-0.142521	0.915950
H137	H	0.780025	-0.632367	0.409390
H138	H	1.280025	-0.132367	0.909390
H139	H	0.717511	-0.717133	0.405333
H140	H	1.217511	-0.217133	0.905333
N141	N	0.374075	-0.364353	0.236336
N142	N	0.874075	0.135647	0.736336
H143	H	0.424220	-0.374496	0.242886
H144	H	0.924220	0.125504	0.742886
H145	H	0.361732	-0.289742	0.246951
H146	H	0.861732	0.210258	0.746951
N147	N	0.888215	-0.642237	0.575116
N148	N	1.388215	-0.142237	1.075116
H149	H	0.915703	-0.690679	0.545786
H150	H	1.415703	-0.190679	1.045786
H151	H	0.856861	-0.599700	0.545827
H152	H	1.356861	-0.099700	1.045827
H153	H	0.899728	-0.624402	1.068463
H154	H	1.399728	-0.124402	1.568463
H155	H	0.236531	-0.624874	0.404571
H156	H	0.736531	-0.124874	0.904571
N157	N	0.931611	-1.055836	0.279481
N158	N	1.431611	-0.555836	0.779481
H159	H	0.904196	-1.106953	0.252012
H160	H	1.404196	-0.606953	0.752012
H161	H	0.959191	-1.010545	0.248203
H162	H	1.459191	-0.510545	0.748203
N163	N	0.582920	-0.364348	0.236314
N164	N	1.082920	0.135652	0.736314
H165	H	0.532778	-0.374516	0.242867
H166	H	1.032778	0.125484	0.742867
H167	H	0.595264	-0.380539	0.187961
H168	H	1.095264	0.119461	0.687961
H169	H	0.720502	-0.381997	0.247739
H170	H	1.220502	0.118003	0.747739
N171	N	0.931580	-0.950193	0.279463
N172	N	1.431580	-0.450193	0.779463
H173	H	0.942104	-0.931285	0.231099
H174	H	1.442104	-0.431285	0.731099
H175	H	0.883212	-0.931285	0.289971
H176	H	1.383212	-0.431285	0.789971
N177	N	1.068239	-0.364444	0.575175
N178	N	1.568239	0.135556	1.075175
H179	H	1.095673	-0.322098	0.608303
H180	H	1.595673	0.177902	1.108303
H181	H	1.040695	-0.316089	0.545845
H182	H	1.540695	0.183911	1.045845
