data_functionalizedCrystal
_audit_creation_method	'MofGen! by Chris Wilmer'
_symmetry_space_group_name_H-M	'P1'
_symmetry_Int_Tables_number	1
_symmetry_cell_setting	triclinic
loop_
_symmetry_equiv_pos_as_xyz
  x,y,z
_cell_length_a	13.032831
_cell_length_b	13.032268
_cell_length_c	11.169416
_cell_angle_alpha	82.846368
_cell_angle_beta	97.184303
_cell_angle_gamma	90.886977
loop_
_atom_site_label
_atom_site_type_symbol
_atom_site_fract_x
_atom_site_fract_y
_atom_site_fract_z
Zn1	Zn	1.498565	-0.780887	0.810548
Zn2	Zn	1.520326	-0.608918	0.989369
Zn3	Zn	1.348418	-0.587124	0.760410
Zn4	Zn	1.326573	-0.759043	0.982880
O5	O	1.423470	-0.683993	0.885802
O6	O	1.645374	-0.776337	0.857968
O7	O	1.515771	-0.462109	0.940730
O8	O	1.368370	-0.612848	0.599120
O9	O	1.661362	-0.649993	0.989347
O10	O	1.478682	-0.755205	0.635956
O11	O	1.389471	-0.446098	0.772515
O12	O	1.201597	-0.591667	0.766223
O13	O	1.331139	-0.905858	0.978287
O14	O	1.185548	-0.717975	0.929670
O15	O	1.457500	-0.921907	0.851676
O16	O	1.494589	-0.628812	1.156450
O17	O	1.352240	-0.739108	1.151682
C18	C	1.156255	-0.650087	0.841802
C19	C	1.041935	-0.635606	0.823011
C20	C	0.983067	-0.691551	0.895609
C21	C	0.864912	-0.676585	0.876190
C22	C	1.389456	-0.952242	0.919850
C23	C	1.374961	-1.066554	0.934360
C24	C	1.431019	-1.125459	0.878184
C25	C	1.416039	-1.243606	0.893178
C26	C	1.691729	-0.718032	0.929974
C27	C	1.806045	-0.732538	0.948798
C28	C	1.423431	-0.683980	1.197619
C29	C	1.423503	-0.684021	1.331035
C30	C	1.457412	-0.416795	0.851809
C31	C	1.472106	-0.302509	0.836995
C32	C	1.423535	-0.684032	0.572775
C33	C	1.423563	-0.684049	0.439381
H34	H	1.020141	-0.750530	0.972136
H35	H	0.827842	-0.617610	0.799649
H36	H	1.531189	-1.265476	0.777787
H37	H	1.356945	-1.280639	0.952369
H38	H	0.843113	-0.791524	1.025328
H39	H	1.004861	-0.576634	0.746476
O40	O	1.501638	-1.081417	0.807658
C41	C	1.680770	-1.070507	0.774088
C42	C	1.600897	-1.120475	0.854045
H43	H	1.761042	-1.102049	0.811576
H44	H	1.660162	-1.089322	0.676995
H45	H	1.680241	-0.983090	0.774546
H46	H	1.601385	-1.207900	0.853689
H47	H	1.621534	-1.101577	0.951100
H48	H	1.315870	-1.103591	0.993546
