data_functionalizedCrystal
_audit_creation_method	'MofGen! by Chris Wilmer'
_symmetry_space_group_name_H-M	'P1'
_symmetry_Int_Tables_number	1
_symmetry_cell_setting	triclinic
loop_
_symmetry_equiv_pos_as_xyz
  x,y,z
_cell_length_a	16.109302
_cell_length_b	15.944493
_cell_length_c	14.586319
_cell_angle_alpha	90.002083
_cell_angle_beta	89.994552
_cell_angle_gamma	83.468412
loop_
_atom_site_label
_atom_site_type_symbol
_atom_site_fract_x
_atom_site_fract_y
_atom_site_fract_z
O1	O	1.103143	0.107972	-0.076269
O2	O	1.603143	0.607972	0.423731
O3	O	0.861083	0.121408	-0.076261
O4	O	1.361083	0.621408	0.423739
O5	O	0.988748	-0.007590	-0.076273
O6	O	1.488748	0.492410	0.423727
O7	O	0.975478	0.236970	-0.076257
O8	O	1.475478	0.736970	0.423743
O9	O	0.988739	-0.007592	0.076208
O10	O	1.488739	0.492408	0.576208
O11	O	0.861074	0.121406	0.076220
O12	O	1.361074	0.621406	0.576220
O13	O	1.103134	0.107970	0.076211
O14	O	1.603134	0.607970	0.576211
Cu15	Cu	0.982103	0.114688	0.090138
Cu16	Cu	1.482103	0.614688	0.590138
Cu17	Cu	0.982114	0.114690	-0.090188
Cu18	Cu	1.482114	0.614690	0.409812
O19	O	0.975469	0.236969	0.076224
O20	O	1.475469	0.736969	0.576224
C21	C	0.830103	0.120863	-0.000019
C22	C	1.330103	0.620863	0.499981
C23	C	0.737808	0.119231	-0.000017
C24	C	1.237808	0.619231	0.499983
C25	C	0.525462	0.115456	0.083091
C26	C	1.025462	0.615456	0.583091
C27	C	0.438742	0.113914	0.083088
C28	C	0.938742	0.613914	0.583088
C29	C	0.438762	0.113920	-0.083155
C30	C	0.938762	0.613920	0.416845
C31	C	0.525481	0.115456	-0.083151
C32	C	1.025481	0.615456	0.416849
C33	C	0.568828	0.116229	-0.000025
C34	C	1.068828	0.616229	0.499975
C35	C	0.395389	0.113150	-0.000032
C36	C	0.895389	0.613150	0.499968
C37	C	0.301363	0.111477	-0.000037
C38	C	0.801363	0.611477	0.499963
C39	C	0.662861	0.117900	-0.000020
C40	C	1.162861	0.617900	0.499980
C41	C	0.988201	-0.038886	-0.000036
C42	C	1.488201	0.461114	0.499964
C43	C	0.986575	-0.132134	-0.000048
C44	C	1.486575	0.367866	0.499952
C45	C	1.061722	-0.367918	-0.000033
C46	C	1.561722	0.132082	0.499967
C47	C	1.021203	-0.418472	-0.075212
C48	C	1.521203	0.081528	0.424788
C49	C	0.983562	-0.302854	-0.000037
C50	C	1.483562	0.197146	0.499963
C51	C	1.021176	-0.418450	0.075122
C52	C	1.521176	0.081550	0.575122
C53	C	0.980658	-0.467763	-0.000022
C54	C	1.480658	0.032237	0.499978
C55	C	0.943064	-0.352179	-0.075278
C56	C	1.443064	0.147821	0.424722
C57	C	0.943048	-0.352154	0.075124
C58	C	1.443048	0.147846	0.575124
C59	C	0.902472	-0.402675	-0.000074
C60	C	1.402472	0.097325	0.499926
C61	C	0.985238	-0.207855	-0.000046
C62	C	1.485238	0.292145	0.499954
C63	C	0.978976	-0.562759	-0.000019
C64	C	1.478976	-0.062759	0.499981
C65	C	1.134114	0.108516	-0.000032
C66	C	1.634114	0.608516	0.499968
C67	C	1.226409	0.110148	-0.000041
C68	C	1.726409	0.610148	0.499959
C69	C	0.976016	0.268264	-0.000015
C70	C	1.476016	0.768264	0.499985
C71	C	0.977642	0.361512	-0.000009
C72	C	1.477642	0.861512	0.499991
N73	N	0.982102	0.114686	0.216970
N74	N	1.482102	0.614686	0.716970
N75	N	0.982122	0.114686	-0.217019
N76	N	1.482122	0.614686	0.282981
C77	C	1.038651	0.057585	0.451971
C78	C	1.538651	0.557585	0.951971
C79	C	1.038653	0.057583	0.547952
C80	C	1.538653	0.557583	1.047952
C81	C	0.925567	0.171790	0.547973
C82	C	1.425567	0.671790	1.047973
C83	C	0.925561	0.171787	0.451993
C84	C	1.425561	0.671787	0.951993
C85	C	0.982108	0.114686	0.403995
C86	C	1.482108	0.614686	0.903995
C87	C	0.982116	0.114686	0.595956
C88	C	1.482116	0.614686	1.095956
C89	C	0.982118	0.114684	0.700023
C90	C	1.482118	0.614684	1.200023
C91	C	0.982105	0.114686	0.299921
C92	C	1.482105	0.614686	0.799921
H93	H	0.403458	0.113292	-0.150833
H94	H	0.903458	0.613292	0.349167
H95	H	0.560791	0.116083	-0.150838
H96	H	1.060791	0.616083	0.349162
H97	H	0.560753	0.116085	0.150778
H98	H	1.060753	0.616085	0.650778
Br99	Br	0.790173	-0.428419	-0.000132
Br100	Br	1.290173	0.071581	0.499868
H101	H	1.054196	-0.447393	0.138676
H102	H	1.554196	0.052607	0.638676
H103	H	0.910065	-0.323183	0.138688
H104	H	1.410065	0.176817	0.638688
Br105	Br	0.848812	0.249280	0.386875
Br106	Br	1.348812	0.749280	0.886875
Br107	Br	1.173932	-0.341904	-0.000157
Br108	Br	1.673932	0.158096	0.499843
Br109	Br	0.888087	-0.304132	-0.181328
Br110	Br	1.388087	0.195868	0.318672
Br111	Br	0.848829	0.249284	0.613116
Br112	Br	1.348829	0.749284	1.113116
Br113	Br	1.076221	-0.466736	-0.181153
Br114	Br	1.576221	0.033264	0.318847
Br115	Br	1.115389	-0.019918	0.613062
Br116	Br	1.615389	0.480082	1.113062
Br117	Br	0.379890	0.112864	0.195894
Br118	Br	0.879890	0.612864	0.695894
Br119	Br	1.115391	-0.019912	0.386834
Br120	Br	1.615391	0.480088	0.886834
