data_functionalizedCrystal
_audit_creation_method	'MofGen! by Chris Wilmer'
_symmetry_space_group_name_H-M	'P1'
_symmetry_Int_Tables_number	1
_symmetry_cell_setting	triclinic
loop_
_symmetry_equiv_pos_as_xyz
  x,y,z
_cell_length_a	19.377625
_cell_length_b	14.560438
_cell_length_c	14.560438
_cell_angle_alpha	60.000905
_cell_angle_beta	75.510751
_cell_angle_gamma	52.466253
loop_
_atom_site_label
_atom_site_type_symbol
_atom_site_fract_x
_atom_site_fract_y
_atom_site_fract_z
Zr1	Zr	0.686668	1.005233	-0.349143
O2	O	0.572852	1.196843	-0.457891
O3	O	0.721559	0.813629	-0.315808
O4	O	0.721556	1.005233	-0.507408
O5	O	0.572858	1.005237	-0.115152
O6	O	0.838856	1.005225	-0.546465
O7	O	0.572855	1.005239	-0.266292
O8	O	0.838863	0.662481	-0.203728
O9	O	0.572852	1.347981	-0.457888
O10	O	0.823980	0.892430	-0.330736
O11	O	0.736442	0.892434	-0.188795
O12	O	0.736438	1.118023	-0.414378
O13	O	0.648900	1.118026	-0.272437
Zr14	Zr	0.873754	1.005216	-0.170384
Zr15	Zr	0.873749	1.005221	-0.411434
Zr16	Zr	0.686673	1.005229	-0.108092
Zr17	Zr	0.686669	1.246280	-0.349139
Zr18	Zr	0.873754	0.764169	-0.170388
O19	O	0.838863	1.196820	-0.203718
O20	O	0.838857	1.196826	-0.546461
O21	O	0.572858	1.196837	-0.115148
O22	O	0.987571	0.813606	-0.061635
O23	O	0.987564	0.813612	-0.404378
O24	O	0.721566	0.813623	0.026935
O25	O	0.987564	1.005212	-0.404375
O26	O	0.838867	1.005216	-0.012119
O27	O	0.721566	1.005224	0.026938
O28	O	0.987567	1.005210	-0.253235
O29	O	0.721556	1.347971	-0.507402
O30	O	0.838866	0.662478	-0.012125
O31	O	0.987571	0.662468	-0.061638
O32	O	0.987567	0.662471	-0.253241
O33	O	0.572856	1.347978	-0.266285
O34	O	0.721560	1.347968	-0.315798
O35	O	0.823985	0.892426	-0.105148
O36	O	0.911522	0.892423	-0.247090
O37	O	0.823980	1.118015	-0.330732
O38	O	0.736443	1.118019	-0.188790
C39	C	0.780211	0.703711	-0.259769
C40	C	0.780211	0.601380	-0.259771
C41	C	0.825903	0.553302	-0.333862
C42	C	0.825906	0.457142	-0.333853
C43	C	0.734518	0.457151	-0.185656
C44	C	0.734521	0.553302	-0.185662
C45	C	0.546202	1.005240	-0.181847
C46	C	0.466781	1.005245	-0.155402
C47	C	0.205560	1.005217	-0.484689
C48	C	0.130936	1.005212	-0.459806
C49	C	0.130960	1.005209	-0.293289
C50	C	0.205583	1.005221	-0.318160
C51	C	0.242878	1.005223	-0.413860
C52	C	0.242901	1.005227	-0.247331
C53	C	0.317520	1.005232	-0.272198
C54	C	0.354821	1.005230	-0.367893
C55	C	0.317497	1.005228	-0.438727
C56	C	0.205608	1.005215	-0.151628
C57	C	0.242926	1.005221	-0.080799
C58	C	0.317543	1.005235	-0.105669
C59	C	0.354844	1.005234	-0.201364
C60	C	0.354867	1.005237	-0.034835
C61	C	0.429486	1.005242	-0.059701
C62	C	0.429463	1.005239	-0.226230
C63	C	1.014221	1.005209	-0.337680
C64	C	1.093642	1.005204	-0.364124
C65	C	0.780205	1.005230	-0.561281
C66	C	0.780203	1.005231	-0.663613
C67	C	0.780212	1.306738	-0.259758
C68	C	0.780212	1.409069	-0.259756
C69	C	0.734508	1.122986	-0.755350
C70	C	0.734518	1.122980	-0.851502
C71	C	0.825920	0.887454	-0.764167
C72	C	0.825914	0.887461	-0.668019
C73	C	0.780217	1.005219	0.041754
C74	C	0.780219	1.005218	0.144086
C75	C	1.014221	0.703696	-0.337686
C76	C	1.093641	0.601360	-0.364132
C77	C	0.780217	0.703706	0.041749
C78	C	0.780219	0.601373	0.144079
C79	C	1.014226	0.703691	-0.036168
C80	C	1.093649	0.601353	0.039718
C81	C	0.546196	1.306758	-0.483358
C82	C	0.466774	1.409096	-0.559245
C83	C	0.546202	1.306753	-0.181841
C84	C	0.466781	1.409090	-0.155395
C85	C	0.780206	1.306743	-0.561275
C86	C	0.780204	1.409076	-0.663606
C87	C	1.085242	0.553305	-0.420224
C88	C	1.159859	0.457163	-0.445093
C89	C	1.242874	0.409070	-0.413862
C90	C	1.251272	0.457134	-0.357768
C91	C	1.176656	0.553281	-0.332906
C92	C	1.176648	0.553292	0.001260
C93	C	1.251282	0.457148	0.072552
C94	C	1.242913	0.409060	0.182301
C95	C	1.159905	0.457130	0.220759
C96	C	1.085274	0.553279	0.149468
C97	C	0.383774	1.457169	-0.520787
C98	C	0.309141	1.553343	-0.592078
C99	C	0.317509	1.601436	-0.701827
C100	C	0.400517	1.553359	-0.740286
C101	C	0.475149	1.457194	-0.668995
C102	C	0.475181	1.457154	-0.099313
C103	C	0.400564	1.553323	-0.074470
C104	C	0.317548	1.601419	-0.105704
C105	C	0.309151	1.553351	-0.161794
C106	C	0.383767	1.457190	-0.186642
C107	C	0.825915	0.553291	0.235817
C108	C	0.825907	0.457147	0.331967
C109	C	0.734505	0.457173	0.244627
C110	C	0.734508	0.553321	0.148482
H111	H	0.863108	0.592442	-0.394205
F112	F	0.874562	0.604430	0.231136
F113	F	0.996897	0.604475	-0.453475
F114	F	0.238142	1.703762	-0.079250
F115	F	0.685899	0.405971	-0.106785
H116	H	0.863135	0.791570	-0.767767
H117	H	0.863129	0.791565	-0.593319
H118	H	0.407419	1.592444	-0.028797
H119	H	1.303624	0.330780	-0.434112
F120	F	0.874536	0.405981	-0.412713
H121	H	0.542728	1.418054	-0.700321
H122	H	0.697288	1.218882	-0.751768
F123	F	0.685892	0.604467	-0.106794
F124	F	0.685861	0.406022	0.249323
H125	H	1.318873	0.417962	-0.332346
F126	F	0.469150	1.005259	-0.328094
F127	F	0.874540	0.405982	0.429600
F128	F	1.150903	0.406023	-0.504789
F129	F	1.185574	0.604459	-0.115540
F130	F	0.685885	1.248311	-0.949134
H131	H	0.415583	1.005228	-0.388135
F132	F	1.339616	0.406001	0.031601
H133	H	0.407321	1.592529	-0.829651
F134	F	0.563525	1.405986	-0.066064
H135	H	1.183507	0.592394	-0.287227
H136	H	1.303690	0.330769	0.240339
H137	H	0.697293	0.592473	0.073781
H138	H	1.153105	0.417963	0.310125
H139	H	1.017695	0.592398	0.180797
F140	F	0.220792	1.604549	-0.195026
H141	H	0.347858	1.005244	-0.516662
H142	H	0.235922	1.005233	-0.562623
F143	F	0.374848	1.406000	-0.403986
H144	H	0.241560	1.592470	-0.560745
H145	H	0.100588	1.005202	-0.215367
F146	F	0.091226	1.005201	-0.535200
H147	H	0.256732	1.679739	-0.759866
F148	F	0.374814	1.406040	-0.246325
F149	F	0.126194	1.005202	-0.125165
F150	F	0.203230	1.005213	0.021051
F151	F	0.469205	1.005244	0.015685
F152	F	0.315174	1.005217	0.067020
