data_functionalizedCrystal
_audit_creation_method	'MofGen! by Chris Wilmer'
_symmetry_space_group_name_H-M	'P1'
_symmetry_Int_Tables_number	1
_symmetry_cell_setting	triclinic
loop_
_symmetry_equiv_pos_as_xyz
  x,y,z
_cell_length_a	8.559648
_cell_length_b	8.559649
_cell_length_c	7.681208
_cell_angle_alpha	94.914834
_cell_angle_beta	85.077397
_cell_angle_gamma	69.778664
loop_
_atom_site_label
_atom_site_type_symbol
_atom_site_fract_x
_atom_site_fract_y
_atom_site_fract_z
O1	O	0.037790	-2.109654	0.146415
O2	O	0.537790	-1.609654	0.646415
O3	O	-0.045990	-1.634171	0.146406
O4	O	0.454010	-1.134171	0.646406
O5	O	0.233638	-1.913798	0.146455
O6	O	0.733638	-1.413798	0.646455
O7	O	-0.241837	-1.830027	0.146366
O8	O	0.258163	-1.330027	0.646366
O9	O	0.268136	-1.948235	-0.146410
O10	O	0.768136	-1.448235	0.353590
O11	O	-0.011491	-1.668608	-0.146459
O12	O	0.488509	-1.168608	0.353541
O13	O	0.072289	-2.144092	-0.146449
O14	O	0.572289	-1.644092	0.353551
Zn15	Zn	0.035876	-1.911818	-0.192952
Zn16	Zn	0.535876	-1.411818	0.307048
Zn17	Zn	-0.009577	-1.866445	0.192909
Zn18	Zn	0.490423	-1.366445	0.692909
O19	O	-0.207339	-1.864465	-0.146498
O20	O	0.292661	-1.364465	0.353502
C21	C	-0.035090	-1.591080	-0.000027
C22	C	0.464910	-1.091080	0.499973
C23	C	-0.053989	-1.411381	-0.000028
C24	C	0.446011	-0.911381	0.499972
C25	C	0.311194	-1.937364	0.000037
C26	C	0.811194	-1.437364	0.500037
C27	C	0.490888	-1.956258	0.000082
C28	C	0.990888	-1.456258	0.500082
C29	C	0.061388	-2.187182	-0.000013
C30	C	0.561388	-1.687182	0.499987
C31	C	0.080286	-2.366879	-0.000000
C32	C	0.580286	-1.866879	0.500000
C33	C	0.715099	-1.840892	-0.000028
C34	C	1.215099	-1.340892	0.499972
C35	C	0.535386	-1.821980	0.000086
C36	C	1.035386	-1.321980	0.500086
N37	N	-0.040585	-1.835482	0.456249
N38	N	0.459415	-1.335482	0.956249
N39	N	0.066884	-1.942781	0.543707
N40	N	0.566884	-1.442781	1.043707
H41	H	0.436011	-1.692563	0.000062
H42	H	0.936011	-1.192563	0.500062
H43	H	-0.183415	-1.311995	-0.000042
H44	H	0.316585	-0.811995	0.499958
H45	H	0.209702	-1.466254	0.000032
H46	H	0.709702	-0.966254	0.500032
F47	F	0.620789	-2.125432	0.000084
F48	F	1.120789	-1.625432	0.500084
F49	F	-0.183928	-1.692356	0.554562
F50	F	0.316072	-1.192356	1.054562
H51	H	0.176546	-2.052297	0.468481
H52	H	0.676546	-1.552297	0.968481
