data_functionalizedCrystal
_audit_creation_method	'MofGen! by Chris Wilmer'
_symmetry_space_group_name_H-M	'P1'
_symmetry_Int_Tables_number	1
_symmetry_cell_setting	triclinic
loop_
_symmetry_equiv_pos_as_xyz
  x,y,z
_cell_length_a	6.817900
_cell_length_b	15.300992
_cell_length_c	9.582880
_cell_angle_alpha	92.795750
_cell_angle_beta	111.207034
_cell_angle_gamma	104.175078
loop_
_atom_site_label
_atom_site_type_symbol
_atom_site_fract_x
_atom_site_fract_y
_atom_site_fract_z
V1	V	-4.120121	-0.124377	-0.467051
O2	O	-4.102208	0.006368	-0.457696
O3	O	-4.074509	-0.246996	-0.464302
O4	O	-4.110836	-0.122292	-0.670544
O5	O	-4.065629	-0.119198	-0.250027
V6	V	-4.598319	-0.108759	-0.441039
O7	O	-4.393060	-0.158638	-0.524110
O8	O	-4.775578	-0.074499	-0.383979
O9	O	-4.420724	0.013860	-0.443787
O10	O	-4.733629	-0.239505	-0.450393
O11	O	-4.770208	-0.113938	-0.658063
O12	O	-4.384397	-0.110844	-0.237545
C13	C	-3.918923	-0.276893	-0.457050
C14	C	-3.963177	-0.377134	-0.456159
C15	C	-3.916975	-0.411462	-0.318649
C16	C	-3.958578	-0.505650	-0.317817
C17	C	-4.046368	-0.565508	-0.454497
C18	C	-4.092578	-0.531175	-0.592018
C19	C	-4.050990	-0.436989	-0.592848
C20	C	-4.179252	-0.727487	-0.590277
C21	C	-4.220840	-0.821680	-0.589446
C22	C	-4.086840	-0.796149	-0.315245
C23	C	-4.045252	-0.701963	-0.316076
C24	C	-4.091461	-0.667636	-0.453597
C25	C	-3.965260	-0.117820	-0.720129
C26	C	-4.038971	-0.116927	-0.886489
C27	C	-4.239652	0.043752	-0.451036
C28	C	-4.174638	0.143992	-0.451936
C29	C	-4.193314	-0.115319	-0.187952
C30	C	-4.098842	-0.116208	-0.021591
H31	H	-3.920958	-0.533594	-0.205843
H32	H	-4.088636	-0.409042	-0.704824
H33	H	-3.973756	-0.653227	-0.204778
O34	O	-4.178126	-0.589417	-0.724702
C35	C	-4.380730	-0.649004	-0.739552
H36	H	-4.386975	-0.653485	-0.622765
H37	H	-4.519971	-0.622056	-0.812509
C38	C	-4.397845	-0.738942	-0.958421
C39	C	-4.405508	-0.744451	-0.814979
H40	H	-4.413137	-0.797817	-1.004954
H41	H	-4.261351	-0.698795	-0.948421
H42	H	-4.513881	-0.716482	-1.019200
H43	H	-4.289458	-0.766900	-0.754198
H44	H	-4.541984	-0.784604	-0.824971
O45	O	-3.831793	-0.353449	-0.185743
C46	C	-3.799899	-0.403949	-0.064195
H47	H	-3.912970	-0.476423	-0.106401
H48	H	-3.622061	-0.406004	-0.015352
C49	C	-3.713672	-0.269423	0.111453
C50	C	-3.852562	-0.358435	0.059617
H51	H	-3.746147	-0.241347	0.187830
H52	H	-3.735152	-0.235399	0.029566
H53	H	-3.565486	-0.271148	0.152145
H54	H	-4.000742	-0.356708	0.018910
H55	H	-3.831109	-0.392458	0.141501
O56	O	-4.042227	-0.829644	-0.181794
C57	C	-4.097744	-0.925610	-0.210361
H58	H	-4.224761	-0.951029	-0.330683
H59	H	-3.944718	-0.947713	-0.197006
C60	C	-4.037517	-0.935021	0.050707
C61	C	-4.193536	-0.966242	-0.097070
H62	H	-4.096597	-0.960087	0.120594
H63	H	-4.000106	-0.870368	0.069956
H64	H	-3.910008	-0.953443	0.061815
H65	H	-4.321029	-0.947811	-0.108181
H66	H	-4.230970	-1.030894	-0.116318
H67	H	-4.292320	-0.870415	-0.700743
O68	O	-4.223774	-0.694027	-0.723758
C69	C	-4.029195	-0.635973	-0.725342
H70	H	-3.906623	-0.609330	-0.604061
H71	H	-3.956074	-0.675521	-0.787692
C72	C	-4.231542	-0.587849	-0.955637
C73	C	-4.081003	-0.555119	-0.806677
H74	H	-4.263498	-0.537976	-1.005813
H75	H	-4.362634	-0.626963	-0.954574
H76	H	-4.170587	-0.620806	-1.007576
H77	H	-4.141970	-0.522174	-0.754735
H78	H	-3.949922	-0.515998	-0.807732
