data_functionalizedCrystal
_audit_creation_method	'MofGen! by Chris Wilmer'
_symmetry_space_group_name_H-M	'P1'
_symmetry_Int_Tables_number	1
_symmetry_cell_setting	triclinic
loop_
_symmetry_equiv_pos_as_xyz
  x,y,z
_cell_length_a	8.559649
_cell_length_b	14.519709
_cell_length_c	7.681481
_cell_angle_alpha	84.246308
_cell_angle_beta	94.913240
_cell_angle_gamma	76.729405
loop_
_atom_site_label
_atom_site_type_symbol
_atom_site_fract_x
_atom_site_fract_y
_atom_site_fract_z
O1	O	2.104962	-0.021482	-0.146399
O2	O	2.438295	0.311851	0.186934
O3	O	2.771628	0.645184	0.520267
O4	O	1.639893	0.026136	-0.146411
O5	O	1.973226	0.359470	0.186922
O6	O	2.306559	0.692803	0.520256
O7	O	1.884759	-0.132798	-0.146389
O8	O	2.218093	0.200536	0.186944
O9	O	2.551426	0.533869	0.520278
O10	O	1.860095	0.137451	-0.146421
O11	O	2.193428	0.470785	0.186912
O12	O	2.526762	0.804118	0.520245
O13	O	1.914898	-0.152399	0.146471
O14	O	2.248232	0.180934	0.479805
O15	O	2.581565	0.514267	0.813138
O16	O	1.670032	0.006535	0.146450
O17	O	2.003365	0.339868	0.479783
O18	O	2.336698	0.673201	0.813116
O19	O	2.135101	-0.041084	0.146461
O20	O	2.468434	0.292249	0.479794
O21	O	2.801767	0.625583	0.813128
Zn22	Zn	1.907351	-0.020387	0.192953
Zn23	Zn	2.240685	0.312946	0.526287
Zn24	Zn	2.574018	0.646280	0.859620
Zn25	Zn	1.867642	0.005439	-0.192903
Zn26	Zn	2.200975	0.338772	0.140430
Zn27	Zn	2.534309	0.672106	0.473764
O28	O	1.890234	0.117850	0.146439
O29	O	2.223567	0.451183	0.479772
O30	O	2.556901	0.784517	0.813106
C31	C	1.595442	0.019944	0.000018
C32	C	1.928776	0.353278	0.333351
C33	C	2.262109	0.686611	0.666685
C34	C	1.418093	0.030686	0.000014
C35	C	1.751426	0.364019	0.333347
C36	C	2.084759	0.697353	0.666681
C37	C	1.898680	-0.176876	0.000042
C38	C	2.232013	0.156458	0.333375
C39	C	2.565346	0.489791	0.666708
C40	C	1.895236	-0.279010	0.000042
C41	C	2.228569	0.054323	0.333376
C42	C	2.561902	0.387657	0.666709
C43	C	1.882552	-0.652993	-0.000004
C44	C	2.215885	-0.319659	0.333330
C45	C	2.549219	0.013674	0.666663
C46	C	1.886074	-0.548938	0.000010
C47	C	2.219407	-0.215605	0.333343
C48	C	2.552741	0.117728	0.666676
C49	C	1.888894	-0.466005	0.000021
C50	C	2.222227	-0.132671	0.333354
C51	C	2.555560	0.200662	0.666688
C52	C	1.892416	-0.361944	0.000031
C53	C	2.225750	-0.028610	0.333364
C54	C	2.559083	0.304723	0.666698
C55	C	2.179550	-0.034892	0.000028
C56	C	2.512884	0.298442	0.333362
C57	C	2.846217	0.631775	0.666695
C58	C	2.356899	-0.045633	0.000021
C59	C	2.690232	0.287701	0.333354
C60	C	3.023566	0.621034	0.666687
C61	C	1.876313	0.161928	0.000005
C62	C	2.209647	0.495262	0.333338
C63	C	2.542980	0.828595	0.666671
C64	C	1.879756	0.264063	-0.000008
C65	C	2.213089	0.597396	0.333326
C66	C	2.546423	0.930730	0.666659
N67	N	1.934464	-0.038014	0.456290
N68	N	2.267797	0.295320	0.789623
N69	N	2.601130	0.628653	1.122957
N70	N	1.840542	0.023058	-0.456240
N71	N	2.173876	0.356391	-0.122906
N72	N	2.507209	0.689724	0.210427
H73	H	1.440186	-0.119190	0.000021
H74	H	1.773519	0.214144	0.333354
H75	H	2.106852	0.547477	0.666687
H76	H	1.744668	0.085394	0.468555
H77	H	2.078001	0.418727	0.801888
H78	H	2.411335	0.752061	1.135221
H79	H	1.334795	0.104249	-0.000004
H80	H	1.668128	0.437582	0.333329
H81	H	2.001462	0.770916	0.666662
F82	F	2.059803	-0.119490	0.554595
F83	F	2.393136	0.213843	0.887929
F84	F	2.726470	0.547177	1.221262
