data_functionalizedCrystal
_audit_creation_method	'MofGen! by Chris Wilmer'
_symmetry_space_group_name_H-M	'P1'
_symmetry_Int_Tables_number	1
_symmetry_cell_setting	triclinic
loop_
_symmetry_equiv_pos_as_xyz
  x,y,z
_cell_length_a	6.817900
_cell_length_b	9.582880
_cell_length_c	11.102233
_cell_angle_alpha	90.974393
_cell_angle_beta	108.604738
_cell_angle_gamma	111.207034
loop_
_atom_site_label
_atom_site_type_symbol
_atom_site_fract_x
_atom_site_fract_y
_atom_site_fract_z
V1	V	-4.142613	-0.466607	-0.175303
O2	O	-4.101056	-0.457719	0.008976
O3	O	-4.119176	-0.463421	-0.348128
O4	O	-4.132951	-0.670107	-0.172365
O5	O	-4.087185	-0.249601	-0.168004
V6	V	-4.617987	-0.440650	-0.153290
O7	O	-4.421748	-0.523544	-0.223591
O8	O	-4.789050	-0.383713	-0.105002
O9	O	-4.418218	-0.443836	0.019534
O10	O	-4.776941	-0.449538	-0.337569
O11	O	-4.790812	-0.657656	-0.160589
O12	O	-4.404442	-0.237150	-0.156229
C13	C	-3.968996	-0.456061	-0.390266
C14	C	-4.031378	-0.454813	-0.531551
C15	C	-3.934781	-0.445568	-0.724217
C16	C	-3.876172	-0.446754	-0.591466
C17	C	-4.245215	-0.461700	-0.604395
C18	C	-4.303827	-0.460524	-0.737144
C19	C	-3.721713	-0.436932	-0.716750
C20	C	-3.663104	-0.438119	-0.584000
C21	C	-3.986567	-0.719709	-0.166061
C22	C	-4.060116	-0.886072	-0.164802
C23	C	-4.231740	-0.451192	0.061666
C24	C	-4.148598	-0.452450	0.202950
C25	C	-4.214168	-0.187540	-0.162536
C26	C	-4.119856	-0.021176	-0.163789
H27	H	-4.371589	-0.468275	-0.555604
H28	H	-4.477942	-0.466149	-0.796444
H29	H	-3.618895	-0.325334	-0.741357
Cl30	Cl	-3.617696	-0.602148	-0.538852
H31	H	-3.512185	-0.329913	-0.531291
Cl32	Cl	-3.702105	-0.593758	-0.789282
