data_functionalizedCrystal
_audit_creation_method	'MofGen! by Chris Wilmer'
_symmetry_space_group_name_H-M	'P1'
_symmetry_Int_Tables_number	1
_symmetry_cell_setting	triclinic
loop_
_symmetry_equiv_pos_as_xyz
  x,y,z
_cell_length_a	6.817900
_cell_length_b	14.125465
_cell_length_c	9.514072
_cell_angle_alpha	92.613576
_cell_angle_beta	118.843421
_cell_angle_gamma	100.398878
loop_
_atom_site_label
_atom_site_type_symbol
_atom_site_fract_x
_atom_site_fract_y
_atom_site_fract_z
V1	V	-4.075413	-0.300725	-0.220821
O2	O	-3.974926	-0.294225	0.012031
O3	O	-4.110342	-0.299415	-0.439217
O4	O	-4.010024	-0.431542	-0.216802
O5	O	-4.075938	-0.161183	-0.211924
V6	V	-4.550445	-0.283944	-0.193043
O7	O	-4.355298	-0.337536	-0.281755
O8	O	-4.720758	-0.247134	-0.132109
O9	O	-4.292310	-0.285255	0.025352
O10	O	-4.768328	-0.290445	-0.425895
O11	O	-4.667317	-0.423487	-0.201940
O12	O	-4.392627	-0.153128	-0.197063
C13	C	-3.976164	-0.294863	-0.492476
C14	C	-4.085896	-0.294663	-0.671014
C15	C	-3.848197	-0.463403	-0.208762
C16	C	-3.876570	-0.570351	-0.206920
C17	C	-3.928574	-0.766163	-0.203544
C18	C	-4.116651	-0.818507	-0.210317
C19	C	-4.145589	-0.927463	-0.208438
C20	C	-3.899628	-0.657197	-0.205422
C21	C	-4.089833	-0.289804	0.078604
C22	C	-3.959339	-0.290010	0.257139
C23	C	-4.217799	-0.121262	-0.205108
C24	C	-4.168662	-0.014313	-0.206941
H25	H	-4.278223	-0.298528	-0.746105
O26	O	-3.762689	-0.810475	-0.195032
C27	C	-3.640671	-0.961048	-0.185227
C28	C	-3.828720	-0.910977	-0.194899
H29	H	-3.693967	-1.042309	-0.185082
H30	H	-3.616985	-0.949937	-0.294520
H31	H	-3.471745	-0.927944	-0.068791
H32	H	-3.997752	-0.944048	-0.311266
H33	H	-3.852205	-0.922081	-0.085524
O34	O	-3.729868	-0.285260	-0.653093
C35	C	-3.362784	-0.195967	-0.432745
C36	C	-3.622635	-0.201241	-0.534266
H37	H	-3.276002	-0.128033	-0.336672
H38	H	-3.334726	-0.263446	-0.370902
H39	H	-3.285226	-0.192490	-0.515594
H40	H	-3.700365	-0.204687	-0.451529
H41	H	-3.650532	-0.133763	-0.596126
O42	O	-4.282665	-0.774212	-0.219007
C43	C	-4.404635	-0.623634	-0.228691
C44	C	-4.216478	-0.673682	-0.218870
H45	H	-4.351169	-0.542345	-0.228549
H46	H	-4.573556	-0.656627	-0.345200
H47	H	-4.428411	-0.634877	-0.119467
H48	H	-4.192497	-0.662456	-0.328010
H49	H	-4.047662	-0.640681	-0.102294
