data_functionalizedCrystal
_audit_creation_method	'MofGen! by Chris Wilmer'
_symmetry_space_group_name_H-M	'P1'
_symmetry_Int_Tables_number	1
_symmetry_cell_setting	triclinic
loop_
_symmetry_equiv_pos_as_xyz
  x,y,z
_cell_length_a	9.065218
_cell_length_b	14.586319
_cell_length_c	9.065218
_cell_angle_alpha	90.002499
_cell_angle_beta	94.984115
_cell_angle_gamma	89.995792
loop_
_atom_site_label
_atom_site_type_symbol
_atom_site_fract_x
_atom_site_fract_y
_atom_site_fract_z
O1	O	-1.960401	0.076239	0.216356
O2	O	-1.460401	0.576239	0.716356
O3	O	-1.531116	0.076240	0.234103
O4	O	-1.031116	0.576240	0.734103
O5	O	-1.754632	0.076237	0.010587
O6	O	-1.254632	0.576237	0.510587
O7	O	-1.736885	0.076241	0.439872
O8	O	-1.236885	0.576241	0.939872
O9	O	-1.754613	-0.076244	0.010581
O10	O	-1.254613	0.423756	0.510581
O11	O	-1.531098	-0.076241	0.234097
O12	O	-1.031098	0.423759	0.734097
O13	O	-1.960383	-0.076242	0.216350
O14	O	-1.460383	0.423758	0.716350
Cu15	Cu	-1.745738	-0.090164	0.225223
Cu16	Cu	-1.245738	0.409836	0.725223
Cu17	Cu	-1.745760	0.090162	0.225230
Cu18	Cu	-1.245760	0.590162	0.725230
O19	O	-1.736867	-0.076240	0.439866
O20	O	-1.236867	0.423760	0.939866
C21	C	-1.752917	-0.000002	-0.044403
C22	C	-1.252917	0.499998	0.455597
C23	C	-1.747817	0.000003	-0.208245
C24	C	-1.247817	0.500003	0.291755
C25	C	-1.476120	-0.000001	0.232394
C26	C	-0.976120	0.499999	0.732394
C27	C	-1.312277	-0.000000	0.227294
C28	C	-0.812277	0.500000	0.727294
N29	N	-1.745734	-0.216996	0.225218
N30	N	-1.245734	0.283004	0.725218
C31	C	-2.015378	0.000000	0.218059
C32	C	-1.515378	0.500000	0.718059
C33	C	-2.179221	0.000006	0.223158
C34	C	-1.679221	0.500006	0.723158
C35	C	-1.844746	-0.547991	0.126278
C36	C	-1.344746	-0.047991	0.626278
C37	C	-1.844743	-0.452010	0.126279
C38	C	-1.344743	0.047990	0.626279
C39	C	-1.646759	-0.452018	0.324174
C40	C	-1.146759	0.047982	0.824174
C41	C	-1.646771	-0.547998	0.324179
C42	C	-1.146771	-0.047998	0.824179
C43	C	-1.745763	-0.595982	0.225223
C44	C	-1.245763	-0.095982	0.725223
C45	C	-1.745747	-0.404021	0.225218
C46	C	-1.245747	0.095979	0.725218
C47	C	-1.745743	-0.299954	0.225220
C48	C	-1.245743	0.200046	0.725220
C49	C	-1.745770	-0.700055	0.225223
C50	C	-1.245770	-0.200055	0.725223
N51	N	-1.745776	0.216994	0.225224
N52	N	-1.245776	0.716994	0.725224
C53	C	-1.738582	0.000001	0.494855
C54	C	-1.238582	0.500001	0.994855
C55	C	-1.743681	0.000003	0.658698
C56	C	-1.243681	0.500003	1.158698
H57	H	-1.925353	-0.587057	0.045704
H58	H	-1.425353	-0.087057	0.545704
Cl59	Cl	-1.969187	-0.391681	0.001889
Cl60	Cl	-1.469187	0.108319	0.501889
H61	H	-1.566160	-0.412940	0.404740
H62	H	-1.066160	0.087060	0.904740
H63	H	-1.566166	-0.587074	0.404759
H64	H	-1.066166	-0.087074	0.904759
