data_functionalizedCrystal
_audit_creation_method	'MofGen! by Chris Wilmer'
_symmetry_space_group_name_H-M	'P1'
_symmetry_Int_Tables_number	1
_symmetry_cell_setting	triclinic
loop_
_symmetry_equiv_pos_as_xyz
  x,y,z
_cell_length_a	10.489716
_cell_length_b	10.489741
_cell_length_c	12.503572
_cell_angle_alpha	86.440506
_cell_angle_beta	93.553611
_cell_angle_gamma	84.534155
loop_
_atom_site_label
_atom_site_type_symbol
_atom_site_fract_x
_atom_site_fract_y
_atom_site_fract_z
O1	O	1.701359	0.172507	0.089311
O2	O	1.330160	0.189432	0.089315
O3	O	1.524206	-0.004628	0.089307
O4	O	1.507314	0.366568	0.089320
O5	O	1.509612	0.009990	-0.089334
O6	O	1.315567	0.204051	-0.089326
O7	O	1.686766	0.187126	-0.089330
Cu8	Cu	1.499834	0.196923	-0.105639
Cu9	Cu	1.517092	0.179635	0.105625
O10	O	1.492720	0.381187	-0.089321
C11	C	1.275331	0.195470	-0.000005
C12	C	1.133700	0.191665	-0.000003
C13	C	1.036027	0.310669	0.000003
C14	C	0.951485	0.254993	-0.088083
C15	C	0.965880	0.240552	0.088043
C16	C	1.051018	0.136045	-0.088163
C17	C	1.065424	0.121615	0.088043
C18	C	0.980930	0.065853	-0.000065
C19	C	1.515633	-0.044851	-0.000013
C20	C	1.511816	-0.186480	-0.000011
C21	C	1.388351	-0.254610	-0.000002
C22	C	1.439480	-0.339530	-0.088082
C23	C	1.453897	-0.353917	0.088044
C24	C	1.562990	-0.269528	-0.088164
C25	C	1.577396	-0.283913	0.088042
C26	C	1.628613	-0.368803	-0.000060
C27	C	1.741595	0.181088	-0.000007
C28	C	1.883226	0.184892	-0.000002
C29	C	1.501293	0.421409	0.000001
C30	C	1.505111	0.563037	0.000006
N31	N	1.487705	0.209082	-0.254231
C32	C	1.469862	0.226980	-0.473346
C33	C	1.547069	0.149573	-0.526676
C34	C	1.537142	0.159531	-0.648599
C35	C	1.479789	0.217023	-0.351412
N36	N	1.529231	0.167466	0.254216
H37	H	1.286831	-0.204943	-0.000090
O38	O	1.399011	-0.398110	0.176995
C39	C	1.470601	-0.368260	0.269713
H40	H	1.572850	-0.354042	0.249031
H41	H	1.472676	-0.450287	0.334227
H42	H	1.424169	-0.276316	0.300854
O43	O	1.634533	0.061306	-0.471909
C44	C	1.570352	-0.023142	-0.407040
H45	H	1.472536	0.025710	-0.390224
H46	H	1.629716	-0.049621	-0.327943
H47	H	1.556907	-0.113801	-0.450495
H48	H	1.115003	0.065322	0.162512
O49	O	1.382232	0.314932	-0.528271
C50	C	1.391698	0.305406	-0.639539
H51	H	1.491387	0.259756	-0.654750
H52	H	1.375135	0.405322	-0.682374
H53	H	1.316227	0.243441	-0.671468
O54	O	0.892489	0.322079	-0.177027
C55	C	0.937576	0.268025	-0.269753
H56	H	1.035935	0.212927	-0.249235
H57	H	0.945658	0.347733	-0.334498
H58	H	0.867596	0.199709	-0.300506
H59	H	1.381155	-0.364443	-0.162546
H60	H	1.060690	0.414191	-0.000075
O61	O	1.618124	-0.225356	-0.176991
C62	C	1.728361	-0.166158	-0.145565
H63	H	1.720318	-0.134139	-0.060563
H64	H	1.736719	-0.079099	-0.203034
H65	H	1.817185	-0.237366	-0.147685
O66	O	1.647093	-0.254310	0.176846
C67	C	1.773092	-0.314838	0.177598
H68	H	1.773312	-0.401396	0.126782
H69	H	1.809401	-0.347854	0.263616
H70	H	1.838447	-0.244209	0.143007
O71	O	1.095590	0.083309	-0.176988
C72	C	1.185671	-0.022916	-0.145559
H73	H	1.227684	-0.012892	-0.060555
H74	H	1.265973	-0.026766	-0.203024
H75	H	1.136199	-0.114985	-0.147683
H76	H	1.730213	-0.418232	-0.000110
O77	O	0.951813	-0.057725	-0.000316
C78	C	0.995400	-0.112385	-0.093289
H79	H	1.004807	-0.032895	-0.157901
H80	H	0.923751	-0.179064	-0.124037
H81	H	1.092883	-0.169394	-0.073114
O82	O	0.921411	0.293408	0.176856
C83	C	0.948921	0.422398	0.176513
H84	H	1.032982	0.436711	0.124940
H85	H	0.975003	0.446939	0.262173
H86	H	0.861028	0.487849	0.142150
