data_functionalizedCrystal
_audit_creation_method	'MofGen! by Chris Wilmer'
_symmetry_space_group_name_H-M	'P1'
_symmetry_Int_Tables_number	1
_symmetry_cell_setting	triclinic
loop_
_symmetry_equiv_pos_as_xyz
  x,y,z
_cell_length_a	15.944551
_cell_length_b	15.944551
_cell_length_c	14.421503
_cell_angle_alpha	89.999391
_cell_angle_beta	89.988429
_cell_angle_gamma	83.498738
loop_
_atom_site_label
_atom_site_type_symbol
_atom_site_fract_x
_atom_site_fract_y
_atom_site_fract_z
O1	O	1.114511	0.108326	0.077017
O2	O	0.869961	0.121682	0.077040
O3	O	0.998914	-0.007271	0.077020
O4	O	0.985558	0.237279	0.077038
O5	O	0.998930	-0.007262	-0.077204
O6	O	0.869977	0.121690	-0.077183
O7	O	1.114526	0.108334	-0.077206
Cu8	Cu	0.992253	0.115013	-0.091277
Cu9	Cu	0.992235	0.115003	0.091110
O10	O	0.985574	0.237287	-0.077186
C11	C	0.838675	0.121132	-0.000069
C12	C	0.745429	0.119470	-0.000060
C13	C	0.998367	-0.038561	-0.000092
C14	C	0.996705	-0.131807	-0.000093
C15	C	0.530572	0.035565	-0.000084
C16	C	0.469544	0.074523	0.075959
C17	C	0.574703	0.116462	-0.000071
C18	C	0.469582	0.074551	-0.076093
C19	C	0.409790	0.113551	-0.000086
C20	C	0.514903	0.155443	0.076035
C21	C	0.514947	0.155459	-0.076086
C22	C	0.453937	0.194476	-0.000024
C23	C	0.669705	0.118137	-0.000062
C24	C	0.314789	0.111883	-0.000089
C25	C	0.912801	-0.346663	-0.000072
C26	C	0.951771	-0.407676	-0.076117
C27	C	0.993698	-0.302533	-0.000085
C28	C	0.951775	-0.407668	0.075935
C29	C	0.990787	-0.467445	-0.000074
C30	C	1.032690	-0.362317	-0.076193
C31	C	1.032682	-0.362303	0.075927
C32	C	1.071711	-0.423298	-0.000136
C33	C	0.995372	-0.207530	-0.000092
C34	C	0.989119	-0.562446	-0.000073
C35	C	1.145813	0.108885	-0.000096
C36	C	1.239059	0.110547	-0.000098
C37	C	0.986120	0.268577	-0.000072
C38	C	0.987782	0.361823	-0.000066
N39	N	0.992272	0.115020	-0.219558
C40	C	1.051913	0.055379	-0.469196
C41	C	0.976013	0.039061	-0.530987
C42	C	0.992253	0.115009	-0.408719
C43	C	1.068135	0.131278	-0.531022
C44	C	0.992242	0.114998	-0.591441
C45	C	0.916316	0.098655	-0.469149
C46	C	1.008487	0.190904	-0.469179
C47	C	0.932533	0.174619	-0.530942
C48	C	0.992261	0.115014	-0.303458
C49	C	0.992226	0.114994	-0.696700
N50	N	0.992222	0.114990	0.219392
H51	H	0.563905	-0.031573	0.000005
Cl52	Cl	0.817209	0.077286	-0.427372
H53	H	0.917541	-0.427749	0.140230
Cl54	Cl	0.438582	0.021709	-0.175348
Cl55	Cl	1.085455	-0.331224	0.175182
Cl56	Cl	0.809130	-0.295238	-0.000173
Cl57	Cl	0.898956	-0.438718	-0.175367
H58	H	0.534885	0.189630	0.140394
H59	H	0.882021	0.225045	-0.557882
H60	H	1.066884	-0.342324	-0.140554
Cl61	Cl	1.129725	-0.022517	-0.427333
Cl62	Cl	1.175472	-0.474497	-0.000209
Cl63	Cl	0.954789	-0.060038	-0.572897
H64	H	1.022253	0.255071	-0.442009
Cl65	Cl	0.438486	0.021694	0.175211
H66	H	1.132312	0.145043	-0.558200
Cl67	Cl	0.546043	0.208248	-0.175341
Cl68	Cl	0.402738	0.298236	0.000046
