data_functionalizedCrystal
_audit_creation_method	'MofGen! by Chris Wilmer'
_symmetry_space_group_name_H-M	'P1'
_symmetry_Int_Tables_number	1
_symmetry_cell_setting	triclinic
loop_
_symmetry_equiv_pos_as_xyz
  x,y,z
_cell_length_a	12.759401
_cell_length_b	19.077068
_cell_length_c	12.759393
_cell_angle_alpha	92.260983
_cell_angle_beta	89.982620
_cell_angle_gamma	92.327081
loop_
_atom_site_label
_atom_site_type_symbol
_atom_site_fract_x
_atom_site_fract_y
_atom_site_fract_z
Zn1	Zn	1.589350	-0.280154	-0.610733
Zn2	Zn	1.922683	0.053179	-0.277400
Zn3	Zn	2.256016	0.386513	0.055934
Zn4	Zn	1.582149	-0.397870	-0.442092
Zn5	Zn	1.915482	-0.064537	-0.108759
Zn6	Zn	2.248815	0.268797	0.224575
Zn7	Zn	1.413653	-0.280191	-0.435075
Zn8	Zn	1.746986	0.053142	-0.101741
Zn9	Zn	2.080319	0.386475	0.231592
Zn10	Zn	1.406545	-0.397816	-0.617730
Zn11	Zn	1.739878	-0.064482	-0.284397
Zn12	Zn	2.073211	0.268851	0.048936
O13	O	1.497924	-0.339008	-0.526407
O14	O	1.831257	-0.005674	-0.193074
O15	O	2.164591	0.327659	0.140259
O16	O	1.735415	-0.295777	-0.588371
O17	O	2.068748	0.037557	-0.255038
O18	O	2.402082	0.370890	0.078296
O19	O	1.559758	-0.382298	-0.294142
O20	O	1.893092	-0.048965	0.039191
O21	O	2.226425	0.284368	0.372524
O22	O	1.442948	-0.181696	-0.452511
O23	O	1.776281	0.151637	-0.119178
O24	O	2.109614	0.484971	0.214156
O25	O	1.730124	-0.382262	-0.464471
O26	O	2.063458	-0.048929	-0.131138
O27	O	2.396791	0.284405	0.202196
O28	O	1.572031	-0.181668	-0.581567
O29	O	1.905365	0.151665	-0.248233
O30	O	2.238698	0.484998	0.085100
O31	O	1.435965	-0.295840	-0.288987
O32	O	1.769298	0.037493	0.044347
O33	O	2.102632	0.370826	0.377680
O34	O	1.265689	-0.295787	-0.459296
O35	O	1.599023	0.037546	-0.125963
O36	O	1.932356	0.370879	0.207371
O37	O	1.430833	-0.382169	-0.763821
O38	O	1.764166	-0.048836	-0.430487
O39	O	2.097500	0.284498	-0.097154
O40	O	1.260467	-0.382205	-0.593492
O41	O	1.593800	-0.048872	-0.260159
O42	O	1.927134	0.284462	0.073175
O43	O	1.565139	-0.295724	-0.758680
O44	O	1.898472	0.037610	-0.425347
O45	O	2.231806	0.370943	-0.092013
O46	O	1.552866	-0.496353	-0.471256
O47	O	1.886199	-0.163020	-0.137923
O48	O	2.219533	0.170313	0.195411
O49	O	1.423851	-0.496313	-0.600296
O50	O	1.757184	-0.162980	-0.266963
O51	O	2.090517	0.170353	0.066370
C52	C	1.224957	-0.338995	-0.526392
C53	C	1.558291	-0.005662	-0.193059
C54	C	1.891624	0.327672	0.140274
C55	C	1.108180	-0.339006	-0.526412
C56	C	1.441513	-0.005673	-0.193079
C57	C	1.774847	0.327660	0.140255
C58	C	1.050622	-0.384076	-0.596181
C59	C	1.383955	-0.050743	-0.262848
C60	C	1.717289	0.282591	0.070486
C61	C	0.940897	-0.384085	-0.596193
C62	C	1.274231	-0.050752	-0.262860
C63	C	1.607564	0.282582	0.070474
C64	C	0.946299	-0.293952	-0.456658
C65	C	1.279632	0.039381	-0.123324
C66	C	1.612965	0.372714	0.210009
C67	C	1.056021	-0.293940	-0.456652
C68	C	1.389355	0.039393	-0.123318
C69	C	1.722688	0.372726	0.210015
C70	C	1.047503	-0.436116	-0.676738
C71	C	1.380836	-0.102782	-0.343405
C72	C	1.714169	0.230551	-0.010071
C73	C	0.937778	-0.436125	-0.676750
C74	C	1.271111	-0.102791	-0.343416
C75	C	1.604445	0.230542	-0.010083
C76	C	1.486834	-0.521871	-0.537320
C77	C	1.820168	-0.188538	-0.203986
C78	C	2.153501	0.144796	0.129347
C79	C	1.482186	-0.600101	-0.542023
C80	C	1.815519	-0.266767	-0.208690
C81	C	2.148853	0.066566	0.124643
C82	C	1.547226	-0.636851	-0.477104
C83	C	1.880559	-0.303517	-0.143771
C84	C	2.213893	0.029816	0.189562
C85	C	1.542860	-0.710356	-0.481534
C86	C	1.876194	-0.377022	-0.148201
C87	C	2.209527	-0.043689	0.185132
C88	C	1.473449	-0.747109	-0.550879
C89	C	1.806782	-0.413776	-0.217545
C90	C	2.140116	-0.080443	0.115788
C91	C	1.408407	-0.710354	-0.615805
C92	C	1.741740	-0.377021	-0.282472
C93	C	2.075073	-0.043688	0.050862
C94	C	1.412778	-0.636850	-0.611380
C95	C	1.746111	-0.303517	-0.278046
C96	C	2.079445	0.029816	0.055287
C97	C	1.453171	-0.966942	-0.571318
C98	C	1.786504	-0.633609	-0.237984
C99	C	2.119838	-0.300275	0.095349
C100	C	1.448802	-1.040451	-0.575736
C101	C	1.782135	-0.707118	-0.242403
C102	C	2.115469	-0.373784	0.090931
C103	C	1.583258	-1.040447	-0.441466
C104	C	1.916591	-0.707114	-0.108133
C105	C	2.249925	-0.373781	0.225201
C106	C	1.587619	-0.966942	-0.437042
C107	C	1.920952	-0.633609	-0.103709
C108	C	2.254286	-0.300275	0.229624
C109	C	1.522580	-0.930193	-0.501972
C110	C	1.855914	-0.596860	-0.168639
C111	C	2.189247	-0.263527	0.164694
N112	N	1.468983	-0.822243	-0.555406
N113	N	1.802316	-0.488910	-0.222073
N114	N	2.135649	-0.155577	0.111260
N115	N	1.527053	-0.855061	-0.497449
N116	N	1.860386	-0.521728	-0.164116
N117	N	2.193719	-0.188394	0.169217
C118	C	1.771956	-0.339021	-0.526423
C119	C	2.105290	-0.005688	-0.193090
C120	C	2.438623	0.327645	0.140243
C121	C	1.888733	-0.339027	-0.526430
C122	C	2.222066	-0.005694	-0.193097
C123	C	2.555399	0.327640	0.140237
C124	C	1.497996	-0.338936	-0.800437
C125	C	1.831330	-0.005603	-0.467103
C126	C	2.164663	0.327731	-0.133770
C127	C	1.498027	-0.338906	-0.917212
C128	C	1.831361	-0.005572	-0.583878
C129	C	2.164694	0.327761	-0.250545
C130	C	1.509086	-0.155431	-0.515476
C131	C	1.842419	0.177903	-0.182142
C132	C	2.175752	0.511236	0.151191
C133	C	1.513842	-0.077201	-0.510817
C134	C	1.847175	0.256132	-0.177484
C135	C	2.180509	0.589466	0.155850
C136	C	1.433597	-0.293879	-0.969395
C137	C	1.766931	0.039455	-0.636061
C138	C	2.100264	0.372788	-0.302728
C139	C	1.433630	-0.293858	-1.079118
C140	C	1.766964	0.039476	-0.745784
C141	C	2.100297	0.372809	-0.412451
C142	C	1.562533	-0.383893	-1.084465
C143	C	1.895866	-0.050559	-0.751131
C144	C	2.229199	0.282774	-0.417798
C145	C	1.562493	-0.383917	-0.974744
C146	C	1.895827	-0.050583	-0.641411
C147	C	2.229160	0.282750	-0.308077
C148	C	1.359180	-0.241895	-0.966308
C149	C	1.692513	0.091438	-0.632975
C150	C	2.025846	0.424771	-0.299642
C151	C	1.359213	-0.241874	-1.076031
C152	C	1.692546	0.091459	-0.742698
C153	C	2.025879	0.424792	-0.409364
C154	C	1.497915	-0.339028	-0.253441
C155	C	1.831249	-0.005695	0.079892
C156	C	2.164582	0.327638	0.413225
C157	C	1.498100	-0.338861	-0.136655
C158	C	1.831433	-0.005527	0.196678
C159	C	2.164766	0.327806	0.530011
H160	H	1.102882	-0.257235	-0.399845
H161	H	1.436215	0.076098	-0.066512
H162	H	1.769548	0.409431	0.266821
F163	F	1.374911	-1.079566	-0.649535
F164	F	1.708244	-0.746232	-0.316201
F165	F	2.041577	-0.412899	0.017132
H166	H	1.359817	-0.606929	-0.664245
H167	H	1.693150	-0.273596	-0.330911
H168	H	2.026484	0.059737	0.002422
H169	H	0.904696	-0.490621	-0.658076
H170	H	1.238030	-0.157288	-0.324743
H171	H	1.571363	0.176045	0.008591
F172	F	1.612088	-0.749464	-0.412441
F173	F	1.945422	-0.416131	-0.079108
F174	F	2.278755	-0.082798	0.254226
F175	F	1.383949	-0.927841	-0.640422
F176	F	1.717283	-0.594507	-0.307088
F177	F	2.050616	-0.261174	0.026245
F178	F	0.890779	-0.245992	-0.382419
F179	F	1.224112	0.087342	-0.049086
F180	F	1.557445	0.420675	0.284248
F181	F	1.621098	-0.597741	-0.403291
F182	F	1.954431	-0.264408	-0.069958
F183	F	2.287764	0.068926	0.263376
H184	H	1.351895	-0.740285	-0.672271
H185	H	1.685228	-0.406952	-0.338938
H186	H	2.018561	-0.073618	-0.005605
H187	H	1.384318	-0.187356	-1.102569
H188	H	1.717651	0.145977	-0.769235
H189	H	2.050984	0.479311	-0.435902
H190	H	1.614943	-0.420592	-0.932262
H191	H	1.948276	-0.087259	-0.598928
H192	H	2.281609	0.246074	-0.265595
H193	H	1.644139	-0.937019	-0.380577
H194	H	1.977473	-0.603685	-0.047243
H195	H	2.310806	-0.270352	0.286090
H196	H	1.078186	-0.421579	-0.757275
H197	H	1.411519	-0.088246	-0.423942
H198	H	1.744853	0.245088	-0.090609
H199	H	1.615019	-0.420538	-1.131321
H200	H	1.948353	-0.087205	-0.797988
H201	H	2.281686	0.246128	-0.464654
F202	F	1.251651	-0.260976	-0.928523
F203	F	1.584984	0.072357	-0.595189
F204	F	1.918318	0.405690	-0.261856
F205	F	1.401379	-0.174230	-0.917795
F206	F	1.734713	0.159103	-0.584462
F207	F	2.068046	0.492436	-0.251129
F208	F	1.087887	-0.503778	-0.642586
F209	F	1.421221	-0.170445	-0.309253
F210	F	1.754554	0.162889	0.024081
H211	H	1.280739	-0.261386	-1.111224
H212	H	1.614072	0.071947	-0.777890
H213	H	1.947406	0.405281	-0.444557
F214	F	1.652476	-1.079563	-0.372373
F215	F	1.985810	-0.746230	-0.039039
F216	F	2.319143	-0.412896	0.294294
F217	F	0.894866	-0.410693	-0.776331
F218	F	1.228200	-0.077360	-0.442997
F219	F	1.561533	0.255974	-0.109664
