data_functionalizedCrystal
_audit_creation_method	'MofGen! by Chris Wilmer'
_symmetry_space_group_name_H-M	'P1'
_symmetry_Int_Tables_number	1
_symmetry_cell_setting	triclinic
loop_
_symmetry_equiv_pos_as_xyz
  x,y,z
_cell_length_a	31.640172
_cell_length_b	18.426585
_cell_length_c	31.640172
_cell_angle_alpha	60.001429
_cell_angle_beta	90.009241
_cell_angle_gamma	59.997286
loop_
_atom_site_label
_atom_site_type_symbol
_atom_site_fract_x
_atom_site_fract_y
_atom_site_fract_z
Zr1	Zr	0.407172	0.794272	-0.055396
O2	O	0.339672	0.945698	-0.122890
O3	O	0.427864	0.642864	-0.034707
O4	O	0.427851	0.794280	-0.122882
O5	O	0.339695	0.794270	0.034841
O6	O	0.497408	0.794265	-0.122873
O7	O	0.339685	0.794283	-0.034716
O8	O	0.497432	0.523410	0.034856
O9	O	0.339671	1.065125	-0.122888
O10	O	0.488599	0.705122	-0.025874
O11	O	0.436697	0.705124	0.026028
O12	O	0.436681	0.883396	-0.077786
O13	O	0.384779	0.883398	-0.025884
Zr14	Zr	0.518123	0.794228	0.055553
Zr15	Zr	0.518107	0.794248	-0.055381
Zr16	Zr	0.407188	0.794252	0.055539
Zr17	Zr	0.407171	0.984743	-0.055392
Zr18	Zr	0.518124	0.603756	0.055549
O19	O	0.497430	0.945635	0.034865
O20	O	0.497408	0.945664	-0.122869
O21	O	0.339695	0.945669	0.034844
O22	O	0.585623	0.642801	0.123048
O23	O	0.585600	0.642830	-0.034686
O24	O	0.427887	0.642835	0.123027
O25	O	0.585600	0.794230	-0.034683
O26	O	0.497444	0.794220	0.123040
O27	O	0.427887	0.794235	0.123030
O28	O	0.585610	0.794217	0.034873
O29	O	0.427850	1.065106	-0.122876
O30	O	0.497444	0.523394	0.123034
O31	O	0.585623	0.523375	0.123046
O32	O	0.585611	0.523391	0.034868
O33	O	0.339684	1.065109	-0.034710
O34	O	0.427863	1.065090	-0.034698
O35	O	0.488614	0.705103	0.077944
O36	O	0.540516	0.705102	0.026042
O37	O	0.488598	0.883376	-0.025870
O38	O	0.436696	0.883377	0.026032
C39	C	0.462648	0.555999	0.000074
C40	C	0.462648	0.475139	0.000072
C41	C	0.323884	0.794280	0.000060
C42	C	0.276789	0.794290	0.000054
C43	C	0.462645	0.179029	0.000087
C44	C	0.462645	0.261416	0.000084
C45	C	0.462646	0.327082	0.000079
C46	C	0.462647	0.409473	0.000077
C47	C	0.011883	0.701183	0.027187
C48	C	-0.165102	0.701165	0.027197
O49	O	-0.164939	0.622023	0.050262
N50	N	-0.214332	0.794222	0.000099
C51	C	-0.219315	0.887289	-0.027001
O52	O	-0.265249	0.966439	-0.050045
C53	C	-0.042330	0.887306	-0.027008
C54	C	0.006899	0.794243	0.000088
C55	C	0.061111	0.608128	0.054281
C56	C	0.105354	0.608133	0.054276
C57	C	0.100370	0.701194	0.027177
C58	C	0.051143	0.794249	0.000083
C59	C	-0.047314	0.980372	-0.054105
C60	C	-0.003063	0.980368	-0.054103
C61	C	0.046167	0.887306	-0.027007
C62	C	0.090402	0.887315	-0.027022
N63	N	0.139632	0.794258	0.000077
C64	C	0.144616	0.701198	0.027176
C65	C	-0.312232	0.887274	-0.026996
C66	C	-0.356478	0.887270	-0.026996
C67	C	-0.302262	0.701146	0.027204
C68	C	-0.258015	0.701151	0.027199
C69	C	-0.263002	0.794217	0.000102
C70	C	0.237528	0.701216	0.027163
C71	C	0.281773	0.701230	0.027153
C72	C	0.227553	0.887353	-0.027043
C73	C	0.183312	0.887340	-0.027037
C74	C	0.188303	0.794263	0.000070
O75	O	0.090279	0.966415	-0.050069
O76	O	0.190555	0.622060	0.050226
C77	C	-0.032360	0.701178	0.027192
C78	C	-0.081587	0.794233	0.000098
C79	C	-0.086572	0.887293	-0.027001
C80	C	-0.125833	0.794229	0.000099
C81	C	-0.120849	0.701168	0.027198
C82	C	-0.071619	0.608112	0.054296
C83	C	-0.027376	0.608117	0.054291
C84	C	-0.135802	0.980349	-0.054099
C85	C	-0.180043	0.980336	-0.054093
C86	C	-0.175059	0.887276	-0.026993
C87	C	0.601411	0.794220	0.000097
C88	C	0.648506	0.794210	0.000104
C89	C	0.462627	0.794275	-0.138683
C90	C	0.462621	0.794284	-0.185778
C91	C	0.462647	1.032501	0.000084
C92	C	0.462646	1.113361	0.000086
C93	C	0.500977	0.794223	-0.477778
C94	C	0.500988	0.794210	-0.654764
O95	O	0.533591	0.794157	-0.677632
N96	N	0.462668	0.794220	-0.676900
C97	C	0.424344	0.794227	-0.654784
O98	O	0.391754	0.794225	-0.677670
C99	C	0.424335	0.794233	-0.477797
C100	C	0.462655	0.794233	-0.455666
C101	C	0.539294	0.794222	-0.455647
C102	C	0.539289	0.794231	-0.411405
C103	C	0.500967	0.794241	-0.389293
C104	C	0.462650	0.794242	-0.411424
C105	C	0.386014	0.794233	-0.455680
C106	C	0.386016	0.794232	-0.411429
C107	C	0.424336	0.794232	-0.389299
C108	C	0.424323	0.794261	-0.345070
N109	N	0.462643	0.794251	-0.322934
C110	C	0.500965	0.794241	-0.345046
C111	C	0.424351	0.794226	-0.747706
C112	C	0.424352	0.794226	-0.791953
C113	C	0.500997	0.794207	-0.791929
C114	C	0.500993	0.794214	-0.747683
C115	C	0.462671	0.794215	-0.725570
C116	C	0.500952	0.794261	-0.252134
C117	C	0.500942	0.794274	-0.207889
C118	C	0.424299	0.794287	-0.207915
C119	C	0.424307	0.794280	-0.252158
C120	C	0.462638	0.794263	-0.274265
O121	O	0.391740	0.794302	-0.322171
O122	O	0.533557	0.794220	-0.322146
C123	C	0.500982	0.794214	-0.522020
C124	C	0.462665	0.794215	-0.544151
C125	C	0.424343	0.794225	-0.522039
C126	C	0.462666	0.794215	-0.588398
C127	C	0.500988	0.794205	-0.610510
C128	C	0.539308	0.794195	-0.588374
C129	C	0.539303	0.794204	-0.544131
C130	C	0.386023	0.794235	-0.544175
C131	C	0.386030	0.794228	-0.588418
C132	C	0.424352	0.794218	-0.610529
C133	C	0.462667	0.794224	0.138841
C134	C	0.462674	0.794216	0.185935
C135	C	0.601411	0.555969	0.000092
C136	C	0.648507	0.475099	0.000097
C137	C	0.462668	0.555974	0.138836
C138	C	0.462675	0.475105	0.185928
C139	C	0.601431	0.555944	0.138854
C140	C	0.648533	0.475065	0.185953
C141	C	0.323863	1.032556	-0.138696
C142	C	0.276761	1.113435	-0.185795
C143	C	0.323883	1.032531	0.000066
C144	C	0.276788	1.113401	0.000061
C145	C	0.462627	1.032526	-0.138678
C146	C	0.462620	1.113395	-0.185771
C147	C	0.643523	0.437132	-0.027005
C148	C	0.687770	0.361156	-0.027012
C149	C	0.737000	0.323143	0.000088
C150	C	0.741982	0.361118	0.027191
C151	C	0.697736	0.437097	0.027194
C152	C	0.489779	0.437117	0.235148
C153	C	0.489783	0.361143	0.279401
C154	C	0.462687	0.323153	0.274433
C155	C	0.435580	0.361148	0.225208
C156	C	0.435573	0.437126	0.180957
C157	C	0.697750	0.437082	0.180979
C158	C	0.742012	0.361099	0.225229
C159	C	0.737056	0.323093	0.274453
C160	C	0.687834	0.361083	0.279427
C161	C	0.643573	0.437071	0.235177
C162	C	0.227545	1.151427	-0.180821
C163	C	0.183283	1.227434	-0.225072
C164	C	0.188239	1.265443	-0.274296
C165	C	0.237461	1.227448	-0.279269
C166	C	0.281722	1.151447	-0.235019
C167	C	0.281772	1.151376	0.027159
C168	C	0.237525	1.227372	0.027153
C169	C	0.188295	1.265388	0.000052
C170	C	0.183312	1.227410	-0.027049
C171	C	0.227559	1.151420	-0.027046
C172	C	0.489721	1.151361	-0.180786
C173	C	0.489725	1.227336	-0.225031
C174	C	0.462623	1.265348	-0.274259
C175	C	0.435521	1.227374	-0.279242
C176	C	0.435521	1.151396	-0.234998
H177	H	0.241600	0.625424	0.049236
O178	O	0.462627	0.249375	0.317368
C179	C	0.432937	0.140278	0.351150
C180	C	0.432948	0.223850	0.302482
H181	H	0.408952	0.119600	0.339132
H182	H	0.415507	0.170142	0.375175
H183	H	0.474381	0.069165	0.375179
H184	H	0.391519	0.294991	0.278413
H185	H	0.450407	0.193903	0.278496
H186	H	0.683702	0.330247	-0.049082
O187	O	0.779999	0.249312	0.317489
C188	C	0.813801	0.140205	0.410727
C189	C	0.765123	0.223776	0.362036
H190	H	0.801792	0.119518	0.446755
H191	H	0.837824	0.170074	0.410766
H192	H	0.837830	0.069096	0.410702
H193	H	0.741055	0.294913	0.362028
H194	H	0.741140	0.193824	0.362015
H195	H	0.683806	0.330129	0.319511
O196	O	0.779962	0.249202	0.000145
C197	C	0.828560	0.077660	0.021659
C198	C	0.779893	0.161301	0.021637
H199	H	0.828515	0.006580	0.039024
H200	H	0.864624	0.056914	0.045705
H201	H	0.828552	0.107600	-0.019775
H202	H	0.779851	0.131431	0.063052
H203	H	0.743851	0.182035	-0.002438
H204	H	0.152271	1.327264	0.000053
H205	H	0.321795	1.120515	-0.239075
O206	O	0.387064	0.794430	-0.186423
C207	C	0.316811	0.882898	-0.162252
C208	C	0.358962	0.882864	-0.186597
H209	H	0.294073	0.954400	-0.162394
H210	H	0.335688	0.811502	-0.120716
H211	H	0.289444	0.882845	-0.185659
H212	H	0.386344	0.882953	-0.163231
H213	H	0.340051	0.954254	-0.228137
O214	O	0.409184	0.324387	0.220364
C215	C	0.326457	0.363634	0.187573
C216	C	0.356279	0.405410	0.193028
H217	H	0.283679	0.429123	0.165463
H218	H	0.331083	0.302840	0.227648
H219	H	0.342542	0.328011	0.165537
H220	H	0.340213	0.441085	0.215043
H221	H	0.351654	0.466156	0.152938
O222	O	0.789783	0.324278	0.220299
C223	C	0.838838	0.332355	0.161863
C224	C	0.784709	0.374125	0.167374
H225	H	0.834754	0.372653	0.119075
H226	H	0.860924	0.246271	0.181195
H227	H	0.860911	0.347266	0.181246
H228	H	0.762593	0.359287	0.147988
H229	H	0.762662	0.460196	0.148056
H230	H	0.321853	1.120429	0.049231
O231	O	0.242212	1.264287	-0.327111
C232	C	0.223556	1.287619	-0.408522
C233	C	0.218173	1.245828	-0.354342
H234	H	0.204115	1.272729	-0.430557
H235	H	0.266317	1.247435	-0.404557
H236	H	0.204190	1.373706	-0.430575
H237	H	0.237511	1.159748	-0.332258
H238	H	0.175403	1.286089	-0.358343
O239	O	0.516013	1.114618	-0.132997
C240	C	0.525913	1.153872	-0.073124
C241	C	0.496098	1.195621	-0.127263
H242	H	0.509816	1.219338	-0.068467
H243	H	0.568697	1.118330	-0.068447
H244	H	0.521275	1.093012	-0.042361
H245	H	0.500694	1.256515	-0.158058
H246	H	0.453326	1.231098	-0.131896
H247	H	0.701801	0.468000	0.049266
O248	O	0.409316	0.473852	0.133157
C249	C	0.399397	0.434509	0.073332
C250	C	0.429184	0.392792	0.127474
H251	H	0.415442	0.368989	0.068724
H252	H	0.404052	0.495299	0.042529
H253	H	0.356613	0.470121	0.068673
H254	H	0.471978	0.357128	0.132184
H255	H	0.424486	0.332050	0.158250
H256	H	0.603500	0.467987	0.239234
H257	H	0.511794	1.258246	-0.220963
O258	O	0.222631	1.114668	-0.133047
C259	C	0.164209	1.122685	-0.083975
C260	C	0.169706	1.164405	-0.138108
H261	H	0.121422	1.162864	-0.088049
H262	H	0.183546	1.137652	-0.061896
H263	H	0.183597	1.036587	-0.061903
H264	H	0.150315	1.250508	-0.160224
H265	H	0.150383	1.149358	-0.160148
H266	H	0.143209	1.258357	-0.221012
O267	O	0.348832	0.794046	-0.477096
C268	C	0.309070	0.705626	-0.464858
C269	C	0.351210	0.705700	-0.440548
H270	H	0.310971	0.634217	-0.435317
H271	H	0.315639	0.705555	-0.500268
H272	H	0.269374	0.777103	-0.476980
H273	H	0.390924	0.634235	-0.428394
H274	H	0.344596	0.705824	-0.405160
H275	H	0.152195	1.327327	-0.310322
O276	O	0.595665	0.474133	-0.053289
C277	C	0.503473	0.591248	-0.077349
C278	C	0.557637	0.549419	-0.047546
H279	H	0.472712	0.652139	-0.072725
H280	H	0.498776	0.525840	-0.061296
H281	H	0.498833	0.626781	-0.120123
H282	H	0.562314	0.513897	-0.004767
H283	H	0.562309	0.614864	-0.063640
H284	H	0.701795	0.468015	0.140902
O285	O	0.462659	1.339188	-0.317182
C286	C	0.492430	1.448149	-0.350916
C287	C	0.492421	1.364542	-0.302266
H288	H	0.516499	1.468658	-0.338874
H289	H	0.451011	1.519363	-0.374950
H290	H	0.509817	1.418265	-0.374944
H291	H	0.475058	1.394330	-0.278198
H292	H	0.533850	1.293344	-0.278271
O293	O	0.242464	1.264103	0.053529
C294	C	0.300916	1.256051	0.107276
C295	C	0.295395	1.214352	0.077436
H296	H	0.343707	1.215861	0.126603
H297	H	0.281589	1.241081	0.138074
H298	H	0.281532	1.342149	0.079206
H299	H	0.314782	1.128249	0.105466
H300	H	0.314707	1.229401	0.046631
H301	H	-0.139868	1.056132	-0.076168
H302	H	0.354821	0.794236	-0.606436
H303	H	0.012706	0.532336	0.076357
O304	O	0.135450	1.264419	-0.053326
C305	C	0.043262	1.381540	-0.077360
C306	C	0.097436	1.339705	-0.047575
H307	H	0.012513	1.442432	-0.072730
H308	H	0.038562	1.316135	-0.061298
H309	H	0.038609	1.417074	-0.120137
H310	H	0.102126	1.304183	-0.004794
H311	H	0.102111	1.405147	-0.063679
H312	H	0.223493	1.120503	-0.049111
H313	H	0.413456	1.258335	-0.319330
H314	H	-0.067568	0.532339	0.076358
O315	O	0.153134	0.517640	0.080646
C316	C	0.202223	0.333032	0.134382
C317	C	0.148083	0.435447	0.104546
H318	H	0.198157	0.266552	0.153703
H319	H	0.224309	0.328300	0.165185
H320	H	0.224285	0.328430	0.106311
H321	H	0.125978	0.440118	0.132577
H322	H	0.126036	0.440136	0.073736
H323	H	0.354810	0.794230	-0.393426
O324	O	-0.317174	0.977777	-0.053370
C325	C	-0.375630	1.162384	-0.107107
C326	C	-0.370105	1.059964	-0.077268
H327	H	-0.418422	1.228859	-0.126427
H328	H	-0.356311	1.167119	-0.137911
H329	H	-0.356240	1.166992	-0.079038
H330	H	-0.389498	1.055287	-0.105297
H331	H	-0.389410	1.055273	-0.046456
H332	H	0.413449	1.120492	-0.239064
H333	H	0.321858	0.625444	0.049220
O334	O	0.789794	0.324340	0.053454
C335	C	0.849666	0.363559	0.063406
C336	C	0.795508	0.405352	0.033608
H337	H	0.854300	0.429041	0.047380
H338	H	0.880454	0.302765	0.058741
H339	H	0.854325	0.327933	0.106190
H340	H	0.790799	0.441031	-0.009185
H341	H	0.764748	0.466099	0.038316
O342	O	0.516028	0.474120	0.240005
C343	C	0.525932	0.559862	0.272810
C344	C	0.496159	0.518019	0.267331
H345	H	0.509886	0.595345	0.294912
H346	H	0.521263	0.620751	0.232742
H347	H	0.568719	0.494393	0.294864
H348	H	0.453361	0.583419	0.245298
H349	H	0.500871	0.457103	0.307414
O350	O	0.065933	0.517747	0.080674
C351	C	0.047442	0.409707	0.148533
C352	C	0.041947	0.512097	0.118695
H353	H	0.028044	0.405116	0.179272
H354	H	0.090224	0.343171	0.167934
H355	H	0.028095	0.405065	0.120452
H356	H	0.061266	0.516840	0.146742
H357	H	-0.000843	0.578585	0.099286
H358	H	-0.217933	0.625371	0.049268
H359	H	-0.298210	0.625372	0.049266
H360	H	-0.087392	1.056154	-0.076168
O361	O	-0.008001	1.070869	-0.080472
C362	C	-0.066449	1.255477	-0.134198
C363	C	-0.060931	1.153063	-0.104366
H364	H	-0.109240	1.321957	-0.153515
H365	H	-0.047133	1.260217	-0.165004
H366	H	-0.047054	1.260069	-0.106125
H367	H	-0.080329	1.148401	-0.132399
H368	H	-0.080233	1.148365	-0.073553
H369	H	0.511859	0.330217	0.319477
H370	H	0.143226	0.963120	-0.049107
O371	O	-0.227825	1.070837	-0.080424
C372	C	-0.276918	1.255445	-0.134199
C373	C	-0.222777	1.153034	-0.104397
H374	H	-0.272855	1.321928	-0.153598
H375	H	-0.298986	1.260161	-0.106144
H376	H	-0.298997	1.260059	-0.164951
H377	H	-0.200655	1.148351	-0.073645
H378	H	-0.200749	1.148362	-0.132484
H379	H	0.532147	0.794277	-0.189873
O380	O	0.538251	0.794108	-0.273520
C381	C	0.629516	0.705620	-0.261283
C382	C	0.587331	0.705671	-0.236994
H383	H	0.669206	0.634116	-0.231767
H384	H	0.627648	0.777015	-0.273362
H385	H	0.622918	0.705664	-0.296721
H386	H	0.593901	0.705592	-0.201540
H387	H	0.589210	0.634283	-0.224951
O388	O	0.576567	0.794174	-0.389959
C389	C	0.652574	0.794202	-0.394636
C390	C	0.610389	0.794249	-0.418966
H391	H	0.679923	0.794285	-0.418084
H392	H	0.675331	0.722739	-0.353121
H393	H	0.633671	0.865628	-0.394709
H394	H	0.629250	0.722871	-0.418930
H395	H	0.587636	0.865759	-0.460468
H396	H	-0.396560	0.963051	-0.049066
H397	H	0.223504	0.963121	-0.049109
H398	H	0.570502	0.794210	-0.473645
H399	H	0.532196	0.794213	-0.729667
O400	O	0.538268	0.794009	-0.813377
C401	C	0.608480	0.705564	-0.837591
C402	C	0.566302	0.705659	-0.813281
H403	H	0.631150	0.634152	-0.837532
H404	H	0.635910	0.705485	-0.814173
H405	H	0.589578	0.777038	-0.879104
H406	H	0.585159	0.634198	-0.771771
H407	H	0.538876	0.705792	-0.836738
O408	O	0.387101	0.794191	-0.813372
C409	C	0.311065	0.794264	-0.808729
C410	C	0.353227	0.794287	-0.784417
H411	H	0.283661	0.794363	-0.785336
H412	H	0.329931	0.722802	-0.808621
H413	H	0.288368	0.865690	-0.850258
H414	H	0.375938	0.722909	-0.742879
H415	H	0.334330	0.865797	-0.784566
O416	O	0.387182	0.794060	-0.726159
C417	C	0.368439	0.705683	-0.650458
C418	C	0.410586	0.705720	-0.674795
H419	H	0.387345	0.634279	-0.608923
H420	H	0.341054	0.705631	-0.673846
H421	H	0.345713	0.777165	-0.650582
H422	H	0.433350	0.634251	-0.674676
H423	H	0.437935	0.705826	-0.651400
O424	O	0.387060	0.794234	-0.273579
C425	C	0.311028	0.794289	-0.268938
C426	C	0.353182	0.794336	-0.244629
H427	H	0.283621	0.794393	-0.245549
H428	H	0.329903	0.722815	-0.268820
H429	H	0.288334	0.865704	-0.310470
H430	H	0.375891	0.722969	-0.203088
H431	H	0.334276	0.865857	-0.244787
H432	H	0.570507	0.794204	-0.526116
H433	H	0.354817	0.794242	-0.526175
O434	O	0.576510	0.794139	-0.609909
C435	C	0.610457	0.794175	-0.678083
C436	C	0.568304	0.794222	-0.653740
H437	H	0.603831	0.794264	-0.713531
H438	H	0.650171	0.722708	-0.648600
H439	H	0.608556	0.865597	-0.690160
H440	H	0.570157	0.722848	-0.641665
H441	H	0.528608	0.865736	-0.683240
