data_functionalizedCrystal
_audit_creation_method	'MofGen! by Chris Wilmer'
_symmetry_space_group_name_H-M	'P1'
_symmetry_Int_Tables_number	1
_symmetry_cell_setting	triclinic
loop_
_symmetry_equiv_pos_as_xyz
  x,y,z
_cell_length_a	13.635800
_cell_length_b	10.943867
_cell_length_c	17.982968
_cell_angle_alpha	85.831388
_cell_angle_beta	102.451960
_cell_angle_gamma	71.156739
loop_
_atom_site_label
_atom_site_type_symbol
_atom_site_fract_x
_atom_site_fract_y
_atom_site_fract_z
V1	V	2.021315	-0.179843	0.237540
O2	O	2.000844	0.007398	0.233027
O3	O	2.010557	-0.355401	0.235907
O4	O	1.994398	-0.177622	0.341143
O5	O	2.017115	-0.171611	0.127062
V6	V	2.261739	-0.157382	0.224327
O7	O	2.154877	-0.229112	0.266524
O8	O	2.353275	-0.108113	0.195343
O9	O	2.160894	0.018176	0.225960
O10	O	2.340908	-0.344622	0.228840
O11	O	2.324637	-0.165613	0.334805
O12	O	2.177052	-0.159602	0.120724
V13	V	2.521315	-0.179843	0.237540
O14	O	2.500844	0.007398	0.233027
O15	O	2.510557	-0.355401	0.235907
O16	O	2.494398	-0.177622	0.341143
O17	O	2.517115	-0.171611	0.127062
V18	V	2.761739	-0.157382	0.224327
O19	O	2.654877	-0.229112	0.266524
O20	O	2.853275	-0.108113	0.195343
O21	O	2.660894	0.018176	0.225960
O22	O	2.840908	-0.344622	0.228840
O23	O	2.824637	-0.165613	0.334805
O24	O	2.677052	-0.159602	0.120724
C25	C	1.936415	-0.398181	0.232157
C26	C	1.968244	-0.541705	0.231513
C27	C	2.082415	-0.632607	0.235100
C28	C	2.071647	-0.732033	0.295837
C29	C	2.035721	-0.698018	0.169643
C30	C	1.957071	-0.639255	0.292310
C31	C	1.921141	-0.605218	0.166059
C32	C	1.910299	-0.704604	0.226809
C33	C	1.915803	-0.171405	0.366396
C34	C	1.934527	-0.170752	0.451092
C35	C	2.066707	0.060950	0.229707
C36	C	2.024497	0.204473	0.230357
C37	C	2.087319	-0.165823	0.095467
C38	C	2.058214	-0.166471	0.010770
C39	C	2.436415	-0.398181	0.232157
C40	C	2.468244	-0.541705	0.231513
C41	C	2.415803	-0.171405	0.366396
C42	C	2.434527	-0.170752	0.451092
C43	C	2.034778	-0.176914	0.494763
C44	C	2.052365	-0.176299	0.574344
C45	C	1.969701	-0.169531	0.610252
C46	C	1.869440	-0.163364	0.566575
C47	C	1.851852	-0.163969	0.486995
C48	C	1.940366	-0.160919	0.887512
C49	C	1.957963	-0.160317	0.967098
C50	C	2.140879	-0.173248	0.974861
C51	C	2.123292	-0.173854	0.895281
C52	C	2.023031	-0.167680	0.851610
C53	C	2.003962	-0.168345	0.765319
C54	C	1.988771	-0.168875	0.696542
C55	C	2.566707	0.060950	0.229707
C56	C	2.524497	0.204473	0.230357
C57	C	2.587319	-0.165823	0.095467
C58	C	2.558214	-0.166471	0.010770
C59	C	2.534782	-0.176901	0.494749
C60	C	2.552385	-0.176270	0.574329
C61	C	2.469733	-0.169498	0.610251
C62	C	2.369468	-0.163344	0.566587
C63	C	2.351864	-0.163966	0.487008
C64	C	2.458634	-0.173228	-0.025132
C65	C	2.431268	-0.173821	-0.104715
C66	C	2.503487	-0.167665	-0.148393
C67	C	2.603074	-0.160904	-0.112485
C68	C	2.630435	-0.160302	-0.032905
C69	C	2.391340	-0.618837	0.227178
C70	C	2.440201	-0.691172	0.165678
C71	C	2.476109	-0.725108	0.291872
C72	C	2.516672	-0.612136	0.169969
C73	C	2.552581	-0.646078	0.296219
C74	C	2.601499	-0.718375	0.234707
H75	H	2.154872	-0.600790	0.238690
Br76	Br	1.789393	-0.757300	0.220986
H77	H	1.857241	-0.550163	0.111196
H78	H	2.069308	-0.724286	0.117801
H79	H	1.858742	-0.155937	0.851968
H80	H	1.923582	-0.613165	0.344213
Br81	Br	2.765594	-0.151149	0.015811
H82	H	1.802132	-0.157845	0.595817
H83	H	1.770210	-0.158919	0.451435
Br84	Br	2.235486	-0.183051	0.846553
Br85	Br	2.646972	-0.186094	0.446016
H86	H	2.459251	-0.774291	0.343373
Br87	Br	2.688466	-0.184630	0.633571
Br88	Br	2.493643	-0.168658	0.718254
H89	H	2.690646	-0.761617	0.237869
Br90	Br	2.146978	-0.186114	0.446039
Br91	Br	2.215795	-0.155634	0.427770
Br92	Br	2.178195	-0.823758	0.387276
Br93	Br	2.188430	-0.184678	0.633611
H94	H	2.302178	-0.157831	0.595847
H95	H	2.222517	-0.178270	1.010427
Br96	Br	1.845768	-0.151133	1.015831
Br97	Br	2.360603	-0.181583	0.034128
Br98	Br	2.701078	-0.152564	-0.171773
H99	H	2.350176	-0.179326	-0.133939
Br100	Br	2.242735	-0.546329	0.221757
Br101	Br	2.361572	-0.725391	0.073703
H102	H	2.533498	-0.563104	0.118399
H103	H	2.599722	-0.625568	0.351419
H104	H	2.481199	-0.168172	-0.213190
