data_functionalizedCrystal
_audit_creation_method	'MofGen! by Chris Wilmer'
_symmetry_space_group_name_H-M	'P1'
_symmetry_Int_Tables_number	1
_symmetry_cell_setting	triclinic
loop_
_symmetry_equiv_pos_as_xyz
  x,y,z
_cell_length_a	14.044191
_cell_length_b	23.532407
_cell_length_c	22.010155
_cell_angle_alpha	89.999577
_cell_angle_beta	89.993222
_cell_angle_gamma	88.020227
loop_
_atom_site_label
_atom_site_type_symbol
_atom_site_fract_x
_atom_site_fract_y
_atom_site_fract_z
O1	O	1.256423	0.137246	-0.050508
O2	O	0.980500	0.132289	-0.050515
O3	O	1.126782	0.052287	-0.050500
O4	O	1.110141	0.217248	-0.050523
O5	O	1.126756	0.052299	0.050551
O6	O	0.980474	0.132301	0.050536
O7	O	1.256397	0.137257	0.050543
Cu8	Cu	1.118433	0.134780	0.059766
Cu9	Cu	1.118464	0.134766	-0.059738
O10	O	1.110115	0.217260	0.050528
C11	C	0.945193	0.130127	0.000010
C12	C	0.840028	0.123659	0.000007
C13	C	0.589421	0.157705	0.000009
C14	C	0.647482	0.111844	0.000014
C15	C	0.754624	0.118420	0.000010
C16	C	0.482268	0.151130	0.000012
C17	C	1.126345	0.031054	0.000027
C18	C	1.125071	-0.032232	0.000032
C19	C	1.203646	-0.427075	0.000000
C20	C	1.202463	-0.486540	-0.000004
O21	O	1.275303	-0.519335	-0.000025
N22	N	1.115498	-0.513881	-0.000006
C23	C	1.029712	-0.481754	-0.000010
O24	O	0.955633	-0.510470	-0.000012
C25	C	1.030896	-0.422291	-0.000009
C26	C	1.117866	-0.394953	-0.000001
C27	C	1.290610	-0.399737	0.000008
C28	C	1.291793	-0.340277	0.000013
C29	C	1.206013	-0.308155	0.000012
C30	C	1.119050	-0.335493	0.000005
C31	C	0.945111	-0.390166	-0.000017
C32	C	0.946303	-0.330698	-0.000017
C33	C	1.033273	-0.303361	-0.000009
C34	C	1.034453	-0.243910	0.000009
N35	N	1.121417	-0.216569	0.000011
C36	C	1.207197	-0.248692	0.000012
C37	C	1.027231	-0.606631	-0.000011
C38	C	1.026045	-0.666094	-0.000007
C39	C	1.198797	-0.670875	-0.000003
C40	C	1.199981	-0.611412	-0.000003
C41	C	1.114195	-0.579290	-0.000009
C42	C	1.209675	-0.123820	0.000025
C43	C	1.210851	-0.064355	0.000033
C44	C	1.038100	-0.059578	0.000026
C45	C	1.036924	-0.119039	0.000021
C46	C	1.122719	-0.151159	0.000018
O47	O	0.961651	-0.211078	0.000027
O48	O	1.281264	-0.219968	0.000007
C49	C	1.291704	0.139420	0.000017
C50	C	1.396869	0.145887	0.000015
C51	C	1.110552	0.238493	-0.000000
C52	C	1.111826	0.301779	-0.000009
N53	N	1.118417	0.134790	0.143818
N54	N	1.118487	0.134752	-0.143790
C55	C	1.183241	0.099347	0.563604
C56	C	1.183246	0.099343	0.627212
O57	O	1.238323	0.069214	0.660109
N58	N	1.118464	0.134754	0.659025
C59	C	1.053666	0.170167	0.627228
O60	O	0.998564	0.200286	0.660129
C61	C	1.053658	0.170168	0.563622
C62	C	1.118451	0.134758	0.531811
C63	C	1.248028	0.063940	0.531794
C64	C	1.248025	0.063945	0.468191
C65	C	1.183234	0.099356	0.436398
C66	C	1.118448	0.134763	0.468208
C67	C	0.988857	0.205577	0.531825
C68	C	0.988854	0.205574	0.468215
C69	C	1.053647	0.170165	0.436404
C70	C	1.053654	0.170179	0.372812
N71	N	1.118436	0.134768	0.340999
C72	C	1.183226	0.099356	0.372791
C73	C	1.053687	0.170163	0.760806
C74	C	1.053699	0.170166	0.824411
C75	C	1.183278	0.099341	0.824391
C76	C	1.183270	0.099342	0.760784
C77	C	1.118470	0.134752	0.728992
C78	C	1.183215	0.099369	0.239220
C79	C	1.183208	0.099379	0.175611
C80	C	1.053626	0.170201	0.175637
C81	C	1.053636	0.170194	0.239241
C82	C	1.118434	0.134773	0.271030
O83	O	0.998602	0.200291	0.339875
O84	O	1.238311	0.069237	0.339883
H85	H	0.616722	0.067644	-0.000023
O86	O	0.630153	0.216252	-0.000007
H87	H	0.709135	0.212293	-0.000015
H88	H	1.235973	0.070544	0.149713
H89	H	1.281675	-0.042099	0.000041
H90	H	0.957369	-0.580481	-0.000011
H91	H	1.236029	0.070508	0.734888
O92	O	0.851307	-0.419643	-0.000028
H93	H	0.791868	-0.387308	-0.000036
O94	O	0.853775	-0.296052	-0.000017
H95	H	0.793107	-0.325056	-0.000017
H96	H	1.279538	-0.149966	0.000020
O97	O	0.918944	0.243761	0.433928
H98	H	0.929810	0.237811	0.384354
H99	H	1.362613	-0.318024	0.000017
O100	O	1.293784	-0.581928	0.000002
H101	H	1.298466	-0.554949	-0.041183
H102	H	1.236033	0.070506	0.850288
O103	O	1.383137	-0.434380	0.000018
H104	H	1.443797	-0.405370	0.000029
H105	H	1.000877	0.199035	0.149742
O106	O	1.317928	0.025752	0.566081
H107	H	1.362977	0.001140	0.533265
H108	H	0.955225	-0.688347	-0.000003
O109	O	0.983847	0.208377	0.858719
H110	H	0.938803	0.233003	0.825919
H111	H	1.300782	0.035110	0.442295
O112	O	1.291322	-0.705526	-0.000008
H113	H	1.275880	-0.751466	-0.000017
H114	H	0.966106	-0.141299	0.000031
O115	O	0.945581	-0.024928	0.000023
H116	H	0.961024	0.021012	0.000022
H117	H	1.235978	0.070526	0.265096
O118	O	0.983805	0.208367	0.726516
H119	H	0.938771	0.232992	0.759329
H120	H	0.936097	0.234410	0.557716
H121	H	1.000885	0.199033	0.265141
