data_functionalizedCrystal
_audit_creation_method	'MofGen! by Chris Wilmer'
_symmetry_space_group_name_H-M	'P1'
_symmetry_Int_Tables_number	1
_symmetry_cell_setting	triclinic
loop_
_symmetry_equiv_pos_as_xyz
  x,y,z
_cell_length_a	21.295417
_cell_length_b	21.295418
_cell_length_c	21.295411
_cell_angle_alpha	89.956262
_cell_angle_beta	90.021644
_cell_angle_gamma	89.953681
loop_
_atom_site_label
_atom_site_type_symbol
_atom_site_fract_x
_atom_site_fract_y
_atom_site_fract_z
Zn1	Zn	-0.250415	-0.962356	0.356234
Zn2	Zn	-0.355667	-0.962258	0.250959
Zn3	Zn	-0.250445	-0.857079	0.250943
Zn4	Zn	-0.355680	-0.857048	0.356155
O5	O	-0.303052	-0.909685	0.303573
O6	O	-0.264360	-1.050432	0.342308
O7	O	-0.341716	-0.948278	0.162867
O8	O	-0.162351	-0.871098	0.264937
O9	O	-0.341688	-1.050361	0.264963
O10	O	-0.162330	-0.948444	0.342293
O11	O	-0.264410	-0.871003	0.162856
O12	O	-0.264422	-0.768985	0.264861
O13	O	-0.341709	-0.871046	0.444255
O14	O	-0.341738	-0.768963	0.342160
O15	O	-0.264372	-0.948415	0.444313
O16	O	-0.443758	-0.948248	0.264887
O17	O	-0.443767	-0.870951	0.342175
C18	C	-0.303085	-0.746134	0.303500
C19	C	-0.303114	-0.676166	0.303484
C20	C	-0.466603	-0.909603	0.303538
C21	C	-0.536571	-0.909625	0.303544
C22	C	-0.303038	-0.909738	0.467763
C23	C	-0.303033	-0.909760	0.537731
C24	C	-0.569412	-0.949910	0.263342
C25	C	-0.635155	-0.949939	0.263356
C26	C	-0.668054	-0.909673	0.303566
C27	C	-0.635205	-0.869386	0.343776
C28	C	-0.569464	-0.869362	0.343765
N29	N	-0.771336	-0.854606	0.308340
N30	N	-0.833787	-0.854630	0.308347
C31	C	-0.866129	-0.909743	0.303602
N32	N	-0.833659	-0.964832	0.298838
N33	N	-0.771202	-0.964807	0.298828
C34	C	-0.739339	-0.909695	0.303582
C35	C	-0.970255	-0.950063	0.263413
C36	C	-1.035999	-0.950094	0.263431
C37	C	-1.036048	-0.869535	0.343848
C38	C	-0.970305	-0.869510	0.343833
C39	C	-0.937413	-0.909773	0.303612
C40	C	-0.138861	-0.909785	0.303622
C41	C	-0.068893	-0.909828	0.303642
C42	C	-0.303019	-1.073876	0.303646
C43	C	-0.303005	-1.143844	0.303677
C44	C	-0.343426	-0.643304	0.343674
C45	C	-0.343410	-0.577561	0.343702
C46	C	-0.303090	-0.544683	0.303530
C47	C	-0.262770	-0.577553	0.263337
C48	C	-0.262783	-0.643294	0.263315
N49	N	-0.298163	-0.441407	0.248472
N50	N	-0.298155	-0.378956	0.248495
C51	C	-0.303050	-0.346608	0.303596
N52	N	-0.307965	-0.379072	0.358675
N53	N	-0.307976	-0.441529	0.358650
C54	C	-0.303072	-0.473398	0.303550
C55	C	-0.343346	-0.242461	0.343820
C56	C	-0.343326	-0.176717	0.343849
C57	C	-0.262690	-0.176710	0.263479
C58	C	-0.262707	-0.242453	0.263455
C59	C	-0.303038	-0.275324	0.303625
C60	C	-0.303019	-0.909670	0.140021
C61	C	-0.302848	-0.909769	0.070054
C62	C	-0.262761	-0.950044	0.570629
C63	C	-0.262734	-0.950043	0.636371
C64	C	-0.302989	-0.909765	0.669214
C65	C	-0.343263	-0.869473	0.636308
C66	C	-0.343285	-0.869470	0.570567
N67	N	-0.358058	-0.904908	0.772428
N68	N	-0.358036	-0.904914	0.834879
C69	C	-0.302926	-0.909769	0.867289
N70	N	-0.247837	-0.914629	0.834888
N71	N	-0.247860	-0.914627	0.772430
C72	C	-0.302970	-0.909763	0.740499
C73	C	-0.262621	-0.950054	0.971472
C74	C	-0.262593	-0.950049	1.037216
C75	C	-0.343128	-0.869482	1.037151
C76	C	-0.343151	-0.869484	0.971409
C77	C	-0.302898	-0.909773	0.938573
H78	H	-0.661899	-0.982746	0.230619
H79	H	-0.376266	-0.670063	0.376384
H80	H	-1.062737	-0.982902	0.230695
O81	O	-0.537656	-0.830166	0.382838
C82	C	-0.580787	-0.794645	0.418347
H83	H	-0.627668	-0.792495	0.392571
H84	H	-0.587723	-0.817677	0.466185
C85	C	-0.497624	-0.730275	0.458991
C86	C	-0.555203	-0.727630	0.427329
H87	H	-0.481842	-0.688938	0.464534
H88	H	-0.468565	-0.754208	0.435069
H89	H	-0.503412	-0.749472	0.498853
H90	H	-0.549413	-0.708441	0.387465
H91	H	-0.584260	-0.703692	0.451244
H92	H	-1.062833	-0.836752	0.376591
O93	O	-0.223703	-0.989212	0.668405
C94	C	-0.259532	-1.029854	0.706446
H95	H	-0.307235	-1.007616	0.716273
H96	H	-0.266453	-1.076497	0.681142
C97	C	-0.166291	-1.068595	0.756836
C98	C	-0.224879	-1.041279	0.768910
H99	H	-0.144914	-1.075645	0.795366
H100	H	-0.142152	-1.041215	0.731206
H101	H	-0.172066	-1.107461	0.735748
H102	H	-0.219102	-1.002411	0.789990
H103	H	-0.249016	-1.068653	0.794545
H104	H	-0.661996	-0.836602	0.376516
H105	H	-0.943564	-0.836704	0.376567
O106	O	-0.223640	-0.274447	0.224378
C107	C	-0.259429	-0.312380	0.183630
H108	H	-0.307168	-0.322206	0.205741
H109	H	-0.266273	-0.286985	0.136977
C110	C	-0.166156	-0.362781	0.145116
C111	C	-0.224787	-0.374854	0.172275
H112	H	-0.144787	-0.401317	0.138108
H113	H	-0.142044	-0.337223	0.172566
H114	H	-0.171867	-0.341616	0.106241
H115	H	-0.219075	-0.396011	0.211152
H116	H	-0.248898	-0.400417	0.144831
H117	H	-0.542633	-0.982696	0.230593
H118	H	-0.943473	-0.982850	0.230664
H119	H	-0.229984	-0.982850	0.543898
O120	O	-0.382627	-0.545727	0.382767
C121	C	-0.418211	-0.588838	0.418231
H122	H	-0.420366	-0.635670	0.392428
H123	H	-0.395229	-0.595907	0.466079
C124	C	-0.482567	-0.505598	0.458883
C125	C	-0.485218	-0.563117	0.427188
H126	H	-0.523899	-0.489731	0.464411
H127	H	-0.458592	-0.476553	0.434992
H128	H	-0.463413	-0.511496	0.498753
H129	H	-0.504364	-0.557216	0.387316
H130	H	-0.509198	-0.592160	0.451073
O131	O	-0.382218	-0.830377	0.939351
C132	C	-0.373617	-0.839024	0.874285
H133	H	-0.325036	-0.859668	0.865323
H134	H	-0.410955	-0.872524	0.855652
C135	C	-0.439081	-0.749972	0.851491
C136	C	-0.379410	-0.775323	0.840484
H137	H	-0.442657	-0.710680	0.830640
H138	H	-0.444878	-0.744148	0.895328
H139	H	-0.470189	-0.777895	0.835964
H140	H	-0.348304	-0.747404	0.856018
H141	H	-0.373609	-0.781141	0.796649
O142	O	-0.223486	-0.989119	1.069272
C143	C	-0.232103	-0.980490	1.134339
H144	H	-0.252727	-0.931897	1.143278
H145	H	-0.265608	-1.017808	1.153027
C146	C	-0.143064	-1.045974	1.157112
C147	C	-0.168390	-0.986290	1.168093
H148	H	-0.103764	-1.049555	1.177935
H149	H	-0.137260	-1.051790	1.113276
H150	H	-0.170991	-1.077066	1.172686
H151	H	-0.140467	-0.955200	1.152512
H152	H	-0.174188	-0.980469	1.211928
H153	H	-0.376183	-0.269226	0.376531
O154	O	-0.382437	-0.830438	0.668236
C155	C	-0.423066	-0.866254	0.706297
H156	H	-0.426950	-0.915829	0.686519
H157	H	-0.403588	-0.868437	0.756124
C158	C	-0.483741	-0.774572	0.731570
C159	C	-0.488516	-0.835459	0.707276
H160	H	-0.524113	-0.755575	0.732177
H161	H	-0.456367	-0.750441	0.705930
H162	H	-0.467507	-0.776399	0.773091
H163	H	-0.504742	-0.833630	0.665754
H164	H	-0.515894	-0.859589	0.732909
H165	H	-0.229940	-0.550779	0.230630
O166	O	-0.223458	-0.989204	0.939668
C167	C	-0.187912	-1.024768	0.982806
H168	H	-0.185721	-0.998985	1.029649
H169	H	-0.210950	-1.072563	0.989834
C170	C	-0.123613	-1.065545	0.899622
C171	C	-0.120918	-1.033876	0.957154
H172	H	-0.082289	-1.071167	0.883799
H173	H	-0.147562	-1.041587	0.870559
H174	H	-0.142814	-1.105371	0.905487
H175	H	-0.101725	-0.994048	0.951288
H176	H	-0.096964	-1.057827	0.986216
H177	H	-0.375898	-0.836680	1.063891
O178	O	-0.223605	-0.675122	0.224210
C179	C	-0.187999	-0.632009	0.188771
H180	H	-0.213767	-0.585117	0.186561
H181	H	-0.140222	-0.625095	0.211913
C182	C	-0.147186	-0.715195	0.124495
C183	C	-0.178837	-0.657602	0.121777
H184	H	-0.141531	-0.730982	0.083170
H185	H	-0.171172	-0.744241	0.148372
H186	H	-0.107375	-0.709425	0.143783
H187	H	-0.218650	-0.663373	0.102496
H188	H	-0.154857	-0.628557	0.097894
O189	O	-0.382548	-0.144890	0.382910
C190	C	-0.418135	-0.188004	0.418367
H191	H	-0.420283	-0.234836	0.392562
H192	H	-0.395162	-0.195074	0.466219
C193	C	-0.482503	-0.104770	0.459010
C194	C	-0.485146	-0.162287	0.427313
H195	H	-0.523838	-0.088906	0.464532
H196	H	-0.458526	-0.075722	0.435125
H197	H	-0.463356	-0.110669	0.498884
H198	H	-0.504285	-0.156387	0.387438
H199	H	-0.509128	-0.191333	0.451193
H200	H	-0.229857	-0.149942	0.230773
H201	H	-0.376078	-0.836663	0.543782
