data_functionalizedCrystal
_audit_creation_method	'MofGen! by Chris Wilmer'
_symmetry_space_group_name_H-M	'P1'
_symmetry_Int_Tables_number	1
_symmetry_cell_setting	triclinic
loop_
_symmetry_equiv_pos_as_xyz
  x,y,z
_cell_length_a	6.817900
_cell_length_b	14.858329
_cell_length_c	14.858572
_cell_angle_alpha	94.733148
_cell_angle_beta	104.524003
_cell_angle_gamma	104.519616
loop_
_atom_site_label
_atom_site_type_symbol
_atom_site_fract_x
_atom_site_fract_y
_atom_site_fract_z
V1	V	-4.043543	-0.129256	-0.290226
V2	V	-3.793543	0.120744	-0.040226
V3	V	-3.543543	0.370744	0.209774
V4	V	-3.293543	0.620744	0.459774
O5	O	-4.025386	0.005609	-0.284429
O6	O	-3.775386	0.255609	-0.034429
O7	O	-3.525386	0.505609	0.215571
O8	O	-3.275386	0.755609	0.465571
O9	O	-4.000092	-0.255714	-0.288504
O10	O	-3.750092	-0.005714	-0.038504
O11	O	-3.500092	0.244286	0.211496
O12	O	-3.250092	0.494286	0.461496
O13	O	-4.000114	-0.127532	-0.416685
O14	O	-3.750114	0.122468	-0.166685
O15	O	-3.500114	0.372468	0.083315
O16	O	-3.250114	0.622468	0.333315
O17	O	-4.025364	-0.123460	-0.155361
O18	O	-3.775364	0.126540	0.094639
O19	O	-3.525364	0.376540	0.344639
O20	O	-3.275364	0.626540	0.594639
V21	V	-4.525886	-0.113094	-0.274064
V22	V	-4.275886	0.136906	-0.024064
V23	V	-4.025886	0.386906	0.225936
V24	V	-3.775886	0.636906	0.475936
O25	O	-4.307391	-0.164710	-0.325681
O26	O	-4.057391	0.085290	-0.075681
O27	O	-3.807391	0.335290	0.174319
O28	O	-3.557391	0.585290	0.424319
O29	O	-4.712236	-0.077639	-0.238609
O30	O	-4.462236	0.172361	0.011391
O31	O	-4.212236	0.422361	0.261391
O32	O	-3.962236	0.672361	0.511391
O33	O	-4.346130	0.013364	-0.275786
O34	O	-4.096130	0.263364	-0.025786
O35	O	-3.846130	0.513364	0.224214
O36	O	-3.596130	0.763364	0.474214
O37	O	-4.661440	-0.247959	-0.279861
O38	O	-4.411440	0.002041	-0.029861
O39	O	-4.161440	0.252041	0.220139
O40	O	-3.911440	0.502041	0.470139
O41	O	-4.661462	-0.118890	-0.408929
O42	O	-4.411462	0.131110	-0.158929
O43	O	-4.161462	0.381110	0.091071
O44	O	-3.911462	0.631110	0.341071
O45	O	-4.346109	-0.114818	-0.147605
O46	O	-4.096109	0.135182	0.102395
O47	O	-3.846109	0.385182	0.352395
O48	O	-3.596109	0.635182	0.602395
C49	C	-3.846136	-0.286534	-0.283993
C50	C	-3.596136	-0.036534	-0.033993
C51	C	-3.346136	0.213466	0.216007
C52	C	-3.096136	0.463466	0.466007
C53	C	-3.891930	-0.389916	-0.283428
C54	C	-3.641930	-0.139916	-0.033428
C55	C	-3.391930	0.110084	0.216572
C56	C	-3.141930	0.360084	0.466572
C57	C	-3.929113	-0.473873	-0.282959
C58	C	-3.679113	-0.223873	-0.032959
C59	C	-3.429113	0.026127	0.217041
C60	C	-3.179113	0.276127	0.467041
C61	C	-3.975781	-0.579202	-0.282377
C62	C	-3.725781	-0.329202	-0.032377
C63	C	-3.475781	-0.079202	0.217623
C64	C	-3.225781	0.170798	0.467623
C65	C	-4.012992	-0.663153	-0.281914
C66	C	-3.762992	-0.413153	-0.031914
C67	C	-3.512992	-0.163153	0.218086
C68	C	-3.262992	0.086847	0.468086
C69	C	-4.059662	-0.768488	-0.281329
C70	C	-3.809662	-0.518488	-0.031329
C71	C	-3.559662	-0.268488	0.218671
C72	C	-3.309662	-0.018488	0.468671
C73	C	-3.846162	-0.123024	-0.447499
C74	C	-3.596162	0.126976	-0.197499
C75	C	-3.346162	0.376976	0.052501
C76	C	-3.096162	0.626976	0.302501
C77	C	-3.891970	-0.122451	-0.550881
C78	C	-3.641970	0.127549	-0.300881
C79	C	-3.391970	0.377549	-0.050881
C80	C	-3.141970	0.627549	0.199119
C81	C	-4.059628	-0.120358	-0.929445
C82	C	-3.809628	0.129642	-0.679445
C83	C	-3.559628	0.379642	-0.429445
C84	C	-3.309628	0.629642	-0.179445
C85	C	-4.012972	-0.120940	-0.824117
C86	C	-3.762972	0.129060	-0.574117
C87	C	-3.512972	0.379060	-0.324117
C88	C	-3.262972	0.629060	-0.074117
C89	C	-3.975800	-0.121405	-0.740166
C90	C	-3.725800	0.128595	-0.490166
C91	C	-3.475800	0.378595	-0.240166
C92	C	-3.225800	0.628595	0.009834
C93	C	-3.929142	-0.121986	-0.634831
C94	C	-3.679142	0.128014	-0.384831
C95	C	-3.429142	0.378014	-0.134831
C96	C	-3.179142	0.628014	0.115169
C97	C	-4.163428	0.044179	-0.280294
C98	C	-3.913428	0.294179	-0.030294
C99	C	-3.663428	0.544179	0.219706
C100	C	-3.413428	0.794179	0.469706
C101	C	-4.096873	0.147561	-0.280866
C102	C	-3.846873	0.397561	-0.030866
C103	C	-3.596873	0.647561	0.219134
C104	C	-3.346873	0.897561	0.469134
C105	C	-4.163402	-0.119329	-0.116786
C106	C	-3.913402	0.130671	0.133214
C107	C	-3.663402	0.380671	0.383214
C108	C	-3.413402	0.630671	0.633214
C109	C	-4.096833	-0.119897	-0.013403
C110	C	-3.846833	0.130103	0.236597
C111	C	-3.596833	0.380103	0.486597
C112	C	-3.346833	0.630103	0.736597
