data_functionalizedCrystal
_audit_creation_method	'MofGen! by Chris Wilmer'
_symmetry_space_group_name_H-M	'P1'
_symmetry_Int_Tables_number	1
_symmetry_cell_setting	triclinic
loop_
_symmetry_equiv_pos_as_xyz
  x,y,z
_cell_length_a	13.032831
_cell_length_b	19.121063
_cell_length_c	13.032268
_cell_angle_alpha	99.247498
_cell_angle_beta	90.886977
_cell_angle_gamma	85.565596
loop_
_atom_site_label
_atom_site_type_symbol
_atom_site_fract_x
_atom_site_fract_y
_atom_site_fract_z
Zn1	Zn	1.465022	-0.473659	-0.806576
Zn2	Zn	1.965022	0.026341	-0.306576
Zn3	Zn	1.479383	-0.578156	-0.640274
Zn4	Zn	1.979383	-0.078156	-0.140274
Zn5	Zn	1.316950	-0.444360	-0.611224
Zn6	Zn	1.816950	0.055640	-0.111224
Zn7	Zn	1.285899	-0.574364	-0.790193
Zn8	Zn	1.785899	-0.074364	-0.290193
O9	O	1.386814	-0.517635	-0.712067
O10	O	1.886814	-0.017635	-0.212067
O11	O	1.609870	-0.501370	-0.803529
O12	O	2.109870	-0.001370	-0.303529
O13	O	1.476841	-0.549733	-0.491924
O14	O	1.976841	-0.049733	0.008076
O15	O	1.343577	-0.350107	-0.631836
O16	O	1.843577	0.149893	-0.131836
O17	O	1.620421	-0.578143	-0.681348
O18	O	2.120421	-0.078143	-0.181348
O19	O	1.452365	-0.371633	-0.775360
O20	O	1.952365	0.128367	-0.275360
O21	O	1.357502	-0.451434	-0.470581
O22	O	1.857502	0.048566	0.029419
O23	O	1.169889	-0.447756	-0.615951
O24	O	1.669889	0.052244	-0.115951
O25	O	1.290655	-0.571680	-0.936863
O26	O	1.790655	-0.071680	-0.436863
O27	O	1.147076	-0.543270	-0.747439
O28	O	1.647076	-0.043270	-0.247439
O29	O	1.422256	-0.497693	-0.948899
O30	O	1.922256	0.002307	-0.448899
O31	O	1.446733	-0.675793	-0.665463
O32	O	1.946733	-0.175793	-0.165463
O33	O	1.304581	-0.673007	-0.775608
O34	O	1.804581	-0.173007	-0.275608
C35	C	1.121419	-0.491923	-0.676766
C36	C	1.621419	0.008077	-0.176766
C37	C	1.007877	-0.480942	-0.661690
C38	C	1.507877	0.019058	-0.161690
C39	C	0.946005	-0.523366	-0.719935
C40	C	1.446005	-0.023366	-0.219935
C41	C	0.828653	-0.512018	-0.704355
C42	C	1.328653	-0.012018	-0.204355
C43	C	1.373870	-0.699851	-0.721936
C44	C	1.873870	-0.199851	-0.221936
C45	C	1.368422	-0.777815	-0.726206
C46	C	1.868422	-0.277815	-0.226206
C47	C	1.439917	-0.815879	-0.670926
C48	C	1.939917	-0.315879	-0.170926
C49	C	1.434798	-0.889136	-0.674948
C50	C	1.934798	-0.389136	-0.174948
C51	C	1.358179	-0.924327	-0.734244
C52	C	1.858179	-0.424327	-0.234244
C53	C	1.286681	-0.886258	-0.789530
C54	C	1.786681	-0.386258	-0.289530
C55	C	1.291805	-0.813003	-0.785514
C56	C	1.791805	-0.313003	-0.285514
C57	C	1.339006	-1.145437	-0.749244
C58	C	1.839006	-0.645437	-0.249244
C59	C	1.333886	-1.218697	-0.753254
C60	C	1.833886	-0.718697	-0.253254
C61	C	1.482005	-1.221570	-0.638672
C62	C	1.982005	-0.721570	-0.138672
C63	C	1.487118	-1.148313	-0.634656
C64	C	1.987118	-0.648313	-0.134656
C65	C	1.415624	-1.110251	-0.689946
C66	C	1.915624	-0.610251	-0.189946
C67	C	1.352943	-0.999207	-0.738354
C68	C	1.852943	-0.499207	-0.238354
C69	C	1.420865	-1.035374	-0.685842
C70	C	1.920865	-0.535374	-0.185842
C71	C	1.653245	-0.543448	-0.747506
C72	C	2.153245	-0.043448	-0.247506
C73	C	1.766782	-0.554448	-0.762608
C74	C	2.266782	-0.054448	-0.262608
C75	C	1.351390	-0.537532	-0.981395
C76	C	1.851390	-0.037532	-0.481395
C77	C	1.336295	-0.546011	-1.096167
C78	C	1.836295	-0.046011	-0.596167
C79	C	1.399833	-0.334712	-0.702185
C80	C	1.899833	0.165288	-0.202185
C81	C	1.405381	-0.256761	-0.697974
C82	C	1.905381	0.243239	-0.197974
C83	C	1.394678	-0.513183	-1.153291
C84	C	1.894678	-0.013183	-0.653291
C85	C	1.379078	-0.521945	-1.271914
C86	C	1.879078	-0.021945	-0.771914
C87	C	1.422162	-0.497771	-0.443791
C88	C	1.922162	0.002229	0.056209
C89	C	1.437469	-0.489113	-0.329036
C90	C	1.937469	0.010887	0.170964
H91	H	0.794751	-0.467290	-0.642953
H92	H	1.294751	0.032710	-0.142953
C93	C	1.513443	-0.931002	-0.614128
C94	C	2.013443	-0.431002	-0.114128
N95	N	1.572681	-0.962535	-0.568314
N96	N	2.072681	-0.462535	-0.068314
H97	H	1.456208	-0.478588	-1.114376
H98	H	1.956208	0.021412	-0.614376
C99	C	0.812577	-0.614871	-0.845566
C100	C	1.312577	-0.114871	-0.345566
N101	N	0.847070	-0.660381	-0.908048
N102	N	1.347070	-0.160381	-0.408048
C103	C	0.962076	-0.420522	-0.578738
C104	C	1.462076	0.079478	-0.078738
N105	N	0.927580	-0.375013	-0.516255
N106	N	1.427580	0.124987	-0.016255
C107	C	1.524202	-0.777176	-0.605692
C108	C	2.024202	-0.277176	-0.105692
N109	N	1.587691	-0.748028	-0.556559
N110	N	2.087691	-0.248028	-0.056559
H111	H	1.549508	-1.119663	-0.586372
H112	H	2.049508	-0.619663	-0.086372
C113	C	1.213155	-0.771133	-0.846326
C114	C	1.713155	-0.271133	-0.346326
N115	N	1.153916	-0.739598	-0.892135
N116	N	1.653916	-0.239598	-0.392135
C117	C	1.560647	-1.263445	-0.577861
C118	C	2.060647	-0.763445	-0.077861
N119	N	1.619885	-1.294985	-0.532057
N120	N	2.119885	-0.794985	-0.032057
C121	C	1.202396	-0.924969	-0.854753
C122	C	1.702396	-0.424969	-0.354753
N123	N	1.138907	-0.954126	-0.903875
N124	N	1.638907	-0.454126	-0.403875
H125	H	1.271503	-1.247349	-0.801559
H126	H	1.771503	-0.747349	-0.301559
H127	H	1.280791	-1.114453	-0.794261
H128	H	1.780791	-0.614453	-0.294261
H129	H	1.483252	-1.006720	-0.637567
H130	H	1.983252	-0.506720	-0.137567
H131	H	1.290558	-1.027867	-0.786631
H132	H	1.790558	-0.527867	-0.286631
C133	C	0.991807	-0.583787	-0.802886
C134	C	1.491807	-0.083787	-0.302886
N135	N	1.026303	-0.629299	-0.865364
N136	N	1.526303	-0.129299	-0.365364
H137	H	1.274755	-0.580597	-1.135080
H138	H	1.774755	-0.080597	-0.635080
C139	C	1.520607	-0.442378	-1.276477
C140	C	2.020607	0.057622	-0.776477
N141	N	1.583227	-0.407179	-1.236889
N142	N	2.083227	0.092821	-0.736889
H143	H	1.317533	-0.556535	-1.310822
H144	H	1.817533	-0.056535	-0.810822
