data_functionalizedCrystal
_audit_creation_method	'MofGen! by Chris Wilmer'
_symmetry_space_group_name_H-M	'P1'
_symmetry_Int_Tables_number	1
_symmetry_cell_setting	triclinic
loop_
_symmetry_equiv_pos_as_xyz
  x,y,z
_cell_length_a	6.817900
_cell_length_b	17.982959
_cell_length_c	9.514088
_cell_angle_alpha	91.864726
_cell_angle_beta	118.843545
_cell_angle_gamma	102.451857
loop_
_atom_site_label
_atom_site_type_symbol
_atom_site_fract_x
_atom_site_fract_y
_atom_site_fract_z
V1	V	-4.212572	-0.106765	-0.501422
O2	O	-4.201534	0.003741	-0.491187
O3	O	-4.158024	-0.210360	-0.498657
O4	O	-4.247398	-0.105733	-0.719807
O5	O	-4.111541	-0.101611	-0.268506
V6	V	-4.686213	-0.093475	-0.473483
O7	O	-4.495509	-0.135917	-0.562709
O8	O	-4.853474	-0.064323	-0.412196
O9	O	-4.517555	0.010120	-0.476249
O10	O	-4.814648	-0.203981	-0.483718
O11	O	-4.904641	-0.098629	-0.706399
O12	O	-4.428181	-0.094508	-0.255098
C13	C	-3.998836	-0.235596	-0.490918
C14	C	-4.036078	-0.320290	-0.490112
C15	C	-4.238553	-0.363982	-0.497769
C16	C	-4.273540	-0.443562	-0.497022
C17	C	-4.106042	-0.479448	-0.488606
C18	C	-3.903553	-0.435750	-0.480953
C19	C	-3.868576	-0.356173	-0.481712
C20	C	-4.044607	-0.756678	-0.477894
C21	C	-4.079597	-0.836261	-0.477130
C22	C	-4.449571	-0.844067	-0.493204
C23	C	-4.414595	-0.764489	-0.493963
C24	C	-4.212116	-0.720800	-0.486318
C25	C	-4.174183	-0.634510	-0.487132
C26	C	-4.143964	-0.565735	-0.487780
C27	C	-4.112839	-0.102132	-0.773015
C28	C	-4.222556	-0.101973	-0.951550
C29	C	-4.340083	0.035351	-0.483983
C30	C	-4.282083	0.120045	-0.484799
C31	C	-4.226078	-0.098111	-0.201882
C32	C	-4.095600	-0.098266	-0.023345
H33	H	-4.438415	-0.479133	-0.503260
O34	O	-3.865877	-0.094768	-0.933877
C35	C	-3.561369	-0.154637	-0.890571
C36	C	-3.821595	-0.158699	-0.991998
H37	H	-3.525476	-0.206309	-0.937546
H38	H	-3.510725	-0.155470	-0.757707
H39	H	-3.455219	-0.099083	-0.901441
H40	H	-3.927924	-0.214245	-0.981264
H41	H	-3.872055	-0.157823	-1.124820
H42	H	-4.374945	-0.334769	-0.504607
O43	O	-4.577050	-0.729574	-0.501851
C44	C	-4.661261	-0.633510	-0.372246
C45	C	-4.477061	-0.672997	-0.363082
H46	H	-4.580477	-0.587748	-0.260084
H47	H	-4.811991	-0.678369	-0.377494
H48	H	-4.727658	-0.605145	-0.486026
H49	H	-4.410479	-0.701360	-0.249313
H50	H	-4.326466	-0.628106	-0.357923
H51	H	-4.614445	-0.879649	-0.499431
O52	O	-3.916766	-0.871135	-0.468680
C53	C	-3.650642	-0.945773	-0.318701
C54	C	-3.834956	-0.906296	-0.328055
H55	H	-3.584480	-0.974224	-0.205034
H56	H	-3.499784	-0.900903	-0.313264
H57	H	-3.731344	-0.991466	-0.430967
H58	H	-3.754465	-0.860608	-0.215818
H59	H	-3.985790	-0.951211	-0.333572
H60	H	-3.879735	-0.721114	-0.471659
O61	O	-4.452332	-0.105516	-1.040952
C62	C	-4.756851	-0.045618	-1.084438
C63	C	-4.496595	-0.041518	-0.983041
H64	H	-4.792711	0.006126	-1.037678
H65	H	-4.863140	-0.101118	-1.073501
H66	H	-4.807348	-0.044874	-1.217295
H67	H	-4.445882	-0.042232	-0.850146
H68	H	-4.390453	0.013975	-0.994116
H69	H	-3.703706	-0.320600	-0.475483
H70	H	-3.767181	-0.464976	-0.474110
