data_functionalizedCrystal
_audit_creation_method	'MofGen! by Chris Wilmer'
_symmetry_space_group_name_H-M	'P1'
_symmetry_Int_Tables_number	1
_symmetry_cell_setting	triclinic
loop_
_symmetry_equiv_pos_as_xyz
  x,y,z
_cell_length_a	10.540510
_cell_length_b	9.016244
_cell_length_c	10.723024
_cell_angle_alpha	90.001036
_cell_angle_beta	84.490590
_cell_angle_gamma	90.007604
loop_
_atom_site_label
_atom_site_type_symbol
_atom_site_fract_x
_atom_site_fract_y
_atom_site_fract_z
O1	O	1.685825	0.123345	0.175682
O2	O	1.316398	0.123346	0.192291
O3	O	1.509633	0.123340	0.002414
O4	O	1.492590	0.123351	0.365559
O5	O	1.509604	-0.123340	0.002418
O6	O	1.316370	-0.123335	0.192295
O7	O	1.685796	-0.123335	0.175687
Cu8	Cu	1.501081	-0.145859	0.183991
Cu9	Cu	1.501114	0.145870	0.183986
O10	O	1.492562	-0.123329	0.365564
C11	C	1.269081	0.000006	0.191055
C12	C	1.128133	0.000006	0.187352
C13	C	0.910610	0.000577	0.319259
C14	C	1.057203	0.000012	0.323209
C15	C	1.083393	-0.140859	0.117809
C16	C	0.936633	-0.140969	0.114822
C17	C	0.936861	0.139553	0.111988
C18	C	1.083199	0.141407	0.118432
N19	N	1.501066	-0.351045	0.183994
C20	C	1.397381	-0.586075	0.285225
C21	C	1.397611	-0.414183	0.285604
C22	C	1.633776	-0.413383	0.213602
C23	C	1.633210	-0.585327	0.214319
C24	C	1.473359	-0.585593	0.052823
C25	C	1.470314	-0.413638	0.053673
C26	C	1.733113	0.000008	0.176922
C27	C	1.874061	0.000018	0.180625
C28	C	1.508378	0.000002	-0.044084
C29	C	1.504668	0.000007	-0.182640
N30	N	1.501139	0.351056	0.183974
C31	C	1.389403	0.000015	-0.374442
C32	C	1.393236	0.000010	-0.231237
C33	C	1.493816	0.000012	0.412062
C34	C	1.497527	0.000017	0.550617
H35	H	1.114210	-0.245689	0.166109
H36	H	0.867064	-0.099870	0.371885
C37	C	1.197428	-0.126801	-0.167300
C38	C	1.268272	0.000007	-0.144313
H39	H	1.120282	-0.126803	-0.113628
H40	H	1.178459	-0.126784	-0.252121
H41	H	1.245492	-0.212816	-0.151718
H42	H	1.220210	0.086022	-0.159904
H43	H	1.287237	0.000004	-0.059472
H44	H	1.597235	0.000002	-0.247029
H45	H	1.657515	-0.625414	0.310002
H46	H	1.085567	-0.101133	0.377948
H47	H	0.913690	-0.147371	0.013210
H48	H	1.592933	0.000068	-0.407523
H49	H	1.086533	0.100994	0.377614
H50	H	1.658625	-0.370302	0.308204
C51	C	0.785444	0.222210	0.311061
C52	C	0.853941	0.136941	0.390724
H53	H	0.750447	0.306392	0.355186
H54	H	0.840863	0.253876	0.241045
H55	H	0.718552	0.164192	0.282941
H56	H	0.920839	0.194956	0.418837
H57	H	0.798518	0.105277	0.460763
H58	H	1.414999	-0.629265	0.381976
C59	C	0.981966	-0.367358	0.219767
C60	C	0.882282	-0.283103	0.178996
H61	H	0.948412	-0.455101	0.259395
H62	H	1.040116	-0.393094	0.149934
H63	H	1.024961	-0.311023	0.277639
H64	H	0.839293	-0.339433	0.121117
H65	H	0.824109	-0.257369	0.248838
H66	H	1.130833	-0.146102	0.017794
H67	H	0.894303	0.246322	0.154829
C68	C	1.246972	-0.600773	0.104296
C69	C	1.345457	-0.644180	0.014795
H70	H	1.168007	-0.636936	0.080823
H71	H	1.261924	-0.640337	0.183663
H72	H	1.244182	-0.495601	0.109085
H73	H	1.348254	-0.749352	0.010012
H74	H	1.330501	-0.604622	-0.064594
H75	H	1.111803	0.245618	0.169030
C76	C	1.338285	-0.203422	0.019252
C77	C	1.338518	-0.358645	0.023372
H78	H	1.256921	-0.169470	0.000542
H79	H	1.356346	-0.165213	0.098181
H80	H	1.401421	-0.170315	-0.043781
H81	H	1.275388	-0.391752	0.086412
H82	H	1.320443	-0.396868	-0.055568
H83	H	1.712889	-0.626912	0.143543
C84	C	1.106905	0.280259	-0.073460
C85	C	1.149542	0.152932	-0.015451
H86	H	1.147883	0.287379	-0.156108
H87	H	1.017322	0.274335	-0.076771
H88	H	1.126616	0.365417	-0.026848
H89	H	1.129823	0.067772	-0.062058
H90	H	1.239146	0.158844	-0.012146
H91	H	0.914760	0.140503	0.009987
H92	H	1.298464	-0.627468	0.267686
C93	C	1.174428	-0.409396	0.355948
C94	C	1.264477	-0.357303	0.261594
H95	H	1.092232	-0.374284	0.341134
H96	H	1.174503	-0.514741	0.355732
H97	H	1.195472	-0.374466	0.434967
H98	H	1.243439	-0.392242	0.182575
H99	H	1.264399	-0.251936	0.261797
C100	C	1.436023	-0.480220	0.495609
C101	C	1.421722	-0.358618	0.416953
H102	H	1.450921	-0.445914	0.576697
H103	H	1.360629	-0.538518	0.501169
H104	H	1.506233	-0.538685	0.462310
H105	H	1.351505	-0.300159	0.450247
H106	H	1.497124	-0.300296	0.411397
C107	C	1.654125	-0.262140	-0.003263
C108	C	1.565585	-0.355648	-0.052933
H109	H	1.712955	-0.226353	-0.069076
H110	H	1.610806	-0.180831	0.037903
H111	H	1.698676	-0.315832	0.055056
H112	H	1.521027	-0.301953	-0.111245
H113	H	1.608909	-0.436970	-0.094119
H114	H	1.712869	-0.372480	0.141869
H115	H	1.549011	-0.626247	-0.022539
H116	H	1.293997	0.000026	-0.416302
