data_functionalizedCrystal
_audit_creation_method	'MofGen! by Chris Wilmer'
_symmetry_space_group_name_H-M	'P1'
_symmetry_Int_Tables_number	1
_symmetry_cell_setting	triclinic
loop_
_symmetry_equiv_pos_as_xyz
  x,y,z
_cell_length_a	29.839134
_cell_length_b	18.050589
_cell_length_c	18.050582
_cell_angle_alpha	90.018205
_cell_angle_beta	90.024639
_cell_angle_gamma	90.023083
loop_
_atom_site_label
_atom_site_type_symbol
_atom_site_fract_x
_atom_site_fract_y
_atom_site_fract_z
Zn1	Zn	0.686773	-0.295808	0.420128
Zn2	Zn	1.186773	0.204192	0.920128
Zn3	Zn	0.686719	-0.419992	0.295947
Zn4	Zn	1.186719	0.080008	0.795947
Zn5	Zn	0.611652	-0.295809	0.295931
Zn6	Zn	1.111652	0.204191	0.795931
Zn7	Zn	0.611620	-0.419950	0.420074
Zn8	Zn	1.111620	0.080050	0.920074
O9	O	0.649191	-0.357890	0.358020
O10	O	1.149191	0.142110	0.858020
O11	O	0.749633	-0.312299	0.403684
O12	O	1.249633	0.187701	0.903684
O13	O	0.676751	-0.403536	0.192020
O14	O	1.176751	0.096464	0.692020
O15	O	0.621653	-0.191884	0.312421
O16	O	1.121653	0.308116	0.812421
O17	O	0.749593	-0.403536	0.312449
O18	O	1.249593	0.096464	0.812449
O19	O	0.676843	-0.191884	0.403668
O20	O	1.176843	0.308116	0.903668
O21	O	0.621600	-0.312300	0.192008
O22	O	1.121600	0.187700	0.692008
O23	O	0.548781	-0.312259	0.312369
O24	O	1.048781	0.187741	0.812369
O25	O	0.621599	-0.403465	0.524006
O26	O	1.121599	0.096535	1.024006
O27	O	0.548758	-0.403465	0.403577
O28	O	1.048758	0.096535	0.903577
O29	O	0.676813	-0.312258	0.524045
O30	O	1.176813	0.187742	1.024045
O31	O	0.676721	-0.523911	0.312397
O32	O	1.176721	-0.023911	0.812397
O33	O	0.621547	-0.523880	0.403593
O34	O	1.121547	-0.023880	0.903593
C35	C	0.649137	-0.550842	0.358008
C36	C	1.149137	-0.050842	0.858008
C37	C	0.649155	-0.633388	0.358027
C38	C	1.149155	-0.133388	0.858027
C39	C	0.532468	-0.357858	0.357966
C40	C	1.032468	0.142142	0.857966
C41	C	0.482534	-0.357863	0.357961
C42	C	0.982534	0.142137	0.857961
C43	C	0.619180	-0.832849	0.407602
C44	C	1.119180	-0.332849	0.907602
C45	C	0.608232	-0.882281	0.339832
C46	C	1.108232	-0.382281	0.839832
C47	C	0.649199	-0.784518	0.358037
C48	C	1.149199	-0.284518	0.858037
C49	C	0.660169	-0.882167	0.425815
C50	C	1.160169	-0.382167	0.925815
C51	C	0.649241	-0.930503	0.358052
C52	C	1.149241	-0.430503	0.858052
C53	C	0.638229	-0.832863	0.290231
C54	C	1.138229	-0.332863	0.790231
C55	C	0.690185	-0.832745	0.376260
C56	C	1.190185	-0.332745	0.876260
C57	C	0.679252	-0.882155	0.308442
C58	C	1.179252	-0.382155	0.808442
C59	C	0.649173	-0.700420	0.358029
C60	C	1.149173	-0.200420	0.858029
C61	C	0.649266	-1.014600	0.358052
C62	C	1.149266	-0.514600	0.858052
C63	C	0.172888	-0.405451	0.405454
C64	C	0.672888	0.094549	0.905454
C65	C	-0.014785	-0.405472	0.405487
C66	C	0.485215	0.094528	0.905487
O67	O	-0.039052	-0.445898	0.445835
O68	O	0.460948	0.054102	0.945835
N69	N	-0.038251	-0.357917	0.358076
N70	N	0.461749	0.142083	0.858076
C71	C	-0.014796	-0.310350	0.310657
C72	C	0.485204	0.189650	0.810657
O73	O	-0.039062	-0.269897	0.270337
O74	O	0.460938	0.230103	0.770337
C75	C	0.172876	-0.310326	0.310628
C76	C	0.672876	0.189674	0.810628
C77	C	0.196340	-0.357889	0.358037
C78	C	0.696340	0.142111	0.858037
C79	C	0.196352	-0.453010	0.452859
C80	C	0.696352	0.046990	0.952859
C81	C	0.243267	-0.453007	0.452848
C82	C	0.743267	0.046993	0.952848
C83	C	0.266719	-0.405445	0.405431
C84	C	0.766719	0.094555	0.905431
C85	C	0.243255	-0.357886	0.358025
C86	C	0.743255	0.142114	0.858025
C87	C	0.196330	-0.262756	0.263213
C88	C	0.696330	0.237244	0.763213
C89	C	0.243251	-0.262753	0.263212
C90	C	0.743251	0.237247	0.763212
C91	C	0.266715	-0.310316	0.310620
C92	C	0.766715	0.189684	0.810620
C93	C	0.313622	-0.310322	0.310597
C94	C	0.813622	0.189678	0.810597
N95	N	0.337088	-0.357877	0.358007
N96	N	0.837088	0.142123	0.858007
C97	C	0.313637	-0.405438	0.405424
C98	C	0.813637	0.094562	0.905424
C99	C	-0.113327	-0.310367	0.310674
C100	C	0.386673	0.189633	0.810674
C101	C	-0.160245	-0.310374	0.310680
C102	C	0.339755	0.189626	0.810680
C103	C	-0.160230	-0.405495	0.405511
C104	C	0.339770	0.094505	0.905511
C105	C	-0.113312	-0.405491	0.405501
C106	C	0.386688	0.094509	0.905501
C107	C	-0.089861	-0.357922	0.358085
C108	C	0.410139	0.142078	0.858085
C109	C	0.412163	-0.405429	0.405396
C110	C	0.912163	0.094571	0.905396
C111	C	0.459082	-0.405424	0.405378
C112	C	0.959082	0.094576	0.905378
C113	C	0.459064	-0.310301	0.310550
C114	C	0.959064	0.189699	0.810550
C115	C	0.412148	-0.310308	0.310565
C116	C	0.912148	0.189692	0.810565
C117	C	0.388699	-0.357875	0.357994
C118	C	0.888699	0.142125	0.857994
O119	O	0.337918	-0.269911	0.270275
O120	O	0.837918	0.230089	0.770275
O121	O	0.337910	-0.445874	0.445750
O122	O	0.837910	0.054126	0.945750
C123	C	0.125973	-0.405454	0.405465
C124	C	0.625973	0.094546	0.905465
C125	C	0.102509	-0.357895	0.358060
C126	C	0.602509	0.142105	0.858060
C127	C	0.125961	-0.310333	0.310643
C128	C	0.625961	0.189667	0.810643
C129	C	0.055591	-0.357902	0.358066
C130	C	0.555591	0.142098	0.858066
C131	C	0.032139	-0.405463	0.405483
C132	C	0.532139	0.094537	0.905483
C133	C	0.055605	-0.453018	0.452894
C134	C	0.555605	0.046982	0.952894
C135	C	0.102521	-0.453015	0.452882
C136	C	0.602521	0.046985	0.952882
C137	C	0.102495	-0.262778	0.263232
C138	C	0.602495	0.237222	0.763232
C139	C	0.055579	-0.262786	0.263247
C140	C	0.555579	0.237214	0.763247
C141	C	0.032127	-0.310347	0.310664
C142	C	0.532127	0.189653	0.810664
C143	C	0.766369	-0.357922	0.358074
C144	C	1.266369	0.142078	0.858074
C145	C	0.816304	-0.357936	0.358097
C146	C	1.316304	0.142064	0.858097
C147	C	0.649209	-0.357857	0.551726
C148	C	1.149209	0.142143	1.051726
C149	C	0.649216	-0.357843	0.634271
C150	C	1.149216	0.142157	1.134271
C151	C	0.649258	-0.164184	0.358049
C152	C	1.149258	0.335816	0.858049
C153	C	0.649286	-0.081638	0.358061
C154	C	1.149286	0.418362	0.858061
C155	C	0.649199	-0.357869	0.165068
C156	C	1.149199	0.142131	0.665068
C157	C	0.649279	-0.357674	0.082522
C158	C	1.149279	0.142326	0.582522
C159	C	0.619214	-0.407373	0.833701
C160	C	1.119214	0.092627	1.333701
C161	C	0.660201	-0.425533	0.883105
C162	C	1.160201	0.074467	1.383105
C163	C	0.649238	-0.357786	0.785402
C164	C	1.149238	0.142214	1.285402
C165	C	0.608274	-0.339606	0.883079
C166	C	1.108274	0.160394	1.383079
C167	C	0.649256	-0.357733	0.931387
C168	C	1.149256	0.142267	1.431387
C169	C	0.690247	-0.375981	0.833719
C170	C	1.190247	0.124019	1.333719
C171	C	0.638292	-0.290023	0.833689
C172	C	1.138292	0.209977	1.333689
C173	C	0.679307	-0.308157	0.883071
C174	C	1.179307	0.191843	1.383071
C175	C	0.649227	-0.357819	0.701304
C176	C	1.149227	0.142181	1.201304
C177	C	0.649271	-0.357700	1.015484
C178	C	1.149271	0.142300	1.515484
H179	H	0.593757	-0.811198	0.449459
H180	H	1.093757	-0.311198	0.949459
H181	H	0.724818	-0.810972	0.391691
H182	H	1.224818	-0.310972	0.891691
H183	H	0.478184	-0.444159	0.443984
H184	H	0.978184	0.055841	0.943984
Br185	Br	0.550492	-0.918543	0.314142
Br186	Br	1.050492	-0.418543	0.814142
Br187	Br	0.721686	-0.238225	0.918978
Br188	Br	1.221686	0.261775	1.418978
Br189	Br	0.721596	-0.918013	0.238515
Br190	Br	1.221596	-0.418013	0.738515
Br191	Br	0.622823	-0.194573	0.797481
Br192	Br	1.122823	0.305427	1.297481
H193	H	0.121584	-0.224047	0.224619
H194	H	0.621584	0.275953	0.724619
Br195	Br	0.550521	-0.314013	0.919222
Br196	Br	1.050521	0.185987	1.419222
Br197	Br	0.275103	-0.517557	0.517195
Br198	Br	0.775103	-0.017557	1.017195
Br199	Br	0.622728	-0.796922	0.194676
Br200	Br	1.122728	-0.296922	0.694676
Br201	Br	0.275075	-0.198188	0.198860
Br202	Br	0.775075	0.301812	0.698860
Br203	Br	0.675605	-0.918270	0.521338
Br204	Br	1.175605	-0.418270	1.021338
Br205	Br	0.380346	-0.469984	0.469765
Br206	Br	0.880346	0.030016	0.969765
H207	H	-0.179345	-0.271651	0.272068
H208	H	0.320655	0.228349	0.772068
H209	H	0.177262	-0.491740	0.491476
H210	H	0.677262	0.008260	0.991476
H211	H	0.593847	-0.449362	0.812025
H212	H	1.093847	0.050638	1.312025
Br213	Br	0.023741	-0.198233	0.198897
Br214	Br	0.523741	0.301767	0.698897
Br215	Br	-0.081473	-0.470043	0.469843
Br216	Br	0.418527	0.029957	0.969843
Br217	Br	-0.192067	-0.470038	0.469867
Br218	Br	0.307933	0.029962	0.969867
H219	H	0.478167	-0.271580	0.271942
H220	H	0.978167	0.228420	0.771942
H221	H	0.724908	-0.391401	0.812127
H222	H	1.224908	0.108599	1.312127
H223	H	0.393043	-0.271580	0.271959
H224	H	0.893043	0.228420	0.771959
Br225	Br	0.134357	-0.517570	0.517226
Br226	Br	0.634357	-0.017570	1.017226
Br227	Br	0.164499	-0.198197	0.198873
Br228	Br	0.664499	0.301803	0.698873
Br229	Br	-0.081507	-0.245801	0.246319
Br230	Br	0.418493	0.254199	0.746319
H231	H	0.036503	-0.491747	0.491500
H232	H	0.536503	0.008253	0.991500
Br233	Br	0.675652	-0.521007	0.919284
Br234	Br	1.175652	-0.021007	1.419284
