data_functionalizedCrystal
_audit_creation_method	'MofGen! by Chris Wilmer'
_symmetry_space_group_name_H-M	'P1'
_symmetry_Int_Tables_number	1
_symmetry_cell_setting	triclinic
loop_
_symmetry_equiv_pos_as_xyz
  x,y,z
_cell_length_a	17.699083
_cell_length_b	13.596369
_cell_length_c	17.699083
_cell_angle_alpha	90.006879
_cell_angle_beta	83.283015
_cell_angle_gamma	89.999299
loop_
_atom_site_label
_atom_site_type_symbol
_atom_site_fract_x
_atom_site_fract_y
_atom_site_fract_z
O1	O	1.004077	0.081655	0.095712
O2	O	1.504077	0.581655	0.595712
O3	O	0.783698	0.081688	0.108165
O4	O	1.283698	0.581688	0.608165
O5	O	0.900114	0.081662	-0.008250
O6	O	1.400114	0.581662	0.491750
O7	O	0.887661	0.081681	0.212128
O8	O	1.387661	0.581681	0.712128
O9	O	0.900102	-0.081921	-0.008257
O10	O	1.400102	0.418079	0.491743
O11	O	0.783687	-0.081895	0.108159
O12	O	1.283687	0.418105	0.608159
O13	O	1.004065	-0.081927	0.095706
O14	O	1.504065	0.418073	0.595706
Zn15	Zn	0.893874	-0.107884	0.101932
Zn16	Zn	1.393874	0.392116	0.601932
Zn17	Zn	0.893889	0.107644	0.101940
Zn18	Zn	1.393889	0.607644	0.601940
O19	O	0.887650	-0.081902	0.212122
O20	O	1.387650	0.418098	0.712122
C21	C	0.755495	-0.000099	0.107716
C22	C	1.255495	0.499901	0.607716
C23	C	0.671477	-0.000087	0.106377
C24	C	1.171477	0.499913	0.606377
N25	N	0.893869	-0.254975	0.101926
N26	N	1.393869	0.245025	0.601926
C27	C	0.622856	-0.000082	0.174710
C28	C	1.122856	0.499918	0.674710
C29	C	0.543913	-0.000095	0.173448
C30	C	1.043913	0.499905	0.673448
C31	C	0.513592	-0.000106	0.103852
C32	C	1.013592	0.499894	0.603852
C33	C	0.562219	-0.000115	0.035513
C34	C	1.062219	0.499885	0.535513
C35	C	0.641161	-0.000109	0.036776
C36	C	1.141161	0.499891	0.536776
C37	C	0.243856	-0.000139	0.030418
C38	C	0.743856	0.499861	0.530418
C39	C	0.164908	-0.000142	0.029160
C40	C	0.664908	0.499858	0.529160
C41	C	0.146608	-0.000125	0.167090
C42	C	0.646608	0.499875	0.667090
C43	C	0.225550	-0.000119	0.168353
C44	C	0.725550	0.499881	0.668353
C45	C	0.274170	-0.000133	0.100015
C46	C	0.774170	0.499867	0.600015
C47	C	0.359769	-0.000121	0.101384
C48	C	0.859769	0.499879	0.601384
C49	C	0.427995	-0.000111	0.102481
C50	C	0.927995	0.499889	0.602481
C51	C	0.893888	-0.656266	0.101940
C52	C	1.393888	-0.156266	0.601940
C53	C	0.893881	-0.544615	0.101939
C54	C	1.393881	-0.044615	0.601939
C55	C	0.893879	-0.455624	0.101934
C56	C	1.393879	0.044376	0.601934
C57	C	0.893871	-0.343966	0.101931
C58	C	1.393871	0.156034	0.601931
C59	C	1.032268	-0.000138	0.096156
C60	C	1.532268	0.499862	0.596156
C61	C	1.116286	-0.000144	0.097494
C62	C	1.616286	0.499856	0.597494
C63	C	0.899662	-0.000129	-0.036451
C64	C	1.399662	0.499871	0.463549
C65	C	0.898323	-0.000130	-0.120469
C66	C	1.398323	0.499870	0.379531
N67	N	0.893900	0.254736	0.101940
N68	N	1.393900	0.754736	0.601940
C69	C	0.966656	-0.000141	-0.169090
C70	C	1.466656	0.499859	0.330910
C71	C	0.965394	-0.000132	-0.248033
C72	C	1.465394	0.499868	0.251967
C73	C	0.895798	-0.000119	-0.278354
C74	C	1.395798	0.499881	0.221646
C75	C	0.827459	-0.000104	-0.229727
C76	C	1.327459	0.499896	0.270273
C77	C	0.828722	-0.000106	-0.150785
C78	C	1.328722	0.499894	0.349215
C79	C	0.822364	-0.000096	-0.548090
C80	C	1.322364	0.499904	-0.048090
C81	C	0.821106	-0.000097	-0.627038
C82	C	1.321106	0.499903	-0.127038
C83	C	0.959036	-0.000122	-0.645338
C84	C	1.459036	0.499878	-0.145338
C85	C	0.960299	-0.000123	-0.566396
C86	C	1.460299	0.499877	-0.066396
C87	C	0.891961	-0.000104	-0.517776
C88	C	1.391961	0.499896	-0.017776
C89	C	0.893330	-0.000112	-0.432177
C90	C	1.393330	0.499888	0.067823
C91	C	0.894427	-0.000118	-0.363951
C92	C	1.394427	0.499882	0.136049
C93	C	0.888102	-0.000108	0.240322
C94	C	1.388102	0.499892	0.740322
C95	C	0.889440	-0.000101	0.324340
C96	C	1.389440	0.499899	0.824340
H97	H	0.647537	-0.000072	0.231384
H98	H	1.147537	0.499928	0.731384
H99	H	0.537526	-0.000138	-0.021154
H100	H	1.037526	0.499862	0.478846
N101	N	0.132203	-0.000156	-0.045908
N102	N	0.632203	0.499844	0.454092
H103	H	0.174981	-0.000166	-0.089009
H104	H	0.674981	0.499834	0.410991
H105	H	0.099848	-0.060799	-0.049431
H106	H	0.599848	0.439201	0.450569
H107	H	0.250232	-0.000105	0.225025
H108	H	0.750232	0.499895	0.725025
H109	H	0.107012	-0.000119	0.222734
H110	H	0.607012	0.499881	0.722734
N111	N	0.746040	-0.000070	-0.659748
N112	N	1.246040	0.499930	-0.159748
H113	H	0.742437	-0.060711	-0.692096
H114	H	1.242437	0.439289	-0.192096
H115	H	0.702981	-0.000017	-0.616930
H116	H	1.202981	0.499983	-0.116930
N117	N	0.752390	-0.000089	-0.262421
N118	N	1.252390	0.499911	0.237579
H119	H	0.748795	0.060550	-0.294762
H120	H	1.248795	0.560550	0.205238
H121	H	0.748832	-0.060771	-0.294731
H122	H	1.248832	0.439229	0.205269
H123	H	1.021038	-0.000144	-0.287618
H124	H	1.521038	0.499856	0.212382
N125	N	0.693606	-0.000122	-0.036926
N126	N	1.193606	0.499878	0.463074
H127	H	0.662421	-0.000130	-0.081207
H128	H	1.162421	0.499870	0.418793
H129	H	0.726758	0.060519	-0.039407
H130	H	1.226758	0.560519	0.460593
H131	H	0.283434	-0.000151	-0.025228
H132	H	0.783434	0.499849	0.474772
H133	H	1.023330	-0.000158	-0.144409
H134	H	1.523330	0.499842	0.355591
N135	N	1.032749	-0.000127	-0.697775
N136	N	1.532749	0.499873	-0.197775
H137	H	1.063111	-0.060775	-0.688043
H138	H	1.563111	0.439225	-0.188043
H139	H	1.021333	-0.000082	-0.752365
H140	H	1.521333	0.499918	-0.252365
H141	H	1.016971	-0.000139	-0.541714
H142	H	1.516971	0.499861	-0.041714
H143	H	0.766718	-0.000080	-0.508512
H144	H	1.266718	0.499920	-0.008512
H145	H	0.773078	-0.000097	-0.111198
H146	H	1.273078	0.499903	0.388802
H147	H	0.504328	-0.000089	0.229092
H148	H	1.004328	0.499911	0.729092
