data_functionalizedCrystal
_audit_creation_method	'MofGen! by Chris Wilmer'
_symmetry_space_group_name_H-M	'P1'
_symmetry_Int_Tables_number	1
_symmetry_cell_setting	triclinic
loop_
_symmetry_equiv_pos_as_xyz
  x,y,z
_cell_length_a	19.377625
_cell_length_b	20.875492
_cell_length_c	20.875641
_cell_angle_alpha	60.662107
_cell_angle_beta	75.531195
_cell_angle_gamma	50.209307
loop_
_atom_site_label
_atom_site_type_symbol
_atom_site_fract_x
_atom_site_fract_y
_atom_site_fract_z
Zr1	Zr	0.655904	0.720127	-0.264506
O2	O	0.537517	0.855177	-0.343531
O3	O	0.697677	0.581122	-0.236606
O4	O	0.695645	0.711818	-0.371800
O5	O	0.534915	0.732414	-0.105874
O6	O	0.814144	0.709762	-0.398278
O7	O	0.539549	0.724481	-0.208338
O8	O	0.817779	0.475971	-0.156442
O9	O	0.531281	0.966205	-0.347710
O10	O	0.797305	0.638227	-0.248906
O11	O	0.705413	0.645682	-0.152679
O12	O	0.703021	0.799559	-0.311851
O13	O	0.611129	0.807014	-0.215624
Zr14	Zr	0.837506	0.729500	-0.143317
Zr15	Zr	0.844896	0.716848	-0.306735
Zr16	Zr	0.648514	0.732779	-0.101088
Zr17	Zr	0.645958	0.897204	-0.271171
Zr18	Zr	0.847452	0.552423	-0.136652
O19	O	0.795733	0.868504	-0.171216
O20	O	0.806239	0.850515	-0.403575
O21	O	0.527010	0.873166	-0.111172
O22	O	0.955893	0.594449	-0.064292
O23	O	0.966400	0.576460	-0.296651
O24	O	0.687171	0.599112	-0.004247
O25	O	0.958495	0.717213	-0.301949
O26	O	0.797765	0.737808	-0.036023
O27	O	0.679266	0.739864	-0.009545
O28	O	0.953861	0.725145	-0.199485
O29	O	0.681505	0.963599	-0.381277
O30	O	0.811905	0.486028	-0.026546
O31	O	0.962129	0.483421	-0.060113
O32	O	0.968002	0.473365	-0.190008
O33	O	0.525408	0.976262	-0.217815
O34	O	0.675631	0.973655	-0.251381
O35	O	0.790389	0.650067	-0.095971
O36	O	0.882281	0.642613	-0.192199
O37	O	0.787997	0.803945	-0.255144
O38	O	0.696105	0.811399	-0.158916
C39	C	0.759145	0.503317	-0.195574
C40	C	0.763367	0.428143	-0.192745
C41	C	0.699182	0.450776	-0.235591
C42	C	0.703152	0.380153	-0.232960
C43	C	0.771304	0.286899	-0.187479
C44	C	0.835495	0.264267	-0.144631
C45	C	0.831528	0.334889	-0.147266
C46	C	0.790267	0.069472	-0.174865
C47	C	0.794228	-0.001150	-0.172232
C48	C	0.661885	0.114742	-0.260563
C49	C	0.657921	0.185360	-0.263190
C50	C	0.722115	0.162722	-0.220345
N51	N	0.775362	0.214710	-0.184787
N52	N	0.718060	0.234910	-0.223042
C53	C	0.510305	0.728915	-0.151089
C54	C	0.430073	0.730307	-0.133162
C55	C	0.178954	0.713000	-0.356397
C56	C	0.103567	0.714302	-0.339528
C57	C	0.098483	0.723042	-0.226639
C58	C	0.173868	0.721745	-0.243500
C59	C	0.214098	0.716722	-0.308380
C60	C	0.209013	0.725468	-0.195483
C61	C	0.284395	0.724166	-0.212342
C62	C	0.324632	0.719141	-0.277217
C63	C	0.289480	0.715421	-0.325238
C64	C	0.168785	0.730483	-0.130602
C65	C	0.203930	0.734206	-0.082585
C66	C	0.279309	0.732911	-0.099445
C67	C	0.319546	0.727886	-0.164320
C68	C	0.314461	0.736631	-0.051424
C69	C	0.389842	0.735329	-0.068282
C70	C	0.394928	0.726584	-0.181179
C71	C	0.983105	0.720712	-0.256734
C72	C	1.063337	0.719320	-0.274661
C73	C	0.755948	0.708988	-0.408322
C74	C	0.759085	0.703617	-0.477697
C75	C	0.734265	0.946309	-0.212248
C76	C	0.730043	1.021483	-0.215078
C77	C	0.711345	0.785305	-0.543147
C78	C	0.714304	0.780253	-0.608332
C79	C	0.764998	0.693511	-0.608064
C80	C	0.812744	0.611817	-0.542608
C81	C	0.809789	0.616870	-0.477426
C82	C	0.779117	0.669368	-0.799487
C83	C	0.782065	0.664321	-0.864676
C84	C	0.683626	0.832758	-0.930395
C85	C	0.680672	0.837803	-0.865208
C86	C	0.728421	0.756109	-0.799758
N87	N	0.768022	0.688345	-0.674693
N88	N	0.725402	0.761276	-0.733133
C89	C	0.737462	0.740639	0.000499
C90	C	0.734325	0.746010	0.069874
C91	C	0.995545	0.499216	-0.248397
C92	C	1.079999	0.422650	-0.263495
C93	C	0.749902	0.519143	0.008836
C94	C	0.750987	0.449340	0.081041
C95	C	0.986302	0.515041	-0.043986
C96	C	1.067620	0.443846	0.010291
C97	C	0.507108	0.934585	-0.363837
C98	C	0.425790	1.005780	-0.418114
C99	C	0.497865	0.950411	-0.159426
C100	C	0.413411	1.026977	-0.144328
C101	C	0.743508	0.930484	-0.416659
C102	C	0.742423	1.000287	-0.488864
C103	C	1.075303	0.384404	-0.300192
C104	C	1.154650	0.312471	-0.314392
C105	C	1.238691	0.278781	-0.291890
C106	C	1.243385	0.317034	-0.255191
C107	C	1.164040	0.388970	-0.240996
C108	C	0.795853	0.418850	0.144557
C109	C	0.796869	0.353273	0.212407
C110	C	0.753023	0.318183	0.216740
C111	C	0.708151	0.348680	0.153217
C112	C	0.707130	0.414260	0.085369
C113	C	1.153782	0.406521	-0.014451
C114	C	1.230195	0.339635	0.036540
C115	C	1.220444	0.310071	0.112273
C116	C	1.134273	0.347403	0.137016
C117	C	1.057861	0.414293	0.086025
C118	C	0.339628	1.043114	-0.393372
C119	C	0.263214	1.110022	-0.444364
C120	C	0.272964	1.139590	-0.520097
C121	C	0.359135	1.102253	-0.544840
C122	C	0.435548	1.035351	-0.493848
C123	C	0.418107	1.065229	-0.107638
C124	C	0.338760	1.137181	-0.093456
C125	C	0.254718	1.170873	-0.115961
C126	C	0.250024	1.132617	-0.152657
C127	C	0.329370	1.060672	-0.166842
C128	C	0.786278	1.035356	-0.493173
C129	C	0.785276	1.100934	-0.561014
C130	C	0.740413	1.131446	-0.624544
C131	C	0.696557	1.096370	-0.620233
C132	C	0.697565	1.030788	-0.552394
H133	H	0.602438	0.261288	-0.300240
H134	H	0.367064	1.126336	-0.606507
Cl135	Cl	0.912225	0.306433	-0.093403
Cl136	Cl	0.445497	0.720284	-0.262749
H137	H	0.210737	1.194066	-0.561610
Cl138	Cl	0.853287	0.314945	0.292252
H139	H	0.822811	1.010524	-0.441451
Cl140	Cl	0.870962	0.041004	-0.120995
Cl141	Cl	0.640151	1.134747	-0.700105
H142	H	0.670598	0.439076	0.033655
H143	H	0.848664	0.550351	-0.424135
H144	H	1.282671	0.255605	0.153785
Cl145	Cl	0.949547	0.461202	0.117143
Cl146	Cl	0.642416	0.986718	-0.546987
H147	H	0.849727	-0.077085	-0.135192
H148	H	0.505703	1.004954	-0.514003
Cl149	Cl	0.523749	1.022893	-0.079342
Cl150	Cl	1.338513	0.292713	0.005419
Cl151	Cl	0.059392	0.709618	-0.399901
Cl152	Cl	0.616898	0.946855	-0.865541
H153	H	0.670058	0.855940	-0.543371
Cl154	Cl	0.327346	1.005957	-0.298167
Cl155	Cl	0.613498	0.568008	-0.292768
Cl156	Cl	0.623604	0.935452	-1.012676
Cl157	Cl	0.622456	0.408613	-0.286824
H158	H	0.739599	1.184848	-0.679779
H159	H	0.211705	0.708920	-0.409232
Cl160	Cl	0.154895	1.156942	-0.413243
Cl161	Cl	0.344682	1.185255	-0.047321
H162	H	0.190117	1.229456	-0.104406
H163	H	0.890989	0.188332	-0.107603
H164	H	1.126347	0.323322	0.198684
Cl165	Cl	1.148728	0.264392	-0.360524
Cl166	Cl	0.845801	0.555267	-0.864337
Cl167	Cl	0.144364	1.174980	-0.180941
H168	H	0.386015	0.718077	-0.290940
H169	H	0.609624	0.133164	-0.295446
H170	H	1.006879	0.411833	-0.318529
Cl171	Cl	1.166063	0.443680	-0.109656
H172	H	0.325534	1.029528	-0.196716
H173	H	0.817998	0.602847	-0.746204
Cl174	Cl	0.840408	1.145022	-0.566416
Cl175	Cl	0.340050	0.709121	-0.406809
H176	H	0.065721	0.727127	-0.173813
H177	H	0.854025	0.541190	-0.542397
H178	H	0.107407	0.731538	-0.116877
H179	H	0.171168	0.738292	-0.029758
H180	H	0.281701	0.740711	0.001404
Cl181	Cl	0.654283	0.882952	-0.690610
Cl182	Cl	0.754316	0.235736	0.302041
H183	H	1.303293	0.220205	-0.303452
Cl184	Cl	0.434028	0.740005	-0.007914
H185	H	1.311823	0.289593	-0.236872
H186	H	1.167876	0.420101	-0.211110
H187	H	0.672453	0.320099	0.156756
Cl188	Cl	0.850984	0.462947	0.139129
