data_functionalizedCrystal
_audit_creation_method	'MofGen! by Chris Wilmer'
_symmetry_space_group_name_H-M	'P1'
_symmetry_Int_Tables_number	1
_symmetry_cell_setting	triclinic
loop_
_symmetry_equiv_pos_as_xyz
  x,y,z
_cell_length_a	10.723024
_cell_length_b	17.699083
_cell_length_c	16.176319
_cell_angle_alpha	90.007696
_cell_angle_beta	90.007092
_cell_angle_gamma	83.875442
loop_
_atom_site_label
_atom_site_type_symbol
_atom_site_fract_x
_atom_site_fract_y
_atom_site_fract_z
O1	O	-1.655373	-0.106155	-0.068743
O2	O	-1.292047	-0.116315	-0.068746
O3	O	-1.483975	-0.001110	-0.068737
O4	O	-1.463445	-0.221359	-0.068752
O5	O	-1.483949	-0.001103	0.068756
O6	O	-1.292020	-0.116308	0.068747
O7	O	-1.655347	-0.106147	0.068750
Cu8	Cu	-1.473681	-0.111227	0.081303
Cu9	Cu	-1.473712	-0.111236	-0.081299
O10	O	-1.463419	-0.221352	0.068741
C11	C	-1.245547	-0.115572	0.000000
C12	C	-1.107030	-0.113360	-0.000001
C13	C	-1.701847	-0.106890	0.000002
C14	C	-1.840363	-0.109102	-0.000002
C15	C	-1.483226	0.027095	0.000010
C16	C	-1.481019	0.111127	0.000010
C17	C	-1.030942	-0.177822	-0.000006
C18	C	-0.887778	-0.175537	-0.000006
C19	C	-1.464168	-0.249557	-0.000007
C20	C	-1.466374	-0.333589	-0.000013
N21	N	-1.473668	-0.111220	0.195668
C22	C	-1.593677	0.159037	0.000012
C23	C	-1.591596	0.237994	0.000005
C24	C	-1.476856	0.269038	0.000001
C25	C	-1.364189	0.221122	-0.000003
C26	C	-1.366272	0.142167	-0.000002
C27	C	-1.355789	0.539538	-0.000010
C28	C	-1.353715	0.618499	-0.000009
C29	C	-1.581113	0.635365	-0.000004
C30	C	-1.583196	0.556410	-0.000002
C31	C	-1.470530	0.508500	-0.000011
C32	C	-1.472788	0.422887	-0.000005
C33	C	-1.474597	0.354650	0.000001
N34	N	-1.473735	-0.111236	-0.195664
C35	C	-1.558680	-0.060228	0.238936
C36	C	-1.558686	-0.060228	0.325483
C37	C	-1.473686	-0.111223	0.368761
C38	C	-1.388666	-0.162217	0.325487
C39	C	-1.388654	-0.162213	0.238941
C40	C	-1.388708	-0.162231	0.674515
C41	C	-1.388729	-0.162232	0.761066
C42	C	-1.558740	-0.060246	0.761057
C43	C	-1.558729	-0.060242	0.674512
C44	C	-1.473705	-0.111233	0.631245
C45	C	-1.473697	-0.111232	0.537401
C46	C	-1.473699	-0.111228	0.462603
H47	H	-1.071789	-0.234703	-0.000005
Cl48	Cl	-1.043978	-0.025536	0.000011
H49	H	-1.319428	-0.203735	0.203713
Cl50	Cl	-1.737930	0.120018	0.000025
H51	H	-1.319507	-0.203760	0.796301
H52	H	-0.905735	-0.053914	-0.000004
Cl53	Cl	-0.786844	-0.260744	-0.000019
H54	H	-1.627948	-0.018720	0.639278
H55	H	-1.672851	0.674383	-0.000001
H56	H	-1.676629	0.531138	0.000005
Cl57	Cl	-1.281801	-0.226322	0.379891
Cl58	Cl	-1.733230	0.298221	0.000010
Cl59	Cl	-1.209459	0.657525	-0.000015
H60	H	-1.627968	-0.018724	0.796294
H61	H	-1.319481	-0.203751	0.639294
H62	H	-1.270766	0.246404	-0.000012
Cl63	Cl	-1.214151	0.479319	-0.000024
Cl64	Cl	-1.224639	0.081936	-0.000008
H65	H	-1.627902	-0.018706	0.203705
H66	H	-1.627908	-0.018706	0.360712
