data_functionalizedCrystal
_audit_creation_method	'MofGen! by Chris Wilmer'
_symmetry_space_group_name_H-M	'P1'
_symmetry_Int_Tables_number	1
_symmetry_cell_setting	triclinic
loop_
_symmetry_equiv_pos_as_xyz
  x,y,z
_cell_length_a	26.455835
_cell_length_b	26.455273
_cell_length_c	26.451828
_cell_angle_alpha	60.005170
_cell_angle_beta	60.010757
_cell_angle_gamma	59.993435
loop_
_atom_site_label
_atom_site_type_symbol
_atom_site_fract_x
_atom_site_fract_y
_atom_site_fract_z
O1	O	0.069940	-0.738516	0.617604
O2	O	0.569940	-0.238516	1.117604
O3	O	0.026299	-0.574986	0.497618
O4	O	0.526299	-0.074986	0.997618
O5	O	0.129847	-0.678463	0.497546
O6	O	0.629847	-0.178463	0.997546
O7	O	-0.033607	-0.635040	0.617676
O8	O	0.466393	-0.135040	1.117676
O9	O	0.164197	-0.644116	0.531822
O10	O	0.664197	-0.144116	1.031822
O11	O	0.060649	-0.540639	0.531894
O12	O	0.560649	-0.040639	1.031894
O13	O	0.104290	-0.704170	0.651880
O14	O	0.604290	-0.204170	1.151880
Cu15	Cu	0.085606	-0.619268	0.595016
Cu16	Cu	0.585606	-0.119268	1.095016
Cu17	Cu	0.044984	-0.659887	0.554481
Cu18	Cu	0.544984	-0.159887	1.054481
O19	O	0.000742	-0.600693	0.651952
O20	O	0.500742	-0.100693	1.151952
N21	N	0.114179	-0.590703	0.623530
N22	N	0.614179	-0.090703	1.123530
N23	N	0.016416	-0.688458	0.525968
N24	N	0.516416	-0.188458	1.025968
C25	C	0.157553	-0.547535	0.933368
C26	C	0.657553	-0.047535	1.433368
C27	C	0.424104	-0.547506	0.666656
C28	C	0.924104	-0.047506	1.166656
C29	C	0.157413	-0.547503	0.666729
C30	C	0.657413	-0.047503	1.166729
C31	C	0.157397	-0.280846	0.666749
C32	C	0.657397	0.219154	1.166749
C33	C	0.200330	-0.409550	0.709625
C34	C	0.700330	0.090450	1.209625
C35	C	0.200339	-0.504608	0.709615
C36	C	0.700339	-0.004608	1.209615
C37	C	0.224118	-0.480848	0.733375
C38	C	0.724118	0.019152	1.233375
C39	C	0.327800	-0.462984	0.678792
C40	C	0.827800	0.037016	1.178792
C41	C	0.392611	-0.484588	0.657175
C42	C	0.892611	0.015412	1.157175
C43	C	0.392630	-0.589450	0.697162
C44	C	0.892630	-0.089450	1.197162
C45	C	0.327821	-0.567844	0.718781
C46	C	0.827821	-0.067844	1.218781
C47	C	0.215955	-0.377135	0.645910
C48	C	0.715955	0.122865	1.145910
C49	C	0.194327	-0.312320	0.624323
C50	C	0.694327	0.187680	1.124323
C51	C	0.141457	-0.312339	0.730169
C52	C	0.641457	0.187661	1.230169
C53	C	0.163084	-0.377154	0.751756
C54	C	0.663084	0.122846	1.251756
C55	C	0.136618	-0.488954	0.725292
C56	C	0.636618	0.011046	1.225292
C57	C	0.115007	-0.510553	0.703686
C58	C	0.615007	-0.010553	1.203686
C59	C	0.220833	-0.563461	0.650740
C60	C	0.720833	-0.063461	1.150740
C61	C	0.242447	-0.541861	0.672339
C62	C	0.742447	-0.041861	1.172339
C63	C	0.136680	-0.488971	0.837094
C64	C	0.636680	0.011029	1.337094
C65	C	0.115112	-0.510589	0.901907
C66	C	0.615112	-0.010589	1.401907
C67	C	0.220969	-0.563508	0.901868
C68	C	0.720969	-0.063508	1.401868
C69	C	0.242535	-0.541892	0.837053
C70	C	0.742535	-0.041892	1.337053
C71	C	0.200389	-0.504622	0.804668
C72	C	0.700389	-0.004622	1.304668
C73	C	0.295409	-0.504610	0.709593
C74	C	0.795409	-0.004610	1.209593
C75	C	0.132990	-0.570876	1.004655
C76	C	0.632990	-0.070876	1.504655
C77	C	0.495389	-0.570440	0.642547
C78	C	0.995389	-0.070440	1.142547
C79	C	0.132802	-0.570856	0.643399
C80	C	0.632802	-0.070856	1.143399
C81	C	0.133212	-0.209553	0.643833
C82	C	0.633212	0.290447	1.143833
C83	C	-0.097217	-0.706972	0.506986
C84	C	0.402783	-0.206972	1.006986
C85	C	-0.002040	-0.707108	0.412067
C86	C	0.497960	-0.207108	0.912067
C87	C	-0.002230	-0.802124	0.507163
C88	C	0.497770	-0.302124	1.007163
C89	C	-0.002214	-0.707101	0.507221
C90	C	0.497786	-0.207101	1.007221
C91	C	-0.025925	-0.730827	0.483360
C92	C	0.474075	-0.230827	0.983360
N93	N	0.553723	-0.590712	0.623415
N94	N	1.053723	-0.090712	1.123415
O95	O	0.751638	-0.596429	0.475603
O96	O	1.251638	-0.096429	0.975603
O97	O	0.751819	-0.716773	0.638980
O98	O	1.251819	-0.216773	1.138980
O99	O	0.751753	-0.716500	0.535361
O100	O	1.251753	-0.216500	1.035361
O101	O	0.751705	-0.596703	0.579222
O102	O	1.251705	-0.096703	1.079222
O103	O	0.648791	-0.682239	0.569747
O104	O	1.148791	-0.182239	1.069747
O105	O	0.648858	-0.682512	0.673366
O106	O	1.148858	-0.182512	1.173366
O107	O	0.648676	-0.562169	0.509989
O108	O	1.148676	-0.062169	1.009989
Cu109	Cu	0.639366	-0.619212	0.594817
Cu110	Cu	1.139366	-0.119212	1.094817
Cu111	Cu	0.761130	-0.659729	0.554152
Cu112	Cu	1.261130	-0.159729	1.054152
O113	O	0.648743	-0.562442	0.613609
O114	O	1.148743	-0.062442	1.113609
N115	N	0.846773	-0.688230	0.525548
N116	N	1.346773	-0.188230	1.025548
N117	N	0.114157	-0.151217	0.623565
N118	N	0.614157	0.348783	1.123565
O119	O	-0.033591	0.046803	0.617717
O120	O	0.466409	0.546803	1.117717
O121	O	0.129795	0.046806	0.497390
O122	O	0.629795	0.546806	0.997390
O123	O	0.026157	0.046789	0.497680
O124	O	0.526157	0.546789	0.997680
O125	O	0.070046	0.046819	0.617427
O126	O	0.570046	0.546819	1.117427
O127	O	0.060509	-0.056181	0.532004
O128	O	0.560509	0.443819	1.032004
O129	O	0.164146	-0.056164	0.531714
O130	O	0.664146	0.443836	1.031714
O131	O	0.000760	-0.056167	0.652041
O132	O	0.500760	0.443833	1.152041
Cu133	Cu	0.085590	-0.065568	0.595012
Cu134	Cu	0.585590	0.434432	1.095012
Cu135	Cu	0.044965	0.056206	0.554419
Cu136	Cu	0.544965	0.556206	1.054419
O137	O	0.104397	-0.056151	0.651751
O138	O	0.604397	0.443849	1.151751
N139	N	0.016390	0.141855	0.525867
N140	N	0.516390	0.641855	1.025867
N141	N	0.114410	-0.590756	1.062992
N142	N	0.614410	-0.090756	1.562992
O143	O	0.108565	-0.738494	1.260998
O144	O	0.608565	-0.238494	1.760998
O145	O	-0.011747	-0.575059	1.261012
O146	O	0.488253	-0.075059	1.761012
O147	O	-0.011470	-0.678679	1.260970
O148	O	0.488530	-0.178679	1.760970
O149	O	0.108287	-0.634874	1.261040
O150	O	0.608287	-0.134874	1.761040
O151	O	0.022849	-0.644347	1.158004
O152	O	0.522849	-0.144347	1.658004
O153	O	0.022572	-0.540726	1.158046
O154	O	0.522572	-0.040726	1.658046
O155	O	0.142884	-0.704162	1.158033
O156	O	0.642884	-0.204162	1.658033
Cu157	Cu	0.085861	-0.619309	1.148638
Cu158	Cu	0.585861	-0.119309	1.648638
Cu159	Cu	0.045275	-0.659911	1.270406
Cu160	Cu	0.545275	-0.159911	1.770406
O161	O	0.142606	-0.600541	1.158074
O162	O	0.642606	-0.100541	1.658074
N163	N	0.016726	-0.688471	1.356052
N164	N	0.516726	-0.188471	1.856052
C165	C	0.039385	-0.537207	0.498225
C166	C	0.539385	-0.037207	0.998225
C167	C	0.167616	-0.665350	0.498136
C168	C	0.667616	-0.165350	0.998136
C169	C	0.091204	-0.741950	0.651272
C170	C	0.591204	-0.241950	1.151272
C171	C	-0.037027	-0.613806	0.651361
C172	C	0.462973	-0.113806	1.151361
C173	C	0.700360	-0.716215	0.676756
C174	C	1.200360	-0.216215	1.176756
C175	C	0.700279	-0.715877	0.548436
C176	C	1.200279	-0.215877	1.048436
C177	C	0.700133	-0.562725	0.472214
C178	C	1.200133	-0.062725	0.972214
C179	C	0.700218	-0.563065	0.600533
C180	C	1.200218	-0.063065	1.100533
C181	C	0.167511	-0.004552	0.497940
C182	C	0.667511	0.495448	0.997940
C183	C	0.039211	-0.004699	0.498341
C184	C	0.539211	0.495301	0.998341
C185	C	-0.036999	-0.004682	0.651449
C186	C	0.463001	0.495318	1.151449
C187	C	0.091344	-0.004663	0.651090
C188	C	0.591344	0.495337	1.151090
C189	C	-0.011156	-0.537302	1.209530
C190	C	0.488844	-0.037302	1.709530
C191	C	-0.010806	-0.665617	1.209458
C192	C	0.489194	-0.165617	1.709458
C193	C	0.142293	-0.741918	1.209514
C194	C	0.642293	-0.241918	1.709514
C195	C	0.141950	-0.613596	1.209563
C196	C	0.641950	-0.113596	1.709563
H197	H	0.102355	-0.458618	0.810728
H198	H	0.602355	0.041382	1.310728
O199	O	-0.055751	-0.676678	1.209408
O200	O	0.444249	-0.176678	1.709408
C201	C	-0.109163	-0.623492	1.209372
C202	C	0.390837	-0.123492	1.709372
H203	H	-0.108662	-0.593945	1.228913
H204	H	0.391338	-0.093945	1.728913
H205	H	-0.152149	-0.637989	1.239213
H206	H	0.347851	-0.137989	1.739213
H207	H	-0.109870	-0.595535	1.159961
H208	H	0.390130	-0.095535	1.659961
H209	H	0.100526	-0.788925	0.688956
H210	H	0.600526	-0.288925	1.188956
O211	O	0.424048	-0.444112	0.627160
O212	O	0.924048	0.055888	1.127160
C213	C	0.408170	-0.400104	0.573741
C214	C	0.908170	0.099896	1.073741
H215	H	0.390344	-0.420075	0.558851
H216	H	0.890344	0.079925	1.058851
H217	H	0.450778	-0.388239	0.534830
H218	H	0.950778	0.111761	1.034830
H219	H	0.370548	-0.356414	0.584344
H220	H	0.870548	0.143586	1.084344
O221	O	0.187282	-0.797957	1.209535
O222	O	0.687282	-0.297957	1.709535
C223	C	0.165005	-0.836471	1.209491
C224	C	0.665005	-0.336471	1.709491
H225	H	0.112272	-0.819696	1.228976
H226	H	0.612272	-0.319696	1.728976
H227	H	0.183989	-0.886071	1.239377
H228	H	0.683989	-0.386071	1.739377
H229	H	0.180742	-0.834789	1.160085
H230	H	0.680742	-0.334789	1.660085
H231	H	0.100739	-0.004653	0.688708
H232	H	0.600739	0.495347	1.188708
O233	O	0.223577	-0.676295	0.453051
O234	O	0.723577	-0.176295	0.953051
C235	C	0.223640	-0.623046	0.399711
C236	C	0.723640	-0.123046	0.899711
H237	H	0.173998	-0.593557	0.400379
H238	H	0.673998	-0.093557	0.900379
H239	H	0.251173	-0.637460	0.356667
H240	H	0.751173	-0.137460	0.856667
H241	H	0.245800	-0.595063	0.398955
H242	H	0.745800	-0.095063	0.898955
H243	H	-0.048928	-0.490363	1.209534
H244	H	0.451072	0.009637	1.709534
H245	H	-0.083922	-0.004684	0.689225
H246	H	0.416078	0.495316	1.189225
H247	H	-0.083976	-0.604550	0.689083
H248	H	0.416024	-0.104550	1.189083
H249	H	0.700405	-0.753994	0.723681
H250	H	1.200405	-0.253994	1.223681
O251	O	0.186779	-0.602309	1.209552
O252	O	0.686779	-0.102309	1.709552
C253	C	0.164225	-0.541454	1.209581
C254	C	0.664225	-0.041454	1.709581
H255	H	0.124483	-0.512153	1.190082
H256	H	0.624483	-0.012153	1.690082
H257	H	0.202996	-0.520632	1.179699
H258	H	0.702996	-0.020632	1.679699
H259	H	0.146959	-0.542366	1.258983
H260	H	0.646959	-0.042366	1.758983
H261	H	0.214338	-0.004265	0.460069
H262	H	0.714338	0.495735	0.960069
O263	O	0.053200	-0.495295	0.933303
O264	O	0.553200	0.004705	1.433303
C265	C	0.020631	-0.457776	0.890817
C266	C	0.520631	0.042224	1.390817
H267	H	0.051526	-0.434215	0.844613
H268	H	0.551526	0.065785	1.344613
H269	H	-0.022615	-0.421104	0.909556
H270	H	0.477385	0.078896	1.409556
H271	H	0.006647	-0.487670	0.883927
H272	H	0.506647	0.012330	1.383927
H273	H	0.030065	-0.490230	0.460543
H274	H	0.530065	0.009770	0.960543
H275	H	0.700073	-0.524942	0.425295
H276	H	1.200073	-0.024942	0.925295
O277	O	0.700270	-0.760698	0.537149
O278	O	1.200270	-0.260698	1.037149
C279	C	0.700233	-0.738150	0.476295
C280	C	1.200233	-0.238150	0.976295
H281	H	0.680699	-0.685414	0.460023
H282	H	1.180699	-0.185414	0.960023
H283	H	0.670350	-0.757020	0.475412
H284	H	1.170350	-0.257020	0.975412
H285	H	0.749619	-0.753782	0.444241
H286	H	1.249619	-0.253782	0.944241
O287	O	0.700283	-0.518244	0.611773
O288	O	1.200283	-0.018244	1.111773
C289	C	0.753641	-0.539542	0.626296
C290	C	1.253641	-0.039542	1.126296
H291	H	0.771462	-0.592317	0.644054
H292	H	1.271462	-0.092317	1.144054
H293	H	0.741664	-0.521657	0.663553
H294	H	1.241664	-0.021657	1.163553
H295	H	0.790942	-0.521872	0.583026
H296	H	1.290942	-0.021872	1.083026
O297	O	0.261935	-0.599788	0.933294
O298	O	0.761935	-0.099788	1.433294
C299	C	0.299423	-0.654134	0.917426
C300	C	0.799423	-0.154134	1.417426
H301	H	0.274387	-0.663151	0.899622
H302	H	0.774387	-0.163151	1.399622
H303	H	0.309256	-0.694965	0.960037
H304	H	0.809256	-0.194965	1.460037
H305	H	0.344939	-0.648234	0.879791
H306	H	0.844939	-0.148234	1.379791
O307	O	0.304412	-0.556989	0.805488
O308	O	0.804412	-0.056989	1.305488
C309	C	0.320056	-0.502530	0.768012
C310	C	0.820056	-0.002530	1.268012
H311	H	0.277334	-0.461803	0.758319
H312	H	0.777334	0.038197	1.258319
H313	H	0.357625	-0.508323	0.722428
H314	H	0.857625	-0.008323	1.222428
H315	H	0.337861	-0.493429	0.792984
H316	H	0.837861	0.006571	1.292984
O317	O	0.095689	-0.452676	0.761406
O318	O	0.595689	0.047324	1.261406
C319	C	0.058185	-0.398320	0.728701
C320	C	0.558185	0.101680	1.228701
H321	H	0.083189	-0.389300	0.676845
H322	H	0.583189	0.110700	1.176845
H323	H	0.048386	-0.357497	0.740304
H324	H	0.548386	0.142503	1.240304
H325	H	0.012652	-0.404208	0.742507
H326	H	0.512652	0.095792	1.242507
O327	O	0.053104	-0.495429	0.719019
O328	O	0.553104	0.004571	1.219019
C329	C	0.026222	-0.517598	0.783937
C330	C	0.526222	-0.017598	1.283937
H331	H	0.063146	-0.557572	0.804810
H332	H	0.563146	-0.057572	1.304810
H333	H	-0.011977	-0.534431	0.796350
H334	H	0.488023	-0.034431	1.296350
H335	H	0.005760	-0.478721	0.803146
H336	H	0.505760	0.021279	1.303146
H337	H	0.255124	-0.593799	0.620395
H338	H	0.755124	-0.093799	1.120395
H339	H	0.301449	-0.601745	0.743862
H340	H	0.801449	-0.101745	1.243862
O341	O	0.304365	-0.557128	0.657061
O342	O	0.804365	-0.057128	1.157061
C343	C	0.336898	-0.594618	0.619505
C344	C	0.836898	-0.094618	1.119505
H345	H	0.306002	-0.618199	0.627792
H346	H	0.806002	-0.118199	1.127792
H347	H	0.380181	-0.631274	0.631613
H348	H	0.880181	-0.131274	1.131613
H349	H	0.350819	-0.564697	0.568744
H350	H	0.850819	-0.064697	1.068744
H351	H	0.029814	-0.004702	0.460721
H352	H	0.529814	0.495298	0.960721
H353	H	0.301415	-0.411495	0.671309
H354	H	0.801415	0.088505	1.171309
O355	O	0.424025	-0.650899	0.706153
O356	O	0.924025	-0.150899	1.206153
C357	C	0.381537	-0.683007	0.737960
C358	C	0.881537	-0.183007	1.237960
H359	H	0.335344	-0.654735	0.764528
H360	H	0.835344	-0.154735	1.264528
H361	H	0.400286	-0.729748	0.771785
H362	H	0.900286	-0.229748	1.271785
H363	H	0.374625	-0.690502	0.703287
H364	H	0.874625	-0.190502	1.203287
O365	O	0.252041	-0.408580	0.604965
O366	O	0.752041	0.091420	1.104965
C367	C	0.219293	-0.392727	0.567500
C368	C	0.719293	0.107273	1.067500
H369	H	0.167446	-0.374915	0.592542
H370	H	0.667446	0.125085	1.092542
H371	H	0.230885	-0.435349	0.557699
H372	H	0.730885	0.064651	1.057699
H373	H	0.233066	-0.355100	0.521965
H374	H	0.733066	0.144900	1.021965
O375	O	0.209395	-0.280800	0.562433
O376	O	0.709395	0.219200	1.062433
C377	C	0.154922	-0.243295	0.546792
C378	C	0.654922	0.256705	1.046792
H379	H	0.116003	-0.262835	0.583336
H380	H	0.616003	0.237165	1.083336
H381	H	0.163440	-0.242548	0.499741
H382	H	0.663440	0.257452	0.999741
H383	H	0.141276	-0.194177	0.544650
H384	H	0.641276	0.305823	1.044650
H385	H	0.150353	-0.403547	0.803641
H386	H	0.650353	0.096453	1.303641
O387	O	0.105266	-0.280961	0.771176
O388	O	0.605266	0.219039	1.271176
C389	C	0.096137	-0.323470	0.832044
C390	C	0.596137	0.176530	1.332044
H391	H	0.103382	-0.369672	0.831928
H392	H	0.603382	0.130328	1.331928
H393	H	0.046993	-0.304751	0.862832
H394	H	0.546993	0.195249	1.362832
H395	H	0.130652	-0.330360	0.850592
H396	H	0.630652	0.169640	1.350592
