data_functionalizedCrystal
_audit_creation_method	'MofGen! by Chris Wilmer'
_symmetry_space_group_name_H-M	'P1'
_symmetry_Int_Tables_number	1
_symmetry_cell_setting	triclinic
loop_
_symmetry_equiv_pos_as_xyz
  x,y,z
_cell_length_a	29.839134
_cell_length_b	29.839131
_cell_length_c	18.215399
_cell_angle_alpha	90.030873
_cell_angle_beta	90.031750
_cell_angle_gamma	90.034165
loop_
_atom_site_label
_atom_site_type_symbol
_atom_site_fract_x
_atom_site_fract_y
_atom_site_fract_z
Zn1	Zn	0.686753	-0.178945	0.416335
Zn2	Zn	1.186753	0.321055	0.916335
Zn3	Zn	0.686675	-0.254074	0.293262
Zn4	Zn	1.186675	0.245926	0.793262
Zn5	Zn	0.611626	-0.178949	0.293257
Zn6	Zn	1.111626	0.321051	0.793257
Zn7	Zn	0.611583	-0.254039	0.416262
Zn8	Zn	1.111583	0.245961	0.916262
O9	O	0.649159	-0.216502	0.354779
O10	O	1.149159	0.283498	0.854779
O11	O	0.749609	-0.188924	0.400042
O12	O	1.249609	0.311076	0.900042
O13	O	0.676705	-0.244125	0.190277
O14	O	1.176705	0.255875	0.690277
O15	O	0.621642	-0.116082	0.309611
O16	O	1.121642	0.383918	0.809611
O17	O	0.749552	-0.244121	0.309621
O18	O	1.249552	0.255879	0.809621
O19	O	0.676837	-0.116078	0.400037
O20	O	1.176837	0.383922	0.900037
O21	O	0.621566	-0.188932	0.190273
O22	O	1.121566	0.311068	0.690273
O23	O	0.548753	-0.188897	0.309540
O24	O	1.048753	0.311103	0.809540
O25	O	0.621569	-0.244061	0.519256
O26	O	1.121569	0.255939	1.019256
O27	O	0.548722	-0.244065	0.399912
O28	O	1.048722	0.255935	0.899912
O29	O	0.676796	-0.188890	0.519309
O30	O	1.176796	0.311110	1.019309
O31	O	0.676664	-0.316937	0.309550
O32	O	1.176664	0.183063	0.809550
O33	O	0.621494	-0.316911	0.399917
O34	O	1.121494	0.183089	0.899917
C35	C	0.532437	-0.216478	0.354718
C36	C	1.032437	0.283522	0.854718
C37	C	0.482502	-0.216479	0.354709
C38	C	0.982502	0.283521	0.854709
C39	C	0.125919	-0.187733	0.307819
C40	C	0.625919	0.312267	0.807819
C41	C	0.313592	-0.187721	0.307774
C42	C	0.813592	0.312279	0.807774
O43	O	0.337860	-0.163242	0.267837
O44	O	0.837860	0.336758	0.767837
N45	N	0.337057	-0.216487	0.354746
N46	N	0.837057	0.283513	0.854746
C47	C	0.313601	-0.245256	0.401737
C48	C	0.813601	0.254744	0.901737
O49	O	0.337866	-0.269719	0.441694
O50	O	0.837866	0.230281	0.941694
C51	C	0.125929	-0.245266	0.401785
C52	C	0.625929	0.254734	0.901785
C53	C	0.102466	-0.216501	0.354804
C54	C	0.602466	0.283499	0.854804
C55	C	0.102456	-0.158971	0.260842
C56	C	0.602456	0.341029	0.760842
C57	C	0.055540	-0.158976	0.260851
C58	C	0.555540	0.341024	0.760851
C59	C	0.032088	-0.187744	0.307836
C60	C	0.532088	0.312256	0.807836
C61	C	0.055551	-0.216506	0.354813
C62	C	0.555551	0.283494	0.854813
C63	C	0.102474	-0.274032	0.448778
C64	C	0.602474	0.225968	0.948778
C65	C	0.055553	-0.274031	0.448787
C66	C	0.555553	0.225969	0.948787
C67	C	0.032090	-0.245267	0.401806
C68	C	0.532090	0.254733	0.901806
C69	C	-0.014818	-0.245279	0.401807
C70	C	0.485182	0.254721	0.901807
N71	N	-0.038283	-0.216513	0.354834
N72	N	0.461717	0.283487	0.854834
C73	C	-0.014830	-0.187746	0.307849
C74	C	0.485170	0.312254	0.807849
C75	C	0.412132	-0.245249	0.401707
C76	C	0.912132	0.254751	0.901707
C77	C	0.459049	-0.245247	0.401694
C78	C	0.959049	0.254753	0.901694
C79	C	0.459037	-0.187711	0.307732
C80	C	0.959037	0.312289	0.807732
C81	C	0.412118	-0.187716	0.307742
C82	C	0.912118	0.312284	0.807742
C83	C	0.388666	-0.216483	0.354735
C84	C	0.888666	0.283517	0.854735
C85	C	-0.113356	-0.187759	0.307871
C86	C	0.386644	0.312241	0.807871
C87	C	-0.160275	-0.187768	0.307881
C88	C	0.339725	0.312232	0.807881
C89	C	-0.160259	-0.245302	0.401846
C90	C	0.339741	0.254698	0.901846
C91	C	-0.113343	-0.245295	0.401833
C92	C	0.386657	0.254705	0.901833
C93	C	-0.089893	-0.216520	0.354842
C94	C	0.410107	0.283480	0.854842
O95	O	-0.039114	-0.269742	0.441728
O96	O	0.460886	0.230258	0.941728
O97	O	-0.039103	-0.163279	0.267909
O98	O	0.460897	0.336721	0.767909
C99	C	0.172834	-0.187728	0.307810
C100	C	0.672834	0.312272	0.807810
C101	C	0.196297	-0.216491	0.354786
C102	C	0.696297	0.283509	0.854786
C103	C	0.172844	-0.245259	0.401771
C104	C	0.672844	0.254741	0.901771
C105	C	0.243215	-0.216489	0.354773
C106	C	0.743215	0.283511	0.854773
C107	C	0.266667	-0.187721	0.307788
C108	C	0.766667	0.312279	0.807788
C109	C	0.243202	-0.158955	0.260816
C110	C	0.743202	0.341045	0.760816
C111	C	0.196287	-0.158960	0.260825
C112	C	0.696287	0.341040	0.760825
C113	C	0.196310	-0.274024	0.448744
C114	C	0.696310	0.225976	0.948744
C115	C	0.243225	-0.274017	0.448731
C116	C	0.743225	0.225983	0.948731
C117	C	0.266678	-0.245249	0.401745
C118	C	0.766678	0.254751	0.901745
C119	C	0.649078	-0.333224	0.354742
C120	C	1.149078	0.166776	0.854742
C121	C	0.649084	-0.383159	0.354751
C122	C	1.149084	0.116841	0.854751
C123	C	0.677938	-0.692803	0.307793
C124	C	1.177938	-0.192803	0.807793
C125	C	0.677994	-0.880476	0.307822
C126	C	1.177994	-0.380476	0.807822
O127	O	0.702462	-0.904742	0.267869
O128	O	1.202462	-0.404742	0.767869
N129	N	0.649252	-0.903944	0.354834
N130	N	1.149252	-0.403944	0.854834
C131	C	0.620497	-0.880491	0.401846
C132	C	1.120497	-0.380491	0.901846
O133	O	0.596055	-0.904758	0.441839
O134	O	1.096055	-0.404758	0.941839
C135	C	0.620444	-0.692818	0.401821
C136	C	1.120444	-0.192818	0.901821
C137	C	0.649184	-0.669353	0.354800
C138	C	1.149184	-0.169353	0.854800
C139	C	0.706676	-0.669338	0.260777
C140	C	1.206676	-0.169338	0.760777
C141	C	0.706660	-0.622422	0.260768
C142	C	1.206660	-0.122422	0.760768
C143	C	0.677906	-0.598972	0.307774
C144	C	1.177906	-0.098972	0.807774
C145	C	0.649168	-0.622438	0.354791
C146	C	1.149168	-0.122438	0.854791
C147	C	0.591692	-0.669366	0.448836
C148	C	1.091692	-0.169366	0.948836
C149	C	0.591682	-0.622445	0.448827
C150	C	1.091682	-0.122445	0.948827
C151	C	0.620422	-0.598980	0.401806
C152	C	1.120422	-0.098980	0.901806
C153	C	0.620399	-0.552072	0.401788
C154	C	1.120399	-0.052072	0.901788
N155	N	0.649140	-0.528604	0.354776
N156	N	1.149140	-0.028604	0.854776
C157	C	0.677894	-0.552054	0.307769
C158	C	1.177894	-0.052054	0.807769
C159	C	0.620526	-0.979021	0.401855
C160	C	1.120526	-0.479021	0.901855
C161	C	0.620539	-1.025939	0.401861
C162	C	1.120539	-0.525939	0.901861
C163	C	0.678036	-1.025921	0.307837
C164	C	1.178036	-0.525921	0.807837
C165	C	0.678021	-0.979003	0.307829
C166	C	1.178021	-0.479003	0.807829
C167	C	0.649268	-0.955553	0.354843
C168	C	1.149268	-0.455553	0.854843
C169	C	0.677858	-0.453528	0.307752
C170	C	1.177858	0.046472	0.807752
C171	C	0.677838	-0.406609	0.307745
C172	C	1.177838	0.093391	0.807745
C173	C	0.620343	-0.406631	0.401770
C174	C	1.120343	0.093369	0.901770
C175	C	0.620361	-0.453546	0.401775
C176	C	1.120361	0.046454	0.901775
C177	C	0.649122	-0.476994	0.354764
C178	C	1.149122	0.023006	0.854764
O179	O	0.595947	-0.527778	0.441726
O180	O	1.095947	-0.027778	0.941726
O181	O	0.702339	-0.527779	0.267794
O182	O	1.202339	-0.027779	0.767794
C183	C	0.677954	-0.739718	0.307803
C184	C	1.177954	-0.239718	0.807803
C185	C	0.649216	-0.763184	0.354819
C186	C	1.149216	-0.263184	0.854819
C187	C	0.620462	-0.739734	0.401826
C188	C	1.120462	-0.239734	0.901826
C189	C	0.649229	-0.810102	0.354825
C190	C	1.149229	-0.310102	0.854825
C191	C	0.677983	-0.833552	0.307818
C192	C	1.177983	-0.333552	0.807818
C193	C	0.706724	-0.810084	0.260806
C194	C	1.206724	-0.310084	0.760806
C195	C	0.706708	-0.763168	0.260796
C196	C	1.206708	-0.263168	0.760796
C197	C	0.591721	-0.763202	0.448838
C198	C	1.091721	-0.263202	0.948838
C199	C	0.591739	-0.810117	0.448843
C200	C	1.091739	-0.310117	0.948843
C201	C	0.620492	-0.833567	0.401837
C202	C	1.120492	-0.333567	0.901837
C203	C	0.766337	-0.216526	0.354840
C204	C	1.266337	0.283474	0.854840
C205	C	0.816272	-0.216536	0.354867
C206	C	1.316272	0.283464	0.854867
C207	C	0.649186	-0.216471	0.546732
C208	C	1.149186	0.283529	1.046732
C209	C	0.649198	-0.216458	0.628531
C210	C	1.149198	0.283542	1.128531
C211	C	0.649253	-0.099323	0.354832
C212	C	1.149253	0.400677	0.854832
C213	C	0.649293	-0.049389	0.354854
C214	C	1.149293	0.450611	0.854854
C215	C	0.649158	-0.216500	0.163573
C216	C	1.149158	0.283500	0.663573
C217	C	0.649233	-0.216387	0.081774
C218	C	1.149233	0.283613	0.581774
C219	C	0.677965	-0.187703	0.816754
C220	C	1.177965	0.312297	1.316754
C221	C	0.677970	-0.187690	0.893613
C222	C	1.177970	0.312310	1.393613
C223	C	0.620463	-0.245143	0.893545
C224	C	1.120463	0.254857	1.393545
C225	C	0.620456	-0.245153	0.816688
C226	C	1.120456	0.254847	1.316688
C227	C	0.649209	-0.216434	0.778294
C228	C	1.149209	0.283566	1.278294
C229	C	0.649222	-0.216411	0.932011
C230	C	1.149222	0.283589	1.432011
C231	C	0.649228	-0.216397	1.015344
C232	C	1.149228	0.283603	1.515344
C233	C	0.649203	-0.216447	0.694955
C234	C	1.149203	0.283553	1.194955
H235	H	-0.094268	-0.164326	0.269610
H236	H	0.405732	0.335674	0.769610
H237	H	0.597036	-0.268549	0.785373
H238	H	1.097036	0.231451	1.285373
H239	H	0.701242	-0.387505	0.269452
H240	H	1.201242	0.112495	0.769452
N241	N	0.484343	-0.156679	0.257068
N242	N	0.984343	0.343321	0.757068
H243	H	0.476201	-0.124591	0.268604
H244	H	0.976201	0.375409	0.768604
H245	H	0.476148	-0.163646	0.204481
H246	H	0.976148	0.336354	0.704481
N247	N	0.386842	-0.276284	0.452388
N248	N	0.886842	0.223716	0.952388
H249	H	0.367352	-0.297081	0.422421
H250	H	0.867352	0.202919	0.922421
H251	H	0.367426	-0.258028	0.486548
H252	H	0.867426	0.241972	0.986548
N253	N	0.589362	-0.478859	0.452485
N254	N	1.089362	0.021141	0.952485
H255	H	0.568560	-0.498358	0.422545
H256	H	1.068560	0.001642	0.922545
H257	H	0.571173	-0.456854	0.482250
H258	H	1.071173	0.043146	0.982250
N259	N	-0.185563	-0.276328	0.452517
N260	N	0.314437	0.223672	0.952517
H261	H	-0.205005	-0.258093	0.486672
H262	H	0.294995	0.241907	0.986672
H263	H	-0.163556	-0.294546	0.482231
H264	H	0.336444	0.205454	0.982231
H265	H	0.701279	-0.472614	0.269472
H266	H	1.201279	0.027386	0.769472
N267	N	0.589336	-0.381332	0.452475
N268	N	1.089336	0.118668	0.952475
H269	H	0.571131	-0.403314	0.482266
H270	H	1.071131	0.096686	0.982266
H271	H	0.568550	-0.361894	0.422480
H272	H	1.068550	0.138106	0.922480
N273	N	0.589451	-0.276110	0.934968
N274	N	1.089451	0.223890	1.434968
H275	H	0.607692	-0.296928	0.966861
H276	H	1.107692	0.203072	1.466861
H277	H	0.571233	-0.294283	0.898901
H278	H	1.071233	0.205717	1.398901
N279	N	0.708979	-0.156730	0.775345
N280	N	1.208979	0.343270	1.275345
H281	H	0.704615	-0.161098	0.720819
H282	H	1.204615	0.338902	1.220819
H283	H	0.741057	-0.163732	0.788804
H284	H	1.241057	0.336268	1.288804
N285	N	0.030239	-0.127940	0.210196
N286	N	0.530239	0.372060	0.710196
H287	H	-0.003043	-0.132300	0.217328
H288	H	0.496957	0.367700	0.717328
H289	H	0.038413	-0.134885	0.157611
H290	H	0.538413	0.365115	0.657611
H291	H	0.177219	-0.297451	0.487006
H292	H	0.677219	0.202549	0.987006
H293	H	0.121546	-0.135542	0.222581
H294	H	0.621546	0.364458	0.722581
N295	N	0.127767	-0.305055	0.499462
N296	N	0.627767	0.194945	0.999462
H297	H	0.147255	-0.286821	0.533617
H298	H	0.647255	0.213179	1.033617
H299	H	0.147185	-0.325851	0.469453
H300	H	0.647185	0.174149	0.969453
N301	N	0.030258	-0.305059	0.499474
N302	N	0.530258	0.194941	0.999474
H303	H	0.052244	-0.323279	0.529230
H304	H	0.552244	0.176721	1.029230
H305	H	0.010770	-0.325830	0.469463
H306	H	0.510770	0.174170	0.969463
H307	H	0.730064	-0.603319	0.222482
H308	H	1.230064	-0.103319	0.722482
N309	N	0.737710	-0.737861	0.210088
N310	N	1.237710	-0.237861	0.710088
H311	H	0.730756	-0.746056	0.157495
H312	H	1.230756	-0.246056	0.657495
H313	H	0.769793	-0.746008	0.221649
H314	H	1.269793	-0.246008	0.721649
N315	N	-0.185582	-0.156744	0.257205
N316	N	0.314418	0.343256	0.757205
H317	H	-0.163602	-0.138519	0.227441
H318	H	0.336398	0.361481	0.727441
H319	H	-0.205026	-0.135978	0.287223
H320	H	0.294974	0.364022	0.787223
H321	H	0.730135	-0.829185	0.222529
H322	H	1.230135	-0.329185	0.722529
H323	H	0.393018	-0.164292	0.269489
H324	H	0.893018	0.335708	0.769489
H325	H	0.568331	-0.829219	0.487132
H326	H	1.068331	-0.329219	0.987132
H327	H	0.478149	-0.268675	0.439943
H328	H	0.978149	0.231325	0.939943
N329	N	0.737693	-0.694626	0.210074
N330	N	1.237693	-0.194626	0.710074
H331	H	0.755893	-0.672634	0.180293
H332	H	1.255893	-0.172634	0.680293
H333	H	0.719423	-0.714119	0.175981
H334	H	1.219423	-0.214119	0.675981
N335	N	-0.088034	-0.276323	0.452494
N336	N	0.411966	0.223677	0.952494
H337	H	-0.110012	-0.294549	0.482257
H338	H	0.389988	0.205451	0.982257
H339	H	-0.068547	-0.258060	0.486604
H340	H	0.431453	0.241940	0.986604
N341	N	0.170984	-0.127936	0.210152
N342	N	0.670984	0.372064	0.710152
H343	H	0.192966	-0.109714	0.180390
H344	H	0.692966	0.390286	0.680390
H345	H	0.151541	-0.107168	0.240169
H346	H	0.651541	0.392832	0.740169
H347	H	0.701385	-0.164294	0.924923
H348	H	1.201385	0.335706	1.424923
H349	H	0.262306	-0.135533	0.222556
H350	H	0.762306	0.364467	0.722556
H351	H	0.701424	-0.959900	0.269541
H352	H	1.201424	-0.459900	0.769541
H353	H	0.262324	-0.297445	0.486987
H354	H	0.762324	0.202555	0.986987
H355	H	0.701449	-1.045022	0.269563
H356	H	1.201449	-0.545022	0.769563
N357	N	0.589533	-1.051242	0.452567
N358	N	1.089533	-0.551242	0.952567
H359	H	0.596490	-1.043049	0.505160
H360	H	1.096490	-0.543049	1.005160
H361	H	0.593913	-1.084516	0.445382
H362	H	1.093913	-0.584516	0.945382
N363	N	0.589510	-0.953733	0.452563
N364	N	1.089510	-0.453733	0.952563
H365	H	0.571305	-0.975723	0.482339
H366	H	1.071305	-0.475723	0.982339
H367	H	0.568724	-0.934297	0.422564
H368	H	1.068724	-0.434297	0.922564
H369	H	0.568286	-0.688464	0.487122
H370	H	1.068286	-0.188464	0.987122
H371	H	0.568268	-0.603355	0.487114
H372	H	1.068268	-0.103355	0.987114
H373	H	0.568306	-0.744112	0.487118
H374	H	1.068306	-0.244112	0.987118
