data_functionalizedCrystal
_audit_creation_method	'MofGen! by Chris Wilmer'
_symmetry_space_group_name_H-M	'P1'
_symmetry_Int_Tables_number	1
_symmetry_cell_setting	triclinic
loop_
_symmetry_equiv_pos_as_xyz
  x,y,z
_cell_length_a	17.699097
_cell_length_b	10.540539
_cell_length_c	16.776229
_cell_angle_alpha	90.004486
_cell_angle_beta	90.010738
_cell_angle_gamma	83.906961
loop_
_atom_site_label
_atom_site_type_symbol
_atom_site_fract_x
_atom_site_fract_y
_atom_site_fract_z
O1	O	1.005116	0.160601	0.066351
O2	O	0.784875	0.181467	0.066337
O3	O	0.900020	-0.013764	0.066343
O4	O	0.889971	0.355832	0.066345
O5	O	0.900005	-0.013776	-0.066233
O6	O	0.784860	0.181455	-0.066239
O7	O	1.005101	0.160589	-0.066226
Zn8	Zn	0.894978	0.171020	-0.087282
Zn9	Zn	0.894998	0.171036	0.087393
O10	O	0.889956	0.355820	-0.066232
C11	C	0.756666	0.180710	0.000047
C12	C	0.672633	0.178459	0.000042
C13	C	0.899259	-0.061059	0.000057
C14	C	0.897004	-0.201966	0.000061
C15	C	0.156834	0.164664	0.072342
C16	C	0.235792	0.166771	0.072338
C17	C	0.275256	0.167820	0.000067
C18	C	0.235759	0.166749	-0.072204
C19	C	0.156804	0.164633	-0.072199
C20	C	0.554179	0.175281	-0.072225
C21	C	0.633140	0.177401	-0.072224
C22	C	0.633167	0.177419	0.072312
C23	C	0.554211	0.175303	0.072317
C24	C	0.514722	0.174225	0.000046
C25	C	0.429107	0.171938	0.000051
C26	C	0.360869	0.170116	0.000061
C27	C	0.810606	-0.383820	0.000353
C28	C	0.812891	-0.237243	0.000055
C29	C	0.937474	-0.264368	-0.075645
C30	C	0.934604	-0.410860	-0.075709
C31	C	0.936332	-0.411396	0.075056
C32	C	0.937107	-0.264428	0.076057
C33	C	1.033310	0.161345	0.000066
C34	C	1.117342	0.163597	0.000076
C35	C	0.890717	0.403115	0.000057
C36	C	0.892972	0.544022	0.000058
N37	N	0.894969	0.171008	-0.206493
C38	C	0.945972	0.084595	-0.248207
C39	C	0.945976	0.084594	-0.331660
C40	C	0.894981	0.171013	-0.373396
C41	C	0.843973	0.257430	-0.331676
C42	C	0.843966	0.257424	-0.248225
C43	C	0.844001	0.257455	-0.668223
C44	C	0.844013	0.257457	-0.751679
C45	C	0.946011	0.084625	-0.751658
C46	C	0.946003	0.084619	-0.668207
C47	C	0.894993	0.171031	-0.626494
C48	C	0.894988	0.171030	-0.536006
C49	C	0.894989	0.171022	-0.463883
N50	N	0.895012	0.171037	0.206605
H51	H	0.124707	0.163819	0.131193
C52	C	0.694049	-0.207973	-0.070069
C53	C	0.769595	-0.180090	-0.073341
H54	H	0.667323	-0.172697	-0.115388
H55	H	0.670778	-0.172288	-0.022989
H56	H	0.692813	-0.297850	-0.069627
H57	H	0.770831	-0.090213	-0.073777
H58	H	0.792872	-0.215770	-0.120434
C59	C	0.943588	-0.533211	-0.196708
C60	C	0.894201	-0.448211	-0.152102
H61	H	0.918642	-0.556257	-0.243871
H62	H	0.958100	-0.607500	-0.165981
H63	H	0.987511	-0.493511	-0.210533
H64	H	0.850280	-0.487914	-0.138271
H65	H	0.879678	-0.373909	-0.182834
C66	C	1.032876	-0.169169	-0.149768
C67	C	1.020862	-0.235714	-0.079451
H68	H	1.084357	-0.151487	-0.152118
H69	H	1.000487	-0.091325	-0.150465
H70	H	1.021942	-0.219580	-0.194411
H71	H	1.031790	-0.185300	-0.034808
H72	H	1.053261	-0.313571	-0.078747
H73	H	0.665329	0.178291	0.131159
C74	C	0.933341	-0.264674	0.219123
C75	C	0.897196	-0.208428	0.151668
H76	H	0.908697	-0.230098	0.265800
H77	H	0.985007	-0.247850	0.219600
H78	H	0.930817	-0.354222	0.217721
H79	H	0.899724	-0.118881	0.153068
H80	H	0.845516	-0.225242	0.151192
C81	C	0.473319	0.063786	-0.156082
C82	C	0.510787	0.174089	-0.151669
H83	H	0.446535	0.063045	-0.205133
H84	H	0.438510	0.062869	-0.113053
H85	H	0.509504	-0.009363	-0.153065
H86	H	0.474601	0.247238	-0.154680
H87	H	0.545599	0.175017	-0.194709
H88	H	0.998432	-0.241323	0.080632
H89	H	0.665270	0.178255	-0.131079
C90	C	0.356778	0.169999	-0.136392
C91	C	0.279137	0.167907	-0.151647
H92	H	0.383554	0.170725	-0.185439
H93	H	0.375093	0.096361	-0.106706
H94	H	0.364343	0.244345	-0.106696
H95	H	0.271572	0.093555	-0.181337
H96	H	0.260816	0.241552	-0.181346
H97	H	0.802448	0.327790	-0.365662
H98	H	0.267943	0.167632	0.131184
H99	H	0.124650	0.163777	-0.131046
H100	H	0.781047	-0.194055	0.054323
H101	H	0.802434	0.327789	-0.214262
H102	H	0.997086	-0.459728	0.075569
C103	C	0.953007	-0.532742	0.196081
C104	C	0.899592	-0.453310	0.152519
H105	H	0.930316	-0.558622	0.243896
H106	H	0.995135	-0.487639	0.208727
H107	H	0.969785	-0.605847	0.165164
H108	H	0.882817	-0.380199	0.183433
H109	H	0.857450	-0.498413	0.139874
C110	C	1.046818	-0.086212	-0.323256
C111	C	1.002051	-0.010374	-0.377512
H112	H	1.081443	-0.144834	-0.351565
H113	H	1.015074	-0.131826	-0.290726
H114	H	1.074309	-0.033404	-0.290690
H115	H	0.974556	-0.063181	-0.410075
H116	H	1.033800	0.035243	-0.410056
C117	C	0.562172	0.175517	0.215191
C118	C	0.510833	0.174143	0.151759
H119	H	0.535392	0.174789	0.264235
H120	H	0.587592	0.250331	0.212187
H121	H	0.598341	0.102347	0.212175
H122	H	0.474667	0.247318	0.154772
H123	H	0.485401	0.099321	0.154765
C124	C	1.048724	0.056570	-0.574158
C125	C	1.001924	-0.010489	-0.622253
H126	H	1.083209	-0.002186	-0.545770
H127	H	1.018341	0.108140	-0.537438
H128	H	1.076370	0.109220	-0.606654
H129	H	0.974274	-0.063133	-0.589756
H130	H	1.032311	-0.062081	-0.658978
H131	H	0.777386	-0.411810	0.054642
H132	H	0.987501	0.014228	-0.214231
C133	C	0.798701	0.334213	-0.540316
C134	C	0.787944	0.352458	-0.622378
H135	H	0.764091	0.392868	-0.512013
H136	H	0.849279	0.347885	-0.526629
H137	H	0.790014	0.249515	-0.526652
H138	H	0.796636	0.437154	-0.636043
H139	H	0.737354	0.338796	-0.636070
C140	C	0.989278	-0.135220	-0.777346
C141	C	1.002074	-0.010379	-0.797511
H142	H	1.023892	-0.193866	-0.805650
H143	H	0.938702	-0.148894	-0.791041
H144	H	0.996575	-0.147569	-0.721672
H145	H	0.994772	0.001973	-0.853185
H146	H	1.052663	0.003301	-0.783822
H147	H	0.777508	-0.413430	-0.053636
C148	C	0.713393	0.332235	-0.777422
C149	C	0.787950	0.352444	-0.797560
H150	H	0.678785	0.390868	-0.805752
H151	H	0.706089	0.344608	-0.721759
H152	H	0.704739	0.247527	-0.791110
H153	H	0.796605	0.437149	-0.783867
H154	H	0.795257	0.340081	-0.853235
H155	H	0.995096	-0.459931	-0.079139
H156	H	0.909349	-0.221262	-0.131985
