data_functionalizedCrystal
_audit_creation_method	'MofGen! by Chris Wilmer'
_symmetry_space_group_name_H-M	'P1'
_symmetry_Int_Tables_number	1
_symmetry_cell_setting	triclinic
loop_
_symmetry_equiv_pos_as_xyz
  x,y,z
_cell_length_a	14.971494
_cell_length_b	10.654550
_cell_length_c	9.730223
_cell_angle_alpha	89.997176
_cell_angle_beta	90.002917
_cell_angle_gamma	95.948889
loop_
_atom_site_label
_atom_site_type_symbol
_atom_site_fract_x
_atom_site_fract_y
_atom_site_fract_z
O1	O	1.187830	-0.163700	0.114272
O2	O	0.927538	-0.183288	0.114278
O3	O	1.063668	0.009310	0.114266
O4	O	1.051699	-0.356297	0.114284
O5	O	1.063659	0.009309	-0.114314
O6	O	0.927528	-0.183288	-0.114302
O7	O	1.187820	-0.163700	-0.114308
Zn8	Zn	1.057673	-0.173494	-0.150597
Zn9	Zn	1.057685	-0.173494	0.150567
O10	O	1.051690	-0.356297	-0.114296
C11	C	0.894203	-0.182410	-0.000011
C12	C	0.794892	-0.179780	-0.000009
C13	C	1.062785	0.056098	-0.000023
C14	C	1.060155	0.195513	-0.000021
C15	C	1.221155	-0.164577	-0.000016
C16	C	1.320466	-0.167208	-0.000010
C17	C	1.748236	-0.178540	-0.124609
C18	C	1.654923	-0.176060	-0.124611
C19	C	1.608268	-0.174828	-0.000010
C20	C	1.654931	-0.176064	0.124600
C21	C	1.748243	-0.178535	0.124600
C22	C	1.460440	-0.170916	0.124591
C23	C	1.367122	-0.168447	0.124591
C24	C	1.367121	-0.168441	-0.124620
C25	C	1.460432	-0.170912	-0.124620
C26	C	1.507089	-0.172150	-0.000009
C27	C	1.052573	-0.403086	-0.000004
C28	C	1.055203	-0.542501	0.000003
N29	N	1.057670	-0.173493	-0.356133
C30	C	1.140307	0.275856	-0.000022
C31	C	1.137831	0.406850	-0.000006
C32	C	0.975045	0.377147	0.000008
C33	C	0.977522	0.246155	0.000002
C34	C	1.112390	-0.249790	-0.428052
C35	C	1.112404	-0.249783	-0.571935
C36	C	1.002973	-0.097178	-0.571968
C37	C	1.002964	-0.097180	-0.428088
N38	N	1.057695	-0.173484	0.356103
H39	H	1.616942	-0.175030	-0.226073
O40	O	1.505777	-0.172332	-0.245617
C41	C	1.601725	-0.283782	-0.390197
C42	C	1.550395	-0.282355	-0.253134
H43	H	1.637827	-0.372713	-0.396306
H44	H	1.552387	-0.282551	-0.479317
H45	H	1.653014	-0.197077	-0.396396
H46	H	1.499106	-0.369045	-0.246801
H47	H	1.599787	-0.283522	-0.164079
H48	H	0.958404	-0.035043	-0.369530
O49	O	1.215630	0.485023	-0.000192
C50	C	1.307326	0.650117	-0.118644
C51	C	1.219172	0.561678	-0.118593
H52	H	1.310227	0.712097	-0.214375
H53	H	1.310255	0.712260	-0.023041
H54	H	1.366794	0.591391	-0.118591
H55	H	1.159655	0.620305	-0.118693
H56	H	1.216323	0.499530	-0.214187
H57	H	1.498425	-0.171924	0.226062
O58	O	1.793533	-0.179511	-0.245683
C59	C	1.831489	-0.071573	-0.458714
C60	C	1.780168	-0.070308	-0.321630
H61	H	1.820686	0.016695	-0.520168
H62	H	1.906214	-0.073473	-0.437396
H63	H	1.805507	-0.158942	-0.520106
H64	H	1.806074	0.017048	-0.260169
H65	H	1.705450	-0.068474	-0.343044
O66	O	0.894834	0.426494	0.000201
C67	C	0.797548	0.557084	0.118669
C68	C	0.888427	0.501310	0.118612
H69	H	0.792331	0.617563	0.214409
H70	H	0.792301	0.617756	0.023075
H71	H	0.740701	0.477137	0.118605
H72	H	0.945327	0.581176	0.118725
H73	H	0.893597	0.440605	0.214198
O74	O	1.321789	-0.166996	-0.245638
C75	C	1.225870	-0.055499	-0.390244
C76	C	1.277184	-0.056961	-0.253162
H77	H	1.189778	0.033442	-0.396359
H78	H	1.275216	-0.056725	-0.479346
H79	H	1.174573	-0.142194	-0.396469
H80	H	1.328480	0.029719	-0.246803
H81	H	1.227784	-0.055800	-0.164125
H82	H	1.329138	-0.167445	0.226052
H83	H	1.616938	-0.175052	0.226051
O84	O	1.220497	0.226452	-0.000090
C85	C	1.296463	0.037820	-0.000016
C86	C	1.205584	0.093595	0.000023
H87	H	1.284437	-0.069601	0.000105
H88	H	1.336124	0.070817	-0.095696
H89	H	1.336112	0.070968	0.095625
H90	H	1.165861	0.060473	-0.095553
H91	H	1.165990	0.060605	0.095767
O92	O	0.899573	0.168280	-0.000059
C93	C	0.737850	0.152631	0.000042
C94	C	0.826052	0.240966	0.000071
H95	H	0.678385	0.211362	0.000176
H96	H	0.734872	0.090589	-0.095641
H97	H	0.735000	0.090531	0.095679
H98	H	0.828960	0.303145	-0.095502
H99	H	0.828993	0.302922	0.095818
O100	O	1.165684	-0.323830	-0.641643
C101	C	1.316525	-0.373193	-0.685676
C102	C	1.256285	-0.289267	-0.606625
H103	H	1.389790	-0.345262	-0.657415
H104	H	1.297285	-0.476283	-0.657361
H105	H	1.307094	-0.360111	-0.800866
H106	H	1.265685	-0.302240	-0.491418
H107	H	1.275540	-0.186209	-0.635055
H108	H	1.156935	-0.311929	-0.369471
H109	H	1.786229	-0.179547	0.226062
H110	H	0.958432	-0.035048	-0.630571
