data_functionalizedCrystal
_audit_creation_method	'MofGen! by Chris Wilmer'
_symmetry_space_group_name_H-M	'P1'
_symmetry_Int_Tables_number	1
_symmetry_cell_setting	triclinic
loop_
_symmetry_equiv_pos_as_xyz
  x,y,z
_cell_length_a	12.777687
_cell_length_b	15.624803
_cell_length_c	15.625605
_cell_angle_alpha	39.016266
_cell_angle_beta	97.077326
_cell_angle_gamma	82.920095
loop_
_atom_site_label
_atom_site_type_symbol
_atom_site_fract_x
_atom_site_fract_y
_atom_site_fract_z
O1	O	0.351565	0.482284	0.711835
O2	O	0.328327	0.350945	0.580446
O3	O	0.188478	0.421372	0.650889
O4	O	0.491414	0.411857	0.641392
O5	O	0.119372	0.650694	0.421590
O6	O	0.259221	0.580267	0.351148
O7	O	0.282459	0.711606	0.482537
Zn8	Zn	0.259868	0.682346	0.380436
Zn9	Zn	0.350918	0.380205	0.682547
O10	O	0.422308	0.641179	0.412094
C11	C	0.287976	0.448821	0.449005
C12	C	0.270687	0.398806	0.398972
C13	C	0.614791	0.526525	0.526729
C14	C	0.495990	0.526527	0.526733
C15	C	0.114792	0.536034	0.536248
C16	C	-0.004011	0.536037	0.536243
C17	C	0.402161	-0.390747	0.859509
C18	C	0.385894	-0.437740	0.812493
C19	C	0.310553	-0.187753	0.562510
C20	C	0.326808	-0.140738	0.609505
C21	C	0.372613	-0.242244	0.758006
C22	C	0.297261	0.007766	0.508002
C23	C	0.313521	0.054776	0.554993
C24	C	0.359327	-0.046717	0.703487
C25	C	0.388873	-0.195233	0.804997
C26	C	0.251464	0.109269	0.359501
C27	C	0.221917	0.257772	0.257998
C28	C	0.238169	0.304785	0.304989
C29	C	0.283975	0.203292	0.453483
C30	C	0.208623	0.453301	0.203480
C31	C	0.224882	0.500312	0.250471
C32	C	0.300234	0.250302	0.500475
O33	O	0.991413	0.421388	0.650884
O34	O	0.688485	0.411866	0.641389
O35	O	0.828324	0.482307	0.711821
O36	O	0.851574	0.350947	0.580453
O37	O	0.759207	0.711625	0.482518
O38	O	0.619368	0.641184	0.412086
O39	O	0.922296	0.650706	0.421582
Zn40	Zn	0.759858	0.682354	0.380427
Zn41	Zn	0.850923	0.380218	0.682543
O42	O	0.782457	0.580265	0.351150
C43	C	0.322811	0.613727	0.613980
C44	C	0.340102	0.663733	0.664023
C45	C	0.787966	0.613752	0.613960
C46	C	0.770675	0.663769	0.663991
C47	C	0.822812	0.448830	0.449001
C48	C	0.840094	0.398841	0.398942
C49	C	0.902153	0.203317	1.453457
C50	C	0.885891	0.250358	1.500426
C51	C	0.810546	0.500343	1.250441
C52	C	0.826806	0.453323	1.203449
C53	C	0.872608	0.304808	1.304966
C54	C	0.797262	0.554814	1.054959
C55	C	0.813515	0.507797	1.007972
C56	C	0.859312	0.359289	1.109475
C57	C	0.888862	0.257791	1.257979
C58	C	0.751452	0.703328	0.953444
C59	C	0.721908	0.804819	0.804953
C60	C	0.738168	0.757803	0.757965
C61	C	0.783966	0.609295	0.859468
C62	C	0.708619	0.859301	0.609461
C63	C	0.724873	0.812284	0.562474
C64	C	0.800219	0.562278	0.812481
N65	N	0.197729	0.888553	0.174257
N66	N	0.413050	0.174001	0.888729
N67	N	0.697717	0.888556	0.174243
N68	N	0.913074	0.174021	0.888733
C69	C	0.114085	0.991885	0.133333
C70	C	0.070566	1.136246	-0.010992
C71	C	0.110697	1.177273	-0.114389
C72	C	0.194346	1.073927	-0.073458
C73	C	0.237858	0.929568	0.070863
C74	C	0.373015	0.133112	0.992111
C75	C	0.416496	-0.011228	1.136456
C76	C	0.500006	-0.114678	1.177415
C77	C	0.540045	-0.073780	1.074022
C78	C	0.496570	0.070559	0.929682
C79	C	0.603936	0.987507	0.128881
C80	C	0.560429	1.131858	-0.015454
C81	C	0.610709	1.177257	-0.114422
C82	C	0.704496	1.078292	-0.069053
C83	C	0.747997	0.933942	0.075277
C84	C	1.006588	0.074937	0.933958
C85	C	1.050103	-0.069411	1.078296
C86	C	1.000108	-0.114669	1.177408
C87	C	0.906583	-0.015573	1.132173
C88	C	0.863065	0.128769	0.987836
H89	H	0.337530	0.167645	0.621399
O90	O	0.852678	-0.064442	1.239107
H91	H	0.856315	-0.000567	1.247614
O92	O	0.938275	0.097606	1.367464
H93	H	0.877325	0.065643	1.347468
O94	O	0.173148	0.367206	0.097795
H95	H	0.167032	0.309555	0.082155
H96	H	0.227014	1.107350	-0.157661
H97	H	0.738225	0.741604	0.991712
H98	H	0.909965	0.167700	1.621348
O99	O	0.261651	-0.078597	0.402397
H100	H	0.182339	-0.089310	0.379202
H101	H	0.484062	1.212418	-0.052369
H102	H	0.745434	1.115283	-0.149649
O103	O	0.762208	0.235642	0.939064
H104	H	0.785366	0.325977	0.897851
H105	H	0.426168	-0.277891	0.925921
O106	O	0.849154	0.827214	0.124209
H107	H	0.921522	0.865436	0.107036
O108	O	1.060528	0.123721	0.827081
H109	H	1.014573	0.240741	0.719109
O110	O	0.070782	0.947648	0.244838
H111	H	0.005297	1.043766	0.192107
O112	O	0.376881	0.003984	0.754172
H113	H	0.413708	-0.091548	0.874483
O114	O	0.563788	1.332960	-0.270083
H115	H	0.537217	1.336135	-0.343103
H116	H	0.171338	0.535933	0.082569
O117	O	0.451552	-0.500207	1.019677
H118	H	0.536662	-0.573742	1.066047
O119	O	0.417754	-0.597921	0.921978
H120	H	0.452327	-0.660598	1.033130
H121	H	0.238233	0.070982	0.321245
O122	O	0.539774	0.114627	0.818204
H123	H	0.469075	0.158875	0.730892
O124	O	0.193014	0.660484	0.141003
H125	H	0.158422	0.723170	0.029848
O126	O	0.659220	1.019476	0.499986
H127	H	0.574112	1.065827	0.426469
H128	H	0.075258	1.294824	-0.231900
H129	H	1.126251	-0.150080	1.115099
H130	H	0.837528	0.441343	0.895149
H131	H	0.872551	0.321011	1.071210
H132	H	0.939461	0.082382	1.536124
O133	O	1.047051	-0.270357	1.333085
H134	H	1.073957	-0.273514	1.406039
H135	H	0.773249	0.621264	1.167798
O136	O	0.328090	0.818123	0.115003
H137	H	0.348687	0.870922	0.018854
O138	O	0.373287	-0.055335	1.247955
H139	H	0.389155	0.007396	1.255260
H140	H	0.684611	0.925740	0.722310
H141	H	0.700846	0.894931	0.441563
H142	H	0.608043	-0.158028	1.107390
O143	O	-0.019633	1.247705	-0.055116
H144	H	-0.040202	1.194920	0.041042
H145	H	0.305016	0.217327	0.958785
H146	H	0.535397	-0.232205	1.294951
H147	H	0.562983	0.950567	0.209447
