data_functionalizedCrystal
_audit_creation_method	'MofGen! by Chris Wilmer'
_symmetry_space_group_name_H-M	'P1'
_symmetry_Int_Tables_number	1
_symmetry_cell_setting	triclinic
loop_
_symmetry_equiv_pos_as_xyz
  x,y,z
_cell_length_a	6.817900
_cell_length_b	9.109307
_cell_length_c	11.102182
_cell_angle_alpha	97.485041
_cell_angle_beta	108.603774
_cell_angle_gamma	111.764999
loop_
_atom_site_label
_atom_site_type_symbol
_atom_site_fract_x
_atom_site_fract_y
_atom_site_fract_z
V1	V	-4.144577	-0.225375	-0.420842
O2	O	-4.068960	0.010813	-0.387535
O3	O	-4.153848	-0.446865	-0.442292
O4	O	-4.120843	-0.221916	-0.593286
O5	O	-4.102193	-0.215693	-0.235496
V6	V	-4.617536	-0.197124	-0.395717
O7	O	-4.429009	-0.287348	-0.475954
O8	O	-4.783302	-0.135151	-0.340605
O9	O	-4.385059	0.024366	-0.374268
O10	O	-4.810550	-0.433312	-0.429024
O11	O	-4.777317	-0.206806	-0.581064
O12	O	-4.418063	-0.200583	-0.223273
C13	C	-4.012080	-0.500859	-0.441930
C14	C	-4.101111	-0.681929	-0.460618
C15	C	-3.969978	-0.213913	-0.634537
C16	C	-4.032238	-0.212550	-0.775671
C17	C	-4.143539	-0.361063	-0.876406
C18	C	-4.202052	-0.359762	-1.009013
C19	C	-4.037942	-0.061422	-0.940133
C20	C	-3.979446	-0.062725	-0.807530
C21	C	-4.196332	-0.510888	-0.844547
C22	C	-4.307637	-0.659412	-0.945285
C23	C	-4.366150	-0.658112	-1.077891
C24	C	-4.313357	-0.508286	-1.109760
C25	C	-4.190170	0.078351	-0.374626
C26	C	-4.080379	0.259420	-0.355948
C27	C	-4.232271	-0.208592	-0.182016
C28	C	-4.149247	-0.209946	-0.040880
H29	H	-4.148690	-0.511963	-0.736576
H30	H	-4.186955	-0.770254	-0.564562
F31	F	-3.968207	-0.625149	-0.220092
F32	F	-4.363841	-0.818859	-0.911366
H33	H	-4.456796	-0.779048	-1.159911
H34	H	-4.360997	-0.507238	-1.217739
H35	H	-3.994964	0.060559	-0.966092
F36	F	-3.861056	0.095336	-0.700318
