data_functionalizedCrystal
_audit_creation_method	'MofGen! by Chris Wilmer'
_symmetry_space_group_name_H-M	'P1'
_symmetry_Int_Tables_number	1
_symmetry_cell_setting	triclinic
loop_
_symmetry_equiv_pos_as_xyz
  x,y,z
_cell_length_a	19.077105
_cell_length_b	12.594516
_cell_length_c	19.076919
_cell_angle_alpha	92.277239
_cell_angle_beta	90.076224
_cell_angle_gamma	87.712633
loop_
_atom_site_label
_atom_site_type_symbol
_atom_site_fract_x
_atom_site_fract_y
_atom_site_fract_z
Zn1	Zn	1.058319	-0.514930	-0.440450
Zn2	Zn	1.062975	-0.686069	-0.322954
Zn3	Zn	0.945535	-0.500672	-0.318243
Zn4	Zn	0.940797	-0.685427	-0.435707
O5	O	1.001907	-0.596775	-0.379338
O6	O	1.157269	-0.543868	-0.428821
O7	O	1.051328	-0.655777	-0.223998
O8	O	0.960531	-0.353620	-0.334467
O9	O	1.160690	-0.669603	-0.342497
O10	O	1.043393	-0.364096	-0.424253
O11	O	0.965046	-0.519567	-0.220536
O12	O	0.846574	-0.518944	-0.329868
O13	O	0.952455	-0.668509	-0.534668
O14	O	0.843093	-0.654683	-0.416168
O15	O	1.038798	-0.543246	-0.538153
O16	O	1.046733	-0.834927	-0.337898
O17	O	0.956969	-0.834455	-0.420737
C18	C	0.819337	-0.585197	-0.371992
C19	C	0.741233	-0.580271	-0.368866
C20	C	0.702747	-0.648728	-0.412259
C21	C	0.629360	-0.644085	-0.409325
C22	C	0.594459	-0.570991	-0.362994
C23	C	0.632949	-0.502527	-0.319600
C24	C	0.706335	-0.507165	-0.322538
C25	C	0.375169	-0.549525	-0.349400
C26	C	0.301778	-0.544895	-0.346464
C27	C	0.298194	-0.686452	-0.436191
C28	C	0.371582	-0.691088	-0.439121
C29	C	0.410065	-0.622620	-0.395730
N30	N	0.519445	-0.566246	-0.359993
N31	N	0.485078	-0.627361	-0.398735
C32	C	1.001861	-0.873312	-0.379330
C33	C	1.001905	-0.991622	-0.379352
C34	C	0.953079	-1.060655	-0.424375
C35	C	0.938538	-1.126689	-0.359570
C36	C	1.016509	-1.136391	-0.444171
C37	C	0.987331	-1.056094	-0.314511
C38	C	1.065330	-1.065794	-0.399157
C39	C	1.050816	-1.131795	-0.334309
C40	C	1.185189	-0.608398	-0.386714
C41	C	1.263293	-0.613351	-0.389857
C42	C	0.994578	-0.607396	-0.562619
C43	C	0.991455	-0.611923	-0.640723
C44	C	1.001971	-0.319159	-0.379363
C45	C	1.001998	-0.200856	-0.379374
C46	C	1.034940	-0.548834	-0.679231
C47	C	1.031997	-0.553083	-0.752617
C48	C	0.985572	-0.620426	-0.787494
C49	C	0.942083	-0.683517	-0.748980
C50	C	0.945023	-0.679262	-0.675595
C51	C	0.971956	-0.640139	-1.006776
C52	C	0.969021	-0.644391	-1.080166
C53	C	1.058935	-0.513955	-1.083799
C54	C	1.061873	-0.509711	-1.010412
C55	C	1.018381	-0.572798	-0.971905
N56	N	0.982565	-0.624772	-0.862506
N57	N	1.021386	-0.568445	-0.896894
C58	C	1.009247	-0.586120	-0.196772
C59	C	1.012506	-0.581302	-0.118675
H60	H	0.598028	-0.699830	-0.444659
C61	C	0.417033	-0.475372	-0.302246
C62	C	0.460964	-0.535573	-0.258837
C63	C	0.499547	-0.467297	-0.215392
H64	H	0.385815	-0.431160	-0.274170
H65	H	0.444637	-0.432441	-0.330303
H66	H	0.433363	-0.578486	-0.230783
H67	H	0.492196	-0.579782	-0.286894
H68	H	0.527151	-0.424365	-0.243449
H69	H	0.468324	-0.423088	-0.187320
H70	H	0.529363	-0.508133	-0.185938
C71	C	0.409342	-0.770485	-0.489496
C72	C	0.359930	-0.829427	-0.526883
C73	C	0.394689	-0.902572	-0.573299
H74	H	0.439033	-0.817143	-0.463786
H75	H	0.436741	-0.733455	-0.521342
H76	H	0.332543	-0.866455	-0.495042
H77	H	0.330237	-0.782798	-0.552607
H78	H	0.422088	-0.865542	-0.605144
H79	H	0.424379	-0.949222	-0.547583
H80	H	0.361168	-0.942566	-0.598676
C81	C	0.747998	-0.432794	-0.275338
C82	C	0.701729	-0.367810	-0.234120
C83	C	0.740083	-0.299293	-0.190624
H84	H	0.775569	-0.389752	-0.303336
H85	H	0.777826	-0.473447	-0.245785
H86	H	0.671914	-0.327161	-0.263670
H87	H	0.674158	-0.410823	-0.206108
H88	H	0.769910	-0.339945	-0.161071
H89	H	0.767652	-0.256258	-0.218628
H90	H	0.708695	-0.255200	-0.162648
H91	H	1.118911	-1.038859	-0.415922
C92	C	0.264011	-0.465417	-0.296140
C93	C	0.313419	-0.406429	-0.258781
C94	C	0.278654	-0.333202	-0.212424
H95	H	0.236599	-0.502353	-0.264268
H96	H	0.234332	-0.418806	-0.321913
H97	H	0.343087	-0.453033	-0.233009
H98	H	0.340834	-0.369471	-0.290634
H99	H	0.248975	-0.286591	-0.238198
H100	H	0.251243	-0.370146	-0.180557
H101	H	0.312172	-0.293163	-0.187075
H102	H	1.028824	-1.171502	-0.498979
C103	C	1.085431	-0.475895	-0.641334
C104	C	1.132157	-0.536570	-0.601026
C105	C	1.178682	-0.469410	-0.566114
H106	H	1.059789	-0.426138	-0.611574
H107	H	1.110948	-0.438946	-0.674760
H108	H	1.106642	-0.573500	-0.567604
H109	H	1.157814	-0.586324	-0.630769
H110	H	1.204199	-0.432462	-0.599540
H111	H	1.153035	-0.419657	-0.536358
H112	H	1.210395	-0.510569	-0.538766
H113	H	1.067409	-0.501712	-0.783968
H114	H	1.099679	-0.454876	-0.982021
C115	C	0.970686	-1.009387	-0.241453
C116	C	0.909658	-0.944096	-0.243923
C117	C	0.894296	-0.901062	-0.176636
H118	H	1.008618	-0.968556	-0.225053
H119	H	0.963717	-1.065323	-0.210533
H120	H	0.916632	-0.888169	-0.274832
H121	H	0.871713	-0.984903	-0.260310
H122	H	0.887327	-0.956998	-0.145716
H123	H	0.932232	-0.860237	-0.160242
H124	H	0.852884	-0.856766	-0.178302
C125	C	0.256367	-0.760598	-0.483390
C126	C	0.212466	-0.700384	-0.526820
C127	C	0.173932	-0.768649	-0.570320
H128	H	0.228742	-0.803564	-0.455395
H129	H	0.287638	-0.804776	-0.511446
H130	H	0.181199	-0.656224	-0.498767
H131	H	0.240074	-0.657420	-0.554830
H132	H	0.205202	-0.812827	-0.598376
H133	H	0.146310	-0.811612	-0.542319
H134	H	0.144145	-0.727804	-0.599797
C135	C	0.897828	-1.019040	-0.474966
C136	C	0.831578	-1.049698	-0.453912
C137	C	0.780663	-1.011369	-0.500490
H138	H	0.907632	-1.047630	-0.520894
H139	H	0.898418	-0.943643	-0.474904
H140	H	0.830989	-1.125080	-0.453982
H141	H	0.821752	-1.021110	-0.407992
H142	H	0.781253	-0.935972	-0.500428
H143	H	0.790473	-1.039961	-0.546415
H144	H	0.735706	-1.032156	-0.486208
C145	C	1.106065	-0.445498	-1.125731
C146	C	1.093544	-0.463612	-1.197463
C147	C	1.136940	-0.400552	-1.236111
H148	H	1.153782	-0.463308	-1.115692
H149	H	1.096268	-0.372615	-1.113335
H150	H	1.103346	-0.536479	-1.209854
H151	H	1.045835	-0.445797	-1.207523
H152	H	1.127143	-0.327669	-1.223715
H153	H	1.184654	-0.418367	-1.226066
H154	H	1.128445	-0.412826	-1.284785
C155	C	0.897726	-0.747583	-0.633747
C156	C	0.854373	-0.682024	-0.589820
C157	C	0.810784	-0.744923	-0.551270
H158	H	0.925661	-0.794018	-0.606138
H159	H	0.869619	-0.788276	-0.665007
H160	H	0.882477	-0.641348	-0.558564
H161	H	0.826423	-0.635589	-0.617411
H162	H	0.782677	-0.785617	-0.582530
H163	H	0.838725	-0.791356	-0.523665
H164	H	0.781359	-0.700451	-0.521466
C165	C	1.105840	-1.173115	-0.283381
C166	C	1.090268	-1.132086	-0.215653
C167	C	1.140932	-1.170140	-0.168717
H168	H	1.150772	-1.151307	-0.296955
H169	H	1.105828	-1.248575	-0.283902
H170	H	1.090288	-1.056642	-0.215134
H171	H	1.045345	-1.153891	-0.202057
H172	H	1.140920	-1.245600	-0.169239
H173	H	1.185861	-1.148329	-0.182298
H174	H	1.130370	-1.142316	-0.122758
C175	C	0.918561	-0.717331	-1.118117
C176	C	0.871867	-0.656643	-1.158452
C177	C	0.825381	-0.723795	-1.193427
H178	H	0.893009	-0.754313	-1.084748
H179	H	0.944257	-0.767063	-1.147863
H180	H	0.846174	-0.606930	-1.128708
H181	H	0.897400	-0.619663	-1.191833
H182	H	0.851077	-0.773526	-1.223173
H183	H	0.799834	-0.760773	-1.160053
H184	H	0.793698	-0.682629	-1.220803
H185	H	0.604527	-0.443008	-0.281879
C186	C	0.924696	-0.708737	-0.965099
C187	C	0.883421	-0.768635	-1.011352
C188	C	0.839875	-0.831844	-0.972982
H189	H	0.895175	-0.664517	-0.935245
H190	H	0.952681	-0.755222	-0.937556
H191	H	0.855439	-0.722156	-1.038884
H192	H	0.912923	-0.812875	-1.041207
H193	H	0.867860	-0.878328	-0.945439
H194	H	0.810359	-0.787615	-0.943130
H195	H	0.811869	-0.872499	-1.004359
H196	H	0.884944	-1.153628	-0.342835
C197	C	0.891793	-0.756773	-0.786886
C198	C	0.929878	-0.829978	-0.830598
C199	C	0.883576	-0.897490	-0.865519
H200	H	0.860024	-0.715902	-0.814341
H201	H	0.866326	-0.793800	-0.753462
H202	H	0.955333	-0.792954	-0.864017
H203	H	0.961645	-0.870873	-0.803160
H204	H	0.858109	-0.934517	-0.832096
H205	H	0.851809	-0.856610	-0.892970
H206	H	0.909410	-0.947173	-0.895177
H207	H	0.731159	-0.708252	-0.449984
