data_functionalizedCrystal
_audit_creation_method	'MofGen! by Chris Wilmer'
_symmetry_space_group_name_H-M	'P1'
_symmetry_Int_Tables_number	1
_symmetry_cell_setting	triclinic
loop_
_symmetry_equiv_pos_as_xyz
  x,y,z
_cell_length_a	14.519709
_cell_length_b	19.188924
_cell_length_c	13.596369
_cell_angle_alpha	90.002463
_cell_angle_beta	90.000208
_cell_angle_gamma	96.588945
loop_
_atom_site_label
_atom_site_type_symbol
_atom_site_fract_x
_atom_site_fract_y
_atom_site_fract_z
O1	O	-1.223299	0.091519	0.081656
O2	O	-0.954754	0.102297	0.081689
O3	O	-1.096779	-0.004720	0.081660
O4	O	-1.081274	0.198536	0.081685
O5	O	-1.096762	-0.004714	-0.081923
O6	O	-0.954737	0.102303	-0.081894
O7	O	-1.223281	0.091525	-0.081927
Zn8	Zn	-1.089006	0.096915	-0.107883
Zn9	Zn	-1.089029	0.096907	0.107645
O10	O	-1.081256	0.198542	-0.081898
C11	C	-0.920389	0.101798	-0.000098
C12	C	-0.818017	0.100292	-0.000086
C13	C	-1.096270	-0.030730	-0.000132
C14	C	-1.094765	-0.108240	-0.000135
C15	C	-0.443156	0.094751	-0.000128
C16	C	-0.547454	0.096290	-0.000116
C17	C	-0.630583	0.097522	-0.000106
C18	C	-0.734888	0.099061	-0.000096
C19	C	-1.094073	-0.144645	0.089035
C20	C	-1.092647	-0.217473	0.089042
C21	C	-1.091931	-0.253895	-0.000124
C22	C	-1.092619	-0.217481	-0.089306
C23	C	-1.094036	-0.144654	-0.089311
N24	N	-1.142180	-0.373377	-0.066495
N25	N	-1.140835	-0.442560	-0.066484
C26	C	-1.087660	-0.473319	-0.000114
N27	N	-1.035890	-0.432283	0.066259
N28	N	-1.037239	-0.363094	0.066251
C29	C	-1.090394	-0.332864	-0.000129
C30	C	-1.085419	-0.588692	0.089069
C31	C	-1.083987	-0.661521	0.089073
C32	C	-1.083968	-0.661528	-0.089277
C33	C	-1.085391	-0.588700	-0.089279
C34	C	-1.086121	-0.552287	-0.000102
C35	C	-0.257646	0.092024	-0.000135
C36	C	-0.360018	0.093529	-0.000133
C37	C	-1.081766	0.224552	-0.000103
C38	C	-1.083270	0.302062	-0.000094
N39	N	-1.088997	0.096920	-0.254974
C40	C	-1.089002	0.096921	-0.343972
C41	C	-1.089011	0.096916	-0.455624
C42	C	-1.089023	0.096909	-0.544614
C43	C	-1.089033	0.096904	-0.656273
N44	N	-1.089046	0.096897	0.254737
H45	H	-1.092077	-0.247119	0.161657
H46	H	-1.092033	-0.247140	-0.161906
C47	C	-1.083101	-0.700943	0.185968
C48	C	-1.004151	-0.675453	0.239803
C49	C	-1.003315	-0.711745	0.329075
H50	H	-1.082103	-0.749538	0.173347
H51	H	-1.137084	-0.694244	0.222639
H52	H	-0.950182	-0.682157	0.203140
H53	H	-1.005132	-0.626862	0.252451
H54	H	-1.057299	-0.705047	0.365746
H55	H	-1.002320	-0.760339	0.316444
H56	H	-0.949754	-0.694451	0.365617
C57	C	-1.094835	-0.105255	-0.186232
C58	C	-1.093921	-0.152737	-0.264323
C59	C	-1.094670	-0.116468	-0.353620
H60	H	-1.041637	-0.071584	-0.190069
H61	H	-1.149177	-0.082123	-0.190002
H62	H	-1.039585	-0.175858	-0.260553
H63	H	-1.147115	-0.186409	-0.260517
H64	H	-1.149012	-0.093336	-0.357391
H65	H	-1.041471	-0.082798	-0.357448
H66	H	-1.094058	-0.148680	-0.406616
C67	C	-1.094929	-0.105037	0.185786
C68	C	-1.175024	-0.070939	0.191061
C69	C	-1.175795	-0.034426	0.280163
H70	H	-1.041741	-0.071346	0.189476
H71	H	-1.094326	-0.137097	0.238966
H72	H	-1.175619	-0.038882	0.137896
H73	H	-1.228225	-0.104614	0.187389
H74	H	-1.175192	-0.066486	0.333343
H75	H	-1.122604	-0.000739	0.283844
H76	H	-1.230143	-0.011292	0.283757
H77	H	-1.083379	-0.691182	-0.161879
H78	H	-1.086008	-0.559042	0.161682
H79	H	-1.085963	-0.559060	-0.161890
