data_functionalizedCrystal
_audit_creation_method	'MofGen! by Chris Wilmer'
_symmetry_space_group_name_H-M	'P1'
_symmetry_Int_Tables_number	1
_symmetry_cell_setting	triclinic
loop_
_symmetry_equiv_pos_as_xyz
  x,y,z
_cell_length_a	17.038272
_cell_length_b	17.038272
_cell_length_c	12.503572
_cell_angle_alpha	93.777379
_cell_angle_beta	86.232200
_cell_angle_gamma	91.111556
loop_
_atom_site_label
_atom_site_type_symbol
_atom_site_fract_x
_atom_site_fract_y
_atom_site_fract_z
O1	O	1.052975	0.166301	-0.089187
O2	O	1.302975	0.416301	0.160813
O3	O	1.552975	0.666301	0.410813
O4	O	1.802975	0.916301	0.660813
O5	O	0.825165	0.163592	-0.089218
O6	O	1.075165	0.413592	0.160782
O7	O	1.325165	0.663592	0.410782
O8	O	1.575165	0.913592	0.660782
O9	O	0.937715	0.051041	-0.089194
O10	O	1.187715	0.301041	0.160806
O11	O	1.437715	0.551041	0.410806
O12	O	1.687715	0.801041	0.660806
O13	O	0.940424	0.278852	-0.089211
O14	O	1.190424	0.528852	0.160789
O15	O	1.440424	0.778852	0.410789
O16	O	1.690424	1.028852	0.660789
O17	O	0.929252	0.059521	0.089446
O18	O	1.179252	0.309521	0.339446
O19	O	1.429252	0.559521	0.589446
O20	O	1.679252	0.809521	0.839446
O21	O	0.816701	0.172071	0.089422
O22	O	1.066701	0.422071	0.339422
O23	O	1.316701	0.672071	0.589422
O24	O	1.566701	0.922071	0.839422
O25	O	1.044511	0.174781	0.089454
O26	O	1.294511	0.424781	0.339454
O27	O	1.544511	0.674781	0.589454
O28	O	1.794511	0.924781	0.839454
Cu29	Cu	0.929833	0.174200	0.105749
Cu30	Cu	1.179833	0.424200	0.355749
Cu31	Cu	1.429833	0.674200	0.605749
Cu32	Cu	1.679833	0.924200	0.855749
Cu33	Cu	0.939842	0.164172	-0.105514
Cu34	Cu	1.189842	0.414172	0.144486
Cu35	Cu	1.439842	0.664172	0.394486
Cu36	Cu	1.689842	0.914172	0.644486
O37	O	0.931960	0.287331	0.089429
O38	O	1.181960	0.537331	0.339429
O39	O	1.431960	0.787331	0.589429
O40	O	1.681960	1.037331	0.839429
C41	C	0.791640	0.165368	0.000098
C42	C	1.041640	0.415368	0.250098
C43	C	1.291640	0.665368	0.500098
C44	C	1.541640	0.915368	0.750098
C45	C	0.704357	0.158020	0.000086
C46	C	0.954357	0.408020	0.250086
C47	C	1.204357	0.658020	0.500086
C48	C	1.454357	0.908020	0.750086
C49	C	0.658748	0.225483	0.000082
C50	C	0.908748	0.475483	0.250082
C51	C	1.158748	0.725483	0.500082
C52	C	1.408748	0.975483	0.750082
C53	C	0.576736	0.218575	0.000097
C54	C	0.826736	0.468575	0.250097
C55	C	1.076736	0.718575	0.500097
C56	C	1.326736	0.968575	0.750097
C57	C	0.540334	0.144202	0.000109
C58	C	0.790334	0.394202	0.250109
C59	C	1.040334	0.644202	0.500109
C60	C	1.290334	0.894202	0.750109
C61	C	0.585949	0.076734	0.000116
C62	C	0.835949	0.326734	0.250116
C63	C	1.085949	0.576734	0.500116
C64	C	1.335949	0.826734	0.750116
C65	C	0.667960	0.083643	0.000109
C66	C	0.917960	0.333643	0.250109
C67	C	1.167960	0.583643	0.500109
C68	C	1.417960	0.833643	0.750109
C69	C	0.292945	0.119793	0.000140
C70	C	0.542945	0.369793	0.250140
C71	C	0.792945	0.619793	0.500140
C72	C	1.042945	0.869793	0.750140
C73	C	0.210928	0.112889	0.000144
C74	C	0.460928	0.362889	0.250144
C75	C	0.710928	0.612889	0.500144
C76	C	0.960928	0.862889	0.750144
C77	C	0.201720	0.254731	0.000127
C78	C	0.451720	0.504731	0.250127
C79	C	0.701720	0.754731	0.500127
C80	C	0.951720	1.004731	0.750127
C81	C	0.283733	0.261633	0.000113
C82	C	0.533733	0.511633	0.250113
C83	C	0.783733	0.761633	0.500113
C84	C	1.033733	1.011633	0.750113
C85	C	0.329341	0.194165	0.000126
C86	C	0.579341	0.444165	0.250126
C87	C	0.829341	0.694165	0.500126
C88	C	1.079341	0.944165	0.750126
C89	C	0.456504	0.137139	0.000121
C90	C	0.706504	0.387139	0.250121
C91	C	0.956504	0.637139	0.500121
C92	C	1.206504	0.887139	0.750121
C93	C	0.413169	0.201229	0.000121
C94	C	0.663169	0.451229	0.250121
C95	C	0.913169	0.701229	0.500121
C96	C	1.163169	0.951229	0.750121
C97	C	0.931021	0.025988	0.000126
C98	C	1.181021	0.275988	0.250126
C99	C	1.431021	0.525988	0.500126
C100	C	1.681021	0.775988	0.750126
C101	C	0.923673	-0.061296	0.000124
C102	C	1.173673	0.188704	0.250124
C103	C	1.423673	0.438704	0.500124
C104	C	1.673673	0.688704	0.750124
C105	C	0.991136	-0.106904	0.000135
C106	C	1.241136	0.143096	0.250135
C107	C	1.491136	0.393096	0.500135
C108	C	1.741136	0.643096	0.750135
C109	C	0.984227	-0.188917	0.000124
C110	C	1.234227	0.061083	0.250124
C111	C	1.484227	0.311083	0.500124
C112	C	1.734227	0.561083	0.750124
C113	C	0.909855	-0.225318	0.000110
C114	C	1.159855	0.024682	0.250110
C115	C	1.409855	0.274682	0.500110
C116	C	1.659855	0.524682	0.750110
C117	C	0.842387	-0.179704	0.000096
C118	C	1.092387	0.070296	0.250096
C119	C	1.342387	0.320296	0.500096
C120	C	1.592387	0.570296	0.750096
C121	C	0.849296	-0.097693	0.000099
C122	C	1.099296	0.152307	0.250099
C123	C	1.349296	0.402307	0.500099
C124	C	1.599296	0.652307	0.750099
C125	C	0.885445	-0.472707	0.000092
C126	C	1.135445	-0.222707	0.250092
C127	C	1.385445	0.027293	0.500092
C128	C	1.635445	0.277293	0.750092
C129	C	0.878540	-0.554724	0.000091
C130	C	1.128540	-0.304724	0.250091
C131	C	1.378540	-0.054724	0.500091
C132	C	1.628540	0.195276	0.750091
C133	C	1.020382	-0.563931	0.000117
C134	C	1.270382	-0.313931	0.250117
C135	C	1.520382	-0.063931	0.500117
C136	C	1.770382	0.186069	0.750117
C137	C	1.027285	-0.481918	0.000127
C138	C	1.277285	-0.231918	0.250127
C139	C	1.527285	0.018082	0.500127
C140	C	1.777285	0.268082	0.750127
C141	C	0.959817	-0.436311	0.000107
C142	C	1.209817	-0.186311	0.250107
C143	C	1.459817	0.063689	0.500107
C144	C	1.709817	0.313689	0.750107
C145	C	0.902791	-0.309148	0.000102
C146	C	1.152791	-0.059148	0.250102
C147	C	1.402791	0.190852	0.500102
C148	C	1.652791	0.440852	0.750102
C149	C	0.966881	-0.352483	0.000108
C150	C	1.216881	-0.102483	0.250108
C151	C	1.466881	0.147517	0.500108
C152	C	1.716881	0.397517	0.750108
C153	C	1.078036	0.173004	0.000135
C154	C	1.328036	0.423004	0.250135
C155	C	1.578036	0.673004	0.500135
C156	C	1.828036	0.923004	0.750135
C157	C	1.165319	0.180352	0.000140
C158	C	1.415319	0.430352	0.250140
C159	C	1.665319	0.680352	0.500140
C160	C	1.915319	0.930352	0.750140
C161	C	0.938655	0.312384	0.000107
C162	C	1.188655	0.562384	0.250107
C163	C	1.438655	0.812384	0.500107
C164	C	1.688655	1.062384	0.750107
C165	C	0.946004	0.399668	0.000102
C166	C	1.196004	0.649668	0.250102
C167	C	1.446004	0.899668	0.500102
C168	C	1.696004	1.149668	0.750102
N169	N	0.922799	0.181253	0.254340
N170	N	1.172799	0.431253	0.504340
N171	N	1.422799	0.681253	0.754340
N172	N	1.672799	0.931253	1.004340
N173	N	0.946882	0.157113	-0.254104
N174	N	1.196882	0.407113	-0.004104
N175	N	1.446882	0.657113	0.245896
N176	N	1.696882	0.907113	0.495896
C177	C	0.912452	0.191635	0.473453
C178	C	1.162452	0.441635	0.723453
C179	C	1.412452	0.691635	0.973453
C180	C	1.662452	0.941635	1.223453
C181	C	0.957227	0.146734	0.526789
C182	C	1.207227	0.396734	0.776789
C183	C	1.457227	0.646734	1.026789
C184	C	1.707227	0.896734	1.276789
C185	C	0.951470	0.152511	0.648711
C186	C	1.201470	0.402511	0.898711
C187	C	1.451470	0.652511	1.148711
C188	C	1.701470	0.902511	1.398711
C189	C	0.918208	0.185859	0.351520
C190	C	1.168208	0.435859	0.601520
C191	C	1.418208	0.685859	0.851520
C192	C	1.668208	0.935859	1.101520
H193	H	0.539604	0.273511	0.000093
H194	H	0.789604	0.523511	0.250093
H195	H	1.039604	0.773511	0.500093
H196	H	1.289604	1.023511	0.750093
H197	H	0.781831	-0.209349	0.000078
H198	H	1.031831	0.040651	0.250078
H199	H	1.281831	0.290651	0.500078
H200	H	1.531831	0.540651	0.750078
F201	F	0.451911	0.280380	0.000113
F202	F	0.701911	0.530380	0.250113
F203	F	0.951911	0.780380	0.500113
F204	F	1.201911	1.030380	0.750113
H205	H	0.794360	-0.060559	0.000091
H206	H	1.044360	0.189441	0.250091
H207	H	1.294360	0.439441	0.500091
H208	H	1.544360	0.689441	0.750091
H209	H	0.426855	0.076586	0.000161
H210	H	0.676855	0.326586	0.250161
H211	H	0.926855	0.576586	0.500161
H212	H	1.176855	0.826586	0.750161
F213	F	0.823641	-0.347897	0.000082
F214	F	1.073641	-0.097897	0.250082
F215	F	1.323641	0.152103	0.500082
F216	F	1.573641	0.402103	0.750082
F217	F	0.697482	0.304641	0.000062
F218	F	0.947482	0.554641	0.250062
F219	F	1.197482	0.804641	0.500062
F220	F	1.447482	1.054641	0.750062
F221	F	0.322469	0.340790	0.000095
F222	F	0.572469	0.590790	0.250095
F223	F	0.822469	0.840790	0.500095
F224	F	1.072469	1.090790	0.750095
H225	H	0.999884	0.103955	0.480886
H226	H	1.249884	0.353955	0.730886
H227	H	1.499884	0.603955	0.980886
H228	H	1.749884	0.853955	1.230886
H229	H	0.164578	0.309659	0.000119
H230	H	0.414578	0.559659	0.250119
H231	H	0.664578	0.809659	0.500119
H232	H	0.914578	1.059659	0.750119
F233	F	0.172188	0.033728	0.000175
F234	F	0.422188	0.283728	0.250175
F235	F	0.672188	0.533728	0.500175
F236	F	0.922188	0.783728	0.750175
F237	F	1.046032	-0.313741	0.000116
F238	F	1.296032	-0.063741	0.250116
F239	F	1.546032	0.186259	0.500116
F240	F	1.796032	0.436259	0.750116
F241	F	0.856701	0.247550	0.533446
F242	F	1.106701	0.497550	0.783446
F243	F	1.356701	0.747550	1.033446
F244	F	1.606701	0.997550	1.283446
H245	H	0.330069	0.064855	0.000151
H246	H	0.580069	0.314855	0.250151
H247	H	0.830069	0.564855	0.500151
H248	H	1.080069	0.814855	0.750151
H249	H	0.705094	0.028707	0.000111
H250	H	0.955094	0.278707	0.250111
H251	H	1.205094	0.528707	0.500111
H252	H	1.455094	0.778707	0.750111
F253	F	0.547205	-0.002419	0.000136
F254	F	0.797205	0.247581	0.250136
F255	F	1.047205	0.497581	0.500136
F256	F	1.297205	0.747581	0.750136
H257	H	1.051698	-0.077272	0.000153
H258	H	1.301698	0.172728	0.250153
H259	H	1.551698	0.422728	0.500153
H260	H	1.801698	0.672728	0.750153
F261	F	1.056032	-0.237454	0.000137
F262	F	1.306032	0.012546	0.250137
F263	F	1.556032	0.262546	0.500137
F264	F	1.806032	0.512546	0.750137
H265	H	1.087846	-0.452286	0.000138
H266	H	1.337846	-0.202286	0.250138
H267	H	1.587846	0.047714	0.500138
H268	H	1.837846	0.297714	0.750138
F269	F	1.092181	-0.612475	0.000136
F270	F	1.342181	-0.362475	0.250136
F271	F	1.592181	-0.112475	0.500136
F272	F	1.842181	0.137525	0.750136
H273	H	0.830508	-0.435583	0.000076
H274	H	1.080508	-0.185583	0.250076
H275	H	1.330508	0.064417	0.500076
H276	H	1.580508	0.314417	0.750076
F277	F	0.799379	-0.593463	0.000082
F278	F	1.049379	-0.343463	0.250082
F279	F	1.299379	-0.093463	0.500082
F280	F	1.549379	0.156537	0.750082
