data_functionalizedCrystal
_audit_creation_method	'MofGen! by Chris Wilmer'
_symmetry_space_group_name_H-M	'P1'
_symmetry_Int_Tables_number	1
_symmetry_cell_setting	triclinic
loop_
_symmetry_equiv_pos_as_xyz
  x,y,z
_cell_length_a	19.188930
_cell_length_b	19.188930
_cell_length_c	17.666332
_cell_angle_alpha	89.988397
_cell_angle_beta	89.976766
_cell_angle_gamma	83.144779
loop_
_atom_site_label
_atom_site_type_symbol
_atom_site_fract_x
_atom_site_fract_y
_atom_site_fract_z
O1	O	0.926150	0.087169	-0.063200
O2	O	1.426150	0.587169	0.436800
O3	O	0.722838	0.098903	-0.063149
O4	O	1.222838	0.598903	0.436851
O5	O	0.830361	-0.008620	-0.063161
O6	O	1.330361	0.491380	0.436839
O7	O	0.818627	0.194692	-0.063188
O8	O	1.318627	0.694692	0.436812
O9	O	0.830342	-0.008625	0.062735
O10	O	1.330342	0.491375	0.562735
O11	O	0.722820	0.098897	0.062747
O12	O	1.222820	0.598897	0.562747
O13	O	0.926131	0.087163	0.062697
O14	O	1.426131	0.587163	0.562697
Cu15	Cu	0.824473	0.093030	0.074217
Cu16	Cu	1.324473	0.593030	0.574217
Cu17	Cu	0.824496	0.093036	-0.074670
Cu18	Cu	1.324496	0.593036	0.425330
O19	O	0.818608	0.194686	0.062709
O20	O	1.318608	0.694686	0.562709
C21	C	0.696818	0.098520	-0.000194
C22	C	1.196818	0.598520	0.499806
C23	C	0.619313	0.097380	-0.000174
C24	C	1.119313	0.597380	0.499826
C25	C	0.574389	0.160470	-0.000194
C26	C	1.074389	0.660470	0.499806
C27	C	0.501566	0.159399	-0.000203
C28	C	1.001566	0.659399	0.499797
C29	C	0.473669	0.095233	-0.000206
C30	C	0.973669	0.595233	0.499794
C31	C	0.518603	0.032133	-0.000181
C32	C	1.018603	0.532133	0.499819
C33	C	0.591425	0.033207	-0.000166
C34	C	1.091425	0.533207	0.499834
N35	N	0.365695	0.046188	-0.043078
N36	N	0.865695	0.546188	0.456922
N37	N	0.296517	0.045172	-0.043095
N38	N	0.796517	0.545172	0.456905
C39	C	0.254260	0.091994	-0.000252
C40	C	0.754260	0.591994	0.499748
N41	N	0.283795	0.139881	0.042599
N42	N	0.783795	0.639881	0.542599
N43	N	0.352979	0.140899	0.042612
N44	N	0.852979	0.640899	0.542612
C45	C	0.394707	0.094062	-0.000222
C46	C	0.894707	0.594062	0.499778
C47	C	0.130372	0.153928	-0.000280
C48	C	0.630372	0.653928	0.499720
C49	C	0.057547	0.152853	-0.000283
C50	C	0.557547	0.652853	0.499717
C51	C	0.074586	0.025586	-0.000270
C52	C	0.574586	0.525586	0.499730
C53	C	0.147409	0.026662	-0.000258
C54	C	0.647409	0.526662	0.499742
C55	C	0.175298	0.090835	-0.000267
C56	C	0.675298	0.590835	0.499733
C57	C	0.829972	-0.034634	-0.000211
C58	C	1.329972	0.465366	0.499789
C59	C	0.828831	-0.112138	-0.000204
C60	C	1.328831	0.387862	0.499796
C61	C	0.891922	-0.157062	-0.000216
C62	C	1.391922	0.342938	0.499784
C63	C	0.890850	-0.229886	-0.000228
C64	C	1.390850	0.270114	0.499772
C65	C	0.826684	-0.257782	-0.000212
C66	C	1.326684	0.242218	0.499788
C67	C	0.763585	-0.212849	-0.000205
C68	C	1.263585	0.287151	0.499795
C69	C	0.764658	-0.140026	-0.000200
C70	C	1.264658	0.359974	0.499800
N71	N	0.777630	-0.365789	0.042645
N72	N	1.277630	0.134211	0.542645
N73	N	0.776615	-0.434968	0.042642
N74	N	1.276615	0.065032	0.542642
C75	C	0.823446	-0.477191	-0.000227
C76	C	1.323446	0.022809	0.499773
N77	N	0.871341	-0.447624	-0.043084
N78	N	1.371341	0.052376	0.456916
N79	N	0.872359	-0.378439	-0.043079
N80	N	1.372359	0.121561	0.456921
C81	C	0.825513	-0.336745	-0.000218
C82	C	1.325513	0.163255	0.499782
C83	C	0.885379	-0.601079	-0.000253
C84	C	1.385379	-0.101079	0.499747
C85	C	0.884305	-0.673904	-0.000270
C86	C	1.384305	-0.173904	0.499730
C87	C	0.757038	-0.656865	-0.000239
C88	C	1.257038	-0.156865	0.499761
C89	C	0.758114	-0.584042	-0.000230
C90	C	1.258114	-0.084042	0.499770
C91	C	0.822287	-0.556154	-0.000233
C92	C	1.322287	-0.056154	0.499767
C93	C	0.952151	0.087546	-0.000260
C94	C	1.452151	0.587546	0.499740
C95	C	1.029656	0.088687	-0.000285
C96	C	1.529656	0.588687	0.499715
C97	C	0.818997	0.220700	-0.000244
C98	C	1.318997	0.720700	0.499756
C99	C	0.820138	0.298204	-0.000255
C100	C	1.320138	0.798204	0.499745
N101	N	0.824463	0.093025	0.178937
N102	N	1.324463	0.593025	0.678937
N103	N	0.824512	0.093036	-0.179390
N104	N	1.324512	0.593036	0.320610
C105	C	0.872089	0.045437	0.218541
C106	C	1.372089	0.545437	0.718541
C107	C	0.872093	0.045433	0.297789
C108	C	1.372093	0.545433	0.797789
C109	C	0.824478	0.093030	0.337429
C110	C	1.324478	0.593030	0.837429
C111	C	0.776842	0.140621	0.297815
C112	C	1.276842	0.640621	0.797815
C113	C	0.776835	0.140619	0.218569
C114	C	1.276835	0.640619	0.718569
N115	N	0.815401	0.154837	0.461841
N116	N	1.315401	0.654837	0.961841
N117	N	0.815413	0.154837	0.537121
N118	N	1.315413	0.654837	1.037121
C119	C	0.824496	0.093040	0.576193
C120	C	1.324496	0.593040	1.076193
N121	N	0.833582	0.031239	0.537140
N122	N	1.333582	0.531239	1.037140
N123	N	0.833574	0.031240	0.461853
N124	N	1.333574	0.531240	0.961853
C125	C	0.824480	0.093038	0.423358
C126	C	1.324480	0.593038	0.923358
C127	C	0.872130	0.045444	0.701727
C128	C	1.372130	0.545444	1.201727
C129	C	0.872129	0.045440	0.780976
C130	C	1.372129	0.545440	1.280976
C131	C	0.776881	0.140634	0.781000
C132	C	1.276881	0.640634	1.281000
C133	C	0.776878	0.140632	0.701753
C134	C	1.276878	0.640632	1.201753
C135	C	0.824506	0.093038	0.662121
C136	C	1.324506	0.593038	1.162121
H137	H	0.051874	-0.026659	-0.000319
H138	H	0.551874	0.473341	0.499681
O139	O	0.601569	0.222758	-0.000108
O140	O	1.101569	0.722758	0.499892
C141	C	0.643139	0.227201	0.065106
C142	C	1.143139	0.727201	0.565106
H143	H	0.661426	0.172118	0.086868
H144	H	1.161426	0.672118	0.586868
H145	H	0.690754	0.254876	0.050436
H146	H	1.190754	0.754876	0.550436
H147	H	0.610852	0.258202	0.110749
H148	H	1.110852	0.758202	0.610749
H149	H	0.935683	-0.710481	-0.000284
H150	H	1.435683	-0.210481	0.499716
O151	O	0.703305	-0.096483	-0.000151
O152	O	1.203305	0.403517	0.499849
C153	C	0.646437	-0.136716	-0.000163
C154	C	1.146437	0.363284	0.499837
H155	H	0.664321	-0.191131	0.023661
H156	H	1.164321	0.308869	0.523661
H157	H	0.602238	-0.109727	0.036400
H158	H	1.102238	0.390273	0.536400
H159	H	0.626768	-0.141825	-0.060559
H160	H	1.126768	0.358175	0.439441
O161	O	0.696873	-0.540327	-0.000109
O162	O	1.196873	-0.040327	0.499891
C163	C	0.693669	-0.497721	0.065107
C164	C	1.193669	0.002279	0.565107
H165	H	0.749073	-0.494214	0.086833
H166	H	1.249073	0.005786	0.586833
H167	H	0.667497	-0.442903	0.050451
H168	H	1.167497	0.057097	0.550451
H169	H	0.661845	-0.521591	0.110770
H170	H	1.161845	-0.021591	0.610770
O171	O	0.014005	0.214208	-0.000334
O172	O	0.514005	0.714208	0.499666
C173	C	0.054240	0.271074	-0.000320
C174	C	0.554240	0.771074	0.499680
H175	H	0.108659	0.253184	-0.024144
H176	H	0.608659	0.753184	0.475856
H177	H	0.027260	0.315266	-0.036883
H178	H	0.527260	0.815266	0.463117
H179	H	0.059335	0.290755	0.060076
H180	H	0.559335	0.790755	0.560076
H181	H	0.910869	0.006681	0.186275
H182	H	1.410869	0.506681	0.686275
O183	O	0.157504	0.216243	-0.000410
O184	O	0.657504	0.716243	0.499590
C185	C	0.199166	0.220672	-0.065595
C186	C	0.699166	0.720672	0.434405
H187	H	0.182076	0.184247	-0.111172
H188	H	0.682076	0.684247	0.388828
H189	H	0.192472	0.276966	-0.087481
H190	H	0.692472	0.776966	0.412519
H191	H	0.256637	0.204385	-0.050842
H192	H	0.756637	0.704385	0.449158
H193	H	0.738072	0.179374	0.330094
H194	H	1.238072	0.679374	0.830094
H195	H	0.628003	-0.018171	-0.000150
H196	H	1.128003	0.481829	0.499850
H197	H	0.464982	0.210776	-0.000217
H198	H	0.964982	0.710776	0.499783
H199	H	0.937632	-0.578372	-0.000259
H200	H	1.437632	-0.078372	0.499741
H201	H	0.704792	-0.679578	-0.000230
H202	H	1.204792	-0.179578	0.499770
H203	H	0.738109	0.179385	0.813275
H204	H	1.238109	0.679385	1.313275
H205	H	0.183988	-0.024713	-0.000246
H206	H	0.683988	0.475287	0.499754
O207	O	0.918424	-0.000825	0.336154
O208	O	1.418424	0.499175	0.836154
C209	C	0.960443	-0.042849	0.284180
C210	C	1.460443	0.457151	0.784180
H211	H	0.961143	-0.014228	0.227683
H212	H	1.461143	0.485772	0.727683
H213	H	1.016232	-0.053639	0.307054
H214	H	1.516232	0.446361	0.807054
H215	H	0.937933	-0.094660	0.275778
H216	H	1.437933	0.405340	0.775778
H217	H	0.738051	0.179371	0.186322
H218	H	1.238051	0.679371	0.686322
H219	H	0.495885	-0.020111	-0.000194
H220	H	0.995885	0.479889	0.499806
H221	H	0.944176	-0.134360	-0.000222
H222	H	1.444176	0.365640	0.499778
O223	O	0.952094	-0.273605	-0.000134
O224	O	1.452094	0.226395	0.499866
C225	C	0.955269	-0.316236	0.065078
C226	C	1.455269	0.183764	0.565078
H227	H	0.899854	-0.319751	0.086821
H228	H	1.399854	0.180249	0.586821
H229	H	0.981447	-0.371049	0.050411
H230	H	1.481447	0.128951	0.550411
H231	H	0.987072	-0.292383	0.110733
H232	H	1.487072	0.207617	0.610733
O233	O	0.701298	-0.240027	-0.000289
O234	O	1.201298	0.259973	0.499711
C235	C	0.696874	-0.281614	-0.065502
C236	C	1.196874	0.218386	0.434498
H237	H	0.751964	-0.299915	-0.087252
H238	H	1.251964	0.200085	0.412748
H239	H	0.669186	-0.329221	-0.050833
H240	H	1.169186	0.170779	0.449167
H241	H	0.665894	-0.249338	-0.111152
H242	H	1.165894	0.250662	0.388848
H243	H	0.910909	0.006688	0.669457
H244	H	1.410909	0.506688	1.169457
O245	O	0.918464	-0.000815	0.819333
O246	O	1.418464	0.499185	1.319333
C247	C	0.960487	-0.042830	0.767355
C248	C	1.460487	0.457170	1.267355
H249	H	0.961178	-0.014206	0.710858
H250	H	1.461178	0.485794	1.210858
H251	H	1.016278	-0.053611	0.790225
H252	H	1.516278	0.446389	1.290225
H253	H	0.937986	-0.094647	0.758951
H254	H	1.437986	0.405353	1.258951
H255	H	0.738099	0.179386	0.669505
H256	H	1.238099	0.679386	1.169505
