data_functionalizedCrystal
_audit_creation_method	'MofGen! by Chris Wilmer'
_symmetry_space_group_name_H-M	'P1'
_symmetry_Int_Tables_number	1
_symmetry_cell_setting	triclinic
loop_
_symmetry_equiv_pos_as_xyz
  x,y,z
_cell_length_a	18.101398
_cell_length_b	19.121063
_cell_length_c	18.101390
_cell_angle_alpha	92.404924
_cell_angle_beta	89.975319
_cell_angle_gamma	92.464489
loop_
_atom_site_label
_atom_site_type_symbol
_atom_site_fract_x
_atom_site_fract_y
_atom_site_fract_z
Zn1	Zn	1.119561	-0.279674	-0.431399
Zn2	Zn	1.452895	0.053659	-0.098066
Zn3	Zn	1.786228	0.386993	0.235267
Zn4	Zn	1.114180	-0.397138	-0.312833
Zn5	Zn	1.447514	-0.063805	0.020500
Zn6	Zn	1.780847	0.269529	0.353833
Zn7	Zn	0.995718	-0.279696	-0.307561
Zn8	Zn	1.329052	0.053637	0.025772
Zn9	Zn	1.662385	0.386970	0.359105
Zn10	Zn	0.990397	-0.397078	-0.436619
Zn11	Zn	1.323731	-0.063745	-0.103286
Zn12	Zn	1.657064	0.269588	0.230047
O13	O	1.054964	-0.338397	-0.372103
O14	O	1.388298	-0.005063	-0.038770
O15	O	1.721631	0.328270	0.294563
O16	O	1.222480	-0.295271	-0.415693
O17	O	1.555813	0.038062	-0.082360
O18	O	1.889146	0.371395	0.250974
O19	O	1.098441	-0.381594	-0.208503
O20	O	1.431774	-0.048260	0.124831
O21	O	1.765107	0.285073	0.458164
O22	O	1.016625	-0.181409	-0.319598
O23	O	1.349959	0.151924	0.013735
O24	O	1.683292	0.485257	0.347069
O25	O	1.218526	-0.381572	-0.328583
O26	O	1.551859	-0.048239	0.004750
O27	O	1.885193	0.285095	0.338084
O28	O	1.107612	-0.181393	-0.410581
O29	O	1.440946	0.151940	-0.077248
O30	O	1.774279	0.485274	0.256085
O31	O	1.011407	-0.295310	-0.204629
O32	O	1.344741	0.038024	0.128704
O33	O	1.678074	0.371357	0.462037
O34	O	0.891380	-0.295252	-0.324660
O35	O	1.224714	0.038082	0.008674
O36	O	1.558047	0.371415	0.342007
O37	O	1.007556	-0.381470	-0.539558
O38	O	1.340890	-0.048137	-0.206225
O39	O	1.674223	0.285197	0.127108
O40	O	0.887471	-0.381492	-0.419478
O41	O	1.220804	-0.048158	-0.086144
O42	O	1.554138	0.285175	0.247189
O43	O	1.102453	-0.295213	-0.535723
O44	O	1.435786	0.038120	-0.202390
O45	O	1.769119	0.371453	0.130943
O46	O	1.093281	-0.495414	-0.333645
O47	O	1.426615	-0.162081	-0.000311
O48	O	1.759948	0.171253	0.333022
O49	O	1.002339	-0.495370	-0.424590
O50	O	1.335672	-0.162037	-0.091256
O51	O	1.669005	0.171296	0.242077
C52	C	0.862555	-0.338368	-0.372063
C53	C	1.195888	-0.005035	-0.038730
C54	C	1.529222	0.328298	0.294603
C55	C	0.780241	-0.338373	-0.372065
C56	C	1.113574	-0.005040	-0.038731
C57	C	1.446907	0.328294	0.294602
C58	C	0.481148	-0.338417	-0.372129
C59	C	0.814481	-0.005083	-0.038796
C60	C	1.147814	0.328250	0.294538
C61	C	0.514920	-0.283886	-0.312739
C62	C	0.848254	0.049448	0.020594
C63	C	1.181587	0.382781	0.353928
C64	C	0.600532	-0.284032	-0.312502
C65	C	0.933865	0.049301	0.020831
C66	C	1.267198	0.382635	0.354164
C67	C	0.629531	-0.338394	-0.372097
C68	C	0.962865	-0.005061	-0.038764
C69	C	1.296198	0.328272	0.294570
C70	C	0.595090	-0.412381	-0.354095
C71	C	0.928423	-0.079048	-0.020762
C72	C	1.261756	0.254286	0.312571
C73	C	0.509458	-0.412078	-0.353686
C74	C	0.842792	-0.078745	-0.020352
C75	C	1.176125	0.254589	0.312981
C76	C	0.513608	-0.319604	-0.449683
C77	C	0.846941	0.013729	-0.116350
C78	C	1.180275	0.347062	0.216983
C79	C	0.599333	-0.317957	-0.449182
C80	C	0.932666	0.015377	-0.115848
C81	C	1.265999	0.348710	0.217485
C82	C	0.713391	-0.338386	-0.372080
C83	C	1.046725	-0.005053	-0.038747
C84	C	1.380058	0.328280	0.294586
C85	C	0.397288	-0.338430	-0.372144
C86	C	0.730621	-0.005096	-0.038810
C87	C	1.063954	0.328237	0.294523
C88	C	1.046669	-0.520876	-0.380272
C89	C	1.380002	-0.187543	-0.046938
C90	C	1.713335	0.145791	0.286395
C91	C	1.043188	-0.598942	-0.383791
C92	C	1.376521	-0.265608	-0.050458
C93	C	1.709854	0.067725	0.282876
C94	C	1.088938	-0.635616	-0.338133
C95	C	1.422271	-0.302283	-0.004800
C96	C	1.755605	0.031050	0.328533
C97	C	1.085668	-0.708967	-0.341448
C98	C	1.419002	-0.375634	-0.008114
C99	C	1.752335	-0.042301	0.325219
C100	C	1.036644	-0.745642	-0.390416
C101	C	1.369977	-0.412308	-0.057083
C102	C	1.703311	-0.078975	0.276251
C103	C	0.990892	-0.708962	-0.436079
C104	C	1.324225	-0.375628	-0.102745
C105	C	1.657558	-0.042295	0.230588
C106	C	0.994166	-0.635612	-0.432768
C107	C	1.327499	-0.302279	-0.099434
C108	C	1.660832	0.031054	0.233899
C109	C	1.024392	-0.967110	-0.402783
C110	C	1.357725	-0.633776	-0.069450
C111	C	1.691058	-0.300443	0.263883
C112	C	1.021120	-1.040464	-0.406089
C113	C	1.354453	-0.707131	-0.072756
C114	C	1.687786	-0.373798	0.260577
C115	C	1.115898	-1.040465	-0.311459
C116	C	1.449231	-0.707131	0.021875
C117	C	1.782564	-0.373798	0.355208
C118	C	1.119164	-0.967114	-0.308149
C119	C	1.452497	-0.633781	0.025184
C120	C	1.785831	-0.300447	0.358518
C121	C	1.073415	-0.930440	-0.353814
C122	C	1.406748	-0.597107	-0.020481
C123	C	1.740081	-0.263774	0.312852
C124	C	1.033299	-0.820618	-0.393803
C125	C	1.366632	-0.487285	-0.060470
C126	C	1.699966	-0.153951	0.272863
C127	C	1.076764	-0.855465	-0.350430
C128	C	1.410097	-0.522132	-0.017097
C129	C	1.743430	-0.188799	0.316236
C130	C	1.248125	-0.338426	-0.372144
C131	C	1.581458	-0.005092	-0.038811
C132	C	1.914792	0.328241	0.294523
C133	C	1.330438	-0.338438	-0.372161
C134	C	1.663772	-0.005105	-0.038828
C135	C	1.997105	0.328228	0.294506
C136	C	1.055011	-0.338333	-0.565262
C137	C	1.388345	-0.004999	-0.231929
C138	C	1.721678	0.328334	0.101404
C139	C	1.055031	-0.338305	-0.647575
C140	C	1.388365	-0.004972	-0.314242
C141	C	1.721698	0.328361	0.019091
C142	C	1.063313	-0.155205	-0.363919
C143	C	1.396646	0.178129	-0.030586
C144	C	1.729979	0.511462	0.302747
C145	C	1.066870	-0.077139	-0.360432
C146	C	1.400203	0.256194	-0.027098
C147	C	1.733537	0.589527	0.306235
C148	C	1.055073	-0.338261	-0.946665
C149	C	1.388407	-0.004928	-0.613331
C150	C	1.721740	0.328405	-0.279998
C151	C	1.114959	-0.284182	-0.912935
C152	C	1.448292	0.049151	-0.579602
C153	C	1.781626	0.382484	-0.246268
C154	C	1.114789	-0.283981	-0.827308
C155	C	1.448122	0.049352	-0.493974
C156	C	1.781456	0.382685	-0.160641
C157	C	1.055053	-0.338283	-0.798283
C158	C	1.388386	-0.004950	-0.464950
C159	C	1.721720	0.328384	-0.131616
C160	C	0.977940	-0.318168	-0.828446
C161	C	1.311273	0.015165	-0.495113
C162	C	1.644606	0.348498	-0.161779
C163	C	0.978302	-0.317763	-0.914073
C164	C	1.311635	0.015571	-0.580740
C165	C	1.644969	0.348904	-0.247406
C166	C	1.071607	-0.412595	-0.918417
C167	C	1.404940	-0.079261	-0.585084
C168	C	1.738274	0.254072	-0.251750
C169	C	1.073336	-0.412216	-0.832750
C170	C	1.406670	-0.078882	-0.499417
C171	C	1.740003	0.254451	-0.166083
C172	C	1.055037	-0.338297	-0.714424
C173	C	1.388370	-0.004963	-0.381091
C174	C	1.721703	0.328370	-0.047757
C175	C	1.055084	-0.338246	-1.030523
C176	C	1.388418	-0.004913	-0.697190
C177	C	1.721751	0.328420	-0.363857
C178	C	1.054963	-0.338410	-0.179693
C179	C	1.388296	-0.005077	0.153640
C180	C	1.721629	0.328257	0.486973
C181	C	1.055095	-0.338239	-0.097372
C182	C	1.388428	-0.004906	0.235961
C183	C	1.721762	0.328427	0.569295
H184	H	0.615775	-0.428611	-0.298129
H185	H	0.949109	-0.095277	0.035204
H186	H	1.282442	0.238056	0.368537
H187	H	0.956912	-0.605752	-0.469948
H188	H	1.290245	-0.272419	-0.136615
H189	H	1.623579	0.060914	0.196719
H190	H	0.619084	-0.354780	-0.495534
H191	H	0.952418	-0.021446	-0.162201
H192	H	1.285751	0.311887	0.171133
H193	H	0.491568	-0.359323	-0.493894
H194	H	0.824901	-0.025989	-0.160560
H195	H	1.158234	0.307344	0.172773
H196	H	0.932253	-0.356344	-0.809778
H197	H	1.265587	-0.023010	-0.476444
H198	H	1.598920	0.310323	-0.143111
H199	H	0.494417	-0.266592	-0.466691
H200	H	0.827751	0.066741	-0.133357
H201	H	1.161084	0.400075	0.199976
H202	H	0.950978	-0.738828	-0.475953
H203	H	1.284312	-0.405495	-0.142620
H204	H	1.617645	-0.072161	0.190714
Cl205	Cl	0.907338	-0.375917	-0.948654
Cl206	Cl	1.240671	-0.042584	-0.615320
Cl207	Cl	1.574005	0.290750	-0.281987
H208	H	0.981207	-1.070323	-0.445978
H209	H	1.314541	-0.736989	-0.112645
H210	H	1.647874	-0.403656	0.220688
Cl211	Cl	0.486978	-0.198917	-0.329329
Cl212	Cl	0.820312	0.134416	0.004004
Cl213	Cl	1.153645	0.467749	0.337338
H214	H	0.963896	-0.263426	-0.931622
H215	H	1.297229	0.069908	-0.598289
H216	H	1.630562	0.403241	-0.264956
H217	H	0.624037	-0.229168	-0.323405
H218	H	0.957370	0.104166	0.009928
H219	H	1.290703	0.437499	0.343262
Cl220	Cl	1.138395	-0.809359	-0.288875
Cl221	Cl	1.471728	-0.476026	0.044458
Cl222	Cl	1.805061	-0.142692	0.377792
Cl223	Cl	0.480783	-0.302856	-0.224423
Cl224	Cl	0.814117	0.030478	0.108911
Cl225	Cl	1.147450	0.363811	0.442244
Cl226	Cl	0.966876	-0.921015	-0.460190
Cl227	Cl	1.300210	-0.587682	-0.126857
Cl228	Cl	1.633543	-0.254349	0.206476
H229	H	1.027952	-0.452890	-0.940473
H230	H	1.361285	-0.119556	-0.607140
H231	H	1.694618	0.213777	-0.273806
H232	H	0.620426	-0.296469	-0.254968
H233	H	0.953760	0.036865	0.078366
H234	H	1.287093	0.370198	0.411699
Cl235	Cl	1.098297	-0.198962	-0.791874
Cl236	Cl	1.431631	0.134372	-0.458540
Cl237	Cl	1.764964	0.467705	-0.125207
Cl238	Cl	1.150567	-0.589518	-0.276565
Cl239	Cl	1.483900	-0.256185	0.056769
Cl240	Cl	1.817234	0.077148	0.390102
H241	H	0.488730	-0.428031	-0.297088
H242	H	0.822063	-0.094698	0.036245
H243	H	1.155396	0.238635	0.369578
Cl244	Cl	0.971670	-0.866729	-0.455361
Cl245	Cl	1.305003	-0.533396	-0.122028
Cl246	Cl	1.638336	-0.200063	0.211306
H247	H	1.159083	-0.937255	-0.268275
H248	H	1.492417	-0.603922	0.065058
H249	H	1.825750	-0.270588	0.398392
Cl250	Cl	0.955183	-0.235204	-0.791628
Cl251	Cl	1.288516	0.098129	-0.458295
Cl252	Cl	1.621850	0.431463	-0.124961
H253	H	1.172074	-0.296579	-0.806871
H254	H	1.505408	0.036755	-0.473537
H255	H	1.838741	0.370088	-0.140204
Cl256	Cl	1.156666	-0.440841	-0.953049
Cl257	Cl	1.490000	-0.107507	-0.619716
Cl258	Cl	1.823333	0.225826	-0.286382
H259	H	1.172441	-0.296624	-0.934101
H260	H	1.505774	0.036709	-0.600768
H261	H	1.839107	0.370043	-0.267434
H262	H	1.122922	-0.738825	-0.304268
H263	H	1.456256	-0.405491	0.029066
H264	H	1.789589	-0.072158	0.362399
H265	H	1.130068	-0.427384	-0.813126
H266	H	1.463401	-0.094050	-0.479793
H267	H	1.796735	0.239283	-0.146460
Cl268	Cl	0.474549	-0.476935	-0.417831
Cl269	Cl	0.807882	-0.143601	-0.084497
Cl270	Cl	1.141215	0.189732	0.248836
H271	H	1.032623	-0.454674	-0.813236
H272	H	1.365957	-0.121341	-0.479903
H273	H	1.699290	0.211992	-0.146570
H274	H	1.104431	-0.229422	-0.932012
H275	H	1.437765	0.103911	-0.598679
H276	H	1.771098	0.437245	-0.265346
H277	H	0.622122	-0.263511	-0.462816
H278	H	0.955456	0.069823	-0.129482
H279	H	1.288789	0.403156	0.203851
Cl280	Cl	0.623627	-0.476793	-0.419019
Cl281	Cl	0.956961	-0.143460	-0.085686
Cl282	Cl	1.290294	0.189873	0.247647
H283	H	1.153145	-1.070332	-0.274282
H284	H	1.486478	-0.736999	0.059052
H285	H	1.819812	-0.403666	0.392385
