data_functionalizedCrystal
_audit_creation_method	'MofGen! by Chris Wilmer'
_symmetry_space_group_name_H-M	'P1'
_symmetry_Int_Tables_number	1
_symmetry_cell_setting	triclinic
loop_
_symmetry_equiv_pos_as_xyz
  x,y,z
_cell_length_a	10.654550
_cell_length_b	10.540539
_cell_length_c	9.130313
_cell_angle_alpha	90.000859
_cell_angle_beta	89.996220
_cell_angle_gamma	84.505197
loop_
_atom_site_label
_atom_site_type_symbol
_atom_site_fract_x
_atom_site_fract_y
_atom_site_fract_z
O1	O	1.667897	0.178295	-0.121912
O2	O	1.302424	0.195282	-0.121888
O3	O	1.493499	0.002079	-0.121899
O4	O	1.476823	0.371498	-0.121902
O5	O	1.493496	0.002084	0.121700
O6	O	1.302422	0.195287	0.121711
O7	O	1.667894	0.178300	0.121686
Cu8	Cu	1.485158	0.186794	0.143941
Cu9	Cu	1.485161	0.186788	-0.144143
O10	O	1.476820	0.371503	0.121697
C11	C	1.255625	0.194038	-0.000086
C12	C	1.116180	0.190306	-0.000077
C13	C	1.036734	0.304061	-0.000099
C14	C	0.905712	0.300547	-0.000124
C15	C	0.933595	0.069513	-0.000111
C16	C	1.064614	0.073028	-0.000075
C17	C	1.020636	0.437446	-0.000113
C18	C	0.889614	0.433932	-0.000138
C19	C	1.492247	-0.045221	-0.000102
C20	C	1.488505	-0.186168	-0.000110
C21	C	1.345134	-0.369543	-0.000647
C22	C	1.348927	-0.222926	-0.000099
C23	C	1.555675	-0.247846	0.138993
C24	C	1.550912	-0.394389	0.139110
C25	C	1.553753	-0.394914	-0.137907
C26	C	1.555039	-0.247933	-0.139747
C27	C	1.714694	0.179545	-0.000119
C28	C	1.854139	0.183276	-0.000138
C29	C	1.478072	0.418803	-0.000103
C30	C	1.481813	0.559750	-0.000105
N31	N	1.485165	0.186798	0.346564
N32	N	1.485163	0.186774	-0.346765
C33	C	1.569795	0.101277	0.423211
C34	C	1.569791	0.101262	0.576548
C35	C	1.400525	0.272300	0.576577
C36	C	1.400523	0.272308	0.423243
C37	C	1.667523	0.002533	0.423195
C38	C	1.667520	0.002518	0.576532
H39	H	0.843956	0.474245	0.105030
H40	H	1.651295	-0.442394	0.145414
H41	H	1.295701	-0.181149	0.099788
O42	O	1.309244	0.364537	0.659278
H43	H	1.323466	0.350171	0.778778
O44	O	0.877973	-0.056974	-0.000104
H45	H	0.909833	-0.111706	-0.099374
O46	O	1.691447	-0.218273	0.145860
H47	H	1.742092	-0.256730	0.046773
O48	O	1.687301	-0.457502	-0.139167
H49	H	1.703240	-0.514775	-0.240640
H50	H	1.049984	0.489616	0.101838
O51	O	1.639062	-0.126702	0.368045
H52	H	1.625116	-0.189976	0.462650
H53	H	0.847900	0.484188	-0.102092
H54	H	1.758718	0.033451	0.375631
H55	H	1.501268	-0.422569	0.243099
O56	O	1.689839	-0.215905	-0.150890
H57	H	1.754121	-0.305217	-0.149529
O58	O	1.627107	-0.119642	0.639507
H59	H	1.530109	-0.132669	0.601908
O60	O	1.067910	0.493705	-0.139412
H61	H	1.023742	0.592773	-0.152460
O62	O	1.278894	-0.166451	-0.132158
H63	H	1.242003	-0.243857	-0.196987
O64	O	1.309239	0.364540	0.340566
H65	H	1.250395	0.424004	0.419650
O66	O	1.493919	-0.436674	-0.277573
H67	H	1.412228	-0.490213	-0.250322
H68	H	1.289998	-0.398125	-0.100399
O69	O	1.795357	0.031355	0.631658
H70	H	1.795274	0.031320	0.753225
H71	H	1.290221	-0.399728	0.098554
O72	O	1.493879	-0.191396	0.276127
H73	H	1.393094	-0.209992	0.277512
O74	O	1.150308	-0.049662	-0.000026
H75	H	1.092436	-0.131798	-0.000040
O76	O	1.490041	-0.193691	-0.276071
H77	H	1.410683	-0.123029	-0.244524
