data_functionalizedCrystal
_audit_creation_method	'MofGen! by Chris Wilmer'
_symmetry_space_group_name_H-M	'P1'
_symmetry_Int_Tables_number	1
_symmetry_cell_setting	triclinic
loop_
_symmetry_equiv_pos_as_xyz
  x,y,z
_cell_length_a	17.639617
_cell_length_b	25.639239
_cell_length_c	17.640968
_cell_angle_alpha	101.231536
_cell_angle_beta	109.666032
_cell_angle_gamma	101.223388
loop_
_atom_site_label
_atom_site_type_symbol
_atom_site_fract_x
_atom_site_fract_y
_atom_site_fract_z
Zn1	Zn	1.354421	0.069164	0.721261
Zn2	Zn	1.326397	-0.040455	0.583391
Zn3	Zn	1.188688	0.024850	0.555521
Zn4	Zn	1.216486	-0.040404	0.693274
O5	O	1.271498	0.003289	0.638362
O6	O	1.466061	0.073147	0.726349
O7	O	1.284768	-0.050359	0.464345
O8	O	1.210767	0.103912	0.577556
O9	O	1.445472	-0.007389	0.625056
O10	O	1.332530	0.136470	0.699324
O11	O	1.183593	-0.002380	0.443869
O12	O	1.077018	-0.002331	0.550418
O13	O	1.258145	-0.007302	0.812335
O14	O	1.097441	-0.050272	0.651624
O15	O	1.359485	0.073196	0.832897
O16	O	1.311723	-0.113632	0.597918
O17	O	1.230972	-0.113595	0.678649
C18	C	1.057318	-0.031105	0.594960
C19	C	0.965695	-0.045828	0.576412
C20	C	0.718003	0.115183	0.779472
C21	C	0.631906	0.101332	0.762026
C22	C	0.610458	0.017557	0.656399
C23	C	0.696556	0.031399	0.673838
C24	C	0.750322	0.080213	0.735375
C25	C	0.728874	-0.003571	0.629741
C26	C	0.814964	0.010271	0.647176
C27	C	0.868735	0.059084	0.708708
C28	C	0.836412	0.094055	0.752810
C29	C	0.675106	-0.052383	0.568201
C30	C	0.707425	-0.087353	0.524104
C31	C	0.793516	-0.073513	0.541542
C32	C	0.847287	-0.024700	0.603074
C33	C	0.825840	-0.108484	0.497441
C34	C	0.911929	-0.094642	0.514876
C35	C	0.933377	-0.010858	0.620509
C36	C	1.271349	-0.132583	0.638293
C37	C	1.271366	-0.190693	0.638307
C38	C	1.229438	-0.441859	0.680379
C39	C	1.229405	-0.387261	0.680363
O40	O	1.193615	-0.359027	0.716080
N41	N	1.271479	-0.359943	0.638371
C42	C	1.313595	-0.387224	0.596399
O43	O	1.349379	-0.358975	0.560680
C44	C	1.313632	-0.441820	0.596420
C45	C	1.271548	-0.469136	0.638408
C46	C	1.187358	-0.469175	0.722365
C47	C	1.187390	-0.523770	0.722379
C48	C	1.229500	-0.551047	0.680408
C49	C	1.271579	-0.523731	0.638422
C50	C	1.355752	-0.469099	0.554453
C51	C	1.355786	-0.523698	0.554479
C52	C	1.313702	-0.551014	0.596467
C53	C	1.313721	-0.605603	0.596466
N54	N	1.271648	-0.632921	0.638458
C55	C	1.229537	-0.605643	0.680429
C56	C	1.313515	-0.272570	0.596359
C57	C	1.313473	-0.217976	0.596332
C58	C	1.229285	-0.218016	0.680298
C59	C	1.229322	-0.272612	0.680319
C60	C	1.271441	-0.299887	0.638351
C61	C	1.229606	-0.720295	0.680455
C62	C	1.229638	-0.774895	0.680463
C63	C	1.313830	-0.774850	0.596501
C64	C	1.313794	-0.720255	0.596489
C65	C	1.271681	-0.692979	0.638473
O66	O	1.349496	-0.633871	0.560770
O67	O	1.193768	-0.633896	0.716151
C68	C	1.486514	0.037816	0.681933
C69	C	1.578141	0.052530	0.700501
C70	C	1.315042	0.037896	0.853361
C71	C	1.333598	0.052643	0.944981
C72	C	1.271674	0.139697	0.638453
C73	C	1.271748	0.197827	0.638492
C74	C	1.228170	-0.031138	0.424208
C75	C	1.209774	-0.045713	0.332621
C76	C	1.130847	-0.108411	1.192787
C77	C	1.148300	-0.094544	1.278881
C78	C	1.253816	-0.010728	1.300280
C79	C	1.236369	-0.024586	1.214185
C80	C	1.174884	-0.073429	1.160445
C81	C	1.280406	0.010396	1.181843
C82	C	1.262963	-0.003463	1.095757
C83	C	1.201482	-0.052304	1.042012
C84	C	1.157441	-0.087288	1.074358
C85	C	1.341895	0.059236	1.235586
C86	C	1.385932	0.094218	1.203244
C87	C	1.368485	0.080361	1.117155
C88	C	1.307004	0.031520	1.063410
C89	C	1.412526	0.115345	1.084808
C90	C	1.395083	0.101486	0.998722
C91	C	1.289561	0.017661	0.977323
H92	H	0.605597	0.129815	0.797936
H93	H	1.195367	-0.797134	0.714656
H94	H	0.782050	-0.148226	0.447332
H95	H	1.347731	-0.195742	0.562130
H96	H	1.195314	-0.698093	0.714643
H97	H	0.663637	-0.127096	0.473998
H98	H	0.761784	0.154931	0.829584
H99	H	1.153119	-0.546006	0.756568
H100	H	0.566670	-0.022187	0.606293
H101	H	0.605003	-0.063643	0.553989
H102	H	1.080760	-0.148174	1.149024
H103	H	1.462593	0.155109	1.128577
H104	H	1.348111	-0.797070	0.562325
H105	H	0.938243	-0.123118	0.478968
H106	H	1.390021	-0.446865	0.520264
H107	H	1.153068	-0.446970	0.756546
H108	H	0.880192	0.133803	0.802922
H109	H	1.194998	-0.195796	0.714475
H110	H	1.195059	-0.294848	0.714515
H111	H	1.347810	-0.294775	0.562176
H112	H	1.112436	-0.123034	1.305209
H113	H	1.390088	-0.545902	0.520305
H114	H	1.303880	0.029039	1.344047
H115	H	1.348052	-0.698016	0.562289
H116	H	1.435995	0.133985	1.247011
H117	H	0.938834	0.070355	0.722899
H118	H	1.430941	0.129972	0.972389
H119	H	1.239474	-0.022102	0.933560
H120	H	1.187284	-0.063589	0.971915
H121	H	0.977158	0.028890	0.670622
H122	H	1.107354	-0.127051	1.030595
H123	H	1.356097	0.070518	1.305683
