data_functionalizedCrystal
_audit_creation_method	'MofGen! by Chris Wilmer'
_symmetry_space_group_name_H-M	'P1'
_symmetry_Int_Tables_number	1
_symmetry_cell_setting	triclinic
loop_
_symmetry_equiv_pos_as_xyz
  x,y,z
_cell_length_a	8.559649
_cell_length_b	8.559649
_cell_length_c	7.681481
_cell_angle_alpha	94.931151
_cell_angle_beta	85.087010
_cell_angle_gamma	69.778664
loop_
_atom_site_label
_atom_site_type_symbol
_atom_site_fract_x
_atom_site_fract_y
_atom_site_fract_z
O1	O	2.109660	-0.037796	0.146412
O2	O	1.634174	0.045986	0.146417
O3	O	1.913808	-0.233648	0.146411
O4	O	1.830026	0.241838	0.146418
O5	O	1.948235	-0.268135	-0.146448
O6	O	1.668601	0.011498	-0.146442
O7	O	2.144087	-0.072283	-0.146447
Zn8	Zn	1.911810	-0.035868	-0.192942
Zn9	Zn	1.866451	0.009571	0.192912
O10	O	1.864453	0.207350	-0.146441
C11	C	1.591079	0.035091	-0.000012
C12	C	1.411379	0.053991	-0.000010
C13	C	2.187182	-0.061388	-0.000014
C14	C	2.366880	-0.080286	-0.000005
C15	C	1.840890	0.284903	-0.000011
C16	C	1.821991	0.464603	-0.000008
C17	C	1.937370	-0.311200	-0.000015
C18	C	1.956268	-0.490898	-0.000007
N19	N	1.942778	-0.066882	-0.456277
N20	N	1.835497	0.040570	0.456247
H21	H	2.466268	-0.209714	-0.000002
H22	H	2.052306	-0.176555	-0.531485
H23	H	2.311999	0.183412	0.000005
H24	H	2.085689	0.409722	-0.000018
C25	C	1.649272	0.596969	0.000274
C26	C	1.545214	0.596340	0.150922
C27	C	1.386092	0.718236	0.151231
H28	H	1.658825	0.704284	0.000367
H29	H	1.602351	0.572747	-0.101798
H30	H	1.592124	0.620574	0.252968
H31	H	1.535611	0.489054	0.150861
H32	H	1.339171	0.694013	0.049159
H33	H	1.395662	0.825541	0.151320
H34	H	1.315464	0.717814	0.253435
C35	C	1.689631	0.187038	-0.443589
C36	C	1.701844	0.337933	-0.488266
C37	C	1.567513	0.472897	-0.396001
H38	H	1.586888	0.179518	-0.473658
H39	H	1.692988	0.183768	-0.320611
H40	H	1.698471	0.341202	-0.611216
H41	H	1.804558	0.345509	-0.458192
H42	H	1.570869	0.469627	-0.273024
H43	H	1.464779	0.465360	-0.426078
H44	H	1.575789	0.575295	-0.426290
