data_functionalizedCrystal
_audit_creation_method	'MofGen! by Chris Wilmer'
_symmetry_space_group_name_H-M	'P1'
_symmetry_Int_Tables_number	1
_symmetry_cell_setting	triclinic
loop_
_symmetry_equiv_pos_as_xyz
  x,y,z
_cell_length_a	23.532355
_cell_length_b	12.503552
_cell_length_c	14.044220
_cell_angle_alpha	86.160057
_cell_angle_beta	88.008188
_cell_angle_gamma	93.494445
loop_
_atom_site_label
_atom_site_type_symbol
_atom_site_fract_x
_atom_site_fract_y
_atom_site_fract_z
O1	O	0.764503	0.089176	0.109274
O2	O	1.097836	0.422509	0.442607
O3	O	1.431170	0.755843	0.775940
O4	O	0.599541	0.089210	0.125964
O5	O	0.932875	0.422544	0.459297
O6	O	1.266208	0.755877	0.792630
O7	O	0.679546	0.089183	-0.020341
O8	O	1.012879	0.422516	0.312992
O9	O	1.346212	0.755850	0.646325
O10	O	0.684499	0.089203	0.255579
O11	O	1.017832	0.422537	0.588912
O12	O	1.351165	0.755870	0.922245
O13	O	0.673522	-0.089457	-0.009329
O14	O	1.006855	0.243876	0.324005
O15	O	1.340188	0.577209	0.657338
O16	O	0.593517	-0.089430	0.136976
O17	O	0.926851	0.243903	0.470310
O18	O	1.260184	0.577237	0.803643
O19	O	0.758479	-0.089464	0.120286
O20	O	1.091812	0.243869	0.453620
O21	O	1.425146	0.577202	0.786953
Cu22	Cu	0.675448	-0.105758	0.129637
Cu23	Cu	1.008781	0.227575	0.462970
Cu24	Cu	1.342115	0.560908	0.796304
Cu25	Cu	0.682572	0.105505	0.116613
Cu26	Cu	1.015905	0.438838	0.449947
Cu27	Cu	1.349239	0.772171	0.783280
O28	O	0.678475	-0.089437	0.266591
O29	O	1.011808	0.243896	0.599925
O30	O	1.345141	0.577230	0.933258
C31	C	0.575290	-0.000105	0.131053
C32	C	0.908624	0.333228	0.464386
C33	C	1.241957	0.666561	0.797719
C34	C	0.512004	-0.000093	0.129797
C35	C	0.845337	0.333241	0.463131
C36	C	1.178671	0.666574	0.796464
N37	N	0.670442	-0.254350	0.138797
N38	N	1.003775	0.078984	0.472130
N39	N	1.337108	0.412317	0.805463
C40	C	0.694944	-0.526791	0.093969
C41	C	1.028278	-0.193458	0.427302
C42	C	1.361611	0.139876	0.760636
C43	C	0.663082	-0.473456	0.152270
C44	C	0.996415	-0.140123	0.485604
C45	C	1.329748	0.193211	0.818937
C46	C	0.667178	-0.351534	0.144772
C47	C	1.000511	-0.018200	0.478105
C48	C	1.333845	0.315133	0.811438
C49	C	0.690849	-0.648724	0.101467
C50	C	1.024182	-0.315391	0.434800
C51	C	1.357516	0.017942	0.768133
C52	C	0.116278	-0.097515	0.127921
C53	C	0.449611	0.235818	0.461254
C54	C	0.782945	0.569152	0.794588
C55	C	0.056814	-0.097519	0.126728
C56	C	0.390147	0.235814	0.460061
C57	C	0.723480	0.569147	0.793395
O58	O	0.023267	-0.180334	0.131184
O59	O	0.356601	0.153000	0.464517
O60	O	0.689934	0.486333	0.797850
N61	N	0.030357	-0.000143	0.120133
N62	N	0.363690	0.333191	0.453466
N63	N	0.697023	0.666524	0.786800
C64	C	0.063368	0.097244	0.114722
C65	C	0.396701	0.430578	0.448055
C66	C	0.730034	0.763911	0.781388
O67	O	0.035404	0.180070	0.109002
O68	O	0.368737	0.513404	0.442335
O69	O	0.702070	0.846737	0.775668
C70	C	0.122831	0.097247	0.115908
C71	C	0.456164	0.430581	0.449241
C72	C	0.789498	0.763914	0.782575
C73	C	0.149284	-0.000135	0.122513
C74	C	0.482618	0.333198	0.455846
C75	C	0.815951	0.666531	0.789179
C76	C	0.142732	-0.194890	0.134524
C77	C	0.476065	0.138443	0.467858
C78	C	0.809398	0.471777	0.801191
C79	C	0.202192	-0.194885	0.135719
C80	C	0.535525	0.138448	0.469053
C81	C	0.868858	0.471781	0.802386
C82	C	0.235198	-0.097506	0.130311
C83	C	0.568531	0.235828	0.463644
C84	C	0.901865	0.569161	0.796978
C85	C	0.208744	-0.000131	0.123708
C86	C	0.542078	0.333203	0.457041
C87	C	0.875411	0.666536	0.790374
C88	C	0.155841	0.194633	0.110490
C89	C	0.489174	0.527967	0.443823
C90	C	0.822507	0.861300	0.777156
C91	C	0.215308	0.194628	0.111676
C92	C	0.548641	0.527962	0.445009
C93	C	0.881975	0.861295	0.778343
C94	C	0.241761	0.097245	0.118281
C95	C	0.575095	0.430579	0.451614
C96	C	0.908428	0.763912	0.784948
C97	C	0.301211	0.097253	0.119494
C98	C	0.634544	0.430587	0.452828
C99	C	0.967877	0.763920	0.786161
N100	N	0.327668	-0.000123	0.126089
N101	N	0.661001	0.333210	0.459422
N102	N	0.994334	0.666544	0.792756
C103	C	0.294661	-0.097503	0.131497
C104	C	0.627995	0.235831	0.464831
C105	C	0.961328	0.569164	0.798164
C106	C	-0.061510	0.097230	0.112229
C107	C	0.271824	0.430564	0.445562
C108	C	0.605157	0.763897	0.778895
C109	C	-0.120972	0.097228	0.111049
C110	C	0.212361	0.430562	0.444382
C111	C	0.545695	0.763895	0.777716
C112	C	-0.127522	-0.097536	0.123054
C113	C	0.205812	0.235798	0.456387
C114	C	0.539145	0.569131	0.789720
C115	C	-0.068058	-0.097533	0.124240
C116	C	0.265275	0.235801	0.457573
C117	C	0.598608	0.569134	0.790907
C118	C	-0.035053	-0.000146	0.118823
C119	C	0.298281	0.333187	0.452157
C120	C	0.631614	0.666521	0.785490
C121	C	0.419532	-0.097486	0.134007
C122	C	0.752865	0.235848	0.467341
C123	C	1.086199	0.569181	0.800674
C124	C	0.478998	-0.097472	0.135206
C125	C	0.812331	0.235861	0.468539
C126	C	1.145664	0.569194	0.801872
C127	C	0.485542	0.097291	0.123196
C128	C	0.818876	0.430624	0.456529
C129	C	1.152209	0.763958	0.789863
C130	C	0.426082	0.097279	0.122003
C131	C	0.759415	0.430612	0.455336
C132	C	1.092749	0.763945	0.788669
C133	C	0.393078	-0.000119	0.127406
C134	C	0.726411	0.333215	0.460739
C135	C	1.059745	0.666548	0.794072
O136	O	0.334794	0.180025	0.115038
O137	O	0.668127	0.513359	0.448371
O138	O	1.001460	0.846692	0.781705
O139	O	0.322633	-0.180315	0.137204
O140	O	0.655967	0.153019	0.470537
O141	O	0.989300	0.486352	0.803871
C142	C	0.782730	-0.000146	0.115197
C143	C	1.116063	0.333187	0.448531
C144	C	1.449397	0.666521	0.781864
C145	C	0.846017	-0.000152	0.116452
C146	C	1.179350	0.333181	0.449786
C147	C	1.512683	0.666515	0.783119
C148	C	0.674366	-0.000137	-0.050128
C149	C	1.007699	0.333196	0.283205
C150	C	1.341033	0.666530	0.616538
C151	C	0.667900	-0.000137	-0.155291
C152	C	1.001233	0.333196	0.178042
C153	C	1.334567	0.666530	0.511376
N154	N	0.687583	0.254096	0.107446
N155	N	1.020916	0.587429	0.440779
N156	N	1.354249	0.920762	0.774113
C157	C	0.656079	-0.000119	-0.347839
C158	C	0.989413	0.333214	-0.014505
C159	C	1.322746	0.666548	0.318828
C160	C	0.701939	-0.000125	-0.405917
C161	C	1.035272	0.333208	-0.072584
C162	C	1.368605	0.666541	0.260749
C163	C	0.695362	-0.000115	-0.513058
C164	C	1.028695	0.333218	-0.179724
C165	C	1.362028	0.666551	0.153609
C166	C	0.662656	-0.000129	-0.240689
C167	C	0.995989	0.333204	0.092645
C168	C	1.329322	0.666538	0.425978
C169	C	0.683654	-0.000115	0.296378
C170	C	1.016988	0.333219	0.629711
C171	C	1.350321	0.666552	0.963045
C172	C	0.690121	-0.000107	0.401541
C173	C	1.023454	0.333226	0.734874
C174	C	1.356787	0.666559	1.068207
H175	H	0.632728	-0.519361	0.207816
H176	H	0.966061	-0.186028	0.541150
H177	H	1.299394	0.147305	0.874483
H178	H	0.746142	-0.000063	-0.375180
H179	H	1.079476	0.333271	-0.041847
H180	H	1.412809	0.666604	0.291487
Cl181	Cl	0.587840	-0.000100	-0.395299
Cl182	Cl	0.921174	0.333234	-0.061966
Cl183	Cl	1.254507	0.666567	0.271367
H184	H	0.725297	-0.480891	0.038428
H185	H	1.058631	-0.147558	0.371761
H186	H	1.391964	0.185776	0.705095
Cl187	Cl	0.235438	-0.317317	0.144016
Cl188	Cl	0.568772	0.016017	0.477349
Cl189	Cl	0.902105	0.349350	0.810683
Cl190	Cl	0.512249	-0.219906	0.143512
Cl191	Cl	0.845583	0.113428	0.476845
Cl192	Cl	1.178916	0.446761	0.810179
H193	H	0.392667	-0.176795	0.138415
H194	H	0.726000	0.156538	0.471749
H195	H	1.059334	0.489871	0.805082
Cl196	Cl	0.122600	0.317066	0.102182
Cl197	Cl	0.455933	0.650399	0.435516
Cl198	Cl	0.789267	0.983733	0.768849
H199	H	-0.142505	0.176527	0.105686
H200	H	0.190828	0.509861	0.439019
H201	H	0.524161	0.843194	0.772353
Cl202	Cl	0.101248	-0.317327	0.141330
Cl203	Cl	0.434581	0.016006	0.474664
Cl204	Cl	0.767915	0.349339	0.807997
Cl205	Cl	-0.169027	-0.219957	0.129848
Cl206	Cl	0.164307	0.113376	0.463182
Cl207	Cl	0.497640	0.446710	0.796515
Cl208	Cl	-0.020022	0.219672	0.105430
Cl209	Cl	0.313311	0.553005	0.438763
Cl210	Cl	0.646644	0.886339	0.772096
Cl211	Cl	-0.034809	-0.219961	0.132540
Cl212	Cl	0.298524	0.113372	0.465873
Cl213	Cl	0.631858	0.446706	0.799207
Cl214	Cl	0.256797	0.317065	0.104864
Cl215	Cl	0.590131	0.650398	0.438198
Cl216	Cl	0.923464	0.983732	0.771531
Cl217	Cl	0.392825	0.219704	0.113715
Cl218	Cl	0.726158	0.553037	0.447048
Cl219	Cl	1.059491	0.886371	0.780382
Cl220	Cl	0.527047	0.219705	0.116391
Cl221	Cl	0.860380	0.553038	0.449725
Cl222	Cl	1.193714	0.886371	0.783058
