data_functionalizedCrystal
_audit_creation_method	'MofGen! by Chris Wilmer'
_symmetry_space_group_name_H-M	'P1'
_symmetry_Int_Tables_number	1
_symmetry_cell_setting	triclinic
loop_
_symmetry_equiv_pos_as_xyz
  x,y,z
_cell_length_a	10.654550
_cell_length_b	11.295501
_cell_length_c	10.654550
_cell_angle_alpha	85.438300
_cell_angle_beta	95.515097
_cell_angle_gamma	94.566550
loop_
_atom_site_label
_atom_site_type_symbol
_atom_site_fract_x
_atom_site_fract_y
_atom_site_fract_z
O1	O	1.675461	0.099121	-0.184017
O2	O	1.309981	0.099101	-0.200822
O3	O	1.501124	0.099107	-0.009680
O4	O	1.484318	0.099115	-0.375159
O5	O	1.485882	-0.098945	0.005549
O6	O	1.294740	-0.098951	-0.185593
O7	O	1.660219	-0.098931	-0.168788
Cu8	Cu	1.476088	-0.117025	-0.175800
Cu9	Cu	1.494112	0.117195	-0.193810
O10	O	1.469077	-0.098937	-0.359930
C11	C	1.255562	0.000073	-0.191973
C12	C	1.116118	0.000065	-0.188281
N13	N	1.463419	-0.281762	-0.163132
C14	C	1.036634	0.000085	-0.300824
C15	C	0.905615	0.000106	-0.297349
C16	C	0.933577	0.000092	-0.068778
C17	C	1.064593	0.000063	-0.072254
C18	C	1.020489	0.000098	-0.432788
C19	C	0.889470	0.000119	-0.429313
C20	C	1.597972	-0.531042	-0.297721
C21	C	1.588408	-0.655706	-0.288137
C22	C	1.434735	-0.655757	-0.134375
C23	C	1.444299	-0.531093	-0.143959
C24	C	1.525919	-0.468740	-0.225636
C25	C	1.535475	-0.344073	-0.235225
C26	C	1.381809	-0.344126	-0.081458
C27	C	1.372245	-0.468790	-0.071874
C28	C	1.714639	0.000100	-0.177637
C29	C	1.854083	0.000115	-0.181330
C30	C	1.492269	0.000082	0.044732
C31	C	1.488577	0.000086	0.184175
N32	N	1.506791	0.281932	-0.206468
C33	C	1.477931	0.000090	-0.414343
C34	C	1.481624	0.000094	-0.553786
C35	C	1.601119	0.000089	0.263661
C36	C	1.597643	0.000097	0.394681
C37	C	1.369074	0.000095	0.366718
C38	C	1.372552	0.000096	0.235699
C39	C	1.733082	0.000084	0.279807
C40	C	1.729606	0.000093	0.410827
H41	H	1.129304	0.000029	0.019391
C42	C	1.302464	-0.275583	-0.002240
N43	N	1.242671	-0.223956	0.057393
H44	H	1.791075	0.082966	0.244075
H45	H	1.664418	-0.480273	-0.364237
C46	C	0.876887	0.000095	0.058844
N47	N	0.834190	0.000100	0.154972
H48	H	1.043442	-0.082789	-0.478025
C49	C	1.241450	0.000092	0.423408
N50	N	1.145322	0.000084	0.466106
C51	C	1.667659	-0.724235	-0.367451
N52	N	1.727350	-0.775850	-0.427198
H53	H	1.062725	0.085607	-0.481382
H54	H	1.305797	-0.519575	-0.005371
C55	C	1.344961	-0.724367	-0.044537
N56	N	1.277340	-0.776046	0.023128
C57	C	1.625262	-0.275486	-0.325067
N58	N	1.692896	-0.223830	-0.392733
C59	C	1.780961	-0.115438	0.240553
N60	N	1.817022	-0.202451	0.210987
H61	H	0.837219	-0.085384	-0.462619
H62	H	0.854117	0.083011	-0.485408
H63	H	1.280910	0.000110	0.170984
H64	H	1.776068	0.085608	0.449894
H65	H	1.772949	-0.082787	0.458960
