data_functionalizedCrystal
_audit_creation_method	'MofGen! by Chris Wilmer'
_symmetry_space_group_name_H-M	'P1'
_symmetry_Int_Tables_number	1
_symmetry_cell_setting	triclinic
loop_
_symmetry_equiv_pos_as_xyz
  x,y,z
_cell_length_a	10.489741
_cell_length_b	16.992695
_cell_length_c	8.965430
_cell_angle_alpha	89.991796
_cell_angle_beta	90.000479
_cell_angle_gamma	92.396302
loop_
_atom_site_label
_atom_site_type_symbol
_atom_site_fract_x
_atom_site_fract_y
_atom_site_fract_z
O1	O	1.703681	-0.110692	0.123948
O2	O	2.203681	0.389308	0.623948
O3	O	1.333389	-0.121082	0.123972
O4	O	1.833389	0.378918	0.623972
O5	O	1.517050	-0.001736	0.123948
O6	O	2.017050	0.498264	0.623948
O7	O	1.520019	-0.230038	0.123972
O8	O	2.020019	0.269962	0.623972
O9	O	1.517038	-0.001725	-0.124130
O10	O	2.017038	0.498275	0.375870
O11	O	1.333377	-0.121071	-0.124107
O12	O	1.833377	0.378929	0.375893
O13	O	1.703669	-0.110681	-0.124130
O14	O	2.203669	0.389319	0.375870
Cu15	Cu	1.518522	-0.115875	-0.146770
Cu16	Cu	2.018522	0.384125	0.353230
Cu17	Cu	1.518536	-0.115888	0.146612
Cu18	Cu	2.018536	0.384112	0.646612
O19	O	1.520007	-0.230027	-0.124107
O20	O	2.020007	0.269973	0.375893
C21	C	1.285783	-0.120292	-0.000065
C22	C	1.785783	0.379708	0.499935
C23	C	1.143949	-0.117944	-0.000056
C24	C	1.643949	0.382056	0.499944
C25	C	1.513225	0.027504	-0.000091
C26	C	2.013225	0.527504	0.499909
C27	C	1.501830	0.114612	-0.000090
C28	C	2.001830	0.614612	0.499910
N29	N	1.518521	-0.115865	-0.353119
N30	N	2.018521	0.384135	0.146881
C31	C	1.069203	-0.042007	-0.000078
C32	C	1.569203	0.457993	0.499922
C33	C	0.980203	-0.077885	0.122238
C34	C	1.480203	0.422115	0.622238
C35	C	0.980226	-0.077892	-0.122348
C36	C	1.480226	0.422108	0.377652
C37	C	1.056817	-0.153852	0.122361
C38	C	1.556817	0.346148	0.622361
C39	C	1.056850	-0.153849	-0.122335
C40	C	1.556850	0.346151	0.377665
C41	C	0.967882	-0.189781	0.000011
C42	C	1.467882	0.310219	0.500011
C43	C	1.751275	-0.111471	-0.000091
C44	C	2.251275	0.388529	0.499909
C45	C	1.893108	-0.113819	-0.000089
C46	C	2.393108	0.386181	0.499911
C47	C	1.523832	-0.259267	-0.000065
C48	C	2.023832	0.240733	0.499935
C49	C	1.535228	-0.346375	-0.000056
C50	C	2.035228	0.153625	0.499944
C51	C	1.611779	0.164232	-0.000098
C52	C	2.111779	0.664232	0.499902
C53	C	1.601064	0.246079	-0.000083
C54	C	2.101064	0.746079	0.499917
C55	C	1.480399	0.278305	-0.000071
C56	C	1.980399	0.778305	0.499929
C57	C	1.370442	0.228679	-0.000058
C58	C	1.870442	0.728679	0.499942
C59	C	1.381158	0.146833	-0.000062
C60	C	1.881158	0.646833	0.499938
C61	C	1.435986	0.522153	-0.000047
C62	C	1.935986	1.022153	0.499953
C63	C	1.425278	0.604005	-0.000048
C64	C	1.925278	1.104005	0.499952
C65	C	1.655902	0.621400	-0.000070
C66	C	2.155902	1.121400	0.499930
C67	C	1.666608	0.539552	-0.000083
C68	C	2.166608	1.039552	0.499917
C69	C	1.556650	0.489933	-0.000063
C70	C	2.056650	0.989933	0.499937
N71	N	1.469444	0.361966	-0.000060
N72	N	1.969444	0.861966	0.499940
N73	N	1.567606	0.406274	-0.000062
N74	N	2.067606	0.906274	0.499938
C75	C	1.602718	-0.060236	-0.549800
C76	C	2.102718	0.439764	-0.049800
C77	C	1.635712	-0.131057	-0.450318
C78	C	2.135712	0.368943	0.049682
C79	C	1.485584	-0.045050	-0.450394
C80	C	1.985584	0.454950	0.049606
C81	C	1.551602	-0.186749	-0.549746
C82	C	2.051602	0.313251	-0.049746
C83	C	1.401418	-0.100695	-0.549831
C84	C	1.901418	0.399305	-0.049831
C85	C	1.434370	-0.171567	-0.450393
C86	C	1.934370	0.328433	0.049607
N87	N	1.518546	-0.115892	0.352961
N88	N	2.018546	0.384108	0.852961
H89	H	1.113462	0.020417	0.000069
H90	H	1.613462	0.520417	0.500069
H91	H	1.690597	0.286477	-0.000093
H92	H	2.190597	0.786477	0.499907
Cl93	Cl	1.108725	-0.203427	0.282201
Cl94	Cl	1.608725	0.296573	0.782201
Cl95	Cl	1.788616	-0.150881	-0.382789
Cl96	Cl	2.288616	0.349119	0.117211
Cl97	Cl	1.712713	0.012329	-0.617197
Cl98	Cl	2.212713	0.512329	-0.117197
H99	H	0.946398	-0.045759	0.225644
H100	H	1.446398	0.454241	0.725644
Cl101	Cl	1.442546	0.047429	-0.383024
Cl102	Cl	1.942546	0.547429	0.116976
Cl103	Cl	1.109094	-0.203408	-0.281993
Cl104	Cl	1.609094	0.296592	0.218007
Cl105	Cl	1.242929	0.084454	-0.000045
Cl106	Cl	1.742929	0.584454	0.499955
H107	H	0.923894	-0.252272	0.000084
H108	H	1.423894	0.247728	0.500084
Cl109	Cl	1.763480	0.123728	-0.000129
Cl110	Cl	2.263480	0.623728	0.499871
Cl111	Cl	0.928077	-0.028260	-0.282007
Cl112	Cl	1.428077	0.471740	0.217993
H113	H	1.579578	-0.246662	-0.593205
H114	H	2.079578	0.253338	-0.093205
H115	H	1.346450	0.481763	-0.000031
H116	H	1.846450	0.981763	0.499969
Cl117	Cl	1.818307	0.499046	-0.000051
Cl118	Cl	2.318307	0.999046	0.499949
H119	H	1.363179	-0.218673	-0.407021
H120	H	1.863179	0.281327	0.092979
Cl121	Cl	1.794125	0.683782	-0.000092
Cl122	Cl	2.294125	1.183782	0.499908
H123	H	1.327013	0.630240	-0.000061
H124	H	1.827013	1.130240	0.499939
H125	H	1.272193	0.254924	-0.000038
H126	H	1.772193	0.754924	0.499962
Cl127	Cl	1.248546	-0.080824	-0.617374
Cl128	Cl	1.748546	0.419176	-0.117374
