data_functionalizedCrystal
_audit_creation_method	'MofGen! by Chris Wilmer'
_symmetry_space_group_name_H-M	'P1'
_symmetry_Int_Tables_number	1
_symmetry_cell_setting	triclinic
loop_
_symmetry_equiv_pos_as_xyz
  x,y,z
_cell_length_a	11.792254
_cell_length_b	14.519731
_cell_length_c	10.268362
_cell_angle_alpha	89.993732
_cell_angle_beta	89.995475
_cell_angle_gamma	83.943725
loop_
_atom_site_label
_atom_site_type_symbol
_atom_site_fract_x
_atom_site_fract_y
_atom_site_fract_z
O1	O	1.506211	0.126459	-0.108302
O2	O	1.839544	0.459792	0.225031
O3	O	2.172878	0.793126	0.558364
O4	O	1.175801	0.139474	-0.108305
O5	O	1.509134	0.472807	0.225028
O6	O	1.842468	0.806141	0.558361
O7	O	1.349754	-0.001238	-0.108292
O8	O	1.683087	0.332095	0.225041
O9	O	2.016420	0.665428	0.558375
O10	O	1.332258	0.267171	-0.108316
O11	O	1.665592	0.600505	0.225018
O12	O	1.998925	0.933838	0.558351
O13	O	1.349739	-0.001244	0.108309
O14	O	1.683072	0.332089	0.441642
O15	O	2.016405	0.665422	0.774975
O16	O	1.175786	0.139468	0.108295
O17	O	1.509119	0.472801	0.441629
O18	O	1.842453	0.806135	0.774962
O19	O	1.506196	0.126453	0.108298
O20	O	1.839529	0.459786	0.441632
O21	O	2.172863	0.793120	0.774965
Cu22	Cu	1.340990	0.132960	0.128074
Cu23	Cu	1.674323	0.466293	0.461407
Cu24	Cu	2.007656	0.799627	0.794741
Cu25	Cu	1.341007	0.132967	-0.128081
Cu26	Cu	1.674341	0.466300	0.205252
Cu27	Cu	2.007674	0.799634	0.538585
O28	O	1.332243	0.267165	0.108285
O29	O	1.665576	0.600499	0.441618
O30	O	1.998910	0.933832	0.774952
C31	C	1.133507	0.138651	-0.000005
C32	C	1.466841	0.471985	0.333328
C33	C	1.800174	0.805318	0.666661
C34	C	1.007508	0.136197	-0.000006
C35	C	1.340841	0.469531	0.333327
C36	C	1.674174	0.802864	0.666660
C37	C	0.905182	0.134203	-0.000012
C38	C	1.238515	0.467537	0.333322
C39	C	1.571848	0.800870	0.666655
C40	C	0.776809	0.131710	-0.000012
C41	C	1.110142	0.465044	0.333321
C42	C	1.443475	0.798377	0.666654
C43	C	1.348926	-0.035604	0.000009
C44	C	1.682260	0.297730	0.333342
C45	C	2.015593	0.631063	0.666675
C46	C	1.346470	-0.137993	0.000009
C47	C	1.679803	0.195340	0.333343
C48	C	2.013137	0.528674	0.666676
C49	C	1.344474	-0.221145	0.000006
C50	C	1.677807	0.112189	0.333340
C51	C	2.011141	0.445522	0.666673
C52	C	1.341980	-0.325463	-0.000004
C53	C	1.675313	0.007871	0.333330
C54	C	2.008646	0.341204	0.666663
C55	C	1.340000	-0.408609	-0.000012
C56	C	1.673334	-0.075276	0.333321
C57	C	2.006667	0.258058	0.666655
C58	C	1.337506	-0.512934	-0.000020
C59	C	1.670840	-0.179600	0.333314
C60	C	2.004173	0.153733	0.666647
C61	C	1.548490	0.127276	-0.000005
C62	C	1.881823	0.460609	0.333329
C63	C	2.215156	0.793943	0.666662
C64	C	1.674489	0.129730	-0.000012
C65	C	2.007823	0.463063	0.333321
C66	C	2.341156	0.796397	0.666654
C67	C	1.333071	0.301531	-0.000019
C68	C	1.666404	0.634864	0.333315
C69	C	1.999737	0.968197	0.666648
C70	C	1.335527	0.403920	-0.000028
C71	C	1.668860	0.737253	0.333305
C72	C	2.002194	1.070587	0.666639
N73	N	1.340985	0.132955	0.308240
N74	N	1.674319	0.466288	0.641573
N75	N	2.007652	0.799621	0.974907
N76	N	1.341021	0.132965	-0.308247
N77	N	1.674354	0.466299	0.025086
N78	N	2.007687	0.799632	0.358420
C79	C	1.341002	0.132965	0.573911
C80	C	1.674335	0.466298	0.907244
C81	C	2.007668	0.799632	1.240577
C82	C	1.340989	0.132962	0.426073
C83	C	1.674322	0.466295	0.759406
C84	C	2.007656	0.799629	1.092739
