data_functionalizedCrystal
_audit_creation_method	'MofGen! by Chris Wilmer'
_symmetry_space_group_name_H-M	'P1'
_symmetry_Int_Tables_number	1
_symmetry_cell_setting	triclinic
loop_
_symmetry_equiv_pos_as_xyz
  x,y,z
_cell_length_a	6.817900
_cell_length_b	11.452831
_cell_length_c	23.752930
_cell_angle_alpha	83.693834
_cell_angle_beta	100.066047
_cell_angle_gamma	108.696887
loop_
_atom_site_label
_atom_site_type_symbol
_atom_site_fract_x
_atom_site_fract_y
_atom_site_fract_z
V1	V	-4.004339	-0.170369	-0.161431
O2	O	-3.976435	0.006532	-0.175647
O3	O	-3.971247	-0.336222	-0.143699
O4	O	-3.939207	-0.168474	-0.239423
O5	O	-4.008697	-0.162376	-0.079260
V6	V	-4.488151	-0.149124	-0.153623
O7	O	-4.264962	-0.216972	-0.178559
O8	O	-4.677725	-0.102521	-0.136495
O9	O	-4.298037	0.016729	-0.171355
O10	O	-4.633452	-0.326025	-0.139406
O11	O	-4.601190	-0.157117	-0.235793
O12	O	-4.330077	-0.151018	-0.075631
C13	C	-3.820513	-0.376630	-0.136861
C14	C	-3.874632	-0.512222	-0.122883
C15	C	-3.983900	-0.729819	-0.150305
C16	C	-3.927966	-0.589680	-0.164756
C17	C	-3.779642	-0.162650	-0.258967
C18	C	-3.807774	-0.162199	-0.322616
C19	C	-4.164444	-0.165401	-0.719622
C20	C	-4.190899	-0.164960	-0.779428
O21	O	-4.359384	-0.169890	-0.812322
N22	N	-4.022079	-0.158633	-0.807035
C23	C	-3.826785	-0.152733	-0.774832
O24	O	-3.685619	-0.147310	-0.803804
C25	C	-3.800330	-0.153165	-0.715027
C26	C	-3.969168	-0.159505	-0.687423
C27	C	-4.333268	-0.171739	-0.692019
C28	C	-4.306815	-0.172181	-0.632216
C29	C	-4.111539	-0.166286	-0.600017
C30	C	-3.942716	-0.159948	-0.627621
C31	C	-3.605035	-0.147256	-0.682825
C32	C	-3.578593	-0.147688	-0.623016
C33	C	-3.747432	-0.154028	-0.595413
C34	C	-3.720988	-0.154494	-0.535620
N35	N	-3.889808	-0.160822	-0.508014
C36	C	-4.085084	-0.166717	-0.540212
C37	C	-3.882357	-0.151825	-0.900426
C38	C	-3.908814	-0.151402	-0.960230
C39	C	-4.272925	-0.163627	-0.964823
C40	C	-4.246469	-0.164059	-0.905018
C41	C	-4.051177	-0.158152	-0.872820
C42	C	-4.029519	-0.167647	-0.414623
C43	C	-4.003050	-0.168095	-0.354815
C44	C	-3.638940	-0.155863	-0.350228
C45	C	-3.665407	-0.155423	-0.410030
C46	C	-3.860711	-0.161311	-0.442227
O47	O	-3.552563	-0.149563	-0.502690
O48	O	-4.226213	-0.172124	-0.511232
C49	C	-4.112113	0.057131	-0.178190
C50	C	-4.037232	0.192721	-0.192172
C51	C	-4.152985	-0.156846	-0.056084
C52	C	-4.104090	-0.157292	0.007566
H53	H	-3.979641	-0.767253	-0.103763
Br54	Br	-4.537950	-0.171627	-1.008533
H55	H	-3.932209	-0.552252	-0.211301
H56	H	-4.140550	-0.173261	-0.332343
Br57	Br	-3.867507	-0.574588	-0.045303
H58	H	-4.041471	-0.769845	-0.238714
H59	H	-4.188550	-0.172444	-0.440831
Br60	Br	-4.598315	-0.179744	-0.735706
H61	H	-3.527931	-0.150274	-0.432506
H62	H	-4.444303	-0.177339	-0.609747
H63	H	-4.383956	-0.169221	-0.882547
Br64	Br	-3.617302	-0.143824	-0.856735
Br65	Br	-3.679676	-0.142829	-0.997683
H66	H	-3.467543	-0.142094	-0.705289
Br67	Br	-3.313535	-0.139659	-0.579323
Br68	Br	-3.373932	-0.147869	-0.306518
