data_functionalizedCrystal
_audit_creation_method	'MofGen! by Chris Wilmer'
_symmetry_space_group_name_H-M	'P1'
_symmetry_Int_Tables_number	1
_symmetry_cell_setting	triclinic
loop_
_symmetry_equiv_pos_as_xyz
  x,y,z
_cell_length_a	10.540535
_cell_length_b	9.016244
_cell_length_c	12.837942
_cell_angle_alpha	90.001314
_cell_angle_beta	89.676291
_cell_angle_gamma	90.004976
loop_
_atom_site_label
_atom_site_type_symbol
_atom_site_fract_x
_atom_site_fract_y
_atom_site_fract_z
O1	O	1.701958	0.123258	0.146191
O2	O	1.334058	0.123278	0.159972
O3	O	1.509850	0.123259	0.002119
O4	O	1.526166	0.123277	0.304045
O5	O	1.509822	-0.123421	0.002122
O6	O	1.334030	-0.123402	0.159976
O7	O	1.701930	-0.123423	0.146194
Cu8	Cu	1.517977	-0.145937	0.153086
Cu9	Cu	1.518011	0.145792	0.153081
O10	O	1.526138	-0.123404	0.304048
C11	C	1.286628	-0.000059	0.158942
C12	C	1.145340	-0.000052	0.155853
C13	C	1.096007	-0.000064	0.040600
C14	C	0.949049	-0.000639	0.037349
C15	C	0.941768	-0.140659	0.208465
C16	C	1.088803	-0.140762	0.210918
C17	C	1.088903	0.139770	0.212591
C18	C	0.941971	0.141603	0.207260
N19	N	1.517963	-0.351123	0.153088
C20	C	1.423578	-0.586145	0.237246
C21	C	1.423842	-0.414254	0.237561
C22	C	1.653392	-0.413467	0.177715
C23	C	1.652892	-0.585412	0.178311
C24	C	1.478207	-0.585671	0.044027
C25	C	1.475240	-0.413716	0.044734
C26	C	1.749360	-0.000082	0.147225
C27	C	1.890648	-0.000080	0.150314
N28	N	1.518034	0.350978	0.153071
C29	C	1.504325	-0.000080	-0.036541
C30	C	1.487886	-0.000077	-0.151740
C31	C	1.685505	-0.000057	-0.391238
C32	C	1.670066	-0.000053	-0.499477
C33	C	1.441569	-0.000056	-0.476461
C34	C	1.457009	-0.000059	-0.368221
C35	C	1.578980	-0.000062	-0.325614
C36	C	1.594419	-0.000076	-0.217372
C37	C	1.365923	-0.000068	-0.194358
C38	C	1.350484	-0.000064	-0.302598
C39	C	1.531663	-0.000062	0.342708
C40	C	1.548102	-0.000055	0.457906
H41	H	0.906471	-0.245686	0.168572
H42	H	1.323049	-0.627534	0.222656
N43	N	1.458718	-0.643277	0.343814
H44	H	1.535552	-0.709719	0.337801
H45	H	1.478722	-0.556797	0.390951
H46	H	1.686932	-0.370386	0.256370
N47	N	1.343151	-0.359851	0.020037
H48	H	1.311113	-0.295157	0.078778
H49	H	1.345189	-0.300627	-0.046726
N50	N	1.130646	0.141587	0.324908
H51	H	1.180452	0.235112	0.338941
H52	H	1.053565	0.138473	0.371945
H53	H	1.546936	-0.626330	-0.018624
N54	N	1.291061	-0.358408	0.217939
H55	H	1.231829	-0.445488	0.209007
H56	H	1.261971	-0.296348	0.279055
N57	N	1.218940	-0.000072	-0.348566
H58	H	1.171680	-0.091522	-0.324701
H59	H	1.171783	0.091428	-0.324683
H60	H	1.124648	-0.246255	0.171649
H61	H	1.784819	-0.000073	-0.356546
H62	H	1.380895	-0.629115	0.020589
H63	H	1.538554	-0.370748	-0.020914
H64	H	1.450630	-0.373104	0.318462
N65	N	1.725966	-0.000088	-0.171411
H66	H	1.791105	-0.000080	-0.229412
H67	H	1.737355	0.091357	-0.126998
N68	N	1.131619	-0.148694	0.322828
H69	H	1.054983	-0.152114	0.370349
H70	H	1.184347	-0.240976	0.333251
N71	N	1.749647	-0.640557	0.100246
H72	H	1.727168	-0.603121	0.028536
H73	H	1.836508	-0.602912	0.119954
H74	H	1.127423	0.246361	0.176625
H75	H	0.903549	-0.145486	0.291640
H76	H	1.756809	-0.000044	-0.552905
H77	H	1.685987	-0.625498	0.257865
H78	H	1.342265	-0.000038	-0.511172
N79	N	1.251018	-0.000081	-0.123578
H80	H	1.279303	-0.000088	-0.048542
H81	H	1.198435	0.091366	-0.137467
H82	H	0.914727	0.100113	-0.008128
H83	H	0.915613	-0.102012	-0.007903
H84	H	1.134672	-0.100733	-0.002916
N85	N	1.145190	0.133435	-0.018039
H86	H	1.115112	0.227005	0.017610
H87	H	1.240987	0.131326	-0.019195
N88	N	0.897948	0.279375	0.151214
H89	H	0.844977	0.250152	0.089195
H90	H	0.845356	0.342121	0.200267
N91	N	1.749440	-0.359314	0.098724
H92	H	1.705983	-0.293686	0.046090
H93	H	1.817767	-0.300990	0.135346
N94	N	0.889024	0.153410	0.316477
H95	H	0.914531	0.063063	0.357885
H96	H	0.923651	0.245443	0.351005
