data_functionalizedCrystal
_audit_creation_method	'MofGen! by Chris Wilmer'
_symmetry_space_group_name_H-M	'P1'
_symmetry_Int_Tables_number	1
_symmetry_cell_setting	triclinic
loop_
_symmetry_equiv_pos_as_xyz
  x,y,z
_cell_length_a	17.699083
_cell_length_b	17.699077
_cell_length_c	16.776229
_cell_angle_alpha	90.005198
_cell_angle_beta	90.004308
_cell_angle_gamma	83.281795
loop_
_atom_site_label
_atom_site_type_symbol
_atom_site_fract_x
_atom_site_fract_y
_atom_site_fract_z
O1	O	0.095688	1.004080	0.066279
O2	O	0.595688	1.504080	0.566279
O3	O	0.108145	0.783701	0.066283
O4	O	0.608145	1.283701	0.566283
O5	O	-0.008273	0.900117	0.066274
O6	O	0.491727	1.400117	0.566274
O7	O	0.212106	0.887664	0.066288
O8	O	0.712106	1.387664	0.566288
O9	O	-0.008273	0.900104	-0.066302
O10	O	0.491727	1.400104	0.433698
O11	O	0.108145	0.783688	-0.066293
O12	O	0.608145	1.283688	0.433707
O13	O	0.095688	1.004067	-0.066297
O14	O	0.595688	1.504067	0.433703
Zn15	Zn	0.101916	0.893875	-0.087345
Zn16	Zn	0.601916	1.393875	0.412655
Zn17	Zn	0.101917	0.893893	0.087331
Zn18	Zn	0.601917	1.393893	0.587331
O19	O	0.212106	0.887651	-0.066288
O20	O	0.712106	1.387651	0.433712
C21	C	0.107700	0.755498	-0.000004
C22	C	0.607700	1.255498	0.499996
C23	C	0.106363	0.671479	-0.000003
C24	C	0.606363	1.171479	0.499997
C25	C	-0.036470	0.899664	-0.000014
C26	C	0.463530	1.399664	0.499986
C27	C	-0.120488	0.898326	-0.000015
C28	C	0.379512	1.398326	0.499985
C29	C	0.105733	0.632005	-0.072271
C30	C	0.605733	1.132005	0.427729
C31	C	0.104464	0.553062	-0.072272
C32	C	0.604464	1.053062	0.427728
C33	C	0.103832	0.513595	-0.000004
C34	C	0.603832	1.013595	0.499996
C35	C	0.104460	0.553075	0.072270
C36	C	0.604460	1.053075	0.572270
C37	C	0.105722	0.632017	0.072270
C38	C	0.605722	1.132017	0.572270
C39	C	0.099366	0.234712	0.072271
C40	C	0.599366	0.734712	0.572271
C41	C	0.098106	0.155764	0.072265
C42	C	0.598106	0.655764	0.572265
C43	C	0.098108	0.155757	-0.072271
C44	C	0.598108	0.655757	0.427729
C45	C	0.099371	0.234699	-0.072271
C46	C	0.599371	0.734699	0.427729
C47	C	0.099995	0.274173	0.000002
C48	C	0.599995	0.774173	0.500002
C49	C	0.101369	0.359772	0.000002
C50	C	0.601369	0.859772	0.500002
C51	C	0.102464	0.427997	-0.000003
C52	C	0.602464	0.927997	0.499997
C53	C	-0.169110	0.966659	-0.000017
C54	C	0.330890	1.466659	0.499983
C55	C	-0.248054	0.965397	-0.000010
C56	C	0.251946	1.465397	0.499990
C57	C	-0.278373	0.895800	-0.000006
C58	C	0.221627	1.395800	0.499994
C59	C	-0.229744	0.827461	-0.000001
C60	C	0.270256	1.327461	0.499999
C61	C	-0.150803	0.828724	-0.000003
C62	C	0.349197	1.328724	0.499997
C63	C	-0.548107	0.822366	0.000005
C64	C	-0.048107	1.322366	0.500005
C65	C	-0.627055	0.821108	0.000004
C66	C	-0.127055	1.321108	0.500004
C67	C	-0.645358	0.959039	-0.000002
C68	C	-0.145358	1.459039	0.499998
C69	C	-0.566417	0.960302	-0.000003
C70	C	-0.066417	1.460302	0.499997
C71	C	-0.517795	0.891963	0.000006
C72	C	-0.017795	1.391963	0.500006
C73	C	-0.432196	0.893333	-0.000000
C74	C	0.067804	1.393333	0.500000
C75	C	-0.363971	0.894430	-0.000006
C76	C	0.136029	1.394430	0.499994
C77	C	0.240303	0.888104	0.000002
C78	C	0.740303	1.388104	0.500002
C79	C	0.324321	0.889443	0.000008
C80	C	0.824321	1.389443	0.500008
C81	C	0.096133	1.032271	-0.000008
C82	C	0.596133	1.532271	0.499992
C83	C	0.097470	1.116289	-0.000004
C84	C	0.597470	1.616289	0.499996
N85	N	0.101916	0.893869	-0.206556
N86	N	0.601916	1.393869	0.293444
C87	C	0.147763	0.939684	-0.248267
C88	C	0.647763	1.439684	0.251733
C89	C	0.147760	0.939693	-0.331719
C90	C	0.647760	1.439693	0.168281
C91	C	0.101913	0.893881	-0.373459
C92	C	0.601913	1.393881	0.126541
C93	C	0.056060	0.848064	-0.331742
C94	C	0.556060	1.348064	0.168258
C95	C	0.056060	0.848061	-0.248291
C96	C	0.556060	1.348061	0.251709
C97	C	0.056061	0.848080	-0.668289
C98	C	0.556061	1.348080	-0.168289
C99	C	0.056067	0.848085	-0.751745
C100	C	0.556067	1.348085	-0.251745
C101	C	0.147762	0.939712	-0.751717
C102	C	0.647762	1.439712	-0.251717
C103	C	0.147761	0.939708	-0.668267
C104	C	0.647761	1.439708	-0.168267
C105	C	0.101906	0.893894	-0.626557
C106	C	0.601906	1.393894	-0.126557
C107	C	0.101908	0.893887	-0.536068
C108	C	0.601908	1.393887	-0.036068
C109	C	0.101914	0.893884	-0.463946
C110	C	0.601914	1.393884	0.036054
N111	N	0.101911	0.893905	0.206542
N112	N	0.601911	1.393905	0.706542
H113	H	0.106254	0.664132	-0.131121
H114	H	0.606254	1.164132	0.368879
H115	H	0.018726	0.810753	-0.214331
H116	H	0.518726	1.310753	0.285669
H117	H	-0.651737	0.764431	0.000006
H118	H	-0.151737	1.264431	0.500006
Cl119	Cl	0.103636	0.503463	0.163122
Cl120	Cl	0.603636	1.003463	0.663122
Cl121	Cl	0.097309	0.106149	0.163124
Cl122	Cl	0.597309	0.606149	0.663124
H123	H	0.099872	0.266843	0.131120
H124	H	0.599872	0.766843	0.631120
H125	H	-0.541735	1.016974	-0.000010
H126	H	-0.041735	1.516974	0.499990
H127	H	0.018730	0.810779	-0.785727
H128	H	0.518730	1.310779	-0.285727
H129	H	0.185098	0.977018	-0.785688
H130	H	0.685098	1.477018	-0.285688
H131	H	0.106237	0.664156	0.131118
H132	H	0.606237	1.164156	0.631118
H133	H	-0.684956	1.014683	-0.000005
H134	H	-0.184956	1.514683	0.499995
H135	H	-0.287639	1.021041	-0.000014
H136	H	0.212361	1.521041	0.499986
Cl137	Cl	0.103686	0.503438	-0.163128
Cl138	Cl	0.603686	1.003438	0.336872
H139	H	0.018723	0.810776	-0.634339
H140	H	0.518723	1.310776	-0.134339
Cl141	Cl	-0.131003	1.054157	-0.000030
Cl142	Cl	0.368997	1.554157	0.499970
H143	H	-0.508528	0.766721	0.000012
H144	H	-0.008528	1.266721	0.500012
Cl145	Cl	0.100171	0.284310	-0.163126
Cl146	Cl	0.600171	0.784310	0.336874
Cl147	Cl	0.097320	0.106128	-0.163131
Cl148	Cl	0.597320	0.606128	0.336869
Cl149	Cl	-0.267860	0.739968	0.000013
Cl150	Cl	0.232140	1.239968	0.500013
Cl151	Cl	-0.001578	0.790474	-0.384214
Cl152	Cl	0.498422	1.290474	0.115786
Cl153	Cl	-0.089676	0.742816	0.000003
Cl154	Cl	0.410324	1.242816	0.500003
Cl155	Cl	0.205404	0.997278	-0.195803
Cl156	Cl	0.705404	1.497278	0.304197
Cl157	Cl	0.205402	0.997290	-0.384153
Cl158	Cl	0.705402	1.497290	0.115847
H159	H	0.185098	0.977009	-0.634287
H160	H	0.685098	1.477009	-0.134287
