data_functionalizedCrystal
_audit_creation_method	'MofGen! by Chris Wilmer'
_symmetry_space_group_name_H-M	'P1'
_symmetry_Int_Tables_number	1
_symmetry_cell_setting	triclinic
loop_
_symmetry_equiv_pos_as_xyz
  x,y,z
_cell_length_a	21.295418
_cell_length_b	21.295417
_cell_length_c	18.215399
_cell_angle_alpha	89.967848
_cell_angle_beta	89.961117
_cell_angle_gamma	90.046319
loop_
_atom_site_label
_atom_site_type_symbol
_atom_site_fract_x
_atom_site_fract_y
_atom_site_fract_z
Zn1	Zn	0.962326	-0.250350	-0.416469
Zn2	Zn	1.212326	-0.000350	-0.166469
Zn3	Zn	1.462326	0.249650	0.083531
Zn4	Zn	1.712326	0.499650	0.333531
Zn5	Zn	0.962237	-0.355621	-0.293393
Zn6	Zn	1.212237	-0.105621	-0.043393
Zn7	Zn	1.462237	0.144379	0.206607
Zn8	Zn	1.712237	0.394379	0.456607
Zn9	Zn	0.857058	-0.250399	-0.293375
Zn10	Zn	1.107058	-0.000399	-0.043375
Zn11	Zn	1.357058	0.249601	0.206625
Zn12	Zn	1.607058	0.499601	0.456625
Zn13	Zn	0.857018	-0.355614	-0.416377
Zn14	Zn	1.107018	-0.105614	-0.166377
Zn15	Zn	1.357018	0.144386	0.083623
Zn16	Zn	1.607018	0.394386	0.333623
O17	O	0.909660	-0.302996	-0.354904
O18	O	1.159660	-0.052996	-0.104904
O19	O	1.409660	0.197004	0.145096
O20	O	1.659660	0.447004	0.395096
O21	O	1.050403	-0.264297	-0.400188
O22	O	1.300403	-0.014297	-0.150188
O23	O	1.550403	0.235703	0.099812
O24	O	1.800403	0.485703	0.349812
O25	O	0.948264	-0.341686	-0.190407
O26	O	1.198264	-0.091686	0.059593
O27	O	1.448264	0.158314	0.309593
O28	O	1.698264	0.408314	0.559593
O29	O	0.871075	-0.162303	-0.309734
O30	O	1.121075	0.087697	-0.059734
O31	O	1.371075	0.337697	0.190266
O32	O	1.621075	0.587697	0.440266
O33	O	1.050338	-0.341639	-0.309765
O34	O	1.300338	-0.091639	-0.059765
O35	O	1.550338	0.158361	0.190235
O36	O	1.800338	0.408361	0.440235
O37	O	0.948415	-0.162267	-0.400171
O38	O	1.198415	0.087733	-0.150171
O39	O	1.448415	0.337733	0.099829
O40	O	1.698415	0.587733	0.349829
O41	O	0.870989	-0.264380	-0.190393
O42	O	1.120989	-0.014380	0.059607
O43	O	1.370989	0.235620	0.309607
O44	O	1.620989	0.485620	0.559607
O45	O	0.768963	-0.264373	-0.309646
O46	O	1.018963	-0.014373	-0.059646
O47	O	1.268963	0.235627	0.190354
O48	O	1.518963	0.485627	0.440354
O49	O	0.871008	-0.341627	-0.519374
O50	O	1.121008	-0.091627	-0.269374
O51	O	1.371008	0.158373	-0.019374
O52	O	1.621008	0.408373	0.230626
O53	O	0.768934	-0.341675	-0.400015
O54	O	1.018934	-0.091675	-0.150015
O55	O	1.268934	0.158325	0.099985
O56	O	1.518934	0.408325	0.349985
O57	O	0.948377	-0.264290	-0.519441
O58	O	1.198377	-0.014290	-0.269441
O59	O	1.448377	0.235710	-0.019441
O60	O	1.698377	0.485710	0.230559
O61	O	0.948226	-0.443710	-0.309677
O62	O	1.198226	-0.193710	-0.059677
O63	O	1.448226	0.056290	0.190323
O64	O	1.698226	0.306290	0.440323
O65	O	0.870922	-0.443705	-0.400033
O66	O	1.120922	-0.193705	-0.150033
O67	O	1.370922	0.056295	0.099967
O68	O	1.620922	0.306295	0.349967
C69	C	0.746108	-0.303029	-0.354819
C70	C	0.996108	-0.053029	-0.104819
C71	C	1.246108	0.196971	0.145181
C72	C	1.496108	0.446971	0.395181
C73	C	0.676140	-0.303058	-0.354800
C74	C	0.926140	-0.053058	-0.104800
C75	C	1.176140	0.196942	0.145200
C76	C	1.426140	0.446942	0.395200
C77	C	0.643275	-0.343363	-0.401785
C78	C	0.893275	-0.093363	-0.151785
C79	C	1.143275	0.156637	0.098215
C80	C	1.393275	0.406637	0.348215
C81	C	0.577532	-0.343347	-0.401818
C82	C	0.827532	-0.093347	-0.151818
C83	C	1.077532	0.156653	0.098182
C84	C	1.327532	0.406653	0.348182
C85	C	0.544657	-0.303034	-0.354853
C86	C	0.794657	-0.053034	-0.104853
C87	C	1.044657	0.196966	0.145147
C88	C	1.294657	0.446966	0.395147
C89	C	0.577531	-0.262722	-0.307865
C90	C	0.827531	-0.012722	-0.057865
C91	C	1.077531	0.237278	0.192135
C92	C	1.327531	0.487278	0.442135
C93	C	0.643272	-0.262734	-0.307838
C94	C	0.893272	-0.012734	-0.057838
C95	C	1.143272	0.237266	0.192162
C96	C	1.393272	0.487266	0.442162
N97	N	0.441386	-0.298117	-0.290486
N98	N	0.691386	-0.048117	-0.040486
N99	N	0.941386	0.201883	0.209514
N100	N	1.191386	0.451883	0.459514
N101	N	0.378935	-0.298109	-0.290513
N102	N	0.628935	-0.048109	-0.040513
N103	N	0.878935	0.201891	0.209487
N104	N	1.128935	0.451891	0.459487
C105	C	0.346583	-0.302994	-0.354931
C106	C	0.596583	-0.052994	-0.104931
C107	C	0.846583	0.197006	0.145069
C108	C	1.096583	0.447006	0.395069
N109	N	0.379042	-0.307899	-0.419322
N110	N	0.629042	-0.057899	-0.169322
N111	N	0.879042	0.192101	0.080678
N112	N	1.129042	0.442101	0.330678
N113	N	0.441499	-0.307910	-0.419294
N114	N	0.691499	-0.057910	-0.169294
N115	N	0.941499	0.192090	0.080706
N116	N	1.191499	0.442090	0.330706
C117	C	0.473372	-0.303016	-0.354877
C118	C	0.723372	-0.053016	-0.104877
C119	C	0.973372	0.196984	0.145123
C120	C	1.223372	0.446984	0.395123
C121	C	0.242432	-0.343283	-0.401956
C122	C	0.492432	-0.093283	-0.151956
C123	C	0.742432	0.156717	0.098044
C124	C	0.992432	0.406717	0.348044
C125	C	0.176688	-0.343263	-0.401990
C126	C	0.426688	-0.093263	-0.151990
C127	C	0.676688	0.156737	0.098010
C128	C	0.926688	0.406737	0.348010
C129	C	0.176688	-0.262642	-0.308030
C130	C	0.426688	-0.012642	-0.058030
C131	C	0.676688	0.237358	0.191970
C132	C	0.926688	0.487358	0.441970
C133	C	0.242430	-0.262658	-0.308003
C134	C	0.492430	-0.012658	-0.058003
C135	C	0.742430	0.237342	0.191997
C136	C	0.992430	0.487342	0.441997
C137	C	0.275298	-0.302983	-0.354964
C138	C	0.525298	-0.052983	-0.104964
C139	C	0.775298	0.197017	0.145036
C140	C	1.025298	0.447017	0.395036
C141	C	0.909577	-0.466548	-0.354863
C142	C	1.159577	-0.216548	-0.104863
C143	C	1.409577	0.033452	0.145137
C144	C	1.659577	0.283452	0.395137
C145	C	0.909599	-0.536516	-0.354870
C146	C	1.159599	-0.286516	-0.104870
C147	C	1.409599	-0.036516	0.145130
C148	C	1.659599	0.213484	0.395130
C149	C	0.949887	-0.569364	-0.307870
C150	C	1.199887	-0.319364	-0.057870
C151	C	1.449887	-0.069364	0.192130
C152	C	1.699887	0.180636	0.442130
C153	C	0.949917	-0.635107	-0.307886
C154	C	1.199917	-0.385107	-0.057886
C155	C	1.449917	-0.135107	0.192114
C156	C	1.699917	0.114893	0.442114
C157	C	0.909647	-0.667998	-0.354895
C158	C	1.159647	-0.417998	-0.104895
C159	C	1.409647	-0.167998	0.145105
C160	C	1.659647	0.082002	0.395105
C161	C	0.869357	-0.635142	-0.401904
C162	C	1.119357	-0.385142	-0.151904
C163	C	1.369357	-0.135142	0.098096
C164	C	1.619357	0.114858	0.348096
C165	C	0.869333	-0.569401	-0.401892
C166	C	1.119333	-0.319401	-0.151892
C167	C	1.369333	-0.069401	0.098108
C168	C	1.619333	0.180599	0.348108
N169	N	0.854580	-0.771279	-0.360477
N170	N	1.104580	-0.521279	-0.110477
N171	N	1.354580	-0.271279	0.139523
N172	N	1.604580	-0.021279	0.389523
N173	N	0.854604	-0.833731	-0.360485
N174	N	1.104604	-0.583731	-0.110485
N175	N	1.354604	-0.333731	0.139515
N176	N	1.604604	-0.083731	0.389515
C177	C	0.909718	-0.866073	-0.354938
C178	C	1.159718	-0.616073	-0.104938
C179	C	1.409718	-0.366073	0.145062
C180	C	1.659718	-0.116073	0.395062
N181	N	0.964807	-0.833604	-0.349368
N182	N	1.214807	-0.583604	-0.099368
N183	N	1.464807	-0.333604	0.150632
N184	N	1.714807	-0.083604	0.400632
N185	N	0.964782	-0.771147	-0.349356
N186	N	1.214782	-0.521147	-0.099356
N187	N	1.464782	-0.271147	0.150644
N188	N	1.714782	-0.021147	0.400644
C189	C	0.909669	-0.739284	-0.354915
C190	C	1.159669	-0.489284	-0.104915
C191	C	1.409669	-0.239284	0.145085
C192	C	1.659669	0.010716	0.395085
C193	C	0.950041	-0.970207	-0.307953
C194	C	1.200041	-0.720207	-0.057953
C195	C	1.450041	-0.470207	0.192047
C196	C	1.700041	-0.220207	0.442047
C197	C	0.950071	-1.035950	-0.307975
C198	C	1.200071	-0.785950	-0.057975
C199	C	1.450071	-0.535950	0.192025
C200	C	1.700071	-0.285950	0.442025
C201	C	0.869506	-1.035985	-0.401989
C202	C	1.119506	-0.785985	-0.151989
C203	C	1.369506	-0.535985	0.098011
C204	C	1.619506	-0.285985	0.348011
C205	C	0.869481	-0.970242	-0.401971
C206	C	1.119481	-0.720242	-0.151971
C207	C	1.369481	-0.470242	0.098029
C208	C	1.619481	-0.220242	0.348029
C209	C	0.909747	-0.937357	-0.354949
C210	C	1.159747	-0.687357	-0.104949
C211	C	1.409747	-0.437357	0.145051
C212	C	1.659747	-0.187357	0.395051
C213	C	1.073850	-0.302963	-0.354989
C214	C	1.323850	-0.052963	-0.104989
C215	C	1.573850	0.197037	0.145011
C216	C	1.823850	0.447037	0.395011
C217	C	1.143818	-0.302949	-0.355025
C218	C	1.393818	-0.052949	-0.105025
C219	C	1.643818	0.197051	0.144975
C220	C	1.893818	0.447051	0.394975
C221	C	0.909698	-0.302953	-0.546857
C222	C	1.159698	-0.052953	-0.296857
C223	C	1.409698	0.197047	-0.046857
C224	C	1.659698	0.447047	0.203143
C225	C	0.909714	-0.302934	-0.628655
C226	C	1.159714	-0.052934	-0.378655
C227	C	1.409714	0.197066	-0.128655
C228	C	1.659714	0.447066	0.121345
C229	C	0.909760	-0.138806	-0.354961
C230	C	1.159760	0.111194	-0.104961
C231	C	1.409760	0.361194	0.145039
C232	C	1.659760	0.611194	0.395039
C233	C	0.909802	-0.068838	-0.354985
C234	C	1.159802	0.181162	-0.104985
C235	C	1.409802	0.431162	0.145015
C236	C	1.659802	0.681162	0.395015
C237	C	0.950015	-0.262627	-0.816886
C238	C	1.200015	-0.012627	-0.566886
C239	C	1.450015	0.237373	-0.316886
C240	C	1.700015	0.487373	-0.066886
C241	C	0.950022	-0.262609	-0.893744
C242	C	1.200022	-0.012609	-0.643744
C243	C	1.450022	0.237391	-0.393744
C244	C	1.700022	0.487391	-0.143744
C245	C	0.869458	-0.343144	-0.893663
C246	C	1.119458	-0.093144	-0.643663
C247	C	1.369458	0.156856	-0.393663
C248	C	1.619458	0.406856	-0.143663
C249	C	0.869448	-0.343159	-0.816806
C250	C	1.119448	-0.093159	-0.566806
C251	C	1.369448	0.156841	-0.316806
C252	C	1.619448	0.406841	-0.066806
C253	C	0.909730	-0.302901	-0.778419
C254	C	1.159730	-0.052901	-0.528419
C255	C	1.409730	0.197099	-0.278419
C256	C	1.659730	0.447099	-0.028419
C257	C	0.909748	-0.302868	-0.932135
C258	C	1.159748	-0.052868	-0.682135
C259	C	1.409748	0.197132	-0.432135
C260	C	1.659748	0.447132	-0.182135
C261	C	0.909756	-0.302848	-1.015469
C262	C	1.159756	-0.052848	-0.765469
C263	C	1.409756	0.197152	-0.515469
C264	C	1.659756	0.447152	-0.265469
C265	C	0.909721	-0.302920	-0.695080
C266	C	1.159721	-0.052920	-0.445080
C267	C	1.409721	0.197080	-0.195080
C268	C	1.659721	0.447080	0.054920
C269	C	0.909658	-0.302994	-0.163697
C270	C	1.159658	-0.052994	0.086303
C271	C	1.409658	0.197006	0.336303
C272	C	1.659658	0.447006	0.586303
C273	C	0.909763	-0.302835	-0.081899
C274	C	1.159763	-0.052835	0.168101
C275	C	1.409763	0.197165	0.418101
C276	C	1.659763	0.447165	0.668101
H277	H	0.550760	-0.229898	-0.269627
H278	H	0.800760	0.020102	-0.019627
H279	H	1.050760	0.270102	0.230373
H280	H	1.300760	0.520102	0.480373
H281	H	0.982676	-0.542591	-0.269584
H282	H	1.232676	-0.292591	-0.019584
H283	H	1.482676	-0.042591	0.230416
H284	H	1.732676	0.207409	0.480416
O285	O	0.993488	-0.934740	-0.257253
O286	O	1.243488	-0.684740	-0.007253
O287	O	1.493488	-0.434740	0.242747
O288	O	1.743488	-0.184740	0.492747
H289	H	1.025481	-0.904732	-0.290244
H290	H	1.275481	-0.654732	-0.040244
H291	H	1.525481	-0.404732	0.209756
H292	H	1.775481	-0.154732	0.459756
H293	H	0.982883	-1.062694	-0.269703
H294	H	1.232883	-0.812694	-0.019703
H295	H	1.482883	-0.562694	0.230297
H296	H	1.732883	-0.312694	0.480297
O297	O	0.825983	-0.386596	-0.775323
O298	O	1.075983	-0.136596	-0.525323
O299	O	1.325983	0.113404	-0.275323
O300	O	1.575983	0.363404	-0.025323
H301	H	0.854123	-0.418626	-0.740301
H302	H	1.104123	-0.168626	-0.490301
H303	H	1.354123	0.081374	-0.240301
H304	H	1.604123	0.331374	0.009699
O305	O	0.993474	-0.219165	-0.935226
O306	O	1.243474	0.030835	-0.685226
O307	O	1.493474	0.280835	-0.435226
O308	O	1.743474	0.530835	-0.185226
H309	H	0.965320	-0.187131	-0.970226
H310	H	1.215320	0.062869	-0.720226
H311	H	1.465320	0.312869	-0.470226
H312	H	1.715320	0.562869	-0.220226
O313	O	0.678723	-0.386845	-0.452446
O314	O	0.928723	-0.136845	-0.202446
O315	O	1.178723	0.113155	0.047554
O316	O	1.428723	0.363155	0.297554
H317	H	0.666041	-0.436234	-0.439728
H318	H	0.916041	-0.186234	-0.189728
H319	H	1.166041	0.063766	0.060272
H320	H	1.416041	0.313766	0.310272
H321	H	0.670030	-0.229912	-0.269577
H322	H	0.920030	0.020088	-0.019577
H323	H	1.170030	0.270088	0.230423
H324	H	1.420030	0.520088	0.480423
O325	O	0.826021	-0.934811	-0.452662
O326	O	1.076021	-0.684811	-0.202662
O327	O	1.326021	-0.434811	0.047338
O328	O	1.576021	-0.184811	0.297338
H329	H	0.832773	-0.883572	-0.444760
H330	H	1.082773	-0.633572	-0.194760
H331	H	1.332773	-0.383572	0.055240
H332	H	1.582773	-0.133572	0.305240
O333	O	0.825921	-0.670620	-0.452601
O334	O	1.075921	-0.420620	-0.202601
O335	O	1.325921	-0.170620	0.047399
O336	O	1.575921	0.079380	0.297399
H337	H	0.836687	-0.657962	-0.510375
H338	H	1.086687	-0.407962	-0.260375
H339	H	1.336687	-0.157962	-0.010375
H340	H	1.586687	0.092038	0.239625
H341	H	0.982813	-0.229845	-0.785633
H342	H	1.232813	0.020155	-0.535633
H343	H	1.482813	0.270155	-0.285633
H344	H	1.732813	0.520155	-0.035633
O345	O	0.542072	-0.386844	-0.452467
O346	O	0.792072	-0.136844	-0.202467
O347	O	1.042072	0.113156	0.047533
O348	O	1.292072	0.363156	0.297533
H349	H	0.575972	-0.414895	-0.485105
H350	H	0.825972	-0.164895	-0.235105
H351	H	1.075972	0.085105	0.014895
H352	H	1.325972	0.335105	0.264895
H353	H	0.836720	-1.062764	-0.440268
H354	H	1.086720	-0.812764	-0.190268
H355	H	1.336720	-0.562764	0.059732
H356	H	1.586720	-0.312764	0.309732
O357	O	0.277897	-0.386756	-0.452617
O358	O	0.527897	-0.136756	-0.202617
O359	O	0.777897	0.113244	0.047383
O360	O	1.027897	0.363244	0.297383
H361	H	0.265222	-0.436149	-0.439910
H362	H	0.515222	-0.186149	-0.189910
H363	H	0.765222	0.063851	0.060090
H364	H	1.015222	0.313851	0.310090
O365	O	0.141235	-0.386819	-0.452571
O366	O	0.391235	-0.136819	-0.202571
O367	O	0.641235	0.113181	0.047429
O368	O	0.891235	0.363181	0.297429
H369	H	0.175138	-0.414894	-0.485179
H370	H	0.425138	-0.164894	-0.235179
H371	H	0.675138	0.085106	0.014821
H372	H	0.925138	0.335106	0.264821
O373	O	0.141241	-0.219164	-0.257366
O374	O	0.391241	0.030836	-0.007366
O375	O	0.641241	0.280836	0.242634
O376	O	0.891241	0.530836	0.492634
H377	H	0.090005	-0.225930	-0.265272
H378	H	0.340005	0.024070	-0.015272
H379	H	0.590005	0.274070	0.234728
H380	H	0.840005	0.524070	0.484728
H381	H	0.269190	-0.229841	-0.269739
H382	H	0.519190	0.020159	-0.019739
H383	H	0.769190	0.270159	0.230261
H384	H	1.019190	0.520159	0.480261
H385	H	0.836664	-0.375922	-0.924927
H386	H	1.086664	-0.125922	-0.674927
H387	H	1.336664	0.124078	-0.424927
H388	H	1.586664	0.374078	-0.174927
O389	O	0.993366	-0.670549	-0.257186
O390	O	1.243366	-0.420549	-0.007186
O391	O	1.493366	-0.170549	0.242814
O392	O	1.743366	0.079451	0.492814
H393	H	1.021358	-0.636637	-0.224483
H394	H	1.271358	-0.386637	0.025517
H395	H	1.521358	-0.136637	0.275517
H396	H	1.771358	0.113363	0.525517
H397	H	0.836525	-0.542655	-0.440166
H398	H	1.086525	-0.292655	-0.190166
H399	H	1.336525	-0.042655	0.059834
H400	H	1.586525	0.207345	0.309834
