data_functionalizedCrystal
_audit_creation_method	'MofGen! by Chris Wilmer'
_symmetry_space_group_name_H-M	'P1'
_symmetry_Int_Tables_number	1
_symmetry_cell_setting	triclinic
loop_
_symmetry_equiv_pos_as_xyz
  x,y,z
_cell_length_a	19.288864
_cell_length_b	17.699083
_cell_length_c	18.366186
_cell_angle_alpha	89.992864
_cell_angle_beta	89.977106
_cell_angle_gamma	83.209630
loop_
_atom_site_label
_atom_site_type_symbol
_atom_site_fract_x
_atom_site_fract_y
_atom_site_fract_z
O1	O	0.921465	0.094417	-0.060785
O2	O	0.719219	0.107154	-0.060735
O3	O	0.826056	-0.009412	-0.060755
O4	O	0.814628	0.210983	-0.060765
O5	O	0.826038	-0.009417	0.060345
O6	O	0.719201	0.107148	0.060364
O7	O	0.921446	0.094412	0.060315
Zn8	Zn	0.820321	0.100779	0.079567
Zn9	Zn	0.820345	0.100786	-0.079987
O10	O	0.814610	0.210977	0.060335
C11	C	0.693333	0.106741	-0.000179
C12	C	0.616228	0.105511	-0.000160
C13	C	0.571613	0.173906	-0.000174
C14	C	0.499164	0.172751	-0.000182
C15	C	0.471334	0.103196	-0.000190
C16	C	0.515959	0.034791	-0.000172
C17	C	0.588406	0.035949	-0.000156
C18	C	0.363014	0.048520	-0.042639
C19	C	0.290568	0.047365	-0.042659
C20	C	0.247884	0.099622	-0.000234
C21	C	0.277654	0.153047	0.042200
C22	C	0.350101	0.154205	0.042216
C23	C	0.392779	0.101932	-0.000206
C24	C	0.124712	0.166769	-0.000256
C25	C	0.052262	0.165610	-0.000260
C26	C	0.069059	0.027649	-0.000257
C27	C	0.141507	0.028809	-0.000246
C28	C	0.169329	0.098371	-0.000249
C29	C	0.825637	-0.037611	-0.000205
C30	C	0.824409	-0.121627	-0.000204
C31	C	0.887120	-0.170336	-0.000219
C32	C	0.885961	-0.249278	-0.000225
C33	C	0.822091	-0.279509	-0.000211
C34	C	0.759375	-0.230794	-0.000199
C35	C	0.760535	-0.151854	-0.000198
C36	C	0.754699	-0.549150	-0.000204
C37	C	0.753545	-0.628097	-0.000203
C38	C	0.880126	-0.646575	-0.000230
C39	C	0.881285	-0.567635	-0.000230
C40	C	0.818570	-0.518926	-0.000221
C41	C	0.819827	-0.433329	-0.000216
C42	C	0.820834	-0.365105	-0.000211
C43	C	0.947332	0.094824	-0.000243
C44	C	1.024437	0.096054	-0.000267
C45	C	0.815028	0.239176	-0.000217
C46	C	0.816257	0.323193	-0.000222
N47	N	0.820310	0.100773	0.188458
N48	N	0.820361	0.100786	-0.188878
C49	C	0.867632	0.049183	0.226550
C50	C	0.867637	0.049180	0.302777
C51	C	0.820325	0.100780	0.340911
C52	C	0.772993	0.152373	0.302810
C53	C	0.772986	0.152370	0.226583
C54	C	0.811108	0.169742	0.461669
C55	C	0.811121	0.169746	0.537894
C56	C	0.820345	0.100789	0.576018
C57	C	0.829571	0.031825	0.537908
C58	C	0.829563	0.031822	0.461681
C59	C	0.820328	0.100788	0.423565
C60	C	0.867675	0.049191	0.696765
C61	C	0.867674	0.049187	0.772994
C62	C	0.773034	0.152387	0.773025
C63	C	0.773031	0.152385	0.696797
C64	C	0.820355	0.100788	0.658672
H65	H	0.266335	0.003866	-0.077214
O66	O	0.154725	0.241793	-0.000243
H67	H	0.136815	0.274657	-0.049599
H68	H	0.624733	-0.019749	-0.000145
O69	O	0.722004	0.208045	0.814142
H70	H	0.729961	0.199384	0.873547
O71	O	0.947770	-0.699114	-0.000247
H72	H	0.978327	-0.688404	0.049111
H73	H	0.803613	0.225900	0.568918
H74	H	0.906165	0.007168	0.195510
H75	H	0.939130	-0.145729	-0.000225
H76	H	0.937027	-0.288934	-0.000235
H77	H	0.701531	-0.652707	-0.000190
O78	O	0.004141	0.239386	-0.000270
H79	H	-0.050911	0.226897	-0.000270
O80	O	0.839326	-0.042561	0.420580
H81	H	0.837709	-0.030976	0.361171
H82	H	0.703632	-0.509501	-0.000197
O83	O	0.918686	-0.006457	0.343877
H84	H	0.951595	-0.042331	0.304559
H85	H	0.933295	-0.543025	-0.000237
O86	O	0.839514	-0.042559	0.579013
H87	H	0.837960	-0.030975	0.638420
O88	O	0.690484	-0.263394	-0.000177
H89	H	0.700212	-0.326469	-0.000170
H90	H	0.177834	-0.026886	-0.000238
H91	H	0.709469	-0.112195	-0.000187
O92	O	0.409050	-0.007843	-0.088403
H93	H	0.376179	-0.045176	-0.117922
O94	O	0.918705	-0.006465	0.655635
H95	H	0.951605	-0.042350	0.694932
H96	H	0.493296	-0.021841	-0.000188
O97	O	0.918725	-0.006451	0.814085
H98	H	0.951635	-0.042320	0.774764
O99	O	0.601623	0.248930	-0.000157
H100	H	0.558422	0.296296	-0.000158
H101	H	0.734500	0.194397	0.665781
O102	O	0.039055	-0.047375	-0.000266
H103	H	-0.018818	-0.036691	-0.000282
H104	H	0.803585	0.225898	0.430635
H105	H	0.462831	0.228448	-0.000192
H106	H	0.734470	0.194386	0.333862
O107	O	0.721948	0.208021	0.185491
H108	H	0.689051	0.243906	0.224811
H109	H	0.242902	0.195599	0.076747
O110	O	0.382217	0.211794	0.088011
H111	H	0.340372	0.247929	0.117524
