data_functionalizedCrystal
_audit_creation_method	'MofGen! by Chris Wilmer'
_symmetry_space_group_name_H-M	'P1'
_symmetry_Int_Tables_number	1
_symmetry_cell_setting	triclinic
loop_
_symmetry_equiv_pos_as_xyz
  x,y,z
_cell_length_a	11.026607
_cell_length_b	15.995350
_cell_length_c	10.065875
_cell_angle_alpha	98.791555
_cell_angle_beta	79.302338
_cell_angle_gamma	96.039196
loop_
_atom_site_label
_atom_site_type_symbol
_atom_site_fract_x
_atom_site_fract_y
_atom_site_fract_z
O1	O	1.627917	0.340991	-0.113481
O2	O	1.274611	0.301065	-0.113484
O3	O	1.460922	0.200596	-0.113481
O4	O	1.441606	0.441460	-0.113484
O5	O	1.425395	0.219853	0.113507
O6	O	1.239084	0.320322	0.113504
O7	O	1.592390	0.360247	0.113508
Zn8	Zn	1.410096	0.343342	0.149545
Zn9	Zn	1.456905	0.317971	-0.149522
O10	O	1.406079	0.460716	0.113504
C11	C	1.211637	0.303328	0.000010
C12	C	1.076923	0.281371	0.000008
C13	C	1.003118	0.341997	0.000007
C14	C	0.863884	0.319305	0.000005
C15	C	1.442360	0.178909	0.000011
C16	C	1.439967	0.085597	0.000003
C17	C	1.431369	-0.253446	0.000007
C18	C	1.298762	-0.226055	-0.000503
C19	C	1.301076	-0.128960	0.000009
C20	C	1.435634	-0.085243	0.000004
C21	C	1.480793	-0.105459	0.129624
C22	C	1.477442	-0.202588	0.129732
C23	C	1.520584	-0.224432	-0.128396
C24	C	1.520821	-0.127636	-0.130109
C25	C	1.438051	0.009819	0.000007
C26	C	1.428955	-0.348507	0.000014
C27	C	1.655365	0.357984	0.000011
C28	C	1.790080	0.379940	0.000003
C29	C	1.424641	0.482403	0.000010
C30	C	1.427036	0.575714	0.000009
N31	N	1.378160	0.360658	0.353650
N32	N	1.488851	0.300649	-0.353627
C33	C	1.445785	0.323989	0.421430
C34	C	1.421215	0.337324	0.578597
H35	H	1.043008	0.410702	0.000014
H36	H	1.521868	0.282719	0.363107
N37	N	0.840076	0.466142	0.000016
N38	N	0.801362	0.521595	0.095696
H39	H	0.836669	0.582475	0.095706
H40	H	1.302069	0.401920	0.411975
H41	H	1.264174	-0.116175	-0.092908
N42	N	0.813836	0.233116	0.000024
N43	N	0.700801	0.214805	0.000031
H44	H	0.665451	0.153935	0.000047
N45	N	1.026870	0.195186	0.000027
N46	N	0.913835	0.176875	0.000034
H47	H	0.878485	0.116005	0.000050
N48	N	1.325753	0.389085	0.651768
N49	N	1.305925	0.399840	0.779337
H50	H	1.238505	0.436394	0.831018
N51	N	1.214395	-0.250744	0.115492
N52	N	1.159783	-0.195787	0.200884
H53	H	1.100208	-0.213219	0.282818
H54	H	1.260276	-0.260465	-0.093456
N55	N	1.217823	-0.093887	0.116759
N56	N	1.105315	-0.118480	0.131932
H57	H	1.046513	-0.093710	0.214393
H58	H	1.564938	0.259377	0.588054
H59	H	1.578894	-0.076025	0.134441
H60	H	1.573939	-0.219655	0.135610
N61	N	1.398526	-0.224254	0.251276
N62	N	1.287193	-0.208817	0.274279
H63	H	1.231452	-0.224114	0.360121
N64	N	1.404823	-0.068183	0.250626
N65	N	1.317385	-0.026709	0.241737
H66	H	1.263723	-0.000385	0.327192
N67	N	1.485451	-0.268868	-0.251633
N68	N	1.394221	-0.322468	-0.246320
H69	H	1.369397	-0.353855	-0.333350
N70	N	1.479695	-0.112601	-0.250384
N71	N	1.477126	-0.038296	-0.273599
H72	H	1.448075	-0.027666	-0.358536
N73	N	1.645446	-0.090627	-0.139937
N74	N	1.673638	-0.032147	-0.050802
H75	H	1.761657	-0.006004	-0.057737
H76	H	1.618551	-0.241521	-0.129270
