data_functionalizedCrystal
_audit_creation_method	'MofGen! by Chris Wilmer'
_symmetry_space_group_name_H-M	'P1'
_symmetry_Int_Tables_number	1
_symmetry_cell_setting	triclinic
loop_
_symmetry_equiv_pos_as_xyz
  x,y,z
_cell_length_a	9.065218
_cell_length_b	10.540539
_cell_length_c	8.140239
_cell_angle_alpha	89.998610
_cell_angle_beta	89.997198
_cell_angle_gamma	84.770688
loop_
_atom_site_label
_atom_site_type_symbol
_atom_site_fract_x
_atom_site_fract_y
_atom_site_fract_z
O1	O	1.959468	0.186143	-0.136609
O2	O	2.459468	0.686143	0.363391
O3	O	1.530107	0.201412	-0.136611
O4	O	2.030107	0.701412	0.363389
O5	O	1.754583	0.009107	-0.136608
O6	O	2.254583	0.509107	0.363392
O7	O	1.734992	0.378448	-0.136612
O8	O	2.234992	0.878448	0.363388
O9	O	1.754571	0.009105	0.136619
O10	O	2.254571	0.509105	0.636619
O11	O	1.530095	0.201409	0.136616
O12	O	2.030095	0.701409	0.636616
O13	O	1.959456	0.186141	0.136618
O14	O	2.459456	0.686141	0.636618
Zn15	Zn	1.744773	0.193775	0.179998
Zn16	Zn	2.244773	0.693775	0.679998
Zn17	Zn	1.744790	0.193778	-0.179991
Zn18	Zn	2.244790	0.693778	0.320009
O19	O	1.734980	0.378446	0.136615
O20	O	2.234980	0.878446	0.636615
C21	C	1.475122	0.199943	0.000003
C22	C	1.975122	0.699943	0.500003
C23	C	1.311301	0.195556	0.000002
C24	C	1.811301	0.695556	0.500002
C25	C	1.753108	-0.038202	0.000003
C26	C	2.253108	0.461798	0.500003
C27	C	1.748712	-0.179167	-0.000006
C28	C	2.248712	0.320833	0.499994
C29	C	1.580278	-0.363216	-0.000620
C30	C	2.080278	0.136784	0.499380
C31	C	1.584734	-0.216582	-0.000005
C32	C	2.084734	0.283418	0.499995
C33	C	1.827619	-0.240534	0.156020
C34	C	2.327619	0.259466	0.656020
C35	C	1.822022	-0.387099	0.156152
C36	C	2.322022	0.112901	0.656152
C37	C	1.825372	-0.387602	-0.154558
C38	C	2.325372	0.112398	0.345442
C39	C	1.826882	-0.240615	-0.156621
C40	C	2.326882	0.259385	0.343379
C41	C	2.014441	0.187610	0.000001
C42	C	2.514441	0.687610	0.500001
C43	C	2.178262	0.191997	-0.000009
C44	C	2.678262	0.691997	0.499991
C45	C	1.736455	0.425755	0.000001
C46	C	2.236455	0.925755	0.500001
C47	C	1.740851	0.566719	-0.000001
C48	C	2.240851	1.066719	0.499999
N49	N	1.744773	0.193772	0.425681
N50	N	2.244773	0.693772	0.925681
N51	N	1.744802	0.193771	-0.425673
N52	N	2.244802	0.693771	0.074327
H53	H	1.522646	-0.174207	-0.111851
H54	H	2.022646	0.325793	0.388149
Br55	Br	2.018573	-0.466331	0.167971
Br56	Br	2.518573	0.033669	0.667971
Br57	Br	2.022779	-0.465584	-0.156311
Br58	Br	2.522779	0.034416	0.343689
H59	H	1.946435	-0.215951	-0.166043
H60	H	2.446435	0.284049	0.333957
H61	H	1.763696	-0.415515	0.272784
H62	H	2.263696	0.084485	0.772784
H63	H	1.769147	-0.199969	-0.272045
H64	H	2.269147	0.300031	0.227955
H65	H	1.515761	-0.393663	0.110642
H66	H	2.015761	0.106337	0.610642
Br67	Br	1.736249	-0.169877	0.349551
Br68	Br	2.236249	0.330123	0.849551
H69	H	1.948040	-0.217735	0.161822
H70	H	2.448040	0.282265	0.661822
Br71	Br	1.480497	-0.147359	0.186716
Br72	Br	1.980497	0.352641	0.686716
H73	H	1.515508	-0.392055	-0.112509
H74	H	2.015508	0.107945	0.387491
Br75	Br	1.736911	-0.440498	-0.351666
Br76	Br	2.236911	0.059502	0.148334
