data_functionalizedCrystal
_audit_creation_method	'MofGen! by Chris Wilmer'
_symmetry_space_group_name_H-M	'P1'
_symmetry_Int_Tables_number	1
_symmetry_cell_setting	triclinic
loop_
_symmetry_equiv_pos_as_xyz
  x,y,z
_cell_length_a	16.625548
_cell_length_b	18.101397
_cell_length_c	16.625539
_cell_angle_alpha	90.031854
_cell_angle_beta	90.020568
_cell_angle_gamma	90.021534
loop_
_atom_site_label
_atom_site_type_symbol
_atom_site_fract_x
_atom_site_fract_y
_atom_site_fract_z
Zn1	Zn	1.232692	-0.294807	0.455889
Zn2	Zn	1.232600	-0.418656	0.321048
Zn3	Zn	1.097853	-0.294835	0.321070
Zn4	Zn	1.097829	-0.418614	0.455838
O5	O	1.165243	-0.356728	0.388462
O6	O	1.345512	-0.311242	0.438015
O7	O	1.214697	-0.402261	0.208219
O8	O	1.115789	-0.191199	0.338985
O9	O	1.345444	-0.402233	0.338948
O10	O	1.214854	-0.191178	0.438036
O11	O	1.115700	-0.311290	0.208235
O12	O	0.985018	-0.311249	0.338935
O13	O	1.115747	-0.402161	0.568677
O14	O	0.985000	-0.402188	0.437949
O15	O	1.214830	-0.311201	0.568715
O16	O	1.214673	-0.522283	0.338898
O17	O	1.115657	-0.522252	0.437928
C18	C	0.955752	-0.356718	0.388439
C19	C	0.866131	-0.356731	0.388448
C20	C	1.165174	-0.549139	0.388422
C21	C	1.165219	-0.631453	0.388433
C22	C	0.537956	-0.356736	0.388483
C23	C	0.629264	-0.356732	0.388471
C24	C	0.702041	-0.356734	0.388465
C25	C	0.793355	-0.356729	0.388454
C26	C	1.165322	-0.930544	0.388506
C27	C	1.227446	-0.899207	0.326033
C28	C	1.227661	-0.813589	0.326194
C29	C	1.165271	-0.782161	0.388469
C30	C	1.188307	-0.813166	0.473459
C31	C	1.188788	-0.898811	0.473119
C32	C	1.079995	-0.899055	0.366725
C33	C	1.080417	-0.813405	0.364828
C34	C	1.165240	-0.698302	0.388453
C35	C	1.165354	-1.014403	0.388528
C36	C	1.375552	-0.356739	0.388485
C37	C	1.465173	-0.356744	0.388494
C38	C	1.165296	-0.356673	0.598771
C39	C	1.165318	-0.356649	0.688392
C40	C	1.165335	-0.163566	0.388518
C41	C	1.165373	-0.081252	0.388543
C42	C	1.165238	-0.356730	0.178971
C43	C	1.165371	-0.356544	0.089350
C44	C	1.165355	-0.356566	1.016568
C45	C	1.165343	-0.356592	0.925259
C46	C	1.165337	-0.356609	0.852483
C47	C	1.165324	-0.356633	0.761168
H48	H	1.213208	-0.919852	0.262825
H49	H	1.251157	-0.918729	0.491569
O50	O	1.054895	-0.924970	0.294137
C51	C	0.954161	-0.993832	0.221643
C52	C	0.982492	-0.964542	0.303904
H53	H	0.895611	-1.025818	0.229509
H54	H	1.002055	-1.031915	0.195418
H55	H	0.943817	-0.945393	0.179088
H56	H	0.992829	-1.012934	0.346520
H57	H	0.934583	-0.926437	0.330063
O58	O	1.137155	-0.923419	0.530608
C59	C	1.043156	-0.890545	0.634938
C60	C	1.101608	-0.862581	0.569868
H61	H	1.014388	-0.841371	0.666687
H62	H	1.077478	-0.925350	0.680614
H63	H	0.994284	-0.925625	0.605641
H64	H	1.150493	-0.827471	0.599095
H65	H	1.067231	-0.827815	0.524200
H66	H	1.213249	-0.792629	0.263176
H67	H	1.144442	-0.792807	0.521259
H68	H	1.290866	-0.793044	0.340606
H69	H	1.031640	-0.792020	0.406999
H70	H	1.249978	-0.791657	0.492221
H71	H	1.063047	-0.793148	0.302282
H72	H	1.290305	-0.920674	0.340278
H73	H	1.033708	-0.919320	0.412227
