data_functionalizedCrystal
_audit_creation_method	'MofGen! by Chris Wilmer'
_symmetry_space_group_name_H-M	'P1'
_symmetry_Int_Tables_number	1
_symmetry_cell_setting	triclinic
loop_
_symmetry_equiv_pos_as_xyz
  x,y,z
_cell_length_a	17.699083
_cell_length_b	9.616153
_cell_length_c	17.699083
_cell_angle_alpha	90.008362
_cell_angle_beta	83.283015
_cell_angle_gamma	89.990722
loop_
_atom_site_label
_atom_site_type_symbol
_atom_site_fract_x
_atom_site_fract_y
_atom_site_fract_z
O1	O	-1.004067	-0.115440	-0.095715
O2	O	-0.504067	0.384560	0.404285
O3	O	-0.783689	-0.115489	-0.108168
O4	O	-0.283689	0.384511	0.391832
O5	O	-0.900104	-0.115450	0.008248
O6	O	-0.400104	0.384550	0.508248
O7	O	-0.887652	-0.115478	-0.212131
O8	O	-0.387652	0.384522	0.287869
O9	O	-0.900111	0.115841	0.008259
O10	O	-0.400111	0.615841	0.508259
O11	O	-0.783696	0.115803	-0.108156
O12	O	-0.283696	0.615803	0.391844
O13	O	-1.004074	0.115852	-0.095704
O14	O	-0.504074	0.615852	0.404296
Zn15	Zn	-0.893886	0.152550	-0.101928
Zn16	Zn	-0.393886	0.652550	0.398072
Zn17	Zn	-0.893877	-0.152187	-0.101943
Zn18	Zn	-0.393877	0.347813	0.398057
O19	O	-0.887659	0.115814	-0.212119
O20	O	-0.387659	0.615814	0.287881
C21	C	-0.755495	0.000151	-0.107716
C22	C	-0.255495	0.500151	0.392284
C23	C	-0.671477	0.000133	-0.106377
C24	C	-0.171477	0.500133	0.393623
C25	C	-0.622856	0.000124	-0.174710
C26	C	-0.122856	0.500124	0.325290
C27	C	-0.543913	0.000141	-0.173448
C28	C	-0.043913	0.500141	0.326552
C29	C	-0.513592	0.000157	-0.103852
C30	C	-0.013592	0.500157	0.396148
C31	C	-0.562219	0.000170	-0.035513
C32	C	-0.062219	0.500170	0.464487
C33	C	-0.641161	0.000163	-0.036776
C34	C	-0.141161	0.500163	0.463224
C35	C	-0.243856	0.000200	-0.030418
C36	C	0.256144	0.500200	0.469582
C37	C	-0.164908	0.000203	-0.029160
C38	C	0.335092	0.500203	0.470840
C39	C	-0.146608	0.000179	-0.167090
C40	C	0.353392	0.500179	0.332910
C41	C	-0.225550	0.000172	-0.168353
C42	C	0.274450	0.500172	0.331647
C43	C	-0.274170	0.000192	-0.100015
C44	C	0.225830	0.500192	0.399985
C45	C	-0.359769	0.000176	-0.101384
C46	C	0.140231	0.500176	0.398616
C47	C	-0.427995	0.000163	-0.102481
C48	C	0.072005	0.500163	0.397519
N49	N	-0.893871	-0.360161	-0.101948
N50	N	-0.393871	0.139839	0.398052
C51	C	-0.831672	-0.580551	-0.164280
C52	C	-0.331672	-0.080551	0.335720
C53	C	-0.831436	-0.419384	-0.164138
C54	C	-0.331436	0.080616	0.335862
C55	C	-0.876975	-0.418630	-0.022942
C56	C	-0.376975	0.081370	0.477058
C57	C	-0.876544	-0.579848	-0.023290
C58	C	-0.376544	-0.079848	0.476710
C59	C	-0.973203	-0.580033	-0.117857
C60	C	-0.473203	-0.080033	0.382143
C61	C	-0.972655	-0.418806	-0.119671
C62	C	-0.472655	0.081194	0.380329
C63	C	-0.032268	0.000206	-0.096156
C64	C	0.467732	0.500206	0.403844
C65	C	-0.116286	0.000205	-0.097494
C66	C	0.383714	0.500205	0.402506
C67	C	-0.899662	0.000195	0.036451
C68	C	-0.399662	0.500195	0.536451
C69	C	-0.898323	0.000196	0.120469
C70	C	-0.398323	0.500196	0.620469
N71	N	-0.893898	0.360524	-0.101917
N72	N	-0.393898	0.860524	0.398083
C73	C	-0.888102	0.000165	-0.240322
C74	C	-0.388102	0.500165	0.259678
C75	C	-0.889440	0.000155	-0.324340
C76	C	-0.389440	0.500155	0.175660
C77	C	-0.966656	0.000213	0.169090
C78	C	-0.466656	0.500213	0.669090
C79	C	-0.965394	0.000200	0.248033
C80	C	-0.465394	0.500200	0.748033
C81	C	-0.895798	0.000180	0.278354
C82	C	-0.395798	0.500180	0.778354
C83	C	-0.827459	0.000159	0.229727
C84	C	-0.327459	0.500159	0.729727
C85	C	-0.828722	0.000162	0.150785
C86	C	-0.328722	0.500162	0.650785
C87	C	-0.822364	0.000147	0.548090
C88	C	-0.322364	0.500147	1.048090
C89	C	-0.821106	0.000148	0.627038
C90	C	-0.321106	0.500148	1.127038
C91	C	-0.959036	0.000185	0.645338
C92	C	-0.459036	0.500185	1.145338
C93	C	-0.960299	0.000188	0.566396
C94	C	-0.460299	0.500188	1.066396
C95	C	-0.891961	0.000159	0.517776
C96	C	-0.391961	0.500159	1.017776
C97	C	-0.893330	0.000170	0.432177
C98	C	-0.393330	0.500170	0.932177
C99	C	-0.894427	0.000179	0.363951
C100	C	-0.394427	0.500179	0.863951
H101	H	-0.107012	0.000170	-0.222734
H102	H	0.392988	0.500170	0.277266
C103	C	-0.844977	-0.632970	-0.243873
C104	C	-0.344977	-0.132970	0.256127
N105	N	-0.854999	-0.672460	-0.303824
N106	N	-0.354999	-0.172460	0.196176
H107	H	-0.504328	0.000132	-0.229092
H108	H	-0.004328	0.500132	0.270908
C109	C	-0.747189	0.000108	0.494617
C110	C	-0.247189	0.500108	0.994617
N111	N	-0.690564	0.000074	0.454339
N112	N	-0.190564	0.500074	0.954339
H113	H	-0.920160	-0.618823	0.024512
H114	H	-0.420160	-0.118823	0.524512
C115	C	-1.038101	-0.364350	-0.062299
C116	C	-0.538101	0.135650	0.437701
N117	N	-1.087394	-0.323336	-0.019080
N118	N	-0.587394	0.176664	0.480920
H119	H	-0.537526	0.000203	0.021154
H120	H	-0.037526	0.500203	0.521154
H121	H	-0.772572	-0.380833	-0.153957
H122	H	-0.272572	0.119167	0.346043
C123	C	-0.936581	-0.366790	0.041254
C124	C	-0.436581	0.133210	0.541254
N125	N	-0.981477	-0.327738	0.089605
N126	N	-0.481477	0.172262	0.589605
C127	C	-0.750902	0.000149	0.263082
C128	C	-0.250902	0.500149	0.763082
N129	N	-0.693238	0.000152	0.288205
N130	N	-0.193238	0.500152	0.788205
H131	H	-1.023330	0.000237	0.144409
H132	H	-0.523330	0.500237	0.644409
C133	C	-0.131558	0.000238	0.047405
C134	C	0.368442	0.500238	0.547405
N135	N	-0.106439	0.000266	0.105071
N136	N	0.393561	0.500266	0.605071
H137	H	-1.021038	0.000217	0.287618
H138	H	-0.521038	0.500217	0.787618
C139	C	-0.799738	-0.364114	-0.003527
C140	C	-0.299738	0.135886	0.496473
N141	N	-0.741560	-0.323057	0.011091
N142	N	-0.241560	0.176943	0.511091
C143	C	-0.844931	-0.365980	-0.243484
C144	C	-0.344931	0.134020	0.256516
N145	N	-0.855082	-0.325763	-0.303254
N146	N	-0.355082	0.174237	0.196746
C147	C	-0.258898	0.000163	-0.244914
C148	C	0.241102	0.500163	0.255086
N149	N	-0.284014	0.000166	-0.302582
N150	N	0.215986	0.500166	0.197418
H151	H	-0.818717	-0.617465	-0.009252
H152	H	-0.318717	-0.117465	0.490748
H153	H	-1.019505	-0.618140	-0.072382
H154	H	-0.519505	-0.118140	0.427618
H155	H	-0.680748	0.000169	0.018868
H156	H	-0.180748	0.500169	0.518868
H157	H	-0.647537	0.000110	-0.231384
H158	H	-0.147537	0.500110	0.268616
H159	H	-0.989531	-0.620720	-0.174231
H160	H	-0.489531	-0.120720	0.325769
H161	H	-1.016971	0.000211	0.541714
H162	H	-0.516971	0.500211	1.041714
H163	H	-1.014680	0.000201	0.684934
H164	H	-0.514680	0.500201	1.184934
H165	H	-0.283434	0.000218	0.025228
H166	H	0.216566	0.500218	0.525228
H167	H	-0.764429	0.000135	0.651721
H168	H	-0.264429	0.500135	1.151721
H169	H	-0.985478	-0.380618	-0.177796
H170	H	-0.485478	0.119382	0.322204
H171	H	-0.773145	-0.621080	-0.154237
H172	H	-0.273145	-0.121080	0.345763
H173	H	-0.773078	0.000148	0.111198
H174	H	-0.273078	0.500148	0.611198
