data_functionalizedCrystal
_audit_creation_method	'MofGen! by Chris Wilmer'
_symmetry_space_group_name_H-M	'P1'
_symmetry_Int_Tables_number	1
_symmetry_cell_setting	triclinic
loop_
_symmetry_equiv_pos_as_xyz
  x,y,z
_cell_length_a	15.538191
_cell_length_b	19.188930
_cell_length_c	14.750779
_cell_angle_alpha	77.396187
_cell_angle_beta	97.572172
_cell_angle_gamma	65.208438
loop_
_atom_site_label
_atom_site_type_symbol
_atom_site_fract_x
_atom_site_fract_y
_atom_site_fract_z
O1	O	1.230319	-0.206654	-0.079811
O2	O	0.955725	-0.125950	-0.079820
O3	O	1.100951	-0.269953	-0.079797
O4	O	1.085093	-0.062651	-0.079835
O5	O	1.142004	-0.310658	0.079860
O6	O	0.996778	-0.166654	0.079837
O7	O	1.271372	-0.247359	0.079846
Zn8	Zn	1.140594	-0.213470	0.105190
Zn9	Zn	1.086504	-0.159839	-0.105165
O10	O	1.126146	-0.103356	0.079822
C11	C	0.941121	-0.137858	0.000007
C12	C	0.836443	-0.112707	0.000004
C13	C	1.120965	-0.316188	0.000035
C14	C	1.119427	-0.393308	0.000043
C15	C	0.549690	-0.362580	0.000035
C16	C	0.451325	-0.338928	0.000030
C17	C	0.428328	-0.205893	0.000006
C18	C	0.526694	-0.229535	0.000016
C19	C	0.587367	-0.307879	0.000029
C20	C	0.564371	-0.174835	0.000010
C21	C	0.662727	-0.198474	0.000014
C22	C	0.723406	-0.276813	0.000025
C23	C	0.685723	-0.331518	0.000034
C24	C	0.503694	-0.096490	-0.000011
C25	C	0.541372	-0.041789	-0.000017
C26	C	0.639731	-0.065429	-0.000005
C27	C	0.700410	-0.143769	0.000006
C28	C	0.677414	-0.010724	-0.000014
C29	C	0.775770	-0.034363	-0.000009
C30	C	0.798766	-0.167408	0.000010
C31	C	1.204639	-0.459635	0.000050
C32	C	1.203187	-0.532092	0.000035
C33	C	1.116524	-0.538221	0.000031
C34	C	1.031299	-0.471879	0.000018
C35	C	1.032751	-0.399422	0.000024
N36	N	1.064252	-0.643440	0.054363
N37	N	1.062879	-0.712273	0.054360
C38	C	1.112146	-0.756526	0.000012
N39	N	1.162854	-0.729353	-0.054321
N40	N	1.164230	-0.660516	-0.054313
C41	C	1.114941	-0.616784	0.000024
C42	C	1.195790	-0.901421	0.000001
C43	C	1.194333	-0.973876	-0.000020
C44	C	1.022445	-0.913663	-0.000027
C45	C	1.023901	-0.841208	-0.000016
C46	C	1.110577	-0.835093	0.000003
C47	C	1.285976	-0.235450	0.000016
C48	C	1.390652	-0.260600	0.000013
C49	C	1.106132	-0.057120	-0.000011
C50	C	1.107668	0.020001	-0.000026
N51	N	1.177515	-0.250073	0.248752
N52	N	1.049589	-0.123244	-0.248726
C53	C	0.946472	-0.021047	0.600532
C54	C	0.972351	-0.046693	0.701036
C55	C	1.100975	-0.174180	0.701020
C56	C	1.075104	-0.148545	0.600514
C57	C	0.997852	-0.071978	0.550279
C58	C	1.126484	-0.199476	0.550260
C59	C	1.100617	-0.173842	0.449764
C60	C	1.023370	-0.097277	0.399521
C61	C	0.971985	-0.046344	0.449782
C62	C	1.203739	-0.276041	0.600498
C63	C	1.255119	-0.326973	0.550244
C64	C	1.229248	-0.301341	0.449745
C65	C	1.152002	-0.224776	0.399503
C66	C	1.280633	-0.352274	0.399484
C67	C	1.254767	-0.326640	0.298988
C68	C	1.126135	-0.199142	0.299006
H69	H	0.848172	-0.231204	0.000027
Cl70	Cl	1.377756	-0.448522	0.462648
Cl71	Cl	1.301466	-1.057262	-0.000017
H72	H	1.063223	-0.136796	0.258102
Cl73	Cl	0.990856	-0.065049	0.273180
H74	H	0.960737	-0.476873	0.000013
H75	H	0.909073	0.016002	0.408878
Cl76	Cl	0.762009	-0.430012	0.000063
Cl77	Cl	0.380045	-0.066772	-0.000016
Cl78	Cl	1.310319	-0.615488	0.000044
Cl79	Cl	0.913494	-0.921359	-0.000038
Cl80	Cl	0.847054	-0.306531	0.000025
Cl81	Cl	0.925618	-0.316033	0.000015
H82	H	0.599096	-0.426376	0.000052
H83	H	0.883560	0.041299	0.559629
H84	H	0.954514	-0.787202	-0.000016
Cl85	Cl	1.313596	-0.451945	0.000047
H86	H	0.930506	-0.005211	0.741948
Cl87	Cl	1.236258	-0.308262	0.726838
H88	H	0.420654	-0.383477	0.000033
Cl89	Cl	1.319364	-0.390669	0.235810
Cl90	Cl	1.198091	-0.270432	0.764180
H91	H	0.378914	-0.142105	-0.000009
H92	H	1.318021	-0.389314	0.591157
Cl93	Cl	0.601124	0.087765	-0.000048
Cl94	Cl	0.465087	0.056698	-0.000039
H95	H	0.806449	0.010177	-0.000005
Cl96	Cl	1.304753	-0.893731	0.000030
