data_functionalizedCrystal
_audit_creation_method	'MofGen! by Chris Wilmer'
_symmetry_space_group_name_H-M	'P1'
_symmetry_Int_Tables_number	1
_symmetry_cell_setting	triclinic
loop_
_symmetry_equiv_pos_as_xyz
  x,y,z
_cell_length_a	9.065218
_cell_length_b	19.188930
_cell_length_c	7.540329
_cell_angle_alpha	89.991297
_cell_angle_beta	89.996962
_cell_angle_gamma	84.080333
loop_
_atom_site_label
_atom_site_type_symbol
_atom_site_fract_x
_atom_site_fract_y
_atom_site_fract_z
O1	O	1.956847	0.102369	-0.147510
O2	O	1.527271	0.110766	-0.147515
O3	O	1.754456	0.005009	-0.147478
O4	O	1.729662	0.208127	-0.147547
O5	O	1.754442	0.005007	0.147487
O6	O	1.527257	0.110765	0.147450
O7	O	1.956833	0.102368	0.147455
Cu8	Cu	1.742044	0.106566	0.174385
Cu9	Cu	1.742060	0.106568	-0.174445
O10	O	1.729649	0.208126	0.147418
C11	C	1.472305	0.109959	-0.000032
C12	C	1.308546	0.107546	-0.000033
C13	C	1.753646	-0.021009	0.000010
C14	C	1.751236	-0.098533	0.000025
C15	C	1.884540	-0.142421	0.000035
C16	C	1.882276	-0.215262	0.000006
C17	C	1.746699	-0.244212	0.000004
C18	C	1.613377	-0.200314	-0.000016
C19	C	1.615646	-0.127474	-0.000006
N20	N	1.643063	-0.353023	0.100385
N21	N	1.640917	-0.422218	0.100379
C22	C	1.739858	-0.463674	-0.000032
N23	N	1.841047	-0.433322	-0.100414
N24	N	1.843197	-0.364120	-0.100400
C25	C	1.744225	-0.323194	-0.000009
C26	C	1.870716	-0.586546	-0.000056
C27	C	1.868446	-0.659388	-0.000095
C28	C	1.599544	-0.644438	-0.000100
C29	C	1.601818	-0.571598	-0.000078
C30	C	1.737408	-0.542656	-0.000048
C31	C	2.011799	0.103176	-0.000032
C32	C	2.175558	0.105589	-0.000043
C33	C	1.730458	0.234144	-0.000074
C34	C	1.732869	0.311667	-0.000101
N35	N	1.742044	0.106565	0.419734
N36	N	1.742072	0.106564	-0.419794
H37	H	1.994948	-0.118862	0.000054
O38	O	1.472422	-0.528888	0.000167
C39	C	1.318883	-0.438015	0.153040
C40	C	1.465499	-0.486332	0.152972
H41	H	1.313224	-0.403606	0.276588
H42	H	1.313212	-0.403481	0.029686
H43	H	1.221613	-0.471229	0.152946
H44	H	1.562851	-0.453173	0.153128
H45	H	1.471040	-0.520868	0.276315
H46	H	1.507089	-0.091740	-0.000013
O47	O	2.002456	-0.558457	-0.000369
C48	C	2.233005	-0.548960	-0.153145
C49	C	2.083851	-0.580802	-0.153025
H50	H	2.298869	-0.567025	-0.276535
H51	H	2.211812	-0.489357	-0.153244
H52	H	2.298803	-0.566966	-0.029656
H53	H	2.017977	-0.562850	-0.276493
H54	H	2.105150	-0.640401	-0.152834
H55	H	1.990832	-0.251003	0.000007
H56	H	1.977004	-0.695122	-0.000097
O57	O	1.467972	-0.672666	-0.000033
C58	C	1.345303	-0.778255	-0.000186
C59	C	1.494414	-0.746376	-0.000207
H60	H	1.366629	-0.837853	-0.000364
H61	H	1.279414	-0.760311	0.123283
H62	H	1.279463	-0.760193	-0.123602
H63	H	1.560374	-0.764422	0.123125
H64	H	1.560190	-0.764316	-0.123758
H65	H	1.502990	-0.223890	-0.000022
