data_functionalizedCrystal
_audit_creation_method	'MofGen! by Chris Wilmer'
_symmetry_space_group_name_H-M	'P1'
_symmetry_Int_Tables_number	1
_symmetry_cell_setting	triclinic
loop_
_symmetry_equiv_pos_as_xyz
  x,y,z
_cell_length_a	14.971486
_cell_length_b	19.188924
_cell_length_c	13.448316
_cell_angle_alpha	89.991325
_cell_angle_beta	89.998199
_cell_angle_gamma	83.378047
loop_
_atom_site_label
_atom_site_type_symbol
_atom_site_fract_x
_atom_site_fract_y
_atom_site_fract_z
O1	O	1.186464	0.090988	-0.082582
O2	O	0.926006	0.101884	-0.082610
O3	O	1.063754	-0.005195	-0.082583
O4	O	1.048715	0.198068	-0.082609
O5	O	1.063737	-0.005202	0.082800
O6	O	0.925989	0.101878	0.082774
O7	O	1.186447	0.090982	0.082802
Cu8	Cu	1.056216	0.096429	0.097889
Cu9	Cu	1.056236	0.096437	-0.097697
O10	O	1.048698	0.198061	0.082775
C11	C	0.892675	0.101394	0.000079
C12	C	0.793386	0.099933	0.000069
C13	C	0.735826	0.162840	0.000062
C14	C	0.642534	0.161464	0.000077
C15	C	0.606803	0.097180	0.000091
C16	C	0.664370	0.034269	0.000101
C17	C	0.757661	0.035646	0.000093
C18	C	0.469923	0.031403	0.000115
C19	C	0.376626	0.030026	0.000121
C20	C	0.354796	0.157221	0.000099
C21	C	0.448087	0.158598	0.000091
C22	C	0.505647	0.095686	0.000099
C23	C	1.063260	-0.031211	0.000109
C24	C	1.061801	-0.108721	0.000112
C25	C	1.061129	-0.145118	-0.090039
C26	C	1.059746	-0.217946	-0.090047
C27	C	1.059052	-0.254374	0.000101
C28	C	1.059719	-0.217967	0.090264
C29	C	1.061093	-0.145141	0.090270
N30	N	1.107787	-0.373883	0.067202
N31	N	1.106483	-0.443066	0.067191
C32	C	1.054909	-0.473797	0.000091
N33	N	1.004699	-0.432733	-0.067012
N34	N	1.006006	-0.363544	-0.067004
C35	C	1.057561	-0.333343	0.000106
C36	C	1.052736	-0.589162	-0.090074
C37	C	1.051347	-0.661990	-0.090078
C38	C	1.051329	-0.662011	0.090236
C39	C	1.052709	-0.589184	0.090237
C40	C	1.053417	-0.552764	0.000079
C41	C	1.219777	0.091472	0.000111
C42	C	1.319067	0.092933	0.000115
C43	C	1.049193	0.224077	0.000080
C44	C	1.050652	0.301587	0.000071
N45	N	1.056208	0.096423	0.235453
N46	N	1.056251	0.096437	-0.235261
C47	C	1.117222	0.049028	0.287505
C48	C	1.117228	0.049027	0.391608
C49	C	1.056223	0.096426	0.443658
C50	C	0.995203	0.143824	0.391598
C51	C	0.995194	0.143820	0.287497
C52	C	0.995228	0.143828	0.608578
C53	C	0.995238	0.143833	0.712687
C54	C	1.117262	0.049035	0.712690
C55	C	1.117252	0.049032	0.608588
C56	C	1.056233	0.096431	0.556536
H57	H	0.804526	-0.015579	0.000097
H58	H	1.053307	-0.559506	-0.163486
H59	H	1.166909	0.010434	0.433989
C60	C	1.184361	-0.003109	0.551336
N61	N	1.234905	-0.042384	0.508214
H62	H	1.059194	-0.247586	-0.163461
H63	H	1.061703	-0.115470	-0.163453
H64	H	1.059151	-0.247632	0.163664
C65	C	1.184380	-0.003107	0.769949
N66	N	1.234934	-0.042377	0.813081
H67	H	1.061636	-0.115506	0.163684
C68	C	1.050653	-0.702031	-0.189257
N69	N	1.050149	-0.732193	-0.263960
C70	C	0.579222	0.230666	0.000088
N71	N	0.531535	0.282792	0.000103
C72	C	0.928124	0.195970	0.769939
N73	N	0.877572	0.235239	0.813061
C74	C	0.337325	-0.040689	0.000138
N75	N	0.307723	-0.093952	0.000151
H76	H	0.945527	0.182414	0.433983
H77	H	0.945536	0.182423	0.566201
C78	C	1.050565	-0.702078	0.189401
N79	N	1.049989	-0.732261	0.264095
C80	C	0.928081	0.195964	0.230240
N81	N	0.877530	0.235242	0.187116
H82	H	0.516787	-0.019826	0.000122
H83	H	1.053263	-0.559549	0.163648
H84	H	1.166903	0.010433	0.245133
C85	C	0.775120	0.233558	0.000048
N86	N	0.804714	0.286825	0.000042
C87	C	0.291478	0.226425	0.000096
N88	N	0.243783	0.278547	0.000091
H89	H	0.477175	0.210943	0.000070
C90	C	0.625063	-0.036444	0.000118
N91	N	0.595458	-0.089706	0.000128
