data_functionalizedCrystal
_audit_creation_method	'MofGen! by Chris Wilmer'
_symmetry_space_group_name_H-M	'P1'
_symmetry_Int_Tables_number	1
_symmetry_cell_setting	triclinic
loop_
_symmetry_equiv_pos_as_xyz
  x,y,z
_cell_length_a	21.395362
_cell_length_b	12.594516
_cell_length_c	21.395355
_cell_angle_alpha	89.988593
_cell_angle_beta	89.956060
_cell_angle_gamma	90.031933
loop_
_atom_site_label
_atom_site_type_symbol
_atom_site_fract_x
_atom_site_fract_y
_atom_site_fract_z
Zn1	Zn	0.957923	-0.423414	-0.354617
Zn2	Zn	0.957853	-0.601379	-0.249852
Zn3	Zn	0.853138	-0.423464	-0.249818
Zn4	Zn	0.853134	-0.601400	-0.354557
O5	O	0.905512	-0.512414	-0.302211
O6	O	1.045592	-0.446992	-0.340759
O7	O	0.943934	-0.577789	-0.162170
O8	O	0.867069	-0.274511	-0.263730
O9	O	1.045540	-0.577741	-0.263789
O10	O	0.944055	-0.274475	-0.340725
O11	O	0.867001	-0.447076	-0.162144
O12	O	0.765460	-0.447097	-0.263672
O13	O	0.867063	-0.577779	-0.442243
O14	O	0.765457	-0.577827	-0.340624
O15	O	0.944051	-0.447013	-0.442287
O16	O	0.943930	-0.750327	-0.263731
O17	O	0.866994	-0.750343	-0.340657
C18	C	0.742724	-0.512471	-0.302138
C19	C	0.673083	-0.512520	-0.302122
C20	C	0.640385	-0.580681	-0.342130
C21	C	0.574949	-0.580655	-0.342158
C22	C	0.542215	-0.512479	-0.302167
C23	C	0.574921	-0.444305	-0.262155
C24	C	0.640355	-0.444326	-0.262133
C25	C	0.438489	-0.503905	-0.245761
C26	C	0.373056	-0.503892	-0.245782
C27	C	0.340394	-0.512410	-0.302236
C28	C	0.373173	-0.520963	-0.358670
C29	C	0.438608	-0.520984	-0.358648
C30	C	0.471262	-0.512449	-0.302187
C31	C	0.236743	-0.580546	-0.342278
C32	C	0.171307	-0.580513	-0.342307
C33	C	0.171280	-0.444168	-0.262298
C34	C	0.236715	-0.444196	-0.262275
C35	C	0.269443	-0.512391	-0.302264
C36	C	0.905471	-0.788955	-0.302205
C37	C	0.905511	-0.907261	-0.302223
C38	C	0.863661	-0.976561	-0.344034
C39	C	0.848392	-1.047409	-0.286856
C40	C	0.920837	-1.047212	-0.359410
C41	C	0.890211	-0.976550	-0.245015
C42	C	0.962683	-0.976347	-0.317608
C43	C	0.947436	-1.047163	-0.260391
C44	C	1.068935	-0.512359	-0.302284
C45	C	1.138577	-0.512335	-0.302315
C46	C	0.905564	-0.512393	-0.465634
C47	C	0.905586	-0.512384	-0.535275
C48	C	0.905570	-0.234793	-0.302231
C49	C	0.905595	-0.116488	-0.302239
C50	C	0.945672	-0.444291	-0.568012
C51	C	0.945671	-0.444245	-0.633448
C52	C	0.905591	-0.512311	-0.666144
C53	C	0.865497	-0.580408	-0.633399
C54	C	0.865495	-0.580445	-0.567965
C55	C	0.900630	-0.608151	-0.769815
C56	C	0.900636	-0.608116	-0.835248
C57	C	0.905595	-0.512199	-0.867965
C58	C	0.910560	-0.416312	-0.835241
C59	C	0.910557	-0.416349	-0.769806
C60	C	0.905589	-0.512279	-0.737096
C61	C	0.945682	-0.444051	-0.971654
C62	C	0.945677	-0.444003	-1.037091
C63	C	0.865506	-0.580176	-1.037041
C64	C	0.865508	-0.580214	-0.971605
C65	C	0.905599	-0.512153	-0.938916
C66	C	0.905496	-0.512359	-0.139423
C67	C	0.905596	-0.512068	-0.069782
H68	H	0.465294	-0.527945	-0.404598
O69	O	0.895275	-0.711616	-0.734534
H70	H	0.937240	-0.722483	-0.704749
O71	O	0.473716	-0.494719	-0.184868
H72	H	0.439931	-0.488786	-0.145630
O73	O	0.539620	-0.370793	-0.219006
H74	H	0.488626	-0.382245	-0.225733
H75	H	0.914598	-0.338275	-0.743165
H76	H	0.877226	-0.945639	-0.196646
H77	H	0.666978	-0.388818	-0.229553
O78	O	0.994366	-1.087979	-0.213517
H79	H	0.981532	-1.059525	-0.166121
O80	O	0.816704	-0.935473	-0.390800
H81	H	0.769316	-0.963936	-0.377882
O82	O	0.784399	-1.088756	-0.269617
H83	H	0.749707	-1.060489	-0.304382
O84	O	1.026733	-0.935205	-0.334788
H85	H	1.039343	-0.963541	-0.382269
O86	O	0.937969	-1.088324	-0.423461
H87	H	0.903120	-1.060048	-0.458066
O88	O	0.988909	-0.370882	-0.532753
H89	H	1.016781	-0.323520	-0.566515
H90	H	0.832862	-0.635825	-0.660024
H91	H	0.978313	-0.388790	-0.660108
H92	H	0.914599	-0.338207	-0.861877
H93	H	0.978323	-0.388625	-0.945037
H94	H	0.144628	-0.388653	-0.229739
O95	O	0.337707	-0.494675	-0.184915
H96	H	0.286720	-0.496109	-0.194412
O97	O	0.136083	-0.654101	-0.385460
H98	H	0.106325	-0.606614	-0.417434
H99	H	0.978319	-0.388548	-1.063744
H100	H	0.548321	-0.636159	-0.374740
O101	O	0.822274	-0.653592	-1.072295
H102	H	0.829011	-0.642132	-1.123296
H103	H	0.896598	-0.686193	-0.861887
O104	O	0.822254	-0.653642	-0.936302
H105	H	0.832969	-0.737176	-0.948867
O106	O	0.675686	-0.654216	-0.385268
H107	H	0.641951	-0.701600	-0.413098
O108	O	0.337958	-0.530143	-0.419567
H109	H	0.286950	-0.528676	-0.410106
O110	O	0.822242	-0.653876	-0.532658
H111	H	0.832959	-0.737408	-0.545226
O112	O	0.272057	-0.654066	-0.385417
H113	H	0.259453	-0.737578	-0.374608
O114	O	0.271989	-0.370707	-0.219106
H115	H	0.238236	-0.323307	-0.191294
