data_functionalizedCrystal
_audit_creation_method	'MofGen! by Chris Wilmer'
_symmetry_space_group_name_H-M	'P1'
_symmetry_Int_Tables_number	1
_symmetry_cell_setting	triclinic
loop_
_symmetry_equiv_pos_as_xyz
  x,y,z
_cell_length_a	15.995350
_cell_length_b	10.654550
_cell_length_c	9.730223
_cell_angle_alpha	90.000043
_cell_angle_beta	89.997832
_cell_angle_gamma	96.011347
loop_
_atom_site_label
_atom_site_type_symbol
_atom_site_fract_x
_atom_site_fract_y
_atom_site_fract_z
O1	O	0.117602	-1.666303	-0.114180
O2	O	0.128807	-1.300678	-0.114204
O3	O	0.001375	-1.493485	-0.114190
O4	O	0.245034	-1.473496	-0.114194
O5	O	0.001371	-1.493473	0.114390
O6	O	0.128803	-1.300666	0.114375
O7	O	0.117599	-1.666290	0.114400
Zn8	Zn	0.123201	-1.483476	0.150680
Zn9	Zn	0.123205	-1.483492	-0.150484
O10	O	0.245031	-1.473483	0.114386
C11	C	-0.029826	-1.492652	0.000097
C12	C	-0.122791	-1.490175	0.000089
C13	C	0.127982	-1.253884	0.000082
C14	C	0.125521	-1.114473	0.000073
C15	C	0.118423	-1.713084	0.000110
C16	C	0.120885	-1.852495	0.000111
C17	C	-0.460590	-1.481277	0.000093
C18	C	-0.413954	-1.343964	-0.000429
C19	C	-0.317249	-1.346442	0.000087
C20	C	-0.293004	-1.485691	0.000090
C21	C	-0.333690	-1.553412	0.130623
C22	C	-0.430346	-1.549962	0.130732
C23	C	-0.430684	-1.552813	-0.129206
C24	C	-0.333739	-1.552780	-0.130931
C25	C	-0.198292	-1.488192	0.000093
C26	C	-0.555303	-1.478780	0.000099
C27	C	0.276232	-1.474316	0.000095
C28	C	0.369197	-1.476793	0.000094
N29	N	0.123197	-1.483474	0.356216
C30	C	0.200551	-1.034008	0.000075
C31	C	0.198233	-0.903017	0.000099
C32	C	0.045849	-0.932971	0.000112
C33	C	0.048168	-1.063959	0.000098
N34	N	0.123202	-1.483504	-0.356021
C35	C	0.066794	-1.568878	0.428148
C36	C	0.066794	-1.568890	0.572031
C37	C	0.179608	-1.398091	0.572037
C38	C	0.179603	-1.398074	0.428157
H39	H	-0.289135	-1.293208	-0.093484
C40	C	0.004755	-1.662839	0.651151
H41	H	-0.028833	-1.713700	0.587695
H42	H	-0.030383	-1.617683	0.707291
H43	H	0.035209	-1.715117	0.707265
H44	H	0.225533	-1.328562	0.630626
H45	H	-0.448936	-1.500570	0.228304
C46	C	-0.472801	-1.689573	-0.130402
H47	H	-0.508442	-1.703062	-0.052533
H48	H	-0.430809	-1.746309	-0.127537
H49	H	-0.505153	-1.703707	-0.211867
C50	C	-0.039235	-0.877406	0.000123
H51	H	-0.083588	-0.944093	0.000131
H52	H	-0.043306	-0.826925	-0.079583
H53	H	-0.043307	-0.826937	0.079849
H54	H	0.263537	-1.075132	0.000065
H55	H	0.259330	-0.837506	0.000104
H56	H	-0.012934	-1.129478	0.000100
C57	C	0.241653	-1.304136	0.349019
H58	H	0.233566	-1.316352	0.253027
H59	H	0.297620	-1.317773	0.372587
H60	H	0.232038	-1.220324	0.372608
C61	C	-0.439424	-1.269814	-0.126869
H62	H	-0.478732	-1.321927	-0.180474
H63	H	-0.390994	-1.244562	-0.180624
H64	H	-0.464281	-1.197211	-0.097509
C65	C	-0.440841	-1.270143	0.125317
H66	H	-0.480363	-1.322643	0.178136
H67	H	-0.465806	-1.197854	0.095305
H68	H	-0.392939	-1.244411	0.180107
H69	H	-0.462009	-1.650775	0.136657
H70	H	0.020864	-1.638414	0.369578
H71	H	-0.318971	-1.655714	0.135480
C72	C	-0.280024	-1.274051	0.126708
H73	H	-0.324014	-1.243022	0.178039
H74	H	-0.241451	-1.205327	0.097606
H75	H	-0.251652	-1.329160	0.182618
H76	H	-0.305584	-1.506366	0.227758
H77	H	-0.451483	-1.507924	-0.228142
H78	H	-0.317787	-1.654327	-0.138810
C79	C	-0.297244	-1.485993	-0.261388
H80	H	-0.257344	-1.417511	-0.236128
H81	H	-0.341322	-1.455149	-0.312643
H82	H	-0.270529	-1.544117	-0.315867
