data_functionalizedCrystal
_audit_creation_method	'MofGen! by Chris Wilmer'
_symmetry_space_group_name_H-M	'P1'
_symmetry_Int_Tables_number	1
_symmetry_cell_setting	triclinic
loop_
_symmetry_equiv_pos_as_xyz
  x,y,z
_cell_length_a	21.295418
_cell_length_b	13.897448
_cell_length_c	13.897441
_cell_angle_alpha	90.030599
_cell_angle_beta	90.041083
_cell_angle_gamma	90.033507
loop_
_atom_site_label
_atom_site_type_symbol
_atom_site_fract_x
_atom_site_fract_y
_atom_site_fract_z
Zn1	Zn	0.962395	-0.383577	0.545905
Zn2	Zn	1.462395	0.116423	1.045905
Zn3	Zn	0.962326	-0.544899	0.384606
Zn4	Zn	1.462326	-0.044899	0.884606
Zn5	Zn	0.857123	-0.383664	0.384566
Zn6	Zn	1.357123	0.116336	0.884566
Zn7	Zn	0.857111	-0.544876	0.545802
Zn8	Zn	1.357111	-0.044876	1.045802
O9	O	0.909739	-0.464254	0.465220
O10	O	1.409739	0.035746	0.965220
O11	O	1.050476	-0.404950	0.524569
O12	O	1.550476	0.095050	1.024569
O13	O	0.948347	-0.523556	0.249619
O14	O	1.448347	-0.023556	0.749619
O15	O	0.871122	-0.248671	0.405995
O16	O	1.371122	0.251329	0.905995
O17	O	1.050425	-0.523472	0.406063
O18	O	1.550425	-0.023472	0.906063
O19	O	0.948465	-0.248607	0.524530
O20	O	1.448465	0.251393	1.024530
O21	O	0.871055	-0.405098	0.249590
O22	O	1.371055	0.094902	0.749590
O23	O	0.769032	-0.405076	0.405894
O24	O	1.269032	0.094924	0.905894
O25	O	0.871102	-0.523434	0.680797
O26	O	1.371102	-0.023434	1.180797
O27	O	0.769024	-0.523518	0.524353
O28	O	1.269024	-0.023518	1.024353
O29	O	0.948453	-0.404928	0.680873
O30	O	1.448453	0.095072	1.180873
O31	O	0.948335	-0.679877	0.405963
O32	O	1.448335	-0.179877	0.905963
O33	O	0.871034	-0.679861	0.524393
O34	O	1.371034	-0.179861	1.024393
C35	C	0.746187	-0.464305	0.465109
C36	C	1.246187	0.035695	0.965109
C37	C	0.676219	-0.464349	0.465084
C38	C	1.176219	0.035651	0.965084
C39	C	0.909693	-0.714868	0.465192
C40	C	1.409693	-0.214868	0.965192
C41	C	0.909731	-0.822082	0.465212
C42	C	1.409731	-0.322082	0.965212
C43	C	0.909797	-1.018377	0.465273
C44	C	1.409797	-0.518377	0.965273
C45	C	0.909759	-0.909145	0.465242
C46	C	1.409759	-0.409145	0.965242
C47	C	0.643365	-0.526104	0.526674
C48	C	1.143365	-0.026104	1.026674
C49	C	0.577622	-0.526080	0.526717
C50	C	1.077622	-0.026080	1.026717
C51	C	0.544737	-0.464312	0.465154
C52	C	1.044737	0.035688	0.965154
C53	C	0.577599	-0.402546	0.403560
C54	C	1.077599	0.097454	0.903560
C55	C	0.643341	-0.402564	0.403525
C56	C	1.143341	0.097436	0.903525
N57	N	0.441462	-0.456784	0.380787
N58	N	0.941462	0.043216	0.880787
N59	N	0.379011	-0.456772	0.380822
N60	N	0.879011	0.043228	0.880822
C61	C	0.346662	-0.464251	0.465256
C62	C	0.846662	0.035749	0.965256
N63	N	0.379124	-0.471761	0.549654
N64	N	0.879124	0.028239	1.049654
N65	N	0.441581	-0.471778	0.549618
N66	N	0.941581	0.028222	1.049618
C67	C	0.473451	-0.464284	0.465185
C68	C	0.973451	0.035716	0.965185
C69	C	0.242522	-0.525983	0.526898
C70	C	0.742522	-0.025983	1.026898
C71	C	0.176778	-0.525952	0.526943
C72	C	0.676778	-0.025952	1.026943
C73	C	0.176757	-0.402422	0.403777
C74	C	0.676757	0.097578	0.903777
C75	C	0.242499	-0.402448	0.403740
C76	C	0.742499	0.097552	0.903740
C77	C	0.275378	-0.464233	0.465300
C78	C	0.775378	0.035767	0.965300
C79	C	1.073929	-0.464204	0.465332
C80	C	1.573929	0.035796	0.965332
C81	C	1.143898	-0.464182	0.465380
C82	C	1.643898	0.035818	0.965380
C83	C	0.909784	-0.464169	0.716813
C84	C	1.409784	0.035831	1.216813
C85	C	0.909803	-0.464132	0.824027
C86	C	1.409803	0.035868	1.324027
C87	C	0.909802	-0.212661	0.465269
C88	C	1.409802	0.287339	0.965269
C89	C	0.909829	-0.105447	0.465290
C90	C	1.409829	0.394553	0.965290
C91	C	0.909731	-0.464269	0.214606
C92	C	1.409731	0.035731	0.714606
C93	C	0.909834	-0.464034	0.107392
C94	C	1.409834	0.035966	0.607392
C95	C	0.909820	-0.464067	1.020322
C96	C	1.409820	0.035933	1.520322
C97	C	0.909808	-0.464106	0.911090
C98	C	1.409808	0.035894	1.411090
H99	H	0.670130	-0.576413	0.576801
H100	H	1.170130	-0.076413	1.076801
C101	C	0.278694	-0.593928	0.594618
C102	C	0.778694	-0.093928	1.094618
H103	H	0.322553	-0.585103	0.585769
H104	H	0.822553	-0.085103	1.085769
H105	H	0.267973	-0.579882	0.659458
H106	H	0.767973	-0.079882	1.159458
H107	H	0.267876	-0.658722	0.580393
H108	H	0.767876	-0.158722	1.080393
H109	H	0.149982	-0.352125	0.353655
H110	H	0.649982	0.147875	0.853655
H111	H	0.670091	-0.352273	0.353371
H112	H	1.170091	0.147727	0.853371
C113	C	0.541474	-0.593957	0.594524
C114	C	1.041474	-0.093957	1.094524
H115	H	0.570471	-0.630741	0.631195
H116	H	1.070471	-0.130741	1.131195
H117	H	0.515895	-0.557050	0.636611
H118	H	1.015895	-0.057050	1.136611
H119	H	0.515764	-0.635952	0.557608
H120	H	1.015764	-0.135952	1.057608
H121	H	0.550820	-0.352252	0.353436
H122	H	1.050820	0.147748	0.853436
C123	C	0.140638	-0.593899	0.594681
C124	C	0.640638	-0.093899	1.094681
H125	H	0.169637	-0.630706	0.631325
H126	H	0.669637	-0.130706	1.131325
H127	H	0.115036	-0.557062	0.636797
H128	H	0.615036	-0.057062	1.136797
H129	H	0.114949	-0.635869	0.557700
H130	H	0.614949	-0.135869	1.057700
H131	H	0.269250	-0.352165	0.353583
H132	H	0.769250	0.147835	0.853583
