data_functionalizedCrystal
_audit_creation_method	'MofGen! by Chris Wilmer'
_symmetry_space_group_name_H-M	'P1'
_symmetry_Int_Tables_number	1
_symmetry_cell_setting	triclinic
loop_
_symmetry_equiv_pos_as_xyz
  x,y,z
_cell_length_a	21.295418
_cell_length_b	16.994747
_cell_length_c	21.295411
_cell_angle_alpha	89.994024
_cell_angle_beta	90.043738
_cell_angle_gamma	90.026880
loop_
_atom_site_label
_atom_site_type_symbol
_atom_site_fract_x
_atom_site_fract_y
_atom_site_fract_z
Zn1	Zn	0.962441	-0.313785	0.356354
Zn2	Zn	0.962379	-0.445672	0.251131
Zn3	Zn	0.857164	-0.313822	0.251064
Zn4	Zn	0.857169	-0.445687	0.356327
O5	O	0.909788	-0.379741	0.303719
O6	O	1.050522	-0.331258	0.342435
O7	O	0.948394	-0.428190	0.163032
O8	O	0.871153	-0.203436	0.265015
O9	O	1.050477	-0.428155	0.265128
O10	O	0.948499	-0.203409	0.342371
O11	O	0.871093	-0.331321	0.162984
O12	O	0.769075	-0.331336	0.264988
O13	O	0.871162	-0.428181	0.444420
O14	O	0.769079	-0.428217	0.342324
O15	O	0.948504	-0.331273	0.444440
O16	O	0.948399	-0.556055	0.265101
O17	O	0.871102	-0.556066	0.342389
C18	C	0.746237	-0.379783	0.303647
C19	C	0.676268	-0.379820	0.303631
C20	C	0.909752	-0.584681	0.303747
C21	C	0.909756	-0.674003	0.303746
Zn22	Zn	0.857182	-0.944908	0.251047
Zn23	Zn	0.962469	-0.944850	0.356327
Zn24	Zn	0.857191	-0.813080	0.356316
Zn25	Zn	0.962390	-0.812927	0.251110
O26	O	0.909808	-0.878941	0.303700
O27	O	0.871178	-1.055282	0.264990
O28	O	0.948540	-0.927410	0.444415
O29	O	0.769100	-0.830655	0.342321
O30	O	0.948532	-1.055239	0.342339
O31	O	0.769094	-0.927510	0.264980
O32	O	0.871192	-0.830599	0.444407
O33	O	0.871116	-0.702678	0.342383
O34	O	0.948398	-0.830395	0.163012
O35	O	0.948406	-0.702566	0.265088
O36	O	0.871102	-0.927361	0.162966
O37	O	1.050548	-0.927262	0.342400
O38	O	1.050490	-0.830338	0.265098
C39	C	0.643420	-0.430332	0.343839
C40	C	0.577678	-0.430313	0.343868
C41	C	0.544786	-0.379789	0.303676
C42	C	0.577642	-0.329267	0.263464
C43	C	0.643383	-0.329282	0.263442
N44	N	0.441508	-0.373615	0.248616
N45	N	0.379057	-0.373605	0.248639
C46	C	0.346711	-0.379739	0.303743
N47	N	0.379176	-0.385898	0.358823
N48	N	0.441634	-0.385912	0.358799
C49	C	0.473501	-0.379767	0.303696
C50	C	0.242578	-0.430233	0.343985
C51	C	0.176834	-0.430208	0.344015
C52	C	0.176800	-0.329166	0.263606
C53	C	0.242542	-0.329187	0.263582
C54	C	0.275427	-0.379725	0.303771
C55	C	1.073979	-0.379700	0.303792
C56	C	1.143947	-0.379683	0.303823
C57	C	0.909840	-0.379725	0.467909
C58	C	0.909863	-0.379718	0.537878
C59	C	0.909828	-0.174001	0.303687
C60	C	0.909847	-0.084679	0.303674
C61	C	0.909772	-0.379701	0.140167
C62	C	0.909872	-0.379486	0.070200
C63	C	0.950133	-0.329255	0.570756
C64	C	0.950132	-0.329221	0.636498
C65	C	0.909868	-0.379663	0.669360
C66	C	0.869589	-0.430129	0.636474
C67	C	0.869587	-0.430156	0.570733
N68	N	0.905030	-0.448668	0.772600
N69	N	0.905036	-0.448640	0.835052
C70	C	0.909872	-0.379583	0.867435
N71	N	0.914714	-0.310554	0.835007
N72	N	0.914711	-0.310583	0.772550
C73	C	0.909866	-0.379639	0.740645
C74	C	0.950143	-0.329080	0.971599
C75	C	0.950138	-0.329044	1.037342
C76	C	0.869598	-0.429959	1.037317
C77	C	0.869600	-0.429988	0.971574
C78	C	0.909876	-0.379549	0.938719
C79	C	1.073360	-0.878779	0.303759
C80	C	1.143328	-0.878733	0.303802
C81	C	0.909740	-0.878868	0.139510
C82	C	0.909711	-0.878836	0.069541
C83	C	0.745618	-0.879106	0.303642
C84	C	0.675650	-0.879176	0.303618
C85	C	0.909831	-0.879059	0.467251
C86	C	0.909684	-0.879241	0.537219
C87	C	1.176197	-0.929221	0.344037
C88	C	1.241940	-0.929193	0.344079
C89	C	1.274812	-0.878672	0.303887
C90	C	1.241938	-0.828182	0.263648
C91	C	1.176196	-0.828214	0.263604
C92	C	0.869449	-0.929307	0.036656
C93	C	0.869409	-0.929278	-0.029087
C94	C	0.909636	-0.878781	-0.061942
C95	C	0.949900	-0.828305	-0.029052
C96	C	0.949936	-0.828331	0.036689
C97	C	0.642792	-0.828777	0.343874
C98	C	0.577049	-0.828827	0.343851
C99	C	0.544166	-0.879282	0.303575
C100	C	0.577028	-0.929684	0.263314
C101	C	0.642770	-0.929629	0.263334
C102	C	0.869633	-0.828557	0.570046
C103	C	0.869483	-0.828727	0.635788
C104	C	0.909387	-0.879579	0.668702
C105	C	0.949440	-0.930269	0.635871
C106	C	0.949587	-0.930102	0.570130
H107	H	0.550928	-0.471446	0.376613
H108	H	0.836868	-0.787446	0.662510
H109	H	1.328342	-0.878653	0.303930
O110	O	0.830337	-0.978251	0.068633
C111	C	0.745353	-0.988970	0.142794
C112	C	0.789624	-0.933454	0.106636
H113	H	0.712417	-0.952773	0.173518
H114	H	0.774238	-1.030194	0.173615
H115	H	0.716601	-1.025047	0.107976
H116	H	0.818386	-0.897326	0.141409
H117	H	0.760703	-0.892282	0.075805
O118	O	0.989318	-0.279996	1.069185
C119	C	1.069183	-0.179885	1.062269
C120	C	1.024854	-0.235404	1.026129
H121	H	1.097915	-0.143806	1.027474
H122	H	1.102130	-0.216043	1.093070
H123	H	1.040284	-0.138663	1.093027
H124	H	1.053702	-0.276636	0.995337
H125	H	0.991905	-0.199197	0.995368
H126	H	0.909263	-0.879706	0.722233
O127	O	1.144195	-0.779136	0.224604
C128	C	1.069999	-0.672643	0.216162
C129	C	1.106189	-0.728179	0.260407
H130	H	1.039272	-0.631419	0.245091
H131	H	1.039176	-0.708791	0.183208
H132	H	1.104795	-0.636566	0.187426
H133	H	1.071438	-0.764267	0.289184
H134	H	1.137021	-0.691986	0.293319
O135	O	0.988960	-0.779338	-0.061070
C136	C	1.024557	-0.734554	-0.162342
C137	C	0.980294	-0.790052	-0.126158
H138	H	1.017556	-0.743185	-0.214972
H139	H	1.075338	-0.748373	-0.149453
H140	H	1.013513	-0.670968	-0.149381
H141	H	0.991282	-0.853657	-0.139099
H142	H	0.929526	-0.776165	-0.139050
O143	O	1.273848	-0.779193	0.224519
C144	C	1.293952	-0.740700	0.117496
C145	C	1.257782	-0.796241	0.161732
H146	H	1.280966	-0.754452	0.066724
H147	H	1.346591	-0.749361	0.124393
H148	H	1.281044	-0.677122	0.128629
H149	H	1.270638	-0.859840	0.150627
H150	H	1.205152	-0.787512	0.154827
O151	O	0.988410	-0.979417	0.538218
C152	C	0.996478	-1.085764	0.463833
C153	C	0.952437	-1.029972	0.499940
H154	H	0.967413	-1.126641	0.432867
H155	H	1.024961	-1.122189	0.498627
H156	H	1.029675	-1.049719	0.433240
H157	H	0.919202	-1.065955	0.530533
H158	H	0.923999	-0.993545	0.465112
O159	O	0.675267	-0.280300	0.224287
C160	C	0.695254	-0.241789	0.117246
C161	C	0.659116	-0.297320	0.161517
H162	H	0.682200	-0.255518	0.066487
H163	H	0.747898	-0.250485	0.124076
H164	H	0.682385	-0.178206	0.128406
H165	H	0.671933	-0.360923	0.150384
H166	H	0.606482	-0.288555	0.154678
O167	O	0.274430	-0.479340	0.383088
C168	C	0.267527	-0.579583	0.462823
C169	C	0.231379	-0.523999	0.418580
H170	H	0.232736	-0.615715	0.491520
H171	H	0.298345	-0.543472	0.495806
H172	H	0.298267	-0.620751	0.433858
H173	H	0.200604	-0.482819	0.447495
H174	H	0.200601	-0.560158	0.385595
O175	O	0.480304	-0.879480	0.303565
C176	C	0.385984	-0.955173	0.319750
C177	C	0.458306	-0.955064	0.319764
H178	H	0.368176	-1.016272	0.332858
H179	H	0.368066	-0.938851	0.271001
H180	H	0.368169	-0.910452	0.355427
H181	H	0.476174	-0.999786	0.284117
H182	H	0.476181	-0.971351	0.368535
O183	O	0.988138	-0.979773	0.667819
C184	C	1.017948	-1.114231	0.687806
C185	C	0.974071	-1.058264	0.651596
H186	H	1.006600	-1.177702	0.674693
H187	H	1.010960	-1.105704	0.740438
H188	H	1.068806	-1.100710	0.675060
H189	H	0.923196	-1.071751	0.664289
H190	H	0.981114	-1.066802	0.598973
H191	H	0.669518	-0.970675	0.230554
O192	O	0.989215	-0.280309	0.538744
C193	C	1.024840	-0.235539	0.437478
C194	C	0.980572	-0.291038	0.473655
H195	H	1.017858	-0.244183	0.384847
H196	H	1.075618	-0.249347	0.450386
H197	H	1.013785	-0.171952	0.450427
H198	H	0.991570	-0.354644	0.460725
H199	H	0.929807	-0.277163	0.460744
H200	H	0.669557	-0.787687	0.376673
H201	H	1.268696	-0.970308	0.376849
O202	O	0.830281	-0.978395	-0.060930
C203	C	0.750439	-1.078535	-0.054011
C204	C	0.794727	-1.022962	-0.017872
H205	H	0.721673	-1.114570	-0.019214
H206	H	0.779307	-1.119788	-0.084772
H207	H	0.717516	-1.042341	-0.084807
H208	H	0.827659	-1.059093	0.012958
H209	H	0.765820	-0.981707	0.012849
H210	H	1.149441	-0.970361	0.376769
H211	H	0.670191	-0.471483	0.376565
O212	O	0.909548	-0.878898	-0.125804
C213	C	0.865320	-0.934274	-0.220155
C214	C	0.865362	-0.934221	-0.147834
H215	H	0.829590	-0.978985	-0.237989
H216	H	0.914047	-0.950641	-0.238017
H217	H	0.852263	-0.873184	-0.238001
H218	H	0.878392	-0.995292	-0.129935
H219	H	0.816629	-0.917809	-0.130015
H220	H	0.982725	-0.787233	0.063459
O221	O	0.545667	-0.280304	0.224351
C222	C	0.471333	-0.269523	0.139418
C223	C	0.507514	-0.325068	0.183665
H224	H	0.440468	-0.305692	0.106521
H225	H	0.506080	-0.233438	0.110628
H226	H	0.440633	-0.228309	0.168383
H227	H	0.538215	-0.366330	0.154748
H228	H	0.472733	-0.361098	0.212457
H229	H	0.150090	-0.471340	0.376761
H230	H	0.550245	-0.970762	0.230522
H231	H	0.550302	-0.787783	0.376638
O232	O	0.830803	-0.779135	0.538178
C233	C	0.751494	-0.678423	0.545054
C234	C	0.795433	-0.734363	0.581217
H235	H	0.722895	-0.642198	0.579835
H236	H	0.718406	-0.714259	0.514143
H237	H	0.780689	-0.637360	0.514406
H238	H	0.766289	-0.775438	0.611899
H239	H	0.828523	-0.698478	0.612089
H240	H	0.150020	-0.288025	0.230884
H241	H	0.982924	-0.288124	0.663273
O242	O	0.274357	-0.280099	0.224459
C243	C	0.267383	-0.179844	0.144736
C244	C	0.231275	-0.235414	0.189000
H245	H	0.232567	-0.143690	0.116066
H246	H	0.298089	-0.215967	0.111728
H247	H	0.298232	-0.138694	0.173682
H248	H	0.200392	-0.276575	0.160105
H249	H	0.200609	-0.199243	0.222010
O250	O	0.830424	-0.478984	1.069134
C251	C	0.750567	-0.579111	1.062170
C252	C	0.794892	-0.523620	1.026056
H253	H	0.721837	-0.615225	1.027358
H254	H	0.717618	-0.542929	1.092893
H255	H	0.779469	-0.620302	1.093003
H256	H	0.766041	-0.482418	0.995190
H257	H	0.827843	-0.559851	0.995373
O258	O	0.830568	-0.479215	0.668421
C259	C	0.822080	-0.585655	0.742700
C260	C	0.866347	-0.530128	0.706551
H261	H	0.850989	-0.626821	0.773547
H262	H	0.793307	-0.621787	0.707933
H263	H	0.789162	-0.549421	0.773417
H264	H	0.899303	-0.566301	0.675834
H265	H	0.895076	-0.493994	0.741352
O266	O	0.830490	-0.479108	0.538694
C267	C	0.794826	-0.523911	0.437405
C268	C	0.839123	-0.468419	0.473611
H269	H	0.801800	-0.515300	0.384778
H270	H	0.744056	-0.510065	0.450238
H271	H	0.805859	-0.587497	0.450401
H272	H	0.828146	-0.404814	0.460634
H273	H	0.889880	-0.482332	0.460775
H274	H	0.836811	-0.471084	0.944805
O275	O	0.989174	-0.280045	0.939607
C276	C	0.997667	-0.173557	0.865373
C277	C	0.953394	-0.229048	0.901551
H278	H	0.968756	-0.132301	0.834605
H279	H	1.030563	-0.209739	0.834592
H280	H	1.026463	-0.137513	0.900177
H281	H	0.924557	-0.265103	0.866792
H282	H	0.920539	-0.192821	0.932340
