data_functionalizedCrystal
_audit_creation_method	'MofGen! by Chris Wilmer'
_symmetry_space_group_name_H-M	'P1'
_symmetry_Int_Tables_number	1
_symmetry_cell_setting	triclinic
loop_
_symmetry_equiv_pos_as_xyz
  x,y,z
_cell_length_a	12.811457
_cell_length_b	12.837942
_cell_length_c	11.892095
_cell_angle_alpha	85.697431
_cell_angle_beta	88.501673
_cell_angle_gamma	89.411937
loop_
_atom_site_label
_atom_site_type_symbol
_atom_site_fract_x
_atom_site_fract_y
_atom_site_fract_z
O1	O	1.403418	0.143175	-0.049870
O2	O	1.101350	0.156192	-0.018901
O3	O	1.245685	-0.001296	-0.033706
O4	O	1.259082	0.300663	-0.035066
O5	O	1.233649	0.011815	-0.220479
O6	O	1.089313	0.169303	-0.205674
O7	O	1.391381	0.156286	-0.236643
Zn8	Zn	1.238436	0.164876	-0.250813
Zn9	Zn	1.254295	0.147602	-0.004732
O10	O	1.247046	0.313774	-0.221838
C11	C	1.056400	0.161616	-0.108296
C12	C	0.940394	0.158233	-0.096403
C13	C	0.709282	0.166152	-0.277697
C14	C	0.600284	0.162973	-0.266528
C15	C	0.613398	0.148690	-0.062897
C16	C	0.722396	0.151869	-0.074066
C17	C	0.770334	0.160601	-0.181470
C18	C	0.879334	0.163787	-0.192638
C19	C	0.892446	0.149497	0.010992
C20	C	0.783448	0.146318	0.022161
C21	C	1.235142	-0.033413	-0.126628
C22	C	1.221645	-0.148646	-0.125242
C23	C	1.383903	-0.387735	-0.141854
C24	C	1.371227	-0.496007	-0.140552
C25	C	1.183617	-0.473465	-0.121330
C26	C	1.196293	-0.365193	-0.122631
C27	C	1.296440	-0.322332	-0.132895
C28	C	1.309115	-0.214057	-0.134205
C29	C	1.121506	-0.191518	-0.114974
C30	C	1.108830	-0.299790	-0.113673
C31	C	1.436332	0.150862	-0.147246
C32	C	1.552338	0.154244	-0.159132
C33	C	1.257590	0.345891	-0.128914
C34	C	1.271087	0.461124	-0.130292
N35	N	1.227621	0.176664	-0.418758
C36	C	1.340371	0.053718	-0.666970
C37	C	1.332819	0.061965	-0.784538
C38	C	1.204961	0.201401	-0.771461
C39	C	1.212513	0.193154	-0.653894
C40	C	1.280221	0.119311	-0.601653
C41	C	1.287778	0.111069	-0.484084
C42	C	1.159914	0.250499	-0.471009
C43	C	1.152363	0.258747	-0.588576
N44	N	1.265118	0.135806	0.163212
H45	H	0.744402	0.139204	0.109606
O46	O	1.139035	0.273006	-0.822158
C47	C	0.961373	0.334163	-0.840162
C48	C	1.035918	0.252997	-0.782682
H49	H	0.877990	0.318028	-0.808250
H50	H	0.966218	0.328774	-0.935412
H51	H	0.984743	0.415831	-0.819319
H52	H	1.012599	0.171293	-0.803435
H53	H	1.031062	0.258478	-0.687447
O54	O	1.011545	-0.341397	-0.103502
C55	C	0.853522	-0.361992	0.010051
C56	C	0.963685	-0.314837	-0.001309
H57	H	0.814786	-0.340518	0.092657
H58	H	0.859428	-0.450621	0.009524
H59	H	0.804764	-0.329682	-0.063673
H60	H	1.012504	-0.347065	0.072395
H61	H	0.957701	-0.226209	-0.000833
H62	H	1.050286	-0.138254	-0.107688
O63	O	1.086444	0.330364	-0.639265
C64	C	0.908791	0.391554	-0.657254
C65	C	0.983324	0.310367	-0.599789
H66	H	0.825406	0.375429	-0.625342
H67	H	0.913633	0.386179	-0.752506
H68	H	0.932176	0.473214	-0.636397
H69	H	0.959989	0.228671	-0.620556
H70	H	0.978472	0.315834	-0.504552
O71	O	0.755689	0.174593	-0.382106
C72	C	0.731181	0.188498	-0.582902
C73	C	0.678493	0.178916	-0.464726
H74	H	0.668792	0.192018	-0.649732
H75	H	0.784188	0.117857	-0.593537
H76	H	0.779579	0.262795	-0.592918
H77	H	0.630042	0.104661	-0.454628
H78	H	0.625547	0.249610	-0.454144
H79	H	0.550579	0.167498	-0.344887
H80	H	1.390659	-0.179162	-0.142567
H81	H	1.442450	-0.549255	-0.147844
H82	H	1.342912	0.050945	-0.441551
O83	O	1.481256	-0.346268	-0.151783
C84	C	1.665998	-0.380043	-0.170785
C85	C	1.555806	-0.427142	-0.159523
H86	H	1.726300	-0.445406	-0.177070
H87	H	1.681725	-0.335439	-0.093697
H88	H	1.671534	-0.324397	-0.250014
H89	H	1.550191	-0.482832	-0.080339
H90	H	1.540127	-0.471682	-0.236668
O91	O	1.406161	-0.018092	-0.616394
C92	C	1.532242	-0.155469	-0.641773
C93	C	1.457757	-0.074207	-0.699191
H94	H	1.573994	-0.200845	-0.708690
H95	H	1.485640	-0.211791	-0.581634
H96	H	1.592291	-0.113872	-0.592481
H97	H	1.397693	-0.115716	-0.748544
H98	H	1.504428	-0.017890	-0.759266
H99	H	1.381798	0.008552	-0.837716
H100	H	1.110939	0.303912	-0.417814
O101	O	0.925862	0.172082	-0.296989
C102	C	0.950847	0.095565	-0.474761
C103	C	0.898114	0.086035	-0.356607
H104	H	0.928415	0.026018	-0.523005
H105	H	1.039249	0.096823	-0.466286
H106	H	0.923856	0.170962	-0.522494
H107	H	0.925021	0.010644	-0.308809
H108	H	0.809720	0.084838	-0.365162
O109	O	0.566761	0.140389	0.041399
C110	C	0.448336	0.218184	0.172439
C111	C	0.501103	0.227729	0.054303
H112	H	0.395224	0.288777	0.182901
H113	H	0.510640	0.214825	0.239360
H114	H	0.400024	0.143832	0.182488
H115	H	0.549410	0.302076	0.044144
H116	H	0.438748	0.231028	-0.012559
H117	H	1.102083	-0.508383	-0.112961
H118	H	0.942166	0.144984	0.089348
