data_functionalizedCrystal
_audit_creation_method	'MofGen! by Chris Wilmer'
_symmetry_space_group_name_H-M	'P1'
_symmetry_Int_Tables_number	1
_symmetry_cell_setting	triclinic
loop_
_symmetry_equiv_pos_as_xyz
  x,y,z
_cell_length_a	14.908571
_cell_length_b	19.120786
_cell_length_c	14.908308
_cell_angle_alpha	89.316475
_cell_angle_beta	89.824947
_cell_angle_gamma	89.019960
loop_
_atom_site_label
_atom_site_type_symbol
_atom_site_fract_x
_atom_site_fract_y
_atom_site_fract_z
Zn1	Zn	1.326486	-0.364755	0.566477
Zn2	Zn	1.826486	0.135245	1.066477
Zn3	Zn	1.329365	-0.475309	0.409721
Zn4	Zn	1.829365	0.024691	0.909721
Zn5	Zn	1.185494	-0.351330	0.408252
Zn6	Zn	1.685494	0.148670	0.908252
Zn7	Zn	1.170436	-0.474479	0.551420
Zn8	Zn	1.670436	0.025521	1.051420
O9	O	1.252945	-0.416468	0.483967
O10	O	1.752945	0.083532	0.983967
O11	O	1.452386	-0.385386	0.552599
O12	O	1.952386	0.114614	1.052599
O13	O	1.317787	-0.453592	0.284006
O14	O	1.817787	0.046408	0.784006
O15	O	1.209293	-0.255305	0.434927
O16	O	1.709293	0.244695	0.934927
O17	O	1.454502	-0.466610	0.437431
O18	O	1.954502	0.033390	0.937431
O19	O	1.312880	-0.265169	0.551175
O20	O	1.812880	0.234831	1.051175
O21	O	1.212085	-0.362505	0.282927
O22	O	1.712085	0.137495	0.782927
O23	O	1.057978	-0.361700	0.420327
O24	O	1.557978	0.138300	0.920327
O25	O	1.183630	-0.465195	0.678937
O26	O	1.683630	0.034805	1.178937
O27	O	1.046915	-0.452177	0.525513
O28	O	1.546915	0.047823	1.025513
O29	O	1.298279	-0.384581	0.689999
O30	O	1.798279	0.115419	1.189999
O31	O	1.303186	-0.573005	0.422831
O32	O	1.803186	-0.073005	0.922831
O33	O	1.186422	-0.572395	0.526937
O34	O	1.686422	-0.072395	1.026937
C35	C	1.019901	-0.405392	0.471127
C36	C	1.519901	0.094608	0.971127
C37	C	0.920201	-0.400672	0.465654
C38	C	1.420201	0.099328	0.965654
C39	C	0.721386	-0.486147	0.564738
C40	C	1.221386	0.013853	1.064738
C41	C	0.627709	-0.481714	0.559598
C42	C	1.127709	0.018286	1.059598
C43	C	0.639169	-0.387369	0.450242
C44	C	1.139169	0.112631	0.950242
C45	C	0.732846	-0.391802	0.455381
C46	C	1.232846	0.108198	0.955381
C47	C	0.773951	-0.441194	0.512630
C48	C	1.273951	0.058806	1.012630
C49	C	0.867630	-0.445630	0.517764
C50	C	1.367630	0.054370	1.017764
C51	C	0.879087	-0.351282	0.408413
C52	C	1.379087	0.148718	0.908413
C53	C	0.785410	-0.346849	0.403274
C54	C	1.285410	0.153151	0.903274
C55	C	1.243506	-0.598062	0.473430
C56	C	1.743506	-0.098062	0.973430
C57	C	1.239548	-0.675754	0.468957
C58	C	1.739548	-0.175754	0.968957
C59	C	1.291575	-0.717328	0.527424
C60	C	1.791575	-0.217328	1.027424
C61	C	1.287852	-0.790327	0.523222
C62	C	1.787852	-0.290327	1.023222
C63	C	1.232106	-0.821751	0.460549
C64	C	1.732106	-0.321751	0.960549
C65	C	1.180074	-0.780171	0.402079
C66	C	1.680074	-0.280171	0.902079
C67	C	1.183792	-0.707173	0.406286
C68	C	1.683792	-0.207173	0.906286
C69	C	1.218179	-1.041904	0.444821
C70	C	1.718179	-0.541904	0.944821
C71	C	1.214466	-1.114908	0.440617
C72	C	1.714466	-0.614908	0.940617
C73	C	1.322244	-1.125059	0.561761
C74	C	1.822244	-0.625059	1.061761
C75	C	1.325961	-1.052059	0.565958
C76	C	1.825961	-0.552059	1.065958
C77	C	1.273925	-1.010486	0.507492
C78	C	1.773925	-0.510486	1.007492
C79	C	1.228302	-0.896368	0.456250
C80	C	1.728302	-0.396368	0.956250
C81	C	1.277725	-0.935870	0.511796
C82	C	1.777725	-0.435870	1.011796
C83	C	1.486900	-0.427588	0.496858
C84	C	1.986900	0.072412	0.996858
C85	C	1.586597	-0.432327	0.502352
C86	C	2.086597	0.067673	1.002352
C87	C	1.238954	-0.426293	0.717924
C88	C	1.738954	0.073707	1.217924
C89	C	1.232991	-0.430480	0.817623
C90	C	1.732991	0.069520	1.317623
C91	C	1.262445	-0.234168	0.494567
C92	C	1.762445	0.265832	0.994567
C93	C	1.266493	-0.156482	0.499083
C94	C	1.766493	0.343518	0.999083
C95	C	1.266937	-0.406634	0.250926
C96	C	1.766937	0.093366	0.750926
C97	C	1.273083	-0.402259	0.151249
C98	C	1.773083	0.097741	0.651249
C99	C	1.341170	-0.354387	1.016488
C100	C	1.841170	0.145613	1.516488
C101	C	1.335570	-0.358318	1.110164
C102	C	1.835570	0.141682	1.610164
C103	C	1.216189	-0.442270	1.098652
C104	C	1.716189	0.057730	1.598652
C105	C	1.221789	-0.438338	1.004976
C106	C	1.721789	0.061662	1.504976
C107	C	1.284282	-0.394396	0.963898
C108	C	1.784282	0.105604	1.463898
C109	C	1.289885	-0.390469	0.870220
C110	C	1.789885	0.109531	1.370220
C111	C	1.170500	-0.474416	0.858710
C112	C	1.670500	0.025584	1.358710
C113	C	1.164901	-0.478347	0.952386
C114	C	1.664901	0.021653	1.452386
H115	H	0.921896	-0.314679	0.365981
H116	H	1.421896	0.185321	0.865981
C117	C	0.766605	-0.540475	0.627703
C118	C	1.266605	-0.040475	1.127703
H119	H	0.721882	-0.566612	0.658004
H120	H	1.221882	-0.066612	1.158004
H121	H	0.803622	-0.571171	0.593568
H122	H	1.303622	-0.071171	1.093568
H123	H	0.802198	-0.517154	0.670399
H124	H	1.302198	-0.017154	1.170399
C125	C	0.593946	-0.333039	0.387282
C126	C	1.093946	0.166961	0.887282
H127	H	0.638667	-0.306895	0.356987
H128	H	1.138667	0.193105	0.856987
H129	H	0.558344	-0.356352	0.344594
H130	H	1.058344	0.143648	0.844594
H131	H	0.556938	-0.302339	0.421430
H132	H	1.056938	0.197661	0.921430
C133	C	1.345084	-0.836057	0.587533
C134	C	1.845084	-0.336057	1.087533
H135	H	1.378825	-0.806887	0.625453
H136	H	1.878825	-0.306887	1.125453
H137	H	1.306957	-0.864555	0.623056
H138	H	1.806957	-0.364555	1.123056
H139	H	1.384796	-0.864933	0.553761
H140	H	1.884796	-0.364933	1.053761
C141	C	1.387297	-1.017498	0.634885
C142	C	1.887297	-0.517498	1.134885
H143	H	1.417750	-1.052714	0.669105
H144	H	1.917750	-0.552714	1.169105
H145	H	1.429901	-0.989428	0.604385
H146	H	1.929901	-0.489428	1.104385
H147	H	1.352078	-0.989039	0.673697
H148	H	1.852078	-0.489039	1.173697
H149	H	1.175811	-1.008060	0.397214
H150	H	1.675811	-0.508060	0.897214
C151	C	1.096168	-0.526682	0.997577
C152	C	1.596168	-0.026682	1.497577
H153	H	1.100983	-0.523297	1.060900
H154	H	1.600983	-0.023297	1.560900
H155	H	1.037350	-0.512952	0.979499
H156	H	1.537350	-0.012952	1.479499
H157	H	1.107780	-0.573624	0.980221
H158	H	1.607780	-0.073624	1.480221
C159	C	1.398151	-0.314312	1.168011
C160	C	1.898151	0.185688	1.668011
H161	H	1.436173	-0.287585	1.130126
H162	H	1.936173	0.212415	1.630126
H163	H	1.363243	-0.283764	1.204436
H164	H	1.863243	0.216236	1.704436
H165	H	1.433661	-0.344444	1.205149
H166	H	1.933661	0.155556	1.705149
H167	H	1.364608	-1.158916	0.609361
H168	H	1.864608	-0.658916	1.109361
H169	H	0.751929	-0.306634	0.356666
H170	H	1.251929	0.193366	0.856666
C171	C	1.358617	-0.342130	0.825034
C172	C	1.858617	0.157870	1.325034
H173	H	1.391687	-0.318860	0.869775
H174	H	1.891687	0.181140	1.369775
H175	H	1.398496	-0.369183	0.789088
H176	H	1.898496	0.130817	1.289088
H177	H	1.328063	-0.308513	0.788374
H178	H	1.828063	0.191487	1.288374
H179	H	0.901096	-0.485848	0.564377
H180	H	1.401096	0.014152	1.064377
C181	C	1.153136	-1.149472	0.371680
C182	C	1.653136	-0.649472	0.871680
H183	H	1.122670	-1.114258	0.337468
H184	H	1.622670	-0.614258	0.837468
H185	H	1.188361	-1.177927	0.332875
H186	H	1.688361	-0.677927	0.832875
H187	H	1.110528	-1.177549	0.402177
H188	H	1.610528	-0.677549	0.902177
C189	C	1.352884	-0.682768	0.596375
C190	C	1.852884	-0.182768	1.096375
H191	H	1.383325	-0.717987	0.630602
H192	H	1.883325	-0.217987	1.130602
H193	H	1.395499	-0.654688	0.565906
H194	H	1.895499	-0.154688	1.065906
H195	H	1.317638	-0.654319	0.635176
H196	H	1.817638	-0.154319	1.135176
H197	H	1.134681	-0.805762	0.351053
H198	H	1.634681	-0.305762	0.851053
C199	C	1.166987	-0.930933	0.387309
C200	C	1.666987	-0.430933	0.887309
H201	H	1.136528	-0.895721	0.353089
H202	H	1.636528	-0.395721	0.853089
H203	H	1.202217	-0.959392	0.348513
H204	H	1.702217	-0.459392	0.848513
H205	H	1.124373	-0.959007	0.417802
H206	H	1.624373	-0.459007	0.917802
C207	C	1.409905	-0.306053	0.971299
C208	C	1.909905	0.193947	1.471299
H209	H	1.442982	-0.282785	1.016037
H210	H	1.942982	0.217215	1.516037
H211	H	1.449778	-0.333110	0.935351
H212	H	1.949778	0.166890	1.435351
H213	H	1.379354	-0.272434	0.934640
H214	H	1.879354	0.227566	1.434640
H215	H	1.141425	-0.673323	0.358678
H216	H	1.641425	-0.173323	0.858678
H217	H	1.323110	-0.910283	0.562827
H218	H	1.823110	-0.410283	1.062827
C219	C	1.147447	-0.490593	1.143849
C220	C	1.647447	0.009407	1.643849
H221	H	1.152263	-0.487202	1.207171
H222	H	1.652263	0.012798	1.707171
H223	H	1.088633	-0.476855	1.125769
H224	H	1.588633	0.023145	1.625769
H225	H	1.159047	-0.537538	1.126502
H226	H	1.659047	-0.037538	1.626502
H227	H	1.124180	-0.506996	0.815880
H228	H	1.624180	-0.006996	1.315880
H229	H	0.584914	-0.518318	0.602032
H230	H	1.084914	-0.018318	1.102032
