data_functionalizedCrystal
_audit_creation_method	'MofGen! by Chris Wilmer'
_symmetry_space_group_name_H-M	'P1'
_symmetry_Int_Tables_number	1
_symmetry_cell_setting	triclinic
loop_
_symmetry_equiv_pos_as_xyz
  x,y,z
_cell_length_a	14.519709
_cell_length_b	22.610064
_cell_length_c	14.519709
_cell_angle_alpha	89.995658
_cell_angle_beta	83.680146
_cell_angle_gamma	89.997894
loop_
_atom_site_label
_atom_site_type_symbol
_atom_site_fract_x
_atom_site_fract_y
_atom_site_fract_z
O1	O	-1.223874	0.049112	-0.120879
O2	O	-0.890541	0.382445	0.212455
O3	O	-0.557207	0.715778	0.545788
O4	O	-0.955397	0.049133	-0.135115
O5	O	-0.622064	0.382466	0.198218
O6	O	-0.288730	0.715799	0.531551
O7	O	-1.096754	0.049105	0.006241
O8	O	-0.763420	0.382439	0.339575
O9	O	-0.430087	0.715772	0.672908
O10	O	-1.082517	0.049139	-0.262235
O11	O	-0.749184	0.382473	0.071098
O12	O	-0.415850	0.715806	0.404431
O13	O	-1.096729	-0.049264	0.006221
O14	O	-0.763395	0.284069	0.339554
O15	O	-0.430062	0.617403	0.672888
O16	O	-0.955372	-0.049236	-0.135136
O17	O	-0.622039	0.284097	0.198197
O18	O	-0.288705	0.617430	0.531531
O19	O	-1.223849	-0.049257	-0.120899
O20	O	-0.890516	0.284076	0.212434
O21	O	-0.557182	0.617409	0.545767
Zn22	Zn	-1.089606	-0.064865	-0.128021
Zn23	Zn	-0.756273	0.268468	0.205312
Zn24	Zn	-0.422940	0.601802	0.538646
Zn25	Zn	-1.089639	0.064740	-0.127994
Zn26	Zn	-0.756306	0.398074	0.205340
Zn27	Zn	-0.422973	0.731407	0.538673
O28	O	-1.082492	-0.049230	-0.262256
O29	O	-0.749159	0.284104	0.071077
O30	O	-0.415825	0.617437	0.404411
C31	C	-0.921025	-0.000049	-0.134462
C32	C	-0.587691	0.333284	0.198871
C33	C	-0.254358	0.666617	0.532205
C34	C	-0.818643	-0.000042	-0.132474
C35	C	-0.485310	0.333291	0.200859
C36	C	-0.151977	0.666624	0.534193
N37	N	-1.089591	-0.153318	-0.128039
N38	N	-0.756257	0.180016	0.205294
N39	N	-0.422924	0.513349	0.538628
C40	C	-0.443748	-0.000068	-0.125154
C41	C	-0.110414	0.333266	0.208179
C42	C	0.222919	0.666599	0.541512
C43	C	-0.548056	-0.000060	-0.127187
C44	C	-0.214722	0.333273	0.206146
C45	C	0.118611	0.666606	0.539480
C46	C	-0.631192	-0.000054	-0.128814
C47	C	-0.297859	0.333279	0.204519
C48	C	0.035474	0.666612	0.537853
C49	C	-0.735507	-0.000048	-0.130847
C50	C	-0.402173	0.333285	0.202486
C51	C	-0.068840	0.666618	0.535820
C52	C	-1.152235	-0.561971	-0.065411
C53	C	-0.818902	-0.228638	0.267923
C54	C	-0.485568	0.104695	0.601256
C55	C	-1.152240	-0.623891	-0.065404
C56	C	-0.818906	-0.290558	0.267929
C57	C	-0.485573	0.042776	0.601263
O58	O	-1.205463	-0.655920	-0.012169
O59	O	-0.872130	-0.322587	0.321165
O60	O	-0.538796	0.010746	0.654498
N61	N	-1.089639	-0.654855	-0.127975
N62	N	-0.756305	-0.321521	0.205359
N63	N	-0.422972	0.011812	0.538692
C64	C	-1.027022	-0.623895	-0.190550
C65	C	-0.693689	-0.290562	0.142784
C66	C	-0.360356	0.042771	0.476117
O67	O	-0.973775	-0.655918	-0.243770
O68	O	-0.640442	-0.322585	0.089564
O69	O	-0.307109	0.010749	0.422897
C70	C	-1.027014	-0.561976	-0.190551
C71	C	-0.693681	-0.228643	0.142782
C72	C	-0.360347	0.104690	0.476115
C73	C	-1.089626	-0.531016	-0.127983
C74	C	-0.756292	-0.197683	0.205351
C75	C	-0.422959	0.135651	0.538684
C76	C	-1.214841	-0.531011	-0.002846
C77	C	-0.881507	-0.197677	0.330487
C78	C	-0.548174	0.135656	0.663820
C79	C	-1.214837	-0.469095	-0.002855
C80	C	-0.881504	-0.135762	0.330479
C81	C	-0.548170	0.197572	0.663812
C82	C	-1.152227	-0.438140	-0.065427
C83	C	-0.818894	-0.104807	0.267907
C84	C	-0.485561	0.228527	0.601240
C85	C	-1.089622	-0.469100	-0.127991
C86	C	-0.756288	-0.135767	0.205343
C87	C	-0.422955	0.197566	0.538676
C88	C	-0.964394	-0.531018	-0.253121
C89	C	-0.631061	-0.197685	0.080212
C90	C	-0.297728	0.135649	0.413545
C91	C	-0.964391	-0.469095	-0.253117
C92	C	-0.631057	-0.135762	0.080216
C93	C	-0.297724	0.197572	0.413550
C94	C	-1.027002	-0.438135	-0.190548
C95	C	-0.693669	-0.104801	0.142785
C96	C	-0.360336	0.228532	0.476118
C97	C	-1.027009	-0.376230	-0.190571
C98	C	-0.693675	-0.042896	0.142762
C99	C	-0.360342	0.290437	0.476096
N100	N	-1.089610	-0.345266	-0.128000
N101	N	-0.756276	-0.011933	0.205333
N102	N	-0.422943	0.321401	0.538666
C103	C	-1.152219	-0.376221	-0.065428
C104	C	-0.818886	-0.042888	0.267905
C105	C	-0.485552	0.290446	0.601238
C106	C	-1.027044	-0.753929	-0.190541
C107	C	-0.693710	-0.420596	0.142793
C108	C	-0.360377	-0.087262	0.476126
C109	C	-1.027056	-0.815847	-0.190544
C110	C	-0.693722	-0.482513	0.142789
C111	C	-0.360389	-0.149180	0.476122
C112	C	-1.152272	-0.815838	-0.065397
C113	C	-0.818939	-0.482505	0.267936
C114	C	-0.485605	-0.149171	0.601270
C115	C	-1.152264	-0.753919	-0.065399
C116	C	-0.818930	-0.420586	0.267935
C117	C	-0.485597	-0.087253	0.601268
C118	C	-1.089645	-0.722965	-0.127970
C119	C	-0.756311	-0.389632	0.205363
C120	C	-0.422978	-0.056299	0.538697
C121	C	-1.152207	-0.246194	-0.065450
C122	C	-0.818874	0.087139	0.267883
C123	C	-0.485540	0.420473	0.601216
C124	C	-1.152200	-0.184273	-0.065467
C125	C	-0.818867	0.149061	0.267867
C126	C	-0.485533	0.482394	0.601200
C127	C	-1.026981	-0.184287	-0.190610
C128	C	-0.693648	0.149047	0.142723
C129	C	-0.360314	0.482380	0.476056
C130	C	-1.026991	-0.246202	-0.190598
C131	C	-0.693657	0.087131	0.142736
C132	C	-0.360324	0.420464	0.476069
C133	C	-1.089607	-0.277154	-0.128010
C134	C	-0.756274	0.056179	0.205323
C135	C	-0.422940	0.389512	0.538657
O136	O	-0.973810	-0.344161	-0.243777
O137	O	-0.640477	-0.010828	0.089557
O138	O	-0.307143	0.322505	0.422890
O139	O	-1.205449	-0.344191	-0.012209
O140	O	-0.872116	-0.010858	0.321124
O141	O	-0.538783	0.322476	0.654458
C142	C	-0.258221	-0.000072	-0.121553
C143	C	0.075112	0.333261	0.211781
C144	C	0.408446	0.666594	0.545114
C145	C	-0.360602	-0.000071	-0.123541
C146	C	-0.027269	0.333262	0.209793
C147	C	0.306064	0.666595	0.543126
C148	C	-1.096078	-0.000082	0.040591
C149	C	-0.762744	0.333251	0.373924
C150	C	-0.429411	0.666584	0.707258
C151	C	-1.094089	-0.000091	0.142972
C152	C	-0.760756	0.333242	0.476306
C153	C	-0.427423	0.666576	0.809639
N154	N	-1.089662	0.153193	-0.127968
N155	N	-0.756329	0.486526	0.205365
N156	N	-0.422996	0.819860	0.538698
C157	C	-1.086770	-0.000107	0.517868
C158	C	-0.753437	0.333227	0.851201
C159	C	-0.420103	0.666560	1.184535
C160	C	-1.088803	-0.000102	0.413560
C161	C	-0.755469	0.333231	0.746893
C162	C	-0.422136	0.666564	1.080227
C163	C	-1.090430	-0.000099	0.330423
C164	C	-0.757096	0.333234	0.663757
C165	C	-0.423763	0.666567	0.997090
C166	C	-1.092463	-0.000094	0.226109
C167	C	-0.759129	0.333239	0.559442
C168	C	-0.425796	0.666572	0.892776
C169	C	-1.083168	-0.000062	0.703394
C170	C	-0.749835	0.333271	1.036728
C171	C	-0.416501	0.666605	1.370061
C172	C	-1.085156	-0.000112	0.601013
C173	C	-0.751823	0.333221	0.934347
C174	C	-0.418490	0.666555	1.267680
H175	H	-1.203194	-0.271388	-0.014485
H176	H	-0.869861	0.061945	0.318848
H177	H	-0.536527	0.395279	0.652182
H178	H	-0.913410	-0.556217	-0.304070
H179	H	-0.580077	-0.222884	0.029264
H180	H	-0.246743	0.110449	0.362597
O181	O	-0.959440	-0.150885	-0.258072
O182	O	-0.626107	0.182448	0.075261
O183	O	-0.292773	0.515782	0.408595
H184	H	-0.998314	-0.122660	-0.302980
H185	H	-0.664981	0.210674	0.030353
H186	H	-0.331647	0.544007	0.363687
O187	O	-0.896856	-0.435708	-0.320611
O188	O	-0.563522	-0.102374	0.012722
O189	O	-0.230189	0.230959	0.346056
H190	H	-0.853330	-0.467643	-0.364118
H191	H	-0.519997	-0.134310	-0.030785
H192	H	-0.186664	0.199024	0.302548
H193	H	-0.976016	-0.271411	-0.241556
H194	H	-0.642682	0.061923	0.091778
H195	H	-0.309349	0.395256	0.425111
H196	H	-1.265818	-0.443891	0.048097
H197	H	-0.932484	-0.110557	0.381430
H198	H	-0.599151	0.222776	0.714763
H199	H	-1.203247	-0.728715	-0.014450
H200	H	-0.869913	-0.395382	0.318884
H201	H	-0.536580	-0.062048	0.652217
O202	O	-1.282387	-0.564394	0.064635
O203	O	-0.949054	-0.231061	0.397968
O204	O	-0.615721	0.102273	0.731301
H205	H	-1.325920	-0.532453	0.108124
H206	H	-0.992586	-0.199120	0.441458
H207	H	-0.659253	0.134214	0.774791
H208	H	-0.976082	-0.841050	-0.241503
H209	H	-0.642748	-0.507717	0.091830
H210	H	-0.309415	-0.174384	0.425164
O211	O	-0.959502	-0.720542	-0.258031
O212	O	-0.626168	-0.387208	0.075302
O213	O	-0.292835	-0.053875	0.408635
H214	H	-0.998382	-0.692321	-0.302941
H215	H	-0.665048	-0.358987	0.030393
H216	H	-0.331715	-0.025654	0.363726
H217	H	-1.203189	-0.159067	-0.014516
H218	H	-0.869856	0.174267	0.318817
H219	H	-0.536522	0.507600	0.652151
H220	H	-1.203251	-0.841053	-0.014446
H221	H	-0.869918	-0.507720	0.318887
H222	H	-0.536584	-0.174386	0.652221
