data_functionalizedCrystal
_audit_creation_method	'MofGen! by Chris Wilmer'
_symmetry_space_group_name_H-M	'P1'
_symmetry_Int_Tables_number	1
_symmetry_cell_setting	triclinic
loop_
_symmetry_equiv_pos_as_xyz
  x,y,z
_cell_length_a	13.339070
_cell_length_b	17.038272
_cell_length_c	12.376457
_cell_angle_alpha	102.103643
_cell_angle_beta	75.589755
_cell_angle_gamma	103.370425
loop_
_atom_site_label
_atom_site_type_symbol
_atom_site_fract_x
_atom_site_fract_y
_atom_site_fract_z
O1	O	1.395122	0.388434	-0.094053
O2	O	1.096082	0.336008	-0.094045
O3	O	1.243823	0.248021	-0.094040
O4	O	1.247381	0.476421	-0.094058
O5	O	1.206898	0.269979	0.093971
O6	O	1.059157	0.357966	0.093966
O7	O	1.358198	0.410392	0.093958
Zn8	Zn	1.202815	0.387665	0.123813
Zn9	Zn	1.251465	0.358734	-0.123900
O10	O	1.210456	0.498379	0.093953
C11	C	1.039168	0.338131	-0.000039
C12	C	0.924594	0.311734	-0.000035
C13	C	0.577472	0.516981	-0.000069
C14	C	0.685120	0.541784	-0.000076
C15	C	0.744994	0.484274	-0.000065
C16	C	0.697208	0.401956	-0.000049
C17	C	0.589551	0.377149	-0.000051
C18	C	0.757073	0.344442	-0.000047
C19	C	0.709288	0.262125	-0.000031
C20	C	0.601640	0.237322	-0.000033
C21	C	0.541767	0.294832	-0.000043
C22	C	0.864731	0.369249	-0.000045
C23	C	0.876810	0.229417	-0.000027
C24	C	0.769161	0.204614	-0.000021
C25	C	1.222128	0.229169	-0.000034
C26	C	1.212482	0.140282	-0.000034
C27	C	1.301039	0.109396	-0.000036
C28	C	1.291972	0.025875	-0.000046
C29	C	1.194346	-0.026757	-0.000047
C30	C	1.105783	0.004133	-0.000050
C31	C	1.114852	0.087652	-0.000047
C32	C	1.162306	-0.279475	-0.000062
C33	C	1.153242	-0.362998	-0.000061
C34	C	1.339433	-0.341250	-0.000060
C35	C	1.348493	-0.257730	-0.000050
C36	C	1.259931	-0.226847	-0.000059
C37	C	1.185075	-0.112129	-0.000055
C38	C	1.269204	-0.141478	-0.000059
C39	C	1.415112	0.408268	-0.000051
C40	C	1.529688	0.434664	-0.000061
C41	C	1.232152	0.517230	-0.000055
C42	C	1.241799	0.606116	-0.000062
N43	N	1.169620	0.407411	0.292870
N44	N	1.284667	0.338984	-0.292957
C45	C	1.361722	0.293132	0.647862
C46	C	1.384949	0.279311	0.529523
C47	C	1.331119	0.311334	0.470354
C48	C	1.254057	0.357182	0.529535
C49	C	1.230833	0.371011	0.647886
C50	C	1.200230	0.389213	0.470378
C51	C	1.123169	0.435061	0.529560
C52	C	1.099948	0.448886	0.647899
C53	C	1.153779	0.416863	0.707068
C54	C	1.223454	0.375385	0.352027
C55	C	1.092565	0.453263	0.352052
C56	C	1.069338	0.467084	0.470391
H57	H	0.925560	0.182587	-0.000023
H58	H	1.427990	-0.214880	-0.000049
Br59	Br	0.496217	0.595018	-0.000108
Br60	Br	1.401696	-0.070048	-0.000068
Br61	Br	0.536799	0.125600	-0.000057
Br62	Br	0.704297	0.092900	0.000003
Br63	Br	1.433536	0.180821	-0.000017
Br64	Br	1.434783	0.249687	0.728162
H65	H	1.411535	-0.366404	-0.000055
H66	H	0.903626	0.436273	-0.000054
Br67	Br	0.973291	-0.067299	-0.000071
Br68	Br	1.052587	-0.183567	-0.000067
Br69	Br	0.891091	0.517937	-0.000073
H70	H	1.006593	0.504415	0.518591
H71	H	1.364085	0.000733	-0.000044
H72	H	1.286198	0.338055	0.303852
H73	H	1.037209	0.486226	0.696084
H74	H	0.454110	0.274642	-0.000038
H75	H	1.073735	-0.405849	-0.000044
H76	H	1.090192	-0.254341	-0.000068
H77	H	1.350034	0.300079	0.373997
Br78	Br	0.994665	0.129568	-0.000055
Br79	Br	1.489529	0.217095	0.449206
Br80	Br	1.019512	0.496733	0.271760
Br81	Br	1.122246	0.435615	0.867678
Br82	Br	0.749967	0.653495	-0.000107
