data_functionalizedCrystal
_audit_creation_method	'MofGen! by Chris Wilmer'
_symmetry_space_group_name_H-M	'P1'
_symmetry_Int_Tables_number	1
_symmetry_cell_setting	triclinic
loop_
_symmetry_equiv_pos_as_xyz
  x,y,z
_cell_length_a	9.065218
_cell_length_b	11.892095
_cell_length_c	9.065215
_cell_angle_alpha	86.052098
_cell_angle_beta	85.015291
_cell_angle_gamma	93.956904
loop_
_atom_site_label
_atom_site_type_symbol
_atom_site_fract_x
_atom_site_fract_y
_atom_site_fract_z
O1	O	1.969708	0.094004	0.207050
O2	O	2.469708	0.594004	0.707050
O3	O	1.540423	0.094005	0.224796
O4	O	2.040423	0.594005	0.724796
O5	O	1.763940	0.094000	0.001281
O6	O	2.263940	0.594000	0.501281
O7	O	1.746190	0.094009	0.430565
O8	O	2.246190	0.594009	0.930565
O9	O	1.745304	-0.094007	0.019888
O10	O	2.245304	0.405993	0.519888
O11	O	1.521786	-0.094002	0.243403
O12	O	2.021786	0.405998	0.743403
O13	O	1.951071	-0.094003	0.225657
O14	O	2.451071	0.405997	0.725657
Zn15	Zn	1.733470	-0.123853	0.237485
Zn16	Zn	2.233470	0.376147	0.737485
Zn17	Zn	1.758024	0.123855	0.212969
Zn18	Zn	2.258024	0.623855	0.712969
O19	O	1.727554	-0.093998	0.449172
O20	O	2.227554	0.406002	0.949172
C21	C	1.476118	0.000002	0.232394
C22	C	1.976118	0.500002	0.732394
C23	C	1.312275	0.000002	0.227294
C24	C	1.812275	0.500002	0.727294
N25	N	1.716722	-0.292906	0.254215
N26	N	2.216722	0.207094	0.754215
C27	C	1.891317	-0.529559	0.079723
C28	C	2.391317	-0.029559	0.579723
C29	C	1.879622	-0.647900	0.091428
C30	C	2.379622	-0.147900	0.591428
C31	C	1.681630	-0.647933	0.289323
C32	C	2.181630	-0.147933	0.789323
C33	C	1.693325	-0.529592	0.277618
C34	C	2.193325	-0.029592	0.777618
C35	C	1.798174	-0.470408	0.172816
C36	C	2.298174	0.029592	0.672816
C37	C	1.809876	-0.352065	0.161118
C38	C	2.309876	0.147935	0.661118
C39	C	1.611877	-0.352100	0.359005
C40	C	2.111877	0.147900	0.859005
C41	C	1.600182	-0.470442	0.370711
C42	C	2.100182	0.029558	0.870711
C43	C	2.015376	0.000003	0.218059
C44	C	2.515376	0.500003	0.718059
C45	C	2.179220	0.000010	0.223158
C46	C	2.679220	0.500010	0.723158
C47	C	1.752917	-0.000003	-0.044402
C48	C	2.252917	0.499997	0.455598
C49	C	1.747820	0.000001	-0.208246
C50	C	2.247820	0.500001	0.291754
N51	N	1.774783	0.292908	0.196227
N52	N	2.274783	0.792908	0.696227
C53	C	1.738577	0.000007	0.494855
C54	C	2.238577	0.500007	0.994855
C55	C	1.743676	0.000011	0.658698
C56	C	2.243676	0.500011	1.158698
H57	H	1.976699	-0.481371	-0.005602
H58	H	2.476699	0.018629	0.494398
H59	H	1.536038	-0.303927	0.434812
H60	H	2.036038	0.196073	0.934812
H61	H	1.596255	-0.696136	0.374641
H62	H	2.096255	-0.196136	0.874641
H63	H	1.955467	-0.696057	0.015621
H64	H	2.455467	-0.196057	0.515621
C65	C	1.484815	-0.535544	0.485945
C66	C	1.984815	-0.035544	0.985945
H67	H	1.431000	-0.483363	0.539693
H68	H	1.931000	0.016637	1.039693
H69	H	1.534106	-0.581721	0.552686
H70	H	2.034106	-0.081721	1.052686
H71	H	1.418131	-0.581697	0.436526
H72	H	1.918131	-0.081697	0.936526
C73	C	1.925197	-0.286964	0.045837
C74	C	2.425197	0.213036	0.545837
H75	H	1.978982	-0.339146	-0.007939
H76	H	2.478982	0.160854	0.492061
H77	H	1.991895	-0.240786	0.095194
H78	H	2.491895	0.259214	0.595194
H79	H	1.875846	-0.240812	-0.020892
H80	H	2.375846	0.259188	0.479108
