data_functionalizedCrystal
_audit_creation_method	'MofGen! by Chris Wilmer'
_symmetry_space_group_name_H-M	'P1'
_symmetry_Int_Tables_number	1
_symmetry_cell_setting	triclinic
loop_
_symmetry_equiv_pos_as_xyz
  x,y,z
_cell_length_a	19.188928
_cell_length_b	19.188924
_cell_length_c	10.868271
_cell_angle_alpha	90.007200
_cell_angle_beta	89.978983
_cell_angle_gamma	96.857113
loop_
_atom_site_label
_atom_site_type_symbol
_atom_site_fract_x
_atom_site_fract_y
_atom_site_fract_z
O1	O	-0.926144	0.087160	0.102804
O2	O	-0.592810	0.420494	0.436137
O3	O	-0.259477	0.753827	0.769470
O4	O	-0.722832	0.098896	0.102703
O5	O	-0.389498	0.432230	0.436036
O6	O	-0.056165	0.765563	0.769369
O7	O	-0.830357	-0.008628	0.102742
O8	O	-0.497024	0.324706	0.436075
O9	O	-0.163691	0.658039	0.769408
O10	O	-0.818618	0.194684	0.102765
O11	O	-0.485285	0.528018	0.436098
O12	O	-0.151951	0.861351	0.769431
O13	O	-0.830348	-0.008632	-0.101903
O14	O	-0.497015	0.324702	0.231430
O15	O	-0.163682	0.658035	0.564764
O16	O	-0.722823	0.098892	-0.101942
O17	O	-0.389490	0.432226	0.231391
O18	O	-0.056156	0.765559	0.564725
O19	O	-0.926135	0.087156	-0.101841
O20	O	-0.592801	0.420490	0.231492
O21	O	-0.259468	0.753823	0.564826
Zn22	Zn	-0.824477	0.093024	-0.134383
Zn23	Zn	-0.491144	0.426357	0.198950
Zn24	Zn	-0.157811	0.759690	0.532283
Zn25	Zn	-0.824489	0.093029	0.135245
Zn26	Zn	-0.491156	0.426362	0.468578
Zn27	Zn	-0.157822	0.759696	0.801912
O28	O	-0.818609	0.194680	-0.101880
O29	O	-0.485276	0.528014	0.231453
O30	O	-0.151942	0.861347	0.564787
C31	C	-0.696816	0.098515	0.000367
C32	C	-0.363483	0.431848	0.333700
C33	C	-0.030150	0.765181	0.667034
C34	C	-0.619312	0.097375	0.000328
C35	C	-0.285978	0.430708	0.333661
C36	C	0.047355	0.764041	0.666995
C37	C	-0.829973	-0.034641	0.000418
C38	C	-0.496640	0.298693	0.333751
C39	C	-0.163307	0.632026	0.667085
C40	C	-0.828835	-0.112145	0.000414
C41	C	-0.495501	0.221188	0.333747
C42	C	-0.162168	0.554521	0.667081
C43	C	-0.574386	0.160466	0.000351
C44	C	-0.241053	0.493799	0.333684
C45	C	0.092281	0.827133	0.667018
C46	C	-0.501562	0.159395	0.000358
C47	C	-0.168229	0.492728	0.333691
C48	C	0.165104	0.826062	0.667025
C49	C	-0.473667	0.095229	0.000367
C50	C	-0.140334	0.428562	0.333700
C51	C	0.192999	0.761896	0.667033
C52	C	-0.518603	0.032129	0.000337
C53	C	-0.185269	0.365462	0.333670
C54	C	0.148064	0.698796	0.667004
C55	C	-0.591425	0.033202	0.000317
C56	C	-0.258092	0.366535	0.333651
C57	C	0.075242	0.699869	0.666984
N58	N	-0.365691	0.046184	0.070051
N59	N	-0.032358	0.379517	0.403384
N60	N	0.300976	0.712851	0.736717
N61	N	-0.296512	0.045169	0.070072
N62	N	0.036821	0.378503	0.403405
N63	N	0.370154	0.711836	0.736738
C64	C	-0.254258	0.091993	0.000423
C65	C	0.079075	0.425326	0.333756
C66	C	0.412408	0.758659	0.667089
N67	N	-0.283795	0.139880	-0.069233
N68	N	0.049538	0.473213	0.264100
N69	N	0.382872	0.806547	0.597434
N70	N	-0.352980	0.140897	-0.069249
N71	N	-0.019646	0.474230	0.264085
N72	N	0.313687	0.807563	0.597418
C73	C	-0.394705	0.094058	0.000387
C74	C	-0.061371	0.427392	0.333720
C75	C	0.271962	0.760725	0.667054
C76	C	-0.130368	0.153927	0.000451
C77	C	0.202965	0.487260	0.333785
C78	C	0.536298	0.820594	0.667118
C79	C	-0.057544	0.152853	0.000451
C80	C	0.275790	0.486187	0.333784
C81	C	0.609123	0.819520	0.667118
C82	C	-0.074586	0.025586	0.000442
C83	C	0.258748	0.358919	0.333776
C84	C	0.592081	0.692252	0.667109
C85	C	-0.147409	0.026661	0.000430
C86	C	0.185925	0.359995	0.333764
C87	C	0.519258	0.693328	0.667097
C88	C	-0.175296	0.090834	0.000441
C89	C	0.158038	0.424167	0.333774
C90	C	0.491371	0.757501	0.667108
C91	C	-0.828308	-0.148542	0.111966
C92	C	-0.494975	0.184791	0.445299
C93	C	-0.161641	0.518125	0.778633
C94	C	-0.827228	-0.221365	0.111975
C95	C	-0.493895	0.111968	0.445308
C96	C	-0.160561	0.445302	0.778641
C97	C	-0.826689	-0.257790	0.000425
C98	C	-0.493356	0.075543	0.333759
C99	C	-0.160022	0.408877	0.667092
C100	C	-0.827212	-0.221384	-0.111141
C101	C	-0.493878	0.111949	0.222192
C102	C	-0.160545	0.445283	0.555525
C103	C	-0.828285	-0.148562	-0.111147
C104	C	-0.494951	0.184772	0.222187
C105	C	-0.161618	0.518105	0.555520
N106	N	-0.864733	-0.377455	-0.082579
N107	N	-0.531400	-0.044122	0.250754
N108	N	-0.198067	0.289211	0.584088
N109	N	-0.863716	-0.446633	-0.082566
N110	N	-0.530382	-0.113300	0.250767
N111	N	-0.197049	0.220033	0.584101
C112	C	-0.823455	-0.477199	0.000436
C113	C	-0.490122	-0.143866	0.333769
C114	C	-0.156788	0.189468	0.667102
N115	N	-0.784259	-0.435974	0.083443
N116	N	-0.450926	-0.102641	0.416776
N117	N	-0.117593	0.230692	0.750109
N118	N	-0.785280	-0.366790	0.083433
N119	N	-0.451947	-0.033457	0.416767
N120	N	-0.118613	0.299877	0.750100
C121	C	-0.825525	-0.336753	0.000419
C122	C	-0.492192	-0.003420	0.333752
C123	C	-0.158858	0.329913	0.667086
C124	C	-0.821756	-0.592558	0.112005
C125	C	-0.488423	-0.259225	0.445338
C126	C	-0.155090	0.074108	0.778671
C127	C	-0.820672	-0.665382	0.112009
C128	C	-0.487339	-0.332048	0.445342
C129	C	-0.154005	0.001285	0.778676
C130	C	-0.820663	-0.665400	-0.111110
C131	C	-0.487329	-0.332067	0.222223
C132	C	-0.153996	0.001266	0.555556
C133	C	-0.821740	-0.592577	-0.111111
C134	C	-0.488407	-0.259244	0.222222
C135	C	-0.155073	0.074089	0.555555
C136	C	-0.822290	-0.556161	0.000450
C137	C	-0.488957	-0.222828	0.333783
C138	C	-0.155623	0.110505	0.667116
C139	C	0.047850	0.087540	0.000475
C140	C	0.381183	0.420874	0.333809
C141	C	0.714517	0.754207	0.667142
C142	C	-0.029654	0.088687	0.000458
C143	C	0.303680	0.422020	0.333791
C144	C	0.637013	0.755353	0.667124
C145	C	-0.818993	0.220694	0.000446
C146	C	-0.485660	0.554027	0.333780
C147	C	-0.152326	0.887360	0.667113
C148	C	-0.820132	0.298198	0.000458
C149	C	-0.486798	0.631532	0.333792
C150	C	-0.153465	0.964865	0.667125
N151	N	-0.824475	0.093020	-0.318397
N152	N	-0.491141	0.426353	0.014936
N153	N	-0.157808	0.759686	0.348269
C154	C	-0.824485	0.093028	-0.569403
C155	C	-0.491152	0.426361	-0.236070
C156	C	-0.157819	0.759694	0.097263
C157	C	-0.824477	0.093025	-0.429726
C158	C	-0.491144	0.426359	-0.096392
C159	C	-0.157810	0.759692	0.236941
N160	N	-0.824497	0.093028	0.319259
N161	N	-0.491164	0.426361	0.652592
N162	N	-0.157831	0.759694	0.985926
H163	H	-0.597086	0.212720	0.000362
H164	H	-0.263753	0.546054	0.333695
H165	H	0.069580	0.879387	0.667028
H166	H	-0.183988	-0.024715	0.000418
H167	H	0.149345	0.308619	0.333752
H168	H	0.482678	0.641952	0.667085
H169	H	-0.051874	-0.026660	0.000526
H170	H	0.281459	0.306674	0.333859
H171	H	0.614792	0.640007	0.667192
H172	H	-0.828754	-0.118896	0.202808
H173	H	-0.495421	0.214437	0.536141
H174	H	-0.162087	0.547770	0.869474
H175	H	-0.826795	-0.251004	0.202816
H176	H	-0.493462	0.082329	0.536150
H177	H	-0.160128	0.415662	0.869483
H178	H	-0.495886	-0.020115	0.000361
H179	H	-0.162553	0.313218	0.333694
H180	H	0.170781	0.646551	0.667028
H181	H	-0.826771	-0.251046	-0.201965
H182	H	-0.493437	0.082288	0.131368
H183	H	-0.160104	0.415621	0.464701
H184	H	-0.822200	-0.562906	0.202844
H185	H	-0.488867	-0.229573	0.536178
H186	H	-0.155533	0.103761	0.869511
H187	H	-0.820240	-0.695014	0.202851
H188	H	-0.486906	-0.361681	0.536185
H189	H	-0.153573	-0.028348	0.869518
H190	H	-0.828711	-0.118928	-0.201989
H191	H	-0.495377	0.214406	0.131345
H192	H	-0.162044	0.547739	0.464678
H193	H	-0.820218	-0.695056	-0.201936
H194	H	-0.486885	-0.361723	0.131397
H195	H	-0.153552	-0.028390	0.464731
H196	H	-0.464977	0.210773	0.000373
H197	H	-0.131644	0.544107	0.333706
H198	H	0.201690	0.877440	0.667040
H199	H	-0.628004	-0.018176	0.000300
H200	H	-0.294671	0.315157	0.333633
H201	H	0.038663	0.648490	0.666966
H202	H	-0.822175	-0.562944	-0.201949
H203	H	-0.488841	-0.229610	0.131384
H204	H	-0.155508	0.103723	0.464718
H205	H	-0.020965	0.204232	0.000462
H206	H	0.312368	0.537566	0.333796
H207	H	0.645702	0.870899	0.667129
H208	H	-0.153075	0.206180	0.000442
H209	H	0.180258	0.539514	0.333775
H210	H	0.513592	0.872847	0.667108
