data_functionalizedCrystal
_audit_creation_method	'MofGen! by Chris Wilmer'
_symmetry_space_group_name_H-M	'P1'
_symmetry_Int_Tables_number	1
_symmetry_cell_setting	triclinic
loop_
_symmetry_equiv_pos_as_xyz
  x,y,z
_cell_length_a	25.993458
_cell_length_b	25.993459
_cell_length_c	25.993511
_cell_angle_alpha	59.998162
_cell_angle_beta	89.999156
_cell_angle_gamma	60.000225
loop_
_atom_site_label
_atom_site_type_symbol
_atom_site_fract_x
_atom_site_fract_y
_atom_site_fract_z
O1	O	-0.438486	-0.368218	0.015293
O2	O	-0.363675	-0.262871	-0.015241
O3	O	-0.363672	-0.368217	0.090105
O4	O	-0.438489	-0.262872	-0.090053
O5	O	-0.278107	-0.453782	0.090105
O6	O	-0.278110	-0.348435	-0.015242
O7	O	-0.352922	-0.453782	0.015293
Cu8	Cu	-0.307703	-0.408922	0.000026
Cu9	Cu	-0.408893	-0.307732	0.000026
O10	O	-0.352925	-0.348436	-0.090054
C11	C	-0.277316	-0.161982	-0.022175
C12	C	-0.309062	-0.098492	-0.017804
C13	C	-0.215401	-0.192794	-0.022608
C14	C	-0.277319	-0.255138	-0.022182
C15	C	-0.309067	-0.291250	-0.017818
C16	C	-0.215403	-0.285808	-0.022615
C17	C	-0.184156	-0.255142	-0.022175
C18	C	-0.116294	-0.291259	-0.017803
C19	C	-0.308422	-0.192790	-0.022615
C20	C	-0.621955	-0.565869	0.037072
C21	C	-0.590709	-0.628219	0.037508
C22	C	-0.528796	-0.565867	0.037069
C23	C	-0.497692	-0.628217	0.037505
C24	C	-0.528795	-0.659029	0.037072
C25	C	-0.590710	-0.535199	0.037505
C26	C	-0.722642	-0.464940	0.029513
C27	C	-0.786264	-0.430643	0.024742
C28	C	-0.818173	-0.460083	0.022351
C29	C	-0.887157	-0.422897	0.017175
C30	C	-0.786465	-0.523827	0.024735
C31	C	-0.722845	-0.558124	0.029508
C32	C	-0.690936	-0.528678	0.031894
C33	C	-0.529037	-0.752158	0.029515
C34	C	-0.499712	-0.811010	0.024744
C35	C	-0.438364	-0.840525	0.022349
C36	C	-0.406566	-0.904333	0.017173
C37	C	-0.406330	-0.811198	0.024730
C38	C	-0.435652	-0.752352	0.029503
C39	C	-0.497006	-0.722832	0.031893
C40	C	-0.529039	-0.464935	0.029505
C41	C	-0.499717	-0.430630	0.024723
C42	C	-0.438369	-0.460069	0.022328
C43	C	-0.406571	-0.422880	0.017149
C44	C	-0.406337	-0.523807	0.024709
C45	C	-0.435656	-0.558111	0.029489
C46	C	-0.497007	-0.528673	0.031887
C47	C	-0.528800	-0.150795	-0.471170
C48	C	-0.590715	-0.088445	-0.502276
C49	C	-0.528801	-0.150794	-0.378010
C50	C	-0.590716	-0.088444	-0.409257
C51	C	-0.621962	-0.057634	-0.471172
C52	C	-0.497696	-0.181464	-0.409255
C53	C	-0.435430	-0.251726	-0.470926
C54	C	-0.405903	-0.286024	-0.500250
C55	C	-0.437736	-0.256585	-0.561599
C56	C	-0.405725	-0.293773	-0.593395
C57	C	-0.499096	-0.192842	-0.593635
C58	C	-0.528620	-0.158544	-0.564313
C59	C	-0.496787	-0.187988	-0.502959
C60	C	-0.722649	0.035493	-0.564543
C61	C	-0.786272	0.094345	-0.594071
C62	C	-0.818182	0.123861	-0.562238
C63	C	-0.887167	0.187669	-0.594249
C64	C	-0.786474	0.094536	-0.500878
C65	C	-0.722854	0.035690	-0.471354
C66	C	-0.690944	0.006168	-0.503186
C67	C	-0.435431	-0.251724	-0.277321
C68	C	-0.405908	-0.286027	-0.213695
C69	C	-0.437741	-0.256588	-0.181786
C70	C	-0.405731	-0.293774	-0.112801
C71	C	-0.499099	-0.192850	-0.213493
C72	C	-0.528625	-0.158547	-0.277116
C73	C	-0.496788	-0.187987	-0.309028
O74	O	0.090091	-0.453793	0.015309
O75	O	-0.090066	-0.348444	-0.015226
O76	O	0.015273	-0.453795	0.090120
O77	O	-0.015248	-0.348442	-0.090038
O78	O	0.015276	-0.368235	0.090127
O79	O	-0.090063	-0.262884	-0.015220
O80	O	0.090094	-0.368232	0.015315
Cu81	Cu	0.000016	-0.307746	0.000048
Cu82	Cu	0.000012	-0.408931	0.000041
O83	O	-0.015245	-0.262881	-0.090031
O84	O	-0.352917	0.074778	0.015314
O85	O	-0.278103	-0.074844	-0.015220
O86	O	-0.278107	-0.074853	0.090126
O87	O	-0.352914	0.074787	-0.090033
O88	O	-0.363674	-0.074850	0.090119
O89	O	-0.363670	-0.074840	-0.015227
O90	O	-0.438484	0.074782	0.015307
Cu91	Cu	-0.408890	-0.000029	0.000039
Cu92	Cu	-0.307697	-0.000033	0.000047
O93	O	-0.438481	0.074791	-0.090039
O94	O	-1.090075	0.358185	-0.636308
O95	O	-0.909918	0.208556	-0.561490
O96	O	-1.015259	0.208553	-0.561488
O97	O	-0.984734	0.358188	-0.636310
O98	O	-1.015257	0.208552	-0.647052
O99	O	-0.909916	0.208554	-0.647054
O100	O	-1.090073	0.358183	-0.721872
Cu101	Cu	-0.999994	0.283368	-0.692275
Cu102	Cu	-0.999997	0.283371	-0.591086
O103	O	-0.984732	0.358186	-0.721874
O104	O	-0.363672	-0.368217	-0.721856
O105	O	-0.438486	-0.262875	-0.647043
O106	O	-0.438485	-0.368220	-0.647039
O107	O	-0.363673	-0.262872	-0.721860
O108	O	-0.352919	-0.453785	-0.561473
O109	O	-0.352920	-0.348441	-0.561477
O110	O	-0.278106	-0.453783	-0.636290
Cu111	Cu	-0.307700	-0.408925	-0.591071
Cu112	Cu	-0.408892	-0.307733	-0.692262
O113	O	-0.278107	-0.348438	-0.636294
C114	C	-0.184157	-0.554680	0.277358
C115	C	-0.116295	-0.618172	0.309104
C116	C	-0.215402	-0.523869	0.308461
C117	C	-0.277317	-0.461519	0.184196
C118	C	-0.309064	-0.425404	0.116335
C119	C	-0.308422	-0.430850	0.215442
C120	C	-0.277317	-0.461519	0.277356
C121	C	-0.309064	-0.425404	0.309102
C122	C	-0.215403	-0.523869	0.215443
C123	C	0.022216	-0.461546	0.277378
C124	C	0.017847	-0.425434	0.309127
C125	C	0.022649	-0.523895	0.308480
C126	C	0.022218	-0.461539	0.184215
C127	C	0.017852	-0.425421	0.116353
C128	C	0.022651	-0.523888	0.215458
C129	C	0.022213	-0.554702	0.277373
C130	C	0.017842	-0.618193	0.309116
C131	C	0.022654	-0.430874	0.215464
C132	C	-0.277320	-0.255179	0.277365
C133	C	-0.309067	-0.291295	0.309105
C134	C	-0.215404	-0.285854	0.308471
C135	C	-0.277318	-0.162008	0.184211
C136	C	-0.309065	-0.098506	0.116351
C137	C	-0.215403	-0.192825	0.215459
C138	C	-0.184157	-0.255183	0.277372
C139	C	-0.116295	-0.291304	0.309120
C140	C	-0.308424	-0.192820	0.215452
C141	C	-0.036996	-0.057627	-0.471149
C142	C	-0.037431	-0.088434	-0.502256
C143	C	-0.037001	-0.150789	-0.377991
C144	C	-0.037436	-0.181455	-0.409239
C145	C	-0.036998	-0.150783	-0.471154
C146	C	-0.037433	-0.088440	-0.409234
C147	C	-0.029433	0.035497	-0.470902
C148	C	-0.024659	0.094348	-0.500225
C149	C	-0.022263	0.123866	-0.561574
C150	C	-0.017083	0.187673	-0.593369
C151	C	-0.024646	0.094544	-0.593611
C152	C	-0.029422	0.035698	-0.564291
C153	C	-0.031813	0.006175	-0.502936
C154	C	-0.029436	-0.158096	-0.564526
C155	C	-0.024665	-0.192189	-0.594055
C156	C	-0.022273	-0.255931	-0.562224
C157	C	-0.017096	-0.292903	-0.594236
C158	C	-0.024659	-0.285585	-0.500864
C159	C	-0.029433	-0.251492	-0.471338
C160	C	-0.031819	-0.187750	-0.503169
C161	C	-0.029443	-0.158113	-0.277301
C162	C	-0.024666	-0.192218	-0.213674
C163	C	-0.022275	-0.255960	-0.181767
C164	C	-0.017101	-0.292938	-0.112782
C165	C	-0.024655	-0.285608	-0.213475
C166	C	-0.029430	-0.251509	-0.277098
C167	C	-0.031824	-0.187761	-0.309009
O168	O	-0.015283	-0.348468	0.438547
O169	O	0.015263	-0.453813	0.363734
O170	O	-0.090086	-0.348466	0.363721
O171	O	0.090067	-0.453815	0.438560
O172	O	-0.090076	-0.262903	0.278160
O173	O	0.015274	-0.368250	0.278173
O174	O	-0.015273	-0.262904	0.352986
Cu175	Cu	0.000001	-0.307764	0.307767
Cu176	Cu	-0.000011	-0.408953	0.408953
O177	O	0.090077	-0.368251	0.352999
C178	C	-0.621954	0.434195	-0.471145
C179	C	-0.590708	0.464866	-0.502245
C180	C	-0.528793	0.341020	-0.377984
C181	C	-0.497688	0.371833	-0.409225
C182	C	-0.528792	0.434191	-0.471138
C183	C	-0.590709	0.371836	-0.409233
C184	C	-0.722643	0.441515	-0.470910
C185	C	-0.786267	0.475617	-0.500237
C186	C	-0.818176	0.539368	-0.561584
C187	C	-0.887162	0.576348	-0.593384
C188	C	-0.786467	0.569022	-0.593614
C189	C	-0.722846	0.534920	-0.564289
C190	C	-0.690937	0.471170	-0.502938
C191	C	-0.529033	0.535130	-0.564499
C192	C	-0.499707	0.569430	-0.594020
C193	C	-0.438357	0.539984	-0.562184
C194	C	-0.406558	0.577173	-0.594188
C195	C	-0.406323	0.476234	-0.500827
C196	C	-0.435646	0.441934	-0.471308
C197	C	-0.497001	0.471385	-0.503145
C198	C	-0.529036	0.247880	-0.277303
C199	C	-0.499713	0.189024	-0.213679
C200	C	-0.438364	0.159502	-0.181766
C201	C	-0.406566	0.095685	-0.112783
C202	C	-0.406331	0.188830	-0.213467
C203	C	-0.435651	0.247685	-0.277089
C204	C	-0.497003	0.277207	-0.309004
H205	H	-0.446821	-0.653998	0.038201
H206	H	0.023354	-0.380702	0.190382
H207	H	-0.190308	-0.549645	0.190353
C208	C	-0.022051	-0.159599	-0.178802
C209	C	0.031557	-0.150703	-0.173266
C210	C	0.034177	-0.118086	-0.138391
C211	C	-0.016812	-0.094364	-0.109052
C212	C	-0.070424	-0.103260	-0.114588
C213	C	-0.073043	-0.135877	-0.149463
H214	H	0.069305	-0.168263	-0.194986
H215	H	0.073864	-0.111501	-0.134294
H216	H	-0.014872	-0.070219	-0.083236
H217	H	-0.108172	-0.085699	-0.092868
H218	H	-0.112731	-0.142461	-0.153560
H219	H	0.023338	-0.549675	0.359349
C220	C	-0.687968	-0.628246	0.032143
C221	C	-0.629888	-0.698959	0.089711
C222	C	-0.595012	-0.769085	0.092352
C223	C	-0.618215	-0.768498	0.037427
C224	C	-0.676297	-0.697782	-0.020145
C225	C	-0.711174	-0.627656	-0.022787
H226	H	-0.612709	-0.699396	0.130374
H227	H	-0.552015	-0.821434	0.134971
H228	H	-0.592397	-0.820410	0.039382
H229	H	-0.693476	-0.697345	-0.060808
H230	H	-0.754170	-0.575307	-0.065405
H231	H	-0.615800	-0.062661	-0.384169
H232	H	-0.359295	-0.166998	-0.023320
H233	H	-0.409504	-0.275698	-0.303301
H234	H	-0.356381	-0.547775	0.022754
C235	C	-0.428964	0.336998	-0.375340
C236	C	-0.377139	0.309300	-0.402527
C237	C	-0.308418	0.274470	-0.368646
C238	C	-0.291522	0.267337	-0.307577
C239	C	-0.343347	0.295036	-0.280386
C240	C	-0.412069	0.329866	-0.314267
H241	H	-0.389646	0.314579	-0.447737
H242	H	-0.270053	0.253966	-0.388774
H243	H	-0.240650	0.241554	-0.282495
H244	H	-0.330841	0.289757	-0.235176
H245	H	-0.450433	0.350370	-0.294138
H246	H	-0.190318	-0.167005	-0.023309
H247	H	-0.578988	0.559109	-0.590430
H248	H	0.023361	-0.549675	0.190371
C249	C	-0.181505	-0.157995	0.181583
C250	C	-0.208679	-0.078988	0.157465
C251	C	-0.174779	-0.044164	0.123593
C252	C	-0.113707	-0.088347	0.113840
C253	C	-0.086530	-0.167359	0.137959
C254	C	-0.120429	-0.202183	0.171830
H255	H	-0.253892	-0.046277	0.164684
H256	H	-0.194898	0.014326	0.105738
H257	H	-0.088612	-0.062568	0.088766
H258	H	-0.041317	-0.200070	0.130739
H259	H	-0.100311	-0.260673	0.189685
C260	C	-0.534945	0.639552	-0.661509
C261	C	-0.597438	0.707597	-0.675933
C262	C	-0.632671	0.777719	-0.743424
C263	C	-0.605412	0.779796	-0.796490
C264	C	-0.542917	0.711747	-0.782067
C265	C	-0.507683	0.641626	-0.714577
H266	H	-0.617620	0.706062	-0.636650
H267	H	-0.678935	0.828093	-0.754100
H268	H	-0.631494	0.831704	-0.846450
H269	H	-0.522735	0.713282	-0.821351
H270	H	-0.461419	0.591252	-0.703901
C271	C	-0.181509	-0.353641	0.377193
C272	C	-0.171736	-0.424475	0.394078
C273	C	-0.137840	-0.492258	0.462796
C274	C	-0.113716	-0.489208	0.514630
C275	C	-0.123489	-0.418371	0.497747
C276	C	-0.157385	-0.350588	0.429028
H277	H	-0.189594	-0.426735	0.355706
H278	H	-0.130606	-0.544696	0.475294
H279	H	-0.088624	-0.539386	0.565499
H280	H	-0.105631	-0.416111	0.536118
H281	H	-0.164619	-0.298149	0.416530
C282	C	-0.377144	-0.157977	0.181546
C283	C	-0.394029	-0.202145	0.171758
C284	C	-0.462744	-0.167302	0.137847
C285	C	-0.514575	-0.088293	0.113723
C286	C	-0.497692	-0.044121	0.123510
C287	C	-0.428976	-0.078963	0.157422
H288	H	-0.355659	-0.260636	0.189616
H289	H	-0.475242	-0.200002	0.130601
H290	H	-0.565442	-0.062500	0.088619
H291	H	-0.536061	0.014371	0.105652
H292	H	-0.416479	-0.046263	0.164667
C293	C	-0.624591	-0.467424	0.038455
C294	C	-0.648714	-0.470482	0.093342
C295	C	-0.682590	-0.402712	0.094293
C296	C	-0.692342	-0.331883	0.040358
C297	C	-0.668218	-0.328822	-0.014533
C298	C	-0.634342	-0.396592	-0.015485
H299	H	-0.641495	-0.522916	0.133271
H300	H	-0.700448	-0.404978	0.134927
H301	H	-0.717419	-0.281715	0.041062
H302	H	-0.675437	-0.276388	-0.054463
H303	H	-0.616484	-0.394326	-0.056119
C304	C	-0.038385	-0.249231	-0.375359
C305	C	0.015556	-0.320074	-0.314295
C306	C	0.014607	-0.387847	-0.280420
C307	C	-0.040283	-0.384779	-0.307608
C308	C	-0.094228	-0.313934	-0.368675
C309	C	-0.093279	-0.246160	-0.402551
H310	H	0.056193	-0.322347	-0.294166
H311	H	0.054541	-0.440291	-0.235214
H312	H	-0.040985	-0.434949	-0.282532
H313	H	-0.134865	-0.311660	-0.388805
H314	H	-0.133213	-0.193716	-0.447757
C315	C	-0.624609	-0.053603	-0.571000
C316	C	-0.685683	-0.046465	-0.587889
C317	C	-0.719578	-0.011621	-0.656611
C318	C	-0.692399	0.016084	-0.708444
C319	C	-0.631322	0.008946	-0.691556
C320	C	-0.597427	-0.025897	-0.622834
H321	H	-0.705806	-0.066974	-0.549519
H322	H	-0.764792	-0.006337	-0.669112
H323	H	-0.717491	0.041877	-0.759315
H324	H	-0.611200	0.029456	-0.729926
H325	H	-0.552213	-0.031181	-0.610333
H326	H	-0.578992	-0.440963	0.031461
H327	H	-0.190315	-0.549659	0.359334
H328	H	-0.190320	-0.335979	-0.023316
H329	H	-0.038131	-0.062642	-0.553128
H330	H	-0.615797	-0.654004	0.038210
C331	C	-0.338842	-0.843667	0.022093
C332	C	-0.284406	-0.875555	0.077020
C333	C	-0.216918	-0.908020	0.074385
C334	C	-0.203867	-0.908597	0.016823
C335	C	-0.258305	-0.876708	-0.038108
C336	C	-0.325792	-0.844243	-0.035473
H337	H	-0.294066	-0.875128	0.119635
H338	H	-0.176620	-0.931626	0.115049
H339	H	-0.153909	-0.932630	0.014872
H340	H	-0.248645	-0.877134	-0.080723
H341	H	-0.366090	-0.820636	-0.076137
C342	C	-0.038384	-0.053615	-0.375335
C343	C	0.015557	-0.046497	-0.365549
C344	C	0.014604	-0.011677	-0.331646
C345	C	-0.040290	0.016024	-0.307530
C346	C	-0.094235	0.008906	-0.317315
C347	C	-0.093282	-0.025913	-0.351218
H348	H	0.056197	-0.067004	-0.383402
H349	H	0.054539	-0.006409	-0.324402
H350	H	-0.040995	0.041799	-0.282433
H351	H	-0.134874	0.029413	-0.299462
H352	H	-0.133216	-0.031182	-0.358461
H353	H	-0.031396	-0.106204	-0.303280
C354	C	-0.534952	-0.360523	0.022107
C355	C	-0.557546	-0.361133	0.077050
C356	C	-0.592783	-0.291020	0.074429
C357	C	-0.605427	-0.220296	0.016865
C358	C	-0.582833	-0.219683	-0.038081
C359	C	-0.547596	-0.289796	-0.035461
H360	H	-0.548186	-0.413490	0.119665
H361	H	-0.609508	-0.291474	0.115104
H362	H	-0.631511	-0.168394	0.014925
H363	H	-0.592193	-0.167327	-0.080697
H364	H	-0.530871	-0.289342	-0.076136
C365	C	-0.338420	-0.356142	-0.178824
C366	C	-0.284082	-0.355546	-0.202026
C367	C	-0.216596	-0.425670	-0.167152
C368	C	-0.203446	-0.496390	-0.109077
C369	C	-0.257785	-0.496988	-0.085872
C370	C	-0.325272	-0.426864	-0.120746
H371	H	-0.293815	-0.303193	-0.245020
H372	H	-0.176371	-0.425227	-0.184330
H373	H	-0.153489	-0.548300	-0.083261
H374	H	-0.248052	-0.549341	-0.042878
H375	H	-0.365497	-0.427308	-0.103567
H376	H	-0.696663	-0.440962	0.031460
C377	C	-0.428963	-0.249222	-0.375358
C378	C	-0.377147	-0.246134	-0.402548
C379	C	-0.308413	-0.313879	-0.368649
C380	C	-0.291494	-0.384713	-0.307561
C381	C	-0.343312	-0.387803	-0.280367
C382	C	-0.412046	-0.320058	-0.314266
H383	H	-0.389670	-0.193696	-0.447773
H384	H	-0.270054	-0.311591	-0.388780
H385	H	-0.240613	-0.434862	-0.282467
H386	H	-0.330789	-0.440241	-0.235143
H387	H	-0.450405	-0.322346	-0.294136
H388	H	-0.812075	-0.378744	0.022800
H389	H	-0.031386	0.011466	-0.420946
H390	H	-0.525801	-0.834882	0.022808
H391	H	-0.409562	0.390028	-0.421351
H392	H	-0.022720	0.118216	-0.474136
H393	H	-0.022694	0.118587	-0.643568
H394	H	-0.812456	-0.547794	0.022786
C395	C	-0.032043	0.003439	-0.599522
C396	C	0.022896	-0.028296	-0.622121
C397	C	0.020277	-0.060558	-0.657351
C398	C	-0.037280	-0.061086	-0.669983
C399	C	-0.092223	-0.029350	-0.647384
C400	C	-0.089604	0.002913	-0.612154
H401	H	0.065507	-0.027907	-0.612770
H402	H	0.060950	-0.084051	-0.674080
H403	H	-0.039219	-0.084968	-0.696063
H404	H	-0.134834	-0.029739	-0.656735
H405	H	-0.130277	0.026406	-0.595425
H406	H	-0.578993	-0.728129	0.031465
H407	H	-0.031381	-0.106192	-0.590450
C408	C	-0.022039	-0.159570	-0.661546
C409	C	-0.076969	-0.082024	-0.715880
C410	C	-0.074343	-0.049410	-0.783372
C411	C	-0.016789	-0.094342	-0.796530
C412	C	0.038144	-0.171893	-0.742195
C413	C	0.035519	-0.204507	-0.674703
H414	H	-0.119577	-0.048759	-0.706141
H415	H	-0.115009	0.007998	-0.823594
H416	H	-0.014846	-0.070199	-0.846492
H417	H	0.080753	-0.205158	-0.751934
H418	H	0.076185	-0.261915	-0.634480
C419	C	-0.022026	-0.355709	-0.465847
C420	C	0.035534	-0.426324	-0.453373
C421	C	0.038165	-0.496445	-0.418354
C422	C	-0.016764	-0.495951	-0.395809
C423	C	-0.074329	-0.425334	-0.408283
C424	C	-0.076960	-0.355213	-0.443302
H425	H	0.076200	-0.426691	-0.470062
H426	H	0.080778	-0.548720	-0.409120
H427	H	-0.014817	-0.547859	-0.369886
H428	H	-0.114995	-0.424967	-0.391594
H429	H	-0.119573	-0.302938	-0.452536
C430	C	-0.400422	-0.720090	0.032124
C431	C	-0.337924	-0.768155	0.085738
C432	C	-0.302696	-0.735892	0.088359
C433	C	-0.329965	-0.655563	0.037367
C434	C	-0.392466	-0.607492	-0.016251
C435	C	-0.427695	-0.639756	-0.018872
H436	H	-0.317735	-0.827624	0.123489
H437	H	-0.256428	-0.771477	0.128051
H438	H	-0.303887	-0.631679	0.039307
H439	H	-0.412656	-0.548024	-0.054002
H440	H	-0.473963	-0.604171	-0.058564
C441	C	-0.022024	-0.355731	-0.178378
C442	C	0.035531	-0.426347	-0.120232
C443	C	0.038160	-0.496467	-0.085134
C444	C	-0.016768	-0.495970	-0.108181
C445	C	-0.074328	-0.425351	-0.166330
C446	C	-0.076956	-0.355231	-0.201428
H447	H	0.076196	-0.426718	-0.103169
H448	H	0.080770	-0.548744	-0.042089
H449	H	-0.014822	-0.547876	-0.082199
H450	H	-0.114992	-0.424980	-0.183393
H451	H	-0.119566	-0.302954	-0.244473
H452	H	-0.031379	-0.275635	-0.421380
H453	H	-0.697037	0.011820	-0.421397
H454	H	-0.359291	-0.380672	0.190350
C455	C	-0.534123	-0.160460	-0.178394
C456	C	-0.596572	-0.151634	-0.172678
C457	C	-0.631592	-0.119245	-0.137579
C458	C	-0.604163	-0.095682	-0.108195
C459	C	-0.541711	-0.104507	-0.113910
C460	C	-0.506690	-0.136896	-0.149010
H461	H	-0.616879	-0.169078	-0.194431
H462	H	-0.677823	-0.112713	-0.133349
H463	H	-0.630087	-0.071706	-0.082213
H464	H	-0.521403	-0.087063	-0.092158
H465	H	-0.460459	-0.143429	-0.153240
C466	C	-0.338414	-0.356138	-0.465013
C467	C	-0.284082	-0.355538	-0.442402
C468	C	-0.216590	-0.425652	-0.407169
C469	C	-0.203429	-0.496366	-0.394547
C470	C	-0.257762	-0.496969	-0.417158
C471	C	-0.325254	-0.426854	-0.452392
H472	H	-0.293823	-0.303189	-0.451745
H473	H	-0.176369	-0.425206	-0.390430
H474	H	-0.153467	-0.548269	-0.368465
H475	H	-0.248021	-0.549318	-0.407815
H476	H	-0.365475	-0.427301	-0.469131
H477	H	-0.031366	-0.275654	-0.302914
H478	H	-0.615794	0.515041	-0.553117
C479	C	-0.534115	-0.160460	-0.661123
C480	C	-0.546587	-0.205551	-0.674170
C481	C	-0.581610	-0.173165	-0.741657
C482	C	-0.604160	-0.095688	-0.796097
C483	C	-0.591688	-0.050593	-0.783051
C484	C	-0.556666	-0.082979	-0.715564
H485	H	-0.529894	-0.262908	-0.633869
H486	H	-0.590842	-0.206549	-0.751315
H487	H	-0.630085	-0.071715	-0.846055
H488	H	-0.608382	0.006764	-0.823352
H489	H	-0.547434	-0.049595	-0.705907
H490	H	-0.615803	0.346061	-0.384148
H491	H	-0.525799	0.165148	-0.187874
C492	C	-0.596526	0.280357	-0.312406
C493	C	-0.611079	0.232462	-0.318132
C494	C	-0.678573	0.264944	-0.353232
C495	C	-0.731513	0.345322	-0.382607
C496	C	-0.716961	0.393221	-0.376883
C497	C	-0.649468	0.360739	-0.341782
H498	H	-0.571888	0.172957	-0.296386
H499	H	-0.689345	0.229486	-0.357470
H500	H	-0.781476	0.369367	-0.408591
H501	H	-0.756152	0.452726	-0.398629
H502	H	-0.638696	0.396198	-0.337545
H503	H	-0.409573	-0.610008	0.031424
C504	C	-0.821147	0.126597	-0.661562
C505	C	-0.826699	0.078530	-0.675989
C506	C	-0.861579	0.110788	-0.743481
C507	C	-0.890907	0.191113	-0.796547
C508	C	-0.885355	0.239184	-0.782122
C509	C	-0.850475	0.206926	-0.714629
H510	H	-0.804988	0.019065	-0.636705
H511	H	-0.865689	0.075202	-0.754159
H512	H	-0.916727	0.214992	-0.846508
H513	H	-0.907066	0.298650	-0.821405
H514	H	-0.846366	0.242513	-0.703951
H515	H	-0.696664	0.389604	-0.420956
H516	H	-0.409504	-0.275702	-0.420969
H517	H	-0.578576	-0.106639	-0.590401
C518	C	-0.821145	0.443002	-0.465007
C519	C	-0.850471	0.419274	-0.492278
C520	C	-0.885352	0.386658	-0.457050
C521	C	-0.890907	0.377770	-0.394552
C522	C	-0.861579	0.401498	-0.367278
C523	C	-0.826699	0.434114	-0.402506
H524	H	-0.846360	0.425853	-0.538546
H525	H	-0.907062	0.369092	-0.477241
H526	H	-0.916727	0.353625	-0.368474
H527	H	-0.865690	0.394919	-0.321010
H528	H	-0.804989	0.451680	-0.382315
H529	H	-0.696669	0.011463	-0.590469
H530	H	-0.812458	0.620936	-0.643570
H531	H	-0.812465	0.118579	-0.474963
H532	H	-0.697029	0.559063	-0.590371
H533	H	-0.578585	-0.106649	-0.302931
H534	H	-0.356363	0.452259	-0.474909
H535	H	-0.409566	0.271563	-0.302898
H536	H	-0.356374	0.164792	-0.187477
