data_functionalizedCrystal
_audit_creation_method	'MofGen! by Chris Wilmer'
_symmetry_space_group_name_H-M	'P1'
_symmetry_Int_Tables_number	1
_symmetry_cell_setting	triclinic
loop_
_symmetry_equiv_pos_as_xyz
  x,y,z
_cell_length_a	10.654562
_cell_length_b	10.654551
_cell_length_c	9.130313
_cell_angle_alpha	90.001552
_cell_angle_beta	89.996930
_cell_angle_gamma	84.487733
loop_
_atom_site_label
_atom_site_type_symbol
_atom_site_fract_x
_atom_site_fract_y
_atom_site_fract_z
O1	O	1.667825	0.176469	-0.121886
O2	O	1.302349	0.193258	-0.121867
O3	O	1.493490	0.002125	-0.121877
O4	O	1.476685	0.367602	-0.121875
O5	O	1.493487	0.002130	0.121721
O6	O	1.302347	0.193264	0.121732
O7	O	1.667823	0.176474	0.121713
Cu8	Cu	1.485085	0.184869	0.143965
Cu9	Cu	1.485087	0.184863	-0.144119
O10	O	1.476683	0.367608	0.121724
C11	C	1.255550	0.192025	-0.000065
C12	C	1.116108	0.188327	-0.000058
C13	C	1.050576	0.186604	0.132716
C14	C	0.919553	0.183140	0.132692
C15	C	0.919606	0.183125	-0.132893
C16	C	1.050627	0.186580	-0.132867
C17	C	1.116056	0.188351	0.265525
C18	C	1.050524	0.186630	0.398310
C19	C	0.919502	0.183165	0.398286
C20	C	0.854012	0.181421	0.265476
C21	C	1.492254	-0.044670	-0.000081
C22	C	1.488562	-0.184114	-0.000091
C23	C	1.486831	-0.249629	-0.132874
C24	C	1.483351	-0.380649	-0.132867
C25	C	1.483338	-0.380629	0.132718
C26	C	1.486809	-0.249610	0.132709
C27	C	1.488584	-0.184133	-0.265674
C28	C	1.486854	-0.249648	-0.398468
C29	C	1.483374	-0.380668	-0.398461
C30	C	1.481623	-0.446174	-0.265660
C31	C	1.714622	0.177708	-0.000092
C32	C	1.854064	0.181406	-0.000108
C33	C	1.477918	0.414403	-0.000076
C34	C	1.481610	0.553846	-0.000075
N35	N	1.485092	0.184873	0.346588
N36	N	1.485090	0.184850	-0.346741
C37	C	1.569751	0.100268	0.423235
C38	C	1.569747	0.100253	0.576572
C39	C	1.400422	0.269459	0.576601
C40	C	1.400420	0.269467	0.423267
C41	C	1.654422	0.015674	0.346556
C42	C	1.739089	-0.068937	0.423203
C43	C	1.739086	-0.068952	0.576540
C44	C	1.654415	0.015644	0.653230
H45	H	1.103856	0.188041	0.506439
H46	H	1.488268	-0.196303	-0.506589
H47	H	1.222741	0.191176	0.265560
H48	H	1.481953	-0.434006	-0.506588
N49	N	1.492327	-0.042819	-0.265698
H50	H	1.415443	-0.001752	-0.213570
H51	H	1.570924	-0.020860	-0.213591
N52	N	1.309117	0.360725	0.340589
H53	H	1.321963	0.347888	0.231818
H54	H	1.219902	0.345379	0.367395
N55	N	0.848819	0.181292	0.541493
H56	H	0.910186	0.182922	0.625625
H57	H	0.784960	0.257574	0.547265
H58	H	1.654411	0.015616	0.778087
N59	N	1.477852	-0.587487	-0.265648
H60	H	1.477015	-0.619053	-0.369917
H61	H	1.554734	-0.628452	-0.213446
N62	N	0.712697	0.177666	0.265445
H63	H	0.681117	0.176833	0.369710
H64	H	0.671747	0.254551	0.213235
N65	N	1.121320	0.188432	-0.276069
H66	H	1.059958	0.186811	-0.360207
H67	H	1.166194	0.267583	-0.281844
H68	H	1.481913	-0.433974	0.240838
N69	N	1.488668	-0.178935	0.275921
H70	H	1.487040	-0.240306	0.360051
H71	H	1.567825	-0.134071	0.281701
N72	N	1.654417	0.015697	0.181174
H73	H	1.739898	0.034778	0.144238
H74	H	1.635363	-0.069820	0.144340
H75	H	1.331488	0.338334	0.639051
H76	H	0.866273	0.181708	-0.241020
H77	H	1.808018	-0.137819	0.360755
N78	N	1.830408	-0.160193	0.659214
H79	H	1.884049	-0.213771	0.587367
H80	H	1.886331	-0.111571	0.722825
