data_functionalizedCrystal
_audit_creation_method	'MofGen! by Chris Wilmer'
_symmetry_space_group_name_H-M	'P1'
_symmetry_Int_Tables_number	1
_symmetry_cell_setting	triclinic
loop_
_symmetry_equiv_pos_as_xyz
  x,y,z
_cell_length_a	11.792241
_cell_length_b	15.944493
_cell_length_c	10.268362
_cell_angle_alpha	90.000590
_cell_angle_beta	89.999626
_cell_angle_gamma	83.834229
loop_
_atom_site_label
_atom_site_type_symbol
_atom_site_fract_x
_atom_site_fract_y
_atom_site_fract_z
O1	O	1.505928	0.115131	-0.108156
O2	O	2.005928	0.615131	0.391844
O3	O	1.175486	0.126997	-0.108184
O4	O	1.675486	0.626997	0.391816
O5	O	1.349765	-0.001173	-0.108180
O6	O	1.849765	0.498827	0.391820
O7	O	1.331649	0.243301	-0.108160
O8	O	1.831649	0.743301	0.391840
O9	O	1.349750	-0.001179	0.108421
O10	O	1.849750	0.498821	0.608421
O11	O	1.175471	0.126991	0.108417
O12	O	1.675471	0.626991	0.608417
O13	O	1.505913	0.115126	0.108445
O14	O	2.005913	0.615126	0.608445
Cu15	Cu	1.340690	0.121058	0.128208
Cu16	Cu	1.840690	0.621058	0.628208
Cu17	Cu	1.340708	0.121064	-0.127947
Cu18	Cu	1.840708	0.621064	0.372053
O19	O	1.331634	0.243296	0.108441
O20	O	1.831634	0.743296	0.608441
C21	C	1.133194	0.126249	0.000112
C22	C	1.633194	0.626249	0.500112
C23	C	1.007199	0.124018	0.000101
C24	C	1.507199	0.624018	0.500101
C25	C	0.776522	0.119916	0.000138
C26	C	1.276522	0.619916	0.500138
C27	C	0.904887	0.122195	0.000117
C28	C	1.404887	0.622195	0.500117
C29	C	1.349017	-0.032474	0.000115
C30	C	1.849017	0.467526	0.500115
C31	C	1.346797	-0.125733	0.000098
C32	C	1.846797	0.374267	0.500098
C33	C	1.449381	-0.361030	0.000132
C34	C	1.949381	0.138970	0.500132
C35	C	1.394069	-0.411845	-0.106668
C36	C	1.894069	0.088155	0.393332
C37	C	1.342684	-0.296472	0.000114
C38	C	1.842684	0.203528	0.500114
C39	C	1.394029	-0.411826	0.106883
C40	C	1.894029	0.088174	0.606883
C41	C	1.338719	-0.461400	0.000135
C42	C	1.838719	0.038600	0.500135
C43	C	1.287400	-0.346059	-0.106774
C44	C	1.787400	0.153941	0.393226
C45	C	1.287376	-0.346037	0.106873
C46	C	1.787376	0.153963	0.606873
C47	C	1.231985	-0.396820	0.000048
C48	C	1.731985	0.103180	0.500048
C49	C	1.344971	-0.201462	0.000101
C50	C	1.844971	0.298538	0.500101
C51	C	1.336423	-0.556407	0.000138
C52	C	1.836423	-0.056407	0.500138
C53	C	1.548205	0.115874	0.000146
C54	C	2.048205	0.615874	0.500146
C55	C	1.674200	0.118105	0.000149
C56	C	2.174200	0.618105	0.500149
C57	C	1.332382	0.274597	0.000143
C58	C	1.832382	0.774597	0.500143
C59	C	1.334602	0.367855	0.000152
C60	C	1.834602	0.867855	0.500152
N61	N	1.340686	0.121053	0.308374
N62	N	1.840686	0.621053	0.808374
N63	N	1.340721	0.121063	-0.308113
N64	N	1.840721	0.621063	0.191887
C65	C	1.340702	0.121063	0.574045
C66	C	1.840702	0.621063	1.074045
C67	C	1.340690	0.121060	0.426207
C68	C	1.840690	0.621060	0.926207
H69	H	1.439135	-0.440585	-0.196952
H70	H	1.939135	0.059415	0.303048
O71	O	1.122327	-0.415921	0.000032
O72	O	1.622327	0.084079	0.500032
C73	C	1.121395	-0.504269	0.001068
C74	C	1.621395	-0.004269	0.501068
H75	H	1.205365	-0.535046	0.042689
H76	H	1.705365	-0.035046	0.542689
H77	H	1.047683	-0.521525	0.063954
H78	H	1.547683	-0.021525	0.563954
H79	H	1.110384	-0.527679	-0.102598
H80	H	1.610384	-0.027679	0.397402
O81	O	1.233784	-0.311793	-0.214582
O82	O	1.733784	0.188207	0.285418
C83	C	1.236583	-0.223616	-0.213305
C84	C	1.736583	0.276384	0.286695
H85	H	1.310537	-0.207299	-0.149995
H86	H	1.810537	0.292701	0.350005
H87	H	1.248504	-0.200305	-0.316850
H88	H	1.748504	0.299695	0.183150
H89	H	1.152974	-0.191941	-0.172040
H90	H	1.652974	0.308059	0.327960
O91	O	1.233823	-0.311779	0.214716
O92	O	1.733823	0.188221	0.714716
C93	C	1.290369	-0.345460	0.327103
C94	C	1.790369	0.154540	0.827103
H95	H	1.382154	-0.369651	0.301524
H96	H	1.882154	0.130349	0.801524
H97	H	1.290035	-0.294237	0.404601
H98	H	1.790035	0.205763	0.904601
H99	H	1.244643	-0.399727	0.366066
H100	H	1.744643	0.100273	0.866066
O101	O	1.559068	-0.341987	0.000163
O102	O	2.059068	0.158013	0.500163
C103	C	1.615702	-0.376905	0.111703
C104	C	2.115702	0.123095	0.611703
H105	H	1.570520	-0.432006	0.148566
H106	H	2.070520	0.067994	0.648566
H107	H	1.707721	-0.400224	0.085829
H108	H	2.207721	0.099776	0.585829
H109	H	1.614663	-0.326722	0.190907
H110	H	2.114663	0.173278	0.690907
O111	O	1.447955	-0.446153	0.214465
O112	O	1.947955	0.053847	0.714465
C113	C	1.540187	-0.504577	0.176137
C114	C	2.040187	-0.004577	0.676137
H115	H	1.567981	-0.488943	0.073420
H116	H	2.067981	0.011057	0.573420
H117	H	1.614464	-0.501057	0.246277
H118	H	2.114464	-0.001057	0.746277
H119	H	1.512701	-0.570970	0.177721
H120	H	2.012701	-0.070970	0.677721
