data_functionalizedCrystal
_audit_creation_method	'MofGen! by Chris Wilmer'
_symmetry_space_group_name_H-M	'P1'
_symmetry_Int_Tables_number	1
_symmetry_cell_setting	triclinic
loop_
_symmetry_equiv_pos_as_xyz
  x,y,z
_cell_length_a	19.902436
_cell_length_b	14.446369
_cell_length_c	14.446369
_cell_angle_alpha	59.996622
_cell_angle_beta	59.998044
_cell_angle_gamma	90.002772
loop_
_atom_site_label
_atom_site_type_symbol
_atom_site_fract_x
_atom_site_fract_y
_atom_site_fract_z
Zr1	Zr	0.647322	-0.121454	1.013143
O2	O	0.540026	-0.269284	1.206288
O3	O	0.680214	-0.076130	0.820016
O4	O	0.680207	-0.269260	1.013146
O5	O	0.540038	0.076182	1.013150
O6	O	0.790786	-0.269247	1.013128
O7	O	0.540032	-0.076155	1.013158
O8	O	0.790797	0.076226	0.667654
O9	O	0.540027	-0.269291	1.358624
O10	O	0.776766	-0.056798	0.899432
O11	O	0.694247	0.056880	0.899439
O12	O	0.694240	-0.170505	1.126825
O13	O	0.611720	-0.056827	1.126832
Zr14	Zr	0.823692	0.121526	1.013101
Zr15	Zr	0.823683	-0.121434	1.013115
Zr16	Zr	0.647332	0.121506	1.013130
Zr17	Zr	0.647324	-0.121465	1.256101
Zr18	Zr	0.823691	0.121537	0.770143
O19	O	0.790801	0.076202	1.206228
O20	O	0.790788	-0.269256	1.206247
O21	O	0.540039	0.076174	1.206269
O22	O	0.930989	0.269356	0.819957
O23	O	0.930976	-0.076102	0.819976
O24	O	0.680227	0.269328	0.819997
O25	O	0.930977	-0.076111	1.013095
O26	O	0.790807	0.269331	1.013099
O27	O	0.680228	0.269319	1.013117
O28	O	0.930983	0.076226	1.013086
O29	O	0.680210	-0.269276	1.358601
O30	O	0.790805	0.269347	0.667644
O31	O	0.930988	0.269363	0.667621
O32	O	0.930980	0.076242	0.667631
O33	O	0.540034	-0.076170	1.358613
O34	O	0.680217	-0.076155	1.358590
O35	O	0.776775	0.170577	0.899420
O36	O	0.859294	0.056899	0.899413
O37	O	0.776768	-0.056809	1.126805
O38	O	0.694248	0.056870	1.126812
C39	C	0.514907	0.000011	1.013158
C40	C	0.440038	0.000003	1.013170
C41	C	0.735505	0.000050	0.709219
C42	C	0.735505	0.000054	0.606077
C43	C	0.735519	0.303942	1.013106
C44	C	0.735523	0.407085	1.013100
C45	C	0.168036	0.000047	1.013106
C46	C	0.144467	-0.071338	1.156549
C47	C	0.222305	-0.071735	1.156639
C48	C	0.302979	0.000025	1.013139
C49	C	0.300565	-0.052270	0.941907
C50	C	0.222337	-0.052798	0.942824
C51	C	0.223332	0.123759	0.939868
C52	C	0.300253	0.123569	0.942564
C53	C	0.379246	0.000013	1.013150
C54	C	0.091771	0.000054	1.013091
C55	C	0.956107	0.000061	1.013086
C56	C	1.030977	0.000069	1.013074
C57	C	0.735496	-0.303870	1.013139
C58	C	0.735492	-0.407013	1.013145
C59	C	0.787303	0.625466	0.869699
C60	C	0.787599	0.518234	0.869602
C61	C	0.773486	0.410417	1.084325
C62	C	0.773860	0.518186	1.083415
C63	C	0.645698	0.516792	1.086389
C64	C	0.645845	0.410823	1.083687
C65	C	0.683709	0.072080	0.459072
C66	C	0.683427	0.071789	0.566692
C67	C	0.697531	-0.123491	0.655086
C68	C	0.697142	-0.123117	0.547853
C69	C	0.825310	0.050512	0.372602
C70	C	0.825178	0.053033	0.478752
C71	C	0.735509	0.000022	1.317026
C72	C	0.735510	0.000017	1.420168
C73	C	0.956105	0.000074	0.709183
C74	C	1.030974	0.000088	0.606029
C75	C	0.735517	0.303956	0.709202
C76	C	0.735520	0.407103	0.606055
C77	C	0.956117	0.303981	0.709166
C78	C	1.030990	0.407137	0.606007
C79	C	0.514897	-0.303909	1.317078
C80	C	0.440025	-0.407065	1.420238
C81	C	0.514909	-0.000003	1.317061
C82	C	0.440040	-0.000016	1.420216
C83	C	0.735497	-0.303884	1.317042
C84	C	0.735494	-0.407032	1.420190
C85	C	1.023055	-0.059265	0.557597
C86	C	1.093395	-0.059275	0.460686
C87	C	1.171655	0.000074	0.412202
C88	C	1.179573	0.059428	0.460644
C89	C	1.109233	0.059432	0.557560
C90	C	1.109233	0.396241	0.557558
C91	C	1.179591	0.493158	0.460642
C92	C	1.171704	0.600969	0.412170
C93	C	1.093453	0.611863	0.460628
C94	C	1.023097	0.514947	0.557549
C95	C	0.361782	-0.396169	1.468698
C96	C	0.291424	-0.493086	1.565645
C97	C	0.299311	-0.600897	1.614122
C98	C	0.377562	-0.611791	1.565658
C99	C	0.447918	-0.514875	1.468720
C100	C	0.447960	0.059326	1.468658
C101	C	0.377619	0.059310	1.565595
C102	C	0.299360	-0.000043	1.614083
C103	C	0.291442	-0.059393	1.565636
C104	C	0.361782	-0.059382	1.468707
C105	C	0.683223	0.482091	0.459740
C106	C	0.683441	0.374752	0.566673
C107	C	0.825193	0.481677	0.479179
C108	C	0.824915	0.588547	0.371792
C109	C	0.698898	0.590111	0.546785
C110	C	0.697074	0.481428	0.655267
H111	H	0.105302	-0.036441	1.212848
H112	H	1.243301	0.107748	0.421154
O113	O	0.220754	-0.025286	1.230678
H114	H	0.275831	0.051190	1.164569
H115	H	0.104552	-0.162047	1.212577
H116	H	0.709046	0.163281	0.370195
O117	O	1.117752	0.279966	0.609831
H118	H	1.087750	0.232967	0.716746
H119	H	0.864087	-0.001726	0.346623
O120	O	0.725929	0.306697	1.224061
H121	H	0.661051	0.303390	1.277574
H122	H	0.865859	0.508913	0.501418
O123	O	0.223419	-0.705420	1.718675
H124	H	0.242041	-0.782225	1.744257
H125	H	0.617861	0.037365	0.494847
H126	H	0.853143	0.680460	0.813669
O127	O	0.716588	0.480713	0.340969
H128	H	0.713486	0.555652	0.266674
O129	O	1.084952	0.728148	0.408337
H130	H	1.050797	0.738005	0.364185
H131	H	0.617189	0.036782	0.655505
H132	H	0.187021	0.167444	0.985766
O133	O	0.532361	0.123331	1.416398
H134	H	0.539521	0.214542	1.372262
H135	H	0.299877	0.162636	0.994501
H136	H	0.220527	-0.162991	1.212872
H137	H	0.185791	-0.143833	0.993450
O138	O	0.609612	-0.176660	0.601774
H139	H	0.608466	-0.176932	0.525878
H140	H	0.732435	-0.179727	0.525882
H141	H	0.838938	0.408298	1.034839
H142	H	0.242091	-0.000042	1.693009
O143	O	0.590415	0.305959	1.222368
H144	H	0.538525	0.260876	1.234201
O145	O	0.864322	0.413337	0.428081
H146	H	0.820069	0.326278	0.492814
O147	O	0.207030	-0.481325	1.617900
H148	H	0.172912	-0.522658	1.599328
H149	H	0.243250	0.177198	0.834200
O150	O	0.207032	-0.123408	1.617938
H151	H	0.159458	-0.113428	1.693466
O152	O	0.386064	-0.728076	1.617939
H153	H	0.323991	-0.793626	1.693473
H154	H	0.853547	0.144050	0.439142
O155	O	0.612753	0.595542	0.599224
H156	H	0.569284	0.518363	0.700292
H157	H	0.511625	-0.523760	1.429264
O158	O	0.386176	0.123344	1.617814
H159	H	0.324121	0.113365	1.693372
O160	O	0.753743	0.696923	0.795123
H161	H	0.699782	0.710065	0.859490
O162	O	0.608268	0.411502	1.014908
H163	H	0.551945	0.336081	1.084430
O164	O	0.353236	-0.123378	1.416449
H165	H	0.286998	-0.164637	1.466447
H166	H	0.302113	-0.142439	0.991384
O167	O	1.084839	-0.123295	0.408453
H168	H	1.146893	-0.113349	0.332929
H169	H	0.762139	0.519846	0.813717
O170	O	0.595975	0.302812	0.685033
H171	H	0.553140	0.344553	0.666235
O172	O	0.595546	0.479008	0.509002
H173	H	0.588313	0.556538	0.505784
O174	O	1.247594	0.705493	0.307614
H175	H	1.247569	0.756674	0.344790
H176	H	0.708854	0.320967	0.529206
H177	H	1.115693	0.107770	0.596981
H178	H	0.854246	0.588280	0.281034
O179	O	0.879358	0.692656	0.332070
H180	H	0.905773	0.666518	0.389568
H181	H	0.632083	-0.164190	0.747406
H182	H	1.228923	0.000063	0.333286
O183	O	1.263984	0.481397	0.408371
H184	H	1.257641	0.390145	0.458346
O185	O	0.353263	-0.279894	1.416420
H186	H	0.383267	-0.232891	1.434991
H187	H	0.631012	0.429994	0.745776
H188	H	0.731215	0.506954	0.687386
H189	H	0.613983	0.566807	1.040495
O190	O	0.938709	0.526716	0.609767
H191	H	0.931556	0.573787	0.653900
H192	H	0.357380	-0.002777	0.836395
O193	O	0.247959	0.011600	0.803425
H194	H	0.224961	0.084562	0.781439
O195	O	0.376357	0.199959	0.803875
H196	H	0.417493	0.150842	0.782986
O197	O	0.594310	0.480441	1.226357
H198	H	0.632487	0.516432	1.243736
O199	O	0.749119	0.693714	0.513968
H200	H	0.747649	0.771129	0.439838
O201	O	0.875339	0.521467	0.795134
H202	H	0.917723	0.599712	0.759058
O203	O	0.717158	0.192292	0.518072
H204	H	0.678135	0.240825	0.494916
O205	O	0.861383	0.584913	1.016334
H206	H	0.903044	0.540058	0.984844
H207	H	0.738558	0.491524	1.188659
H208	H	0.959338	-0.107608	0.597071
O209	O	0.745089	-0.197708	0.693244
H210	H	0.796416	-0.147204	0.677649
H211	H	0.867026	0.006006	0.500250
O212	O	0.867324	0.169192	0.248456
H213	H	0.824664	0.193512	0.219271
