data_functionalizedCrystal
_audit_creation_method	'MofGen! by Chris Wilmer'
_symmetry_space_group_name_H-M	'P1'
_symmetry_Int_Tables_number	1
_symmetry_cell_setting	triclinic
loop_
_symmetry_equiv_pos_as_xyz
  x,y,z
_cell_length_a	19.121424
_cell_length_b	19.121063
_cell_length_c	12.759393
_cell_angle_alpha	87.597083
_cell_angle_beta	87.588001
_cell_angle_gamma	94.804615
loop_
_atom_site_label
_atom_site_type_symbol
_atom_site_fract_x
_atom_site_fract_y
_atom_site_fract_z
Zn1	Zn	1.063725	-0.234159	0.541317
Zn2	Zn	1.563725	0.265841	1.041317
Zn3	Zn	1.058607	-0.351846	0.373451
Zn4	Zn	1.558607	0.148154	0.873451
Zn5	Zn	0.946055	-0.239219	0.373453
Zn6	Zn	1.446055	0.260781	0.873453
Zn7	Zn	0.941005	-0.356812	0.556879
Zn8	Zn	1.441005	0.143188	1.056879
O9	O	1.002348	-0.295509	0.461275
O10	O	1.502348	0.204491	0.961275
O11	O	1.161508	-0.245574	0.512537
O12	O	1.661508	0.254426	1.012537
O13	O	1.043649	-0.336945	0.226435
O14	O	1.543649	0.163055	0.726435
O15	O	0.965920	-0.140082	0.389208
O16	O	1.465920	0.359918	0.889208
O17	O	1.157748	-0.332038	0.389206
O18	O	1.657748	0.167962	0.889206
O19	O	1.052371	-0.136364	0.512538
O20	O	1.552371	0.363636	1.012538
O21	O	0.960957	-0.254198	0.226436
O22	O	1.460957	0.245802	0.726436
O23	O	0.846923	-0.259014	0.404298
O24	O	1.346923	0.240986	0.904298
O25	O	0.957312	-0.340503	0.701831
O26	O	1.457312	0.159497	1.201831
O27	O	0.843213	-0.345409	0.539060
O28	O	1.343213	0.154591	1.039060
O29	O	1.047474	-0.250390	0.690398
O30	O	1.547474	0.249610	1.190398
O31	O	1.038752	-0.450970	0.404295
O32	O	1.538752	0.049030	0.904295
O33	O	0.952350	-0.454619	0.539059
O34	O	1.452350	0.045381	1.039059
C35	C	0.819538	-0.303300	0.473368
C36	C	1.319538	0.196700	0.973368
C37	C	0.741330	-0.306650	0.478568
C38	C	1.241330	0.193350	0.978568
C39	C	0.994467	-0.478325	0.473387
C40	C	1.494467	0.021675	0.973387
C41	C	0.991159	-0.556532	0.478600
C42	C	1.491159	-0.056532	0.978600
C43	C	0.298908	-0.327834	0.511571
C44	C	0.798908	0.172166	1.011571
C45	C	0.372392	-0.324691	0.506666
C46	C	0.872392	0.175309	1.006666
C47	C	0.411046	-0.278066	0.434157
C48	C	0.911046	0.221934	0.934157
C49	C	0.376212	-0.234586	0.366541
C50	C	0.876212	0.265414	0.866541
C51	C	0.302729	-0.237732	0.371442
C52	C	0.802729	0.262268	0.871442
C53	C	0.633013	-0.266316	0.415852
C54	C	1.133013	0.233684	0.915852
C55	C	0.706501	-0.263171	0.410959
C56	C	1.206501	0.236829	0.910959
C57	C	0.702676	-0.353278	0.551083
C58	C	1.202676	0.146722	1.051083
C59	C	0.629192	-0.356417	0.555981
C60	C	1.129192	0.143583	1.055981
C61	C	0.594364	-0.312939	0.488362
C62	C	1.094364	0.187061	0.988362
C63	C	0.486159	-0.274852	0.429144
C64	C	0.986159	0.225148	0.929144
C65	C	0.519253	-0.316158	0.493370
C66	C	1.019253	0.183842	0.993370
C67	C	1.034625	-0.591349	0.410938
C68	C	1.534625	-0.091349	0.910938
C69	C	1.031519	-0.664833	0.415846
C70	C	1.531519	-0.164833	0.915846
C71	C	0.984942	-0.703498	0.488412
C72	C	1.484942	-0.203498	0.988412
C73	C	0.941475	-0.668675	0.556081
C74	C	1.441475	-0.168675	1.056081
C75	C	0.944585	-0.595193	0.551177
C76	C	1.444585	-0.095193	1.051177
C77	C	0.973302	-0.925463	0.506730
C78	C	1.473302	-0.425463	1.006730
C79	C	0.970193	-0.998951	0.511627
C80	C	1.470193	-0.498951	1.011627
C81	C	1.060239	-0.995103	0.371393
C82	C	1.560239	-0.495103	0.871393
C83	C	1.063342	-0.921619	0.366491
C84	C	1.563342	-0.421619	0.866491
C85	C	1.019877	-0.886803	0.434164
C86	C	1.519877	-0.386803	0.934164
C87	C	0.981765	-0.778610	0.493428
C88	C	1.481765	-0.278610	0.993428
C89	C	1.023059	-0.811692	0.429152
C90	C	1.523059	-0.311692	0.929152
C91	C	1.185872	-0.287688	0.449135
C92	C	1.685872	0.212312	0.949135
C93	C	1.264079	-0.284355	0.443962
C94	C	1.764079	0.215645	0.943962
C95	C	1.002400	-0.295436	0.735301
C96	C	1.502400	0.204564	1.235301
C97	C	1.002423	-0.295405	0.852074
C98	C	1.502423	0.204595	1.352074
C99	C	1.010279	-0.111978	0.449137
C100	C	1.510279	0.388022	0.949137
C101	C	1.013659	-0.033768	0.443965
C102	C	1.513659	0.466232	0.943965
C103	C	1.002339	-0.295529	0.188310
C104	C	1.502339	0.204471	0.688310
C105	C	1.002461	-0.295356	0.071515
C106	C	1.502461	0.204644	0.571515
C107	C	1.049376	-0.248478	0.900984
C108	C	1.549376	0.251522	1.400984
C109	C	1.049394	-0.248452	1.010705
C110	C	1.549394	0.251548	1.510705
C111	C	0.955502	-0.342285	1.022597
C112	C	1.455502	0.157715	1.522597
C113	C	0.955482	-0.342307	0.912878
C114	C	1.455482	0.157693	1.412878
C115	C	1.103586	-0.194306	0.894119
C116	C	1.603586	0.305694	1.394119
C117	C	1.103604	-0.194280	1.003840
C118	C	1.603604	0.305720	1.503840
H119	H	0.400746	-0.360098	0.561718
H120	H	0.900746	0.139902	1.061718
N121	N	1.104646	-1.030656	0.302273
N122	N	1.604646	-0.530656	0.802273
N123	N	1.146229	-0.996125	0.237488
N124	N	1.646229	-0.496125	0.737488
H125	H	1.177594	-1.021233	0.188668
H126	H	1.677594	-0.521233	0.688668
H127	H	0.597724	-0.394386	0.615024
H128	H	1.097724	0.105614	1.115024
H129	H	0.909191	-0.566846	0.606275
H130	H	1.409191	-0.066846	1.106275
H131	H	1.072550	-0.559873	0.351843
H132	H	1.572550	-0.059873	0.851843
H133	H	0.932274	-1.030430	0.570736
H134	H	1.432274	-0.530430	1.070736
N135	N	1.088206	-0.126740	0.853448
N136	N	1.588206	0.373260	1.353448
N137	N	1.035455	-0.121038	0.800110
N138	N	1.535455	0.378962	1.300110
H139	H	1.024590	-0.073322	0.771382
H140	H	1.524590	0.426678	1.271382
H141	H	0.731041	-0.388676	0.606134
H142	H	1.231041	0.111324	1.106134
N143	N	1.075909	-0.700393	0.346710
N144	N	1.575909	-0.200393	0.846710
N145	N	1.049440	-0.742508	0.284104
N146	N	1.549440	-0.242508	0.784104
H147	H	1.080793	-0.767620	0.235272
H148	H	1.580793	-0.267620	0.735272
N149	N	0.745992	-0.215531	0.336909
N150	N	1.245992	0.284469	0.836909
N151	N	0.740583	-0.150960	0.340294
N152	N	1.240583	0.349040	0.840294
H153	H	0.768475	-0.117313	0.288006
H154	H	1.268475	0.382687	0.788006
H155	H	0.917283	-0.380470	1.072117
H156	H	1.417283	0.119530	1.572117
H157	H	1.154498	-0.211632	0.857952
H158	H	1.654498	0.288368	1.357952
H159	H	0.487777	-0.354122	0.552403
H160	H	0.987777	0.145878	1.052403
H161	H	1.101268	-0.890139	0.307403
H162	H	1.601268	-0.390139	0.807403
H163	H	0.274373	-0.202325	0.316390
H164	H	0.774373	0.297675	0.816390
N165	N	0.934173	-0.818097	0.567539
N166	N	1.434173	-0.318097	1.067539
N167	N	0.895357	-0.787006	0.627941
N168	N	1.395357	-0.287006	1.127941
H169	H	0.861744	-0.814895	0.680283
H170	H	1.361744	-0.314895	1.180283
H171	H	0.604665	-0.230916	0.360787
H172	H	1.104665	0.269084	0.860787
H173	H	0.937909	-0.897122	0.561830
H174	H	1.437909	-0.397122	1.061830
N175	N	0.415704	-0.186969	0.292472
N176	N	0.915704	0.313031	0.792472
N177	N	0.481313	-0.184165	0.288105
N178	N	0.981313	0.315835	0.788105
H179	H	0.509205	-0.150534	0.235793
H180	H	1.009205	0.349466	0.735793
H181	H	1.086326	-0.143337	1.035744
H182	H	1.586326	0.356663	1.535744
H183	H	0.517639	-0.236888	0.370109
H184	H	1.017639	0.263112	0.870109
H185	H	0.903554	-0.700162	0.615169
H186	H	1.403554	-0.200162	1.115169
N187	N	1.070632	-0.772211	0.355015
N188	N	1.570632	-0.272211	0.855015
N189	N	1.109436	-0.803302	0.294596
N190	N	1.609436	-0.303302	0.794596
H191	H	1.143032	-0.775414	0.242231
H192	H	1.643032	-0.275414	0.742231
N193	N	0.907506	-0.390236	0.862934
N194	N	1.407506	0.109764	1.362934
N195	N	0.865599	-0.432106	0.917238
N196	N	1.365599	0.067894	1.417238
H197	H	0.831713	-0.465958	0.881967
H198	H	1.331713	0.034042	1.381967
N199	N	1.171182	-0.209656	1.037900
N200	N	1.671182	0.290344	1.537900
N201	N	1.224530	-0.170371	1.008361
N202	N	1.724530	0.329629	1.508361
H203	H	1.272256	-0.181227	1.032418
H204	H	1.772256	0.318773	1.532418
N205	N	0.259438	-0.375459	0.585652
N206	N	0.759438	0.124541	1.085652
N207	N	0.290548	-0.414276	0.646010
N208	N	0.790548	0.085724	1.146010
H209	H	0.262674	-0.447915	0.698332
H210	H	0.762674	0.052085	1.198332
