data_functionalizedCrystal
_audit_creation_method	'MofGen! by Chris Wilmer'
_symmetry_space_group_name_H-M	'P1'
_symmetry_Int_Tables_number	1
_symmetry_cell_setting	triclinic
loop_
_symmetry_equiv_pos_as_xyz
  x,y,z
_cell_length_a	20.919309
_cell_length_b	14.809436
_cell_length_c	14.809374
_cell_angle_alpha	91.387846
_cell_angle_beta	69.818970
_cell_angle_gamma	50.092967
loop_
_atom_site_label
_atom_site_type_symbol
_atom_site_fract_x
_atom_site_fract_y
_atom_site_fract_z
Zr1	Zr	0.554409	0.954161	0.015298
O2	O	0.690362	0.798909	-0.124826
O3	O	0.418455	1.008198	0.054206
O4	O	0.524122	1.022218	-0.110720
O5	O	0.608587	0.766500	0.174801
O6	O	0.500231	1.191037	-0.094989
O7	O	0.584695	0.784889	0.040100
O8	O	0.311214	1.165959	0.200033
O9	O	0.797605	0.791578	-0.120221
O10	O	0.456546	1.149446	0.087429
O11	O	0.492205	1.009735	0.176215
O12	O	0.616614	1.026241	-0.017964
O13	O	0.652273	0.886529	0.070822
Zr14	Zr	0.554411	1.194079	0.255219
Zr15	Zr	0.516307	1.223408	0.040387
Zr16	Zr	0.592513	0.924831	0.230130
Zr17	Zr	0.725449	0.942469	0.022641
Zr18	Zr	0.383371	1.205770	0.247875
O19	O	0.690365	1.140041	0.216311
O20	O	0.636185	1.181743	-0.089152
O21	O	0.744541	0.757206	0.180638
O22	O	0.418458	1.349331	0.395342
O23	O	0.364279	1.391033	0.089879
O24	O	0.472634	0.966496	0.359669
O25	O	0.500233	1.381740	0.095716
O26	O	0.584698	1.126022	0.381237
O27	O	0.608589	0.957202	0.365506
O28	O	0.524124	1.363350	0.230417
O29	O	0.767318	1.005593	-0.100279
O30	O	0.341501	1.142646	0.370795
O31	O	0.311215	1.356661	0.390738
O32	O	0.280928	1.379974	0.219975
O33	O	0.827892	0.768265	0.050542
O34	O	0.797606	0.982281	0.070484
O35	O	0.492206	1.121999	0.288480
O36	O	0.456547	1.261710	0.199695
O37	O	0.616615	1.138505	0.094302
O38	O	0.652274	0.998793	0.183088
C39	C	0.340465	1.088744	0.126073
C40	C	0.267854	1.093708	0.122955
C41	C	0.252369	1.023090	0.167814
C42	C	0.184180	1.027703	0.164829
C43	C	0.131473	1.102940	0.116993
C44	C	0.146963	1.173560	0.072129
C45	C	0.215156	1.168940	0.075107
C46	C	-0.075351	1.120531	0.105676
C47	C	-0.143549	1.125149	0.102703
C48	C	-0.106326	0.979290	0.195403
C49	C	-0.038138	0.974682	0.198382
C50	C	-0.022650	1.045297	0.153513
C51	C	0.061770	1.107659	0.113944
C52	C	0.047056	1.040570	0.156556
C53	C	0.602070	0.737332	0.103876
C54	C	0.618245	0.623030	0.093225
C55	C	0.562765	0.515055	0.129759
C56	C	0.546045	0.633194	0.140765
C57	C	0.768355	1.059495	0.144444
C58	C	0.840966	1.054532	0.147562
C59	C	0.506747	1.110806	-0.133464
C60	C	0.490571	1.123257	-0.224665
C61	C	0.506750	1.410907	0.166641
C62	C	0.490575	1.525209	0.177292
C63	C	0.562764	1.067690	-0.317608
C64	C	0.546046	1.080557	-0.411871
C65	C	0.602072	1.037433	0.403980
C66	C	0.618249	1.024982	0.495182
C67	C	0.292805	1.425531	0.157455
C68	C	0.204019	1.544797	0.164989
C69	C	0.388127	1.052058	0.394795
C70	C	0.331693	1.044570	0.482879
C71	C	0.340467	1.388845	0.426177
C72	C	0.267857	1.495660	0.524913
C73	C	0.768352	0.759394	-0.155661
C74	C	0.840962	0.652579	-0.254396
C75	C	0.816015	0.722708	0.113061
C76	C	0.904801	0.603442	0.105528
C77	C	0.720692	1.096181	-0.124278
C78	C	0.777127	1.103669	-0.212362
C79	C	0.162322	1.542206	0.109916
C80	C	0.078905	1.654261	0.116974
C81	C	0.037183	1.768905	0.179111
C82	C	0.078887	1.771493	0.234185
C83	C	0.162306	1.659440	0.227121
C84	C	0.305192	1.099653	0.582855
C85	C	0.252178	1.092611	0.665627
C86	C	0.225658	1.030494	0.648423
C87	C	0.252165	0.975403	0.548437
C88	C	0.305184	0.982438	0.465666
C89	C	0.215144	1.618761	0.524936
C90	C	0.146925	1.719135	0.617701
C91	C	0.131418	1.696407	0.710442
C92	C	0.184139	1.573293	0.710416
C93	C	0.252361	1.472921	0.617652
C94	C	0.893684	0.529478	-0.254418
C95	C	0.961924	0.429102	-0.347183
C96	C	0.977435	0.451830	-0.439924
C97	C	0.924709	0.574944	-0.439898
C98	C	0.856476	0.675317	-0.347135
C99	C	0.946504	0.606034	0.160592
C100	C	1.029935	0.493981	0.153511
C101	C	1.071659	0.379337	0.091372
C102	C	1.029952	0.376749	0.036301
C103	C	0.946526	0.488801	0.043377
C104	C	0.803629	1.165797	-0.195125
C105	C	0.856644	1.172856	-0.277880
C106	C	0.883163	1.117779	-0.377871
C107	C	0.856655	1.055650	-0.395106
C108	C	0.803635	1.048599	-0.312352
H109	H	-0.186464	1.186421	0.063747
H110	H	0.912540	0.699371	0.211199
H111	H	0.782064	0.998002	-0.326402
H112	H	0.912575	0.486674	-0.001461
H113	H	0.692437	0.967882	-0.514612
H114	H	1.032998	0.370088	-0.515451
H115	H	0.230602	1.137478	0.747033
H116	H	0.295279	0.961826	0.206769
H117	H	0.471857	0.729350	0.189616
H118	H	0.230565	0.924827	0.534443
H119	H	1.139590	0.288106	0.085619
H120	H	0.227762	1.226442	0.038577
H121	H	0.295274	1.372690	0.617647
H122	H	0.044960	1.652130	0.072125
H123	H	1.063936	0.283391	-0.014292
H124	H	0.636950	0.418899	0.080920
H125	H	0.782046	1.210648	-0.113714
H126	H	1.004845	0.328866	-0.347184
H127	H	0.326779	1.150236	0.596883
H128	H	0.182487	1.024774	0.715829
H129	H	0.196287	1.448870	0.059306
H130	H	-0.030743	1.860137	0.184855
H131	H	1.063880	0.496112	0.198361
H132	H	0.878222	1.223446	-0.263826
H133	H	0.326752	0.937586	0.384263
H134	H	0.692434	0.526875	0.044376
H135	H	0.471858	1.137664	-0.402078
H136	H	0.196247	1.661566	0.271975
H137	H	0.878255	1.010809	-0.476530
H138	H	0.227757	1.637291	0.449431
H139	H	0.171577	0.970199	0.201358
H140	H	0.926335	1.123529	-0.445245
H141	H	0.104004	1.819372	0.617704
H142	H	0.044905	1.864851	0.284776
H143	H	0.075864	1.778148	0.785969
H144	H	0.171502	1.554805	0.785939
H145	H	0.004768	0.913425	0.237344
H146	H	-0.118943	0.921797	0.231930
H147	H	0.881062	0.510948	-0.178914
H148	H	-0.062748	1.178031	0.069144
H149	H	0.018848	1.168921	0.074997
H150	H	0.104048	1.234814	0.033173
H151	H	0.813548	0.775550	-0.347128
H152	H	0.416392	0.621364	0.226140
H153	H	0.089977	0.979307	0.195500
H154	H	0.636945	1.010596	-0.327393
H155	H	0.416388	1.180360	-0.214879
H156	H	0.937348	0.593435	-0.515419
