data_functionalizedCrystal
_audit_creation_method	'MofGen! by Chris Wilmer'
_symmetry_space_group_name_H-M	'P1'
_symmetry_Int_Tables_number	1
_symmetry_cell_setting	triclinic
loop_
_symmetry_equiv_pos_as_xyz
  x,y,z
_cell_length_a	17.077404
_cell_length_b	16.959453
_cell_length_c	17.077396
_cell_angle_alpha	90.029064
_cell_angle_beta	90.018362
_cell_angle_gamma	90.017958
loop_
_atom_site_label
_atom_site_type_symbol
_atom_site_fract_x
_atom_site_fract_y
_atom_site_fract_z
Zn1	Zn	1.200070	-0.314724	0.443816
Zn2	Zn	1.700070	0.185276	0.943816
Zn3	Zn	1.199984	-0.446912	0.312548
Zn4	Zn	1.699984	0.053088	0.812548
Zn5	Zn	1.068802	-0.314747	0.312566
Zn6	Zn	1.568802	0.185253	0.812566
Zn7	Zn	1.068777	-0.446860	0.443775
Zn8	Zn	1.568777	0.053140	0.943775
O9	O	1.134408	-0.380811	0.378176
O10	O	1.634408	0.119189	0.878176
O11	O	1.309906	-0.332272	0.426413
O12	O	1.809906	0.167728	0.926413
O13	O	1.182557	-0.429411	0.202704
O14	O	1.682557	0.070589	0.702704
O15	O	1.086262	-0.204133	0.330001
O16	O	1.586262	0.295867	0.830001
O17	O	1.309842	-0.429390	0.329971
O18	O	1.809842	0.070610	0.829971
O19	O	1.182704	-0.204116	0.426430
O20	O	1.682704	0.295884	0.926430
O21	O	1.086178	-0.332310	0.202717
O22	O	1.586178	0.167690	0.702717
O23	O	0.958952	-0.332260	0.329962
O24	O	1.458952	0.167740	0.829962
O25	O	1.086219	-0.429301	0.553627
O26	O	1.586219	0.070699	1.053627
O27	O	0.958933	-0.429323	0.426360
O28	O	1.458933	0.070677	0.926360
O29	O	1.182680	-0.332221	0.553657
O30	O	1.682680	0.167779	1.053657
O31	O	1.182532	-0.557516	0.329931
O32	O	1.682532	-0.057516	0.829931
O33	O	1.086135	-0.557478	0.426342
O34	O	1.586135	-0.057478	0.926342
C35	C	0.930461	-0.380788	0.378159
C36	C	1.430461	0.119212	0.878159
C37	C	0.843211	-0.380798	0.378170
C38	C	1.343211	0.119202	0.878170
C39	C	0.802254	-0.330319	0.428463
C40	C	1.302254	0.169681	0.928463
C41	C	0.720274	-0.330324	0.428467
C42	C	1.220274	0.169676	0.928467
C43	C	0.679251	-0.380813	0.378180
C44	C	1.179251	0.119187	0.878180
C45	C	0.720213	-0.431294	0.327881
C46	C	1.220213	0.068706	0.827881
C47	C	0.802192	-0.431285	0.327874
C48	C	1.302192	0.068715	0.827874
C49	C	0.549343	-0.431312	0.327900
C50	C	1.049343	0.068688	0.827900
C51	C	0.467359	-0.431323	0.327908
C52	C	0.967359	0.068677	0.827908
C53	C	0.467425	-0.330351	0.428494
C54	C	0.967425	0.169649	0.928494
C55	C	0.549404	-0.330342	0.428487
C56	C	1.049404	0.169658	0.928487
C57	C	0.590360	-0.380824	0.378188
C58	C	1.090360	0.119176	0.878188
C59	C	1.134343	-0.586177	0.378147
C60	C	1.634343	-0.086177	0.878147
C61	C	1.134387	-0.674034	0.378161
C62	C	1.634387	-0.174034	0.878161
C63	C	1.184690	-1.045442	0.428481
C64	C	1.684690	-0.545442	0.928481
C65	C	1.084346	-1.045576	0.327988
C66	C	1.584346	-0.545576	0.827988
C67	C	1.084317	-0.963031	0.327970
C68	C	1.584317	-0.463031	0.827970
C69	C	1.134474	-0.921687	0.378209
C70	C	1.634474	-0.421687	0.878209
C71	C	1.184661	-0.962889	0.428466
C72	C	1.684661	-0.462889	0.928466
C73	C	1.034126	-0.921822	0.277719
C74	C	1.534126	-0.421822	0.777719
C75	C	1.034094	-0.839271	0.277699
C76	C	1.534094	-0.339271	0.777699
C77	C	1.084256	-0.797926	0.327935
C78	C	1.584256	-0.297926	0.827935
C79	C	1.134445	-0.839133	0.378194
C80	C	1.634445	-0.339133	0.878194
C81	C	1.184603	-0.797789	0.428434
C82	C	1.684603	-0.297789	0.928434
C83	C	1.234796	-0.838995	0.478689
C84	C	1.734796	-0.338995	0.978689
C85	C	1.234823	-0.921543	0.478702
C86	C	1.734823	-0.421543	0.978702
C87	C	1.084229	-0.715378	0.327922
C88	C	1.584229	-0.215378	0.827922
C89	C	1.184573	-0.715236	0.428419
C90	C	1.684573	-0.215236	0.928419
C91	C	1.339153	-0.380834	0.378194
C92	C	1.839153	0.119166	0.878194
C93	C	1.426402	-0.380844	0.378202
C94	C	1.926402	0.119156	0.878202
C95	C	1.134456	-0.380753	0.582921
C96	C	1.634456	0.119247	1.082921
C97	C	1.134476	-0.380728	0.670170
C98	C	1.634476	0.119272	1.170170
C99	C	1.134496	-0.174643	0.378222
C100	C	1.634496	0.325357	0.878222
C101	C	1.134533	-0.086786	0.378242
C102	C	1.634533	0.413214	0.878242
C103	C	1.134406	-0.380812	0.174228
C104	C	1.634406	0.119188	0.674228
C105	C	1.134538	-0.380614	0.086979
C106	C	1.634538	0.119386	0.586979
C107	C	1.184705	-0.330174	0.711178
C108	C	1.684705	0.169826	1.211178
C109	C	1.184715	-0.330148	0.793158
C110	C	1.684715	0.169852	1.293158
C111	C	1.134498	-0.380680	0.834130
C112	C	1.634498	0.119320	1.334130
C113	C	1.084264	-0.431236	0.793117
C114	C	1.584264	0.068764	1.293117
C115	C	1.084251	-0.431257	0.711138
C116	C	1.584251	0.068743	1.211138
C117	C	1.084296	-0.431188	0.963987
C118	C	1.584296	0.068812	1.463987
C119	C	1.084309	-0.431168	1.045972
C120	C	1.584309	0.068832	1.545972
C121	C	1.184759	-0.330079	1.046007
C122	C	1.684759	0.169921	1.546007
C123	C	1.184746	-0.330100	0.964028
C124	C	1.684746	0.169900	1.464028
C125	C	1.134512	-0.380657	0.923021
C126	C	1.634512	0.119343	1.423021
H127	H	0.434074	-0.289245	0.469447
H128	H	0.934074	0.210755	0.969447
H129	H	1.225421	-0.681579	0.469327
H130	H	1.725421	-0.181579	0.969327
H131	H	0.686931	-0.289220	0.469423
H132	H	1.186931	0.210780	0.969423
C133	C	1.029069	-0.486746	1.091040
C134	C	1.529069	0.013254	1.591040
H135	H	0.999141	-0.516852	1.054878
H136	H	1.499141	-0.016852	1.554878
H137	H	1.059084	-0.521183	1.123016
H138	H	1.559084	-0.021183	1.623016
H139	H	0.994887	-0.456487	1.123022
H140	H	1.494887	0.043513	1.623022
H141	H	1.043359	-0.681832	0.287009
H142	H	1.543359	-0.181832	0.787009
H143	H	1.225641	-0.288957	0.930671
H144	H	1.725641	0.211043	1.430671
C145	C	1.289966	-0.793511	0.533948
C146	C	1.789966	-0.293511	1.033948
H147	H	1.282758	-0.738448	0.526737
H148	H	1.782758	-0.238448	1.026737
H149	H	1.278459	-0.807010	0.586684
H150	H	1.778459	-0.307010	1.086684
H151	H	1.342724	-0.807005	0.522503
H152	H	1.842724	-0.307005	1.022503
C153	C	0.422235	-0.486856	0.272591
C154	C	0.922235	0.013144	0.772591
H155	H	0.458367	-0.516913	0.242626
H156	H	0.958367	-0.016913	0.742626
H157	H	0.390261	-0.521340	0.302559
H158	H	0.890261	-0.021340	0.802559
H159	H	0.390247	-0.456570	0.238448
H160	H	0.890247	0.043430	0.738448
H161	H	0.993224	-0.805727	0.236778
H162	H	1.493224	-0.305727	0.736778
C163	C	0.594394	-0.486850	0.272581
C164	C	1.094394	0.013150	0.772581
H165	H	0.558223	-0.516929	0.242640
H166	H	1.058223	-0.016929	0.742640
H167	H	0.626371	-0.456575	0.238427
H168	H	1.126371	0.043425	0.738427
H169	H	0.626374	-0.521325	0.302558
H170	H	1.126374	-0.021325	0.802558
C171	C	1.240024	-0.274476	1.091111
C172	C	1.740024	0.225524	1.591111
H173	H	1.232838	-0.281696	1.145803
H174	H	1.732838	0.218304	1.645803
H175	H	1.292754	-0.286068	1.077677
H176	H	1.792754	0.213932	1.577677
H177	H	1.228565	-0.221363	1.077691
H178	H	1.728565	0.278637	1.577691
C179	C	1.029065	-0.486826	0.918881
C180	C	1.529065	0.013174	1.418881
H181	H	0.999173	-0.516931	0.955022
H182	H	1.499173	-0.016931	1.455022
H183	H	0.994862	-0.456620	0.886888
H184	H	1.494862	0.043380	1.386888
H185	H	1.059104	-0.521271	0.886912
H186	H	1.559104	-0.021271	1.386912
H187	H	1.275687	-0.955100	0.519618
H188	H	1.775687	-0.455100	1.019618
C189	C	1.029019	-0.486886	0.666030
C190	C	1.529019	0.013114	1.166030
H191	H	0.999124	-0.516988	0.702171
H192	H	1.499124	-0.016988	1.202171
H193	H	0.994819	-0.456670	0.634043
H194	H	1.494819	0.043330	1.134043
H195	H	1.059047	-0.521335	0.634056
H196	H	1.559047	-0.021335	1.134056
H197	H	0.686806	-0.472399	0.286933
H198	H	1.186806	0.027601	0.786933
H199	H	0.582802	-0.289234	0.469439
H200	H	1.082802	0.210766	0.969439
H201	H	1.043374	-0.472377	0.826483
H202	H	1.543374	0.027623	1.326483
C203	C	0.847245	-0.486818	0.272557
C204	C	1.347245	0.013182	0.772557
H205	H	0.811073	-0.516896	0.242615
H206	H	1.311073	-0.016896	0.742615
H207	H	0.879219	-0.456538	0.238405
H208	H	1.379219	0.043462	0.738405
H209	H	0.879227	-0.521295	0.302530
H210	H	1.379227	-0.021295	0.802530
C211	C	1.239897	-1.090763	0.483760
C212	C	1.739897	-0.590763	0.983760
H213	H	1.232731	-1.145848	0.476579
H214	H	1.732731	-0.645848	0.976579
H215	H	1.292640	-1.077203	0.472320
H216	H	1.792640	-0.577203	0.972320
H217	H	1.228365	-1.077206	0.536492
H218	H	1.728365	-0.577206	1.036492
C219	C	1.029180	-1.091052	0.272727
C220	C	1.529180	-0.591052	0.772727
H221	H	1.036388	-1.146117	0.279931
H222	H	1.536388	-0.646117	0.779931
H223	H	0.976425	-1.077552	0.284158
H224	H	1.476425	-0.577552	0.784158
H225	H	1.040704	-1.077554	0.219991
H226	H	1.540704	-0.577554	0.719991
C227	C	0.978952	-0.967296	0.222464
C228	C	1.478952	-0.467296	0.722464
H229	H	0.949049	-0.930935	0.192539
H230	H	1.449049	-0.430935	0.692539
H231	H	1.009008	-0.999502	0.188294
H232	H	1.509008	-0.499502	0.688294
H233	H	0.944745	-0.999500	0.252477
H234	H	1.444745	-0.499500	0.752477
C235	C	0.847376	-0.274783	0.483780
C236	C	1.347376	0.225217	0.983780
H237	H	0.902066	-0.282011	0.476580
H238	H	1.402066	0.217989	0.976580
H239	H	0.833947	-0.221661	0.472389
H240	H	1.333947	0.278339	0.972389
H241	H	0.833958	-0.286427	0.536505
H242	H	1.333958	0.213573	1.036505
C243	C	1.239940	-0.274585	0.666116
C244	C	1.739940	0.225415	1.166116
H245	H	1.269849	-0.244467	0.702282
H246	H	1.769849	0.255533	1.202282
H247	H	1.274126	-0.304828	0.634131
H248	H	1.774126	0.195172	1.134131
H249	H	1.209913	-0.240148	0.634143
H250	H	1.709913	0.259852	1.134143
H251	H	1.225618	-0.288984	0.826542
H252	H	1.725618	0.211016	1.326542
