data_functionalizedCrystal
_audit_creation_method	'MofGen! by Chris Wilmer'
_symmetry_space_group_name_H-M	'P1'
_symmetry_Int_Tables_number	1
_symmetry_cell_setting	triclinic
loop_
_symmetry_equiv_pos_as_xyz
  x,y,z
_cell_length_a	15.538191
_cell_length_b	17.699083
_cell_length_c	14.749904
_cell_angle_alpha	75.738153
_cell_angle_beta	72.481711
_cell_angle_gamma	65.277554
loop_
_atom_site_label
_atom_site_type_symbol
_atom_site_fract_x
_atom_site_fract_y
_atom_site_fract_z
O1	O	-1.268656	0.236263	0.079843
O2	O	-0.994197	0.148816	0.079844
O3	O	-1.139179	0.304849	0.079835
O4	O	-1.123674	0.080231	0.079852
O5	O	-1.102807	0.324269	-0.079840
O6	O	-0.957825	0.168236	-0.079831
O7	O	-1.232284	0.255683	-0.079832
Zn8	Zn	-1.089280	0.215043	-0.105183
Zn9	Zn	-1.137201	0.189456	0.105195
O10	O	-1.087303	0.099651	-0.079823
C11	C	-1.120437	0.342604	-0.000003
C12	C	-1.118770	0.426166	-0.000003
C13	C	-0.940895	0.149377	0.000007
C14	C	-0.836259	0.122124	0.000007
C15	C	-1.285587	0.255122	0.000007
C16	C	-1.390224	0.282374	0.000013
C17	C	-0.549087	0.392872	0.000002
C18	C	-0.450763	0.367244	0.000004
C19	C	-0.427992	0.223097	0.000015
C20	C	-0.526315	0.248713	0.000008
C21	C	-0.586855	0.333601	0.000002
C22	C	-0.564084	0.189443	0.000008
C23	C	-0.662399	0.215056	0.000006
C24	C	-0.722946	0.299940	0.000003
C25	C	-0.685171	0.359215	-0.000000
C26	C	-0.503544	0.104554	0.000020
C27	C	-0.541312	0.045283	0.000021
C28	C	-0.639628	0.070897	0.000012
C29	C	-0.700175	0.155781	0.000009
C30	C	-0.677403	0.011623	0.000015
C31	C	-0.775719	0.037236	0.000013
C32	C	-0.798490	0.181395	0.000007
C33	C	-1.106045	0.061895	0.000017
C34	C	-1.107713	-0.021668	0.000024
N35	N	-1.056582	0.232508	-0.248761
C36	C	-1.203872	0.498041	-0.000005
C37	C	-1.202302	0.576554	0.000004
C38	C	-1.115627	0.583191	0.000007
C39	C	-1.030519	0.511308	0.000012
C40	C	-1.032092	0.432796	0.000010
C41	C	-1.024175	0.827936	0.000020
C42	C	-1.022609	0.906456	0.000018
C43	C	-1.194385	0.971694	0.000013
C44	C	-1.195958	0.893182	0.000012
C45	C	-1.110852	0.821305	0.000021
C46	C	-1.112556	0.736173	0.000014
C47	C	-1.113921	0.668322	0.000008
N48	N	-1.169906	0.172000	0.248773
C49	C	-1.261186	0.123300	0.399559
C50	C	-1.238282	0.135512	0.299045
C51	C	-1.124404	0.196284	0.299005
C52	C	-1.147294	0.184073	0.399522
C53	C	-1.215687	0.147581	0.449791
C54	C	-1.101795	0.208354	0.449753
C55	C	-1.124688	0.196148	0.550261
C56	C	-1.193080	0.159660	0.600537
C57	C	-1.238580	0.135375	0.550299
C58	C	-1.033408	0.244851	0.399482
C59	C	-0.987909	0.269133	0.449713
C60	C	-1.010796	0.256921	0.550223
C61	C	-1.079188	0.220433	0.600500
C62	C	-0.965297	0.281206	0.600462
C63	C	-0.988190	0.268999	0.700970
C64	C	-1.102081	0.208226	0.701007
H65	H	-0.847785	0.250520	-0.000003
F66	F	-0.938276	0.518372	0.000026
F67	F	-0.939780	0.294859	0.754433
F68	F	-1.009052	0.257850	0.292511
F69	F	-0.933598	0.751448	0.000032
H70	H	-0.932226	0.298848	0.408771
H71	H	-0.909618	0.310925	0.559517
H72	H	-0.420018	0.415516	0.000005
F73	F	-1.286718	0.109670	0.245588
F74	F	-0.749605	0.449564	-0.000017
F75	F	-0.827585	0.327200	0.000006
H76	H	-1.211720	0.149724	0.682377
F77	F	-0.363553	0.132755	0.000027
H78	H	-0.598381	0.461997	-0.000009
H79	H	-1.316868	0.093573	0.440491
F80	F	-0.398907	0.077295	0.000024
F81	F	-1.284965	1.048197	0.000006
H82	H	-1.266536	0.887786	0.000004
F83	F	-0.476873	-0.045059	0.000033
F84	F	-1.292879	0.653047	0.000000
F85	F	-0.612964	-0.078720	0.000035
F86	F	-1.051617	0.235121	0.245494
H87	H	-0.806468	-0.011027	0.000004
H88	H	-1.274451	0.492648	-0.000013
H89	H	-0.952023	0.911852	0.000019
H90	H	-1.157763	0.178500	0.741940
F91	F	-0.941515	0.356299	0.000015
H92	H	-1.294261	0.105648	0.591231
