data_functionalizedCrystal
_audit_creation_method	'MofGen! by Chris Wilmer'
_symmetry_space_group_name_H-M	'P1'
_symmetry_Int_Tables_number	1
_symmetry_cell_setting	triclinic
loop_
_symmetry_equiv_pos_as_xyz
  x,y,z
_cell_length_a	10.540510
_cell_length_b	9.016244
_cell_length_c	10.540539
_cell_angle_alpha	89.999933
_cell_angle_beta	95.480599
_cell_angle_gamma	90.007604
loop_
_atom_site_label
_atom_site_type_symbol
_atom_site_fract_x
_atom_site_fract_y
_atom_site_fract_z
O1	O	1.685915	0.123342	-0.178715
O2	O	1.316497	0.123342	-0.195611
O3	O	1.509634	0.123340	-0.002455
O4	O	1.492778	0.123344	-0.371870
O5	O	1.509606	-0.123341	-0.002460
O6	O	1.316469	-0.123339	-0.195615
O7	O	1.685887	-0.123339	-0.178719
Cu8	Cu	1.501175	-0.145863	-0.187168
Cu9	Cu	1.501209	0.145866	-0.187162
O10	O	1.492750	-0.123337	-0.371875
C11	C	1.269179	0.000002	-0.194354
C12	C	1.128229	0.000002	-0.190587
C13	C	0.910774	0.000570	-0.324771
C14	C	1.057370	0.000005	-0.328789
C15	C	1.083453	-0.140862	-0.119843
C16	C	0.936692	-0.140971	-0.116804
C17	C	0.936919	0.139551	-0.113921
C18	C	1.083260	0.141404	-0.120476
N19	N	1.501161	-0.351049	-0.187170
C20	C	1.397528	-0.586080	-0.290149
C21	C	1.397757	-0.414189	-0.290535
C22	C	1.633885	-0.413387	-0.217290
C23	C	1.633320	-0.585332	-0.218019
C24	C	1.473387	-0.585594	-0.053735
C25	C	1.470341	-0.413639	-0.054600
C26	C	1.733204	0.000005	-0.179976
C27	C	1.874154	0.000014	-0.183743
C28	C	1.508356	0.000003	0.044845
C29	C	1.504574	0.000011	0.185793
N30	N	1.501233	0.351052	-0.187150
C31	C	1.494028	0.000004	-0.419175
C32	C	1.497810	0.000006	-0.560123
C33	C	1.359655	0.000564	0.369204
C34	C	1.363489	0.000009	0.222587
C35	C	1.572454	-0.140856	0.247455
C36	C	1.567639	-0.140975	0.393999
C37	C	1.570541	0.139547	0.394523
C38	C	1.571841	0.141410	0.247541
H39	H	0.868832	0.101592	-0.378611
N40	N	1.573537	-0.639435	0.047820
H41	H	1.636648	-0.704546	0.007676
H42	H	1.531395	-0.698229	0.113742
H43	H	1.540869	-0.370664	0.025728
N44	N	1.708097	0.152689	0.215483
H45	H	1.728244	0.065909	0.160235
H46	H	1.767236	0.151479	0.296725
N47	N	1.341009	-0.359720	-0.024309
H48	H	1.283506	-0.447603	-0.013834
H49	H	1.302601	-0.294972	-0.096176
N50	N	1.421483	-0.359672	-0.421641
H51	H	1.421730	-0.247657	-0.422437
H52	H	1.351910	-0.397436	-0.486093
H53	H	1.676063	-0.146094	0.225112
N54	N	0.853144	-0.132484	-0.395692
H55	H	0.803417	-0.193119	-0.336865
H56	H	0.923315	-0.195275	-0.426619
N57	N	1.094977	-0.133977	-0.402547
H58	H	1.067837	-0.227172	-0.359342
H59	H	1.190469	-0.134772	-0.405462
H60	H	0.914765	0.140503	-0.010159
N61	N	1.705531	0.140797	0.457074
H62	H	1.751795	0.230676	0.427569
H63	H	1.750905	0.047836	0.432828
N64	N	0.883387	-0.280433	-0.180859
H65	H	0.837623	-0.340350	-0.118296
H66	H	0.955321	-0.341150	-0.210800
N67	N	1.267123	-0.358369	-0.266544
H68	H	1.202140	-0.395896	-0.335738
H69	H	1.267128	-0.246354	-0.266725
N70	N	1.096261	0.133739	-0.402130
H71	H	1.191778	0.133620	-0.404894
H72	H	1.069758	0.227059	-0.358702
H73	H	0.913696	-0.147371	-0.013438
H74	H	1.130843	-0.146102	-0.018102
H75	H	1.303935	0.101582	0.397800
H76	H	1.712963	-0.626915	-0.146021
N77	N	1.124281	-0.279742	-0.184911
H78	H	1.220213	-0.281363	-0.183529
H79	H	1.084877	-0.281056	-0.276088
H80	H	0.894383	0.246319	-0.157502
H81	H	1.525277	-0.245685	0.204849
H82	H	1.517448	-0.246276	0.422192
N83	N	1.121204	0.279452	-0.188630
H84	H	1.167330	0.250534	-0.264605
H85	H	1.179239	0.341922	-0.128416
N86	N	1.286104	-0.132494	0.409187
H87	H	1.280251	-0.129028	0.504225
H88	H	1.331367	-0.226243	0.386694
N89	N	1.510084	0.280980	0.436313
H90	H	1.434929	0.256025	0.485077
H91	H	1.480218	0.342107	0.358878
H92	H	1.132329	0.149910	-0.019578
H93	H	1.669105	-0.147366	0.441979
H94	H	1.298601	-0.627474	-0.272307
N95	N	1.420961	-0.643215	-0.420535
H96	H	1.498455	-0.709653	-0.413172
H97	H	1.435786	-0.556737	-0.478207
N98	N	1.665579	-0.638449	-0.346945
H99	H	1.680031	-0.550168	-0.402770
H100	H	1.592803	-0.699975	-0.388012
H101	H	1.309678	-0.101138	0.180823
H102	H	1.712942	-0.372483	-0.144318
H103	H	1.658784	-0.370308	-0.313525
H104	H	1.378648	-0.629041	-0.025066
H105	H	1.310076	0.100988	0.179979
H106	H	1.522173	0.245619	0.206679
