data_functionalizedCrystal
_audit_creation_method	'MofGen! by Chris Wilmer'
_symmetry_space_group_name_H-M	'P1'
_symmetry_Int_Tables_number	1
_symmetry_cell_setting	triclinic
loop_
_symmetry_equiv_pos_as_xyz
  x,y,z
_cell_length_a	23.196402
_cell_length_b	23.196402
_cell_length_c	23.196402
_cell_angle_alpha	59.998648
_cell_angle_beta	89.998154
_cell_angle_gamma	60.004007
loop_
_atom_site_label
_atom_site_type_symbol
_atom_site_fract_x
_atom_site_fract_y
_atom_site_fract_z
Zr1	Zr	0.555424	0.630988	-0.075651
O2	O	0.463385	0.751252	-0.167696
O3	O	0.583631	0.510726	-0.047438
O4	O	0.583641	0.630992	-0.167705
O5	O	0.463376	0.630982	0.047444
O6	O	0.678511	0.630994	-0.167708
O7	O	0.463375	0.630985	-0.047429
O8	O	0.678493	0.415860	0.047428
O9	O	0.463394	0.846116	-0.167693
O10	O	0.666471	0.560192	-0.035403
O11	O	0.595672	0.560188	0.035401
O12	O	0.595684	0.701786	-0.106198
O13	O	0.524885	0.701782	-0.035393
Zr14	Zr	0.706733	0.630984	0.075654
Zr15	Zr	0.706731	0.630990	-0.075656
Zr16	Zr	0.555427	0.630982	0.075660
Zr17	Zr	0.555440	0.782285	-0.075646
Zr18	Zr	0.706718	0.479687	0.075649
O19	O	0.678527	0.751246	0.047441
O20	O	0.678523	0.751255	-0.167704
O21	O	0.463388	0.751243	0.047448
O22	O	0.798773	0.510721	0.167700
O23	O	0.798769	0.510730	-0.047445
O24	O	0.583634	0.510717	0.167707
O25	O	0.798782	0.630991	-0.047441
O26	O	0.678516	0.630980	0.167708
O27	O	0.583646	0.630978	0.167712
O28	O	0.798783	0.630987	0.047432
O29	O	0.583663	0.846118	-0.167697
O30	O	0.678495	0.415855	0.167700
O31	O	0.798763	0.415857	0.167696
O32	O	0.798761	0.415861	0.047424
O33	O	0.463396	0.846111	-0.047421
O34	O	0.583665	0.846113	-0.047425
O35	O	0.666473	0.560186	0.106201
O36	O	0.737273	0.560190	0.035396
O37	O	0.666486	0.701784	-0.035398
O38	O	0.595686	0.701780	0.035407
C39	C	0.631060	0.441736	-0.000005
C40	C	0.631053	0.377507	-0.000008
C41	C	0.683319	0.295077	0.052252
C42	C	0.683324	0.234716	0.052258
C43	C	0.631068	0.256791	-0.000006
C44	C	0.578793	0.339235	-0.052270
C45	C	0.578785	0.399593	-0.052271
C46	C	0.614794	0.201206	-0.063798
C47	C	0.614806	0.140847	-0.063797
C48	C	0.631087	0.070629	-0.000003
C49	C	0.647371	0.060768	0.063795
C50	C	0.647364	0.121126	0.063794
C51	C	0.631070	0.191349	-0.000010
C52	C	0.683361	-0.077254	0.052268
C53	C	0.683362	-0.137614	0.052275
C54	C	0.578833	-0.033092	-0.052259
C55	C	0.578830	0.027264	-0.052260
C56	C	0.631098	0.005178	0.000003
C57	C	0.441817	0.630983	0.000008
C58	C	0.377584	0.630982	0.000010
C59	C	0.384359	0.557074	0.036958
C60	C	0.324004	0.557073	0.036961
C61	C	0.256875	0.630984	0.000003
C62	C	0.250103	0.704902	-0.036946
C63	C	0.310457	0.704901	-0.036942
C64	C	0.132951	0.687612	-0.061907
C65	C	0.072600	0.687610	-0.061913
C66	C	0.070722	0.630990	-0.000008
C67	C	0.129209	0.574359	0.061902
C68	C	0.189563	0.574358	0.061905
C69	C	0.191427	0.630994	-0.000005
C70	C	0.012056	0.557076	0.036945
C71	C	-0.048301	0.557078	0.036950
C72	C	-0.122202	0.704909	-0.036964
C73	C	-0.061846	0.704905	-0.036962
C74	C	0.005281	0.630986	-0.000009
C75	C	0.820340	0.630989	-0.000005
C76	C	0.884574	0.630990	-0.000007
C77	C	0.631076	0.630994	-0.189265
C78	C	0.631075	0.630997	-0.253501
C79	C	0.631098	0.820236	0.000009
C80	C	0.631104	0.884466	0.000011
C81	C	0.594140	0.704886	-0.753280
C82	C	0.594134	0.704890	-0.692928
C83	C	0.631084	0.630981	-0.625791
C84	C	0.668029	0.557061	-0.619010
C85	C	0.668028	0.557058	-0.679362
C86	C	0.692985	0.574359	-0.501863
C87	C	0.692987	0.574364	-0.441513
C88	C	0.631086	0.630985	-0.439643
C89	C	0.569182	0.687615	-0.498137
C90	C	0.569181	0.687612	-0.558489
C91	C	0.631089	0.630975	-0.560345
C92	C	0.594133	0.704905	-0.380988
C93	C	0.594125	0.704907	-0.320633
C94	C	0.668027	0.557075	-0.246715
C95	C	0.668028	0.557076	-0.307070
C96	C	0.631083	0.630993	-0.374204
C97	C	0.631082	0.630978	0.189268
C98	C	0.631083	0.630976	0.253504
C99	C	0.820321	0.441739	-0.000012
C100	C	0.884548	0.377511	-0.000017
C101	C	0.631063	0.441728	0.189261
C102	C	0.631057	0.377496	0.253494
C103	C	0.820324	0.441731	0.189255
C104	C	0.884552	0.377500	0.253486
C105	C	0.441834	0.820241	-0.189252
C106	C	0.377605	0.884472	-0.253482
C107	C	0.441836	0.820233	0.000015
C108	C	0.377609	0.884462	0.000020
C109	C	0.631095	0.820244	-0.189258
C110	C	0.631100	0.884476	-0.253491
C111	C	0.877752	0.347349	-0.036982
C112	C	0.938095	0.287008	-0.037001
C113	C	1.005232	0.256825	-0.000049
C114	C	1.012027	0.286992	0.036917
C115	C	0.951685	0.347337	0.036931
C116	C	0.668012	0.347331	0.320622
C117	C	0.668004	0.286986	0.380982
C118	C	0.631045	0.256804	0.374212
C119	C	0.594086	0.286975	0.307077
C120	C	0.594090	0.347323	0.246719
C121	C	0.951677	0.347338	0.246690
C122	C	1.012032	0.286995	0.307036
C123	C	1.005261	0.256810	0.374177
C124	C	0.938128	0.286977	0.380971
C125	C	0.877775	0.347324	0.320626
C126	C	0.310480	0.914641	-0.246686
C127	C	0.250125	0.975004	-0.307032
C128	C	0.256897	1.005192	-0.374173
C129	C	0.324029	0.975020	-0.380968
C130	C	0.384383	0.914663	-0.320623
C131	C	0.384405	0.914629	0.036979
C132	C	0.324063	0.974987	0.036981
C133	C	0.256925	1.005172	0.000027
C134	C	0.250131	0.975002	-0.036936
C135	C	0.310472	0.914649	-0.036942
C136	C	0.668067	0.914639	-0.246699
C137	C	0.668086	0.974985	-0.307047
C138	C	0.631134	1.005169	-0.374186
C139	C	0.594166	0.975000	-0.380977
C140	C	0.594152	0.914652	-0.320630
H141	H	0.601550	0.148881	-0.115745
H142	H	0.207797	1.054315	0.000038
C143	C	0.085898	0.475764	0.077602
N144	N	0.141514	0.414520	0.108227
C145	C	0.708672	0.253802	0.454823
N146	N	0.739306	0.228807	0.510439
C147	C	0.458219	0.881474	-0.328110
N148	N	0.513832	0.856478	-0.333755
C149	C	0.331553	1.008157	0.077652
N150	N	0.337196	1.033137	0.108287
H151	H	0.304929	0.890088	-0.067036
C152	C	0.708751	1.008163	-0.299561
N153	N	0.739379	1.033153	-0.293921
C154	C	0.176272	1.008203	-0.077571
N155	N	0.120640	1.033205	-0.108170
C156	C	0.190499	1.071580	-0.440549
N157	N	0.140486	1.121581	-0.490540
H158	H	0.823121	0.371874	0.326169
H159	H	0.725886	0.167590	0.094816
C160	C	0.708724	0.881443	-0.172851
N161	N	0.739354	0.856439	-0.117230
C162	C	0.553551	1.008183	-0.454838
N163	N	0.522967	1.033171	-0.510471
H164	H	0.957228	0.371886	0.067037
C165	C	0.930605	0.253827	-0.077661
N166	N	0.924962	0.228836	-0.108284
H167	H	0.823091	0.371923	-0.067081
C168	C	0.631055	0.190412	0.440615
N169	N	0.631069	0.140401	0.490632
C170	C	0.458251	0.881441	0.077630
N171	N	0.513871	0.856452	0.108246
C172	C	0.708669	0.380525	0.328086
N173	N	0.739289	0.405527	0.333714
H174	H	0.563994	0.262391	0.301576
H175	H	1.054361	0.207688	-0.000066
C176	C	0.553443	0.380489	0.172880
N177	N	0.522826	0.405465	0.117265
C178	C	0.303001	0.786210	-0.077596
N179	N	0.297385	0.847453	-0.108219
C180	C	0.708673	0.475768	-0.299606
N181	N	0.739287	0.414523	-0.293981
H182	H	1.066698	0.262409	0.067002
H183	H	0.631151	1.054309	-0.423319
H184	H	0.725879	0.277086	0.094809
H185	H	0.564055	0.765075	-0.807940
H186	H	0.957204	0.371906	0.192025
H187	H	0.304953	0.890065	-0.192022
H188	H	1.066689	0.262438	0.301491
C189	C	0.521339	0.117943	-0.109757
N190	N	0.478034	0.186245	-0.153066
H191	H	0.660620	0.113094	0.115741
C192	C	0.176287	1.008180	-0.299542
N193	N	0.120674	1.033166	-0.293899
H194	H	0.564046	0.890099	-0.326170
C195	C	0.930691	0.253758	0.454833
N196	N	0.925092	0.228730	0.510468
C197	C	0.331466	1.008229	-0.454830
N198	N	0.337066	1.033238	-0.510465
C199	C	0.740869	-0.228294	0.109760
N200	N	0.784188	-0.296595	0.153056
H201	H	1.054410	0.207671	0.423308
C202	C	0.127149	0.512077	0.130004
N203	N	0.125593	0.465167	0.181296
H204	H	0.660624	0.003597	0.115742
H205	H	0.536285	-0.015118	-0.094812
C206	C	0.740850	-0.101547	0.109764
N207	N	0.784150	-0.119847	0.153071
H208	H	0.601528	0.258383	-0.115751
H209	H	0.536245	0.357204	-0.094823
H210	H	0.439012	0.496883	0.067043
C211	C	0.521290	0.490273	-0.109767
N212	N	0.477985	0.558575	-0.153075
H213	H	0.237181	0.528251	0.112316
C214	C	0.331455	0.475765	0.077604
N215	N	0.337068	0.414523	0.108215
C216	C	-0.040843	0.475768	0.077592
N217	N	-0.035226	0.414524	0.108202
H218	H	-0.176859	0.765090	-0.067056
H219	H	0.024983	0.733720	-0.112324
H220	H	-0.067365	0.765090	-0.067053
H221	H	0.195442	0.765081	-0.067037
C222	C	0.553497	0.786200	-0.700388
N223	N	0.522890	0.847443	-0.706009
C224	C	0.135007	0.749902	-0.130012
N225	N	0.136555	0.796817	-0.181306
C226	C	0.501085	0.749893	-0.622824
N227	N	0.449793	0.796799	-0.671280
H228	H	0.518776	0.733721	-0.496618
H229	H	0.564037	0.765096	-0.326163
C230	C	0.708650	0.475773	-0.172868
N231	N	0.739240	0.414535	-0.117243
C232	C	0.553490	0.786215	-0.454838
N233	N	0.522878	0.847458	-0.510460
C234	C	0.761082	0.512071	-0.377175
N235	N	0.812373	0.465149	-0.328716
H236	H	0.743394	0.528243	-0.503373
H237	H	0.698112	0.496870	-0.673833
C238	C	0.708741	0.475760	-0.545159
N239	N	0.739428	0.414522	-0.489533
