data_functionalizedCrystal
_audit_creation_method	'MofGen! by Chris Wilmer'
_symmetry_space_group_name_H-M	'P1'
_symmetry_Int_Tables_number	1
_symmetry_cell_setting	triclinic
loop_
_symmetry_equiv_pos_as_xyz
  x,y,z
_cell_length_a	19.288867
_cell_length_b	19.288865
_cell_length_c	9.730223
_cell_angle_alpha	90.009035
_cell_angle_beta	90.001102
_cell_angle_gamma	83.136658
loop_
_atom_site_label
_atom_site_type_symbol
_atom_site_fract_x
_atom_site_fract_y
_atom_site_fract_z
O1	O	0.921346	0.086654	0.114257
O2	O	0.719085	0.098341	0.114273
O3	O	0.826060	-0.008633	0.114237
O4	O	0.814371	0.193628	0.114293
O5	O	0.826054	-0.008635	-0.114342
O6	O	0.719080	0.098339	-0.114307
O7	O	0.921340	0.086652	-0.114323
Zn8	Zn	0.820209	0.092495	-0.150607
Zn9	Zn	0.820216	0.092498	0.150557
O10	O	0.814365	0.193626	-0.114287
C11	C	0.693206	0.097964	-0.000016
C12	C	0.616102	0.096834	-0.000011
C13	C	0.060540	0.088699	0.124570
C14	C	0.132988	0.089756	0.124575
C15	C	0.169213	0.090287	-0.000023
C16	C	0.132988	0.089743	-0.124636
C17	C	0.060542	0.088678	-0.124638
C18	C	0.278538	0.132654	-0.095470
C19	C	0.350981	0.133722	-0.095463
C20	C	0.392659	0.093566	-0.000023
C21	C	0.361883	0.052350	0.095434
C22	C	0.289437	0.051286	0.095432
C23	C	0.247768	0.091440	-0.000035
C24	C	0.507432	0.095252	0.124589
C25	C	0.579882	0.096304	0.124589
C26	C	0.579879	0.096298	-0.124626
C27	C	0.507432	0.095238	-0.124623
C28	C	0.471213	0.094718	-0.000012
C29	C	0.825681	-0.034510	-0.000057
C30	C	0.824552	-0.111614	-0.000069
C31	C	0.887320	-0.156310	-0.000080
C32	C	0.886259	-0.228757	-0.000058
C33	C	0.822427	-0.256505	-0.000053
C34	C	0.759651	-0.211799	-0.000033
C35	C	0.760713	-0.139354	-0.000041
C36	C	0.772245	-0.364793	-0.080115
C37	C	0.771186	-0.437238	-0.080116
C38	C	0.819147	-0.479951	-0.000021
C39	C	0.868180	-0.450211	0.080055
C40	C	0.869243	-0.377766	0.080047
C41	C	0.821268	-0.335059	-0.000043
C42	C	0.880769	-0.603202	-0.000007
C43	C	0.879706	-0.675650	0.000023
C44	C	0.753096	-0.658691	0.000034
C45	C	0.754161	-0.586245	0.000018
C46	C	0.818000	-0.558505	-0.000010
C47	C	0.947219	0.087029	-0.000031
C48	C	1.024323	0.088159	-0.000027
C49	C	0.814744	0.219503	0.000010
C50	C	0.815873	0.296607	0.000031
N51	N	0.820209	0.092493	-0.356143
C52	C	0.867597	0.045142	-0.571977
C53	C	0.867592	0.045143	-0.428094
C54	C	0.772832	0.139850	-0.428083
C55	C	0.772840	0.139852	-0.571963
N56	N	0.820222	0.092494	0.356094
H57	H	0.264383	0.017726	0.173154
H58	H	0.701123	-0.681283	0.000046
N59	N	0.021477	0.088124	0.258966
H60	H	-0.014349	0.130729	0.264536
H61	H	0.055466	0.088598	0.337819
H62	H	0.906170	0.006586	-0.369533
N63	N	0.468356	0.094683	0.258975
H64	H	0.475199	0.137916	0.313464
H65	H	0.486744	0.051791	0.313331
H66	H	0.734254	0.178406	-0.369492
N67	N	0.718305	-0.469304	-0.166497
H68	H	0.669621	-0.450149	-0.136588
H69	H	0.724970	-0.521675	-0.154322
N70	N	0.956171	-0.126390	-0.000107
H71	H	0.995773	-0.165703	-0.000110
H72	H	0.959375	-0.096694	0.084627
H73	H	0.734261	0.178414	-0.630532
N74	N	0.172056	0.090344	0.258972
H75	H	0.196347	0.133834	0.264522
H76	H	0.207846	0.047709	0.264446
H77	H	0.609374	0.096728	-0.226077
N78	N	0.172054	0.090313	-0.259027
H79	H	0.223444	0.091072	-0.240120
H80	H	0.153623	0.133174	-0.313431
N81	N	0.406822	0.009038	0.198391
H82	H	0.457387	0.015962	0.183909
H83	H	0.400954	-0.041894	0.185602
H84	H	0.609369	0.096739	0.226055
N85	N	0.686461	-0.538031	0.000022
H86	H	0.645861	-0.566600	0.000028
H87	H	0.684143	-0.507613	-0.084719
H88	H	0.244610	0.165350	-0.173205
H89	H	0.477943	0.094801	-0.226083
N90	N	0.384173	0.178179	-0.198403
H91	H	0.346780	0.203451	-0.258875
H92	H	0.418414	0.147413	-0.257027
H93	H	0.031054	0.088241	-0.226103
H94	H	0.937374	-0.265155	-0.000062
H95	H	0.707678	-0.234396	-0.000026
N96	N	0.922122	-0.345688	0.166410
H97	H	0.952347	-0.383734	0.217154
H98	H	0.897003	-0.312200	0.234808
H99	H	0.733187	-0.330022	-0.145345
H100	H	0.907235	-0.484987	0.145277
N101	N	0.949619	-0.573276	-0.000031
H102	H	0.989223	-0.612587	-0.000024
H103	H	0.952819	-0.543575	0.084699
H104	H	0.709598	-0.102962	-0.000032
N105	N	0.947409	-0.723862	0.000016
H106	H	0.988008	-0.695293	-0.000007
H107	H	0.949717	-0.754300	-0.084717
H108	H	0.906178	0.006582	-0.630550
