data_functionalizedCrystal
_audit_creation_method	'MofGen! by Chris Wilmer'
_symmetry_space_group_name_H-M	'P1'
_symmetry_Int_Tables_number	1
_symmetry_cell_setting	triclinic
loop_
_symmetry_equiv_pos_as_xyz
  x,y,z
_cell_length_a	12.759401
_cell_length_b	12.827892
_cell_length_c	12.759393
_cell_angle_alpha	89.970218
_cell_angle_beta	89.979062
_cell_angle_gamma	90.016917
loop_
_atom_site_label
_atom_site_type_symbol
_atom_site_fract_x
_atom_site_fract_y
_atom_site_fract_z
Zn1	Zn	1.606261	-0.415940	-0.594025
Zn2	Zn	1.606150	-0.590717	-0.418348
Zn3	Zn	1.430560	-0.415996	-0.418361
Zn4	Zn	1.430550	-0.590644	-0.593985
O5	O	1.518380	-0.503324	-0.506180
O6	O	1.753268	-0.439132	-0.570733
O7	O	1.582816	-0.567594	-0.271328
O8	O	1.453918	-0.269752	-0.441685
O9	O	1.753186	-0.567540	-0.441663
O10	O	1.583005	-0.269711	-0.570745
O11	O	1.453810	-0.439227	-0.271338
O12	O	1.283538	-0.439156	-0.441646
O13	O	1.453900	-0.567416	-0.741011
O14	O	1.283530	-0.567469	-0.570676
O15	O	1.582995	-0.439061	-0.741041
O16	O	1.582806	-0.736944	-0.441624
O17	O	1.453793	-0.736890	-0.570664
C18	C	1.245413	-0.503312	-0.506159
C19	C	1.128636	-0.503331	-0.506175
C20	C	1.073798	-0.570246	-0.573255
C21	C	0.964074	-0.570250	-0.573276
C22	C	0.964036	-0.436422	-0.439127
C23	C	1.073758	-0.436413	-0.439112
C24	C	0.814177	-0.607747	-0.697137
C25	C	0.759335	-0.674678	-0.764208
C26	C	0.794932	-0.776661	-0.780157
C27	C	0.885369	-0.811735	-0.729020
C28	C	0.940205	-0.744809	-0.661941
C29	C	0.904610	-0.642811	-0.646012
C30	C	1.223657	-0.398927	-0.315250
C31	C	1.278495	-0.332006	-0.248165
C32	C	1.242901	-0.230021	-0.232205
C33	C	1.152461	-0.194951	-0.283324
C34	C	1.097622	-0.261872	-0.350409
C35	C	1.133224	-0.363856	-0.366370
C36	C	1.518315	-0.774834	-0.506161
C37	C	1.518383	-0.890987	-0.506188
C38	C	1.582298	-0.942764	-0.442406
C39	C	1.582370	-1.062814	-0.442433
C40	C	1.792414	-0.503338	-0.506201
C41	C	1.909190	-0.503344	-0.506210
C42	C	1.518459	-0.503224	-0.780213
C43	C	1.518492	-0.503181	-0.896990
C44	C	1.518475	-0.230754	-0.506221
C45	C	1.518515	-0.114601	-0.506239
C46	C	1.585717	-0.436336	-0.951869
C47	C	1.585735	-0.436291	-1.061593
C48	C	1.451301	-0.569945	-1.061549
C49	C	1.451278	-0.569984	-0.951827
C50	C	1.623348	-0.312997	-1.211570
C51	C	1.690589	-0.246161	-1.266452
C52	C	1.793102	-0.230136	-1.230861
C53	C	1.828395	-0.280963	-1.140388
C54	C	1.761160	-0.347806	-1.085511
C55	C	1.658632	-0.363811	-1.121101
C56	C	1.413676	-0.693280	-0.801849
C57	C	1.346445	-0.760130	-0.746969
C58	C	1.243930	-0.776165	-0.782559
C59	C	1.208641	-0.725357	-0.873035
C60	C	1.275872	-0.658507	-0.927914
C61	C	1.378385	-0.642470	-0.892317
C62	C	1.518363	-0.503349	-0.233212
C63	C	1.518533	-0.503097	-0.116436
H64	H	1.252653	-0.481969	-0.328248
N65	N	1.654854	-1.121795	-0.370101
H66	H	1.729919	-1.102779	-0.386462
H67	H	1.638494	-1.102903	-0.295026
N68	N	1.132985	-0.642418	-0.645587
H69	H	1.113932	-0.626278	-0.720684
H70	H	1.210796	-0.632232	-0.635310
H71	H	1.789896	-0.389192	-1.011853
H72	H	1.847850	-0.175716	-1.275554
H73	H	0.914338	-0.894784	-0.742002
H74	H	1.013836	-0.773365	-0.620305
N75	N	0.735780	-0.848856	-0.852490
H76	H	0.673089	-0.811165	-0.882460
H77	H	0.783385	-0.871722	-0.911402
N78	N	1.384488	-0.814929	-0.649375
H79	H	1.379976	-0.892850	-0.659757
H80	H	1.459615	-0.794545	-0.635189
H81	H	1.463720	-0.935536	-0.560818
H82	H	0.685702	-0.646111	-0.805845
N83	N	1.446020	-1.055631	-0.578569
H84	H	1.488703	-1.010270	-0.627244
H85	H	1.403430	-1.106754	-0.621084
N86	N	1.654714	-0.883773	-0.370036
H87	H	1.729800	-0.902636	-0.386407
H88	H	1.644311	-0.806394	-0.380304
H89	H	1.640444	-0.381938	-0.907224
H90	H	1.911875	-0.267917	-1.111422
N91	N	1.171407	-0.848269	-0.723380
H92	H	1.202566	-0.920612	-0.721384
H93	H	1.161977	-0.821708	-0.649477
N94	N	1.524246	-0.675978	-0.763453
H95	H	1.561478	-0.625912	-0.811941
H96	H	1.522265	-0.645846	-0.690367
N97	N	1.376042	-0.369832	-0.193028
H98	H	1.437599	-0.324962	-0.214126
H99	H	1.365508	-0.365285	-0.114710
N100	N	1.378793	-0.641978	-1.120695
H101	H	1.389002	-0.631808	-1.198532
H102	H	1.395095	-0.716626	-1.101515
H103	H	0.919341	-0.381941	-0.384525
H104	H	0.785193	-0.524701	-0.684168
H105	H	1.539872	-0.326030	-1.240552
N106	N	1.000073	-0.224053	-0.405546
H107	H	0.985840	-0.149290	-0.385258
H108	H	1.010576	-0.228680	-0.483863
N109	N	1.114055	-0.084955	-0.266110
H110	H	1.162518	-0.047882	-0.215858
H111	H	1.112948	-0.046571	-0.335230
N112	N	1.237825	-0.603691	-1.025498
H113	H	1.216309	-0.657125	-1.079477
H114	H	1.175730	-0.558305	-1.007449
N115	N	1.302038	-0.157843	-0.159837
H116	H	1.364729	-0.195532	-0.129865
H117	H	1.326437	-0.094680	-0.200359
N118	N	1.098073	-0.742651	-0.911435
H119	H	1.060837	-0.792707	-0.862940
H120	H	1.059426	-0.673963	-0.912590
H121	H	1.661844	-0.204778	-1.340116
