data_functionalizedCrystal
_audit_creation_method	'MofGen! by Chris Wilmer'
_symmetry_space_group_name_H-M	'P1'
_symmetry_Int_Tables_number	1
_symmetry_cell_setting	triclinic
loop_
_symmetry_equiv_pos_as_xyz
  x,y,z
_cell_length_a	19.288862
_cell_length_b	19.288865
_cell_length_c	17.766276
_cell_angle_alpha	89.986366
_cell_angle_beta	89.992012
_cell_angle_gamma	83.135763
loop_
_atom_site_label
_atom_site_type_symbol
_atom_site_fract_x
_atom_site_fract_y
_atom_site_fract_z
O1	O	-0.921335	-0.086645	0.062893
O2	O	-0.588002	0.246688	0.396226
O3	O	-0.254669	0.580021	0.729560
O4	O	-0.719075	-0.098336	0.062832
O5	O	-0.385741	0.234998	0.396165
O6	O	-0.052408	0.568331	0.729499
O7	O	-0.826049	0.008640	0.062849
O8	O	-0.492716	0.341973	0.396183
O9	O	-0.159383	0.675307	0.729516
O10	O	-0.814361	-0.193621	0.062876
O11	O	-0.481027	0.139713	0.396209
O12	O	-0.147694	0.473046	0.729542
O13	O	-0.826068	0.008654	-0.062339
O14	O	-0.492735	0.341987	0.270994
O15	O	-0.159401	0.675321	0.604328
O16	O	-0.719093	-0.098322	-0.062356
O17	O	-0.385760	0.235012	0.270977
O18	O	-0.052426	0.568345	0.604310
O19	O	-0.921354	-0.086631	-0.062295
O20	O	-0.588021	0.246702	0.271038
O21	O	-0.254687	0.580035	0.604371
Cu22	Cu	-0.820225	-0.092475	-0.073757
Cu23	Cu	-0.486892	0.240858	0.259577
Cu24	Cu	-0.153559	0.574191	0.592910
Cu25	Cu	-0.820203	-0.092492	0.074293
Cu26	Cu	-0.486870	0.240842	0.407627
Cu27	Cu	-0.153537	0.574175	0.740960
O28	O	-0.814379	-0.193607	-0.062313
O29	O	-0.481046	0.139726	0.271021
O30	O	-0.147712	0.473060	0.604354
C31	C	-0.693207	-0.097953	0.000230
C32	C	-0.359874	0.235381	0.333563
C33	C	-0.026541	0.568714	0.666896
C34	C	-0.616104	-0.096824	0.000206
C35	C	-0.282770	0.236509	0.333539
C36	C	0.050563	0.569842	0.666873
C37	C	-0.571407	-0.159593	0.000224
C38	C	-0.238074	0.173741	0.333557
C39	C	0.095259	0.507074	0.666890
C40	C	-0.498960	-0.158533	0.000228
C41	C	-0.165627	0.174801	0.333561
C42	C	0.167706	0.508134	0.666895
C43	C	-0.471213	-0.094701	0.000230
C44	C	-0.137879	0.238633	0.333563
C45	C	0.195454	0.571966	0.666896
C46	C	-0.515919	-0.031924	0.000208
C47	C	-0.182585	0.301409	0.333541
C48	C	0.150748	0.634742	0.666874
C49	C	-0.588364	-0.032986	0.000196
C50	C	-0.255031	0.300347	0.333529
C51	C	0.078302	0.633681	0.666862
C52	C	-0.362944	-0.044527	0.044102
C53	C	-0.029611	0.288806	0.377435
C54	C	0.303723	0.622139	0.710768
C55	C	-0.290499	-0.043468	0.044118
C56	C	0.042834	0.289865	0.377451
C57	C	0.376167	0.623198	0.710785
C58	C	-0.247767	-0.091423	0.000263
C59	C	0.085567	0.241910	0.333596
C60	C	0.418900	0.575244	0.666929
C61	C	-0.277486	-0.140449	-0.043599
C62	C	0.055847	0.192884	0.289734
C63	C	0.389181	0.526218	0.623067
C64	C	-0.349932	-0.141511	-0.043611
C65	C	-0.016598	0.191823	0.289722
C66	C	0.316735	0.525156	0.623056
C67	C	-0.392659	-0.093542	0.000242
C68	C	-0.059325	0.239791	0.333575
C69	C	0.274008	0.573124	0.666909
C70	C	-0.124514	-0.153046	0.000284
C71	C	0.208819	0.180287	0.333618
C72	C	0.542152	0.513620	0.666951
C73	C	-0.052066	-0.151983	0.000284
C74	C	0.281267	0.181350	0.333617
C75	C	0.614600	0.514683	0.666951
C76	C	-0.069026	-0.025373	0.000271
C77	C	0.264307	0.307960	0.333604
C78	C	0.597640	0.641293	0.666938
C79	C	-0.141473	-0.026438	0.000264
C80	C	0.191860	0.306896	0.333597
C81	C	0.525194	0.640229	0.666930
C82	C	-0.169212	-0.090276	0.000274
C83	C	0.164121	0.243057	0.333607
C84	C	0.497454	0.576391	0.666941
C85	C	0.052779	-0.087016	0.000295
C86	C	0.386112	0.246317	0.333629
C87	C	0.719446	0.579650	0.666962
C88	C	-0.024324	-0.088151	0.000284
C89	C	0.309010	0.245182	0.333618
C90	C	0.642343	0.578516	0.666951
N91	N	-0.820246	-0.092463	-0.177887
N92	N	-0.486912	0.240870	0.155446
N93	N	-0.153579	0.574203	0.488780
C94	C	-0.825683	0.034523	0.000253
C95	C	-0.492349	0.367857	0.333586
C96	C	-0.159016	0.701190	0.666920
C97	C	-0.824554	0.111627	0.000246
C98	C	-0.491220	0.444960	0.333579
C99	C	-0.157887	0.778294	0.666913
C100	C	-0.814746	-0.219490	0.000285
C101	C	-0.481413	0.113843	0.333619
C102	C	-0.148079	0.447176	0.666952
C103	C	-0.815875	-0.296594	0.000297
C104	C	-0.482542	0.036739	0.333631
C105	C	-0.149208	0.370073	0.666964
C106	C	-0.887321	0.156324	0.000261
C107	C	-0.553988	0.489657	0.333594
C108	C	-0.220655	0.822990	0.666928
C109	C	-0.886261	0.228771	0.000273
C110	C	-0.552927	0.562104	0.333606
C111	C	-0.219594	0.895437	0.666939
C112	C	-0.822429	0.256518	0.000254
C113	C	-0.489095	0.589851	0.333587
C114	C	-0.155762	0.923184	0.666921
C115	C	-0.759652	0.211811	0.000243
C116	C	-0.426319	0.545144	0.333576
C117	C	-0.092986	0.878478	0.666910
C118	C	-0.760715	0.139366	0.000239
C119	C	-0.427382	0.472699	0.333572
C120	C	-0.094048	0.806032	0.666906
C121	C	-0.772255	0.364810	-0.043612
C122	C	-0.438922	0.698143	0.289721
C123	C	-0.105589	1.031476	0.623055
C124	C	-0.771196	0.437254	-0.043613
C125	C	-0.437862	0.770587	0.289721
C126	C	-0.104529	1.103921	0.623054
C127	C	-0.819149	0.479963	0.000270
C128	C	-0.485816	0.813297	0.333603
C129	C	-0.152482	1.146630	0.666936
C130	C	-0.868174	0.450221	0.044143
C131	C	-0.534841	0.783554	0.377476
C132	C	-0.201507	1.116887	0.710810
C133	C	-0.869236	0.377775	0.044139
C134	C	-0.535903	0.711109	0.377472
C135	C	-0.202570	1.044442	0.710806
C136	C	-0.821269	0.335072	0.000259
C137	C	-0.487936	0.668405	0.333592
C138	C	-0.154603	1.001738	0.666925
C139	C	-0.880771	0.603216	0.000299
C140	C	-0.547438	0.936549	0.333632
C141	C	-0.214104	1.269883	0.666965
C142	C	-0.879708	0.675664	0.000315
C143	C	-0.546374	1.008998	0.333648
C144	C	-0.213041	1.342331	0.666982
C145	C	-0.753098	0.658703	0.000278
C146	C	-0.419764	0.992036	0.333611
C147	C	-0.086431	1.325370	0.666944
C148	C	-0.754163	0.586256	0.000269
C149	C	-0.420829	0.919590	0.333602
C150	C	-0.087496	1.252923	0.666936
C151	C	-0.818001	0.558518	0.000276
C152	C	-0.484668	0.891851	0.333609
C153	C	-0.151335	1.225184	0.666943
N154	N	-0.820188	-0.092498	0.178424
N155	N	-0.486855	0.240835	0.511757
N156	N	-0.153522	0.574168	0.845090
C157	C	-0.862096	-0.134600	0.217834
C158	C	-0.528763	0.198734	0.551167
C159	C	-0.195429	0.532067	0.884501
C160	C	-0.862100	-0.134600	0.296636
C161	C	-0.528767	0.198733	0.629969
C162	C	-0.195434	0.532067	0.963302
C163	C	-0.820205	-0.092486	0.336024
C164	C	-0.486872	0.240847	0.669358
C165	C	-0.153539	0.574180	1.002691
C166	C	-0.778289	-0.050383	0.296604
C167	C	-0.444956	0.282951	0.629938
C168	C	-0.111623	0.616284	0.963271
C169	C	-0.778281	-0.050388	0.217804
C170	C	-0.444947	0.282945	0.551137
C171	C	-0.111614	0.616278	0.884471
C172	C	-0.818619	-0.029834	0.460847
C173	C	-0.485285	0.303499	0.794180
C174	C	-0.151952	0.636832	1.127513
C175	C	-0.818632	-0.029827	0.539645
C176	C	-0.485299	0.303506	0.872979
C177	C	-0.151965	0.636840	1.206312
C178	C	-0.820228	-0.092469	0.579071
C179	C	-0.486894	0.240864	0.912404
C180	C	-0.153561	0.574198	1.245737
C181	C	-0.821824	-0.155119	0.539687
C182	C	-0.488491	0.178214	0.873020
C183	C	-0.155158	0.511548	1.206354
C184	C	-0.821816	-0.155125	0.460887
C185	C	-0.488483	0.178208	0.794220
C186	C	-0.155149	0.511542	1.127554
C187	C	-0.820210	-0.092476	0.421470
C188	C	-0.486876	0.240858	0.754803
C189	C	-0.153543	0.574191	1.088137
C190	C	-0.862142	-0.134574	0.703927
C191	C	-0.528809	0.198759	1.037260
C192	C	-0.195476	0.532092	1.370594
C193	C	-0.862142	-0.134576	0.782730
C194	C	-0.528809	0.198757	1.116063
C195	C	-0.195475	0.532090	1.449397
C196	C	-0.778335	-0.050352	0.782697
C197	C	-0.445002	0.282981	1.116030
C198	C	-0.111668	0.616314	1.449364
C199	C	-0.778331	-0.050357	0.703895
C200	C	-0.444998	0.282976	1.037229
C201	C	-0.111665	0.616310	1.370562
C202	C	-0.820239	-0.092467	0.664515
C203	C	-0.486906	0.240867	0.997848
C204	C	-0.153572	0.574200	1.331182
H205	H	-0.624757	0.018129	0.000182
H206	H	-0.291424	0.351462	0.333515
H207	H	0.041910	0.684796	0.666848
O208	O	-0.733161	-0.004920	0.825178
O209	O	-0.399828	0.328413	1.158511
O210	O	-0.066495	0.661747	1.491845
H211	H	-0.695679	-0.038242	0.861099
H212	H	-0.362346	0.295091	1.194432
H213	H	-0.029013	0.628424	1.527766
H214	H	-0.896263	-0.168866	0.671862
H215	H	-0.562929	0.164467	1.005195
H216	H	-0.229596	0.497801	1.338528
H217	H	-0.930823	0.712056	0.000332
H218	H	-0.597490	1.045390	0.333665
H219	H	-0.264157	1.378723	0.666998
H220	H	-0.731274	0.461464	-0.079333
H221	H	-0.397940	0.794798	0.254001
H222	H	-0.064607	1.128131	0.587334
O223	O	-0.231409	-0.192175	-0.090911
O224	O	0.101924	0.141159	0.242423
O225	O	0.435258	0.474492	0.575756
H226	H	-0.176041	-0.183196	-0.083544
H227	H	0.157292	0.150137	0.249789
H228	H	0.490626	0.483471	0.583122
H229	H	-0.397732	-0.005475	0.079818
H230	H	-0.064399	0.327858	0.413152
H231	H	0.268935	0.661191	0.746485
H232	H	-0.896267	-0.168865	0.814817
H233	H	-0.562933	0.164469	1.148150
H234	H	-0.229600	0.497802	1.481483
O235	O	-0.733101	-0.004948	0.339066
O236	O	-0.399768	0.328386	0.672399
O237	O	-0.066435	0.661719	1.005733
H238	H	-0.748496	0.050584	0.323901
H239	H	-0.415163	0.383917	0.657234
H240	H	-0.081830	0.717251	0.990567
H241	H	-0.147101	-0.205027	0.000282
H242	H	0.186233	0.128306	0.333615
H243	H	0.519566	0.461639	0.666948
O244	O	-0.816895	0.037734	0.418328
O245	O	-0.483562	0.371068	0.751661
O246	O	-0.150229	0.704401	1.084995
H247	H	-0.864134	0.047563	0.382421
H248	H	-0.530801	0.380896	0.715754
H249	H	-0.197468	0.714230	1.049087
O250	O	-0.953966	0.276988	0.000279
O251	O	-0.620632	0.610322	0.333612
O252	O	-0.287299	0.943655	0.666945
H253	H	-0.942500	0.332024	0.000281
H254	H	-0.609167	0.665357	0.333615
H255	H	-0.275833	0.998691	0.666948
H256	H	-0.374126	-0.181427	-0.079327
H257	H	-0.040793	0.151906	0.254006
H258	H	0.292541	0.485239	0.587339
O259	O	-0.733102	-0.004955	0.175289
O260	O	-0.399768	0.328378	0.508623
O261	O	-0.066435	0.661711	0.841956
H262	H	-0.703977	0.024339	0.215914
H263	H	-0.370644	0.357672	0.549247
H264	H	-0.037311	0.691006	0.882580
O265	O	-0.601318	-0.228449	0.000222
O266	O	-0.267985	0.104884	0.333555
O267	O	0.065349	0.438218	0.666888
H268	H	-0.633928	-0.231976	0.051243
H269	H	-0.300594	0.101357	0.384576
H270	H	0.032739	0.434691	0.717909
H271	H	-0.709600	0.102973	0.000226
H272	H	-0.376267	0.436306	0.333560
H273	H	-0.042933	0.769639	0.666893
H274	H	-0.817337	0.021187	0.571705
H275	H	-0.484004	0.354520	0.905039
H276	H	-0.150670	0.687854	1.238372
H277	H	-0.015674	-0.203099	0.000294
H278	H	0.317659	0.130234	0.333627
H279	H	0.650992	0.463568	0.666961
O280	O	-0.922099	0.345695	0.091470
O281	O	-0.588766	0.679028	0.424803
O282	O	-0.255432	1.012362	0.758136
H283	H	-0.975578	0.366794	0.073444
H284	H	-0.642245	0.700128	0.406777
H285	H	-0.308912	1.033461	0.740110
O286	O	-0.450738	-0.226234	0.000255
O287	O	-0.117404	0.107099	0.333589
O288	O	0.215929	0.440432	0.666922
H289	H	-0.482198	-0.270803	0.000266
H290	H	-0.148865	0.062531	0.333599
H291	H	0.184469	0.395864	0.666932
H292	H	-0.046435	0.026600	0.000319
H293	H	0.286898	0.359933	0.333652
H294	H	0.620231	0.693267	0.666986
H295	H	-0.939304	0.133744	0.000269
H296	H	-0.605971	0.467077	0.333603
H297	H	-0.272637	0.800411	0.666936
H298	H	-0.177866	0.024675	0.000253
H299	H	0.155467	0.358008	0.333587
H300	H	0.488801	0.691342	0.666920
O301	O	-0.690802	0.241731	0.000214
O302	O	-0.357469	0.575065	0.333547
O303	O	-0.024136	0.908398	0.666881
H304	H	-0.700608	0.299617	0.000209
H305	H	-0.367275	0.632950	0.333542
H306	H	-0.033941	0.966284	0.666876
O307	O	-0.733162	-0.004917	0.661380
O308	O	-0.399828	0.328416	0.994714
O309	O	-0.066495	0.661750	1.328047
H310	H	-0.704042	0.024381	0.702006
H311	H	-0.370708	0.357714	1.035339
H312	H	-0.037375	0.691047	1.368672
O313	O	-0.823534	-0.222695	0.418412
O314	O	-0.490200	0.110639	0.751745
O315	O	-0.156867	0.443972	1.085078
H316	H	-0.823265	-0.212170	0.356995
H317	H	-0.489932	0.121163	0.690328
H318	H	-0.156598	0.454496	1.023662
H319	H	-0.733204	0.330041	-0.079350
H320	H	-0.399871	0.663374	0.253983
H321	H	-0.066538	0.996707	0.587316
H322	H	-0.823124	-0.206128	0.571785
H323	H	-0.489791	0.127205	0.905119
H324	H	-0.156457	0.460538	1.238452
O325	O	-0.907287	-0.180022	0.175357
O326	O	-0.573954	0.153311	0.508691
O327	O	-0.240620	0.486645	0.842024
H328	H	-0.936425	-0.209303	0.216006
H329	H	-0.603091	0.124030	0.549340
H330	H	-0.269758	0.457364	0.882673
H331	H	-0.896226	-0.168887	0.328730
H332	H	-0.562892	0.164446	0.662063
H333	H	-0.229559	0.497780	0.995397
H334	H	-0.266308	-0.003551	0.079836
H335	H	0.067026	0.329782	0.413169
H336	H	0.400359	0.663115	0.746503
O337	O	-0.919906	0.496267	0.091480
O338	O	-0.586573	0.829600	0.424813
O339	O	-0.253240	1.162933	0.758147
H340	H	-0.891319	0.525490	0.132672
H341	H	-0.557986	0.858823	0.466006
H342	H	-0.224653	1.192157	0.799339
O343	O	-0.485998	0.036926	0.000210
O344	O	-0.152665	0.370259	0.333543
O345	O	0.180669	0.703592	0.666876
H346	H	-0.428112	0.027119	0.000228
H347	H	-0.094779	0.360453	0.333562
H348	H	0.238554	0.693786	0.666895
O349	O	-0.949621	0.573289	0.000321
O350	O	-0.616287	0.906622	0.333655
O351	O	-0.282954	1.239955	0.666988
H352	H	-0.993091	0.616544	0.000348
H353	H	-0.659758	0.949877	0.333682
H354	H	-0.326424	1.283211	0.667015
H355	H	-0.701124	0.681294	0.000266
H356	H	-0.367791	1.014627	0.333599
H357	H	-0.034457	1.347960	0.666933
O358	O	-0.686463	0.538040	0.000234
O359	O	-0.353130	0.871374	0.333567
O360	O	-0.019796	1.204707	0.666900
H361	H	-0.641897	0.569503	0.000214
H362	H	-0.308563	0.902836	0.333547
H363	H	0.024770	1.236170	0.666880
