data_functionalizedCrystal
_audit_creation_method	'MofGen! by Chris Wilmer'
_symmetry_space_group_name_H-M	'P1'
_symmetry_Int_Tables_number	1
_symmetry_cell_setting	triclinic
loop_
_symmetry_equiv_pos_as_xyz
  x,y,z
_cell_length_a	8.497374
_cell_length_b	8.497367
_cell_length_c	18.050591
_cell_angle_alpha	90.037463
_cell_angle_beta	90.009569
_cell_angle_gamma	90.038609
loop_
_atom_site_label
_atom_site_type_symbol
_atom_site_fract_x
_atom_site_fract_y
_atom_site_fract_z
Zn1	Zn	0.892803	0.628498	1.135528
Zn2	Zn	0.629222	0.892244	1.135597
Zn3	Zn	0.628994	0.628453	1.011372
Zn4	Zn	0.892917	0.892212	1.011429
O5	O	0.760984	0.760352	1.073481
O6	O	0.857886	0.663517	1.239462
O7	O	0.408429	0.857247	1.119123
O8	O	0.663845	0.407697	1.027788
O9	O	0.664234	0.857290	1.239512
O10	O	0.857664	0.407730	1.119005
O11	O	0.408262	0.663441	1.027855
O12	O	0.663956	0.663409	0.907455
O13	O	1.113664	0.857235	1.027886
O14	O	0.857860	0.857192	0.907497
O15	O	1.113580	0.663486	1.119061
O16	O	0.664345	1.113003	1.119178
O17	O	0.858081	1.112979	1.027953
C18	C	0.760897	0.760293	0.880529
C19	C	0.760897	0.760306	0.797983
C20	C	1.172464	0.760354	1.073476
C21	C	1.351108	0.760371	1.073477
C22	C	0.760838	1.348872	1.073430
C23	C	0.761127	1.170228	1.073523
C24	C	0.655695	0.654805	0.598488
C25	C	0.616997	0.798686	0.549145
C26	C	0.760968	0.760354	0.646853
C27	C	0.799661	0.616523	0.549114
C28	C	0.761034	0.760388	0.500868
C29	C	0.722196	0.904311	0.598597
C30	C	0.904927	0.722051	0.598571
C31	C	0.866284	0.866031	0.549250
C32	C	0.760926	0.760333	0.730951
C33	C	0.761076	0.760425	0.416771
C34	C	0.761072	0.760412	1.267187
C35	C	0.761110	0.760438	1.349733
H36	H	0.566572	0.565642	0.620109
H37	H	0.495282	0.831109	0.527435
C38	C	0.843844	0.452179	0.519756
N39	N	0.877112	0.328391	0.497647
C40	C	0.677818	1.068700	0.627834
N41	N	0.644386	1.192513	0.649856
H42	H	1.026605	0.689584	0.620299
H43	H	0.955339	0.955407	0.527765
