data_functionalizedCrystal
_audit_creation_method	'MofGen! by Chris Wilmer'
_symmetry_space_group_name_H-M	'P1'
_symmetry_Int_Tables_number	1
_symmetry_cell_setting	triclinic
loop_
_symmetry_equiv_pos_as_xyz
  x,y,z
_cell_length_a	29.019771
_cell_length_b	29.019011
_cell_length_c	29.015668
_cell_angle_alpha	60.004890
_cell_angle_beta	60.009825
_cell_angle_gamma	59.993818
loop_
_atom_site_label
_atom_site_type_symbol
_atom_site_fract_x
_atom_site_fract_y
_atom_site_fract_z
O1	O	0.063866	-0.673289	0.563007
O2	O	0.563866	-0.173289	1.063007
O3	O	0.024059	-0.524205	0.453633
O4	O	0.524059	-0.024205	0.953633
O5	O	0.118464	-0.618532	0.453552
O6	O	0.618464	-0.118532	0.953552
O7	O	-0.030540	-0.578962	0.563088
O8	O	0.469460	-0.078962	1.063088
O9	O	0.149785	-0.587215	0.484789
O10	O	0.649785	-0.087215	0.984789
O11	O	0.055379	-0.492888	0.484869
O12	O	0.555379	0.007112	0.984869
O13	O	0.095186	-0.641972	0.594244
O14	O	0.595186	-0.141972	1.094244
Cu15	Cu	0.078143	-0.564571	0.542409
Cu16	Cu	0.578143	-0.064571	1.042409
Cu17	Cu	0.041102	-0.601606	0.505468
Cu18	Cu	0.541102	-0.101606	1.005468
O19	O	0.000781	-0.547645	0.594325
O20	O	0.500781	-0.047645	1.094325
N21	N	0.104196	-0.538525	0.568394
N22	N	0.604196	-0.038525	1.068394
N23	N	0.015054	-0.627656	0.479483
N24	N	0.515054	-0.127656	0.979483
C25	C	0.143783	-0.499167	0.850823
C26	C	0.643783	0.000833	1.350823
C27	C	0.386758	-0.499111	0.607645
C28	C	0.886758	0.000889	1.107645
C29	C	0.143618	-0.499136	0.607763
C30	C	0.643618	0.000864	1.107763
C31	C	0.143598	-0.256029	0.607770
C32	C	0.643598	0.243971	1.107770
C33	C	0.182748	-0.373362	0.646852
C34	C	0.682748	0.126638	1.146852
C35	C	0.182758	-0.460025	0.646847
C36	C	0.682758	0.039975	1.146847
C37	C	0.204440	-0.438361	0.668500
C38	C	0.704440	0.061639	1.168500
C39	C	0.298958	-0.422064	0.618723
C40	C	0.798958	0.077936	1.118723
C41	C	0.358043	-0.441753	0.599006
C42	C	0.858043	0.058247	1.099006
C43	C	0.358069	-0.537354	0.635461
C44	C	0.858069	-0.037354	1.135461
C45	C	0.298985	-0.517664	0.655180
C46	C	0.798985	-0.017664	1.155180
C47	C	0.196983	-0.343808	0.588767
C48	C	0.696983	0.156192	1.088767
C49	C	0.177262	-0.284720	0.569090
C50	C	0.677262	0.215280	1.069090
C51	C	0.129075	-0.284743	0.665586
C52	C	0.629075	0.215257	1.165586
C53	C	0.148797	-0.343831	0.685263
C54	C	0.648797	0.156169	1.185263
C55	C	0.124666	-0.445760	0.661149
C56	C	0.624666	0.054240	1.161149
C57	C	0.104961	-0.465454	0.641458
C58	C	0.604961	0.034546	1.141458
C59	C	0.201435	-0.513678	0.593176
C60	C	0.701435	-0.013678	1.093176
C61	C	0.221143	-0.493984	0.612860
C62	C	0.721143	0.006016	1.112860
C63	C	0.124738	-0.445777	0.763064
C64	C	0.624738	0.054223	1.263064
C65	C	0.105085	-0.465488	0.822151
C66	C	0.605085	0.034512	1.322151
C67	C	0.201594	-0.513722	0.822097
C68	C	0.701594	-0.013722	1.322097
C69	C	0.221247	-0.494012	0.763009
C70	C	0.721247	0.005988	1.263009
C71	C	0.182817	-0.460038	0.733494
C72	C	0.682817	0.039962	1.233494
C73	C	0.269432	-0.460018	0.646809
C74	C	0.769432	0.039982	1.146809
C75	C	0.121399	-0.520450	0.915812
C76	C	0.621399	-0.020450	1.415812
C77	C	0.451745	-0.520012	0.585655
C78	C	0.951745	-0.020012	1.085655
C79	C	0.121177	-0.520429	0.586502
C80	C	0.621177	-0.020429	1.086502
C81	C	0.121544	-0.191035	0.586883
C82	C	0.621544	0.308965	1.086883
C83	C	-0.110592	-0.666601	0.440035
C84	C	0.389408	-0.166601	0.940035
C85	C	-0.023978	-0.666709	0.440231
C86	C	0.476022	-0.166709	0.940231
C87	C	-0.045598	-0.688342	0.418486
C88	C	0.454402	-0.188342	0.918486
C89	C	-0.061967	-0.782825	0.468184
C90	C	0.438033	-0.282825	0.968184
C91	C	-0.042323	-0.841914	0.487907
C92	C	0.457677	-0.341914	0.987907
C93	C	0.053280	-0.842025	0.451623
C94	C	0.553280	-0.342025	0.951623
C95	C	0.033634	-0.782937	0.431899
C96	C	0.533634	-0.282937	0.931899
C97	C	-0.140218	-0.680832	0.498102
C98	C	0.359782	-0.180832	0.998102
C99	C	-0.199302	-0.661065	0.517690
C100	C	0.300698	-0.161065	1.017690
C101	C	-0.199129	-0.612843	0.421140
C102	C	0.300871	-0.112843	0.921140
C103	C	-0.140045	-0.632610	0.401552
C104	C	0.359955	-0.132610	0.901552
C105	C	-0.038209	-0.608622	0.425941
C106	C	0.461791	-0.108622	0.925941
C107	C	-0.018555	-0.588961	0.445716
C108	C	0.481445	-0.088961	0.945716
C109	C	0.029562	-0.685470	0.494059
C110	C	0.529562	-0.185470	0.994059
C111	C	0.009908	-0.705133	0.474291
C112	C	0.509908	-0.205133	0.974291
C113	C	-0.038037	-0.608631	0.323917
C114	C	0.461963	-0.108631	0.823917
C115	C	-0.018247	-0.588973	0.264830
C116	C	0.481753	-0.088973	0.764830
C117	C	0.029955	-0.685489	0.264893
C118	C	0.529955	-0.185489	0.764893
C119	C	0.010165	-0.705145	0.323981
C120	C	0.510165	-0.205145	0.823981
C121	C	-0.023833	-0.666715	0.353492
C122	C	0.476167	-0.166715	0.853492
C123	C	-0.023990	-0.753339	0.440182
C124	C	0.476010	-0.253339	0.940182
N125	N	0.504925	-0.538487	0.568205
N126	N	1.004925	-0.038487	1.068205
O127	O	0.685342	-0.543679	0.433426
O128	O	1.185342	-0.043679	0.933426
O129	O	0.685533	-0.653395	0.582361
O130	O	1.185533	-0.153395	1.082361
O131	O	0.685457	-0.653145	0.487904
O132	O	1.185457	-0.153145	0.987904
O133	O	0.685418	-0.543929	0.527882
O134	O	1.185418	-0.043929	1.027882
O135	O	0.591592	-0.621921	0.519268
O136	O	1.091592	-0.121921	1.019268
O137	O	0.591667	-0.622171	0.613725
O138	O	1.091667	-0.122171	1.113725
O139	O	0.591477	-0.512455	0.464790
O140	O	1.091477	-0.012455	0.964790
Cu141	Cu	0.583001	-0.564462	0.542121
Cu142	Cu	1.083001	-0.064462	1.042121
Cu143	Cu	0.694008	-0.601388	0.505029
Cu144	Cu	1.194008	-0.101388	1.005029
O145	O	0.591553	-0.512705	0.559246
O146	O	1.091553	-0.012705	1.059246
N147	N	0.772084	-0.627363	0.478939
N148	N	1.272084	-0.127363	0.978939
N149	N	0.104168	-0.137853	0.568408
N150	N	0.604168	0.362147	1.068408
O151	O	-0.030538	0.042663	0.563097
O152	O	0.469462	0.542663	1.063097
O153	O	0.118403	0.042683	0.453379
O154	O	0.618403	0.542683	0.953379
O155	O	0.023918	0.042657	0.453664
O156	O	0.523918	0.542657	0.953664
O157	O	0.063947	0.042689	0.562813
O158	O	0.563947	0.542689	1.062813
O159	O	0.055242	-0.051215	0.484950
O160	O	0.555242	0.448785	0.984950
O161	O	0.149727	-0.051189	0.484666
O162	O	0.649727	0.448811	0.984666
O163	O	0.000787	-0.051210	0.594384
O164	O	0.500787	0.448790	1.094384
Cu165	Cu	0.078117	-0.059771	0.542381
Cu166	Cu	0.578117	0.440229	1.042381
Cu167	Cu	0.041072	0.051244	0.505382
Cu168	Cu	0.541072	0.551244	1.005382
O169	O	0.095272	-0.051184	0.594099
O170	O	0.595272	0.448816	1.094099
N171	N	0.015015	0.129326	0.479356
N172	N	0.515015	0.629326	0.979356
N173	N	0.104469	-0.538576	0.968995
N174	N	0.604469	-0.038576	1.468995
O175	O	0.099171	-0.673268	1.149499
O176	O	0.599171	-0.173268	1.649499
O177	O	-0.010519	-0.524279	1.149527
O178	O	0.489481	-0.024279	1.649527
O179	O	-0.010265	-0.618748	1.149494
O180	O	0.489735	-0.118748	1.649494
O181	O	0.098916	-0.578799	1.149533
O182	O	0.598916	-0.078799	1.649533
O183	O	0.021008	-0.587443	1.055625
O184	O	0.521008	-0.087443	1.555625
O185	O	0.020753	-0.492974	1.055659
O186	O	0.520753	0.007026	1.555659
O187	O	0.130444	-0.641963	1.055630
O188	O	0.630444	-0.141963	1.555630
Cu189	Cu	0.078454	-0.564610	1.047074
Cu190	Cu	0.578454	-0.064610	1.547074
Cu191	Cu	0.041470	-0.601632	1.158084
Cu192	Cu	0.541470	-0.101632	1.658084
O193	O	0.130189	-0.547494	1.055664
O194	O	0.630189	-0.047494	1.555664
N195	N	0.015455	-0.627672	1.236163
N196	N	0.515455	-0.127672	1.736163
C197	C	0.035988	-0.489761	0.454182
C198	C	0.535988	0.010239	0.954182
C199	C	0.152897	-0.606574	0.454082
C200	C	0.652897	-0.106574	0.954082
C201	C	0.083257	-0.676417	0.593694
C202	C	0.583257	-0.176417	1.093694
C203	C	-0.033653	-0.559604	0.593794
C204	C	0.466347	-0.059604	1.093794
C205	C	0.638623	-0.652892	0.616806
C206	C	1.138623	-0.152892	1.116806
C207	C	0.638531	-0.652583	0.499833
C208	C	1.138531	-0.152583	0.999833
C209	C	0.638384	-0.512957	0.430345
C210	C	1.138384	-0.012957	0.930345
C211	C	0.638480	-0.513267	0.547317
C212	C	1.138480	-0.013267	1.047317
C213	C	0.152789	-0.004135	0.453875
C214	C	0.652789	0.495865	0.953875
C215	C	0.035820	-0.004282	0.454266
C216	C	0.535820	0.495718	0.954266
C217	C	-0.033639	-0.004275	0.593849
C218	C	0.466361	0.495725	1.093849
C219	C	0.083370	-0.004245	0.593498
C220	C	0.583370	0.495755	1.093498
C221	C	-0.009989	-0.489856	1.102597
C222	C	0.490011	0.010144	1.602597
C223	C	-0.009667	-0.606839	1.102536
C224	C	0.490333	-0.106839	1.602536
C225	C	0.129914	-0.676386	1.102561
C226	C	0.629914	-0.176386	1.602561
C227	C	0.129599	-0.559396	1.102601
C228	C	0.629599	-0.059396	1.602601
H229	H	0.093440	-0.418108	0.739036
H230	H	0.593440	0.081892	1.239036
N231	N	-0.055605	-0.433176	1.102603
N232	N	0.444395	0.066824	1.602603
H233	H	-0.065060	-0.425836	1.137406
H234	H	0.434940	0.074164	1.637406
H235	H	-0.090418	-0.433127	1.102573
H236	H	0.409582	0.066873	1.602573
N237	N	0.094519	-0.733144	0.639197
N238	N	0.594519	-0.233144	1.139197
H239	H	0.066821	-0.751181	0.650153
H240	H	0.566821	-0.251181	1.150153
H241	H	0.090052	-0.727920	0.673282
H242	H	0.590052	-0.227920	1.173282
N243	N	0.175527	-0.733068	1.102563
N244	N	0.675527	-0.233068	1.602563
H245	H	0.184983	-0.740416	1.067763
H246	H	0.684983	-0.240416	1.567763
H247	H	0.161750	-0.763571	1.137380
H248	H	0.661750	-0.263571	1.637380
H249	H	-0.043953	-0.615372	1.102487
H250	H	0.456047	-0.115372	1.602487
H251	H	0.195693	-0.615009	0.419684
H252	H	0.695693	-0.115009	0.919684
N253	N	0.638309	-0.467330	0.373688
N254	N	1.138309	0.032670	0.873688
H255	H	0.673085	-0.456382	0.355696
H256	H	1.173085	0.043618	0.855696
H257	H	0.603470	-0.433264	0.378993
H258	H	1.103470	0.066736	0.878993
N259	N	0.094723	-0.004224	0.638913
N260	N	0.594723	0.495776	1.138913
H261	H	0.127468	-0.039015	0.648257
H262	H	0.627468	0.460985	1.148257
H263	H	0.060038	-0.004203	0.673826
H264	H	0.560038	0.495797	1.173826
N265	N	0.024726	-0.433032	0.408681
N266	N	0.524726	0.066968	0.908681
H267	H	-0.008003	-0.425730	0.399312
H268	H	0.491997	0.074270	0.899312
H269	H	0.059444	-0.432878	0.373800
H270	H	0.559444	0.067122	0.873800
N271	N	-0.090342	-0.548441	0.639358
N272	N	0.409658	-0.048441	1.139358
H273	H	-0.115539	-0.508728	0.624828
H274	H	0.384461	-0.008728	1.124828
H275	H	-0.085077	-0.552980	0.673451
H276	H	0.414923	-0.052980	1.173451
N277	N	-0.090292	-0.004291	0.639482
N278	N	0.409708	0.495709	1.139482
H279	H	-0.108266	0.030506	0.650404
H280	H	0.391734	0.530506	1.150404
H281	H	-0.084983	-0.039114	0.673557
H282	H	0.415017	0.460886	1.173557
H283	H	0.163899	-0.550848	1.102605
H284	H	0.663899	-0.050848	1.602605
N285	N	0.042438	-0.450092	0.854037
N286	N	0.542438	0.049908	1.354037
H287	H	0.035816	-0.467730	0.895947
H288	H	0.535816	0.032270	1.395947
H289	H	0.024801	-0.464525	0.843719
H290	H	0.524801	0.035475	1.343719
N291	N	0.024448	-0.004319	0.408872
N292	N	0.524448	0.495681	0.908872
H293	H	0.028883	0.030472	0.374715
H294	H	0.528883	0.530472	0.874715
H295	H	-0.015281	-0.004356	0.423607
H296	H	0.484719	0.495644	0.923607
N297	N	0.243043	-0.550347	0.853928
N298	N	0.743043	-0.050347	1.353928
H299	H	0.282818	-0.556386	0.826227
H300	H	0.782818	-0.056386	1.326227
H301	H	0.237002	-0.587992	0.878443
H302	H	0.737002	-0.087992	1.378443
H303	H	0.268542	-0.505632	0.738936
H304	H	0.768542	-0.005632	1.238936
H305	H	0.638471	-0.478960	0.555871
H306	H	1.138471	0.021040	1.055871
N307	N	0.638687	-0.698519	0.673465
N308	N	1.138687	-0.198519	1.173465
H309	H	0.638696	-0.684046	0.698697
H310	H	1.138696	-0.184046	1.198697
H311	H	0.673503	-0.732603	0.668159
H312	H	1.173503	-0.232603	1.168159
N313	N	0.638550	-0.698030	0.488501
N314	N	1.138550	-0.198030	0.988501
H315	H	0.603781	-0.709003	0.516193
H316	H	1.103781	-0.209003	1.016193
H317	H	0.673396	-0.732121	0.492929
H318	H	1.173396	-0.232121	0.992929
N319	N	0.083267	-0.409127	0.697797
N320	N	0.583267	0.090873	1.197797
H321	H	0.043476	-0.403074	0.703862
H322	H	0.543476	0.096926	1.203862
H323	H	0.089327	-0.371489	0.678604
H324	H	0.589327	0.128511	1.178604
H325	H	-0.065797	-0.577331	0.398207
H326	H	0.434203	-0.077331	0.898207
N327	N	0.209299	-0.003747	0.408083
N328	N	0.709299	0.496253	0.908083
H329	H	0.240040	-0.038451	0.421597
H330	H	0.740040	0.461549	0.921597
H331	H	0.216380	0.031168	0.398730
H332	H	0.716380	0.531168	0.898730
N333	N	0.042305	-0.450075	0.656882
N334	N	0.542305	0.049925	1.156882
H335	H	0.020978	-0.425577	0.681403
H336	H	0.520978	0.074423	1.181403
H337	H	0.032057	-0.485618	0.678170
H338	H	0.532057	0.014382	1.178170
N339	N	-0.124119	-0.750908	0.477117
N340	N	0.375881	-0.250908	0.977117
H341	H	-0.129903	-0.726397	0.439350
H342	H	0.370097	-0.226397	0.939350
H343	H	-0.138863	-0.726416	0.500155
H344	H	0.361137	-0.226416	1.000155
N345	N	0.242836	-0.550311	0.556529
N346	N	0.742836	-0.050311	1.056529
H347	H	0.282625	-0.556127	0.550229
H348	H	0.782625	-0.056127	1.050229
H349	H	0.236556	-0.531247	0.519004
H350	H	0.736556	-0.031247	1.019004
N351	N	0.066611	-0.726938	0.233068
N352	N	0.566611	-0.226938	0.733068
H353	H	0.072604	-0.766717	0.260772
H354	H	0.572604	-0.266717	0.760772
H355	H	0.104271	-0.720924	0.208619
H356	H	0.604271	-0.220924	0.708619
N357	N	0.283797	-0.509353	0.597438
N358	N	0.783797	-0.009353	1.097438
H359	H	0.301431	-0.494900	0.555051
H360	H	0.801431	0.005100	1.055051
H361	H	0.301443	-0.551740	0.611895
H362	H	0.801443	-0.051740	1.111895
H363	H	0.274946	-0.548573	0.678050
H364	H	0.774946	-0.048573	1.178050
H365	H	0.382082	-0.410845	0.576135
H366	H	0.882082	0.089155	1.076135
N367	N	0.389949	-0.599529	0.644479
N368	N	0.889949	-0.099529	1.144479
H369	H	0.362279	-0.620586	0.665263
H370	H	0.862279	-0.120586	1.165263
H371	H	0.414485	-0.614237	0.667462
H372	H	0.914485	-0.114237	1.167462
H373	H	0.274901	-0.375125	0.611905
H374	H	0.774901	0.124875	1.111905
H375	H	0.188851	-0.260656	0.521790
H376	H	0.688851	0.239344	1.021790
N377	N	0.233604	-0.375662	0.547342
N378	N	0.733604	0.124338	1.047342
H379	H	0.239625	-0.347972	0.507559
H380	H	0.739625	0.152028	1.007559
H381	H	0.214419	-0.400183	0.553421
H382	H	0.714419	0.099817	1.053421
H383	H	0.101438	-0.260698	0.696864
H384	H	0.601438	0.239302	1.196864
H385	H	-0.029822	-0.541673	0.240758
H386	H	0.470178	-0.041673	0.740758
N387	N	0.133442	-0.375712	0.747915
N388	N	0.633442	0.124288	1.247915
H389	H	0.108940	-0.348038	0.769262
H390	H	0.608940	0.151962	1.269262
H391	H	0.168990	-0.400225	0.758170
H392	H	0.668990	0.099775	1.258170
N393	N	-0.033902	-0.526311	0.430318
N394	N	0.466098	-0.026311	0.930318
H395	H	-0.076285	-0.508601	0.444684
H396	H	0.423715	-0.008601	0.944684
H397	H	-0.019360	-0.508712	0.387935
H398	H	0.480640	-0.008712	0.887935
N399	N	-0.074704	-0.567183	0.355750
N400	N	0.425296	-0.067183	0.855750
H401	H	-0.112384	-0.573155	0.380200
H402	H	0.387616	-0.073155	0.880200
H403	H	-0.080658	-0.527421	0.328016
H404	H	0.419342	-0.027421	0.828016
N405	N	0.025493	-0.767796	0.355879
N406	N	0.525493	-0.267796	0.855879
H407	H	0.050030	-0.789156	0.328217
H408	H	0.550030	-0.289156	0.828217
H409	H	-0.010064	-0.778022	0.380333
H410	H	0.489936	-0.278022	0.880333
N411	N	0.066100	-0.726914	0.530801
N412	N	0.566100	-0.226914	1.030801
H413	H	0.072127	-0.766694	0.536854
H414	H	0.572127	-0.266694	1.036854
H415	H	0.046844	-0.720814	0.568429
H416	H	0.546844	-0.220814	1.068429
H417	H	0.021495	-0.752433	0.485928
H418	H	0.521495	-0.252433	0.985928
H419	H	0.064563	-0.758931	0.409098
H420	H	0.564563	-0.258931	0.909098
H421	H	-0.073247	-0.865920	0.510699
H422	H	0.426753	-0.365920	1.010699
N423	N	0.115432	-0.873954	0.442699
N424	N	0.615432	-0.373954	0.942699
H425	H	0.136511	-0.846309	0.421966
H426	H	0.636511	-0.346309	0.921966
H427	H	0.130163	-0.898480	0.419699
H428	H	0.630163	-0.398480	0.919699
H429	H	-0.116238	-0.708516	0.529438
H430	H	0.383762	-0.208516	1.029438
H431	H	-0.223112	-0.585171	0.389803
H432	H	0.276888	-0.085171	0.889803
N433	N	-0.231261	-0.676406	0.580323
N434	N	0.268739	-0.176406	1.080323
H435	H	-0.203637	-0.700940	0.601729
H436	H	0.296363	-0.200940	1.101729
H437	H	-0.255784	-0.697659	0.590537
H438	H	0.244216	-0.197659	1.090537
H439	H	-0.115923	-0.621016	0.354266
H440	H	0.384077	-0.121016	0.854266
