data_functionalizedCrystal
_audit_creation_method	'MofGen! by Chris Wilmer'
_symmetry_space_group_name_H-M	'P1'
_symmetry_Int_Tables_number	1
_symmetry_cell_setting	triclinic
loop_
_symmetry_equiv_pos_as_xyz
  x,y,z
_cell_length_a	17.038275
_cell_length_b	17.019380
_cell_length_c	16.098538
_cell_angle_alpha	91.149481
_cell_angle_beta	87.070567
_cell_angle_gamma	92.753252
loop_
_atom_site_label
_atom_site_type_symbol
_atom_site_fract_x
_atom_site_fract_y
_atom_site_fract_z
O1	O	-1.041332	0.167433	0.081128
O2	O	-0.541332	0.667433	0.581128
O3	O	-0.813695	0.164720	0.080961
O4	O	-0.313695	0.664720	0.580961
O5	O	-0.933445	0.052059	0.072872
O6	O	-0.433445	0.552059	0.572872
O7	O	-0.921581	0.280093	0.089217
O8	O	-0.421581	0.780093	0.589217
O9	O	-0.926450	0.058613	-0.065170
O10	O	-0.426450	0.558613	0.434830
O11	O	-0.806700	0.171274	-0.057081
O12	O	-0.306700	0.671274	0.442919
O13	O	-1.034337	0.173986	-0.056915
O14	O	-0.534337	0.673986	0.443085
Zn15	Zn	-0.919407	0.173670	-0.078915
Zn16	Zn	-0.419407	0.673670	0.421085
Zn17	Zn	-0.928624	0.165036	0.102962
Zn18	Zn	-0.428624	0.665036	0.602962
O19	O	-0.914586	0.286647	-0.048826
O20	O	-0.414586	0.786647	0.451174
C21	C	-0.781062	0.165531	0.011767
C22	C	-0.281062	0.665531	0.511767
C23	C	-0.694249	0.158176	0.011251
C24	C	-0.194249	0.658176	0.511251
C25	C	-0.644325	0.225705	0.016091
C26	C	-0.144325	0.725705	0.516091
C27	C	-0.562754	0.218790	0.015585
C28	C	-0.062754	0.718790	0.515585
C29	C	-0.531110	0.144344	0.010245
C30	C	-0.031110	0.644344	0.510245
C31	C	-0.581041	0.076809	0.005402
C32	C	-0.081041	0.576809	0.505402
C33	C	-0.662610	0.083726	0.005902
C34	C	-0.162610	0.583726	0.505902
C35	C	-0.285283	0.119910	0.008475
C36	C	0.214717	0.619910	0.508475
C37	C	-0.203708	0.112998	0.007978
C38	C	0.296292	0.612998	0.507978
C39	C	-0.185427	0.254979	0.018160
C40	C	0.314573	0.754979	0.518160
C41	C	-0.266998	0.261889	0.018665
C42	C	0.233002	0.761889	0.518665
C43	C	-0.316921	0.194355	0.013817
C44	C	0.183079	0.694355	0.513817
C45	C	-0.447733	0.137273	0.009730
C46	C	0.052267	0.637273	0.509730
C47	C	-0.400297	0.201426	0.014326
C48	C	0.099703	0.701426	0.514326
C49	C	-0.929359	0.026015	0.001751
C50	C	-0.429359	0.526015	0.501751
C51	C	-0.927594	-0.061354	-0.004505
C52	C	-0.427594	0.438646	0.495495
C53	C	-0.066970	0.173174	0.012285
C54	C	0.433030	0.673174	0.512285
C55	C	-0.153784	0.180528	0.012818
C56	C	0.346216	0.680528	0.512818
C57	C	-0.918673	0.312692	0.022297
C58	C	-0.418673	0.812692	0.522297
C59	C	-0.920438	0.400060	0.028559
C60	C	-0.420438	0.900060	0.528559
C61	C	-0.917453	0.444684	-0.043742
C62	C	-0.417453	0.944684	0.456258
C63	C	-0.919102	0.526776	-0.037848
C64	C	-0.419102	1.026776	0.462152
C65	C	-0.923741	0.564244	0.040346
C66	C	-0.423741	1.064244	0.540346
C67	C	-0.926723	0.519614	0.112652
C68	C	-0.426723	1.019614	0.612652
C69	C	-0.925069	0.437523	0.106758
C70	C	-0.425069	0.937523	0.606758
C71	C	-0.928922	0.811926	0.061907
C72	C	-0.428922	1.311926	0.561907
C73	C	-0.930579	0.894022	0.067795
C74	C	-0.430579	1.394022	0.567795
C75	C	-0.922956	0.901179	-0.082705
C76	C	-0.422956	1.401179	0.417295
C77	C	-0.921306	0.819086	-0.088593
C78	C	-0.421306	1.319086	0.411407
C79	C	-0.924285	0.774464	-0.016287
C80	C	-0.424285	1.274464	0.483713
C81	C	-0.925429	0.648155	0.046372
C82	C	-0.425429	1.148155	0.546372
C83	C	-0.922591	0.690554	-0.022313
C84	C	-0.422591	1.190554	0.477687
N85	N	-0.913123	0.179563	-0.203041
N86	N	-0.413123	0.679563	0.296959
C87	C	-0.963969	0.131765	-0.250058
C88	C	-0.463969	0.631765	0.249942
C89	C	-0.959580	0.135895	-0.336951
C90	C	-0.459580	0.635895	0.163049
C91	C	-0.904348	0.187828	-0.376824
C92	C	-0.404348	0.687828	0.123176
C93	C	-0.853497	0.235628	-0.329801
C94	C	-0.353497	0.735628	0.170199
C95	C	-0.857883	0.231494	-0.242910
C96	C	-0.357883	0.731494	0.257090
C97	C	-0.888449	0.202803	-0.638999
C98	C	-0.388449	0.702803	-0.138999
C99	C	-0.884069	0.206936	-0.725896
C100	C	-0.384069	0.706936	-0.225896
C101	C	-0.990151	0.107201	-0.733040
C102	C	-0.490151	0.607201	-0.233040
C103	C	-0.994535	0.103074	-0.646147
C104	C	-0.494535	0.603074	-0.146147
C105	C	-0.943681	0.150872	-0.599131
C106	C	-0.443681	0.650872	-0.099131
C107	C	-0.899862	0.192053	-0.465642
C108	C	-0.399862	0.692053	0.034358
C109	C	-0.948164	0.146642	-0.510315
C110	C	-0.448164	0.646642	-0.010315
N111	N	-0.934915	0.159137	0.227087
N112	N	-0.434915	0.659137	0.727087
H113	H	-0.292757	0.322510	0.023023
H114	H	0.207243	0.822510	0.523023
C115	C	-0.917487	0.649338	-0.108325
C116	C	-0.417487	1.149338	0.391675
N117	N	-0.913645	0.618287	-0.173109
N118	N	-0.413645	1.118287	0.326891
C119	C	-0.932279	0.762847	0.141446
C120	C	-0.432279	1.262847	0.641446
N121	N	-0.934836	0.725876	0.201358
N122	N	-0.434836	1.225876	0.701358
H123	H	-0.839091	0.249229	-0.758356
H124	H	-0.339091	0.749229	-0.258356
H125	H	-0.993131	0.104355	-0.477848
H126	H	-0.493131	0.604355	0.022152
H127	H	-0.930496	0.550127	0.176319
H128	H	-0.430496	1.050127	0.676319
H129	H	-0.927495	0.401192	0.165633
H130	H	-0.427495	0.901192	0.665633
C131	C	-1.024728	0.074633	-0.206206
C132	C	-0.524728	0.574633	0.293794
N133	N	-1.070490	0.031598	-0.173179
N134	N	-0.570490	0.531598	0.326821
C135	C	-0.839104	0.249173	-0.509512
C136	C	-0.339104	0.749173	-0.009512
N137	N	-0.793337	0.292191	-0.542558
N138	N	-0.293337	0.792191	-0.042558
H139	H	-1.031553	0.068286	-0.771327
H140	H	-0.531553	0.568286	-0.271327
H141	H	-0.522109	0.273779	0.019528
H142	H	-0.022109	0.773779	0.519528
H143	H	-0.847044	0.241723	-0.600725
H144	H	-0.347044	0.741723	-0.100725
C145	C	-0.916195	0.777879	-0.174612
C146	C	-0.416195	1.277879	0.325388
N147	N	-0.912345	0.746842	-0.239404
N148	N	-0.412345	1.246842	0.260596
H149	H	-0.929210	0.678670	0.110038
H150	H	-0.429210	1.178670	0.610038
H151	H	-1.000982	0.096973	-0.375232
H152	H	-0.500982	0.596973	0.124768
C153	C	-0.792735	0.292748	-0.373665
C154	C	-0.292735	0.792748	0.126335
N155	N	-0.746967	0.335771	-0.406703
N156	N	-0.246967	0.835771	0.093297
C157	C	-0.679125	0.307602	0.021965
C158	C	-0.179125	0.807602	0.521965
N159	N	-0.705333	0.369289	0.026385
N160	N	-0.205333	0.869289	0.526385
H161	H	-0.913679	0.414184	-0.107416
H162	H	-0.413679	0.914184	0.392584
H163	H	-0.555270	0.016194	0.001042
H164	H	-0.055270	0.516194	0.501042
C165	C	-0.130505	0.329262	0.023482
C166	C	0.369495	0.829262	0.523482
N167	N	-0.089136	0.385215	0.027485
N168	N	0.410864	0.885215	0.527485
H169	H	-1.039509	0.060786	-0.613684
H170	H	-0.539509	0.560786	-0.113684
C171	C	-0.919669	0.950270	-0.162236
C172	C	-0.419669	1.450270	0.337764
N173	N	-0.917188	0.987246	-0.222142
N174	N	-0.417188	1.487246	0.277858
H175	H	-0.703258	0.028736	0.001961
H176	H	-0.203258	0.528736	0.501961
H177	H	-0.816478	0.270415	-0.204630
H178	H	-0.316478	0.770415	0.295370
H179	H	-0.325921	0.064918	0.004527
H180	H	0.174079	0.564918	0.504527
C181	C	-0.168903	0.031099	0.002104
C182	C	0.331097	0.531099	0.502104
N183	N	-0.142687	-0.030585	-0.002318
N184	N	0.357313	0.469415	0.497682
H185	H	-0.426065	0.262040	0.018669
H186	H	0.073935	0.762040	0.518669
H187	H	-0.421958	0.076660	0.005359
H188	H	0.078042	0.576660	0.505359
H189	H	-0.916683	0.563105	-0.096723
H190	H	-0.416683	1.063105	0.403277
H191	H	-0.934355	0.924525	0.131474
H192	H	-0.434355	1.424525	0.631474
