data_functionalizedCrystal
_audit_creation_method	'MofGen! by Chris Wilmer'
_symmetry_space_group_name_H-M	'P1'
_symmetry_Int_Tables_number	1
_symmetry_cell_setting	triclinic
loop_
_symmetry_equiv_pos_as_xyz
  x,y,z
_cell_length_a	10.654556
_cell_length_b	10.654550
_cell_length_c	9.730223
_cell_angle_alpha	89.999101
_cell_angle_beta	90.000940
_cell_angle_gamma	95.513767
loop_
_atom_site_label
_atom_site_type_symbol
_atom_site_fract_x
_atom_site_fract_y
_atom_site_fract_z
O1	O	1.667833	-0.176436	0.114228
O2	O	1.302356	-0.193234	0.114241
O3	O	1.493497	-0.002096	0.114236
O4	O	1.476691	-0.367574	0.114234
O5	O	1.493487	-0.002092	-0.114344
O6	O	1.302346	-0.193230	-0.114339
O7	O	1.667823	-0.176432	-0.114352
Zn8	Zn	1.485083	-0.184831	-0.150637
Zn9	Zn	1.485096	-0.184835	0.150527
O10	O	1.476681	-0.367570	-0.114346
C11	C	1.255553	-0.191997	-0.000047
C12	C	1.116110	-0.188302	-0.000041
C13	C	0.919570	-0.183101	0.124547
C14	C	1.050592	-0.186565	0.124556
C15	C	1.050600	-0.186561	-0.124655
C16	C	0.919581	-0.183088	-0.124662
C17	C	1.492258	0.044704	-0.000051
C18	C	1.488567	0.184147	-0.000042
C19	C	1.714626	-0.177669	-0.000061
C20	C	1.854069	-0.181364	-0.000057
C21	C	1.477920	-0.414370	-0.000056
C22	C	1.481612	-0.553813	-0.000057
C23	C	1.483355	0.380686	0.124547
C24	C	1.486837	0.249666	0.124555
C25	C	1.486827	0.249658	-0.124655
C26	C	1.483355	0.380677	-0.124662
N27	N	1.485083	-0.184827	-0.356173
C28	C	1.569756	-0.100223	-0.571994
C29	C	1.569748	-0.100225	-0.428111
C30	C	1.400429	-0.269442	-0.428126
C31	C	1.400444	-0.269446	-0.572006
N32	N	1.485106	-0.184829	0.356063
H33	H	0.866249	-0.181673	-0.226136
H34	H	1.331498	-0.338333	-0.369546
C35	C	1.488757	0.177615	0.261616
H36	H	1.491090	0.090204	0.243780
H37	H	1.415082	0.190144	0.312819
H38	H	1.561308	0.208037	0.312803
C39	C	1.662887	-0.007158	-0.651114
H40	H	1.713307	0.043222	-0.587655
H41	H	1.617268	0.045546	-0.707251
H42	H	1.715565	-0.052835	-0.707229
C43	C	0.847506	-0.181194	0.261602
H44	H	0.760092	-0.178888	0.243756
H45	H	0.877916	-0.108654	0.312800
H46	H	0.860038	-0.254881	0.312798
H47	H	1.481935	0.434020	0.226009
H48	H	1.331511	-0.338348	-0.630586
C49	C	1.122638	-0.188484	0.261620
H50	H	1.064851	-0.186969	0.335823
H51	H	1.182687	-0.116730	0.266811
H52	H	1.164806	-0.262957	0.266797
H53	H	1.481939	0.434009	-0.226135
C54	C	1.122664	-0.188437	-0.261712
H55	H	1.064888	-0.186883	-0.335923
H56	H	1.164848	-0.262891	-0.266913
H57	H	1.182704	-0.116663	-0.266866
C58	C	1.488727	0.177591	-0.261709
H59	H	1.491031	0.090177	-0.243861
H60	H	1.561262	0.207997	-0.312916
H61	H	1.415035	0.190124	-0.312897
C62	C	1.662857	-0.007153	-0.348980
H63	H	1.713270	0.043244	-0.412431
H64	H	1.715524	-0.052813	-0.292843
H65	H	1.617213	0.045553	-0.292863
