data_functionalizedCrystal
_audit_creation_method	'MofGen! by Chris Wilmer'
_symmetry_space_group_name_H-M	'P1'
_symmetry_Int_Tables_number	1
_symmetry_cell_setting	triclinic
loop_
_symmetry_equiv_pos_as_xyz
  x,y,z
_cell_length_a	19.077105
_cell_length_b	16.959454
_cell_length_c	19.076919
_cell_angle_alpha	87.724511
_cell_angle_beta	89.923776
_cell_angle_gamma	87.716588
loop_
_atom_site_label
_atom_site_type_symbol
_atom_site_fract_x
_atom_site_fract_y
_atom_site_fract_z
Zn1	Zn	1.058295	-0.382399	0.440440
Zn2	Zn	1.062944	-0.509490	0.322940
Zn3	Zn	0.945513	-0.371810	0.318233
Zn4	Zn	0.940765	-0.509013	0.435693
O5	O	1.001879	-0.443178	0.379326
O6	O	1.157244	-0.403889	0.428810
O7	O	1.051298	-0.486995	0.223984
O8	O	0.960515	-0.262606	0.334460
O9	O	1.160659	-0.497262	0.342484
O10	O	1.043376	-0.270386	0.424245
O11	O	0.965022	-0.385842	0.220526
O12	O	0.846551	-0.385379	0.329857
O13	O	0.952424	-0.496450	0.534654
O14	O	0.843063	-0.486182	0.416155
O15	O	1.038773	-0.403426	0.538142
O16	O	1.046695	-0.620035	0.337881
O17	O	0.956931	-0.619685	0.420720
C18	C	0.819311	-0.434581	0.371980
C19	C	0.741206	-0.430922	0.368854
C20	C	1.001821	-0.648541	0.379312
C21	C	1.001859	-0.736400	0.379332
C22	C	0.702718	-0.481759	0.412246
C23	C	0.629330	-0.478312	0.409312
C24	C	0.594433	-0.424030	0.362983
C25	C	0.632926	-0.373188	0.319590
C26	C	0.706312	-0.376632	0.322528
C27	C	0.375144	-0.408090	0.349389
C28	C	0.301753	-0.404651	0.346453
C29	C	0.298162	-0.509774	0.436177
C30	C	0.371550	-0.513217	0.439107
C31	C	0.410037	-0.462372	0.395717
N32	N	0.519419	-0.420507	0.359981
N33	N	0.485049	-0.465892	0.398723
C34	C	0.955205	-1.107727	0.422458
C35	C	1.048747	-1.108038	0.336274
C36	C	1.048723	-1.025491	0.336266
C37	C	1.001938	-0.984058	0.379355
C38	C	0.955178	-1.025172	0.422451
C39	C	1.095477	-0.984370	0.293166
C40	C	1.095454	-0.901818	0.293156
C41	C	1.048672	-0.860383	0.336249
C42	C	1.001911	-0.901503	0.379347
C43	C	0.955126	-0.860069	0.422436
C44	C	0.908367	-0.901187	0.465538
C45	C	0.908396	-0.983737	0.465543
C46	C	1.048644	-0.777834	0.336244
C47	C	0.955099	-0.777514	0.422428
C48	C	1.185161	-0.451810	0.386702
C49	C	1.263265	-0.455488	0.389844
C50	C	0.994550	-0.451066	0.562607
C51	C	0.991427	-0.454427	0.640710
C52	C	1.001956	-0.237015	0.379357
C53	C	1.001989	-0.149160	0.379370
C54	C	1.009220	-0.435266	0.196760
C55	C	1.012479	-0.431688	0.118663
C56	C	1.034915	-0.407577	0.679220
C57	C	1.031972	-0.410731	0.752606
C58	C	0.985544	-0.460742	0.787481
C59	C	0.942052	-0.507595	0.748966
C60	C	0.944992	-0.504435	0.675581
C61	C	0.971927	-0.475381	1.006763
C62	C	0.968992	-0.478539	1.080153
C63	C	1.058911	-0.381674	1.083788
C64	C	1.061850	-0.378523	1.010402
C65	C	1.018355	-0.425372	0.971893
N66	N	0.982536	-0.463970	0.862493
N67	N	1.021360	-0.422140	0.896882
H68	H	0.731126	-0.525964	0.449970
C69	C	1.085987	-0.352563	0.640861
C70	C	1.079879	-0.262872	0.650734
C71	C	1.130950	-0.207856	0.612377
C72	C	1.188129	-0.242530	0.564146
C73	C	1.194239	-0.332225	0.554271
C74	C	1.143168	-0.387242	0.592629
H75	H	1.037550	-0.237200	0.686439
H76	H	1.126427	-0.141457	0.619687
H77	H	1.225935	-0.201803	0.535752
H78	H	1.236568	-0.357897	0.518567
H79	H	1.147691	-0.453641	0.585318
H80	H	1.133528	-0.868345	0.258061
H81	H	0.917137	-1.141209	0.457553
C82	C	0.890991	-0.562620	0.787326
C83	C	0.843162	-0.614164	0.744964
C84	C	0.792107	-0.669199	0.783323
C85	C	0.788881	-0.672690	0.864044
C86	C	0.836712	-0.621145	0.906410
C87	C	0.887767	-0.566110	0.868052
H88	H	0.845548	-0.611580	0.685206
H89	H	0.756699	-0.707356	0.751960
H90	H	0.751087	-0.713431	0.892439
H91	H	0.834326	-0.623728	0.966169
H92	H	0.923175	-0.527953	0.899415
H93	H	0.737648	-0.335231	0.287197
C94	C	0.409940	-0.572926	0.490069
C95	C	0.458209	-0.543518	0.547305
C96	C	0.496601	-0.603230	0.598263
C97	C	0.486723	-0.692350	0.591986
C98	C	0.438452	-0.721763	0.534748
C99	C	0.400060	-0.662050	0.483790
H100	H	0.465522	-0.477542	0.551954
H101	H	0.532334	-0.581457	0.640634
H102	H	0.515143	-0.736553	0.629708
H103	H	0.431138	-0.787739	0.530099
H104	H	0.364327	-0.683824	0.441418
C105	C	0.897159	-0.555973	0.633215
C106	C	0.816874	-0.546197	0.640083
C107	C	0.769038	-0.597734	0.597716
C108	C	0.801486	-0.659047	0.548480
C109	C	0.881775	-0.668826	0.541609
C110	C	0.929611	-0.617289	0.583976
H111	H	0.792851	-0.500807	0.676533
H112	H	0.709603	-0.590495	0.602803
H113	H	0.766075	-0.697198	0.517118
H114	H	0.905798	-0.714216	0.505160
H115	H	0.989046	-0.624528	0.578890
H116	H	1.094322	-0.343531	1.115150
C117	C	1.100072	-0.732602	0.288837
C118	C	1.097596	-0.740269	0.208723
C119	C	1.149028	-0.695038	0.161315
C120	C	1.202934	-0.642139	0.194020
C121	C	1.205412	-0.634469	0.274138
C122	C	1.153981	-0.679701	0.321547
H123	H	1.057689	-0.779431	0.184509
H124	H	1.147193	-0.700716	0.102006
H125	H	1.241007	-0.608656	0.158926
H126	H	1.245319	-0.595308	0.298353
H127	H	1.155815	-0.674023	0.380856
H128	H	1.086833	-1.141778	0.301189
H129	H	0.870272	-0.867443	0.500618
C130	C	0.255826	-0.565695	0.483910
C131	C	0.175104	-0.561909	0.480686
C132	C	0.132767	-0.617829	0.528425
C133	C	0.171153	-0.677535	0.579387
C134	C	0.251880	-0.681323	0.582613
C135	C	0.294216	-0.625403	0.534875
H136	H	0.146684	-0.517709	0.442959
H137	H	0.073008	-0.615025	0.526036
H138	H	0.139813	-0.718931	0.614726
H139	H	0.280299	-0.725523	0.620341
H140	H	0.353975	-0.628207	0.537263
C141	C	1.146934	-1.029951	0.245771
C142	C	1.118749	-1.082945	0.189371
C143	C	1.170207	-1.128533	0.141975
C144	C	1.249850	-1.121126	0.150981
C145	C	1.278040	-1.068129	0.207384
C146	C	1.226581	-1.022541	0.254779
H147	H	1.059788	-1.088431	0.182702
H148	H	1.149339	-1.167765	0.100222
H149	H	1.287943	-1.154872	0.115896
H150	H	1.337000	-1.062644	0.214052
H151	H	1.247449	-0.983310	0.296532
H152	H	1.099658	-0.337801	0.982012
C153	C	0.917915	-0.533551	1.118517
C154	C	0.914688	-0.537029	1.199238
C155	C	0.863616	-0.592038	1.237602
C156	C	0.815771	-0.643570	1.195246
C157	C	0.818997	-0.640094	1.114521
C158	C	0.870069	-0.585084	1.076156
H159	H	0.950107	-0.498880	1.230596
H160	H	0.861228	-0.594611	1.297361
H161	H	0.777965	-0.684292	1.223646
H162	H	0.783578	-0.678243	1.083162
H163	H	0.872456	-0.582511	1.016398
C164	C	0.417466	-0.352175	0.301640
C165	C	0.407160	-0.262106	0.307086
C166	C	0.449482	-0.206193	0.259327
C167	C	0.502110	-0.240349	0.206122
C168	C	0.512419	-0.330423	0.200674
C169	C	0.470097	-0.386336	0.248434
H170	H	0.368199	-0.236817	0.346473
H171	H	0.441850	-0.139514	0.263360
H172	H	0.533440	-0.198959	0.170768
H173	H	0.551380	-0.355711	0.161287
H174	H	0.477729	-0.453014	0.244401
H175	H	0.936521	-0.513541	0.975418
H176	H	0.597996	-0.519710	0.444645
H177	H	0.604506	-0.328988	0.281870
C178	C	0.856964	-1.028970	0.512949
C179	C	0.803060	-1.081869	0.480238
C180	C	0.751628	-1.127106	0.527642
C181	C	0.754101	-1.119445	0.607756
C182	C	0.808007	-1.066545	0.640472
C183	C	0.859438	-1.021307	0.593068
H184	H	0.801228	-1.087542	0.420928
H185	H	0.711724	-1.166267	0.503423
H186	H	0.716028	-1.152933	0.642847
H187	H	0.809839	-1.060872	0.699781
H188	H	0.899343	-0.982146	0.617287
H189	H	0.273341	-0.360439	0.308731
C190	C	1.079810	-0.359193	0.794964
C191	C	1.160094	-0.368975	0.788094
C192	C	1.207934	-0.317431	0.830450
C193	C	1.175490	-0.256104	0.879675
C194	C	1.095202	-0.246319	0.886547
C195	C	1.047362	-0.297864	0.844192
H196	H	1.184115	-0.414375	0.751652
H197	H	1.267369	-0.324674	0.825362
H198	H	1.210904	-0.217948	0.911030
H199	H	1.071182	-0.200920	0.922989
H200	H	0.987928	-0.290620	0.849279
H201	H	0.917003	-0.743785	0.457519
