data_functionalizedCrystal
_audit_creation_method	'MofGen! by Chris Wilmer'
_symmetry_space_group_name_H-M	'P1'
_symmetry_Int_Tables_number	1
_symmetry_cell_setting	triclinic
loop_
_symmetry_equiv_pos_as_xyz
  x,y,z
_cell_length_a	12.827893
_cell_length_b	12.827891
_cell_length_c	12.827885
_cell_angle_alpha	89.971966
_cell_angle_beta	89.978811
_cell_angle_gamma	90.027021
loop_
_atom_site_label
_atom_site_type_symbol
_atom_site_fract_x
_atom_site_fract_y
_atom_site_fract_z
Zn1	Zn	-1.597572	0.416030	0.590916
Zn2	Zn	-1.597425	0.590808	0.416182
Zn3	Zn	-1.422814	0.416077	0.416184
Zn4	Zn	-1.422758	0.590725	0.590877
O5	O	-1.510142	0.503410	0.503540
O6	O	-1.743789	0.439231	0.567753
O7	O	-1.574225	0.567684	0.269946
O8	O	-1.446080	0.269834	0.439380
O9	O	-1.743681	0.567639	0.439377
O10	O	-1.574475	0.269800	0.567755
O11	O	-1.445938	0.439309	0.269948
O12	O	-1.276570	0.439228	0.439341
O13	O	-1.445986	0.567497	0.737118
O14	O	-1.276529	0.567541	0.567687
O15	O	-1.574421	0.439150	0.737147
O16	O	-1.574171	0.737033	0.439339
O17	O	-1.445843	0.736972	0.567686
C18	C	-1.238632	0.503382	0.503511
C19	C	-1.122479	0.503395	0.503523
C20	C	-1.070748	0.439965	0.567145
C21	C	-0.950697	0.439977	0.567159
C22	C	-1.510013	0.774920	0.503531
C23	C	-1.510054	0.891073	0.503561
C24	C	-0.782712	0.503431	0.503561
C25	C	-0.898865	0.503418	0.503549
C26	C	-1.446597	0.942958	0.440006
C27	C	-1.446637	1.063008	0.440037
C28	C	-1.510213	0.503309	0.776110
C29	C	-1.510244	0.503266	0.892263
C30	C	-1.510240	1.230840	0.503580
C31	C	-1.510130	1.114687	0.503619
C32	C	-1.510132	0.503435	0.232030
C33	C	-1.510304	0.503184	0.115877
C34	C	-1.573731	0.566764	0.944047
C35	C	-1.573764	0.566721	1.064098
H36	H	-0.943347	0.557731	0.449083
H37	H	-1.455919	0.448866	0.936806
H38	H	-1.628064	0.621155	0.899505
O39	O	-1.069458	0.568228	0.438453
C40	C	-1.140867	0.627224	0.379316
H41	H	-1.218713	0.584480	0.375688
H42	H	-1.109205	0.638251	0.296994
H43	H	-1.152425	0.706644	0.417442
O44	O	-1.575053	0.944049	0.568400
C45	C	-1.679234	0.917368	0.545701
H46	H	-1.684581	0.887357	0.462240
H47	H	-1.730816	0.989145	0.554712
H48	H	-1.706549	0.854027	0.601794
O49	O	-1.445401	0.438469	1.062650
C50	C	-1.377893	0.498040	0.999522
H51	H	-1.414714	0.577260	0.983272
H52	H	-1.363961	0.455572	0.922729
H53	H	-1.300418	0.509459	1.041515
O54	O	-1.574981	1.061634	0.568640
C55	C	-1.634043	1.133002	0.627745
H56	H	-1.591336	1.210866	0.631411
H57	H	-1.645103	1.101316	0.710055
H58	H	-1.713446	1.144532	0.589564
H59	H	-1.392242	0.898504	0.385566
H60	H	-1.628116	0.621085	1.108631
O61	O	-1.124091	0.375263	0.632083
C62	C	-1.232080	0.389642	0.617599
H63	H	-1.246836	0.470260	0.583223
H64	H	-1.273678	0.382679	0.695843
H65	H	-1.263050	0.327616	0.562020
O66	O	-0.897518	0.375334	0.632196
C67	C	-0.834415	0.434976	0.699561
H68	H	-0.818123	0.514143	0.662560
H69	H	-0.757641	0.392505	0.713577
H70	H	-0.876451	0.446506	0.777016
H71	H	-1.392304	1.107627	0.385630
