data_functionalizedCrystal
_audit_creation_method	'MofGen! by Chris Wilmer'
_symmetry_space_group_name_H-M	'P1'
_symmetry_Int_Tables_number	1
_symmetry_cell_setting	triclinic
loop_
_symmetry_equiv_pos_as_xyz
  x,y,z
_cell_length_a	20.919151
_cell_length_b	15.698487
_cell_length_c	15.698487
_cell_angle_alpha	90.002598
_cell_angle_beta	58.204474
_cell_angle_gamma	58.215422
loop_
_atom_site_label
_atom_site_type_symbol
_atom_site_fract_x
_atom_site_fract_y
_atom_site_fract_z
Zr1	Zr	0.741728	0.766204	-0.166340
O2	O	0.883106	0.619808	-0.312767
O3	O	0.600354	0.818275	-0.114239
O4	O	0.741730	0.807896	-0.302357
O5	O	0.741727	0.630192	0.015536
O6	O	0.741727	0.948081	-0.302351
O7	O	0.741730	0.630187	-0.124649
O8	O	0.488832	0.966647	0.034157
O9	O	0.994623	0.611626	-0.320973
O10	O	0.658500	0.936411	-0.100730
O11	O	0.658500	0.831796	0.003885
O12	O	0.824952	0.819576	-0.217600
O13	O	0.824952	0.714962	-0.112986
Zr14	Zr	0.741720	0.989790	0.057247
Zr15	Zr	0.741724	0.989782	-0.166332
Zr16	Zr	0.741724	0.766212	0.057238
Zr17	Zr	0.919585	0.753154	-0.179428
Zr18	Zr	0.563863	1.002840	0.070335
O19	O	0.883094	0.937719	0.005145
O20	O	0.883100	0.937708	-0.312755
O21	O	0.883100	0.619819	0.005133
O22	O	0.600342	1.136186	0.203673
O23	O	0.600348	1.136175	-0.114227
O24	O	0.600348	0.818286	0.203661
O25	O	0.741721	1.125802	-0.124630
O26	O	0.741718	0.948098	0.193263
O27	O	0.741721	0.807913	0.193258
O28	O	0.741718	1.125807	0.015555
O29	O	0.994620	0.789341	-0.320966
O30	O	0.488828	0.966653	0.211872
O31	O	0.488825	1.144368	0.211879
O32	O	0.488828	1.144362	0.034164
O33	O	0.994620	0.611632	-0.143258
O34	O	0.994616	0.789347	-0.143251
O35	O	0.658496	0.936418	0.108507
O36	O	0.658496	1.041033	0.003892
O37	O	0.824948	0.924198	-0.112978
O38	O	0.824948	0.819583	-0.008364
C39	C	0.519252	0.894320	-0.038176
C40	C	0.443747	0.899860	-0.032620
C41	C	0.469735	0.820719	-0.111780
C42	C	0.398804	0.825927	-0.106597
C43	C	0.301885	0.910272	-0.022249
C44	C	0.275897	0.989421	0.056916
C45	C	0.346828	0.984217	0.051728
C46	C	0.084644	0.930079	-0.002497
C47	C	0.013713	0.935275	0.002687
C48	C	0.136625	0.771781	-0.160828
C49	C	0.207551	0.766581	-0.166005
C50	C	0.181558	0.845733	-0.086844
C51	C	0.229380	0.915595	-0.016947
C52	C	0.254062	0.840413	-0.092151
C53	C	0.741729	0.598335	-0.054557
C54	C	0.741731	0.503420	-0.054561
C55	C	0.741734	0.426338	-0.054559
C56	C	0.741728	0.329641	-0.054547
C57	C	0.964196	0.861674	-0.070918
C58	C	1.039701	0.856134	-0.076474
C59	C	0.741729	0.877988	-0.334209
C60	C	0.741731	0.877984	-0.429124
C61	C	0.741719	1.157660	-0.054536
C62	C	0.741717	1.252574	-0.054533
C63	C	0.741714	0.878009	-0.602887
C64	C	0.741720	0.877998	-0.506190
C65	C	0.741719	0.878007	0.225116
C66	C	0.741717	0.878010	0.320031
C67	C	0.519247	1.173983	-0.038165
C68	C	0.443740	1.274438	-0.032606
C69	C	0.519247	0.894330	0.241487
C70	C	0.443740	0.899873	0.341958
C71	C	0.519241	1.173992	0.241497
C72	C	0.443733	1.274451	0.341972
C73	C	0.964207	0.582002	-0.350591
C74	C	1.039715	0.481544	-0.451065
C75	C	0.964201	0.582011	-0.070928
C76	C	1.039708	0.481557	-0.076488
C77	C	0.964201	0.861664	-0.350580
C78	C	1.039708	0.856121	-0.451051
C79	C	0.408283	1.267001	-0.084616
C80	C	0.337347	1.361380	-0.079413
C81	C	0.301863	1.463194	-0.022194
C82	C	0.337327	1.470629	0.029817
C83	C	0.408267	1.376251	0.024608
C84	C	0.408279	0.957088	0.443761
C85	C	0.337343	0.962292	0.538172
C86	C	0.301863	0.910286	0.530778
C87	C	0.337331	0.853065	0.428963
C88	C	0.408271	0.847855	0.334554
C89	C	0.408273	1.376244	0.334548
C90	C	0.337335	1.470643	0.428946
C91	C	0.301852	1.463246	0.530766
C92	C	0.337319	1.361442	0.538187
C93	C	0.408261	1.267045	0.443790
C94	C	1.075183	0.379750	-0.443642
C95	C	1.146144	0.285349	-0.538041
C96	C	1.181630	0.292745	-0.639862
C97	C	1.146159	0.394550	-0.647283
C98	C	1.075205	0.488948	-0.552885
C99	C	1.075172	0.488993	-0.024488
C100	C	1.146129	0.394613	-0.029716
C101	C	1.181615	0.292798	-0.086939
C102	C	1.146148	0.285364	-0.138946
C103	C	1.075197	0.379742	-0.133723
C104	C	1.075165	0.908138	-0.443622
C105	C	1.146102	0.902951	-0.538016
C106	C	1.181586	0.845739	-0.639838
C107	C	1.146122	0.793721	-0.647265
C108	C	1.075181	0.798915	-0.552872
H109	H	0.548649	0.752025	-0.180455
Br110	Br	1.194245	0.404728	0.040874
Br111	Br	0.205586	0.917367	0.658917
H112	H	0.437127	1.382321	0.066968
H113	H	1.046285	0.571887	0.022116
H114	H	1.046295	0.373707	-0.360743
H115	H	1.175051	0.202453	-0.185536
H116	H	0.308465	1.553527	0.422884
Br117	Br	0.289170	0.782492	0.418947
Br118	Br	1.194266	0.147201	-0.527944
H119	H	0.437134	0.801268	0.251666
H120	H	1.239405	0.215872	-0.716718
H121	H	1.046325	0.373673	-0.176066
H122	H	1.175061	0.400559	-0.730196
Br123	Br	0.456409	1.027682	0.453827
Br124	Br	1.027073	0.627093	-0.562978
H125	H	1.239387	0.215957	-0.091183
Br126	Br	1.027025	0.985791	-0.305446
Br127	Br	0.289157	1.608816	0.107472
H128	H	0.325661	1.048662	0.116189
Br129	Br	0.205573	1.591368	0.658867
Br130	Br	1.194220	0.973549	-0.527911
H131	H	1.239351	0.841518	-0.716691
Br132	Br	1.194297	0.716069	-0.785463
Br133	Br	1.027077	0.728302	-0.562975
Br134	Br	0.434079	0.718514	-0.214033
H135	H	0.308473	1.008891	0.621064
Br136	Br	0.456372	1.128901	0.453885
H137	H	0.286465	0.697912	-0.234706
Br138	Br	0.171894	0.664367	-0.268256
H139	H	-0.065207	1.003961	0.071378
Br140	Br	0.144363	1.103896	0.171386
Br141	Br	0.097843	1.030058	0.097527
Br142	Br	0.456426	1.128836	-0.162282
H143	H	0.332976	0.771743	-0.160830
Br144	Br	0.289230	1.351265	-0.150004
H145	H	0.244098	1.540035	-0.017960
Br146	Br	0.456417	1.386312	0.196376
H147	H	0.063468	0.994530	0.061961
Br148	Br	0.289154	1.351422	0.676381
