data_functionalizedCrystal
_audit_creation_method	'MofGen! by Chris Wilmer'
_symmetry_space_group_name_H-M	'P1'
_symmetry_Int_Tables_number	1
_symmetry_cell_setting	triclinic
loop_
_symmetry_equiv_pos_as_xyz
  x,y,z
_cell_length_a	14.044191
_cell_length_b	10.654550
_cell_length_c	9.730223
_cell_angle_alpha	89.999465
_cell_angle_beta	90.003859
_cell_angle_gamma	91.161660
loop_
_atom_site_label
_atom_site_type_symbol
_atom_site_fract_x
_atom_site_fract_y
_atom_site_fract_z
O1	O	1.259695	-0.303021	-0.114158
O2	O	0.983654	-0.292078	-0.114188
O3	O	1.128021	-0.115448	-0.114167
O4	O	1.115328	-0.479651	-0.114179
O5	O	1.128019	-0.115456	0.114413
O6	O	0.983652	-0.292086	0.114392
O7	O	1.259693	-0.303028	0.114422
Zn8	Zn	1.121672	-0.297558	0.150699
Zn9	Zn	1.121675	-0.297549	-0.150465
O10	O	1.115326	-0.479658	0.114401
C11	C	0.948307	-0.287295	0.000098
C12	C	0.842987	-0.273016	0.000086
C13	C	1.295040	-0.307812	0.000133
C14	C	1.400360	-0.322091	0.000136
C15	C	1.127088	-0.068560	0.000121
C16	C	1.124300	0.071163	0.000116
C17	C	1.650152	-0.246925	0.000110
C18	C	1.593189	-0.348176	0.000112
C19	C	1.485889	-0.333659	0.000125
C20	C	1.757462	-0.261441	0.000097
C21	C	1.116259	-0.526546	0.000110
C22	C	1.119047	-0.666270	0.000106
N23	N	1.121678	-0.297565	0.356235
C24	C	1.209301	0.142104	0.000130
C25	C	1.206675	0.273389	0.000120
C26	C	1.034039	0.262779	0.000088
C27	C	1.036666	0.131497	0.000089
C28	C	1.308971	0.148231	0.000154
C29	C	1.306345	0.279515	0.000144
C30	C	1.185620	-0.219384	0.428171
C31	C	1.185618	-0.219371	0.572054
C32	C	1.057727	-0.375728	0.572053
C33	C	1.057726	-0.375735	0.428173
C34	C	1.259460	-0.129116	0.428172
C35	C	1.259457	-0.129103	0.572055
N36	N	1.121676	-0.297544	0.643999
H37	H	1.618337	-0.149347	0.000120
C38	C	1.238043	0.001790	0.375996
C39	C	1.314431	0.046437	0.296140
C40	C	1.294736	0.167022	0.248063
H41	H	1.181847	-0.001288	0.321668
H42	H	1.229079	0.056391	0.451890
H43	H	1.323384	-0.008150	0.220257
H44	H	1.370636	0.049547	0.350438
H45	H	1.285771	0.221624	0.323957
H46	H	1.238538	0.163932	0.193741
H47	H	1.346564	0.197335	0.193887
H48	H	1.336468	0.322134	-0.098547
C49	C	1.351377	-0.179104	0.368927
C50	C	1.412268	-0.212226	0.476343
C51	C	1.496954	-0.258267	0.421818
H52	H	1.337520	-0.250880	0.314000
H53	H	1.381386	-0.116075	0.314017
H54	H	1.382265	-0.275251	0.531230
H55	H	1.426151	-0.140471	0.531279
H56	H	1.526962	-0.195237	0.366908
H57	H	1.483088	-0.330038	0.366892
H58	H	1.538282	-0.280735	0.494690
C59	C	1.635467	-0.478380	-0.000134
C60	C	1.605065	-0.543469	-0.117726
C61	C	1.643983	-0.663419	-0.118000
H62	H	1.702992	-0.471163	-0.000218
H63	H	1.614947	-0.522824	0.079529
H64	H	1.625591	-0.499036	-0.197368
H65	H	1.537546	-0.550720	-0.117667
H66	H	1.623463	-0.707863	-0.038337
H67	H	1.711507	-0.656189	-0.118079
H68	H	1.623354	-0.707600	-0.197777
C69	C	0.944274	0.054694	0.000132
C70	C	0.866971	0.135636	0.000146
C71	C	0.781842	0.064931	0.000204
H72	H	0.941582	0.003248	-0.079558
H73	H	0.941651	0.003284	0.079874
H74	H	0.869593	0.187025	-0.079588
H75	H	0.869632	0.187083	0.079830
H76	H	0.779218	0.013520	0.079946
H77	H	0.779159	0.013487	-0.079487
H78	H	0.729381	0.119838	0.000226
C79	C	0.938993	0.328521	0.000135
C80	C	0.954883	0.458677	0.000167
C81	C	0.867347	0.519275	0.000230
H82	H	0.903887	0.304971	-0.079558
H83	H	0.903946	0.304901	0.079874
H84	H	0.989916	0.482288	-0.079563
H85	H	0.989975	0.482264	0.079855
H86	H	0.832300	0.495655	0.079968
H87	H	0.832247	0.495715	-0.079465
H88	H	0.878117	0.607592	0.000264
C89	C	1.360932	0.104096	-0.127501
C90	C	1.390091	0.208347	-0.205587
C91	C	1.437946	0.167738	-0.323197
H92	H	1.415110	0.057905	-0.101101
H93	H	1.319424	0.052034	-0.180729
H94	H	1.431597	0.260388	-0.152369
H95	H	1.335932	0.254549	-0.232022
H96	H	1.396438	0.115676	-0.376425
H97	H	1.492120	0.121547	-0.296784
H98	H	1.457728	0.238464	-0.376199
H99	H	1.340709	0.109410	0.098853
C100	C	1.356557	0.330016	0.127652
C101	C	1.451366	0.291838	0.127372
C102	C	1.497641	0.338325	0.244814
H103	H	1.354881	0.419097	0.127763
H104	H	1.325317	0.298343	0.207404
H105	H	1.482598	0.323517	0.047640
H106	H	1.453070	0.202764	0.127281
H107	H	1.466400	0.306652	0.324566
H108	H	1.495958	0.427405	0.244915
H109	H	1.561971	0.312419	0.244646
H110	H	1.005651	-0.439383	0.369604
H111	H	1.005658	-0.439371	0.630640
C112	C	1.228599	-0.004362	0.631351
C113	C	1.136189	0.020982	0.586676
C114	C	1.107745	0.135893	0.641249
H115	H	1.229574	-0.008493	0.728857
H116	H	1.271010	0.060537	0.601144
H117	H	1.093789	-0.043900	0.616890
H118	H	1.135190	0.025139	0.489177
H119	H	1.150157	0.200791	0.611042
H120	H	1.108726	0.131751	0.738754
H121	H	1.045047	0.153109	0.610935
H122	H	1.332351	-0.157949	0.611113
