data_functionalizedCrystal
_audit_creation_method	'MofGen! by Chris Wilmer'
_symmetry_space_group_name_H-M	'P1'
_symmetry_Int_Tables_number	1
_symmetry_cell_setting	triclinic
loop_
_symmetry_equiv_pos_as_xyz
  x,y,z
_cell_length_a	16.120379
_cell_length_b	16.625547
_cell_length_c	16.120484
_cell_angle_alpha	87.074925
_cell_angle_beta	90.213218
_cell_angle_gamma	92.856851
loop_
_atom_site_label
_atom_site_type_symbol
_atom_site_fract_x
_atom_site_fract_y
_atom_site_fract_z
Zn1	Zn	0.487101	-1.193860	-0.306919
Zn2	Zn	0.820435	-0.860527	0.026414
Zn3	Zn	1.153768	-0.527194	0.359748
Zn4	Zn	0.355088	-1.193024	-0.453120
Zn5	Zn	0.688421	-0.859691	-0.119787
Zn6	Zn	1.021755	-0.526357	0.213547
Zn7	Zn	0.348044	-1.065451	-0.314084
Zn8	Zn	0.681378	-0.732118	0.019249
Zn9	Zn	1.014711	-0.398785	0.352582
Zn10	Zn	0.494082	-1.051828	-0.445932
Zn11	Zn	0.827415	-0.718495	-0.112599
Zn12	Zn	1.160748	-0.385161	0.220734
O13	O	0.421079	-1.126041	-0.380014
O14	O	0.754412	-0.792708	-0.046681
O15	O	1.087746	-0.459374	0.286653
O16	O	0.469616	-1.306580	-0.326322
O17	O	0.802949	-0.973247	0.007011
O18	O	1.136283	-0.639913	0.340345
O19	O	0.237788	-1.181453	-0.440683
O20	O	0.571122	-0.848119	-0.107350
O21	O	0.904455	-0.514786	0.225983
O22	O	0.360622	-1.088537	-0.196770
O23	O	0.693955	-0.755203	0.136564
O24	O	1.027288	-0.421870	0.469897
O25	O	0.372626	-1.305966	-0.433735
O26	O	0.705960	-0.972632	-0.100402
O27	O	1.039293	-0.639299	0.232931
O28	O	0.462786	-1.182878	-0.191505
O29	O	0.796120	-0.849545	0.141828
O30	O	1.129453	-0.516211	0.475162
O31	O	0.232614	-1.087726	-0.338535
O32	O	0.565947	-0.754392	-0.005201
O33	O	0.899280	-0.421059	0.328132
O34	O	0.367390	-0.950814	-0.331565
O35	O	0.700723	-0.617480	0.001768
O36	O	1.034057	-0.284147	0.335101
O37	O	0.609521	-1.065317	-0.421485
O38	O	0.942854	-0.731984	-0.088152
O39	O	1.276188	-0.398651	0.245181
O40	O	0.474683	-0.940804	-0.428433
O41	O	0.808016	-0.607471	-0.095100
O42	O	1.141350	-0.274138	0.238233
O43	O	0.604393	-1.169668	-0.319353
O44	O	0.937726	-0.836335	0.013981
O45	O	1.271059	-0.503001	0.347314
O46	O	0.379395	-1.168242	-0.568531
O47	O	0.712728	-0.834909	-0.235198
O48	O	1.046062	-0.501576	0.098136
O49	O	0.481513	-1.064506	-0.563250
O50	O	0.814846	-0.731173	-0.229917
O51	O	1.148180	-0.397840	0.103416
C52	C	0.421030	-0.916553	-0.379997
C53	C	0.754364	-0.583220	-0.046664
C54	C	1.087697	-0.249887	0.286669
C55	C	0.421030	-0.826932	-0.380009
C56	C	0.754363	-0.493598	-0.046676
C57	C	1.087697	-0.160265	0.286657
C58	C	0.421038	-0.754149	-0.380010
C59	C	0.754371	-0.420815	-0.046676
C60	C	1.087704	-0.087482	0.286657
C61	C	0.421055	-0.662839	-0.380012
C62	C	0.754388	-0.329506	-0.046679
C63	C	1.087721	0.003827	0.286655
C64	C	0.421073	-0.590062	-0.380018
C65	C	0.754407	-0.256728	-0.046684
C66	C	1.087740	0.076605	0.286649
C67	C	0.421090	-0.498746	-0.380021
C68	C	0.754423	-0.165413	-0.046688
C69	C	1.087757	0.167920	0.286645
C70	C	0.205026	-1.136026	-0.391106
C71	C	0.538359	-0.802693	-0.057773
C72	C	0.871693	-0.469360	0.275560
C73	C	0.112587	-1.140445	-0.395643
C74	C	0.445921	-0.807112	-0.062310
C75	C	0.779254	-0.473778	0.271023
C76	C	-0.056659	-1.148524	-0.403927
C77	C	0.276674	-0.815191	-0.070593
C78	C	0.610008	-0.481857	0.262740
C79	C	-0.100359	-1.103739	-0.355766
C80	C	0.232974	-0.770406	-0.022433
C81	C	0.566308	-0.437072	0.310901
C82	C	-0.194533	-1.108234	-0.360375
C83	C	0.138800	-0.774901	-0.027041
C84	C	0.472133	-0.441567	0.306292
C85	C	0.037524	-1.144030	-0.399319
C86	C	0.370857	-0.810697	-0.065986
C87	C	0.704191	-0.477363	0.267348
C88	C	0.637973	-1.116066	-0.368818
C89	C	0.971306	-0.782733	-0.035485
C90	C	1.304639	-0.449400	0.297849
C91	C	0.730400	-1.111816	-0.364047
C92	C	1.063733	-0.778482	-0.030713
C93	C	1.397066	-0.445149	0.302620
C94	C	0.421118	-0.336347	-0.380028
C95	C	0.754451	-0.003014	-0.046695
C96	C	1.087785	0.330320	0.286638
C97	C	0.421108	-0.425969	-0.380027
C98	C	0.754442	-0.092635	-0.046694
C99	C	1.087775	0.240698	0.286640
C100	C	0.431994	-1.114826	-0.596062
C101	C	0.765327	-0.781493	-0.262728
C102	C	1.098660	-0.448160	0.070605
C103	C	0.436691	-1.110101	-0.688486
C104	C	0.770024	-0.776768	-0.355153
C105	C	1.103358	-0.443434	-0.021820
C106	C	0.445284	-1.101478	-0.857707
C107	C	0.778617	-0.768145	-0.524373
C108	C	1.111951	-0.434811	-0.191040
C109	C	0.396887	-1.150747	-0.901480
C110	C	0.730221	-0.817414	-0.568147
C111	C	1.063554	-0.484081	-0.234813
C112	C	0.401669	-1.145950	-0.995640
C113	C	0.735002	-0.812616	-0.662307
C114	C	1.068335	-0.479283	-0.328973
C115	C	0.440504	-1.106275	-0.763538
C116	C	0.773837	-0.772942	-0.430205
C117	C	1.107171	-0.439608	-0.096871
C118	C	0.410140	-1.137320	-0.163122
C119	C	0.743473	-0.803987	0.170212
C120	C	1.076806	-0.470654	0.503545
C121	C	0.405478	-1.142127	-0.070695
C122	C	0.738811	-0.808794	0.262638
C123	C	1.072145	-0.475460	0.595972
H124	H	-0.067044	-1.062021	-0.311072
H125	H	0.266289	-0.728688	0.022261
H126	H	0.599622	-0.395355	0.355594
H127	H	-0.089972	-1.190238	-0.448617
H128	H	0.243362	-0.856905	-0.115284
H129	H	0.576695	-0.523571	0.218050
C130	C	0.336039	-1.212576	-0.856581
C131	C	0.669372	-0.879243	-0.523248
C132	C	1.002706	-0.545910	-0.189915
H133	H	0.340752	-1.207718	-0.798268
H134	H	0.674086	-0.874385	-0.464935
H135	H	1.007419	-0.541052	-0.131602
H136	H	0.348944	-1.265484	-0.870068
H137	H	0.682277	-0.932150	-0.536735
H138	H	1.015611	-0.598817	-0.203401
H139	H	0.280868	-1.202651	-0.873698
H140	H	0.614202	-0.869317	-0.540365
H141	H	0.947535	-0.535984	-0.207031
H142	H	0.490304	-1.055697	-0.890946
H143	H	0.823638	-0.722364	-0.557612
H144	H	1.156971	-0.389030	-0.224279
