data_functionalizedCrystal
_audit_creation_method	'MofGen! by Chris Wilmer'
_symmetry_space_group_name_H-M	'P1'
_symmetry_Int_Tables_number	1
_symmetry_cell_setting	triclinic
loop_
_symmetry_equiv_pos_as_xyz
  x,y,z
_cell_length_a	15.944545
_cell_length_b	15.944493
_cell_length_c	15.021413
_cell_angle_alpha	89.990110
_cell_angle_beta	90.004532
_cell_angle_gamma	83.485608
loop_
_atom_site_label
_atom_site_type_symbol
_atom_site_fract_x
_atom_site_fract_y
_atom_site_fract_z
O1	O	1.114510	0.108299	0.073963
O2	O	1.614510	0.608299	0.573963
O3	O	0.869956	0.121661	0.073976
O4	O	1.369956	0.621661	0.573976
O5	O	0.998937	-0.007299	0.073976
O6	O	1.498937	0.492701	0.573976
O7	O	0.985529	0.237258	0.073962
O8	O	1.485529	0.737258	0.573962
O9	O	0.998916	-0.007280	-0.074088
O10	O	1.498916	0.492720	0.425912
O11	O	0.869936	0.121679	-0.074089
O12	O	1.369936	0.621679	0.425911
O13	O	1.114489	0.108317	-0.074102
O14	O	1.614489	0.608317	0.425898
Zn15	Zn	0.992209	0.115001	-0.097603
Zn16	Zn	1.492209	0.615001	0.402397
Zn17	Zn	0.992236	0.114977	0.097478
Zn18	Zn	1.492236	0.614977	0.597478
O19	O	0.985509	0.237276	-0.074102
O20	O	1.485509	0.737276	0.425898
C21	C	0.838652	0.121116	-0.000055
C22	C	1.338652	0.621116	0.499945
C23	C	0.745406	0.119456	-0.000049
C24	C	1.245406	0.619456	0.499951
C25	C	0.998378	-0.038584	-0.000052
C26	C	1.498378	0.461416	0.499948
C27	C	0.996735	-0.131833	-0.000041
C28	C	1.496735	0.368167	0.499959
C29	C	0.474791	0.034560	-0.000054
C30	C	0.974791	0.534560	0.499946
C31	C	0.525354	0.075499	-0.073061
C32	C	1.025354	0.575499	0.426939
C33	C	0.409764	0.113535	-0.000064
C34	C	0.909764	0.613535	0.499936
C35	C	0.525355	0.075502	0.072918
C36	C	1.025355	0.575502	0.572918
C37	C	0.574677	0.116440	-0.000055
C38	C	1.074677	0.616440	0.499945
C39	C	0.459098	0.154453	-0.073132
C40	C	0.959098	0.654453	0.426868
C41	C	0.459096	0.154445	0.072913
C42	C	0.959096	0.654445	0.572913
C43	C	0.509626	0.195442	-0.000113
C44	C	1.009626	0.695442	0.499887
C45	C	0.314762	0.111860	-0.000070
C46	C	0.814762	0.611860	0.499930
C47	C	0.669676	0.118122	-0.000056
C48	C	1.169676	0.618122	0.499944
C49	C	1.072656	-0.367594	-0.000062
C50	C	1.572656	0.132406	0.499938
C51	C	1.031725	-0.418171	0.072944
C52	C	1.531725	0.081829	0.572944
C53	C	0.993691	-0.302554	-0.000051
C54	C	1.493691	0.197446	0.499949
C55	C	1.031687	-0.418128	-0.073036
C56	C	1.531687	0.081872	0.426964
C57	C	0.990757	-0.467463	-0.000066
C58	C	1.490757	0.032537	0.499934
C59	C	0.952782	-0.351902	0.073014
C60	C	1.452782	0.148098	0.573014
C61	C	0.952755	-0.351856	-0.073031
C62	C	1.452755	0.148144	0.426969
C63	C	0.911766	-0.402400	-0.000008
C64	C	1.411766	0.097600	0.499992
C65	C	0.995384	-0.207554	-0.000042
C66	C	1.495384	0.292446	0.499958
C67	C	0.989058	-0.562460	-0.000068
C68	C	1.489058	-0.062460	0.499932
C69	C	1.145793	0.108862	-0.000069
C70	C	1.645793	0.608862	0.499931
C71	C	1.239039	0.110522	-0.000069
C72	C	1.739039	0.610522	0.499931
C73	C	0.986067	0.268562	-0.000072
C74	C	1.486067	0.768562	0.499928
C75	C	0.987710	0.361811	-0.000077
C76	C	1.487710	0.861811	0.499923
N77	N	0.992197	0.115017	-0.230741
N78	N	1.492197	0.615017	0.269259
C79	C	0.932547	0.174620	-0.470425
C80	C	1.432547	0.674620	0.029575
C81	C	1.008445	0.190926	-0.529764
C82	C	1.508445	0.690926	-0.029764
C83	C	0.992218	0.114996	-0.412348
C84	C	1.492218	0.614996	0.087652
C85	C	0.916342	0.098709	-0.529750
C86	C	1.416342	0.598709	-0.029750
C87	C	0.992232	0.114978	-0.587772
C88	C	1.492232	0.614978	-0.087772
C89	C	1.068154	0.131340	-0.470381
C90	C	1.568154	0.631340	0.029619
C91	C	0.976001	0.039090	-0.470362
C92	C	1.476001	0.539090	0.029638
C93	C	1.051953	0.055364	-0.529675
C94	C	1.551953	0.555364	-0.029675
C95	C	0.992209	0.115009	-0.311291
C96	C	1.492209	0.615009	0.188709
C97	C	0.992250	0.114964	-0.688827
C98	C	1.492250	0.614964	-0.188827
N99	N	0.992255	0.114954	0.230615
N100	N	1.492255	0.614954	0.730615
H101	H	0.459152	-0.033454	-0.000121
H102	H	0.959152	0.466546	0.499879
O103	O	1.071473	-0.452771	-0.146603
O104	O	1.571473	0.047229	0.353397
C105	C	1.068658	-0.540834	-0.146014
C106	C	1.568658	-0.040834	0.353986
H107	H	1.059512	-0.562940	-0.074857
H108	H	1.559512	-0.062940	0.425143
H109	H	1.130370	-0.573783	-0.173669
H110	H	1.630370	-0.073783	0.326331
H111	H	1.013817	-0.556989	-0.189038
H112	H	1.513817	-0.056989	0.310962
H113	H	0.852169	0.084942	-0.555830
H114	H	1.352169	0.584942	-0.055830
O115	O	0.912904	-0.317557	0.146666
O116	O	1.412904	0.182443	0.646666
C117	C	0.828371	-0.335635	0.146856
C118	C	1.328371	0.164365	0.646856
H119	H	0.808166	-0.349003	0.075941
H120	H	1.308166	0.150997	0.575941
H121	H	0.786048	-0.279199	0.174475
H122	H	1.286048	0.220801	0.674475
H123	H	0.822541	-0.393318	0.190303
H124	H	1.322541	0.106682	0.690303
H125	H	0.554283	0.042153	-0.134780
H126	H	1.054283	0.542153	0.365220
H127	H	0.430273	0.187789	-0.134921
H128	H	0.930273	0.687789	0.365079
H129	H	0.525104	0.263508	-0.000159
H130	H	1.025104	0.763508	0.499841
O131	O	1.153743	-0.348781	-0.000033
O132	O	1.653743	0.151219	0.499967
C133	C	1.154201	-0.260409	-0.000801
C134	C	1.654201	0.239591	0.499199
H135	H	1.092001	-0.229419	-0.029292
H136	H	1.592001	0.270581	0.470708
H137	H	1.208704	-0.243359	-0.043784
H138	H	1.708704	0.256641	0.456216
H139	H	1.162270	-0.236989	0.070050
H140	H	1.662270	0.263011	0.570050
H141	H	0.430151	0.187761	0.134634
H142	H	0.930151	0.687761	0.634634
H143	H	0.554288	0.042128	0.134637
H144	H	1.054288	0.542128	0.634637
O145	O	0.912989	-0.317148	-0.146591
O146	O	1.412989	0.182852	0.353409
C147	C	0.914477	-0.228913	-0.145127
C148	C	1.414477	0.271087	0.354873
H149	H	0.922811	-0.207223	-0.073682
H150	H	1.422811	0.292777	0.426318
H151	H	0.852565	-0.196604	-0.173000
H152	H	1.352565	0.303396	0.327000
H153	H	0.969256	-0.211560	-0.187515
H154	H	1.469256	0.288440	0.312485
O155	O	1.071652	-0.452698	0.146505
O156	O	1.571652	0.047302	0.646505
C157	C	1.156405	-0.435318	0.146256
C158	C	1.656405	0.064682	0.646256
H159	H	1.176444	-0.422232	0.075213
H160	H	1.676444	0.077768	0.575213
H161	H	1.198423	-0.492000	0.173828
H162	H	1.698423	0.008000	0.673828
H163	H	1.162881	-0.377671	0.189524
H164	H	1.662881	0.122329	0.689524
H165	H	0.882136	0.225083	-0.444409
H166	H	1.382136	0.725083	0.055591
H167	H	1.022174	0.255110	-0.555856
H168	H	1.522174	0.755110	-0.055856
H169	H	0.843695	-0.417864	0.000035
H170	H	1.343695	0.082136	0.500035
H171	H	0.962248	-0.025073	-0.444249
H172	H	1.462248	0.474927	0.055751
O173	O	1.112175	-0.004904	-0.560415
O174	O	1.612175	0.495096	-0.060415
C175	C	1.095606	-0.084655	-0.528827
C176	C	1.595606	0.415345	-0.028827
H177	H	1.055401	-0.076287	-0.466020
H178	H	1.555401	0.423713	0.033980
H179	H	1.157740	-0.124512	-0.512904
H180	H	1.657740	0.375488	-0.012904
H181	H	1.060280	-0.117656	-0.582011
H182	H	1.560280	0.382344	-0.082011
O183	O	1.144651	0.147940	-0.439260
O184	O	1.644651	0.647940	0.060740
C185	C	1.143706	0.147794	-0.345404
C186	C	1.643706	0.647794	0.154596
H187	H	1.075835	0.160939	-0.320861
H188	H	1.575835	0.660939	0.179139
H189	H	1.182061	0.198800	-0.319510
H190	H	1.682061	0.698800	0.180490
H191	H	1.172457	0.083526	-0.319946
H192	H	1.672457	0.583526	0.180054
