data_functionalizedCrystal
_audit_creation_method	'MofGen! by Chris Wilmer'
_symmetry_space_group_name_H-M	'P1'
_symmetry_Int_Tables_number	1
_symmetry_cell_setting	triclinic
loop_
_symmetry_equiv_pos_as_xyz
  x,y,z
_cell_length_a	10.654550
_cell_length_b	14.971494
_cell_length_c	9.730223
_cell_angle_alpha	89.997316
_cell_angle_beta	89.999957
_cell_angle_gamma	84.051244
loop_
_atom_site_label
_atom_site_type_symbol
_atom_site_fract_x
_atom_site_fract_y
_atom_site_fract_z
O1	O	1.666497	0.125631	-0.114182
O2	O	1.300890	0.137600	-0.114206
O3	O	1.493487	0.001469	-0.114190
O4	O	1.473900	0.261761	-0.114198
O5	O	1.493475	0.001465	0.114390
O6	O	1.300878	0.137596	0.114374
O7	O	1.666484	0.125627	0.114398
Zn8	Zn	1.483679	0.131611	0.150678
Zn9	Zn	1.483695	0.131616	-0.150486
O10	O	1.473887	0.261758	0.114382
C11	C	1.254095	0.136719	0.000080
C12	C	1.114680	0.134090	0.000071
C13	C	1.034338	0.214241	0.000073
C14	C	0.903344	0.211765	0.000097
C15	C	0.933047	0.048979	0.000112
C16	C	1.064038	0.051456	0.000097
C17	C	1.492603	-0.031862	0.000098
C18	C	1.489972	-0.131173	0.000091
C19	C	1.488746	-0.177823	-0.124510
C20	C	1.486266	-0.271135	-0.124511
C21	C	1.485022	-0.317798	0.000089
C22	C	1.486244	-0.271141	0.124699
C23	C	1.488715	-0.177830	0.124699
C24	C	1.481097	-0.465632	0.124689
C25	C	1.478628	-0.558951	0.124690
C26	C	1.478648	-0.558938	-0.124521
C27	C	1.481119	-0.465626	-0.124521
C28	C	1.482344	-0.418977	0.000090
C29	C	1.713279	0.126507	0.000109
C30	C	1.852694	0.129137	0.000109
C31	C	1.474771	0.295089	0.000091
C32	C	1.477402	0.394400	0.000089
N33	N	1.483677	0.131607	0.356214
N34	N	1.483707	0.131613	-0.356022
C35	C	1.568988	0.071354	0.428147
C36	C	1.569000	0.071354	0.572030
C37	C	1.398387	0.191869	0.572035
C38	C	1.398370	0.191863	0.428154
H39	H	0.891797	-0.018299	0.000141
Br40	Br	1.282573	0.273634	0.330519
Br41	Br	1.490448	-0.114506	-0.293620
H42	H	1.638449	0.022288	0.369577
H43	H	1.129457	-0.013817	0.000100
H44	H	1.482142	-0.427637	-0.225982
H45	H	1.485223	-0.309140	0.226151
H46	H	1.482067	-0.427651	0.226161
Br47	Br	0.794312	0.320548	0.000106
H48	H	1.485273	-0.309114	-0.225974
Br49	Br	1.103063	0.326386	0.000041
Br50	Br	1.684778	-0.010425	0.669651
Br51	Br	1.476945	-0.622279	0.293791
Br52	Br	1.476980	-0.622246	-0.293637
Br53	Br	1.490372	-0.114518	0.293807
Br54	Br	1.282620	0.273644	0.669672
