data_functionalizedCrystal
_audit_creation_method	'MofGen! by Chris Wilmer'
_symmetry_space_group_name_H-M	'P1'
_symmetry_Int_Tables_number	1
_symmetry_cell_setting	triclinic
loop_
_symmetry_equiv_pos_as_xyz
  x,y,z
_cell_length_a	16.959455
_cell_length_b	16.959454
_cell_length_c	12.759387
_cell_angle_alpha	89.969920
_cell_angle_beta	89.972176
_cell_angle_gamma	90.017095
loop_
_atom_site_label
_atom_site_type_symbol
_atom_site_fract_x
_atom_site_fract_y
_atom_site_fract_z
Zn1	Zn	1.208442	-0.314703	-0.594215
Zn2	Zn	1.208347	-0.446903	-0.418538
Zn3	Zn	1.076253	-0.314735	-0.418530
Zn4	Zn	1.076235	-0.446836	-0.594155
O5	O	1.142319	-0.380794	-0.506359
O6	O	1.319040	-0.332253	-0.570940
O7	O	1.190793	-0.429412	-0.271516
O8	O	1.093836	-0.204120	-0.441857
O9	O	1.318971	-0.429380	-0.441871
O10	O	1.190954	-0.204096	-0.570932
O11	O	1.093744	-0.332309	-0.271510
O12	O	0.965640	-0.332245	-0.441798
O13	O	1.093805	-0.429267	-0.741184
O14	O	0.965627	-0.429298	-0.570829
O15	O	1.190936	-0.332189	-0.741228
O16	O	1.190775	-0.557505	-0.441812
O17	O	1.093713	-0.557456	-0.570837
C18	C	0.936953	-0.380768	-0.506307
C19	C	0.849097	-0.380776	-0.506309
C20	C	1.142253	-0.586161	-0.506342
C21	C	1.142297	-0.674017	-0.506369
C22	C	0.477574	-0.431318	-0.439119
C23	C	0.477668	-0.330336	-0.573728
C24	C	0.560214	-0.330323	-0.573702
C25	C	0.601444	-0.380809	-0.506385
C26	C	0.560128	-0.431308	-0.439093
C27	C	0.601536	-0.279830	-0.641001
C28	C	0.684087	-0.279816	-0.640979
C29	C	0.725318	-0.330299	-0.573655
C30	C	0.683997	-0.380799	-0.506360
C31	C	0.725227	-0.431285	-0.439042
C32	C	0.683907	-0.481783	-0.371741
C33	C	0.601359	-0.481791	-0.371770
C34	C	0.807867	-0.330290	-0.573626
C35	C	0.807781	-0.431276	-0.439017
C36	C	1.091852	-1.045497	-0.573535
C37	C	1.193007	-1.045488	-0.439290
C38	C	1.192979	-0.962942	-0.439281
C39	C	1.142386	-0.921670	-0.506398
C40	C	1.091822	-0.962944	-0.573526
C41	C	1.243537	-0.921662	-0.372147
C42	C	1.243511	-0.839112	-0.372134
C43	C	1.192922	-0.797838	-0.439258
C44	C	1.142356	-0.839116	-0.506389
C45	C	1.091763	-0.797844	-0.573506
C46	C	1.041200	-0.839121	-0.640643
C47	C	1.041232	-0.921670	-0.640649
C48	C	1.192890	-0.715289	-0.439251
C49	C	1.091732	-0.715291	-0.573496
C50	C	1.348488	-0.380821	-0.506413
C51	C	1.436344	-0.380832	-0.506436
C52	C	1.142379	-0.380717	-0.780393
C53	C	1.142405	-0.380684	-0.897170
C54	C	1.142407	-0.174626	-0.506400
C55	C	1.142445	-0.086769	-0.506418
C56	C	1.243555	-0.279603	-0.897236
C57	C	1.294141	-0.229051	-0.952130
C58	C	1.294160	-0.229022	-1.061852
C59	C	1.243586	-0.279549	-1.116682
C60	C	1.193000	-0.330101	-1.061788
C61	C	1.192988	-0.330126	-0.952064
C62	C	1.091847	-0.431177	-1.061722
C63	C	1.091830	-0.431211	-0.952000
C64	C	1.041273	-0.481704	-1.116552
C65	C	0.990690	-0.532261	-1.061658
C66	C	0.990673	-0.532289	-0.951930
C67	C	1.041244	-0.481763	-0.897106
C68	C	1.142305	-0.380814	-0.233392
C69	C	1.142433	-0.380625	-0.116616
H70	H	0.841344	-0.472386	-0.384195
C71	C	0.556187	-0.224308	-0.715055
H72	H	0.592617	-0.194241	-0.755141
H73	H	0.523967	-0.189833	-0.674961
H74	H	0.524007	-0.254602	-0.760769
C75	C	0.935067	-0.587834	-1.121971
H76	H	0.942325	-0.580577	-1.195178
H77	H	0.881962	-0.576265	-1.103970
H78	H	0.946614	-0.640953	-1.103987
H79	H	1.000066	-0.955285	-0.695307
H80	H	1.243600	-0.279515	-1.206023
C81	C	0.985552	-0.793717	-0.714468
H82	H	0.992781	-0.738643	-0.704845
H83	H	0.932454	-0.807287	-0.699031
H84	H	0.997106	-0.807198	-0.785082
H85	H	1.234192	-1.079097	-0.384640
C86	C	1.041294	-0.481674	-1.237243
H87	H	1.078670	-0.444337	-1.262085
H88	H	0.990299	-0.467988	-1.262053
H89	H	1.054944	-0.532684	-1.262049
C90	C	0.432318	-0.274805	-0.647769
H91	H	0.377237	-0.282041	-0.638142
H92	H	0.445882	-0.286428	-0.718331
H93	H	0.445845	-0.221679	-0.632497
H94	H	0.717722	-0.238698	-0.695779
C95	C	1.299194	-0.967061	-0.298339
H96	H	1.291979	-1.022136	-0.307975
H97	H	1.287659	-0.953584	-0.227725
H98	H	1.352291	-0.953483	-0.313803
C99	C	1.248498	-0.669884	-0.365411
H100	H	1.241233	-0.614810	-0.375014
H101	H	1.301607	-0.683371	-0.380851
H102	H	1.236952	-0.683452	-0.294804
C103	C	0.935041	-0.587911	-0.891555
H104	H	0.904935	-0.618003	-0.939927
H105	H	0.900607	-0.557693	-0.848733
H106	H	0.965270	-0.622371	-0.848769
C107	C	1.041224	-0.481792	-0.776416
H108	H	1.003857	-0.519137	-0.751572
H109	H	1.027582	-0.430786	-0.751606
H110	H	1.092224	-0.495485	-0.751610
H111	H	1.284682	-0.805509	-0.317469
C112	C	1.036235	-1.090897	-0.647377
H113	H	1.043494	-1.145971	-0.637771
H114	H	1.047768	-1.077324	-0.717981
H115	H	0.983125	-1.077411	-0.631918
C116	C	1.243539	-0.279636	-0.776545
H117	H	1.280899	-0.242303	-0.751753
H118	H	1.257174	-0.330654	-0.751717
H119	H	1.192533	-0.265954	-0.751708
C120	C	0.853315	-0.274752	-0.647649
H121	H	0.816937	-0.244686	-0.687743
H122	H	0.885539	-0.305027	-0.693342
H123	H	0.885499	-0.240266	-0.607524
H124	H	1.335316	-0.187912	-0.907475
H125	H	1.335347	-0.187853	-1.106546
H126	H	0.717488	-0.522893	-0.316937
C127	C	0.555910	-0.537339	-0.297754
H128	H	0.592286	-0.567402	-0.257651
H129	H	0.523726	-0.571817	-0.337882
H130	H	0.523686	-0.507064	-0.252053
C131	C	0.432128	-0.486863	-0.365096
H132	H	0.377059	-0.479644	-0.374752
H133	H	0.445624	-0.475234	-0.294528
H134	H	0.445655	-0.539986	-0.380358
C135	C	1.036083	-0.669894	-0.647327
H136	H	1.043307	-0.614818	-0.637713
H137	H	0.982985	-0.683467	-0.631889
H138	H	1.047638	-0.683380	-0.717938
