data_functionalizedCrystal
_audit_creation_method	'MofGen! by Chris Wilmer'
_symmetry_space_group_name_H-M	'P1'
_symmetry_Int_Tables_number	1
_symmetry_cell_setting	triclinic
loop_
_symmetry_equiv_pos_as_xyz
  x,y,z
_cell_length_a	6.817900
_cell_length_b	16.015009
_cell_length_c	19.453114
_cell_angle_alpha	78.331337
_cell_angle_beta	101.709288
_cell_angle_gamma	104.487874
loop_
_atom_site_label
_atom_site_type_symbol
_atom_site_fract_x
_atom_site_fract_y
_atom_site_fract_z
V1	V	-3.994006	-0.120324	-0.188237
O2	O	-3.995259	0.004857	-0.216072
O3	O	-3.933132	-0.237694	-0.156733
O4	O	-3.937075	-0.118879	-0.284119
O5	O	-3.991289	-0.114780	-0.087803
V6	V	-4.480356	-0.105303	-0.179895
O7	O	-4.249064	-0.153274	-0.206536
O8	O	-4.675495	-0.072353	-0.161596
O9	O	-4.318023	0.012066	-0.211399
O10	O	-4.596499	-0.230485	-0.152060
O11	O	-4.600469	-0.110848	-0.280329
O12	O	-4.314080	-0.106748	-0.084013
C13	C	-3.775375	-0.266293	-0.145966
C14	C	-3.806833	-0.362247	-0.120847
C15	C	-3.818125	-0.484901	-0.024342
C16	C	-3.788567	-0.394740	-0.047953
C17	C	-3.854678	-0.419910	-0.170159
C18	C	-3.884251	-0.510076	-0.146559
C19	C	-3.865968	-0.542564	-0.073650
C20	C	-3.932095	-0.567739	-0.195866
C21	C	-3.961655	-0.657896	-0.172267
C22	C	-3.943371	-0.690391	-0.099361
C23	C	-3.895528	-0.632721	-0.050051
C24	C	-3.950362	-0.535249	-0.268775
C25	C	-3.998206	-0.592912	-0.318082
C26	C	-4.027781	-0.683072	-0.294484
C27	C	-4.009497	-0.715566	-0.221578
C28	C	-4.075624	-0.740741	-0.343794
C29	C	-4.105184	-0.830899	-0.320196
C30	C	-4.039057	-0.805724	-0.197979
C31	C	-3.780403	-0.114733	-0.308460
C32	C	-3.815056	-0.114328	-0.386646
C33	C	-4.012658	-0.118470	-0.425844
C34	C	-4.045219	-0.118090	-0.499308
C35	C	-3.880173	-0.113584	-0.533569
C36	C	-3.682542	-0.109436	-0.494362
C37	C	-3.649983	-0.109808	-0.420901
N38	N	-3.815585	-0.159169	-0.640704
N39	N	-3.846528	-0.158818	-0.710489
C40	C	-3.978259	-0.112462	-0.754904
N41	N	-4.077913	-0.066483	-0.726896
N42	N	-4.046975	-0.066838	-0.657104
C43	C	-3.915457	-0.113180	-0.613225
C44	C	-4.211179	-0.116191	-0.873760
C45	C	-4.243730	-0.115805	-0.947226
C46	C	-3.881051	-0.107161	-0.942278
C47	C	-3.848501	-0.107538	-0.868814
C48	C	-4.013574	-0.112058	-0.834560
C49	C	-4.139122	0.040661	-0.222163
C50	C	-4.086901	0.136613	-0.247286
C51	C	-4.134095	-0.110898	-0.059668
C52	C	-4.078680	-0.111298	0.018518
H53	H	-4.013078	-0.566447	-0.377445
H54	H	-3.489067	-0.106428	-0.388986
H55	H	-3.926232	-0.461835	-0.287986
Cl56	Cl	-4.098562	-0.699887	-0.435447
Cl57	Cl	-3.673552	-0.101480	-0.985343
H58	H	-4.144135	-0.877850	-0.360347
Cl59	Cl	-3.877640	-0.379059	-0.261813
H60	H	-4.147075	-0.122147	-0.397959
H61	H	-3.687598	-0.104174	-0.836897
Cl62	Cl	-4.293652	-0.123293	-0.548596
H63	H	-3.548161	-0.105765	-0.522262
Cl64	Cl	-4.016094	-0.846573	-0.106320
Cl65	Cl	-3.980510	-0.803733	-0.069692
Cl66	Cl	-3.872565	-0.673570	0.041608
H67	H	-4.345590	-0.119868	-0.845869
H68	H	-3.803251	-0.511354	0.035027
H69	H	-3.749592	-0.347791	-0.007795
Cl70	Cl	-4.492166	-0.121012	-0.996505
