data_functionalizedCrystal
_audit_creation_method	'MofGen! by Chris Wilmer'
_symmetry_space_group_name_H-M	'P1'
_symmetry_Int_Tables_number	1
_symmetry_cell_setting	triclinic
loop_
_symmetry_equiv_pos_as_xyz
  x,y,z
_cell_length_a	12.759401
_cell_length_b	16.120484
_cell_length_c	12.759393
_cell_angle_alpha	92.863987
_cell_angle_beta	89.981708
_cell_angle_gamma	92.925560
loop_
_atom_site_label
_atom_site_type_symbol
_atom_site_fract_x
_atom_site_fract_y
_atom_site_fract_z
Zn1	Zn	1.584969	-0.331863	-0.615146
Zn2	Zn	2.084969	0.168137	-0.115146
Zn3	Zn	1.575921	-0.471298	-0.448359
Zn4	Zn	2.075921	0.028702	0.051641
Zn5	Zn	1.409269	-0.331903	-0.439488
Zn6	Zn	1.909269	0.168097	0.060512
Zn7	Zn	1.400321	-0.471236	-0.623997
Zn8	Zn	1.900321	0.028764	-0.123997
O9	O	1.492620	-0.401575	-0.531748
O10	O	1.992620	0.098425	-0.031748
O11	O	1.730789	-0.350367	-0.593030
O12	O	2.230789	0.149633	-0.093030
O13	O	1.553773	-0.452850	-0.300164
O14	O	2.053773	0.047150	0.199836
O15	O	1.440107	-0.215233	-0.455373
O16	O	1.940107	0.284767	0.044627
O17	O	1.724142	-0.452810	-0.470492
O18	O	2.224142	0.047190	0.029508
O19	O	1.569193	-0.215203	-0.584429
O20	O	2.069193	0.284797	-0.084429
O21	O	1.431334	-0.350437	-0.293647
O22	O	1.931334	0.149563	0.206353
O23	O	1.261062	-0.350378	-0.463955
O24	O	1.761062	0.149622	0.036045
O25	O	1.424856	-0.452705	-0.769841
O26	O	1.924856	0.047295	-0.269841
O27	O	1.254487	-0.452745	-0.599513
O28	O	1.754487	0.047255	-0.099513
O29	O	1.560517	-0.350308	-0.763339
O30	O	2.060517	0.149692	-0.263339
O31	O	1.545096	-0.587955	-0.479074
O32	O	2.045096	-0.087955	0.020926
O33	O	1.416083	-0.587910	-0.608114
O34	O	1.916083	-0.087910	-0.108114
C35	C	1.219654	-0.401560	-0.531732
C36	C	1.719654	0.098440	-0.031732
C37	C	1.102876	-0.401573	-0.531752
C38	C	1.602876	0.098427	-0.031752
C39	C	1.044613	-0.454961	-0.602231
C40	C	1.544613	0.045039	-0.102231
C41	C	0.934888	-0.454972	-0.602243
C42	C	1.434888	0.045028	-0.102243
C43	C	0.941700	-0.348204	-0.461288
C44	C	1.441700	0.151796	0.038712
C45	C	1.051423	-0.348190	-0.461282
C46	C	1.551423	0.151810	0.038718
C47	C	1.096066	-0.508344	-0.672701
C48	C	1.596066	-0.008344	-0.172701
C49	C	1.037803	-0.561737	-0.743185
C50	C	1.537803	-0.061737	-0.243185
C51	C	0.928078	-0.561748	-0.743198
C52	C	1.428078	-0.061748	-0.243198
C53	C	0.876617	-0.508365	-0.672726
C54	C	1.376617	-0.008365	-0.172726
C55	C	1.478665	-0.618182	-0.545540
C56	C	1.978665	-0.118182	-0.045540
C57	C	1.472792	-0.710848	-0.551476
C58	C	1.972792	-0.210848	-0.051476
C59	C	1.462074	-0.880509	-0.562334
C60	C	1.962074	-0.380509	-0.062334
C61	C	1.523355	-0.921801	-0.501178
C62	C	2.023355	-0.421801	-0.001178
C63	C	1.517391	-1.016206	-0.507220
C64	C	2.017391	-0.516206	-0.007220
C65	C	1.468036	-0.786095	-0.556294
C66	C	1.968036	-0.286095	-0.056294
C67	C	1.766652	-0.401591	-0.531764
C68	C	2.266652	0.098409	-0.031764
C69	C	1.883428	-0.401598	-0.531770
C70	C	2.383428	0.098402	-0.031770
C71	C	1.492698	-0.401495	-0.805776
C72	C	1.992698	0.098505	-0.305776
C73	C	1.492731	-0.401461	-0.922551
C74	C	1.992731	0.098539	-0.422551
C75	C	1.506658	-0.184122	-0.517924
C76	C	2.006658	0.315878	-0.017924
C77	C	1.512640	-0.091456	-0.512034
C78	C	2.012640	0.408544	-0.012034
C79	C	1.556489	-0.454767	-0.980802
C80	C	2.056489	0.045233	-0.480802
C81	C	1.556523	-0.454731	-1.090524
C82	C	2.056523	0.045269	-0.590524
C83	C	1.429031	-0.348082	-1.083733
C84	C	1.929031	0.151918	-0.583733
C85	C	1.429004	-0.348114	-0.974013
C86	C	1.929004	0.151886	-0.474013
C87	C	1.620216	-0.508114	-0.929340
C88	C	2.120216	-0.008114	-0.429340
C89	C	1.683979	-0.561425	-0.987592
C90	C	2.183979	-0.061425	-0.487592
C91	C	1.684013	-0.561389	-1.097314
C92	C	2.184013	-0.061389	-0.597314
C93	C	1.620284	-0.508043	-1.148784
C94	C	2.120284	-0.008043	-0.648784
C95	C	1.492607	-0.401594	-0.258781
C96	C	1.992607	0.098406	0.241219
C97	C	1.492792	-0.401394	-0.141993
C98	C	1.992792	0.098606	0.358007
H99	H	1.185409	-0.508343	-0.672698
H100	H	1.685409	-0.008343	-0.172698
O101	O	1.360311	-0.290542	-1.139248
O102	O	1.860311	0.209458	-0.639248
H103	H	1.304455	-0.327830	-1.191604
H104	H	1.804455	0.172170	-0.691604
H105	H	1.620193	-0.508151	-0.840000
H106	H	2.120193	-0.008151	-0.340000
H107	H	1.079710	-0.605194	-0.800567
H108	H	1.579710	-0.105194	-0.300567
H109	H	0.880643	-0.605217	-0.800596
H110	H	1.380643	-0.105217	-0.300596
O111	O	0.886186	-0.290655	-0.385263
O112	O	1.386186	0.209345	0.114737
H113	H	0.838916	-0.248295	-0.429667
H114	H	1.338916	0.251705	0.070333
H115	H	0.787272	-0.508371	-0.672750
H116	H	1.287272	-0.008371	-0.172750
O117	O	1.386633	-0.927595	-0.637674
O118	O	1.886633	-0.427595	-0.137674
H119	H	1.431162	-0.967212	-0.693649
H120	H	1.931162	-0.467212	-0.193649
H121	H	1.098862	-0.304710	-0.403899
H122	H	1.598862	0.195290	0.096101
O123	O	1.598782	-0.874722	-0.425807
O124	O	2.098782	-0.374722	0.074193
H125	H	1.591683	-0.806885	-0.432821
H126	H	2.091683	-0.306885	0.067179
H127	H	1.735871	-0.604852	-0.945678
H128	H	2.235871	-0.104852	-0.445678
H129	H	1.735939	-0.604791	-1.144740
H130	H	2.235939	-0.104791	-0.644740
H131	H	1.620326	-0.508012	-1.238127
H132	H	2.120326	-0.008012	-0.738127
O133	O	1.360235	-0.290625	-0.911172
O134	O	1.860235	0.209375	-0.411172
H135	H	1.315913	-0.253533	-0.965388
H136	H	1.815913	0.246467	-0.465388
