data_functionalizedCrystal
_audit_creation_method	'MofGen! by Chris Wilmer'
_symmetry_space_group_name_H-M	'P1'
_symmetry_Int_Tables_number	1
_symmetry_cell_setting	triclinic
loop_
_symmetry_equiv_pos_as_xyz
  x,y,z
_cell_length_a	6.394989
_cell_length_b	10.654550
_cell_length_c	9.130313
_cell_angle_alpha	90.003780
_cell_angle_beta	89.998359
_cell_angle_gamma	85.491307
loop_
_atom_site_label
_atom_site_type_symbol
_atom_site_fract_x
_atom_site_fract_y
_atom_site_fract_z
O1	O	-0.293432	-1.670942	-0.121910
O2	O	-0.321389	-1.305759	-0.121885
O3	O	-0.003422	-1.493534	-0.121899
O4	O	-0.611400	-1.483167	-0.121896
O5	O	-0.003430	-1.493532	0.121700
O6	O	-0.321398	-1.305757	0.121713
O7	O	-0.293441	-1.670940	0.121689
Cu8	Cu	-0.307420	-1.488348	0.143944
Cu9	Cu	-0.307410	-1.488351	-0.144140
O10	O	-0.611408	-1.483165	0.121703
C11	C	-0.319341	-1.258939	-0.000083
C12	C	-0.313199	-1.119430	-0.000074
N13	N	-0.307426	-1.488355	0.346566
C14	C	-0.295489	-1.717760	-0.000117
C15	C	-0.301631	-1.857269	-0.000135
C16	C	0.074425	-1.491483	-0.000105
C17	C	0.310751	-1.485219	-0.000106
N18	N	-0.307388	-1.488353	-0.346763
C19	C	-0.500414	-1.041927	-0.000094
C20	C	-0.494630	-0.910845	-0.000120
C21	C	-0.114402	-0.934782	-0.000110
C22	C	-0.120188	-1.065861	-0.000074
C23	C	-0.719936	-1.028107	-0.000106
C24	C	-0.714152	-0.897025	-0.000132
C25	C	-0.166678	-1.571524	0.423212
C26	C	-0.166653	-1.571521	0.576549
C27	C	-0.448142	-1.405175	0.576581
C28	C	-0.448155	-1.405174	0.423247
C29	C	-0.004169	-1.667567	0.423195
C30	C	-0.004143	-1.667563	0.576532
H31	H	0.032261	-1.128960	-0.000037
H32	H	0.042742	-0.891149	-0.000133
C33	C	-0.072885	-1.791475	0.358929
H34	H	-0.103467	-1.846657	0.436414
H35	H	-0.194541	-1.774252	0.300373
H36	H	0.036991	-1.829972	0.300365
C37	C	-0.052509	-1.798442	0.632763
H38	H	-0.052471	-1.798436	0.736816
H39	H	-0.186321	-1.817742	0.598104
H40	H	0.051461	-1.859888	0.598076
H41	H	-0.780498	-0.852055	0.105037
H42	H	-0.805794	-1.058346	0.101846
H43	H	0.156415	-1.644423	0.381576
H44	H	0.147607	-1.635443	0.624081
C45	C	-0.814376	-1.077285	-0.142170
H46	H	-0.852438	-1.008479	-0.205456
H47	H	-0.713678	-1.133839	-0.189363
H48	H	-0.935307	-1.119861	-0.119332
H49	H	-0.796861	-0.856169	-0.102085
C50	C	-0.602965	-1.313681	0.338940
H51	H	-0.686783	-1.264152	0.406573
H52	H	-0.526996	-1.260213	0.279123
H53	H	-0.690659	-1.360239	0.279129
C54	C	-0.602943	-1.313691	0.660933
H55	H	-0.582787	-1.325606	0.763232
H56	H	-0.578962	-1.229503	0.635807
H57	H	-0.742602	-1.329542	0.635814
