data_functionalizedCrystal
_audit_creation_method	'MofGen! by Chris Wilmer'
_symmetry_space_group_name_H-M	'P1'
_symmetry_Int_Tables_number	1
_symmetry_cell_setting	triclinic
loop_
_symmetry_equiv_pos_as_xyz
  x,y,z
_cell_length_a	18.215407
_cell_length_b	17.639999
_cell_length_c	18.215407
_cell_angle_alpha	78.791764
_cell_angle_beta	90.007771
_cell_angle_gamma	101.196378
loop_
_atom_site_label
_atom_site_type_symbol
_atom_site_fract_x
_atom_site_fract_y
_atom_site_fract_z
Zn1	Zn	1.184309	0.314833	0.356875
Zn2	Zn	1.209129	0.446968	0.208966
Zn3	Zn	1.061259	0.314815	0.233831
Zn4	Zn	1.086096	0.446953	0.331999
O5	O	1.135198	0.380892	0.282918
O6	O	1.290588	0.332374	0.337259
O7	O	1.189507	0.429436	0.109280
O8	O	1.056800	0.204219	0.270970
O9	O	1.308824	0.429453	0.228591
O10	O	1.147205	0.204231	0.361370
O11	O	1.080867	0.332345	0.127549
O12	O	0.961567	0.332330	0.246849
O13	O	1.099131	0.429428	0.438283
O14	O	0.979814	0.429412	0.318972
O15	O	1.171288	0.332360	0.456559
O16	O	1.213590	0.557565	0.204470
O17	O	1.123198	0.557554	0.294861
C18	C	0.943987	0.380868	0.282909
C19	C	0.862190	0.380877	0.282920
C20	C	0.664520	0.330432	0.339558
C21	C	0.587662	0.330439	0.339559
C22	C	0.606633	0.431375	0.226286
C23	C	0.683488	0.431364	0.226283
C24	C	0.712430	0.380893	0.282923
C25	C	0.558717	0.380911	0.282927
C26	C	0.475385	0.380919	0.282928
C27	C	0.795767	0.380884	0.282921
C28	C	1.173803	0.586237	0.244284
C29	C	1.190385	0.674084	0.227781
C30	C	1.009411	0.963112	0.408541
C31	C	1.024994	1.045658	0.393011
C32	C	1.119177	1.045604	0.298981
C33	C	1.103605	0.963056	0.314506
C34	C	1.048720	0.921817	0.369287
C35	C	1.142914	0.921761	0.275252
C36	C	1.127340	0.839221	0.290773
C37	C	1.072456	0.797975	0.345549
C38	C	1.033146	0.839276	0.384808
C39	C	1.197795	0.963002	0.220468
C40	C	1.237104	0.921706	0.181213
C41	C	1.221534	0.839165	0.196738
C42	C	1.166650	0.797920	0.251514
C43	C	1.260844	0.797864	0.157479
C44	C	1.245270	0.715323	0.173001
C45	C	1.151076	0.715379	0.267036
C46	C	1.327156	0.380917	0.282926
C47	C	1.408957	0.380928	0.282930
C48	C	1.135211	0.380895	0.474870
C49	C	1.135217	0.380895	0.556669
C50	C	1.096440	1.174746	0.321715
C51	C	1.079865	1.086899	0.338240
C52	C	1.172776	0.330360	0.754379
C53	C	1.172772	0.330360	0.831238
C54	C	1.097636	0.431442	0.812194
C55	C	1.097636	0.431438	0.735338
C56	C	1.135211	0.380898	0.706432
C57	C	1.135206	0.380902	0.860147
C58	C	1.135202	0.380902	0.943481
C59	C	1.135214	0.380897	0.623093
C60	C	1.135189	0.380907	1.091709
C61	C	1.135200	0.380905	1.009910
H62	H	0.583059	0.472467	0.180173
H63	H	0.722499	0.472456	0.180159
H64	H	1.281789	0.955295	0.136609
O65	O	0.979781	0.799127	0.437942
C66	C	0.862823	0.706048	0.465266
C67	C	0.923207	0.751452	0.405025
H68	H	0.817059	0.667505	0.438673
H69	H	0.889237	0.667319	0.511045
H70	H	0.837444	0.749759	0.490674
H71	H	0.948608	0.707798	0.379559
H72	H	0.896752	0.790193	0.359292
H73	H	0.688081	0.289333	0.385676
O74	O	1.212996	1.043182	0.205273
C75	C	1.287058	1.161599	0.131428
C76	C	1.269906	1.070797	0.148549
H77	H	1.333082	1.183953	0.085577
H78	H	1.234345	1.184099	0.111837
H79	H	1.306479	1.183966	0.184243
H80	H	1.250504	1.048362	0.095763
H81	H	1.322635	1.048350	0.168171
O82	O	1.314147	0.838050	0.104305
C83	C	1.379828	0.965185	0.038664
C84	C	1.319461	0.919774	0.098919
H85	H	1.384133	1.031267	0.034279
H86	H	1.436123	0.948978	0.054680
H87	H	1.363880	0.948920	-0.017618
H88	H	1.335338	0.936015	0.155223
H89	H	1.263183	0.935985	0.082839
O90	O	1.283342	0.675167	0.134801
C91	C	1.275723	0.581943	0.053017
C92	C	1.232520	0.627387	0.096229
H93	H	1.234651	0.543290	0.021833
H94	H	1.317609	0.625558	0.011151
H95	H	1.306897	0.543297	0.094124
H96	H	1.201302	0.666034	0.055178
H97	H	1.190678	0.583730	0.138105
H98	H	1.067041	0.472591	0.696297
H99	H	1.067046	0.472592	0.835739
O100	O	1.209168	0.281148	0.726356
C101	C	1.219649	0.146709	0.728195
C102	C	1.178363	0.202356	0.759976
H103	H	1.194770	0.082995	0.755375
H104	H	1.213184	0.155316	0.665031
H105	H	1.281602	0.160632	0.740687
H106	H	1.116396	0.188467	0.747539
H107	H	1.184889	0.193739	0.823132
O108	O	1.057328	0.717795	0.360765
C109	C	1.053865	0.599321	0.453609
C110	C	1.071008	0.690123	0.436483
H111	H	1.064933	0.576920	0.514821
H112	H	0.992655	0.576916	0.442549
H113	H	1.091368	0.576904	0.416110
H114	H	1.033553	0.712607	0.473969
H115	H	1.132234	0.712474	0.447520
O116	O	0.541232	0.281397	0.394651
C117	C	0.530526	0.181250	0.506979
C118	C	0.583194	0.236766	0.444641
H119	H	0.564429	0.145140	0.547404
H120	H	0.501402	0.217566	0.538624
H121	H	0.486740	0.139905	0.481023
H122	H	0.627022	0.278122	0.470535
H123	H	0.612263	0.200401	0.413004
H124	H	1.106388	0.681801	0.311649
O125	O	0.956059	0.923167	0.461766
C126	C	0.864328	0.931922	0.553457
C127	C	0.924709	0.977258	0.493187
H128	H	0.838976	0.975635	0.578888
H129	H	0.818538	0.893332	0.526937
H130	H	0.890812	0.893229	0.599204
H131	H	0.898293	1.015994	0.447421
H132	H	0.970492	1.015799	0.519761
O133	O	0.986853	1.085895	0.431055
C134	C	0.969128	1.213076	0.448849
C135	C	1.012366	1.167607	0.405701
H136	H	0.989750	1.279148	0.428378
H137	H	0.906739	1.196954	0.438900
H138	H	0.978920	1.196779	0.511259
H139	H	1.002636	1.183880	0.343278
H140	H	1.074741	1.183733	0.415713
O141	O	1.209141	0.281181	0.877860
C142	C	1.198991	0.174502	0.984742
C143	C	1.157708	0.230140	0.931987
H144	H	1.157428	0.133232	1.028525
H145	H	1.225818	0.138323	0.950918
H146	H	1.244309	0.210804	1.013867
H147	H	1.112357	0.193899	0.902849
H148	H	1.130934	0.266321	0.965850
H149	H	1.163862	1.079192	0.254377
