data_functionalizedCrystal
_audit_creation_method	'MofGen! by Chris Wilmer'
_symmetry_space_group_name_H-M	'P1'
_symmetry_Int_Tables_number	1
_symmetry_cell_setting	triclinic
loop_
_symmetry_equiv_pos_as_xyz
  x,y,z
_cell_length_a	12.759401
_cell_length_b	10.686285
_cell_length_c	12.759393
_cell_angle_alpha	85.601879
_cell_angle_beta	89.982620
_cell_angle_gamma	85.631983
loop_
_atom_site_label
_atom_site_type_symbol
_atom_site_fract_x
_atom_site_fract_y
_atom_site_fract_z
Zn1	Zn	1.638381	-0.502268	-0.561964
Zn2	Zn	1.651782	-0.713313	-0.372831
Zn3	Zn	1.462691	-0.502335	-0.386299
Zn4	Zn	1.476169	-0.713215	-0.548479
O5	O	1.557256	-0.607783	-0.467393
O6	O	1.787181	-0.530277	-0.536882
O7	O	1.626667	-0.685395	-0.227592
O8	O	1.474747	-0.325749	-0.420882
O9	O	1.797027	-0.685330	-0.397927
O10	O	1.603826	-0.325700	-0.549942
O11	O	1.487742	-0.530391	-0.237487
O12	O	1.317457	-0.530296	-0.407805
O13	O	1.497719	-0.685164	-0.697293
O14	O	1.327359	-0.685228	-0.526958
O15	O	1.616896	-0.530182	-0.707201
O16	O	1.639736	-0.889877	-0.384851
O17	O	1.510714	-0.889805	-0.513899
C18	C	1.284287	-0.607760	-0.467380
C19	C	1.167512	-0.607780	-0.467398
C20	C	1.117842	-0.688583	-0.529321
C21	C	1.008119	-0.688599	-0.529332
C22	C	0.997745	-0.527006	-0.405487
C23	C	1.107466	-0.526985	-0.405483
C24	C	1.123830	-0.781881	-0.600819
C25	C	1.014107	-0.781897	-0.600829
C26	C	1.578170	-0.935625	-0.446473
C27	C	1.587214	-1.075877	-0.437558
C28	C	1.831291	-0.607807	-0.467407
C29	C	1.948068	-0.607817	-0.467412
C30	C	1.557316	-0.607654	-0.741435
C31	C	1.557341	-0.607600	-0.858215
C32	C	1.536288	-0.278660	-0.488418
C33	C	1.527353	-0.138408	-0.497378
C34	C	1.485031	-0.526874	-0.918236
C35	C	1.485060	-0.526836	-1.027963
C36	C	1.629720	-0.688254	-1.017637
C37	C	1.629685	-0.688297	-0.907912
C38	C	1.401515	-0.433677	-0.924199
C39	C	1.401545	-0.433639	-1.033926
C40	C	1.557251	-0.607820	-0.194423
C41	C	1.557406	-0.607519	-0.077667
H42	H	1.163781	-0.874663	-0.565620
H43	H	1.424741	-0.340863	-0.896100
C44	C	1.664786	-1.147786	-0.360299
C45	C	1.658682	-1.277267	-0.366558
C46	C	1.730151	-1.343547	-0.295431
H47	H	1.648199	-1.126498	-0.290977
H48	H	1.734004	-1.126216	-0.377141
H49	H	1.589480	-1.298828	-0.349708
H50	H	1.675279	-1.298592	-0.435862
H51	H	1.799369	-1.321978	-0.312273
H52	H	1.713558	-1.322249	-0.226115
H53	H	1.726026	-1.431406	-0.299675
H54	H	1.688553	-0.754050	-0.859045
H55	H	0.977876	-0.747014	-0.680405
C56	C	1.449871	-1.066891	-0.574933
C57	C	1.474705	-1.098771	-0.676897
C58	C	1.403344	-1.032918	-0.748368
H59	H	1.453833	-0.978972	-0.570989
H60	H	1.380648	-1.088535	-0.558201
H61	H	1.543910	-1.077118	-0.693624
H62	H	1.470736	-1.186678	-0.680875
H63	H	1.334121	-1.054562	-0.731636
H64	H	1.407311	-0.945002	-0.744415
H65	H	1.420178	-1.054548	-0.817557
C66	C	1.708219	-0.775718	-1.071795
C67	C	1.692791	-0.758385	-1.180736
C68	C	1.765097	-0.838922	-1.230659
H69	H	1.698310	-0.860556	-1.048515
H70	H	1.777650	-0.757250	-1.055053
H71	H	1.623376	-0.776861	-1.197470
H72	H	1.702709	-0.673563	-1.204047
H73	H	1.834528	-0.820454	-1.213917
H74	H	1.755181	-0.923755	-1.207370
H75	H	1.754645	-0.827164	-1.304580
C76	C	1.295183	-0.468672	-0.882458
C77	C	1.230174	-0.490033	-0.966622
C78	C	1.132223	-0.522292	-0.928210
H79	H	1.263740	-0.401868	-0.845393
H80	H	1.304281	-0.542889	-0.836384
H81	H	1.221073	-0.415824	-1.012678
H82	H	1.261583	-0.556842	-1.003695
H83	H	1.141321	-0.596510	-0.882136
H84	H	1.100790	-0.455483	-0.891145
H85	H	1.088105	-0.536801	-0.985307
H86	H	1.326486	-0.468620	-1.065722
H87	H	1.417108	-0.335897	-1.069954
H88	H	1.147902	-0.461179	-0.355066
H89	H	0.990563	-0.879600	-0.572669
H90	H	0.948843	-0.461224	-0.355078
H91	H	1.151969	-0.755819	-0.683887
