data_functionalizedCrystal
_audit_creation_method	'MofGen! by Chris Wilmer'
_symmetry_space_group_name_H-M	'P1'
_symmetry_Int_Tables_number	1
_symmetry_cell_setting	triclinic
loop_
_symmetry_equiv_pos_as_xyz
  x,y,z
_cell_length_a	16.109302
_cell_length_b	14.853567
_cell_length_c	15.186229
_cell_angle_alpha	90.000050
_cell_angle_beta	89.994701
_cell_angle_gamma	83.548356
loop_
_atom_site_label
_atom_site_type_symbol
_atom_site_fract_x
_atom_site_fract_y
_atom_site_fract_z
O1	O	1.103293	0.115884	-0.073261
O2	O	1.603293	0.615884	0.426739
O3	O	0.861251	0.130304	-0.073253
O4	O	1.361251	0.630304	0.426747
O5	O	0.988738	-0.008146	-0.073260
O6	O	1.488738	0.491854	0.426740
O7	O	0.975807	0.254334	-0.073254
O8	O	1.475807	0.754334	0.426746
O9	O	0.988729	-0.008148	0.073198
O10	O	1.488729	0.491852	0.573198
O11	O	0.861243	0.130302	0.073204
O12	O	1.361243	0.630302	0.573204
O13	O	1.103285	0.115882	0.073197
O14	O	1.603285	0.615882	0.573197
Zn15	Zn	0.982262	0.123092	0.096454
Zn16	Zn	1.482262	0.623092	0.596454
Zn17	Zn	0.982274	0.123094	-0.096510
Zn18	Zn	1.482274	0.623094	0.403490
O19	O	0.975798	0.254332	0.073203
O20	O	1.475798	0.754332	0.573203
C21	C	0.830271	0.129719	-0.000023
C22	C	1.330271	0.629719	0.499977
C23	C	0.737974	0.127967	-0.000021
C24	C	1.237974	0.627967	0.499979
C25	C	0.525622	0.123916	0.079804
C26	C	1.025622	0.623916	0.579804
C27	C	0.438900	0.122261	0.079801
C28	C	0.938900	0.622261	0.579801
C29	C	0.438920	0.122267	-0.079874
C30	C	0.938920	0.622267	0.420126
C31	C	0.525641	0.123916	-0.079870
C32	C	1.025641	0.623916	0.420130
C33	C	0.568990	0.124745	-0.000028
C34	C	1.068990	0.624745	0.499972
C35	C	0.395546	0.121441	-0.000035
C36	C	0.895546	0.621441	0.499965
C37	C	0.301518	0.119646	-0.000039
C38	C	0.801518	0.619646	0.499961
C39	C	0.663024	0.126539	-0.000024
C40	C	1.163024	0.626539	0.499976
C41	C	0.988147	-0.041735	-0.000033
C42	C	1.488147	0.458265	0.499967
C43	C	0.986392	-0.141816	-0.000041
C44	C	1.486392	0.358184	0.499959
C45	C	0.903240	-0.554213	-0.000022
C46	C	1.403240	-0.054213	0.499978
C47	C	1.054697	-0.575743	-0.000027
C48	C	1.554697	-0.075743	0.499973
C49	C	1.056348	-0.481712	-0.000032
C50	C	1.556348	0.018288	0.499968
C51	C	0.981444	-0.423927	-0.000031
C52	C	1.481444	0.076073	0.499969
C53	C	0.904889	-0.460173	-0.000024
C54	C	1.404889	0.039827	0.499976
C55	C	1.132901	-0.445459	-0.000029
C56	C	1.632901	0.054541	0.499971
C57	C	1.134555	-0.351423	-0.000034
C58	C	1.634555	0.148577	0.499966
C59	C	1.059650	-0.293636	-0.000039
C60	C	1.559650	0.206364	0.499961
C61	C	0.983092	-0.329887	-0.000033
C62	C	1.483092	0.170113	0.499967
C63	C	0.908188	-0.272102	-0.000032
C64	C	1.408188	0.227898	0.499968
C65	C	0.831630	-0.308351	-0.000033
C66	C	1.331630	0.191649	0.499967
C67	C	0.829984	-0.402385	-0.000029
C68	C	1.329984	0.097615	0.499971
C69	C	1.061296	-0.199601	-0.000042
C70	C	1.561296	0.300399	0.499958
C71	C	0.909837	-0.178062	-0.000035
C72	C	1.409837	0.321938	0.499965
C73	C	1.134264	0.116467	-0.000035
C74	C	1.634264	0.616467	0.499965
C75	C	1.226562	0.118219	-0.000043
C76	C	1.726562	0.618219	0.499957
C77	C	0.976389	0.287921	-0.000025
C78	C	1.476389	0.787921	0.499975
C79	C	0.978144	0.388002	-0.000023
C80	C	1.478144	0.888002	0.499977
N81	N	0.982261	0.123089	0.228146
N82	N	1.482261	0.623089	0.728146
N83	N	0.982282	0.123090	-0.228203
N84	N	1.482282	0.623090	0.271797
C85	C	1.038731	0.061804	0.453866
C86	C	1.538731	0.561804	0.953866
C87	C	1.038733	0.061802	0.546056
C88	C	1.538733	0.561802	1.046056
C89	C	0.925806	0.184378	0.546071
C90	C	1.425806	0.684378	1.046071
C91	C	0.925800	0.184375	0.453883
C92	C	1.425800	0.684375	0.953883
C93	C	0.982267	0.123089	0.407783
C94	C	1.482267	0.623089	0.907783
C95	C	0.982276	0.123090	0.592161
C96	C	1.482276	0.623090	1.092161
C97	C	0.982278	0.123088	0.692117
C98	C	1.482278	0.623088	1.192117
C99	C	0.982264	0.123090	0.307821
C100	C	1.482264	0.623090	0.807821
H101	H	0.560914	0.124591	0.144817
H102	H	1.060914	0.624591	0.644817
H103	H	0.840908	-0.583731	-0.000026
H104	H	1.340908	-0.083731	0.499974
H105	H	0.403594	0.121586	0.144809
H106	H	0.903594	0.621586	0.644809
O107	O	0.392165	0.121387	-0.165988
O108	O	0.892165	0.621387	0.334012
H109	H	0.324575	0.120112	-0.152581
H110	H	0.824575	0.620112	0.347419
O111	O	0.572426	0.124814	-0.165979
O112	O	1.072426	0.624814	0.334021
H113	H	0.527714	0.123975	-0.221499
H114	H	1.027714	0.623975	0.278501
O115	O	0.829047	-0.115735	-0.000025
O116	O	1.329047	0.384265	0.499975
H117	H	0.775539	-0.156742	-0.000017
H118	H	1.275539	0.343258	0.499983
H119	H	0.879816	0.234281	0.416360
H120	H	1.379816	0.734281	0.916360
O121	O	0.750840	-0.246024	-0.000024
O122	O	1.250840	0.253976	0.499976
H123	H	0.747971	-0.202667	-0.059718
H124	H	1.247971	0.297333	0.440282
O125	O	0.747418	-0.441487	-0.000011
O126	O	1.247418	0.058513	0.499989
H127	H	0.743047	-0.483830	-0.059694
H128	H	1.243047	0.016170	0.440306
O129	O	1.135484	-0.638061	-0.000019
O130	O	1.635484	-0.138061	0.499981
H131	H	1.121477	-0.709540	-0.000017
H132	H	1.621477	-0.209540	0.499983
O133	O	1.213687	-0.507779	-0.000018
O134	O	1.713687	-0.007779	0.499982
H135	H	1.199677	-0.579257	-0.000023
H136	H	1.699677	-0.079257	0.499977
H137	H	1.196894	-0.321918	-0.000034
H138	H	1.696894	0.178082	0.499966
O139	O	1.143858	-0.160499	-0.000047
O140	O	1.643858	0.339501	0.499953
H141	H	1.195666	-0.216479	-0.000051
H142	H	1.695666	0.283521	0.499949
H143	H	1.084709	0.011900	0.416334
H144	H	1.584709	0.511900	0.916334
H145	H	1.084710	0.011897	0.583574
H146	H	1.584710	0.511897	1.083574
H147	H	0.879832	0.234277	0.583615
H148	H	1.379832	0.734277	1.083615
