data_functionalizedCrystal
_audit_creation_method	'MofGen! by Chris Wilmer'
_symmetry_space_group_name_H-M	'P1'
_symmetry_Int_Tables_number	1
_symmetry_cell_setting	triclinic
loop_
_symmetry_equiv_pos_as_xyz
  x,y,z
_cell_length_a	21.295419
_cell_length_b	21.295417
_cell_length_c	19.805399
_cell_angle_alpha	89.970204
_cell_angle_beta	89.981377
_cell_angle_gamma	90.044503
loop_
_atom_site_label
_atom_site_type_symbol
_atom_site_fract_x
_atom_site_fract_y
_atom_site_fract_z
Zn1	Zn	0.962322	-0.250375	-0.382692
Zn2	Zn	1.295656	0.082958	-0.049359
Zn3	Zn	1.628989	0.416291	0.283974
Zn4	Zn	0.962237	-0.355644	-0.269500
Zn5	Zn	1.295570	-0.022311	0.063834
Zn6	Zn	1.628904	0.311023	0.397167
Zn7	Zn	0.857056	-0.250420	-0.269519
Zn8	Zn	1.190390	0.082914	0.063815
Zn9	Zn	1.523723	0.416247	0.397148
Zn10	Zn	0.857016	-0.355638	-0.382648
Zn11	Zn	1.190350	-0.022304	-0.049315
Zn12	Zn	1.523683	0.311029	0.284018
O13	O	0.909658	-0.303019	-0.326090
O14	O	1.242991	0.030314	0.007244
O15	O	1.576325	0.363648	0.340577
O16	O	1.050400	-0.264323	-0.367687
O17	O	1.383734	0.069010	-0.034354
O18	O	1.717067	0.402343	0.298979
O19	O	0.948266	-0.341707	-0.174785
O20	O	1.281599	-0.008374	0.158548
O21	O	1.614932	0.324960	0.491881
O22	O	0.871073	-0.162324	-0.284558
O23	O	1.204406	0.171009	0.048776
O24	O	1.537739	0.504342	0.382109
O25	O	1.050338	-0.341664	-0.284525
O26	O	1.383671	-0.008330	0.048808
O27	O	1.717004	0.325003	0.382141
O28	O	0.948411	-0.162292	-0.367706
O29	O	1.281744	0.171042	-0.034373
O30	O	1.615078	0.504375	0.298961
O31	O	0.870990	-0.264399	-0.174800
O32	O	1.204323	0.068934	0.158534
O33	O	1.537657	0.402267	0.491867
O34	O	0.768962	-0.264393	-0.284515
O35	O	1.102295	0.068940	0.048818
O36	O	1.435628	0.402274	0.382152
O37	O	0.871004	-0.341653	-0.477371
O38	O	1.204338	-0.008320	-0.144037
O39	O	1.537671	0.325014	0.189296
O40	O	0.768932	-0.341696	-0.367631
O41	O	1.102266	-0.008363	-0.034298
O42	O	1.435599	0.324970	0.299036
O43	O	0.948372	-0.264317	-0.477403
O44	O	1.281706	0.069016	-0.144070
O45	O	1.615039	0.402349	0.189264
O46	O	0.948227	-0.443733	-0.284483
O47	O	1.281560	-0.110399	0.048851
O48	O	1.614894	0.222934	0.382184
O49	O	0.870922	-0.443728	-0.367612
O50	O	1.204255	-0.110395	-0.034279
O51	O	1.537588	0.222939	0.299054
C52	C	0.746106	-0.303049	-0.326071
C53	C	1.079440	0.030284	0.007263
C54	C	1.412773	0.363617	0.340596
C55	C	0.676138	-0.303077	-0.326079
C56	C	1.009472	0.030256	0.007255
C57	C	1.342805	0.363589	0.340588
C58	C	0.643327	-0.262872	-0.369448
C59	C	0.976660	0.070461	-0.036115
C60	C	1.309993	0.403795	0.297219
C61	C	0.577584	-0.262855	-0.369451
C62	C	0.910918	0.070478	-0.036117
C63	C	1.244251	0.403812	0.297216
C64	C	0.544656	-0.303055	-0.326091
C65	C	0.877989	0.030278	0.007242
C66	C	1.211322	0.363612	0.340576
C67	C	0.577475	-0.343263	-0.282713
C68	C	0.910809	-0.009930	0.050620
C69	C	1.244142	0.323404	0.383954
C70	C	0.643217	-0.343274	-0.282707
C71	C	0.976550	-0.009941	0.050626
C72	C	1.309883	0.323392	0.383960
N73	N	0.441382	-0.358133	-0.320802
N74	N	0.774715	-0.024800	0.012531
N75	N	1.108048	0.308534	0.345865
N76	N	0.378930	-0.358120	-0.320812
N77	N	0.712264	-0.024787	0.012521
N78	N	1.045597	0.308546	0.345855
C79	C	0.346581	-0.303022	-0.326106
C80	C	0.679914	0.030311	0.007227
C81	C	1.013248	0.363644	0.340561
N82	N	0.379043	-0.247936	-0.331403
N83	N	0.712376	0.085397	0.001931
N84	N	1.045709	0.418731	0.335264
N85	N	0.441500	-0.247949	-0.331397
N86	N	0.774833	0.085384	0.001937
N87	N	1.108167	0.418717	0.335270
C88	C	0.473370	-0.303047	-0.326092
C89	C	0.806704	0.030287	0.007241
C90	C	1.140037	0.363620	0.340574
C91	C	0.242484	-0.262795	-0.369480
C92	C	0.575817	0.070538	-0.036147
C93	C	0.909151	0.403871	0.297186
C94	C	0.176740	-0.262777	-0.369478
C95	C	0.510074	0.070556	-0.036145
C96	C	0.843407	0.403889	0.297188
C97	C	0.176633	-0.343191	-0.282744
C98	C	0.509966	-0.009857	0.050589
C99	C	0.843299	0.323476	0.383922
C100	C	0.242375	-0.343203	-0.282743
C101	C	0.575708	-0.009870	0.050590
C102	C	0.909042	0.323464	0.383924
C103	C	0.275297	-0.303006	-0.326115
C104	C	0.608630	0.030327	0.007219
C105	C	0.941964	0.363660	0.340552
C106	C	0.909578	-0.466571	-0.326055
C107	C	1.242911	-0.133237	0.007278
C108	C	1.576244	0.200096	0.340611
C109	C	0.909601	-0.536539	-0.326063
C110	C	1.242934	-0.203206	0.007270
C111	C	1.576268	0.130128	0.340603
C112	C	0.949848	-0.569331	-0.369390
C113	C	1.283182	-0.235998	-0.036056
C114	C	1.616515	0.097335	0.297277
C115	C	0.949870	-0.635074	-0.369406
C116	C	1.283204	-0.301740	-0.036073
C117	C	1.616537	0.031593	0.297260
C118	C	0.909652	-0.668021	-0.326085
C119	C	1.242985	-0.334688	0.007249
C120	C	1.576319	-0.001355	0.340582
C121	C	0.869397	-0.635221	-0.282755
C122	C	1.202731	-0.301888	0.050578
C123	C	1.536064	0.031446	0.383911
C124	C	0.869372	-0.569480	-0.282745
C125	C	1.202705	-0.236146	0.050589
C126	C	1.536038	0.097187	0.383922
N127	N	0.904898	-0.771284	-0.266849
N128	N	1.238232	-0.437950	0.066484
N129	N	1.571565	-0.104617	0.399818
N130	N	0.904926	-0.833735	-0.266861
N131	N	1.238260	-0.500402	0.066472
N132	N	1.571593	-0.167069	0.399806
C133	C	0.909726	-0.866096	-0.326115
C134	C	1.243059	-0.532763	0.007218
C135	C	1.576392	-0.199429	0.340551
N136	N	0.914508	-0.833646	-0.385358
N137	N	1.247842	-0.500313	-0.052025
N138	N	1.581175	-0.166980	0.281308
N139	N	0.914484	-0.771189	-0.385345
N140	N	1.247817	-0.437856	-0.052012
N141	N	1.581150	-0.104522	0.281321
C142	C	0.909675	-0.739307	-0.326092
C143	C	1.243008	-0.405973	0.007242
C144	C	1.576342	-0.072640	0.340575
C145	C	0.949999	-0.970174	-0.369463
C146	C	1.283332	-0.636841	-0.036130
C147	C	1.616666	-0.303507	0.297203
C148	C	0.950017	-1.035918	-0.369481
C149	C	1.283350	-0.702584	-0.036148
C150	C	1.616683	-0.369251	0.297186
C151	C	0.869547	-1.036064	-0.282824
C152	C	1.202880	-0.702730	0.050509
C153	C	1.536214	-0.369397	0.383842
C154	C	0.869526	-0.970321	-0.282812
C155	C	1.202859	-0.636988	0.050521
C156	C	1.536192	-0.303654	0.383854
C157	C	0.909755	-0.937380	-0.326131
C158	C	1.243089	-0.604047	0.007202
C159	C	1.576422	-0.270714	0.340536
C160	C	1.073848	-0.302989	-0.326109
C161	C	1.407182	0.030344	0.007224
C162	C	1.740515	0.363677	0.340558
C163	C	1.143816	-0.302977	-0.326117
C164	C	1.477150	0.030357	0.007216
C165	C	1.810483	0.363690	0.340549
C166	C	0.909693	-0.302979	-0.502632
C167	C	1.243027	0.030354	-0.169299
C168	C	1.576360	0.363687	0.164034
C169	C	0.909708	-0.302963	-0.577864
C170	C	1.243042	0.030371	-0.244531
C171	C	1.576375	0.363704	0.088802
C172	C	0.909756	-0.138829	-0.326139
C173	C	1.243089	0.194505	0.007194
C174	C	1.576422	0.527838	0.340528
C175	C	0.909797	-0.068861	-0.326160
C176	C	1.243131	0.264473	0.007173
C177	C	1.576464	0.597806	0.340507
C178	C	0.949995	-0.262692	-0.613227
C179	C	1.283328	0.070642	-0.279893
C180	C	1.616661	0.403975	0.053440
C181	C	0.950001	-0.262674	-0.683915
C182	C	1.283335	0.070660	-0.350582
C183	C	1.616668	0.403993	-0.017248
C184	C	0.909724	-0.302930	-0.719240
C185	C	1.243057	0.030404	-0.385907
C186	C	1.576391	0.363737	-0.052573
C187	C	0.869433	-0.343202	-0.683873
C188	C	1.202767	-0.009869	-0.350540
C189	C	1.536100	0.323464	-0.017206
C190	C	0.869424	-0.343217	-0.613186
C191	C	1.202757	-0.009884	-0.279853
C192	C	1.536091	0.323450	0.053481
C193	C	0.869469	-0.343144	-0.968947
C194	C	1.202802	-0.009810	-0.635613
C195	C	1.536135	0.323523	-0.302280
C196	C	0.869482	-0.343127	-1.039639
C197	C	1.202816	-0.009794	-0.706305
C198	C	1.536149	0.323539	-0.372972
C199	C	0.950046	-0.262600	-1.039676
C200	C	1.283379	0.070733	-0.706342
C201	C	1.616713	0.404066	-0.373009
C202	C	0.950037	-0.262615	-0.968988
C203	C	1.283370	0.070718	-0.635655
C204	C	1.616703	0.404052	-0.302322
C205	C	0.909744	-0.302885	-0.933628
C206	C	1.243077	0.030449	-0.600294
C207	C	1.576411	0.363782	-0.266961
C208	C	0.909737	-0.302903	-0.856979
C209	C	1.243070	0.030430	-0.523646
C210	C	1.576403	0.363763	-0.190312
C211	C	0.909734	-0.302915	-0.795887
C212	C	1.243067	0.030418	-0.462554
C213	C	1.576401	0.363752	-0.129221
C214	C	0.909659	-0.303013	-0.150234
C215	C	1.242992	0.030320	0.183100
C216	C	1.576326	0.363653	0.516433
C217	C	0.909766	-0.302853	-0.075002
C218	C	1.243099	0.030481	0.258331
C219	C	1.576433	0.363814	0.591665
H220	H	0.269290	-0.230060	-0.404792
H221	H	0.602624	0.103273	-0.071459
H222	H	0.935957	0.436606	0.261875
N223	N	0.828325	-0.668863	-0.238485
N224	N	1.161658	-0.335530	0.094848
N225	N	1.494991	-0.002196	0.428182
N226	N	0.792398	-0.639573	-0.199794
N227	N	1.125732	-0.306239	0.133539
N228	N	1.459065	0.027094	0.466872
H229	H	0.763390	-0.663331	-0.168524
H230	H	1.096723	-0.329998	0.164809
H231	H	1.430057	0.003336	0.498142
N232	N	0.990987	-0.668590	-0.413652
N233	N	1.324321	-0.335256	-0.080319
N234	N	1.657654	-0.001923	0.253014
N235	N	0.991005	-0.727286	-0.413650
N236	N	1.324339	-0.393953	-0.080317
N237	N	1.657672	-0.060620	0.253017
H238	H	1.020045	-0.750957	-0.444898
H239	H	1.353378	-0.417623	-0.111564
H240	H	1.686712	-0.084290	0.221769
N241	N	0.991071	-0.936526	-0.413734
N242	N	1.324404	-0.603193	-0.080401
N243	N	1.657737	-0.269859	0.252932
N244	N	0.968876	-0.899846	-0.456838
N245	N	1.302209	-0.566513	-0.123504
N246	N	1.635543	-0.233180	0.209829
H247	H	0.997881	-0.876085	-0.488109
H248	H	1.331214	-0.542752	-0.154776
H249	H	1.664547	-0.209419	0.178557
H250	H	0.550661	-0.375993	-0.247409
H251	H	0.883994	-0.042660	0.085925
H252	H	1.217327	0.290673	0.419258
H253	H	0.982791	-1.062616	-0.404765
H254	H	1.316124	-0.729283	-0.071432
H255	H	1.649457	-0.395950	0.261901
N256	N	0.991148	-0.221531	-0.720034
N257	N	1.324481	0.111802	-0.386701
N258	N	1.657815	0.445135	-0.053368
N259	N	0.987011	-0.163448	-0.712154
N260	N	1.320344	0.169886	-0.378820
N261	N	1.653677	0.503219	-0.045487
H262	H	1.016072	-0.134388	-0.737662
H263	H	1.349405	0.198945	-0.404329
H264	H	1.682739	0.532278	-0.070995
H265	H	0.982795	-0.229912	-0.584470
H266	H	1.316128	0.103421	-0.251137
H267	H	1.649462	0.436754	0.082197
H268	H	0.550864	-0.230112	-0.404766
H269	H	0.884197	0.103221	-0.071433
H270	H	1.217530	0.436555	0.261900
N271	N	0.143232	-0.221692	-0.413775
N272	N	0.476565	0.111642	-0.080442
N273	N	0.809898	0.444975	0.252891
N274	N	0.172637	-0.185803	-0.452489
N275	N	0.505970	0.147530	-0.119155
N276	N	0.839304	0.480863	0.214178
H277	H	0.148971	-0.156783	-0.483773
H278	H	0.482305	0.176550	-0.150439
H279	H	0.815638	0.509883	0.182894
H280	H	0.149823	-0.375922	-0.247440
H281	H	0.483156	-0.042589	0.085894
H282	H	0.816490	0.290745	0.419227
H283	H	0.982837	-0.229836	-0.940230
H284	H	1.316170	0.103497	-0.606897
H285	H	1.649503	0.436830	-0.273564
H286	H	0.669931	-0.376015	-0.247389
H287	H	1.003265	-0.042682	0.085944
H288	H	1.336598	0.290651	0.419277
H289	H	0.269091	-0.375945	-0.247429
H290	H	0.602424	-0.042612	0.085904
H291	H	0.935757	0.290721	0.419237
H292	H	0.836597	-0.542780	-0.247463
H293	H	1.169930	-0.209446	0.085871
H294	H	1.503264	0.123887	0.419204
N295	N	0.991201	-0.221468	-1.075807
N296	N	1.324535	0.111866	-0.742474
N297	N	1.657868	0.445199	-0.409141
N298	N	0.991207	-0.221457	-1.138920
N299	N	1.324540	0.111876	-0.805587
N300	N	1.657873	0.445210	-0.472254
H301	H	1.020273	-0.192410	-1.164438
H302	H	1.353607	0.140924	-0.831105
H303	H	1.686940	0.474257	-0.497772
N304	N	0.990944	-0.535694	-0.413641
N305	N	1.324277	-0.202361	-0.080308
N306	N	1.657610	0.130973	0.253025
N307	N	1.026876	-0.564986	-0.452324
N308	N	1.360209	-0.231653	-0.118991
N309	N	1.693543	0.101680	0.214343
H310	H	1.055900	-0.541229	-0.483578
H311	H	1.389233	-0.207896	-0.150245
H312	H	1.722567	0.125437	0.183089
H313	H	0.836796	-1.062889	-0.247555
H314	H	1.170130	-0.729556	0.085778
H315	H	1.503463	-0.396222	0.419111
H316	H	0.836755	-0.943620	-0.247529
H317	H	1.170089	-0.610286	0.085804
H318	H	1.503422	-0.276953	0.419137
H319	H	0.836681	-0.375910	-1.068398
H320	H	1.170015	-0.042577	-0.735065
H321	H	1.503348	0.290757	-0.401732
N322	N	0.828309	-0.384281	-0.932843
N323	N	1.161642	-0.050948	-0.599510
N324	N	1.494975	0.282386	-0.266176
N325	N	0.792353	-0.420221	-0.964394
N326	N	1.125686	-0.086888	-0.631060
N327	N	1.459020	0.246445	-0.297727
H328	H	0.763282	-0.449277	-0.938894
H329	H	1.096615	-0.115944	-0.605560
H330	H	1.429948	0.217389	-0.272227
H331	H	0.836637	-0.375977	-0.712640
H332	H	1.169970	-0.042644	-0.379307
H333	H	1.503303	0.290689	-0.045974
N334	N	0.828264	-0.384352	-0.577073
N335	N	1.161598	-0.051019	-0.243739
N336	N	1.494931	0.282314	0.089594
N337	N	0.792304	-0.420291	-0.608619
N338	N	1.125637	-0.086958	-0.275285
N339	N	1.458970	0.246375	0.058048
H340	H	0.763230	-0.449343	-0.583115
H341	H	1.096564	-0.116010	-0.249782
H342	H	1.429897	0.217324	0.083552
H343	H	0.670128	-0.230140	-0.404764
H344	H	1.003461	0.103193	-0.071431
H345	H	1.336794	0.436527	0.261902
