data_functionalizedCrystal
_audit_creation_method	'MofGen! by Chris Wilmer'
_symmetry_space_group_name_H-M	'P1'
_symmetry_Int_Tables_number	1
_symmetry_cell_setting	triclinic
loop_
_symmetry_equiv_pos_as_xyz
  x,y,z
_cell_length_a	10.654550
_cell_length_b	15.995350
_cell_length_c	9.730223
_cell_angle_alpha	90.000899
_cell_angle_beta	89.996251
_cell_angle_gamma	83.988639
loop_
_atom_site_label
_atom_site_type_symbol
_atom_site_fract_x
_atom_site_fract_y
_atom_site_fract_z
O1	O	1.666298	0.117599	-0.114395
O2	O	1.300673	0.128803	-0.114373
O3	O	1.493480	0.001371	-0.114383
O4	O	1.473491	0.245031	-0.114385
O5	O	1.493478	0.001375	0.114197
O6	O	1.300671	0.128806	0.114207
O7	O	1.666295	0.117602	0.114185
Zn8	Zn	1.483483	0.123205	0.150488
Zn9	Zn	1.483486	0.123200	-0.150676
O10	O	1.473488	0.245034	0.114195
C11	C	1.253885	0.127982	-0.000080
C12	C	1.114473	0.125521	-0.000071
C13	C	1.492652	-0.029827	-0.000096
C14	C	1.490175	-0.122791	-0.000104
C15	C	1.034008	0.200551	-0.000092
C16	C	0.903017	0.198233	-0.000116
C17	C	0.932971	0.045849	-0.000104
C18	C	1.063959	0.048168	-0.000071
C19	C	1.084522	0.277904	-0.000093
C20	C	1.004055	0.352940	-0.000115
C21	C	0.873064	0.350622	-0.000138
C22	C	0.822541	0.273268	-0.000140
C23	C	1.481278	-0.460591	-0.000098
C24	C	1.343964	-0.413954	-0.000603
C25	C	1.346442	-0.317249	-0.000087
C26	C	1.485691	-0.293004	-0.000102
C27	C	1.553417	-0.333687	0.130422
C28	C	1.549968	-0.430342	0.130531
C29	C	1.552807	-0.430688	-0.129407
C30	C	1.552775	-0.333743	-0.131132
C31	C	1.488192	-0.198292	-0.000099
C32	C	1.478780	-0.555303	-0.000092
C33	C	1.713084	0.118423	-0.000111
C34	C	1.852495	0.120884	-0.000129
C35	C	1.474316	0.276232	-0.000095
C36	C	1.476793	0.369197	-0.000097
N37	N	1.483490	0.123207	0.356024
N38	N	1.483488	0.123191	-0.356212
C39	C	1.568886	0.066800	0.427946
C40	C	1.568883	0.066789	0.571829
C41	C	1.398083	0.179602	0.571856
C42	C	1.398081	0.179607	0.427976
C43	C	1.654295	0.010400	0.355994
C44	C	1.739700	-0.046012	0.427915
C45	C	1.739697	-0.046022	0.571798
C46	C	1.654289	0.010379	0.643760
H47	H	1.045200	0.415918	-0.000102
C48	C	1.833641	-0.108053	0.348766
C49	C	1.833663	-0.108041	0.190503
C50	C	1.927605	-0.170085	0.111358
C51	C	2.021527	-0.232141	0.190476
C52	C	2.021509	-0.232157	0.348747
C53	C	1.927566	-0.170113	0.427893
H54	H	1.764134	-0.062100	0.131928
H55	H	1.927618	-0.170073	-0.005805
H56	H	2.091069	-0.278070	0.131888
H57	H	2.091038	-0.278097	0.407323
H58	H	1.927553	-0.170124	0.545056
C59	C	1.689579	-0.472794	-0.130620
C60	C	1.778778	-0.458574	-0.010283
C61	C	1.915544	-0.500681	-0.011483
C62	C	1.963112	-0.557009	-0.133022
C63	C	1.873912	-0.571231	-0.253368
C64	C	1.737145	-0.529124	-0.252167
H65	H	1.743566	-0.416875	0.079695
H66	H	1.981576	-0.490152	0.077606
H67	H	2.064355	-0.588179	-0.133910
H68	H	1.909123	-0.612931	-0.343346
H69	H	1.671113	-0.539653	-0.341256
H70	H	1.328548	0.225522	0.630457
H71	H	1.129477	-0.012928	-0.000058
H72	H	1.650782	-0.462005	0.136444
C73	C	1.274497	-0.279263	-0.126466
C74	C	1.214384	-0.336917	-0.228567
C75	C	1.142422	-0.298934	-0.354941
C76	C	1.130573	-0.203298	-0.379215
C77	C	1.190688	-0.145638	-0.277111
C78	C	1.262650	-0.183621	-0.150737
H79	H	1.223153	-0.407718	-0.210600
H80	H	1.097921	-0.341618	-0.430525
H81	H	1.077302	-0.175181	-0.472765
H82	H	1.181918	-0.074837	-0.295078
H83	H	1.307151	-0.140937	-0.075153
H84	H	1.191179	0.279800	-0.000080
C85	C	1.269816	-0.439407	-0.127059
C86	C	1.333037	-0.502854	-0.231415
C87	C	1.258892	-0.528307	-0.357884
C88	C	1.121527	-0.490314	-0.379997
C89	C	1.058299	-0.426863	-0.275638
C90	C	1.132444	-0.401410	-0.149169
H91	H	1.434730	-0.530982	-0.215048
H92	H	1.305699	-0.575278	-0.435137
H93	H	1.066641	-0.509156	-0.473616
H94	H	0.956606	-0.398735	-0.292004
H95	H	1.085637	-0.354440	-0.071916
H96	H	0.891824	-0.017129	-0.000128
H97	H	1.328542	0.225539	0.369417
H98	H	1.292844	-0.289694	0.093643
H99	H	1.809228	-0.091960	0.630355
C100	C	1.489867	-0.295724	0.261661
C101	C	1.376612	-0.227864	0.250666
C102	C	1.313053	-0.189903	0.381901
C103	C	1.362749	-0.219802	0.524130
C104	C	1.476010	-0.287666	0.535130
C105	C	1.539569	-0.325627	0.403896
H106	H	1.339819	-0.205728	0.145375
H107	H	1.229210	-0.139666	0.373757
H108	H	1.315699	-0.191702	0.621278
H109	H	1.512803	-0.309802	0.640422
H110	H	1.623413	-0.375864	0.412039
H111	H	1.500580	-0.448929	0.228110
H112	H	0.807551	0.411720	-0.000142
H113	H	1.655720	-0.318967	0.135266
H114	H	1.654308	0.010404	0.238837
H115	H	1.654321	-0.317791	-0.139024
H116	H	1.507914	-0.451490	-0.228337
H117	H	0.715878	0.271387	-0.000138
H118	H	1.289324	-0.433864	0.092484
H119	H	1.503258	-0.306783	-0.227690
H120	H	1.654285	0.010360	0.760919
