data_functionalizedCrystal
_audit_creation_method	'MofGen! by Chris Wilmer'
_symmetry_space_group_name_H-M	'P1'
_symmetry_Int_Tables_number	1
_symmetry_cell_setting	triclinic
loop_
_symmetry_equiv_pos_as_xyz
  x,y,z
_cell_length_a	16.625539
_cell_length_b	12.759401
_cell_length_c	12.759399
_cell_angle_alpha	89.982712
_cell_angle_beta	89.974815
_cell_angle_gamma	90.018781
loop_
_atom_site_label
_atom_site_type_symbol
_atom_site_fract_x
_atom_site_fract_y
_atom_site_fract_z
Zn1	Zn	-0.455888	-1.606236	-0.418222
Zn2	Zn	-0.321063	-1.606131	-0.593923
Zn3	Zn	-0.321073	-1.430542	-0.418263
Zn4	Zn	-0.455857	-1.430524	-0.593864
O5	O	-0.388470	-1.518358	-0.506068
O6	O	-0.438012	-1.753243	-0.441536
O7	O	-0.208232	-1.582802	-0.570663
O8	O	-0.338974	-1.453900	-0.271237
O9	O	-0.338957	-1.753166	-0.570623
O10	O	-0.438022	-1.582982	-0.271206
O11	O	-0.208239	-1.453797	-0.441607
O12	O	-0.338944	-1.283518	-0.441550
O13	O	-0.568694	-1.453869	-0.570523
O14	O	-0.437969	-1.283505	-0.570563
O15	O	-0.568717	-1.582964	-0.441479
O16	O	-0.338926	-1.582784	-0.740936
O17	O	-0.437959	-1.453767	-0.740893
C18	C	-0.388456	-1.518291	-0.779035
C19	C	-0.388476	-1.518358	-0.895812
C20	C	-0.598779	-1.518426	-0.505990
C21	C	-0.688401	-1.518455	-0.505956
C22	C	-0.388454	-1.245391	-0.506055
C23	C	-0.388467	-1.128614	-0.506075
C24	C	-1.016576	-1.518504	-0.505839
C25	C	-0.925268	-1.518487	-0.505875
C26	C	-0.852491	-1.518480	-0.505898
C27	C	-0.761177	-1.518463	-0.505933
C28	C	-0.178980	-1.518350	-0.506070
C29	C	-0.089359	-1.518525	-0.505807
C30	C	-0.388487	-1.792391	-0.506082
C31	C	-0.388494	-1.909168	-0.506087
C32	C	-0.439948	-1.073773	-0.573354
C33	C	-0.439964	-0.964049	-0.573358
C34	C	-0.337010	-0.964017	-0.438801
C35	C	-0.336999	-1.073739	-0.438792
C36	C	-0.535022	-0.814147	-0.611067
C37	C	-0.586496	-0.759302	-0.678363
C38	C	-0.598736	-0.794897	-0.780895
C39	C	-0.559490	-0.885336	-0.816152
C40	C	-0.508010	-0.940175	-0.748862
C41	C	-0.495785	-0.904582	-0.646315
C42	C	-0.241940	-1.223642	-0.401094
C43	C	-0.190455	-1.278484	-0.333809
C44	C	-0.178207	-1.242891	-0.231275
C45	C	-0.217439	-1.152449	-0.196021
C46	C	-0.268923	-1.097607	-0.263307
C47	C	-0.281173	-1.133208	-0.365840
C48	C	-0.336896	-1.451311	-1.060508
C49	C	-0.336877	-1.451239	-0.950784
C50	C	-0.440103	-1.585545	-0.950569
C51	C	-0.440125	-1.585611	-1.060291
C52	C	-0.307955	-1.327264	-0.800972
C53	C	-0.256321	-1.260089	-0.746219
C54	C	-0.177642	-1.244037	-0.781915
C55	C	-0.150580	-1.295175	-0.872364
C56	C	-0.202210	-1.362358	-0.927112
C57	C	-0.280900	-1.378390	-0.891417
C58	C	-0.469039	-1.709587	-1.210105
C59	C	-0.520665	-1.776776	-1.264855
C60	C	-0.599345	-1.792839	-1.229160
C61	C	-0.626404	-1.741720	-1.138708
C62	C	-0.574778	-1.674530	-1.083958
C63	C	-0.496099	-1.658466	-1.119661
C64	C	-0.388503	-1.518454	-0.232035
C65	C	-0.388517	-1.518495	-0.115258
H66	H	-0.481858	-1.118449	-0.628137
Br67	Br	-0.293046	-1.190691	-0.623470
Br68	Br	-0.669404	-1.884043	-1.303454
Br69	Br	-0.137196	-1.401215	-0.381661
H70	H	-0.086508	-1.282109	-0.901415
Br71	Br	-0.200808	-1.104128	-0.056869
Br72	Br	-0.258449	-1.271848	-0.540314
Br73	Br	-0.414747	-1.349018	-0.752538
H74	H	-0.476057	-1.013808	-0.777568
Br75	Br	-0.322161	-0.974856	-0.215466
H76	H	-0.482120	-1.640191	-0.905804
Br77	Br	-0.107569	-1.152874	-0.707603
H78	H	-0.596815	-1.632909	-1.010305
H79	H	-0.569454	-0.914304	-0.899649
Br80	Br	-0.733185	-1.763527	-1.090252
H81	H	-0.525069	-0.785164	-0.527574
H82	H	-0.180176	-1.403996	-1.000752
Br83	Br	-0.668598	-0.720467	-0.872220
Br84	Br	-0.639758	-0.636570	-0.630515
Br85	Br	-0.483943	-1.846150	-1.387617
Br86	Br	-0.362262	-1.687759	-1.258577
H87	H	-0.295106	-0.919324	-0.384023
H88	H	-0.136277	-1.287548	-0.176495
H89	H	-0.294875	-1.396659	-1.105259
