data_functionalizedCrystal
_audit_creation_method	'MofGen! by Chris Wilmer'
_symmetry_space_group_name_H-M	'P1'
_symmetry_Int_Tables_number	1
_symmetry_cell_setting	triclinic
loop_
_symmetry_equiv_pos_as_xyz
  x,y,z
_cell_length_a	15.995292
_cell_length_b	14.519709
_cell_length_c	12.996460
_cell_angle_alpha	89.987633
_cell_angle_beta	89.998337
_cell_angle_gamma	96.425620
loop_
_atom_site_label
_atom_site_type_symbol
_atom_site_fract_x
_atom_site_fract_y
_atom_site_fract_z
O1	O	0.109763	-1.223628	-0.085425
O2	O	0.122689	-0.955124	-0.085456
O3	O	-0.005654	-1.096744	-0.085441
O4	O	0.238106	-1.082008	-0.085440
O5	O	-0.005661	-1.096762	0.085692
O6	O	0.122682	-0.955143	0.085678
O7	O	0.109756	-1.223646	0.085708
Cu8	Cu	0.116218	-1.089396	0.101319
Cu9	Cu	0.116227	-1.089374	-0.101067
O10	O	0.238099	-1.082027	0.085694
C11	C	0.122083	-0.920775	0.000107
C12	C	0.120278	-0.818397	0.000095
N13	N	0.116227	-1.089360	-0.243414
C14	C	-0.036854	-1.096153	0.000123
C15	C	-0.129810	-1.094355	0.000115
C16	C	-0.467558	-1.087745	0.000124
C17	C	-0.444093	-1.189962	0.000518
C18	C	-0.347414	-1.191905	0.000128
C19	C	-0.299997	-1.091025	0.000120
C20	C	-0.329170	-1.039911	-0.097609
C21	C	-0.425963	-1.038680	-0.097687
C22	C	-0.425831	-1.036614	0.096924
C23	C	-0.329333	-1.040402	0.098212
C24	C	-0.205298	-1.092873	0.000114
C25	C	-0.562257	-1.085894	0.000122
C26	C	0.269299	-1.082617	0.000127
C27	C	0.362254	-1.084415	0.000129
C28	C	0.110362	-1.257995	0.000143
C29	C	0.112167	-1.360373	0.000149
C30	C	0.113632	-0.443515	0.000142
C31	C	0.115478	-0.547819	0.000128
C32	C	0.116955	-0.630953	0.000117
C33	C	0.118801	-0.735264	0.000106
C34	C	0.116228	-1.089363	-0.336520
C35	C	0.116226	-1.089375	-0.453325
C36	C	0.116220	-1.089391	-0.546423
C37	C	0.116217	-1.089402	-0.663236
N38	N	0.116211	-1.089418	0.243666
H39	H	-0.328332	-1.231935	0.070183
H40	H	-0.453875	-1.068812	0.171001
H41	H	-0.440625	-0.963734	-0.102121
C42	C	-0.304152	-1.090661	0.195888
N43	N	-0.285172	-1.128511	0.269456
C44	C	-0.481845	-1.243205	0.095197
N45	N	-0.510287	-1.283308	0.166512
C46	C	-0.284946	-0.940925	0.106176
N47	N	-0.251515	-0.865995	0.112166
C48	C	-0.322461	-1.246279	-0.094671
N49	N	-0.303667	-1.287233	-0.166080
C50	C	-0.444897	-0.934974	0.097816
N51	N	-0.459267	-0.858423	0.098483
H52	H	-0.473049	-1.229135	-0.069166
C53	C	-0.302003	-1.087848	-0.195856
N54	N	-0.281544	-1.123960	-0.269853
H55	H	-0.452723	-1.074065	-0.170734
H56	H	-0.297414	-0.965676	-0.101248
