data_functionalizedCrystal
_audit_creation_method	'MofGen! by Chris Wilmer'
_symmetry_space_group_name_H-M	'P1'
_symmetry_Int_Tables_number	1
_symmetry_cell_setting	triclinic
loop_
_symmetry_equiv_pos_as_xyz
  x,y,z
_cell_length_a	17.038272
_cell_length_b	10.654550
_cell_length_c	16.098538
_cell_angle_alpha	87.242340
_cell_angle_beta	87.061146
_cell_angle_gamma	92.201757
loop_
_atom_site_label
_atom_site_type_symbol
_atom_site_fract_x
_atom_site_fract_y
_atom_site_fract_z
O1	O	1.035417	-0.278097	0.069153
O2	O	0.807761	-0.273766	0.069177
O3	O	0.926823	-0.093678	0.069159
O4	O	0.916354	-0.458185	0.069171
O5	O	0.933772	-0.083191	-0.069355
O6	O	0.814709	-0.263279	-0.069337
O7	O	1.042365	-0.267610	-0.069361
Zn8	Zn	0.929640	-0.263779	-0.091341
Zn9	Zn	0.920485	-0.277597	0.091157
O10	O	0.923303	-0.447698	-0.069343
C11	C	0.782084	-0.264582	-0.000077
C12	C	0.695225	-0.252826	-0.000068
N13	N	0.914238	-0.287017	0.215707
C14	C	0.929529	-0.041565	-0.000098
C15	C	0.927229	0.098092	-0.000096
C16	C	0.645714	-0.360770	-0.000065
C17	C	0.564102	-0.349714	-0.000077
C18	C	0.532003	-0.230714	-0.000085
C19	C	0.581521	-0.122761	-0.000091
C20	C	0.663132	-0.133817	-0.000085
C21	C	0.286028	-0.191654	-0.000109
C22	C	0.204411	-0.180606	-0.000112
C23	C	0.186998	-0.407561	-0.000100
C24	C	0.268611	-0.418607	-0.000089
C25	C	0.318122	-0.310654	-0.000099
C26	C	0.448583	-0.219411	-0.000095
C27	C	0.401541	-0.321957	-0.000095
C28	C	1.068041	-0.276794	-0.000106
C29	C	1.154900	-0.288551	-0.000110
C30	C	0.920597	-0.499811	-0.000085
C31	C	0.922896	-0.639468	-0.000081
C32	C	0.997331	0.171069	-0.000103
C33	C	0.995165	0.302290	-0.000093
C34	C	0.852789	0.287545	-0.000071
C35	C	0.854956	0.156326	-0.000076
N36	N	0.935894	-0.254349	-0.215891
C37	C	0.964871	-0.210748	0.259284
C38	C	0.960499	-0.217335	0.346474
C39	C	0.905489	-0.300187	0.390085
C40	C	0.854853	-0.376465	0.346501
C41	C	0.859230	-0.369883	0.259313
C42	C	0.889635	-0.324046	0.653337
C43	C	0.885261	-0.330619	0.740531
C44	C	0.990908	-0.171490	0.740498
C45	C	0.995277	-0.164910	0.653308
C46	C	0.944644	-0.241193	0.609732
C47	C	0.901017	-0.306919	0.479206
C48	C	0.949120	-0.234466	0.520612
H49	H	0.671842	-0.457673	-0.000057
H50	H	0.856225	-0.374376	0.514721
F51	F	0.511411	-0.464605	-0.000070
H52	H	0.793946	0.334976	-0.000057
F53	F	1.007667	-0.146297	0.474198
H54	H	1.009663	-0.143276	0.223782
F55	F	0.302766	-0.545264	-0.000075
H56	H	0.146678	-0.495449	-0.000094
F57	F	0.826706	-0.418805	0.786939
H58	H	1.001729	-0.155231	0.381954
H59	H	0.178280	-0.083697	-0.000118
H60	H	0.326331	-0.103751	-0.000117
F61	F	0.414413	-0.092765	-0.000101
H62	H	0.555380	-0.025867	-0.000110
H63	H	1.052249	0.361702	-0.000097
F64	F	1.074251	0.109096	-0.000124
F65	F	0.780339	0.078653	-0.000062
H66	H	0.817999	-0.431991	0.223833
H67	H	1.040070	-0.097446	0.617802
F68	F	1.044919	-0.090529	0.786881
F69	F	0.715826	-0.018928	-0.000091
H70	H	0.427679	-0.418847	-0.000093
H71	H	0.848406	-0.386156	0.617864
H72	H	0.810065	-0.443931	0.382014
