data_functionalizedCrystal
_audit_creation_method	'MofGen! by Chris Wilmer'
_symmetry_space_group_name_H-M	'P1'
_symmetry_Int_Tables_number	1
_symmetry_cell_setting	triclinic
loop_
_symmetry_equiv_pos_as_xyz
  x,y,z
_cell_length_a	15.995300
_cell_length_b	16.109301
_cell_length_c	15.186229
_cell_angle_alpha	90.005167
_cell_angle_beta	89.995056
_cell_angle_gamma	96.533356
loop_
_atom_site_label
_atom_site_type_symbol
_atom_site_fract_x
_atom_site_fract_y
_atom_site_fract_z
O1	O	1.110981	-0.106966	-0.073264
O2	O	1.444315	0.226367	0.260070
O3	O	1.777648	0.559701	0.593403
O4	O	0.867197	-0.120243	-0.073259
O5	O	1.200530	0.213090	0.260075
O6	O	1.533863	0.546423	0.593408
O7	O	0.995786	0.007426	-0.073252
O8	O	1.329119	0.340759	0.260081
O9	O	1.662453	0.674092	0.593414
O10	O	0.982392	-0.234635	-0.073270
O11	O	1.315725	0.098698	0.260063
O12	O	1.649059	0.432031	0.593397
O13	O	0.995777	0.007427	0.073205
O14	O	1.329111	0.340761	0.406538
O15	O	1.662444	0.674094	0.739872
O16	O	0.867188	-0.120242	0.073199
O17	O	1.200521	0.213092	0.406532
O18	O	1.533855	0.546425	0.739865
O19	O	1.110973	-0.106964	0.073194
O20	O	1.444306	0.226369	0.406527
O21	O	1.777639	0.559702	0.739860
Zn22	Zn	0.989079	-0.113603	0.096449
Zn23	Zn	1.322412	0.219731	0.429783
Zn24	Zn	1.655746	0.553064	0.763116
Zn25	Zn	0.989090	-0.113605	-0.096514
Zn26	Zn	1.322424	0.219728	0.236819
Zn27	Zn	1.655757	0.553062	0.570152
O28	O	0.982383	-0.234633	0.073187
O29	O	1.315717	0.098700	0.406521
O30	O	1.649050	0.432033	0.739854
C31	C	0.835997	-0.119701	-0.000029
C32	C	1.169330	0.213632	0.333304
C33	C	1.502664	0.546966	0.666637
C34	C	0.743045	-0.118078	-0.000027
C35	C	1.076378	0.215256	0.333306
C36	C	1.409712	0.548589	0.666640
C37	C	0.572863	-0.115079	-0.000034
C38	C	0.906196	0.218254	0.333300
C39	C	1.239529	0.551587	0.666633
C40	C	0.525372	-0.205982	-0.000038
C41	C	0.858705	0.127351	0.333295
C42	C	1.192039	0.460684	0.666628
C43	C	0.428685	-0.204324	-0.000373
C44	C	0.762018	0.129009	0.332960
C45	C	1.095351	0.462343	0.666294
C46	C	0.405307	-0.112128	-0.000039
C47	C	0.738640	0.221205	0.333294
C48	C	1.071973	0.554538	0.666628
C49	C	0.446457	-0.067029	-0.083505
C50	C	0.779790	0.266304	0.249828
C51	C	1.113123	0.599637	0.583161
C52	C	0.543089	-0.069330	-0.083573
C53	C	0.876423	0.264004	0.249760
C54	C	1.209756	0.597337	0.583094
C55	C	0.543359	-0.067982	0.082982
C56	C	0.876693	0.265352	0.416315
C57	C	1.210026	0.598685	0.749649
C58	C	0.446415	-0.067990	0.084077
C59	C	0.779748	0.265343	0.417410
C60	C	1.113082	0.598677	0.750744
C61	C	0.310612	-0.110456	-0.000045
C62	C	0.643945	0.222877	0.333288
C63	C	0.977279	0.556211	0.666622
C64	C	0.667558	-0.116749	-0.000034
C65	C	1.000891	0.216584	0.333300
C66	C	1.334225	0.549917	0.666633
C67	C	0.995239	0.038401	-0.000023
C68	C	1.328572	0.371735	0.333310
C69	C	1.661906	0.705068	0.666643
C70	C	0.993613	0.130697	-0.000022
C71	C	1.326946	0.464030	0.333311
C72	C	1.660279	0.797364	0.666645
C73	C	1.142172	-0.107507	-0.000038
C74	C	1.475506	0.225827	0.333296
C75	C	1.808839	0.559160	0.666629
C76	C	1.235125	-0.109130	-0.000046
C77	C	1.568458	0.224203	0.333288
C78	C	1.901791	0.557536	0.666621
C79	C	0.982930	-0.265609	-0.000044
C80	C	1.316264	0.067724	0.333290
C81	C	1.649597	0.401057	0.666623
C82	C	0.984557	-0.357905	-0.000051
C83	C	1.317890	-0.024571	0.333282
C84	C	1.651224	0.308762	0.666616
N85	N	0.989077	-0.113601	0.228142
N86	N	1.322411	0.219733	0.561475
N87	N	1.655744	0.553066	0.894809
C88	C	1.066133	0.352963	-0.000037
C89	C	1.399466	0.686296	0.333296
C90	C	1.732799	1.019629	0.666629
C91	C	1.064598	0.439683	-0.000045
C92	C	1.397931	0.773017	0.333289
C93	C	1.731264	1.106350	0.666622
C94	C	0.912031	0.419823	-0.000038
C95	C	1.245364	0.753156	0.333295
C96	C	1.578698	1.086489	0.666629
C97	C	0.913567	0.333104	-0.000037
C98	C	1.246900	0.666437	0.333296
C99	C	1.580233	0.999770	0.666630
C100	C	0.990620	0.299676	-0.000032
C101	C	1.323953	0.633010	0.333301
C102	C	1.657287	0.966343	0.666634
C103	C	0.987549	0.473116	-0.000040
C104	C	1.320883	0.806449	0.333293
C105	C	1.654216	1.139782	0.666626
C106	C	0.985885	0.567142	-0.000048
C107	C	1.319218	0.900475	0.333285
C108	C	1.652551	1.233809	0.666618
C109	C	0.992285	0.205644	-0.000026
C110	C	1.325619	0.538978	0.333307
C111	C	1.658952	0.872311	0.666640
N112	N	0.989099	-0.113601	-0.228207
N113	N	1.322432	0.219733	0.105126
N114	N	1.655765	0.553066	0.438460
C115	C	1.046036	-0.057088	0.453868
C116	C	1.379369	0.276246	0.787201
C117	C	1.712703	0.609579	1.120534
C118	C	1.046039	-0.057086	0.546057
C119	C	1.379372	0.276248	0.879391
C120	C	1.712705	0.609581	1.212724
C121	C	0.932134	-0.170116	0.546061
C122	C	1.265467	0.163217	0.879394
C123	C	1.598800	0.496551	1.212727
C124	C	0.932128	-0.170113	0.453873
C125	C	1.265461	0.163220	0.787206
C126	C	1.598794	0.496553	1.120539
C127	C	0.989084	-0.113600	0.407779
C128	C	1.322417	0.219733	0.741112
C129	C	1.655750	0.553066	1.074445
C130	C	0.989092	-0.113601	0.592156
C131	C	1.322426	0.219732	0.925490
C132	C	1.655759	0.553066	1.258823
C133	C	0.989095	-0.113599	0.692112
C134	C	1.322428	0.219734	1.025446
C135	C	1.655761	0.553067	1.358779
C136	C	0.989080	-0.113601	0.307816
C137	C	1.322414	0.219733	0.641149
C138	C	1.655747	0.553066	0.974483
H139	H	0.543850	-0.242513	0.059806
H140	H	0.877183	0.090820	0.393139
H141	H	1.210516	0.424154	0.726472
H142	H	1.126088	0.483066	-0.000051
H143	H	1.459421	0.816399	0.333283
H144	H	1.792755	1.149733	0.666616
H145	H	0.885763	-0.216129	0.583600
H146	H	1.219096	0.117204	0.916933
H147	H	1.552429	0.450538	1.250267
C148	C	0.408149	-0.108826	-0.167745
C149	C	0.741482	0.224508	0.165589
C150	C	1.074816	0.557841	0.498922
H151	H	0.433457	-0.081088	-0.217902
H152	H	0.766790	0.252245	0.115431
H153	H	1.100124	0.585578	0.448764
H154	H	0.418086	-0.165844	-0.168700
H155	H	0.751419	0.167490	0.164633
H156	H	1.084752	0.500823	0.497967
H157	H	0.349268	-0.105319	-0.168607
H158	H	0.682601	0.228014	0.164727
H159	H	1.015934	0.561347	0.498060
C160	C	0.571029	-0.108407	0.168476
C161	C	0.904362	0.224926	0.501809
C162	C	1.237695	0.558259	0.835142
H163	H	0.552600	-0.079049	0.217769
H164	H	0.885934	0.254284	0.551103
H165	H	1.219267	0.587618	0.884436
H166	H	0.546929	-0.165047	0.170837
H167	H	0.880262	0.168286	0.504170
H168	H	1.213596	0.501620	0.837503
H169	H	0.630635	-0.106056	0.169566
H170	H	0.963968	0.227277	0.502899
H171	H	1.297301	0.560610	0.836233
C172	C	0.586320	0.022555	0.084086
C173	C	0.919653	0.355888	0.417420
C174	C	1.252986	0.689222	0.750753
H175	H	0.568239	0.050698	0.134393
H176	H	0.901572	0.384031	0.467727
H177	H	1.234906	0.717365	0.801060
H178	H	0.645633	0.022223	0.086240
H179	H	0.978967	0.355556	0.419573
H180	H	1.312300	0.688890	0.752906
H181	H	0.571577	0.050602	0.032303
H182	H	0.904910	0.383936	0.365637
H183	H	1.238244	0.717269	0.698970
H184	H	0.431095	-0.000773	0.089369
H185	H	0.764428	0.332561	0.422702
H186	H	1.097761	0.665894	0.756035
H187	H	0.419062	-0.100924	0.145826
H188	H	0.752396	0.232409	0.479160
H189	H	1.085729	0.565743	0.812493
H190	H	0.885746	-0.216133	0.416345
H191	H	1.219080	0.117200	0.749678
H192	H	1.552413	0.450534	1.083011
H193	H	0.849297	0.447050	-0.000040
H194	H	1.182630	0.780383	0.333293
H195	H	1.515963	1.113717	0.666626
H196	H	0.400208	-0.239761	0.059445
H197	H	0.733541	0.093572	0.392778
H198	H	1.066875	0.426905	0.726112
H199	H	0.852071	0.289715	-0.000036
H200	H	1.185405	0.623049	0.333298
H201	H	1.518738	0.956382	0.666631
H202	H	0.561403	-0.101834	-0.146206
H203	H	0.894737	0.231499	0.187127
H204	H	1.228070	0.564833	0.520460
C205	C	1.108685	0.005076	0.596756
C206	C	1.442018	0.338410	0.930089
C207	C	1.775351	0.671743	1.263422
H208	H	1.100527	-0.003010	0.658262
H209	H	1.433860	0.330323	0.991595
H210	H	1.767194	0.663657	1.324928
H211	H	1.164562	-0.003972	0.581640
H212	H	1.497895	0.329361	0.914973
H213	H	1.831228	0.662694	1.248307
H214	H	1.099601	0.060570	0.581652
H215	H	1.432934	0.393904	0.914985
H216	H	1.766268	0.727237	1.248319
H217	H	0.544974	-0.241970	-0.059808
H218	H	0.878308	0.091363	0.273526
H219	H	1.211641	0.424696	0.606859
C220	C	0.391047	-0.252015	-0.081660
C221	C	0.724380	0.081318	0.251673
C222	C	1.057714	0.414651	0.585006
H223	H	0.434859	-0.272470	-0.114614
H224	H	0.768192	0.060864	0.218720
H225	H	1.101525	0.394197	0.552053
H226	H	0.352047	-0.297564	-0.063155
H227	H	0.685381	0.035769	0.270179
H228	H	1.018714	0.369102	0.603512
H229	H	0.363024	-0.215433	-0.117370
H230	H	0.696358	0.117901	0.215963
H231	H	1.029691	0.451234	0.549296
C232	C	1.150885	0.316190	-0.000039
C233	C	1.484218	0.649524	0.333294
C234	C	1.817552	0.982857	0.666628
H235	H	1.140987	0.256912	-0.000029
H236	H	1.474321	0.590245	0.333304
H237	H	1.807654	0.923578	0.666638
H238	H	1.181978	0.334477	-0.051114
H239	H	1.515311	0.667811	0.282220
H240	H	1.848645	1.001144	0.615553
H241	H	1.181973	0.334489	0.051039
H242	H	1.515306	0.667822	0.384372
H243	H	1.848639	1.001156	0.717705
C244	C	1.108683	0.005072	0.403163
C245	C	1.442016	0.338405	0.736496
C246	C	1.775349	0.671739	1.069829
H247	H	1.100531	-0.003025	0.341657
H248	H	1.433865	0.330308	0.674991
H249	H	1.767198	0.663642	1.008324
H250	H	1.099612	0.060565	0.418277
H251	H	1.432945	0.393899	0.751610
H252	H	1.766279	0.727232	1.084944
H253	H	1.164561	-0.003988	0.418265
H254	H	1.497895	0.329345	0.751598
H255	H	1.831228	0.662678	1.084932
C256	C	0.586717	0.020840	-0.088396
C257	C	0.920050	0.354173	0.244937
C258	C	1.253383	0.687506	0.578271
H259	H	0.545358	0.058713	-0.090311
H260	H	0.878692	0.392046	0.243022
H261	H	1.212025	0.725379	0.576355
H262	H	0.621219	0.032152	-0.037926
H263	H	0.954552	0.365485	0.295407
H264	H	1.287885	0.698818	0.628740
H265	H	0.620477	0.027284	-0.139950
H266	H	0.953810	0.360618	0.193384
H267	H	1.287143	0.693951	0.526717
H268	H	0.432376	0.000714	-0.086370
H269	H	0.765709	0.334047	0.246963
H270	H	1.099042	0.667381	0.580297
