data_functionalizedCrystal
_audit_creation_method	'MofGen! by Chris Wilmer'
_symmetry_space_group_name_H-M	'P1'
_symmetry_Int_Tables_number	1
_symmetry_cell_setting	triclinic
loop_
_symmetry_equiv_pos_as_xyz
  x,y,z
_cell_length_a	23.532407
_cell_length_b	23.532407
_cell_length_c	15.186229
_cell_angle_alpha	89.999328
_cell_angle_beta	89.996194
_cell_angle_gamma	97.151289
loop_
_atom_site_label
_atom_site_type_symbol
_atom_site_fract_x
_atom_site_fract_y
_atom_site_fract_z
O1	O	-0.069135	0.755259	-0.073159
O2	O	0.264199	1.088592	0.260174
O3	O	0.597532	1.421925	0.593508
O4	O	-0.079138	0.589395	-0.073171
O5	O	0.254196	0.922729	0.260162
O6	O	0.587529	1.256062	0.593496
O7	O	0.008796	0.677329	-0.073176
O8	O	0.342129	1.010662	0.260158
O9	O	0.675462	1.343995	0.593491
O10	O	-0.157068	0.667325	-0.073154
O11	O	0.176266	1.000659	0.260179
O12	O	0.509599	1.333992	0.593512
O13	O	0.008797	0.677323	0.073281
O14	O	0.342130	1.010656	0.406615
O15	O	0.675463	1.343989	0.739948
O16	O	-0.079136	0.589389	0.073286
O17	O	0.254197	0.922723	0.406620
O18	O	0.587530	1.256056	0.739953
O19	O	-0.069133	0.755253	0.073298
O20	O	0.264200	1.088586	0.406632
O21	O	0.597533	1.421919	0.739965
Zn22	Zn	-0.074135	0.672320	0.096545
Zn23	Zn	0.259199	1.005653	0.429879
Zn24	Zn	0.592532	1.338987	0.763212
Zn25	Zn	-0.074136	0.672328	-0.096418
Zn26	Zn	0.259197	1.005661	0.236915
Zn27	Zn	0.592530	1.338994	0.570248
O28	O	-0.157067	0.667319	0.073303
O29	O	0.176267	1.000653	0.406636
O30	O	0.509600	1.333986	0.739970
C31	C	-0.078882	0.568176	0.000056
C32	C	0.254451	0.901510	0.333389
C33	C	0.587784	1.234843	0.666723
C34	C	-0.078116	0.504959	0.000051
C35	C	0.255217	0.838293	0.333384
C36	C	0.588550	1.171626	0.666717
C37	C	-0.022921	0.238792	0.000067
C38	C	0.310412	0.572125	0.333401
C39	C	0.643746	0.905458	0.666734
C40	C	-0.023632	0.298192	0.000067
C41	C	0.309701	0.631525	0.333401
C42	C	0.643034	0.964859	0.666734
O43	O	0.020153	0.334937	0.000092
O44	O	0.353487	0.668270	0.333425
O45	O	0.686820	1.001603	0.666759
N46	N	-0.075909	0.320818	0.000068
N47	N	0.257425	0.654152	0.333401
N48	N	0.590758	0.987485	0.666735
C49	C	-0.127477	0.284041	0.000078
C50	C	0.205856	0.617374	0.333411
C51	C	0.539190	0.950707	0.666745
O52	O	-0.172007	0.308740	0.000079
O53	O	0.161326	0.642074	0.333413
O54	O	0.494659	0.975407	0.666746
C55	C	-0.126765	0.224642	0.000084
C56	C	0.206568	0.557975	0.333418
C57	C	0.539902	0.891308	0.666751
C58	C	-0.074485	0.202019	0.000075
C59	C	0.258848	0.535352	0.333408
C60	C	0.592181	0.868686	0.666741
C61	C	0.029354	0.216169	0.000059
C62	C	0.362688	0.549502	0.333392
C63	C	0.696021	0.882835	0.666725
C64	C	0.030066	0.156772	0.000057
C65	C	0.363399	0.490106	0.333390
C66	C	0.696732	0.823439	0.666724
C67	C	-0.021499	0.119999	0.000064
C68	C	0.311835	0.453333	0.333398
C69	C	0.645168	0.786666	0.666731
C70	C	-0.073774	0.142623	0.000073
C71	C	0.259559	0.475956	0.333406
C72	C	0.592893	0.809289	0.666740
C73	C	-0.178333	0.187865	0.000101
C74	C	0.155001	0.521199	0.333434
C75	C	0.488334	0.854532	0.666767
C76	C	-0.177616	0.128463	0.000108
C77	C	0.155717	0.461796	0.333441
C78	C	0.489051	0.795129	0.666774
C79	C	-0.125336	0.105840	0.000098
C80	C	0.207997	0.439173	0.333431
C81	C	0.541330	0.772507	0.666765
C82	C	-0.124627	0.046454	0.000079
C83	C	0.208706	0.379787	0.333412
C84	C	0.542040	0.713120	0.666745
N85	N	-0.072351	0.023828	0.000078
N86	N	0.260983	0.357161	0.333411
N87	N	0.594316	0.690494	0.666745
C88	C	-0.020787	0.060600	0.000071
C89	C	0.312547	0.393934	0.333404
C90	C	0.645880	0.727267	0.666737
C91	C	-0.128968	0.408783	0.000066
C92	C	0.204365	0.742117	0.333399
C93	C	0.537698	1.075450	0.666733
C94	C	-0.129681	0.468181	0.000053
C95	C	0.203652	0.801514	0.333386
C96	C	0.536986	1.134848	0.666720
C97	C	-0.025836	0.482328	0.000044
C98	C	0.307497	0.815662	0.333377
C99	C	0.640830	1.148995	0.666711
C100	C	-0.025124	0.422929	0.000051
C101	C	0.308209	0.756263	0.333384
C102	C	0.641543	1.089596	0.666717
C103	C	-0.076692	0.386157	0.000065
C104	C	0.256641	0.719490	0.333398
C105	C	0.589975	1.052824	0.666732
C106	C	-0.019297	-0.064136	0.000067
C107	C	0.314036	0.269197	0.333400
C108	C	0.647370	0.602530	0.666734
C109	C	-0.018590	-0.123538	0.000062
C110	C	0.314743	0.209795	0.333395
C111	C	0.648076	0.543128	0.666728
C112	C	-0.122435	-0.137680	0.000075
C113	C	0.210899	0.195653	0.333409
C114	C	0.544232	0.528986	0.666742
C115	C	-0.123142	-0.078284	0.000076
C116	C	0.210192	0.255050	0.333409
C117	C	0.543525	0.588383	0.666743
C118	C	-0.071568	-0.041512	0.000075
C119	C	0.261765	0.291821	0.333408
C120	C	0.595099	0.625154	0.666741
O121	O	-0.168390	0.009675	0.000058
O122	O	0.164943	0.343008	0.333391
O123	O	0.498277	0.676341	0.666724
O124	O	0.023737	0.035892	0.000081
O125	O	0.357070	0.369226	0.333414
O126	O	0.690403	0.702559	0.666748
C127	C	-0.178283	0.667577	0.000077
C128	C	0.155050	1.000910	0.333411
C129	C	0.488383	1.334244	0.666744
C130	C	-0.241500	0.668343	0.000086
C131	C	0.091833	1.001676	0.333419
C132	C	0.425166	1.335010	0.666752
C133	C	-0.640603	0.621110	0.000037
C134	C	-0.307270	0.954443	0.333370
C135	C	0.026063	1.287776	0.666704
C136	C	-0.700004	0.621821	0.000031
C137	C	-0.366670	0.955154	0.333364
C138	C	-0.033337	1.288488	0.666698
O139	O	-0.736748	0.578035	-0.000005
O140	O	-0.403415	0.911368	0.333329
O141	O	-0.070081	1.244702	0.666662
N142	N	-0.722630	0.674097	0.000036
N143	N	-0.389296	1.007431	0.333369
N144	N	-0.055963	1.340764	0.666703
C145	C	-0.685852	0.725666	0.000038
C146	C	-0.352519	1.058999	0.333371
C147	C	-0.019185	1.392332	0.666705
O148	O	-0.710552	0.770196	0.000041
O149	O	-0.377218	1.103529	0.333374
O150	O	-0.043885	1.436863	0.666707
C151	C	-0.626453	0.724953	0.000038
C152	C	-0.293120	1.058287	0.333371
C153	C	0.040214	1.391620	0.666704
C154	C	-0.603830	0.672674	0.000042
C155	C	-0.270497	1.006007	0.333375
C156	C	0.062836	1.339340	0.666708
C157	C	-0.617980	0.568834	0.000040
C158	C	-0.284647	0.902167	0.333374
C159	C	0.048687	1.235501	0.666707
C160	C	-0.558584	0.568123	0.000048
C161	C	-0.225251	0.901456	0.333381
C162	C	0.108083	1.234790	0.666715
C163	C	-0.521811	0.619687	0.000053
C164	C	-0.188478	0.953020	0.333386
C165	C	0.144856	1.286354	0.666719
C166	C	-0.544434	0.671963	0.000050
C167	C	-0.211101	1.005296	0.333383
C168	C	0.122232	1.338629	0.666716
C169	C	-0.589677	0.776521	0.000033
C170	C	-0.256343	1.109854	0.333367
C171	C	0.076990	1.443188	0.666700
C172	C	-0.530274	0.775804	0.000033
C173	C	-0.196941	1.109138	0.333366
C174	C	0.136393	1.442471	0.666699
C175	C	-0.507652	0.723525	0.000037
C176	C	-0.174318	1.056858	0.333370
C177	C	0.159015	1.390191	0.666703
C178	C	-0.448265	0.722816	0.000062
C179	C	-0.114932	1.056149	0.333395
C180	C	0.218401	1.389482	0.666729
N181	N	-0.425639	0.670539	0.000057
N182	N	-0.092306	1.003873	0.333390
N183	N	0.241028	1.337206	0.666724
C184	C	-0.462412	0.618975	0.000052
C185	C	-0.129079	0.952308	0.333386
C186	C	0.204255	1.285642	0.666719
C187	C	-0.810595	0.727157	0.000037
C188	C	-0.477261	1.060490	0.333370
C189	C	-0.143928	1.393824	0.666703
C190	C	-0.869993	0.727870	0.000043
C191	C	-0.536659	1.061203	0.333377
C192	C	-0.203326	1.394536	0.666710
C193	C	-0.884140	0.624025	0.000035
C194	C	-0.550807	0.957358	0.333368
C195	C	-0.217473	1.290691	0.666701
C196	C	-0.824741	0.623313	0.000034
C197	C	-0.491408	0.956646	0.333368
C198	C	-0.158074	1.289979	0.666701
C199	C	-0.787969	0.674881	0.000032
C200	C	-0.454635	1.008214	0.333365
C201	C	-0.121302	1.341547	0.666699
C202	C	-0.337675	0.617485	0.000069
C203	C	-0.004342	0.950819	0.333403
C204	C	0.328992	1.284152	0.666736
C205	C	-0.278273	0.616779	0.000081
C206	C	0.055060	0.950112	0.333414
C207	C	0.388394	1.283445	0.666748
C208	C	-0.264131	0.720623	0.000085
C209	C	0.069202	1.053957	0.333418
C210	C	0.402536	1.387290	0.666751
C211	C	-0.323528	0.721330	0.000078
C212	C	0.009806	1.054663	0.333411
C213	C	0.343139	1.387997	0.666745
C214	C	-0.360299	0.669757	0.000067
C215	C	-0.026966	1.003090	0.333401
C216	C	0.306368	1.336423	0.666734
O217	O	-0.411486	0.766578	0.000094
O218	O	-0.078153	1.099912	0.333427
O219	O	0.255181	1.433245	0.666761
O220	O	-0.437704	0.574452	0.000038
O221	O	-0.104371	0.907785	0.333371
O222	O	0.228963	1.241119	0.666705
C223	C	0.030012	0.677071	0.000048
C224	C	0.363346	1.010404	0.333381
C225	C	0.696679	1.343738	0.666715
C226	C	0.093229	0.676305	0.000034
C227	C	0.426563	1.009638	0.333367
C228	C	0.759896	1.342972	0.666701
C229	C	-0.069389	0.776472	0.000069
C230	C	0.263945	1.109805	0.333403
C231	C	0.597278	1.443138	0.666736
C232	C	-0.070155	0.839689	0.000069
C233	C	0.263179	1.173022	0.333402
C234	C	0.596512	1.506355	0.666736
N235	N	-0.074133	0.672319	0.228238
N236	N	0.259200	1.005652	0.561571
N237	N	0.592533	1.338986	0.894905
N238	N	-0.074133	0.672333	-0.228111
N239	N	0.259200	1.005667	0.105222
N240	N	0.592533	1.339000	0.438556
C241	C	-0.035209	0.711269	0.453959
C242	C	0.298124	1.044602	0.787292
C243	C	0.631457	1.377936	1.120626
C244	C	-0.035208	0.711271	0.546149
C245	C	0.298125	1.044604	0.879482
C246	C	0.631459	1.377938	1.212815
C247	C	-0.113059	0.633379	0.546162
C248	C	0.220274	0.966713	0.879495
C249	C	0.553608	1.300046	1.212829
C250	C	-0.113057	0.633375	0.453974
C251	C	0.220276	0.966709	0.787307
C252	C	0.553610	1.300042	1.120641
C253	C	-0.074133	0.672323	0.407875
C254	C	0.259200	1.005657	0.741208
C255	C	0.592534	1.338990	1.074541
C256	C	-0.074133	0.672329	0.592252
C257	C	0.259200	1.005663	0.925586
C258	C	0.592533	1.338996	1.258919
C259	C	-0.074132	0.672331	0.692209
C260	C	0.259201	1.005664	1.025542
C261	C	0.592534	1.338998	1.358875
C262	C	-0.074133	0.672321	0.307912
C263	C	0.259200	1.005654	0.641246
C264	C	0.592533	1.338988	0.974579
H265	H	0.023984	-0.141954	0.000051
H266	H	0.357317	0.191379	0.333385
H267	H	0.690651	0.524713	0.666718
H268	H	-0.170964	0.378846	0.000071
H269	H	0.162370	0.712179	0.333405
H270	H	0.495703	1.045512	0.666738
C271	C	0.087572	0.131892	0.000050
C272	C	0.420905	0.465225	0.333383
C273	C	0.754239	0.798559	0.666717
H274	H	0.080619	0.091249	0.000045
H275	H	0.413952	0.424582	0.333378
H276	H	0.747286	0.757916	0.666712
H277	H	0.108789	0.144538	0.051119
H278	H	0.442122	0.477871	0.384452
H279	H	0.775455	0.811204	0.717786
H280	H	0.108785	0.144537	-0.051033
H281	H	0.442119	0.477870	0.282300
H282	H	0.775452	0.811203	0.615633
C283	C	-0.234341	0.088014	0.000121
C284	C	0.098993	0.421347	0.333455
C285	C	0.432326	0.754681	0.666788
H286	H	-0.226434	0.049396	0.000127
H287	H	0.106900	0.382730	0.333460
H288	H	0.440233	0.716063	0.666794
H289	H	-0.255793	0.094843	-0.050947
H290	H	0.077540	0.428176	0.282387
H291	H	0.410874	0.761510	0.615720
H292	H	-0.255787	0.094843	0.051206
H293	H	0.077547	0.428177	0.384539
H294	H	0.410880	0.761510	0.717872
H295	H	-0.144754	0.601658	0.416450
H296	H	0.188580	0.934992	0.749783
H297	H	0.521913	1.268325	1.083116
H298	H	-0.367608	0.575489	0.000060
H299	H	-0.034275	0.908822	0.333394
H300	H	0.299059	1.242156	0.666727
H301	H	-0.888406	0.770441	0.000054
H302	H	-0.555073	1.103774	0.333387
H303	H	-0.221740	1.437108	0.666720
H304	H	-0.172252	0.486595	0.000049
H305	H	0.161081	0.819928	0.333382
H306	H	0.494414	1.153261	0.666715
H307	H	-0.003514	0.742982	0.416427
H308	H	0.329819	1.076315	0.749760
H309	H	0.663153	1.409649	1.083094
C310	C	0.007607	0.754110	0.596842
C311	C	0.340940	1.087443	0.930175
C312	C	0.674274	1.420777	1.263508
H313	H	0.002037	0.748532	0.658348
H314	H	0.335371	1.081865	0.991682
H315	H	0.668704	1.415198	1.325015
H316	H	0.001617	0.792082	0.581732
H317	H	0.334950	1.125415	0.915065
H318	H	0.668283	1.458749	1.248398
H319	H	0.045587	0.748136	0.581728
H320	H	0.378920	1.081470	0.915061
H321	H	0.712254	1.414803	1.248394
C322	C	-0.155860	0.590526	0.596870
C323	C	0.177473	0.923860	0.930203
C324	C	0.510806	1.257193	1.263536
H325	H	-0.179033	0.567323	0.556217
H326	H	0.154300	0.900656	0.889551
H327	H	0.487633	1.233989	1.222884
H328	H	-0.179471	0.610862	0.632844
H329	H	0.153862	0.944196	0.966178
H330	H	0.487195	1.277529	1.299511
H331	H	-0.135475	0.566943	0.632819
H332	H	0.197859	0.900276	0.966153
H333	H	0.531192	1.233610	1.299486
H334	H	0.022699	-0.034204	0.000066
H335	H	0.356033	0.299130	0.333399
H336	H	0.689366	0.632463	0.666732
C337	C	-0.253392	0.559269	0.000078
C338	C	0.079942	0.892602	0.333412
C339	C	0.413275	1.225936	0.666745
H340	H	-0.283803	0.528663	0.000064
H341	H	0.049531	0.861996	0.333397
H342	H	0.382864	1.195329	0.666731
H343	H	-0.230518	0.556827	0.051152
H344	H	0.102815	0.890160	0.384485
H345	H	0.436148	1.223493	0.717819
H346	H	-0.230511	0.556836	-0.051000
H347	H	0.102822	0.890169	0.282333
H348	H	0.436156	1.223503	0.615666
H349	H	-0.220904	0.206274	0.000104
H350	H	0.112429	0.539607	0.333438
H351	H	0.445762	0.872940	0.666771
C352	C	0.086080	0.256610	0.000043
C353	C	0.419414	0.589944	0.333376
C354	C	0.752747	0.923277	0.666710
H355	H	0.117310	0.234621	0.000032
H356	H	0.450644	0.567954	0.333365
H357	H	0.783977	0.901287	0.666698
H358	H	0.087972	0.280082	0.051109
H359	H	0.421305	0.613415	0.384442
H360	H	0.754638	0.946749	0.717776
H361	H	0.087961	0.280070	-0.051043
H362	H	0.421295	0.613403	0.282290
H363	H	0.754628	0.946737	0.615624
H364	H	-0.164417	-0.167631	0.000077
H365	H	0.168916	0.165702	0.333410
H366	H	0.502250	0.499035	0.666744
C367	C	0.032383	0.398050	0.000049
C368	C	0.365716	0.731383	0.333382
C369	C	0.699049	1.064716	0.666715
H370	H	0.062988	0.428462	0.000048
H371	H	0.396321	0.761796	0.333381
H372	H	0.729654	1.095129	0.666715
H373	H	0.034823	0.375169	-0.051019
H374	H	0.368156	0.708502	0.282314
H375	H	0.701489	1.041835	0.615647
H376	H	0.034821	0.375177	0.051133
H377	H	0.368154	0.708511	0.384466
H378	H	0.701487	1.041844	0.717799
C379	C	-0.658422	0.512108	0.000042
C380	C	-0.325089	0.845442	0.333375
C381	C	0.008245	1.178775	0.666709
H382	H	-0.636432	0.480878	0.000051
H383	H	-0.303099	0.814211	0.333384
H384	H	0.030234	1.147545	0.666717
H385	H	-0.681889	0.510219	-0.051027
H386	H	-0.348556	0.843553	0.282306
H387	H	-0.015222	1.176886	0.615640
H388	H	-0.681886	0.510225	0.051125
H389	H	-0.348553	0.843558	0.384458
H390	H	-0.015219	1.176892	0.717792
C391	C	0.030884	0.522786	0.000045
C392	C	0.364217	0.856119	0.333378
C393	C	0.697551	1.189453	0.666711
H394	H	0.022968	0.561401	0.000052
H395	H	0.356302	0.894734	0.333385
H396	H	0.689635	1.228067	0.666718
H397	H	0.052339	0.515963	-0.051027
H398	H	0.385672	0.849296	0.282306
H399	H	0.719005	1.182629	0.615639
H400	H	0.052332	0.515961	0.051125
H401	H	0.385665	0.849294	0.384458
H402	H	0.718999	1.182627	0.717791
H403	H	-0.806326	0.580742	0.000041
H404	H	-0.472993	0.914075	0.333375
H405	H	-0.139659	1.247409	0.666708
H406	H	-0.341948	0.763900	0.000087
H407	H	-0.008615	1.097234	0.333421
H408	H	0.324719	1.430567	0.666754
C409	C	-0.533706	0.510615	0.000040
C410	C	-0.200373	0.843948	0.333373
C411	C	0.132960	1.177282	0.666706
H412	H	-0.564121	0.480011	0.000027
H413	H	-0.230787	0.813345	0.333360
H414	H	0.102546	1.146678	0.666694
H415	H	-0.510832	0.508169	0.051111
H416	H	-0.177498	0.841502	0.384444
H417	H	0.155835	1.174835	0.717778
H418	H	-0.510829	0.508180	-0.051041
H419	H	-0.177495	0.841514	0.282292
H420	H	0.155838	1.174847	0.615625
H421	H	-0.165712	-0.059864	0.000083
H422	H	0.167621	0.273470	0.333416
H423	H	0.500955	0.606803	0.666749
C424	C	-0.770150	0.783885	0.000051
C425	C	-0.436816	1.117219	0.333384
C426	C	-0.103483	1.450552	0.666717
H427	H	-0.792137	0.815117	0.000062
H428	H	-0.458803	1.148451	0.333395
H429	H	-0.125470	1.481784	0.666729
H430	H	-0.746678	0.785775	-0.051019
H431	H	-0.413345	1.119109	0.282314
H432	H	-0.080012	1.452442	0.615648
H433	H	-0.746689	0.785764	0.051133
H434	H	-0.413356	1.119097	0.384466
H435	H	-0.080023	1.452431	0.717800
C436	C	-0.924595	0.567303	0.000023
C437	C	-0.591262	0.900636	0.333356
C438	C	-0.257929	1.233970	0.666690
H439	H	-0.902618	0.536063	0.000028
H440	H	-0.569285	0.869397	0.333361
H441	H	-0.235951	1.202730	0.666695
H442	H	-0.948057	0.565428	-0.051051
H443	H	-0.614724	0.898762	0.282282
H444	H	-0.281390	1.232095	0.615615
H445	H	-0.948064	0.565422	0.051101
H446	H	-0.614731	0.898756	0.384434
H447	H	-0.281397	1.232089	0.717767
H448	H	-0.234180	0.762605	0.000093
H449	H	0.099153	1.095939	0.333426
H450	H	0.432487	1.429272	0.666759
C451	C	-0.614549	0.834030	0.000017
C452	C	-0.281215	1.167363	0.333350
C453	C	0.052118	1.500696	0.666683
H454	H	-0.584133	0.864632	0.000006
H455	H	-0.250800	1.197965	0.333340
H456	H	0.082533	1.531299	0.666673
H457	H	-0.637431	0.836477	0.051084
H458	H	-0.304098	1.169810	0.384417
H459	H	0.029236	1.503143	0.717750
H460	H	-0.637418	0.836465	-0.051069
H461	H	-0.304085	1.169798	0.282265
H462	H	0.029248	1.503131	0.615598
H463	H	-0.500336	0.817798	0.000026
H464	H	-0.167003	1.151132	0.333359
H465	H	0.166330	1.484465	0.666692
