data_functionalizedCrystal
_audit_creation_method	'MofGen! by Chris Wilmer'
_symmetry_space_group_name_H-M	'P1'
_symmetry_Int_Tables_number	1
_symmetry_cell_setting	triclinic
loop_
_symmetry_equiv_pos_as_xyz
  x,y,z
_cell_length_a	29.839131
_cell_length_b	29.839134
_cell_length_c	29.839125
_cell_angle_alpha	90.026045
_cell_angle_beta	89.982291
_cell_angle_gamma	89.966214
loop_
_atom_site_label
_atom_site_type_symbol
_atom_site_fract_x
_atom_site_fract_y
_atom_site_fract_z
Zn1	Zn	-0.179008	-0.686720	-0.254174
Zn2	Zn	0.320992	-0.186720	0.245826
Zn3	Zn	-0.254120	-0.686652	-0.179044
Zn4	Zn	0.245880	-0.186652	0.320956
Zn5	Zn	-0.178995	-0.611602	-0.179038
Zn6	Zn	0.321005	-0.111602	0.320962
Zn7	Zn	-0.254101	-0.611550	-0.254127
Zn8	Zn	0.245899	-0.111550	0.245873
O9	O	-0.216556	-0.649131	-0.216596
O10	O	0.283444	-0.149131	0.283404
O11	O	-0.188985	-0.749578	-0.244230
O12	O	0.311015	-0.249578	0.255770
O13	O	-0.244156	-0.676690	-0.116176
O14	O	0.255844	-0.176690	0.383824
O15	O	-0.116129	-0.621617	-0.189022
O16	O	0.383871	-0.121617	0.310978
O17	O	-0.244169	-0.749528	-0.189032
O18	O	0.255831	-0.249528	0.310968
O19	O	-0.116139	-0.676805	-0.244224
O20	O	0.383861	-0.176805	0.255776
O21	O	-0.188962	-0.621551	-0.116172
O22	O	0.311038	-0.121551	0.383828
O23	O	-0.188945	-0.548728	-0.188977
O24	O	0.311055	-0.048728	0.311023
O25	O	-0.244138	-0.621528	-0.317000
O26	O	0.255862	-0.121528	0.183000
O27	O	-0.244125	-0.548690	-0.244144
O28	O	0.255875	-0.048690	0.255856
O29	O	-0.188967	-0.676755	-0.317035
O30	O	0.311033	-0.176755	0.182965
O31	O	-0.316985	-0.676639	-0.188986
O32	O	0.183015	-0.176639	0.311014
O33	O	-0.316971	-0.621462	-0.244150
O34	O	0.183029	-0.121462	0.255850
C35	C	-0.216532	-0.532408	-0.216555
C36	C	0.283468	-0.032408	0.283445
C37	C	-0.216532	-0.482474	-0.216548
C38	C	0.283468	0.017526	0.283452
C39	C	-0.187777	-0.125894	-0.187913
C40	C	0.312223	0.374106	0.312087
C41	C	-0.187766	-0.313567	-0.187891
C42	C	0.312234	0.186433	0.312109
O43	O	-0.163282	-0.337838	-0.163512
O44	O	0.336718	0.162162	0.336488
N45	N	-0.216539	-0.337029	-0.216566
N46	N	0.283461	0.162971	0.283434
C47	C	-0.245314	-0.313569	-0.245251
C48	C	0.254686	0.186431	0.254749
O49	O	-0.269783	-0.337831	-0.269644
O50	O	0.230217	0.162169	0.230356
C51	C	-0.245323	-0.125897	-0.245275
C52	C	0.254677	0.374103	0.254725
C53	C	-0.216552	-0.102438	-0.216594
C54	C	0.283448	0.397562	0.283406
C55	C	-0.159008	-0.102435	-0.159235
C56	C	0.340992	0.397565	0.340765
C57	C	-0.159013	-0.055520	-0.159239
C58	C	0.340987	0.444480	0.340761
C59	C	-0.187787	-0.032063	-0.187921
C60	C	0.312213	0.467937	0.312079
C61	C	-0.216556	-0.055522	-0.216598
C62	C	0.283444	0.444478	0.283402
C63	C	-0.274096	-0.102438	-0.273961
C64	C	0.225904	0.397562	0.226039
C65	C	-0.274095	-0.055517	-0.273965
C66	C	0.225905	0.444483	0.226035
C67	C	-0.245323	-0.032058	-0.245285
C68	C	0.254677	0.467942	0.254715
C69	C	-0.245336	0.014849	-0.245284
C70	C	0.254664	0.514849	0.254716
N71	N	-0.216563	0.038311	-0.216609
N72	N	0.283437	0.538311	0.283391
C73	C	-0.187789	0.014854	-0.187927
C74	C	0.312211	0.514854	0.312073
C75	C	-0.245308	-0.412100	-0.245236
C76	C	0.254692	0.087900	0.254764
C77	C	-0.245306	-0.459018	-0.245230
C78	C	0.254694	0.040982	0.254770
C79	C	-0.187758	-0.459013	-0.187870
C80	C	0.312242	0.040987	0.312130
C81	C	-0.187762	-0.412094	-0.187875
C82	C	0.312238	0.087906	0.312125
C83	C	-0.216535	-0.388638	-0.216561
C84	C	0.283465	0.111362	0.283439
C85	C	-0.187801	0.113380	-0.187937
C86	C	0.312199	0.613380	0.312063
C87	C	-0.187810	0.160300	-0.187942
C88	C	0.312190	0.660300	0.312058
C89	C	-0.245357	0.160291	-0.245303
C90	C	0.254643	0.660291	0.254697
C91	C	-0.245350	0.113375	-0.245297
C92	C	0.254650	0.613375	0.254703
C93	C	-0.216569	0.089921	-0.216612
C94	C	0.283431	0.589921	0.283388
O95	O	-0.269803	0.039149	-0.269653
O96	O	0.230197	0.539149	0.230347
O97	O	-0.163316	0.039124	-0.163545
O98	O	0.336684	0.539124	0.336455
C99	C	-0.187773	-0.172810	-0.187909
C100	C	0.312227	0.327190	0.312091
C101	C	-0.216542	-0.196269	-0.216586
C102	C	0.283458	0.303731	0.283414
C103	C	-0.245316	-0.172812	-0.245268
C104	C	0.254684	0.327188	0.254732
C105	C	-0.216540	-0.243187	-0.216580
C106	C	0.283460	0.256813	0.283420
C107	C	-0.187766	-0.266643	-0.187898
C108	C	0.312234	0.233357	0.312102
C109	C	-0.158994	-0.243182	-0.159223
C110	C	0.341006	0.256818	0.340777
C111	C	-0.158998	-0.196266	-0.159227
C112	C	0.341002	0.303734	0.340773
C113	C	-0.274089	-0.196274	-0.273943
C114	C	0.225911	0.303726	0.226057
C115	C	-0.274082	-0.243189	-0.273936
C116	C	0.225918	0.256811	0.226064
C117	C	-0.245308	-0.266646	-0.245255
C118	C	0.254692	0.233354	0.254745
C119	C	-0.333279	-0.649050	-0.216573
C120	C	0.166721	-0.149050	0.283427
C121	C	-0.383213	-0.649056	-0.216579
C122	C	0.116787	-0.149056	0.283421
C123	C	-0.692851	-0.677914	-0.187914
C124	C	-0.192851	-0.177914	0.312086
C125	C	-0.880524	-0.677969	-0.187931
C126	C	-0.380524	-0.177969	0.312069
O127	O	-0.904784	-0.702441	-0.163543
O128	O	-0.404784	-0.202441	0.336457
N129	N	-0.903998	-0.649224	-0.216629
N130	N	-0.403998	-0.149224	0.283371
C131	C	-0.880551	-0.620465	-0.245327
C132	C	-0.380551	-0.120465	0.254673
O133	O	-0.904824	-0.596020	-0.269740
O134	O	-0.404824	-0.096020	0.230260
C135	C	-0.692879	-0.620412	-0.245312
C136	C	-0.192879	-0.120412	0.254688
C137	C	-0.669407	-0.649156	-0.216609
C138	C	-0.169407	-0.149156	0.283391
C139	C	-0.669379	-0.706656	-0.159214
C140	C	-0.169379	-0.206656	0.340786
C141	C	-0.622463	-0.706640	-0.159208
C142	C	-0.122463	-0.206640	0.340792
C143	C	-0.599020	-0.677882	-0.187902
C144	C	-0.099020	-0.177882	0.312098
C145	C	-0.622492	-0.649140	-0.216603
C146	C	-0.122492	-0.149140	0.283397
C147	C	-0.669433	-0.591656	-0.274011
C148	C	-0.169433	-0.091656	0.225989
C149	C	-0.622512	-0.591646	-0.274006
C150	C	-0.122512	-0.091646	0.225994
C151	C	-0.599040	-0.620390	-0.245303
C152	C	-0.099040	-0.120390	0.254697
C153	C	-0.552133	-0.620367	-0.245292
C154	C	-0.052133	-0.120367	0.254708
N155	N	-0.528658	-0.649112	-0.216594
N156	N	-0.028658	-0.149112	0.283406
C157	C	-0.552102	-0.677869	-0.187899
C158	C	-0.052102	-0.177869	0.312101
C159	C	-0.979082	-0.620494	-0.245333
C160	C	-0.479082	-0.120494	0.254667
C161	C	-1.026000	-0.620507	-0.245336
C162	C	-0.526000	-0.120507	0.254664
C163	C	-1.025969	-0.678012	-0.187941
C164	C	-0.525969	-0.178012	0.312059
C165	C	-0.979050	-0.677996	-0.187936
C166	C	-0.479050	-0.177996	0.312064
C167	C	-0.955607	-0.649239	-0.216635
C168	C	-0.455607	-0.149239	0.283365
C169	C	-0.453576	-0.677834	-0.187889
C170	C	0.046424	-0.177834	0.312111
C171	C	-0.406657	-0.677814	-0.187884
C172	C	0.093343	-0.177814	0.312116
C173	C	-0.406691	-0.620311	-0.245281
C174	C	0.093309	-0.120311	0.254719
C175	C	-0.453607	-0.620329	-0.245284
C176	C	0.046393	-0.120329	0.254716
C177	C	-0.477048	-0.649094	-0.216586
C178	C	0.022952	-0.149094	0.283414
O179	O	-0.527844	-0.595912	-0.269671
O180	O	-0.027844	-0.095912	0.230329
O181	O	-0.527821	-0.702318	-0.163497
O182	O	-0.027821	-0.202318	0.336503
C183	C	-0.739766	-0.677930	-0.187920
C184	C	-0.239766	-0.177930	0.312080
C185	C	-0.763238	-0.649188	-0.216620
C186	C	-0.263238	-0.149188	0.283380
C187	C	-0.739794	-0.620430	-0.245315
C188	C	-0.239794	-0.120430	0.254685
C189	C	-0.810156	-0.649200	-0.216624
C190	C	-0.310156	-0.149200	0.283376
C191	C	-0.833599	-0.677958	-0.187929
C192	C	-0.333599	-0.177958	0.312071
C193	C	-0.810125	-0.706703	-0.159231
C194	C	-0.310125	-0.206703	0.340769
C195	C	-0.763210	-0.706687	-0.159225
C196	C	-0.263210	-0.206687	0.340775
C197	C	-0.763269	-0.591685	-0.274013
C198	C	-0.263269	-0.091685	0.225987
C199	C	-0.810184	-0.591703	-0.274016
C200	C	-0.310184	-0.091703	0.225984
C201	C	-0.833628	-0.620461	-0.245321
C202	C	-0.333628	-0.120461	0.254679
C203	C	-0.099378	-0.649225	-0.216628
C204	C	0.400622	-0.149225	0.283372
C205	C	-0.049443	-0.649265	-0.216641
C206	C	0.450557	-0.149265	0.283359
C207	C	-0.216552	-0.649143	-0.333774
C208	C	0.283448	-0.149143	0.166226
C209	C	-0.216550	-0.649148	-0.383708
C210	C	0.283450	-0.149148	0.116292
C211	C	-0.216579	0.233691	-0.216629
C212	C	0.283421	0.733691	0.283371
C213	C	-0.216584	0.183756	-0.216624
C214	C	0.283416	0.683756	0.283376
C215	C	-0.187747	-0.677935	-0.693373
C216	C	0.312253	-0.177935	-0.193373
C217	C	-0.187709	-0.677957	-0.881046
C218	C	0.312291	-0.177957	-0.381046
O219	O	-0.163262	-0.702399	-0.905329
O220	O	0.336738	-0.202399	-0.405329
N221	N	-0.216430	-0.649208	-0.904494
N222	N	0.283570	-0.149208	-0.404494
C223	C	-0.245160	-0.620449	-0.881020
C224	C	0.254840	-0.120449	-0.381020
O225	O	-0.269585	-0.595993	-0.905270
O226	O	0.230415	-0.095993	-0.405270
C227	C	-0.245196	-0.620424	-0.693348
C228	C	0.254804	-0.120424	-0.193348
C229	C	-0.216476	-0.649179	-0.669903
C230	C	0.283524	-0.149179	-0.169903
C231	C	-0.159030	-0.706687	-0.669928
C232	C	0.340970	-0.206687	-0.169928
C233	C	-0.159042	-0.706683	-0.623012
C234	C	0.340958	-0.206683	-0.123012
C235	C	-0.187771	-0.677927	-0.599542
C236	C	0.312229	-0.177927	-0.099542
C237	C	-0.216488	-0.649175	-0.622987
C238	C	0.283512	-0.149175	-0.122987
C239	C	-0.273924	-0.591663	-0.669875
C240	C	0.226076	-0.091663	-0.169875
C241	C	-0.273929	-0.591659	-0.622954
C242	C	0.226071	-0.091659	-0.122954
C243	C	-0.245210	-0.620414	-0.599509
C244	C	0.254790	-0.120414	-0.099509
C245	C	-0.245229	-0.620415	-0.552602
C246	C	0.254771	-0.120415	-0.052602
N247	N	-0.216508	-0.649164	-0.529154
N248	N	0.283492	-0.149164	-0.029154
C249	C	-0.187779	-0.677920	-0.552624
C250	C	0.312221	-0.177920	-0.052624
C251	C	-0.245140	-0.620464	-0.979551
C252	C	0.254860	-0.120464	-0.479551
C253	C	-0.245132	-0.620471	-1.026469
C254	C	0.254868	-0.120471	-0.526469
C255	C	-0.187680	-0.677979	-1.026491
C256	C	0.312320	-0.177979	-0.526491
C257	C	-0.187691	-0.677974	-0.979573
C258	C	0.312309	-0.177974	-0.479573
C259	C	-0.216419	-0.649214	-0.956103
C260	C	0.283581	-0.149214	-0.456103
C261	C	-0.187806	-0.677910	-0.454098
C262	C	0.312194	-0.177910	0.045902
C263	C	-0.187821	-0.677904	-0.407179
C264	C	0.312179	-0.177904	0.092821
C265	C	-0.245271	-0.620395	-0.407160
C266	C	0.254729	-0.120395	0.092840
C267	C	-0.245257	-0.620402	-0.454076
C268	C	0.254743	-0.120402	0.045924
C269	C	-0.216521	-0.649161	-0.477543
C270	C	0.283479	-0.149161	0.022457
O271	O	-0.269659	-0.595982	-0.528290
O272	O	0.230341	-0.095982	-0.028290
O273	O	-0.163351	-0.702366	-0.528366
O274	O	0.336649	-0.202366	-0.028366
C275	C	-0.187736	-0.677939	-0.740288
C276	C	0.312264	-0.177939	-0.240288
C277	C	-0.216453	-0.649187	-0.763734
C278	C	0.283547	-0.149187	-0.263734
C279	C	-0.245182	-0.620431	-0.740263
C280	C	0.254818	-0.120431	-0.240263
C281	C	-0.216445	-0.649194	-0.810651
C282	C	0.283555	-0.149194	-0.310651
C283	C	-0.187716	-0.677950	-0.834122
C284	C	0.312284	-0.177950	-0.334122
C285	C	-0.158995	-0.706699	-0.810674
C286	C	0.341005	-0.206699	-0.310674
C287	C	-0.159007	-0.706695	-0.763759
C288	C	0.340993	-0.206695	-0.263759
C289	C	-0.273903	-0.591682	-0.763711
C290	C	0.226097	-0.091682	-0.263711
C291	C	-0.273889	-0.591689	-0.810627
C292	C	0.226111	-0.091689	-0.310627
C293	C	-0.245160	-0.620445	-0.834097
C294	C	0.254840	-0.120445	-0.334097
C295	C	-0.216528	-0.649145	-0.099873
C296	C	0.283472	-0.149145	0.400127
C297	C	-0.216403	-0.649227	-0.049939
C298	C	0.283597	-0.149227	0.450061
H299	H	-0.268740	-0.478114	-0.268579
H300	H	0.231260	0.021886	0.231421
H301	H	-0.297515	-0.262286	-0.297291
H302	H	0.202485	0.237714	0.202709
H303	H	-0.135584	-0.036424	-0.135885
H304	H	0.364416	0.463576	0.364115
H305	H	-0.829221	-0.730117	-0.135866
H306	H	-0.329221	-0.230117	0.364134
H307	H	-0.135569	-0.177170	-0.135873
H308	H	0.364431	0.322830	0.364127
H309	H	-0.297520	-0.177180	-0.297300
H310	H	0.202480	0.322820	0.202700
H311	H	-0.297310	-0.568248	-0.688956
H312	H	0.202690	-0.068248	-0.188956
H313	H	-0.387596	-0.596895	-0.268642
H314	H	0.112404	-0.096895	0.231358
H315	H	-0.297525	-0.121530	-0.297316
H316	H	0.202475	0.378470	0.202684
H317	H	-1.045065	-0.701427	-0.164577
H318	H	-0.545065	-0.201427	0.335423
H319	H	-0.744102	-0.730093	-0.135853
H320	H	-0.244102	-0.230093	0.364147
H321	H	-0.268647	-0.596991	-0.473166
H322	H	0.231353	-0.096991	0.026834
H323	H	-0.688462	-0.730076	-0.135847
H324	H	-0.188462	-0.230076	0.364153
H325	H	-0.959942	-0.701402	-0.164563
H326	H	-0.459942	-0.201402	0.335437
H327	H	-0.744185	-0.568268	-0.297380
H328	H	-0.244185	-0.068268	0.202620
H329	H	-0.297319	-0.568233	-0.603848
H330	H	0.202681	-0.068233	-0.103848
H331	H	-0.164434	-0.701321	-0.388092
H332	H	0.335566	-0.201321	0.111908
H333	H	-0.164380	0.179398	-0.164586
H334	H	0.335620	0.679398	0.335414
H335	H	-0.297525	-0.036422	-0.297327
H336	H	0.202475	0.463578	0.202673
H337	H	-0.164304	-0.701388	-0.960487
H338	H	0.335696	-0.201388	-0.460487
H339	H	-0.268741	-0.393007	-0.268597
H340	H	0.231259	0.106993	0.231403
H341	H	-0.268663	-0.596984	-0.388042
H342	H	0.231337	-0.096984	0.111958
H343	H	-0.135566	-0.262288	-0.135868
H344	H	0.364434	0.237712	0.364132
H345	H	-0.135620	-0.730110	-0.744674
H346	H	0.364380	-0.230110	-0.244674
H347	H	-0.829291	-0.568292	-0.297389
H348	H	-0.329291	-0.068292	0.202611
H349	H	-0.135604	-0.730115	-0.829792
H350	H	0.364396	-0.230115	-0.329792
H351	H	-0.297281	-0.568274	-0.829712
H352	H	0.202719	-0.068274	-0.329712
H353	H	-0.164404	-0.701327	-0.473200
H354	H	0.335596	-0.201327	0.026800
H355	H	-0.135654	-0.730097	-0.603927
H356	H	0.364346	-0.230097	-0.103927
H357	H	-0.268782	0.094274	-0.268647
H358	H	0.231218	0.594274	0.231353
H359	H	-0.472718	-0.596925	-0.268658
H360	H	0.027282	-0.096925	0.231342
H361	H	-1.045106	-0.597097	-0.268705
H362	H	-0.545106	-0.097097	0.231295
H363	H	-0.135633	-0.730104	-0.689032
H364	H	0.364367	-0.230104	-0.189032
H365	H	-0.297299	-0.568265	-0.744606
H366	H	0.202701	-0.068265	-0.244606
H367	H	-0.268523	-0.597061	-1.045554
H368	H	0.231477	-0.097061	-0.545554
H369	H	-0.164288	-0.701393	-1.045609
H370	H	0.335712	-0.201393	-0.545609
H371	H	-0.164363	0.094290	-0.164582
H372	H	0.335637	0.594290	0.335418
H373	H	-0.164332	-0.392997	-0.164522
H374	H	0.335668	0.107003	0.335478
H375	H	-0.135574	-0.121528	-0.135879
H376	H	0.364426	0.378472	0.364121
H377	H	-0.164329	-0.478119	-0.164516
H378	H	0.335671	0.021881	0.335484
H379	H	-0.688536	-0.568248	-0.297382
H380	H	-0.188536	-0.068248	0.202618
H381	H	-0.268786	0.179397	-0.268653
H382	H	0.231214	0.679397	0.231347
H383	H	-0.268537	-0.597044	-0.960446
H384	H	0.231463	-0.097044	-0.460446
H385	H	-0.387547	-0.701220	-0.164509
H386	H	0.112453	-0.201220	0.335491
H387	H	-0.603355	-0.730047	-0.135837
H388	H	-0.103355	-0.230047	0.364163
H389	H	-0.472656	-0.701258	-0.164521
H390	H	0.027344	-0.201258	0.335479
H391	H	-0.959998	-0.597076	-0.268704
H392	H	-0.459998	-0.097076	0.231296
H393	H	-0.603427	-0.568229	-0.297377
H394	H	-0.103427	-0.068229	0.202623
