data_functionalizedCrystal
_audit_creation_method	'MofGen! by Chris Wilmer'
_symmetry_space_group_name_H-M	'P1'
_symmetry_Int_Tables_number	1
_symmetry_cell_setting	triclinic
loop_
_symmetry_equiv_pos_as_xyz
  x,y,z
_cell_length_a	10.686220
_cell_length_b	29.839131
_cell_length_c	29.839125
_cell_angle_alpha	89.974637
_cell_angle_beta	94.357517
_cell_angle_gamma	94.417877
loop_
_atom_site_label
_atom_site_type_symbol
_atom_site_fract_x
_atom_site_fract_y
_atom_site_fract_z
Zn1	Zn	1.928899	-0.126150	-0.201375
Zn2	Zn	1.928732	-0.201267	-0.126239
Zn3	Zn	1.717912	-0.131919	-0.132012
Zn4	Zn	1.717788	-0.207029	-0.207094
O5	O	1.823333	-0.166591	-0.166680
O6	O	2.105457	-0.131289	-0.186599
O7	O	1.900748	-0.192070	-0.064138
O8	O	1.746022	-0.068283	-0.141235
O9	O	2.105334	-0.186477	-0.131397
O10	O	1.901034	-0.064045	-0.192196
O11	O	1.745859	-0.141120	-0.068379
O12	O	1.541315	-0.146708	-0.146781
O13	O	1.745810	-0.196297	-0.269202
O14	O	1.541224	-0.201891	-0.201943
O15	O	1.900913	-0.136876	-0.265000
O16	O	1.900627	-0.264901	-0.136943
O17	O	1.745648	-0.269135	-0.196346
C18	C	1.495484	-0.175551	-0.175609
C19	C	1.355230	-0.179395	-0.179440
C20	C	1.823140	-0.283319	-0.166647
C21	C	1.823173	-0.333252	-0.166645
C22	C	1.904030	-0.640650	-0.193257
C23	C	1.904167	-0.828319	-0.193280
O24	O	1.972725	-0.850680	-0.215883
N25	N	1.823547	-0.854027	-0.166724
C26	C	1.742881	-0.832815	-0.140163
O27	O	1.674303	-0.858987	-0.117579
C28	C	1.742739	-0.645147	-0.140142
C29	C	1.823373	-0.619441	-0.166696
C30	C	1.984656	-0.614945	-0.219809
C31	C	1.984626	-0.568030	-0.219801
C32	C	1.903969	-0.546821	-0.193241
C33	C	1.823343	-0.572526	-0.166688
C34	C	1.662068	-0.623936	-0.113583
C35	C	1.662037	-0.577015	-0.113581
C36	C	1.742671	-0.551310	-0.140136
C37	C	1.742656	-0.504403	-0.140120
N38	N	1.823276	-0.478695	-0.166676
C39	C	1.903932	-0.499904	-0.193236
C40	C	1.742964	-0.931343	-0.140174
C41	C	1.743000	-0.978260	-0.140179
C42	C	1.904284	-0.973761	-0.193297
C43	C	1.904253	-0.926844	-0.193290
C44	C	1.823583	-0.905636	-0.166730
C45	C	1.903864	-0.401380	-0.193217
C46	C	1.903830	-0.354462	-0.193206
C47	C	1.742542	-0.358964	-0.140090
C48	C	1.742580	-0.405879	-0.140099
C49	C	1.823245	-0.427086	-0.166667
O50	O	1.674123	-0.482012	-0.117533
O51	O	1.972480	-0.473724	-0.215824
C52	C	1.904060	-0.687565	-0.193265
C53	C	1.823433	-0.713270	-0.166712
C54	C	1.742777	-0.692061	-0.140152
C55	C	1.823470	-0.760187	-0.166717
C56	C	1.904127	-0.781396	-0.193277
C57	C	1.984747	-0.755689	-0.219833
C58	C	1.984716	-0.708774	-0.219825
C59	C	1.662157	-0.717769	-0.113596
C60	C	1.662195	-0.764683	-0.113606
C61	C	1.742851	-0.785892	-0.140166
C62	C	2.152461	-0.157596	-0.157716
C63	C	2.292716	-0.153764	-0.153896
C64	C	1.823367	-0.166586	-0.283857
C65	C	1.823381	-0.166584	-0.333791
C66	C	1.823560	-0.049406	-0.166722
C67	C	1.823657	0.000531	-0.166739
C68	C	1.904228	-0.135566	-0.641248
C69	C	1.904291	-0.135526	-0.828919
O70	O	1.972936	-0.109198	-0.851327
N71	N	1.823549	-0.166459	-0.854572
C72	C	1.742779	-0.197403	-0.833305
O73	O	1.674095	-0.223709	-0.859431
C74	C	1.742711	-0.197440	-0.645634
C75	C	1.823468	-0.166508	-0.619983
C76	C	1.984977	-0.104635	-0.615597
C77	C	1.984966	-0.104647	-0.568682
C78	C	1.904205	-0.135590	-0.547417
C79	C	1.823456	-0.166520	-0.573068
C80	C	1.661936	-0.228381	-0.624368
C81	C	1.661924	-0.228387	-0.577447
C82	C	1.742681	-0.197455	-0.551796
C83	C	1.742684	-0.197474	-0.504889
N84	N	1.823426	-0.166540	-0.479236
C85	C	1.904187	-0.135598	-0.500500
C86	C	1.742822	-0.197381	-0.931834
C87	C	1.742841	-0.197373	-0.978752
C88	C	1.904351	-0.135495	-0.974363
C89	C	1.904338	-0.135506	-0.927445
C90	C	1.823565	-0.166448	-0.906181
C91	C	1.904157	-0.135626	-0.401975
C92	C	1.904142	-0.135642	-0.355056
C93	C	1.742627	-0.197518	-0.359449
C94	C	1.742647	-0.197504	-0.406364
C95	C	1.823416	-0.166554	-0.427626
O96	O	1.674065	-0.223784	-0.482451
O97	O	1.972841	-0.109289	-0.474367
C98	C	1.904240	-0.135554	-0.688163
C99	C	1.823491	-0.166484	-0.713814
C100	C	1.742730	-0.197426	-0.692549
C101	C	1.823509	-0.166475	-0.760731
C102	C	1.904270	-0.135533	-0.781995
C103	C	1.985012	-0.104600	-0.756343
C104	C	1.985001	-0.104612	-0.709427
C105	C	1.661988	-0.228360	-0.718202
C106	C	1.662007	-0.228345	-0.765117
C107	C	1.742768	-0.197403	-0.786382
C108	C	1.823371	-0.166562	-0.049956
C109	C	1.823601	-0.166430	-0.000016
H110	H	1.346494	-0.128879	-0.129096
F111	F	1.989658	-0.327106	-0.221469
H112	H	1.301445	-0.204284	-0.204239
H113	H	2.050743	-0.079436	-0.632905
H114	H	1.969911	-0.905917	-0.214913
F115	F	1.989718	-0.423943	-0.221493
F116	F	2.070441	-0.540678	-0.248067
H117	H	2.050336	-0.632208	-0.241440
H118	H	1.969960	-0.991038	-0.214923
F119	F	1.657195	-1.005613	-0.111910
H120	H	2.050775	-0.079407	-0.773664
H121	H	1.677271	-0.914079	-0.118546
F122	F	1.576241	-0.651284	-0.085321
F123	F	1.576174	-0.554447	-0.085313
F124	F	1.990115	-0.102684	-0.424597
H125	H	1.676931	-0.426809	-0.118473
H126	H	1.676876	-0.341689	-0.118463
F127	F	2.070592	-0.778269	-0.248099
F128	F	2.070538	-0.681422	-0.248088
H129	H	1.596535	-0.785609	-0.091978
H130	H	1.596475	-0.700504	-0.091968
H131	H	1.969908	-0.110452	-0.334173
F132	F	2.070912	-0.071722	-0.541388
H133	H	1.970095	-0.110317	-0.906562
F134	F	1.990303	-0.102564	-0.997002
F135	F	1.656705	-0.230428	-0.433664
F136	F	1.656906	-0.230301	-1.006046
H137	H	1.677047	-0.222581	-0.914526
F138	F	1.575986	-0.261306	-0.651657
H139	H	1.596133	-0.253580	-0.560138
F140	F	1.656679	-0.230446	-0.336809
F141	F	2.070953	-0.071688	-0.682133
H142	H	1.596247	-0.253539	-0.785998
H143	H	1.596223	-0.253557	-0.700894
