data_functionalizedCrystal
_audit_creation_method	'MofGen! by Chris Wilmer'
_symmetry_space_group_name_H-M	'P1'
_symmetry_Int_Tables_number	1
_symmetry_cell_setting	triclinic
loop_
_symmetry_equiv_pos_as_xyz
  x,y,z
_cell_length_a	13.635800
_cell_length_b	13.167930
_cell_length_c	19.551833
_cell_angle_alpha	79.622542
_cell_angle_beta	101.663477
_cell_angle_gamma	74.245432
loop_
_atom_site_label
_atom_site_type_symbol
_atom_site_fract_x
_atom_site_fract_y
_atom_site_fract_z
V1	V	2.012470	-0.150073	0.227588
O2	O	1.996747	0.006050	0.213319
O3	O	1.997368	-0.296452	0.235589
O4	O	1.983705	-0.148274	0.322487
O5	O	2.010505	-0.143154	0.125819
V6	V	2.253696	-0.131338	0.214255
O7	O	2.144273	-0.191168	0.256836
O8	O	2.346992	-0.090243	0.185007
O9	O	2.157195	0.015041	0.206254
O10	O	2.328118	-0.287461	0.228524
O11	O	2.314360	-0.138257	0.316024
O12	O	2.170858	-0.133137	0.119356
V13	V	2.512470	-0.150073	0.227588
O14	O	2.496747	0.006050	0.213319
O15	O	2.497368	-0.296452	0.235589
O16	O	2.483705	-0.148274	0.322487
O17	O	2.510505	-0.143154	0.125819
V18	V	2.753696	-0.131338	0.214255
O19	O	2.644273	-0.191168	0.256836
O20	O	2.846992	-0.090243	0.185007
O21	O	2.657195	0.015041	0.206254
O22	O	2.828118	-0.287461	0.228524
O23	O	2.814360	-0.138257	0.316024
O24	O	2.670858	-0.133137	0.119356
C25	C	1.922230	-0.332120	0.234465
C26	C	1.950495	-0.451791	0.241639
C27	C	1.967430	-0.645255	0.125094
C28	C	1.993987	-0.757695	0.131832
C29	C	2.030174	-0.789113	0.261850
C30	C	2.003617	-0.676673	0.255113
C31	C	1.972244	-0.604747	0.186733
C32	C	1.945679	-0.492305	0.179996
C33	C	1.981874	-0.523725	0.310014
C34	C	2.008431	-0.636165	0.316751
C35	C	1.904801	-0.143103	0.345311
C36	C	1.921984	-0.142601	0.422954
C37	C	2.064005	0.050703	0.207377
C38	C	2.025358	0.170373	0.200207
C39	C	2.081434	-0.138312	0.096529
C40	C	2.053869	-0.138808	0.018885
C41	C	2.422230	-0.332120	0.234465
C42	C	2.450495	-0.451791	0.241639
C43	C	2.404801	-0.143103	0.345311
C44	C	2.421984	-0.142601	0.422954
C45	C	2.021280	-0.147768	0.463336
C46	C	2.037426	-0.147297	0.536290
C47	C	1.954276	-0.141679	0.568862
C48	C	1.854965	-0.136504	0.528469
C49	C	1.838819	-0.136965	0.455515
C50	C	1.926513	-0.200212	0.691969
C51	C	1.942665	-0.199758	0.764923
C52	C	2.004071	-0.140252	0.793876
C53	C	2.049345	-0.081215	0.749869
C54	C	2.033199	-0.081676	0.676915
C55	C	1.971774	-0.141178	0.647968
C56	C	2.120880	-0.144907	0.913364
C57	C	2.137021	-0.144428	0.986318
C58	C	1.954560	-0.133647	0.978498
C59	C	1.938419	-0.134114	0.905543
C60	C	2.021585	-0.139750	0.872982
C61	C	2.564005	0.050703	0.207377
C62	C	2.525358	0.170373	0.200207
C63	C	2.581434	-0.138312	0.096529
C64	C	2.553869	-0.138808	0.018885
C65	C	2.555013	-0.513496	0.248856
C66	C	2.581589	-0.625943	0.255608
C67	C	2.503644	-0.676680	0.255137
C68	C	2.399118	-0.614967	0.247921
C69	C	2.372545	-0.502524	0.241175
C70	C	2.521285	-0.147751	0.463326
C71	C	2.537441	-0.147265	0.536278
C72	C	2.454297	-0.141636	0.568858
C73	C	2.354988	-0.136483	0.528479
C74	C	2.338831	-0.136961	0.455527
C75	C	2.593334	0.232078	0.192992
C76	C	2.557030	0.344523	0.186244
C77	C	2.452752	0.395260	0.186716
C78	C	2.384771	0.333548	0.193930
C79	C	2.421073	0.221105	0.200673
C80	C	2.454781	-0.144424	-0.013677
C81	C	2.428862	-0.144878	-0.086634
C82	C	2.502037	-0.139724	-0.127026
C83	C	2.601132	-0.134104	-0.094459
C84	C	2.627046	-0.133643	-0.021506
H85	H	1.920127	-0.433743	0.124317
Br86	Br	2.134146	-0.155413	0.419148
H87	H	2.660703	-0.129905	-0.127358
H88	H	1.787264	-0.131927	0.554994
Br89	Br	1.924830	-0.547635	0.032295
Br90	Br	1.987460	-0.812667	0.048176
Br91	Br	2.466851	-0.140354	-0.226035
H92	H	1.985789	-0.490733	0.360205
H93	H	2.118289	-0.151511	0.569177
H94	H	2.612398	0.394754	0.180372
H95	H	2.395185	-0.148621	0.019201
Br96	Br	2.204058	-0.129984	0.400746
H97	H	2.666703	-0.676174	0.261480
H98	H	2.707737	-0.129076	0.005001
Br99	Br	1.841703	-0.125996	1.022690
H100	H	2.287298	-0.131901	0.555016
Br101	Br	2.094640	-0.001560	0.617194
H102	H	2.423206	0.486819	0.181224
Br103	Br	2.293346	-0.683841	0.247281
H104	H	2.287434	-0.452290	0.235295
H105	H	2.348169	-0.149454	-0.113138
H106	H	2.033983	-0.694742	0.372425
Br107	Br	2.132696	-0.000460	0.789154
Br108	Br	2.634141	-0.155391	0.419129
H109	H	2.618311	-0.151466	0.569146
H110	H	2.055737	-0.847695	0.317523
Br111	Br	2.734861	0.163246	0.192350
H112	H	2.365714	0.170872	0.206554
H113	H	2.188597	-0.149492	0.886850
Br114	Br	2.271790	-0.151437	1.041124
Br115	Br	2.243250	0.402424	0.194563
Br116	Br	2.476244	-0.140991	0.667866
Br117	Br	2.539725	-0.829284	0.264294
H118	H	1.857566	-0.129918	0.872665
Br119	Br	1.881234	-0.279891	0.824642
Br120	Br	1.704051	-0.129953	0.400707
Br121	Br	1.843150	-0.280958	0.652680
H122	H	2.618492	-0.472200	0.249236
