data_functionalizedCrystal
_audit_creation_method	'MofGen! by Chris Wilmer'
_symmetry_space_group_name_H-M	'P1'
_symmetry_Int_Tables_number	1
_symmetry_cell_setting	triclinic
loop_
_symmetry_equiv_pos_as_xyz
  x,y,z
_cell_length_a	15.995292
_cell_length_b	15.995292
_cell_length_c	13.330367
_cell_angle_alpha	89.998548
_cell_angle_beta	89.991273
_cell_angle_gamma	83.468616
loop_
_atom_site_label
_atom_site_type_symbol
_atom_site_fract_x
_atom_site_fract_y
_atom_site_fract_z
O1	O	1.110997	0.107697	-0.083443
O2	O	1.610997	0.607697	0.416557
O3	O	0.867212	0.121076	-0.083439
O4	O	1.367212	0.621076	0.416561
O5	O	0.995794	-0.007506	-0.083443
O6	O	1.495794	0.492494	0.416557
O7	O	0.982415	0.236279	-0.083439
O8	O	1.482415	0.736279	0.416561
O9	O	0.995776	-0.007509	0.083404
O10	O	1.495776	0.492491	0.583404
O11	O	0.867194	0.121073	0.083409
O12	O	1.367194	0.621073	0.583409
O13	O	1.110979	0.107694	0.083404
O14	O	1.610979	0.607694	0.583404
Cu15	Cu	0.989084	0.114383	0.098641
Cu16	Cu	1.489084	0.614383	0.598641
Cu17	Cu	0.989107	0.114387	-0.098676
Cu18	Cu	1.489107	0.614387	0.401324
O19	O	0.982397	0.236276	0.083408
O20	O	1.482397	0.736276	0.583408
C21	C	0.836008	0.120530	-0.000015
C22	C	1.336008	0.620530	0.499985
C23	C	0.743055	0.118898	-0.000013
C24	C	1.243055	0.618898	0.499987
C25	C	0.405318	0.112896	-0.000024
C26	C	0.905318	0.612896	0.499976
C27	C	0.428611	0.205703	-0.000396
C28	C	0.928611	0.705703	0.499604
C29	C	0.525286	0.207467	-0.000015
C30	C	1.025286	0.707467	0.499985
C31	C	0.572873	0.115874	-0.000019
C32	C	1.072873	0.615874	0.499981
C33	C	0.543770	0.069473	0.095255
C34	C	1.043770	0.569473	0.595255
C35	C	0.446980	0.068356	0.095330
C36	C	0.946980	0.568356	0.595330
C37	C	0.447146	0.066464	-0.094406
C38	C	0.947146	0.566464	0.405594
C39	C	0.543638	0.069903	-0.095661
C40	C	1.043638	0.569903	0.404339
C41	C	0.667569	0.117552	-0.000013
C42	C	1.167569	0.617552	0.499987
C43	C	0.310622	0.111215	-0.000024
C44	C	0.810622	0.611215	0.499976
C45	C	0.995240	-0.038703	-0.000022
C46	C	1.495240	0.461297	0.499978
C47	C	0.993608	-0.131655	-0.000029
C48	C	1.493608	0.368345	0.499971
C49	C	0.987607	-0.469393	-0.000020
C50	C	1.487607	0.030607	0.499980
C51	C	1.080413	-0.446100	0.000351
C52	C	1.580413	0.053900	0.500351
C53	C	1.082177	-0.349424	-0.000029
C54	C	1.582177	0.150576	0.499971
C55	C	0.990584	-0.301837	-0.000024
C56	C	1.490584	0.198163	0.499976
C57	C	0.944196	-0.330927	-0.095298
C58	C	1.444196	0.169073	0.404702
C59	C	0.943079	-0.427717	-0.095374
C60	C	1.443079	0.072283	0.404626
C61	C	0.941162	-0.427577	0.094363
C62	C	1.441162	0.072423	0.594363
C63	C	0.944602	-0.331085	0.095618
C64	C	1.444602	0.168915	0.595618
C65	C	0.992263	-0.207141	-0.000030
C66	C	1.492263	0.292859	0.499970
C67	C	0.985926	-0.564088	-0.000021
C68	C	1.485926	-0.064088	0.499979
C69	C	1.142183	0.108240	-0.000023
C70	C	1.642183	0.608240	0.499977
C71	C	1.235136	0.109873	-0.000031
C72	C	1.735136	0.609873	0.499969
C73	C	0.982951	0.267473	-0.000016
C74	C	1.482951	0.767473	0.499984
C75	C	0.984583	0.360426	-0.000015
C76	C	1.484583	0.860426	0.499985
N77	N	0.989075	0.114380	0.237422
N78	N	1.489075	0.614380	0.737422
N79	N	0.989123	0.114383	-0.237457
N80	N	1.489123	0.614383	0.262543
C81	C	0.932168	0.171300	0.710047
C82	C	1.432168	0.671300	1.210047
C83	C	1.046067	0.057467	0.710011
C84	C	1.546067	0.557467	1.210011
C85	C	1.046058	0.057464	0.604993
C86	C	1.546058	0.557464	1.104993
C87	C	0.989104	0.114381	0.552497
C88	C	1.489104	0.614381	1.052497
C89	C	0.932159	0.171301	0.605019
C90	C	1.432159	0.671301	1.105019
C91	C	1.103008	0.000551	0.552463
C92	C	1.603008	0.500551	1.052463
C93	C	1.103001	0.000547	0.447438
C94	C	1.603001	0.500547	0.947438
C95	C	1.046042	0.057461	0.394940
C96	C	1.546042	0.557461	0.894940
C97	C	0.989094	0.114382	0.447468
C98	C	1.489094	0.614382	0.947468
C99	C	0.932140	0.171300	0.394972
C100	C	1.432140	0.671300	0.894972
C101	C	0.875187	0.228218	0.447499
C102	C	1.375187	0.728218	0.947499
C103	C	0.875199	0.228215	0.552521
C104	C	1.375199	0.728215	1.052521
C105	C	1.046030	0.057463	0.289918
C106	C	1.546030	0.557463	0.789918
C107	C	0.932130	0.171300	0.289944
C108	C	1.432130	0.671300	0.789944
H109	H	0.400615	0.241476	-0.068721
H110	H	0.900615	0.741476	0.431279
O111	O	0.390176	0.252826	0.089612
O112	O	0.890176	0.752826	0.589612
H113	H	0.354556	0.210435	0.134611
H114	H	0.854556	0.710435	0.634611
O115	O	1.107500	-0.003914	0.766628
O116	O	1.607500	0.496086	1.266628
H117	H	1.096853	-0.069195	0.746476
H118	H	1.596853	0.430805	1.246476
O119	O	0.870690	0.232679	0.233320
O120	O	1.370690	0.732679	0.733320
H121	H	0.905914	0.273389	0.185450
H122	H	1.405914	0.773389	0.685450
H123	H	1.149383	-0.045786	0.595209
H124	H	1.649383	0.454214	1.095209
O125	O	0.856053	-0.287376	0.103256
O126	O	1.356053	0.212624	0.603256
H127	H	0.819723	-0.302282	0.035918
H128	H	1.319723	0.197718	0.535918
H129	H	0.562209	0.103688	-0.166144
H130	H	1.062209	0.603688	0.333856
H131	H	0.576623	0.003050	-0.101419
H132	H	1.076623	0.503050	0.398581
H133	H	0.876796	-0.299045	-0.098836
H134	H	1.376796	0.200955	0.401164
O135	O	0.870754	0.232696	0.766697
O136	O	1.370754	0.732696	1.266697
H137	H	0.831150	0.272272	0.712546
H138	H	1.331150	0.772272	1.212546
H139	H	1.115994	-0.475124	-0.067592
H140	H	1.615994	0.024876	0.432408
H141	H	1.149374	-0.045800	0.404677
H142	H	1.649374	0.454200	0.904677
H143	H	1.092403	0.011125	0.247156
H144	H	1.592403	0.511125	0.747156
H145	H	0.433167	-0.001848	-0.095053
H146	H	0.933167	0.498152	0.404947
O147	O	0.850677	-0.446097	0.095238
O148	O	1.350677	0.053903	0.595238
H149	H	0.838800	-0.484890	0.028816
H150	H	1.338800	0.015110	0.528816
O151	O	0.987091	-0.304677	-0.189227
O152	O	1.487091	0.195323	0.310773
H153	H	1.041413	-0.270882	-0.168295
H154	H	1.541413	0.229118	0.331705
H155	H	0.544313	0.243801	-0.068314
H156	H	1.044313	0.743801	0.431686
O157	O	0.813763	0.289608	0.390868
O158	O	1.313763	0.789608	0.890868
H159	H	0.774166	0.329191	0.445030
H160	H	1.274166	0.829191	0.945030
H161	H	0.420148	0.100489	0.166552
H162	H	0.920148	0.600489	0.666552
H163	H	0.970381	-0.455673	0.166580
H164	H	1.470381	0.044327	0.666580
H165	H	0.978379	-0.312528	0.166101
H166	H	1.478379	0.187472	0.666101
H167	H	0.543674	0.244023	0.068398
H168	H	1.043674	0.744023	0.568398
O169	O	0.985723	-0.463450	-0.189580
O170	O	1.485723	0.036550	0.310420
H171	H	1.040804	-0.508754	-0.168923
H172	H	1.540804	-0.008754	0.331077
O173	O	1.127778	-0.483179	0.090872
O174	O	1.627778	0.016821	0.590872
H175	H	1.129403	-0.552726	0.089353
H176	H	1.629403	-0.052726	0.589353
H177	H	0.432443	0.000310	0.099655
H178	H	0.932443	0.500310	0.599655
H179	H	0.828831	0.274557	0.595294
H180	H	1.328831	0.774557	1.095294
O181	O	0.586011	-0.019801	0.099969
O182	O	1.086011	0.480199	0.599969
H183	H	0.628298	-0.032075	0.034301
H184	H	1.128298	0.467925	0.534301
H185	H	0.563815	0.101693	0.166160
H186	H	1.063815	0.601693	0.666160
H187	H	0.418821	0.095474	-0.166619
H188	H	0.918821	0.595474	0.333381
H189	H	1.118738	-0.331026	-0.068445
H190	H	1.618738	0.168974	0.431555
O191	O	0.852950	-0.446984	-0.101120
O192	O	1.352950	0.053016	0.398880
H193	H	0.810355	-0.387192	-0.103840
H194	H	1.310355	0.112808	0.396160
H195	H	1.118508	-0.330408	0.068266
H196	H	1.618508	0.169592	0.568266
