data_functionalizedCrystal
_audit_creation_method	'MofGen! by Chris Wilmer'
_symmetry_space_group_name_H-M	'P1'
_symmetry_Int_Tables_number	1
_symmetry_cell_setting	triclinic
loop_
_symmetry_equiv_pos_as_xyz
  x,y,z
_cell_length_a	15.625020
_cell_length_b	14.044190
_cell_length_c	14.185569
_cell_angle_alpha	75.616153
_cell_angle_beta	85.694396
_cell_angle_gamma	88.488021
loop_
_atom_site_label
_atom_site_type_symbol
_atom_site_fract_x
_atom_site_fract_y
_atom_site_fract_z
O1	O	1.097849	0.248004	-0.482851
O2	O	1.597849	0.748004	0.017149
O3	O	0.856272	0.240135	-0.394965
O4	O	1.356272	0.740135	0.105035
O5	O	0.973436	0.105735	-0.437570
O6	O	1.473436	0.605735	0.062430
O7	O	0.980686	0.382404	-0.440247
O8	O	1.480686	0.882404	0.059753
O9	O	1.008047	0.066037	-0.283321
O10	O	1.508047	0.566037	0.216679
O11	O	0.890884	0.200437	-0.240716
O12	O	1.390884	0.700437	0.259284
O13	O	1.132460	0.208306	-0.328603
O14	O	1.632460	0.708306	0.171397
Cu15	Cu	1.014832	0.200747	-0.270575
Cu16	Cu	1.514832	0.700747	0.229425
Cu17	Cu	0.973900	0.247694	-0.452992
Cu18	Cu	1.473900	0.747694	0.047008
O19	O	1.015297	0.342706	-0.285998
O20	O	1.515297	0.842706	0.214002
C21	C	0.842475	0.216707	-0.306524
C22	C	1.342475	0.716707	0.193476
C23	C	0.749796	0.206029	-0.272807
C24	C	1.249796	0.706029	0.227193
C25	C	0.638033	0.169341	-0.141208
C26	C	1.138033	0.669341	0.358792
C27	C	0.725117	0.179377	-0.172901
C28	C	1.225117	0.679377	0.327099
C29	C	0.687394	0.222651	-0.341059
C30	C	1.187394	0.722651	0.158941
C31	C	0.600305	0.212615	-0.309380
C32	C	1.100305	0.712615	0.190620
C33	C	0.575633	0.185960	-0.209454
C34	C	1.075633	0.685960	0.290546
C35	C	0.537905	0.229234	-0.377626
C36	C	1.037905	0.729234	0.122374
C37	C	0.450824	0.219203	-0.345950
C38	C	0.950824	0.719203	0.154050
C39	C	0.426144	0.192552	-0.246027
C40	C	0.926144	0.692552	0.253973
C41	C	0.488552	0.175929	-0.177777
C42	C	0.988552	0.675929	0.322223
C43	C	0.562579	0.255895	-0.477553
C44	C	1.062579	0.755895	0.022447
C45	C	0.500178	0.272514	-0.545799
C46	C	1.000178	0.772514	-0.045799
C47	C	0.413096	0.262476	-0.514123
C48	C	0.913096	0.762476	-0.014123
C49	C	0.388416	0.235826	-0.414200
C50	C	0.888416	0.735826	0.085800
C51	C	0.350688	0.279099	-0.582373
C52	C	0.850688	0.779099	-0.082373
C53	C	0.263607	0.269068	-0.550696
C54	C	0.763607	0.769068	-0.050696
C55	C	0.301335	0.225794	-0.382523
C56	C	0.801335	0.725794	0.117477
C57	C	0.987566	0.050269	-0.359287
C58	C	1.487566	0.550269	0.140713
C59	C	0.978097	-0.055859	-0.355834
C60	C	1.478097	0.444141	0.144166
C61	C	1.027946	-0.301398	-0.374008
C62	C	1.527946	0.198602	0.125992
C63	C	0.960788	-0.250153	-0.349569
C64	C	1.460788	0.249847	0.150431
C65	C	0.970421	-0.142038	-0.353055
C66	C	1.470421	0.357962	0.146945
C67	C	1.018314	-0.409523	-0.370522
C68	C	1.518314	0.090477	0.129478
C69	C	1.146257	0.231735	-0.417045
C70	C	1.646257	0.731735	0.082955
C71	C	1.238934	0.242414	-0.450769
C72	C	1.738934	0.742414	0.049231
C73	C	1.001165	0.398172	-0.364282
C74	C	1.501165	0.898172	0.135718
C75	C	1.010634	0.504302	-0.367742
C76	C	1.510634	1.004302	0.132258
N77	N	1.043627	0.167726	-0.142275
N78	N	1.543627	0.667726	0.357725
N79	N	0.945111	0.280708	-0.581294
N80	N	1.445111	0.780708	-0.081294
C81	C	0.860507	0.377681	0.291964
C82	C	1.360507	0.877681	0.791964
C83	C	0.882325	0.352675	0.389052
C84	C	1.382325	0.852675	0.889052
C85	C	0.986100	0.233714	0.351276
C86	C	1.486100	0.733714	0.851276
C87	C	0.964287	0.258707	0.254185
C88	C	1.464287	0.758707	0.754185
C89	C	0.901491	0.330691	0.224537
C90	C	1.401491	0.830691	0.724537
C91	C	1.005271	0.211717	0.186757
C92	C	1.505271	0.711717	0.686757
C93	C	0.983463	0.236712	0.089673
C94	C	1.483463	0.736712	0.589673
C95	C	0.920671	0.308695	0.060016
C96	C	1.420671	0.808695	0.560016
C97	C	0.879683	0.355686	0.127452
C98	C	1.379683	0.855686	0.627452
C99	C	1.068071	0.139738	0.216406
C100	C	1.568071	0.639738	0.716406
C101	C	1.109055	0.092748	0.148978
C102	C	1.609055	0.592748	0.648978
C103	C	1.087243	0.117738	0.051893
C104	C	1.587243	0.617738	0.551893
C105	C	1.024451	0.189721	0.022236
C106	C	1.524451	0.689721	0.522236
C107	C	1.128232	0.070747	-0.015543
C108	C	1.628232	0.570747	0.484457
C109	C	1.106424	0.095741	-0.112627
C110	C	1.606424	0.595741	0.387373
C111	C	1.002643	0.214716	-0.074848
C112	C	1.502643	0.714716	0.425152
H113	H	0.775923	0.165848	-0.117318
H114	H	1.275923	0.665848	0.382682
H115	H	0.617944	0.147649	-0.059837
H116	H	1.117944	0.647649	0.440163
H117	H	0.896058	-0.287478	-0.326025
H118	H	1.396058	0.212522	0.173975
H119	H	0.828542	0.414295	0.103315
H120	H	1.328542	0.914295	0.603315
H121	H	1.092672	-0.264076	-0.397546
H122	H	1.592672	0.235924	0.102454
H123	H	0.951502	0.273325	-0.098985
H124	H	1.451502	0.773325	0.401015
H125	H	1.037232	0.175106	0.375427
H126	H	1.537232	0.675106	0.875427
H127	H	0.281246	0.204102	-0.301153
H128	H	0.781246	0.704102	0.198847
H129	H	1.085828	0.119394	0.295458
H130	H	1.585828	0.619394	0.795458
H131	H	1.160187	0.034140	0.173128
H132	H	1.660187	0.534140	0.673128
H133	H	1.139798	0.057478	-0.167529
H134	H	1.639798	0.557478	0.332471
H135	H	0.902919	0.329048	-0.019038
H136	H	1.402919	0.829048	0.480962
H137	H	0.633487	0.264068	-0.503341
H138	H	1.133487	0.764068	-0.003341
H139	H	1.179367	0.012143	0.008608
H140	H	1.679367	0.512143	0.508608
H141	H	0.848946	0.390947	0.443949
H142	H	1.348946	0.890947	0.943949
H143	H	0.468463	0.154237	-0.096406
H144	H	0.968463	0.654237	0.403594
H145	H	0.707495	0.244357	-0.422420
H146	H	1.207495	0.744357	0.077580
H147	H	0.520280	0.294219	-0.627160
H148	H	1.020280	0.794219	-0.127160
H149	H	0.355236	0.184390	-0.220237
H150	H	0.855236	0.684390	0.279763
H151	H	0.370790	0.300810	-0.663733
H152	H	0.870790	0.800810	-0.163733
H153	H	0.809366	0.436291	0.267827
H154	H	1.309366	0.936291	0.767827
H155	H	0.212798	0.282603	-0.606269
H156	H	0.712798	0.782603	-0.106269
