data_functionalizedCrystal
_audit_creation_method	'MofGen! by Chris Wilmer'
_symmetry_space_group_name_H-M	'P1'
_symmetry_Int_Tables_number	1
_symmetry_cell_setting	triclinic
loop_
_symmetry_equiv_pos_as_xyz
  x,y,z
_cell_length_a	29.839135
_cell_length_b	21.395363
_cell_length_c	21.395355
_cell_angle_alpha	90.003952
_cell_angle_beta	89.971956
_cell_angle_gamma	89.996030
loop_
_atom_site_label
_atom_site_type_symbol
_atom_site_fract_x
_atom_site_fract_y
_atom_site_fract_z
Zn1	Zn	-0.686897	-0.249480	0.354383
Zn2	Zn	-0.186897	0.250520	0.854383
Zn3	Zn	-0.686864	-0.354240	0.249632
Zn4	Zn	-0.186864	0.145760	0.749632
Zn5	Zn	-0.611763	-0.249484	0.249614
Zn6	Zn	-0.111763	0.250516	0.749614
Zn7	Zn	-0.611779	-0.354227	0.354366
Zn8	Zn	-0.111779	0.145773	0.854366
O9	O	-0.649326	-0.301858	0.301999
O10	O	-0.149326	0.198142	0.801999
O11	O	-0.749760	-0.263381	0.340503
O12	O	-0.249760	0.236619	0.840503
O13	O	-0.676882	-0.340351	0.161952
O14	O	-0.176882	0.159649	0.661952
O15	O	-0.621737	-0.161806	0.263511
O16	O	-0.121737	0.338194	0.763511
O17	O	-0.749736	-0.340348	0.263543
O18	O	-0.249736	0.159652	0.763543
O19	O	-0.676937	-0.161803	0.340485
O20	O	-0.176937	0.338197	0.840485
O21	O	-0.621706	-0.263387	0.161938
O22	O	-0.121706	0.236613	0.661938
O23	O	-0.548898	-0.263374	0.263494
O24	O	-0.048898	0.236626	0.763494
O25	O	-0.621763	-0.340326	0.442046
O26	O	-0.121763	0.159674	0.942046
O27	O	-0.548910	-0.340329	0.340456
O28	O	-0.048910	0.159671	0.840456
O29	O	-0.676952	-0.263369	0.442059
O30	O	-0.176952	0.236631	0.942059
O31	O	-0.676897	-0.441916	0.263526
O32	O	-0.176897	0.058084	0.763526
O33	O	-0.621732	-0.441907	0.340474
O34	O	-0.121732	0.058093	0.840474
C35	C	-0.532603	-0.301851	0.301971
C36	C	-0.032603	0.198149	0.801971
C37	C	-0.482669	-0.301863	0.301974
C38	C	0.017331	0.198137	0.801974
C39	C	-0.173035	-0.261834	0.342128
C40	C	0.326965	0.238166	0.842128
C41	C	0.014638	-0.261835	0.342145
C42	C	0.514638	0.238165	0.842145
O43	O	0.038895	-0.227791	0.376256
O44	O	0.538895	0.272209	0.876256
N45	N	0.038116	-0.301847	0.302017
N46	N	0.538116	0.198153	0.802017
C47	C	0.014673	-0.341858	0.261880
C48	C	0.514673	0.158142	0.761880
O49	O	0.038949	-0.375886	0.227746
O50	O	0.538949	0.124114	0.727746
C51	C	-0.172999	-0.341854	0.261861
C52	C	0.327001	0.158146	0.761861
C53	C	-0.196475	-0.301844	0.301995
C54	C	0.303525	0.198156	0.801995
C55	C	-0.196511	-0.221827	0.382258
C56	C	0.303489	0.278173	0.882258
C57	C	-0.243426	-0.221830	0.382256
C58	C	0.256574	0.278170	0.882256
C59	C	-0.266866	-0.261839	0.342124
C60	C	0.233134	0.238161	0.842124
C61	C	-0.243390	-0.301846	0.301993
C62	C	0.256610	0.198154	0.801993
C63	C	-0.196441	-0.381861	0.221721
C64	C	0.303559	0.118139	0.721721
C65	C	-0.243362	-0.381855	0.221719
C66	C	0.256638	0.118145	0.721719
C67	C	-0.266838	-0.341846	0.261853
C68	C	0.233162	0.158154	0.761853
C69	C	-0.313745	-0.341858	0.261858
C70	C	0.186255	0.158142	0.761858
N71	N	-0.337223	-0.301847	0.301986
N72	N	0.162777	0.198153	0.801986
C73	C	-0.313784	-0.261837	0.342118
C74	C	0.186216	0.238163	0.842118
C75	C	0.113204	-0.341859	0.261894
C76	C	0.613204	0.158141	0.761894
C77	C	0.160122	-0.341861	0.261900
C78	C	0.660122	0.158139	0.761900
C79	C	0.160083	-0.261837	0.342163
C80	C	0.660083	0.238163	0.842163
C81	C	0.113165	-0.261838	0.342160
C82	C	0.613165	0.238162	0.842160
C83	C	0.089726	-0.301847	0.302021
C84	C	0.589726	0.198153	0.802021
C85	C	-0.412310	-0.261846	0.342111
C86	C	0.087690	0.238154	0.842111
C87	C	-0.459229	-0.261854	0.342107
C88	C	0.040771	0.238146	0.842107
C89	C	-0.459187	-0.341875	0.261842
C90	C	0.040813	0.158125	0.761842
C91	C	-0.412271	-0.341870	0.261847
C92	C	0.087729	0.158130	0.761847
C93	C	-0.388834	-0.301850	0.301984
C94	C	0.111166	0.198150	0.801984
O95	O	-0.338031	-0.375880	0.227760
O96	O	0.161969	0.124120	0.727760
O97	O	-0.338068	-0.227804	0.376238
O98	O	0.161932	0.272196	0.876238
C99	C	-0.126119	-0.261832	0.342130
C100	C	0.373881	0.238168	0.842130
C101	C	-0.102644	-0.301839	0.302000
C102	C	0.397356	0.198161	0.802000
C103	C	-0.126083	-0.341848	0.261867
C104	C	0.373917	0.158152	0.761867
C105	C	-0.055726	-0.301841	0.302005
C106	C	0.444274	0.198159	0.802005
C107	C	-0.032286	-0.261831	0.342138
C108	C	0.467714	0.238169	0.842138
C109	C	-0.055764	-0.221819	0.382265
C110	C	0.444236	0.278181	0.882265
C111	C	-0.102680	-0.221822	0.382263
C112	C	0.397320	0.278178	0.882263
C113	C	-0.102605	-0.381860	0.221740
C114	C	0.397395	0.118140	0.721740
C115	C	-0.055690	-0.381855	0.221746
C116	C	0.444310	0.118145	0.721746
C117	C	-0.032250	-0.341845	0.261878
C118	C	0.467750	0.158155	0.761878
C119	C	-0.649325	-0.464646	0.302014
C120	C	-0.149325	0.035354	0.802014
C121	C	-0.649365	-0.534287	0.302041
C122	C	-0.149365	-0.034287	0.802041
C123	C	0.233496	-0.301861	0.302025
C124	C	0.733496	0.198139	0.802025
C125	C	0.183561	-0.301851	0.302032
C126	C	0.683561	0.198149	0.802032
C127	C	-0.649363	-0.301845	0.465422
C128	C	-0.149363	0.198155	0.965422
C129	C	-0.649379	-0.301840	0.535064
C130	C	-0.149379	0.198160	1.035064
C131	C	-0.649339	-0.138435	0.301997
C132	C	-0.149339	0.361565	0.801997
C133	C	-0.649345	-0.068794	0.301997
C134	C	-0.149345	0.431206	0.801997
C135	C	-0.620610	-0.036081	0.261922
C136	C	-0.120610	0.463919	0.761922
C137	C	-0.620610	0.029355	0.261929
C138	C	-0.120610	0.529355	0.761929
C139	C	-0.649352	0.062075	0.302005
C140	C	-0.149352	0.562075	0.802005
C141	C	-0.678088	0.029354	0.342088
C142	C	-0.178088	0.529354	0.842088
C143	C	-0.678085	-0.036080	0.342084
C144	C	-0.178085	0.463920	0.842084
C145	C	-0.689834	0.165742	0.306967
C146	C	-0.189834	0.665742	0.806967
C147	C	-0.689838	0.231175	0.306966
C148	C	-0.189838	0.731175	0.806966
C149	C	-0.649362	0.263896	0.302022
C150	C	-0.149362	0.763896	0.802022
C151	C	-0.608881	0.231175	0.297064
C152	C	-0.108881	0.731175	0.797064
C153	C	-0.608877	0.165741	0.297060
C154	C	-0.108877	0.665741	0.797060
C155	C	-0.649359	0.133027	0.302014
C156	C	-0.149359	0.633027	0.802014
C157	C	-0.620625	0.367561	0.261952
C158	C	-0.120625	0.867561	0.761952
C159	C	-0.620624	0.432998	0.261964
C160	C	-0.120624	0.932998	0.761964
C161	C	-0.678106	0.432996	0.342120
C162	C	-0.178106	0.932996	0.842120
C163	C	-0.678103	0.367560	0.342111
C164	C	-0.178103	0.867560	0.842111
C165	C	-0.649363	0.334847	0.302024
C166	C	-0.149363	0.834847	0.802024
C167	C	-0.649315	-0.301825	0.139211
C168	C	-0.149315	0.198175	0.639211
C169	C	-0.649386	-0.301654	0.069570
C170	C	-0.149386	0.198346	0.569570
C171	C	-0.678115	-0.261767	0.567784
C172	C	-0.178115	0.238233	1.067784
C173	C	-0.678114	-0.261740	0.633220
C174	C	-0.178114	0.238260	1.133220
C175	C	-0.649383	-0.301797	0.665932
C176	C	-0.149383	0.198203	1.165932
C177	C	-0.620641	-0.341873	0.633203
C178	C	-0.120641	0.158127	1.133203
C179	C	-0.620640	-0.341895	0.567769
C180	C	-0.120640	0.158105	1.067769
C181	C	-0.645835	-0.358213	0.769611
C182	C	-0.145835	0.141787	1.269611
C183	C	-0.645840	-0.358192	0.835044
C184	C	-0.145840	0.141808	1.335044
C185	C	-0.649385	-0.301731	0.867753
C186	C	-0.149385	0.198269	1.367753
C187	C	-0.652935	-0.245288	0.835020
C188	C	-0.152935	0.254712	1.335020
C189	C	-0.652934	-0.245310	0.769586
C190	C	-0.152934	0.254690	1.269586
C191	C	-0.649381	-0.301778	0.736884
C192	C	-0.149381	0.198222	1.236884
C193	C	-0.678122	-0.261625	0.971426
C194	C	-0.178122	0.238375	1.471426
C195	C	-0.678118	-0.261597	1.036863
C196	C	-0.178118	0.238403	1.536863
C197	C	-0.620648	-0.341736	1.036845
C198	C	-0.120648	0.158264	1.536845
C199	C	-0.620649	-0.341759	0.971410
C200	C	-0.120649	0.158241	1.471410
C201	C	-0.649388	-0.301704	0.938704
C202	C	-0.149388	0.198296	1.438704
H203	H	-0.262536	-0.189248	0.414937
H204	H	0.237464	0.310752	0.914937
H205	H	-0.597238	-0.374526	0.541128
H206	H	-0.097238	0.125474	1.041128
H207	H	-0.701507	0.459636	0.374753
H208	H	-0.201507	0.959636	0.874753
O209	O	-0.565222	0.266460	0.291720
O210	O	-0.065222	0.766460	0.791720
H211	H	-0.537075	0.232716	0.288264
H212	H	-0.037075	0.732716	0.788264
H213	H	-0.177335	-0.414441	0.189039
H214	H	0.322665	0.085559	0.689039
H215	H	0.094124	-0.374441	0.229207
H216	H	0.594124	0.125559	0.729207
O217	O	-0.709113	-0.218368	1.072152
O218	O	-0.209113	0.281632	1.572152
H219	H	-0.689009	-0.186472	1.101934
H220	H	-0.189009	0.313528	1.601934
O221	O	-0.709107	-0.218504	0.668510
O222	O	-0.209107	0.281496	1.168510
H223	H	-0.689000	-0.186611	0.698291
H224	H	-0.189000	0.313389	1.198291
H225	H	-0.478280	-0.374451	0.229168
H226	H	0.021720	0.125549	0.729168
H227	H	-0.478341	-0.229272	0.374791
H228	H	0.021659	0.270728	0.874791
O229	O	-0.656760	-0.184435	0.734283
O230	O	-0.156760	0.315565	1.234283
H231	H	-0.656166	-0.193939	0.683289
H232	H	-0.156166	0.306061	1.183289
H233	H	-0.642952	-0.404152	0.861690
H234	H	-0.142952	0.095848	1.361690
H235	H	-0.597247	-0.374486	0.659842
H236	H	-0.097247	0.125514	1.159842
O237	O	-0.709100	0.332270	0.385330
O238	O	-0.209100	0.832270	0.885330
H239	H	-0.729089	0.366014	0.413196
H240	H	-0.229089	0.866014	0.913196
H241	H	-0.597222	0.459633	0.229332
H242	H	-0.097222	0.959633	0.729332
O243	O	-0.387033	-0.218687	0.385403
O244	O	0.112967	0.281313	0.885403
H245	H	-0.411246	-0.190876	0.413309
H246	H	0.088754	0.309124	0.913309
O247	O	-0.656748	-0.184382	0.870286
O248	O	-0.156748	0.315618	1.370286
H249	H	-0.656143	-0.193845	0.921285
H250	H	-0.156143	0.306155	1.421285
O251	O	-0.709112	-0.218419	0.936143
O252	O	-0.209112	0.281581	1.436143
H253	H	-0.729089	-0.190540	0.969892
H254	H	-0.229089	0.309460	1.469892
O255	O	-0.386946	-0.385023	0.218563
O256	O	0.113054	0.114977	0.718563
H257	H	-0.411130	-0.412842	0.190655
H258	H	0.088870	0.087158	0.690655
O259	O	-0.565220	0.130446	0.291718
O260	O	-0.065220	0.630446	0.791718
H261	H	-0.543173	0.142998	0.331556
H262	H	-0.043173	0.642998	0.831556
O263	O	0.185368	-0.218675	0.385445
O264	O	0.685368	0.281325	0.885445
H265	H	0.221936	-0.225398	0.378697
H266	H	0.721936	0.274602	0.878697
H267	H	-0.597249	-0.374346	1.063479
H268	H	-0.097249	0.125654	1.563479
H269	H	-0.177431	-0.189243	0.414939
H270	H	0.322569	0.310757	0.914939
H271	H	-0.722800	0.257813	0.310999
H272	H	-0.222800	0.757813	0.810999
O273	O	-0.733493	0.130452	0.312304
O274	O	-0.233493	0.630452	0.812304
H275	H	-0.738063	0.100635	0.270333
H276	H	-0.238063	0.600635	0.770333
O277	O	0.087845	-0.218678	0.385439
O278	O	0.587845	0.281322	0.885439
H279	H	0.112031	-0.190856	0.413341
H280	H	0.612031	0.309144	0.913341
O281	O	-0.030475	-0.178666	0.425549
O282	O	0.469525	0.321334	0.925549
H283	H	-0.054678	-0.150843	0.453460
H284	H	0.445322	0.349157	0.953460
O285	O	-0.268644	-0.425010	0.178427
O286	O	0.231356	0.074990	0.678427
H287	H	-0.244434	-0.452831	0.150526
H288	H	0.255566	0.047169	0.650526
H289	H	-0.121790	-0.189241	0.414944
H290	H	0.378210	0.310759	0.914944
H291	H	-0.597210	0.055994	0.229294
H292	H	-0.097210	0.555994	0.729294
H293	H	-0.701490	0.055998	0.374720
H294	H	-0.201490	0.555998	0.874720
H295	H	0.179232	-0.374448	0.229225
H296	H	0.679232	0.125552	0.729225
O297	O	-0.030371	-0.425007	0.178451
O298	O	0.469629	0.074993	0.678451
H299	H	-0.054557	-0.452820	0.150541
H300	H	0.445443	0.047180	0.650541
O301	O	-0.709081	-0.071370	0.385306
O302	O	-0.209081	0.428630	0.885306
H303	H	-0.729069	-0.037627	0.413174
H304	H	-0.229069	0.462373	0.913174
H305	H	-0.701516	-0.229150	0.541159
H306	H	-0.201516	0.270850	1.041159
H307	H	-0.642827	-0.404179	0.742986
H308	H	-0.142827	0.095821	1.242986
H309	H	-0.121685	-0.414440	0.189058
H310	H	0.378315	0.085560	0.689058
O311	O	-0.589610	-0.071366	0.218693
O312	O	-0.089610	0.428634	0.718693
H313	H	-0.569625	-0.037621	0.190831
H314	H	-0.069625	0.462379	0.690831
O315	O	-0.589642	-0.384972	0.936124
O316	O	-0.089642	0.115028	1.436124
H317	H	-0.597334	-0.434148	0.948692
H318	H	-0.097334	0.065852	1.448692
O319	O	-0.589623	0.332269	0.218726
O320	O	-0.089623	0.832269	0.718726
H321	H	-0.569636	0.366013	0.190868
H322	H	-0.069636	0.866013	0.690868
