data_functionalizedCrystal
_audit_creation_method	'MofGen! by Chris Wilmer'
_symmetry_space_group_name_H-M	'P1'
_symmetry_Int_Tables_number	1
_symmetry_cell_setting	triclinic
loop_
_symmetry_equiv_pos_as_xyz
  x,y,z
_cell_length_a	18.050591
_cell_length_b	18.050589
_cell_length_c	18.050582
_cell_angle_alpha	89.981795
_cell_angle_beta	89.979078
_cell_angle_gamma	90.024227
loop_
_atom_site_label
_atom_site_type_symbol
_atom_site_fract_x
_atom_site_fract_y
_atom_site_fract_z
Zn1	Zn	1.135293	-0.295786	-0.420054
Zn2	Zn	1.468626	0.037548	-0.086721
Zn3	Zn	1.801959	0.370881	0.246613
Zn4	Zn	1.135203	-0.419969	-0.295873
Zn5	Zn	1.468537	-0.086636	0.037460
Zn6	Zn	1.801870	0.246698	0.370793
Zn7	Zn	1.011112	-0.295789	-0.295865
Zn8	Zn	1.344445	0.037545	0.037468
Zn9	Zn	1.677778	0.370878	0.370802
Zn10	Zn	1.011060	-0.419930	-0.420009
Zn11	Zn	1.344393	-0.086596	-0.086676
Zn12	Zn	1.677726	0.246737	0.246658
O13	O	1.073167	-0.357868	-0.357950
O14	O	1.406500	-0.024535	-0.024617
O15	O	1.739833	0.308798	0.308716
O16	O	1.239205	-0.312274	-0.403603
O17	O	1.572539	0.021059	-0.070270
O18	O	1.905872	0.354393	0.263063
O19	O	1.118727	-0.403514	-0.191948
O20	O	1.452060	-0.070181	0.141386
O21	O	1.785393	0.263153	0.474719
O22	O	1.027644	-0.191864	-0.312354
O23	O	1.360977	0.141470	0.020979
O24	O	1.694310	0.474803	0.354312
O25	O	1.239140	-0.403511	-0.312369
O26	O	1.572473	-0.070178	0.020965
O27	O	1.905806	0.263156	0.354298
O28	O	1.118879	-0.191862	-0.403595
O29	O	1.452212	0.141472	-0.070262
O30	O	1.785545	0.474805	0.263071
O31	O	1.027557	-0.312279	-0.191942
O32	O	1.360890	0.021054	0.141392
O33	O	1.694224	0.354387	0.474725
O34	O	0.907180	-0.312241	-0.312311
O35	O	1.240514	0.021092	0.021023
O36	O	1.573847	0.354426	0.354356
O37	O	1.027555	-0.403444	-0.523940
O38	O	1.360888	-0.070111	-0.190606
O39	O	1.694222	0.263223	0.142727
O40	O	0.907142	-0.403447	-0.403519
O41	O	1.240475	-0.070114	-0.070185
O42	O	1.573809	0.263220	0.263148
O43	O	1.118828	-0.312236	-0.523973
O44	O	1.452162	0.021097	-0.190639
O45	O	1.785495	0.354431	0.142694
O46	O	1.118676	-0.523888	-0.312325
O47	O	1.452010	-0.190555	0.021008
O48	O	1.785343	0.142778	0.354342
O49	O	1.027468	-0.523860	-0.403527
O50	O	1.360802	-0.190526	-0.070193
O51	O	1.694135	0.142807	0.263140
C52	C	0.880215	-0.357841	-0.357909
C53	C	1.213548	-0.024507	-0.024576
C54	C	1.546881	0.308826	0.308757
C55	C	0.797669	-0.357847	-0.357909
C56	C	1.131002	-0.024513	-0.024576
C57	C	1.464336	0.308820	0.308757
C58	C	0.598217	-0.308191	-0.308425
C59	C	0.931551	0.025142	0.024909
C60	C	1.264884	0.358475	0.358242
C61	C	0.548798	-0.375927	-0.290154
C62	C	0.882131	-0.042594	0.043180
C63	C	1.215464	0.290739	0.376513
C64	C	0.646539	-0.357869	-0.357943
C65	C	0.979872	-0.024536	-0.024610
C66	C	1.313205	0.308797	0.308724
C67	C	0.548877	-0.290157	-0.376212
C68	C	0.882210	0.043176	-0.042879
C69	C	1.215543	0.376510	0.290455
C70	C	0.500553	-0.357885	-0.357974
C71	C	0.833887	-0.024552	-0.024641
C72	C	1.167220	0.308782	0.308693
C73	C	0.598206	-0.425641	-0.339637
C74	C	0.931539	-0.092307	-0.006303
C75	C	1.264873	0.241026	0.327030
C76	C	0.598289	-0.339825	-0.425726
C77	C	0.931622	-0.006491	-0.092393
C78	C	1.264956	0.326842	0.240940
C79	C	0.548892	-0.407607	-0.407481
C80	C	0.882225	-0.074274	-0.074148
C81	C	1.215558	0.259059	0.259186
C82	C	0.730637	-0.357859	-0.357923
C83	C	1.063970	-0.024526	-0.024590
C84	C	1.397303	0.308808	0.308744
C85	C	0.416457	-0.357903	-0.357994
C86	C	0.749790	-0.024569	-0.024660
C87	C	1.083124	0.308764	0.308673
C88	C	1.073077	-0.550820	-0.357938
C89	C	1.406410	-0.217487	-0.024605
C90	C	1.739744	0.115846	0.308729
C91	C	1.073107	-0.633366	-0.357958
C92	C	1.406440	-0.300033	-0.024624
C93	C	1.739773	0.033300	0.308709
C94	C	1.023557	-0.832828	-0.407536
C95	C	1.356890	-0.499495	-0.074202
C96	C	1.690223	-0.166161	0.259131
C97	C	1.005459	-0.882261	-0.339767
C98	C	1.338792	-0.548928	-0.006433
C99	C	1.672126	-0.215594	0.326900
C100	C	1.073180	-0.784497	-0.357967
C101	C	1.406513	-0.451163	-0.024634
C102	C	1.739846	-0.117830	0.308699
C103	C	1.091314	-0.882146	-0.425744
C104	C	1.424647	-0.548812	-0.092411
C105	C	1.757981	-0.215479	0.240922
C106	C	1.073249	-0.930482	-0.357983
C107	C	1.406582	-0.597148	-0.024649
C108	C	1.739915	-0.263815	0.308684
C109	C	1.055046	-0.832842	-0.290162
C110	C	1.388380	-0.499509	0.043171
C111	C	1.721713	-0.166175	0.376505
C112	C	1.140933	-0.832722	-0.376186
C113	C	1.474266	-0.499389	-0.042852
C114	C	1.807600	-0.166056	0.290481
C115	C	1.122861	-0.882133	-0.308370
C116	C	1.456194	-0.548799	0.024964
C117	C	1.789527	-0.215466	0.358297
C118	C	1.073138	-0.700398	-0.357959
C119	C	1.406471	-0.367065	-0.024626
C120	C	1.739805	-0.033732	0.308707
C121	C	1.073291	-1.014578	-0.357983
C122	C	1.406624	-0.681245	-0.024649
C123	C	1.739957	-0.347911	0.308684
C124	C	1.266872	-0.357897	-0.357992
C125	C	1.600206	-0.024563	-0.024659
C126	C	1.933539	0.308770	0.308675
C127	C	1.349418	-0.357909	-0.358010
C128	C	1.682751	-0.024575	-0.024676
C129	C	2.016085	0.308758	0.308657
C130	C	1.073196	-0.357835	-0.551656
C131	C	1.406529	-0.024502	-0.218323
C132	C	1.739863	0.308831	0.115011
C133	C	1.073208	-0.357821	-0.634202
C134	C	1.406542	-0.024488	-0.300868
C135	C	1.739875	0.308845	0.032465
C136	C	1.073277	-0.164163	-0.357979
C137	C	1.406610	0.169171	-0.024646
C138	C	1.739944	0.502504	0.308688
C139	C	1.073324	-0.081617	-0.357991
C140	C	1.406657	0.251716	-0.024658
C141	C	1.739991	0.585050	0.308675
C142	C	1.023612	-0.407353	-0.833635
C143	C	1.356945	-0.074019	-0.500301
C144	C	1.690278	0.259314	-0.166968
C145	C	1.091367	-0.425511	-0.883034
C146	C	1.424700	-0.092177	-0.549701
C147	C	1.758034	0.241156	-0.216368
C148	C	1.073245	-0.357765	-0.785332
C149	C	1.406578	-0.024431	-0.451999
C150	C	1.739912	0.308902	-0.118666
C151	C	1.005527	-0.339586	-0.883014
C152	C	1.338860	-0.006253	-0.549681
C153	C	1.672194	0.327081	-0.216348
C154	C	1.073274	-0.357711	-0.931317
C155	C	1.406608	-0.024378	-0.597984
C156	C	1.739941	0.308955	-0.264651
C157	C	1.141036	-0.375958	-0.833645
C158	C	1.474369	-0.042625	-0.500312
C159	C	1.807702	0.290708	-0.166978
C160	C	1.055150	-0.290002	-0.833620
C161	C	1.388483	0.043331	-0.500287
C162	C	1.721816	0.376665	-0.166954
C163	C	1.122952	-0.308134	-0.882998
C164	C	1.456285	0.025199	-0.549665
C165	C	1.789619	0.358532	-0.216331
C166	C	1.073227	-0.357797	-0.701234
C167	C	1.406560	-0.024464	-0.367901
C168	C	1.739894	0.308869	-0.034567
C169	C	1.073300	-0.357679	-1.015414
C170	C	1.406633	-0.024345	-0.682081
C171	C	1.739967	0.308988	-0.348747
C172	C	1.073181	-0.357848	-0.164998
C173	C	1.406514	-0.024514	0.168335
C174	C	1.739847	0.308819	0.501668
C175	C	1.073312	-0.357652	-0.082453
C176	C	1.406645	-0.024319	0.250880
C177	C	1.739979	0.309014	0.584214
H178	H	0.527370	-0.449673	-0.449370
H179	H	0.860704	-0.116340	-0.116037
H180	H	1.194037	0.216993	0.217296
H181	H	1.164855	-0.903645	-0.266409
H182	H	1.498188	-0.570312	0.066924
H183	H	1.831522	-0.236979	0.400257
H184	H	1.198333	-0.391377	-0.812050
H185	H	1.531666	-0.058043	-0.478716
H186	H	1.865000	0.275290	-0.145383
C187	C	0.627483	-0.251498	-0.251801
C188	C	0.960816	0.081835	0.081533
C189	C	1.294149	0.415168	0.414866
H190	H	0.656466	-0.215236	-0.276642
H191	H	0.989799	0.118097	0.056691
H192	H	1.323132	0.451431	0.390024
H193	H	0.657137	-0.276164	-0.216011
H194	H	0.990471	0.057169	0.117322
H195	H	1.323804	0.390503	0.450655
H196	H	0.586893	-0.228110	-0.227823
H197	H	0.920226	0.105223	0.105510
H198	H	1.253559	0.438556	0.438844
H199	H	0.981531	-0.811178	-0.449395
H200	H	1.314864	-0.477845	-0.116062
H201	H	1.648197	-0.144512	0.217272
H202	H	0.620045	-0.324530	-0.483019
H203	H	0.953378	0.008804	-0.149686
H204	H	1.286711	0.342137	0.183648
H205	H	0.527169	-0.232894	-0.391625
H206	H	0.860502	0.100439	-0.058292
H207	H	1.193835	0.433772	0.275041
C208	C	1.179732	-0.251456	-0.912102
C209	C	1.513065	0.081877	-0.578769
C210	C	1.846399	0.415210	-0.245435
H211	H	1.227803	-0.264472	-0.895106
H212	H	1.561136	0.068861	-0.561773
H213	H	1.894470	0.402194	-0.228439
H214	H	1.167278	-0.203484	-0.894434
H215	H	1.500612	0.129850	-0.561101
H216	H	1.833945	0.463183	-0.227768
H217	H	1.179153	-0.251460	-0.964729
H218	H	1.512487	0.081873	-0.631395
H219	H	1.845820	0.415206	-0.298062
H220	H	1.039807	-0.232736	-0.811899
H221	H	1.373141	0.100598	-0.478566
H222	H	1.706474	0.433931	-0.145232
C223	C	0.928149	-0.318840	-0.912309
C224	C	1.261482	0.014493	-0.578976
C225	C	1.594815	0.347827	-0.245642
H226	H	0.892938	-0.354141	-0.895398
H227	H	1.226271	-0.020808	-0.562065
H228	H	1.559604	0.312526	-0.228731
H229	H	0.928822	-0.318525	-0.964930
H230	H	1.262156	0.014808	-0.631597
H231	H	1.595489	0.348142	-0.298264
H232	H	0.914943	-0.271059	-0.894656
H233	H	1.248276	0.062274	-0.561323
H234	H	1.581609	0.395607	-0.227990
C235	C	0.627347	-0.503030	-0.318686
C236	C	0.960680	-0.169697	0.014647
C237	C	1.294013	0.163636	0.347980
H238	H	0.586702	-0.535339	-0.309979
H239	H	0.920035	-0.202005	0.023354
H240	H	1.253369	0.131328	0.356688
H241	H	0.656619	-0.499543	-0.275103
H242	H	0.989952	-0.166210	0.058231
H243	H	1.323286	0.167123	0.391564
H244	H	0.656690	-0.521958	-0.358063
H245	H	0.990023	-0.188624	-0.024730
H246	H	1.323357	0.144709	0.308603
C247	C	1.034271	-0.803716	-0.212716
C248	C	1.367604	-0.470383	0.120617
C249	C	1.700938	-0.137050	0.453950
H250	H	1.025650	-0.844367	-0.180396
H251	H	1.358984	-0.511034	0.152938
H252	H	1.692317	-0.177701	0.486271
H253	H	0.990672	-0.774458	-0.216092
H254	H	1.324005	-0.441124	0.117241
H255	H	1.657338	-0.107791	0.450574
H256	H	1.073685	-0.774362	-0.193877
H257	H	1.407018	-0.441029	0.139456
H258	H	1.740352	-0.107696	0.472789
C259	C	0.519425	-0.396560	-0.212738
C260	C	0.852758	-0.063227	0.120596
C261	C	1.186091	0.270106	0.453929
H262	H	0.536308	-0.361211	-0.177599
H263	H	0.869642	-0.027877	0.155734
H264	H	1.202975	0.305456	0.489068
H265	H	0.537040	-0.444327	-0.199429
H266	H	0.870373	-0.110993	0.133905
H267	H	1.203706	0.222340	0.467238
H268	H	0.466800	-0.396856	-0.213423
H269	H	0.800134	-0.063522	0.119910
H270	H	1.133467	0.269811	0.453244
H271	H	1.106625	-0.903802	-0.483056
H272	H	1.439958	-0.570469	-0.149723
H273	H	1.773291	-0.237136	0.183610
C274	C	0.928099	-0.911660	-0.318952
C275	C	1.261433	-0.578326	0.014381
C276	C	1.594766	-0.244993	0.347714
H277	H	0.892873	-0.894783	-0.354213
H278	H	1.226206	-0.561450	-0.020880
H279	H	1.559539	-0.228117	0.312453
H280	H	0.914899	-0.894054	-0.271151
H281	H	1.248232	-0.560720	0.062183
H282	H	1.581566	-0.227387	0.395516
H283	H	0.928798	-0.964284	-0.318670
H284	H	1.262132	-0.630951	0.014664
H285	H	1.595465	-0.297618	0.347997
H286	H	1.198184	-0.810948	-0.391613
H287	H	1.531518	-0.477615	-0.058280
H288	H	1.864851	-0.144282	0.275053
H289	H	0.981678	-0.449342	-0.811961
H290	H	1.315012	-0.116009	-0.478628
H291	H	1.648345	0.217324	-0.145294
C292	C	1.112066	-0.502890	-0.912364
C293	C	1.445399	-0.169557	-0.579030
C294	C	1.778732	0.163776	-0.245697
H295	H	1.076743	-0.538086	-0.895467
H296	H	1.410076	-0.204753	-0.562133
H297	H	1.743410	0.128580	-0.228800
H298	H	1.159841	-0.516128	-0.894734
H299	H	1.493174	-0.182795	-0.561401
H300	H	1.826507	0.150539	-0.228068
H301	H	1.112365	-0.502196	-0.964988
H302	H	1.445698	-0.168863	-0.631655
H303	H	1.779032	0.164471	-0.298322
