data_functionalizedCrystal
_audit_creation_method	'MofGen! by Chris Wilmer'
_symmetry_space_group_name_H-M	'P1'
_symmetry_Int_Tables_number	1
_symmetry_cell_setting	triclinic
loop_
_symmetry_equiv_pos_as_xyz
  x,y,z
_cell_length_a	10.540539
_cell_length_b	10.723024
_cell_length_c	9.798715
_cell_angle_alpha	90.003391
_cell_angle_beta	89.998989
_cell_angle_gamma	95.503320
loop_
_atom_site_label
_atom_site_type_symbol
_atom_site_fract_x
_atom_site_fract_y
_atom_site_fract_z
O1	O	0.178046	-1.657276	-0.113475
O2	O	0.195088	-1.294132	-0.113479
O3	O	0.001856	-1.483989	-0.113475
O4	O	0.371278	-1.467419	-0.113479
O5	O	0.001856	-1.483974	0.113507
O6	O	0.195088	-1.294118	0.113503
O7	O	0.178045	-1.657262	0.113507
Zn8	Zn	0.186567	-1.475687	0.149543
Zn9	Zn	0.186567	-1.475706	-0.149515
O10	O	0.371277	-1.467405	0.113503
C11	C	0.193848	-1.247624	0.000011
C12	C	0.190137	-1.109068	0.000010
C13	C	-0.045446	-1.482739	0.000013
C14	C	-0.186392	-1.479021	0.000006
C15	C	0.179286	-1.703769	0.000013
C16	C	0.182997	-1.842325	0.000006
C17	C	-0.369746	-1.336563	-0.000505
C18	C	-0.223130	-1.340332	0.000006
C19	C	-0.248085	-1.545757	0.129625
C20	C	-0.394627	-1.541023	0.129734
C21	C	-0.395146	-1.543860	-0.128387
C22	C	-0.248165	-1.545138	-0.130101
C23	C	0.418580	-1.468654	0.000012
C24	C	0.559526	-1.472372	0.000010
N25	N	0.186565	-1.475684	0.353643
C26	C	0.298260	-1.034139	0.000008
C27	C	0.294427	-0.890934	0.000006
N28	N	0.186559	-1.475720	-0.353615
C29	C	0.105075	-1.555399	0.421421
C30	C	0.105071	-1.555419	0.578584
H31	H	-0.398318	-1.281784	-0.093457
H32	H	-0.399926	-1.281995	0.091925
H33	H	0.090430	-0.906704	-0.000001
H34	H	0.256334	-1.407473	0.588107
H35	H	0.035306	-1.623628	0.363100
N36	N	-0.194653	-1.487593	0.250649
N37	N	-0.231473	-1.527347	0.365286
H38	H	-0.193741	-1.486263	0.450759
H39	H	0.386988	-0.826548	-0.000001
N40	N	0.070447	-1.056556	-0.000017
N41	N	-0.006529	-1.080271	-0.095700
H42	H	-0.091064	-1.043186	-0.095722
H43	H	0.035308	-1.623672	0.636871
H44	H	0.256325	-1.407446	0.411966
H45	H	-0.180499	-1.287821	-0.092910
H46	H	-0.181347	-1.287441	0.093075
H47	H	-0.442646	-1.640766	0.135615
N48	N	-0.429960	-1.479135	0.251286
N49	N	-0.346429	-1.439730	0.335445
H50	H	-0.371376	-1.396018	0.421295
H51	H	-0.225783	-1.647606	0.134445
H52	H	-0.207281	-1.496308	-0.225990
N53	N	-0.434718	-1.487559	-0.251623
N54	N	-0.496817	-1.394050	-0.246313
H55	H	-0.524769	-1.354276	-0.333342
H56	H	-0.442423	-1.644035	-0.129258
N57	N	-0.217815	-1.671977	-0.139925
N58	N	-0.149869	-1.715908	-0.050791
H59	H	-0.128428	-1.805491	-0.057723
N60	N	0.417941	-1.086671	0.000022
N61	N	0.420884	-1.202927	0.000030
H62	H	0.505412	-1.240028	0.000041
