data_functionalizedCrystal
_audit_creation_method	'MofGen! by Chris Wilmer'
_symmetry_space_group_name_H-M	'P1'
_symmetry_Int_Tables_number	1
_symmetry_cell_setting	triclinic
loop_
_symmetry_equiv_pos_as_xyz
  x,y,z
_cell_length_a	15.995292
_cell_length_b	15.995350
_cell_length_c	14.472310
_cell_angle_alpha	90.001162
_cell_angle_beta	89.985801
_cell_angle_gamma	83.480495
loop_
_atom_site_label
_atom_site_type_symbol
_atom_site_fract_x
_atom_site_fract_y
_atom_site_fract_z
O1	O	1.111027	0.107689	-0.076861
O2	O	1.611027	0.607689	0.423139
O3	O	0.867245	0.121067	-0.076857
O4	O	1.367245	0.621067	0.423143
O5	O	0.995800	-0.007511	-0.076858
O6	O	1.495800	0.492489	0.423142
O7	O	0.982472	0.236267	-0.076860
O8	O	1.482472	0.736267	0.423140
O9	O	0.995767	-0.007503	0.076824
O10	O	1.495767	0.492497	0.576824
O11	O	0.867212	0.121075	0.076825
O12	O	1.367212	0.621075	0.576825
O13	O	1.110994	0.107696	0.076821
O14	O	1.610994	0.607696	0.576821
Cu15	Cu	0.989100	0.114386	0.090855
Cu16	Cu	1.489100	0.614386	0.590855
Cu17	Cu	0.989139	0.114378	-0.090892
Cu18	Cu	1.489139	0.614378	0.409108
O19	O	0.982439	0.236275	0.076822
O20	O	1.482439	0.736275	0.576822
C21	C	0.836033	0.120527	-0.000016
C22	C	1.336033	0.620527	0.499984
C23	C	0.743080	0.118894	-0.000014
C24	C	1.243080	0.618894	0.499986
C25	C	0.405341	0.112893	-0.000025
C26	C	0.905341	0.612893	0.499975
C27	C	0.428654	0.205697	-0.000368
C28	C	0.928654	0.705697	0.499632
C29	C	0.525329	0.207461	-0.000018
C30	C	1.025329	0.707461	0.499982
C31	C	0.572897	0.115871	-0.000020
C32	C	1.072897	0.615871	0.499980
C33	C	0.543777	0.069477	0.087737
C34	C	1.043777	0.569477	0.587737
C35	C	0.446986	0.068360	0.087807
C36	C	0.946986	0.568360	0.587807
C37	C	0.447168	0.066457	-0.086958
C38	C	0.947168	0.566457	0.413042
C39	C	0.543661	0.069896	-0.088114
C40	C	1.043661	0.569896	0.411886
C41	C	0.667593	0.117549	-0.000014
C42	C	1.167593	0.617549	0.499986
C43	C	0.310646	0.111212	-0.000024
C44	C	0.810646	0.611212	0.499976
C45	C	0.995232	-0.038702	-0.000019
C46	C	1.495232	0.461298	0.499981
C47	C	0.993580	-0.131652	-0.000024
C48	C	1.493580	0.368348	0.499976
C49	C	0.987648	-0.469398	-0.000021
C50	C	1.487648	0.030602	0.499979
C51	C	0.896094	-0.421945	-0.000364
C52	C	1.396094	0.078055	0.499636
C53	C	0.897746	-0.325255	-0.000018
C54	C	1.397746	0.174745	0.499982
C55	C	0.990591	-0.301838	-0.000023
C56	C	1.490591	0.198162	0.499977
C57	C	1.035730	-0.342921	0.087734
C58	C	1.535730	0.157079	0.587734
C59	C	1.033430	-0.439556	0.087808
C60	C	1.533430	0.060444	0.587808
C61	C	1.035359	-0.439923	-0.086958
C62	C	1.535359	0.060077	0.413042
C63	C	1.035337	-0.342978	-0.088117
C64	C	1.535337	0.157022	0.411883
C65	C	0.992259	-0.207141	-0.000021
C66	C	1.492259	0.292859	0.499979
C67	C	0.985983	-0.564095	-0.000017
C68	C	1.485983	-0.064095	0.499983
C69	C	1.142206	0.108237	-0.000023
C70	C	1.642206	0.608237	0.499977
C71	C	1.235159	0.109870	-0.000030
C72	C	1.735159	0.609870	0.499970
C73	C	0.983006	0.267466	-0.000019
C74	C	1.483006	0.767466	0.499981
C75	C	0.984658	0.360416	-0.000020
C76	C	1.484658	0.860416	0.499980
N77	N	0.989078	0.114392	0.218686
N78	N	1.489078	0.614392	0.718686
N79	N	0.989167	0.114365	-0.218722
N80	N	1.489167	0.614365	0.281278
C81	C	0.989138	0.114374	0.592777
C82	C	1.489138	0.614374	1.092777
C83	C	0.920120	0.182943	0.553612
C84	C	1.420120	0.682943	1.053612
C85	C	0.920279	0.183193	0.446524
C86	C	1.420279	0.683193	0.946524
C87	C	0.989108	0.114383	0.407186
C88	C	1.489108	0.614383	0.907186
C89	C	1.076475	0.133447	0.446022
C90	C	1.576475	0.633447	0.946022
C91	C	1.076087	0.133934	0.553143
C92	C	1.576087	0.633934	1.053143
C93	C	0.971568	0.026538	0.553308
C94	C	1.471568	0.526538	1.053308
C95	C	0.969564	0.027124	0.446180
C96	C	1.469564	0.527124	0.946180
C97	C	0.989096	0.114386	0.302298
C98	C	1.489096	0.614386	0.802298
C99	C	0.989155	0.114373	0.697665
C100	C	1.489155	0.614373	1.197665
H101	H	0.543719	0.244020	0.062997
H102	H	1.043719	0.744020	0.562997
H103	H	1.129049	0.085960	0.579049
H104	H	1.629049	0.585960	1.079049
H105	H	0.854968	0.171775	0.579401
H106	H	1.354968	0.671775	1.079401
H107	H	1.016569	-0.026291	0.419406
H108	H	1.516569	0.473709	0.919406
Br109	Br	0.978519	-0.470048	0.197149
Br110	Br	1.478519	0.029952	0.697149
H111	H	1.129060	0.084832	0.420538
H112	H	1.629060	0.584832	0.920538
Br113	Br	0.980793	-0.297016	-0.196342
Br114	Br	1.480793	0.202984	0.303658
Br115	Br	0.402260	0.121925	0.197145
Br116	Br	0.902260	0.621925	0.697145
H117	H	0.855338	0.171838	0.420269
H118	H	1.355338	0.671838	0.920269
H119	H	0.575644	0.002079	0.090999
H120	H	1.075644	0.502079	0.590999
H121	H	0.859514	-0.440472	-0.063297
H122	H	1.359514	0.059528	0.436703
Br123	Br	0.422727	-0.045045	0.094507
Br124	Br	0.922727	0.454955	0.594507
H125	H	1.100647	-0.471818	0.091786
H126	H	1.600647	0.028182	0.591786
Br127	Br	1.102903	0.238995	0.401292
Br128	Br	1.602903	0.738995	0.901292
H129	H	0.905296	0.012657	0.420799
H130	H	1.405296	0.512657	0.920799
Br131	Br	0.835174	-0.454983	0.103626
Br132	Br	1.335174	0.045017	0.603626
H133	H	0.576632	0.003044	-0.093416
H134	H	1.076632	0.503044	0.406584
Br135	Br	0.577183	0.123182	0.196596
Br136	Br	1.077183	0.623182	0.696596
H137	H	1.004351	-0.314530	0.153044
H138	H	1.504351	0.185470	0.653044
H139	H	0.931185	0.247758	0.580521
H140	H	1.431185	0.747758	1.080521
H141	H	0.861997	-0.297380	0.062999
H142	H	1.361997	0.202620	0.562999
Br143	Br	1.149419	-0.319406	0.093173
Br144	Br	1.649419	0.180594	0.593173
H145	H	0.418855	0.095461	-0.153473
H146	H	0.918855	0.595461	0.346527
H147	H	1.005439	-0.460460	-0.153473
H148	H	1.505439	0.039540	0.346527
H149	H	0.433175	-0.001854	-0.087553
H150	H	0.933175	0.498146	0.412447
Br151	Br	1.148188	-0.317393	-0.096965
Br152	Br	1.648188	0.182607	0.403035
Br153	Br	1.147867	-0.492882	-0.087949
Br154	Br	1.647867	0.007118	0.412051
Br155	Br	1.055456	-0.058510	0.595516
Br156	Br	1.555456	0.441490	1.095516
Br157	Br	0.867672	-0.004007	0.598391
Br158	Br	1.367672	0.495993	1.098391
H159	H	0.400671	0.241465	-0.063303
H160	H	0.900671	0.741465	0.436697
Br161	Br	0.557068	0.268016	-0.104870
Br162	Br	1.057068	0.768016	0.395130
Br163	Br	0.938940	0.291846	0.403789
Br164	Br	1.438940	0.791846	0.903789
H165	H	1.091569	0.197992	0.578118
H166	H	1.591569	0.697992	1.078118
H167	H	0.562245	0.103675	-0.153037
H168	H	1.062245	0.603675	0.346963
Br169	Br	0.838605	-0.277871	-0.104869
Br170	Br	1.338605	0.222129	0.395131
Br171	Br	0.380263	0.265000	0.103932
Br172	Br	0.880263	0.765000	0.603932
