data_functionalizedCrystal
_audit_creation_method	'MofGen! by Chris Wilmer'
_symmetry_space_group_name_H-M	'P1'
_symmetry_Int_Tables_number	1
_symmetry_cell_setting	triclinic
loop_
_symmetry_equiv_pos_as_xyz
  x,y,z
_cell_length_a	14.971486
_cell_length_b	13.930277
_cell_length_c	14.971486
_cell_angle_alpha	89.995568
_cell_angle_beta	83.614129
_cell_angle_gamma	90.001649
loop_
_atom_site_label
_atom_site_type_symbol
_atom_site_fract_x
_atom_site_fract_y
_atom_site_fract_z
O1	O	1.186949	0.079721	0.116550
O2	O	0.926549	0.079747	0.130509
O3	O	1.063728	0.079726	-0.006671
O4	O	1.049769	0.079742	0.253730
O5	O	1.063708	-0.079935	-0.006650
O6	O	0.926529	-0.079915	0.130530
O7	O	1.186929	-0.079941	0.116571
Zn8	Zn	1.056725	-0.105278	0.123554
Zn9	Zn	1.056752	0.105084	0.123526
O10	O	1.049749	-0.079920	0.253751
C11	C	0.893214	-0.000080	0.129895
C12	C	0.793917	-0.000071	0.128024
N13	N	1.056714	-0.248844	0.123572
C14	C	0.736691	-0.000067	0.208614
C15	C	0.643392	-0.000082	0.206850
C16	C	0.607320	-0.000093	0.124497
C17	C	0.664552	-0.000099	0.043902
C18	C	0.757850	-0.000091	0.045666
C19	C	0.470090	-0.000112	0.040231
C20	C	0.376786	-0.000118	0.038466
C21	C	0.355632	-0.000103	0.201415
C22	C	0.448930	-0.000095	0.203179
C23	C	0.506156	-0.000100	0.122584
C24	C	1.111068	-0.701105	0.177849
C25	C	1.002464	-0.701090	0.069167
C26	C	1.002450	-0.600594	0.069181
C27	C	1.056747	-0.550349	0.123529
C28	C	1.111058	-0.600600	0.177863
C29	C	0.948148	-0.550336	0.014842
C30	C	0.948133	-0.449834	0.014853
C31	C	1.002425	-0.399587	0.069207
C32	C	1.056737	-0.449844	0.123544
C33	C	1.111034	-0.399600	0.177892
C34	C	1.165342	-0.449855	0.232234
C35	C	1.165350	-0.550354	0.232217
C36	C	1.002417	-0.299088	0.069224
C37	C	1.111024	-0.299094	0.177906
C38	C	1.220263	-0.000111	0.117185
C39	C	1.319561	-0.000115	0.119056
C40	C	1.063094	-0.000104	-0.039985
C41	C	1.061223	-0.000103	-0.139282
N42	N	1.056771	0.248650	0.123501
C43	C	1.141812	-0.000112	-0.196507
C44	C	1.140049	-0.000102	-0.289807
C45	C	1.057696	-0.000090	-0.325879
C46	C	0.977101	-0.000079	-0.268646
C47	C	0.978865	-0.000082	-0.175349
C48	C	0.973430	-0.000075	-0.463109
C49	C	0.971665	-0.000074	-0.556413
C50	C	1.134614	-0.000095	-0.577567
C51	C	1.136378	-0.000098	-0.484269
C52	C	1.055782	-0.000088	-0.427043
C53	C	1.050384	-0.000088	0.287065
C54	C	1.052254	-0.000082	0.386362
H55	H	0.596802	-0.000078	0.272475
C56	C	1.225087	-0.605631	0.291984
H57	H	1.257416	-0.561316	0.324362
H58	H	1.266216	-0.644821	0.255392
H59	H	1.188473	-0.644850	0.333085
H60	H	0.903911	-0.408925	-0.029395
H61	H	0.516682	-0.000117	-0.025399
C62	C	0.942686	-0.243812	0.009457
H63	H	0.910348	-0.288130	-0.022911
H64	H	0.979291	-0.204588	-0.031639
H65	H	0.901549	-0.204626	0.046055
C66	C	0.624880	-0.000110	-0.046687
H67	H	0.672326	-0.000119	-0.094431
H68	H	0.588924	0.055565	-0.050771
H69	H	0.588925	-0.055797	-0.050754
C70	C	1.232402	-0.000125	-0.156836
H71	H	1.280145	-0.000120	-0.204283
H72	H	1.236473	-0.055803	-0.120876
H73	H	1.236483	0.055559	-0.120885
H74	H	0.766054	-0.000058	0.275675
H75	H	0.347419	-0.000128	-0.028593
H76	H	0.804443	-0.000093	-0.019958
H77	H	0.910047	-0.000063	-0.298024
C78	C	0.488608	-0.000085	0.293765
H79	H	0.441166	-0.000094	0.341513
H80	H	0.524565	0.055593	0.297833
H81	H	0.524563	-0.055769	0.297842
C82	C	0.942742	-0.756356	0.009389
H83	H	0.950523	-0.823407	0.017166
H84	H	0.959291	-0.739869	-0.051782
H85	H	0.881557	-0.739901	0.025919
H86	H	1.205673	-0.000111	-0.336396
H87	H	0.913240	-0.000074	-0.128756
C88	C	1.170756	-0.243833	0.237687
H89	H	1.203103	-0.288158	0.270040
H90	H	1.134147	-0.204636	0.278795
H91	H	1.211884	-0.204621	0.201096
H92	H	0.309033	-0.000103	0.267039
H93	H	1.209555	-0.408932	0.276480
C94	C	1.170804	-0.756380	0.237618
H95	H	1.163040	-0.823430	0.229825
H96	H	1.154249	-0.739921	0.298793
H97	H	1.231986	-0.739898	0.221093
H98	H	0.903950	-0.591253	-0.029413
C99	C	1.226964	-0.000109	-0.444591
H100	H	1.274712	-0.000105	-0.492033
H101	H	1.231032	-0.055786	-0.408629
H102	H	1.231041	0.055576	-0.408641
H103	H	1.200238	-0.000100	-0.624165
H104	H	0.904606	-0.000079	-0.585780
C105	C	0.884776	-0.000065	-0.400162
H106	H	0.835476	-0.000068	-0.435006
H107	H	0.882082	0.055610	-0.363328
H108	H	0.882073	-0.055752	-0.363326
