data_functionalizedCrystal
_audit_creation_method	'MofGen! by Chris Wilmer'
_symmetry_space_group_name_H-M	'P1'
_symmetry_Int_Tables_number	1
_symmetry_cell_setting	triclinic
loop_
_symmetry_equiv_pos_as_xyz
  x,y,z
_cell_length_a	13.262533
_cell_length_b	13.339070
_cell_length_c	11.804365
_cell_angle_alpha	105.112168
_cell_angle_beta	93.582318
_cell_angle_gamma	99.431353
loop_
_atom_site_label
_atom_site_type_symbol
_atom_site_fract_x
_atom_site_fract_y
_atom_site_fract_z
O1	O	1.378749	0.207897	0.347526
O2	O	1.878749	0.707897	0.847526
O3	O	1.091830	0.203620	0.254596
O4	O	1.591830	0.703620	0.754596
O5	O	1.202360	0.056157	0.290399
O6	O	1.702360	0.556157	0.790399
O7	O	1.268219	0.355360	0.311723
O8	O	1.768219	0.855360	0.811723
O9	O	1.173250	0.094936	0.479026
O10	O	1.673250	0.594936	0.979026
O11	O	1.062720	0.242400	0.443223
O12	O	1.562720	0.742400	0.943223
O13	O	1.349639	0.246677	0.536152
O14	O	1.849639	0.746677	1.036152
Cu15	Cu	1.203522	0.248079	0.506911
Cu16	Cu	1.703522	0.748079	1.006911
Cu17	Cu	1.237947	0.202218	0.283838
Cu18	Cu	1.737947	0.702218	0.783838
O19	O	1.239109	0.394140	0.500350
O20	O	1.739109	0.894140	1.000350
C21	C	1.039802	0.219683	0.336773
C22	C	1.539802	0.719683	0.836773
C23	C	0.928142	0.209756	0.300607
C24	C	1.428142	0.709756	0.800607
C25	C	1.176680	0.037067	0.381108
C26	C	1.676680	0.537067	0.881108
C27	C	1.143521	-0.077591	0.370363
C28	C	1.643521	0.422409	0.870363
C29	C	0.549914	0.266344	0.609948
C30	C	1.049914	0.766344	1.109948
C31	C	0.654824	0.275676	0.643932
C32	C	1.154824	0.775676	1.143932
C33	C	0.723158	0.259197	0.558104
C34	C	1.223158	0.759197	1.058104
C35	C	0.686573	0.233384	0.438285
C36	C	1.186573	0.733384	0.938285
C37	C	0.581653	0.224058	0.404297
C38	C	1.081653	0.724058	0.904297
C39	C	0.754898	0.216911	0.352454
C40	C	1.254898	0.716911	0.852454
C41	C	0.718312	0.191098	0.232635
C42	C	1.218312	0.691098	0.732635
C43	C	0.613403	0.181773	0.198653
C44	C	1.113403	0.681773	0.698653
C45	C	0.545068	0.198253	0.284481
C46	C	1.045068	0.698253	0.784481
C47	C	0.859817	0.226237	0.386442
C48	C	1.359817	0.726237	0.886442
C49	C	0.891557	0.183951	0.180791
C50	C	1.391557	0.683951	0.680791
C51	C	0.786647	0.174618	0.146806
C52	C	1.286647	0.674618	0.646806
C53	C	1.401357	-0.424070	0.453873
C54	C	1.901357	0.075930	0.953873
C55	C	1.432514	-0.316342	0.463976
C56	C	1.932514	0.183658	0.963976
C57	C	1.360269	-0.256649	0.440573
C58	C	1.860269	0.243351	0.940573
C59	C	1.256860	-0.304695	0.407067
C60	C	1.756860	0.195305	0.907067
C61	C	1.225699	-0.412431	0.396972
C62	C	1.725699	0.087569	0.896972
C63	C	1.184610	-0.245010	0.383672
C64	C	1.684610	0.254990	0.883672
C65	C	1.081202	-0.293056	0.350166
C66	C	1.581202	0.206944	0.850166
C67	C	1.050046	-0.400782	0.340072
C68	C	1.550046	0.099218	0.840072
C69	C	1.122292	-0.460475	0.363475
C70	C	1.622292	0.039525	0.863475
C71	C	1.215772	-0.137274	0.393767
C72	C	1.715772	0.362726	0.893767
C73	C	1.040114	-0.125635	0.336866
C74	C	1.540114	0.374365	0.836866
C75	C	1.008957	-0.233363	0.326763
C76	C	1.508957	0.266637	0.826763
C77	C	1.401667	0.230614	0.453973
C78	C	1.901667	0.730614	0.953973
C79	C	1.513329	0.240539	0.490131
C80	C	2.013329	0.740539	0.990131
C81	C	1.264789	0.413229	0.409638
C82	C	1.764789	0.913229	0.909638
C83	C	1.297950	0.527886	0.420376
C84	C	1.797950	1.027886	0.920376
N85	N	1.179316	0.280335	0.663811
N86	N	1.679316	0.780335	1.163811
N87	N	1.262159	0.169954	0.126940
N88	N	1.762159	0.669954	0.626940
C89	C	1.320281	0.092475	1.083421
C90	C	1.820281	0.592475	1.583421
C91	C	1.338591	0.068069	0.964690
C92	C	1.838591	0.568069	1.464690
C93	C	1.298773	0.121133	0.889464
C94	C	1.798773	0.621133	1.389464
C95	C	1.240644	0.198608	0.932981
C96	C	1.740644	0.698608	1.432981
C97	C	1.222339	0.223023	1.051726
C98	C	1.722339	0.723023	1.551726
C99	C	1.200831	0.251681	0.857769
C100	C	1.700831	0.751681	1.357769
C101	C	1.142702	0.329156	0.901286
C102	C	1.642702	0.829156	1.401286
C103	C	1.124399	0.353566	1.020019
C104	C	1.624399	0.853566	1.520019
C105	C	1.164217	0.300502	1.095245
C106	C	1.664217	0.800502	1.595245
C107	C	1.219136	0.227266	0.739025
C108	C	1.719136	0.727266	1.239025
C109	C	1.121194	0.357814	0.707330
C110	C	1.621194	0.857814	1.207330
C111	C	1.102884	0.382220	0.826061
C112	C	1.602884	0.882220	1.326061
H113	H	0.889595	0.247256	0.483999
H114	H	1.389595	0.747256	0.983999
Br115	Br	0.402687	0.185613	0.238363
Br116	Br	0.902687	0.685613	0.738363
H117	H	0.494269	0.279766	0.679816
H118	H	0.994269	0.779766	1.179816
H119	H	0.808580	0.266797	0.585782
H120	H	1.308580	0.766797	1.085782
Br121	Br	1.374329	0.020479	1.185515
Br122	Br	1.874329	0.520479	1.685515
Br123	Br	0.563755	0.146763	0.036042
Br124	Br	1.063755	0.646763	0.536042
Br125	Br	1.139358	0.333620	1.256384
Br126	Br	1.639358	0.833620	1.756384
H127	H	0.924760	-0.272497	0.299482
H128	H	1.424760	0.227503	0.799482
H129	H	0.684604	0.296692	0.741489
H130	H	1.184604	0.796692	1.241489
Br131	Br	1.356106	-0.072082	0.439241
Br132	Br	1.856106	0.427918	0.939241
Br133	Br	1.045529	0.458726	1.079088
Br134	Br	1.545529	0.958726	1.579088
Br135	Br	1.323621	0.088009	0.728326
Br136	Br	1.823621	0.588009	1.228326
H137	H	0.756843	0.153602	0.049248
H138	H	1.256843	0.653602	0.549248
H139	H	0.981284	-0.077032	0.317815
H140	H	1.481284	0.422968	0.817815
H141	H	0.947196	0.170535	0.110903
H142	H	1.447196	0.670535	0.610903
Br143	Br	1.080033	-0.606716	0.349611
Br144	Br	1.580033	-0.106716	0.849611
H145	H	1.055554	0.445303	0.861507
H146	H	1.555554	0.945303	1.361507
H147	H	1.088773	0.401026	0.646082
H148	H	1.588773	0.901026	1.146082
Br149	Br	1.499388	-0.505079	0.485657
Br150	Br	1.999388	-0.005079	0.985657
H151	H	1.516708	-0.277231	0.491258
H152	H	2.016708	0.222769	0.991258
Br153	Br	1.417480	-0.037066	0.905632
Br154	Br	1.917480	0.462934	1.405632
H155	H	1.385643	-0.168933	0.448801
H156	H	1.885643	0.331067	0.948801
Br157	Br	0.909703	-0.465981	0.294621
Br158	Br	1.409703	0.034019	0.794621
H159	H	1.266465	0.164186	0.703604
H160	H	1.766465	0.664186	1.203604
