data_functionalizedCrystal
_audit_creation_method	'MofGen! by Chris Wilmer'
_symmetry_space_group_name_H-M	'P1'
_symmetry_Int_Tables_number	1
_symmetry_cell_setting	triclinic
loop_
_symmetry_equiv_pos_as_xyz
  x,y,z
_cell_length_a	12.837943
_cell_length_b	17.038272
_cell_length_c	11.892095
_cell_angle_alpha	94.170821
_cell_angle_beta	85.689438
_cell_angle_gamma	92.970248
loop_
_atom_site_label
_atom_site_type_symbol
_atom_site_fract_x
_atom_site_fract_y
_atom_site_fract_z
O1	O	1.399724	0.200065	-0.093986
O2	O	1.097028	0.189958	-0.093992
O3	O	1.246576	0.081062	-0.093980
O4	O	1.250175	0.308961	-0.093998
O5	O	1.234106	0.090126	0.094026
O6	O	1.084557	0.199022	0.094014
O7	O	1.387254	0.209129	0.094021
Zn8	Zn	1.233926	0.205514	0.123868
Zn9	Zn	1.250356	0.193572	-0.123839
O10	O	1.237705	0.318025	0.094009
C11	C	1.051871	0.191076	0.000010
C12	C	0.935896	0.180893	0.000008
C13	C	0.705733	0.303310	0.000015
C14	C	0.596764	0.293746	0.000013
C15	C	0.608986	0.152201	0.000012
C16	C	0.717955	0.161765	0.000014
C17	C	0.766325	0.237322	0.000013
C18	C	0.875296	0.246885	0.000006
C19	C	0.887516	0.105342	0.000013
C20	C	0.778547	0.095777	0.000012
C21	C	1.237069	0.056221	0.000023
C22	C	1.227305	-0.031301	0.000022
C23	C	1.316945	-0.074719	0.000026
C24	C	1.307766	-0.156956	0.000015
C25	C	1.208945	-0.195773	0.000009
C26	C	1.119299	-0.152349	0.000002
C27	C	1.128480	-0.070114	0.000005
C28	C	1.176511	-0.443954	-0.000008
C29	C	1.167337	-0.526195	-0.000007
C30	C	1.355805	-0.530796	0.000003
C31	C	1.364977	-0.448559	0.000013
C32	C	1.275331	-0.405143	0.000001
C33	C	1.199560	-0.279832	0.000001
C34	C	1.284718	-0.321086	0.000000
C35	C	1.432411	0.208011	0.000016
C36	C	1.548386	0.218194	0.000011
C37	C	1.247213	0.342865	0.000003
C38	C	1.256977	0.430387	-0.000004
N39	N	1.222720	0.213665	0.292921
N40	N	1.261569	0.185416	-0.292892
C41	C	1.339540	0.128657	0.529578
C42	C	1.331715	0.134361	0.647919
C43	C	1.199241	0.230770	0.647947
C44	C	1.207066	0.225067	0.529605
C45	C	1.277219	0.174010	0.470425
C46	C	1.285048	0.168311	0.352082
C47	C	1.152569	0.264716	0.352111
C48	C	1.144745	0.270419	0.470453
H49	H	0.914677	0.308407	0.000008
C50	C	1.473680	-0.405867	0.000005
H51	H	1.525754	-0.443504	-0.000007
H52	H	1.476835	-0.370723	0.065565
H53	H	1.485521	-0.377044	-0.065568
C54	C	0.758944	0.386416	0.000004
H55	H	0.707249	0.424347	0.000007
H56	H	0.805548	0.389925	-0.065558
H57	H	0.796849	0.396250	0.065574
C58	C	1.058632	-0.568896	-0.000014
H59	H	1.066007	-0.624089	0.000001
H60	H	1.025765	-0.557637	-0.065578
H61	H	1.017069	-0.551313	0.065554
H62	H	1.087625	0.311987	0.518651
H63	H	1.103515	-0.408614	-0.000017
H64	H	1.342172	0.126740	0.303898
C65	C	1.084026	0.314615	0.287041
H66	H	1.098731	0.303908	0.208085
H67	H	1.098719	0.368921	0.306442
H68	H	1.012339	0.301791	0.306441
H69	H	1.396668	0.087090	0.481393
H70	H	1.382462	0.097429	0.696078
C71	C	1.010597	-0.195042	-0.000013
H72	H	0.958526	-0.157404	-0.000027
H73	H	0.998742	-0.223870	0.065546
H74	H	1.007454	-0.230182	-0.065587
H75	H	0.936862	0.051609	0.000004
C76	C	0.530117	0.366332	0.000005
H77	H	0.574535	0.412697	-0.000004
H78	H	0.483002	0.368704	0.065564
H79	H	0.491708	0.362382	-0.065569
C80	C	1.029876	-0.022354	0.000004
H81	H	0.969706	-0.057248	0.000010
H82	H	1.033890	0.006664	-0.065557
H83	H	1.025190	0.012979	0.065575
C84	C	1.122013	0.286875	0.713052
H85	H	1.085989	0.313052	0.660876
H86	H	1.159321	0.324686	0.759250
H87	H	1.073047	0.257479	0.759185
C88	C	0.555766	0.069099	0.000025
H89	H	0.482190	0.072857	0.000023
H90	H	0.571790	0.044747	0.065587
H91	H	0.580474	0.038425	-0.065545
C92	C	0.725334	0.012672	0.000007
H93	H	0.651758	0.016425	-0.000001
H94	H	0.741357	-0.011686	0.065564
H95	H	0.750052	-0.017992	-0.065568
C96	C	1.454407	-0.578556	0.000001
H97	H	1.434791	-0.633092	-0.000012
H98	H	1.490286	-0.562869	0.065561
H99	H	1.498972	-0.569180	-0.065572
C100	C	1.425648	-0.032027	0.000032
H101	H	1.477719	-0.069667	0.000022
H102	H	1.428802	0.003115	0.065594
H103	H	1.437496	-0.003203	-0.065538
C104	C	1.406369	-0.204712	0.000030
H105	H	1.466536	-0.169815	0.000050
H106	H	1.411065	-0.240045	-0.065532
H107	H	1.402347	-0.233728	0.065600
C108	C	1.090860	-0.322530	-0.000005
H109	H	1.038783	-0.284897	-0.000012
H110	H	1.079014	-0.351362	0.065550
H111	H	1.087721	-0.357667	-0.065582
H112	H	1.365179	-0.289479	-0.000020
