data_functionalizedCrystal
_audit_creation_method	'MofGen! by Chris Wilmer'
_symmetry_space_group_name_H-M	'P1'
_symmetry_Int_Tables_number	1
_symmetry_cell_setting	triclinic
loop_
_symmetry_equiv_pos_as_xyz
  x,y,z
_cell_length_a	14.519709
_cell_length_b	9.065218
_cell_length_c	7.540329
_cell_angle_alpha	90.003038
_cell_angle_beta	89.995460
_cell_angle_gamma	95.651985
loop_
_atom_site_label
_atom_site_type_symbol
_atom_site_fract_x
_atom_site_fract_y
_atom_site_fract_z
O1	O	0.135225	-1.957864	-0.147492
O2	O	0.468559	-1.624531	0.185842
O3	O	0.801892	-1.291198	0.519175
O4	O	0.146317	-1.528372	-0.147494
O5	O	0.479650	-1.195038	0.185839
O6	O	0.812984	-0.861705	0.519172
O7	O	0.006616	-1.754505	-0.147477
O8	O	0.339949	-1.421172	0.185856
O9	O	0.673283	-1.087839	0.519190
O10	O	0.274926	-1.731731	-0.147509
O11	O	0.608260	-1.398397	0.185824
O12	O	0.941593	-1.065064	0.519158
O13	O	0.006614	-1.754492	0.147488
O14	O	0.339948	-1.421158	0.480821
O15	O	0.673281	-1.087825	0.814155
O16	O	0.146315	-1.528358	0.147471
O17	O	0.479649	-1.195025	0.480804
O18	O	0.812982	-0.861691	0.814137
O19	O	0.135223	-1.957851	0.147473
O20	O	0.468557	-1.624517	0.480807
O21	O	0.801890	-1.291184	0.814140
Cu22	Cu	0.140769	-1.743103	0.174405
Cu23	Cu	0.474103	-1.409770	0.507738
Cu24	Cu	0.807436	-1.076437	0.841071
Cu25	Cu	0.140771	-1.743119	-0.174426
Cu26	Cu	0.474105	-1.409786	0.158908
Cu27	Cu	0.807438	-1.076452	0.492241
O28	O	0.274924	-1.731717	0.147456
O29	O	0.608258	-1.398384	0.480789
O30	O	0.941591	-1.065050	0.814123
C31	C	0.145250	-1.473398	-0.000012
C32	C	0.478584	-1.140065	0.333321
C33	C	0.811917	-0.806732	0.666655
C34	C	0.142063	-1.309615	-0.000013
C35	C	0.475396	-0.976282	0.333321
C36	C	0.808729	-0.642948	0.666654
C37	C	-0.027752	-1.753437	0.000006
C38	C	0.305581	-1.420104	0.333339
C39	C	0.638914	-1.086770	0.666673
C40	C	-0.130157	-1.750257	0.000007
C41	C	0.203176	-1.416923	0.333340
C42	C	0.536510	-1.083590	0.666673
C43	C	0.136290	-2.012824	-0.000013
C44	C	0.469624	-1.679491	0.333321
C45	C	0.802957	-1.346157	0.666654
C46	C	0.139478	-2.176607	-0.000024
C47	C	0.472811	-1.843274	0.333310
C48	C	0.806144	-1.509941	0.666643
C49	C	-0.505138	-1.738547	-0.000039
C50	C	-0.171805	-1.405214	0.333294
C51	C	0.161528	-1.071881	0.666627
C52	C	-0.400807	-1.741799	-0.000026
C53	C	-0.067473	-1.408466	0.333307
C54	C	0.265860	-1.075132	0.666641
C55	C	-0.317651	-1.744402	-0.000015
C56	C	0.015682	-1.411068	0.333319
C57	C	0.349016	-1.077735	0.666652
C58	C	-0.213313	-1.747654	-0.000005
C59	C	0.120021	-1.414321	0.333329
C60	C	0.453354	-1.080987	0.666662
C61	C	0.309293	-1.732785	-0.000031
C62	C	0.642626	-1.399452	0.333303
C63	C	0.975960	-1.066119	0.666636
C64	C	0.411697	-1.735966	-0.000043
C65	C	0.745031	-1.402632	0.333290
C66	C	1.078364	-1.069299	0.666623
N67	N	0.140767	-1.743103	0.419753
N68	N	0.474101	-1.409769	0.753087
N69	N	0.807434	-1.076436	1.086420
N70	N	0.140766	-1.743131	-0.419774
N71	N	0.474099	-1.409798	-0.086441
N72	N	0.807433	-1.076465	0.246893
