data_functionalizedCrystal
_audit_creation_method	'MofGen! by Chris Wilmer'
_symmetry_space_group_name_H-M	'P1'
_symmetry_Int_Tables_number	1
_symmetry_cell_setting	triclinic
loop_
_symmetry_equiv_pos_as_xyz
  x,y,z
_cell_length_a	12.759400
_cell_length_b	11.169417
_cell_length_c	12.759393
_cell_angle_alpha	90.021256
_cell_angle_beta	89.970195
_cell_angle_gamma	89.986417
loop_
_atom_site_label
_atom_site_type_symbol
_atom_site_fract_x
_atom_site_fract_y
_atom_site_fract_z
Zn1	Zn	-0.418245	-1.834921	-0.594034
Zn2	Zn	-0.593961	-1.834797	-0.418356
Zn3	Zn	-0.418293	-1.634209	-0.418368
Zn4	Zn	-0.593879	-1.634200	-0.593993
O5	O	-0.506095	-1.734532	-0.506188
O6	O	-0.441568	-2.002855	-0.570742
O7	O	-0.570712	-1.808140	-0.271337
O8	O	-0.271266	-1.660889	-0.441693
O9	O	-0.570666	-2.002763	-0.441673
O10	O	-0.271231	-1.808352	-0.570754
O11	O	-0.441650	-1.660769	-0.271346
O12	O	-0.441571	-1.466258	-0.441653
O13	O	-0.570527	-1.660874	-0.741019
O14	O	-0.570574	-1.466251	-0.570683
O15	O	-0.441489	-1.808343	-0.741050
O16	O	-0.740971	-1.808132	-0.441632
O17	O	-0.740911	-1.660754	-0.570672
C18	C	-0.506069	-1.422707	-0.506165
C19	C	-0.506084	-1.289307	-0.506181
C20	C	-0.779062	-1.734461	-0.506169
C21	C	-0.895839	-1.734540	-0.506196
C22	C	-0.950592	-1.811291	-0.573455
C23	C	-1.060316	-1.811358	-0.573484
C24	C	-1.060523	-1.657921	-0.438985
C25	C	-0.950801	-1.657849	-0.438963
C26	C	-0.232061	-1.734636	-0.506229
C27	C	-0.115285	-1.734680	-0.506247
C28	C	-0.505994	-1.734622	-0.780221
C29	C	-0.505951	-1.734660	-0.896998
C30	C	-0.506112	-1.047574	-0.506203
C31	C	-0.506096	-1.180974	-0.506188
C32	C	-0.438750	-1.811453	-0.951878
C33	C	-0.438705	-1.811473	-1.061602
C34	C	-0.573070	-1.657904	-1.061557
C35	C	-0.573109	-1.657879	-0.951835
C36	C	-0.506119	-1.734511	-0.233220
C37	C	-0.505866	-1.734706	-0.116444
H38	H	-1.104892	-1.873853	-0.628256
H39	H	-0.627750	-1.595394	-1.106219
O40	O	-1.119818	-1.575227	-0.366464
H41	H	-1.098829	-1.481003	-0.384407
H42	H	-0.627831	-1.595336	-0.907151
O43	O	-0.891306	-1.894004	-0.645966
H44	H	-0.947818	-1.947380	-0.692744
H45	H	-0.906218	-1.595343	-0.384192
O46	O	-0.366311	-1.894253	-0.892727
H47	H	-0.319568	-1.947646	-0.949326
O48	O	-0.366231	-1.894306	-1.120797
H49	H	-0.319548	-1.947695	-1.064228
