data_functionalizedCrystal
_audit_creation_method	'MofGen! by Chris Wilmer'
_symmetry_space_group_name_H-M	'P1'
_symmetry_Int_Tables_number	1
_symmetry_cell_setting	triclinic
loop_
_symmetry_equiv_pos_as_xyz
  x,y,z
_cell_length_a	27.731993
_cell_length_b	27.732048
_cell_length_c	18.366186
_cell_angle_alpha	89.988789
_cell_angle_beta	90.002487
_cell_angle_gamma	82.631525
loop_
_atom_site_label
_atom_site_type_symbol
_atom_site_fract_x
_atom_site_fract_y
_atom_site_fract_z
O1	O	0.640948	0.057392	-0.060362
O2	O	1.140948	0.557392	0.439638
O3	O	0.500150	0.066165	-0.060407
O4	O	1.000150	0.566165	0.439593
O5	O	0.574922	-0.008619	-0.060369
O6	O	1.074922	0.491381	0.439631
O7	O	0.566176	0.132176	-0.060400
O8	O	1.066176	0.632176	0.439600
O9	O	0.574909	-0.008623	0.060730
O10	O	1.074909	0.491377	0.560730
O11	O	0.500138	0.066162	0.060692
O12	O	1.000138	0.566162	0.560692
O13	O	0.640935	0.057389	0.060738
O14	O	1.140935	0.557389	0.560738
Zn15	Zn	0.570534	0.061774	0.079942
Zn16	Zn	1.070534	0.561774	0.579942
Zn17	Zn	0.570551	0.061779	-0.079611
Zn18	Zn	1.070551	0.561779	0.420389
O19	O	0.566163	0.132173	0.060700
O20	O	1.066163	0.632173	0.560700
C21	C	0.482137	0.065983	0.000137
C22	C	0.982137	0.565983	0.500137
C23	C	0.428480	0.065441	0.000120
C24	C	0.928480	0.565441	0.500120
C25	C	0.574732	-0.026628	0.000183
C26	C	1.074732	0.473372	0.500183
C27	C	0.574179	-0.080282	0.000188
C28	C	1.074179	0.419718	0.500188
C29	C	0.045327	0.061512	-0.065855
C30	C	0.545327	0.561512	0.434145
C31	C	0.246984	0.063579	-0.065875
C32	C	0.746984	0.563579	0.434125
O33	O	0.273063	0.063829	-0.122016
O34	O	0.773063	0.563829	0.377984
N35	N	0.272198	0.063836	0.000135
N36	N	0.772198	0.563836	0.500135
C37	C	0.246994	0.063573	0.066154
C38	C	0.746994	0.563573	0.566154
O39	O	0.273068	0.063833	0.122299
O40	O	0.773068	0.563833	0.622299
C41	C	0.045338	0.061502	0.066174
C42	C	0.545338	0.561502	0.566174
C43	C	0.020127	0.061251	0.000160
C44	C	0.520127	0.561251	0.500160
C45	C	0.020116	0.061260	-0.131864
C46	C	0.520116	0.561260	0.368136
C47	C	-0.030296	0.060746	-0.131858
C48	C	0.469704	0.560746	0.368142
C49	C	-0.055496	0.060484	-0.065843
C50	C	0.444504	0.560484	0.434157
C51	C	-0.030285	0.060736	0.000165
C52	C	0.469715	0.560736	0.500165
C53	C	0.020136	0.061235	0.132192
C54	C	0.520136	0.561235	0.632192
C55	C	-0.030281	0.060717	0.132191
C56	C	0.469719	0.560717	0.632191
C57	C	-0.055492	0.060465	0.066177
C58	C	0.444508	0.560465	0.566177
C59	C	-0.105897	0.059961	0.066185
C60	C	0.394103	0.559961	0.566185
N61	N	-0.131110	0.059704	0.000176
N62	N	0.368890	0.559704	0.500176
C63	C	-0.105910	0.059966	-0.065839
C64	C	0.394090	0.559966	0.434161
C65	C	0.352866	0.064661	0.066139
C66	C	0.852866	0.564661	0.566139
C67	C	0.403280	0.065179	0.066135
C68	C	0.903280	0.565179	0.566135
C69	C	0.403267	0.065185	-0.065895
C70	C	0.903267	0.565185	0.434105
C71	C	0.352852	0.064670	-0.065889
C72	C	0.852852	0.564670	0.434111
C73	C	0.327653	0.064404	0.000130
C74	C	0.827653	0.564404	0.500130
C75	C	-0.211778	0.058887	-0.065822
C76	C	0.288222	0.558887	0.434178
C77	C	-0.262195	0.058374	-0.065810
C78	C	0.237805	0.558374	0.434190
C79	C	-0.262177	0.058366	0.066219
C80	C	0.237823	0.558366	0.566219
C81	C	-0.211765	0.058881	0.066208
C82	C	0.288235	0.558881	0.566208
C83	C	-0.186567	0.059139	0.000181
C84	C	0.313433	0.559139	0.500181
O85	O	-0.132006	0.059705	0.122297
O86	O	0.367994	0.559705	0.622297
O87	O	-0.131991	0.059694	-0.121975
O88	O	0.368009	0.559694	0.378025
C89	C	0.095739	0.062026	-0.065861
C90	C	0.595739	0.562026	0.434139
C91	C	0.120950	0.062279	0.000148
C92	C	0.620950	0.562279	0.500148
C93	C	0.095750	0.062017	0.066162
C94	C	0.595750	0.562017	0.566162
C95	C	0.171364	0.062797	0.000143
C96	C	0.671364	0.562797	0.500143
C97	C	0.196564	0.063059	-0.065871
C98	C	0.696564	0.563059	0.434129
C99	C	0.171351	0.062802	-0.131881
C100	C	0.671351	0.562802	0.368119
C101	C	0.120939	0.062288	-0.131875
C102	C	0.620939	0.562288	0.368125
C103	C	0.120963	0.062274	0.132172
C104	C	0.620963	0.562274	0.632172
C105	C	0.171375	0.062788	0.132161
C106	C	0.671375	0.562788	0.632161
C107	C	0.196575	0.063050	0.066147
C108	C	0.696575	0.563050	0.566147
C109	C	0.614884	-0.419105	0.000164
C110	C	1.114884	0.080895	0.500164
C111	C	0.612833	-0.620765	0.000153
C112	C	1.112833	-0.120765	0.500153
O113	O	0.650055	-0.652028	0.000134
O114	O	1.150055	-0.152028	0.500134
N115	N	0.568497	-0.639880	0.000140
N116	N	1.068497	-0.139880	0.500140
C117	C	0.524670	-0.608576	0.000124
C118	C	1.024670	-0.108576	0.500124
O119	O	0.486912	-0.629462	0.000105
O120	O	0.986912	-0.129462	0.500105
C121	C	0.526721	-0.406918	0.000130
C122	C	1.026721	0.093082	0.500130
C123	C	0.571061	-0.387806	0.000151
C124	C	1.071061	0.112194	0.500151
C125	C	0.659220	-0.399993	0.000184
C126	C	1.159220	0.100007	0.500184
C127	C	0.659732	-0.349581	0.000191
C128	C	1.159732	0.150419	0.500191
C129	C	0.615909	-0.318282	0.000178
C130	C	1.115909	0.181718	0.500178
C131	C	0.571573	-0.337394	0.000157
C132	C	1.071573	0.162606	0.500157
C133	C	0.482895	-0.375616	0.000109
C134	C	0.982895	0.124384	0.500109
C135	C	0.483412	-0.325199	0.000108
C136	C	0.983412	0.174801	0.500108
C137	C	0.527751	-0.306087	0.000129
C138	C	1.027751	0.193913	0.500129
C139	C	0.528262	-0.255683	0.000150
C140	C	1.028262	0.244317	0.500150
N141	N	0.572598	-0.236568	0.000164
N142	N	1.072598	0.263432	0.500164
C143	C	0.616422	-0.267867	0.000178
C144	C	1.116422	0.232133	0.500178
C145	C	0.523596	-0.714450	0.000123
C146	C	1.023596	-0.214450	0.500123
C147	C	0.523083	-0.764865	0.000122
C148	C	1.023083	-0.264865	0.500122
C149	C	0.611246	-0.777049	0.000150
C150	C	1.111246	-0.277049	0.500150
C151	C	0.611759	-0.726634	0.000156
C152	C	1.111759	-0.226634	0.500156
C153	C	0.567932	-0.695335	0.000136
C154	C	1.067932	-0.195335	0.500136
C155	C	0.617494	-0.161998	0.000192
C156	C	1.117494	0.338002	0.500192
C157	C	0.618003	-0.111582	0.000202
C158	C	1.118003	0.388418	0.500202
C159	C	0.529839	-0.099401	0.000170
C160	C	1.029839	0.400599	0.500170
C161	C	0.529331	-0.149814	0.000164
C162	C	1.029331	0.350186	0.500164
C163	C	0.573162	-0.181112	0.000173
C164	C	1.073162	0.318888	0.500173
O165	O	0.491060	-0.224392	0.000162
O166	O	0.991060	0.275608	0.500162
O167	O	0.654174	-0.246972	0.000181
O168	O	1.154174	0.253028	0.500181
C169	C	0.614372	-0.469517	0.000158
C170	C	1.114372	0.030483	0.500158
C171	C	0.570036	-0.488630	0.000137
C172	C	1.070036	0.011370	0.500137
C173	C	0.526213	-0.457331	0.000124
C174	C	1.026213	0.042669	0.500124
C175	C	0.569523	-0.539044	0.000137
C176	C	1.069523	-0.039044	0.500137
C177	C	0.613346	-0.570343	0.000151
C178	C	1.113346	-0.070343	0.500151
C179	C	0.657683	-0.551228	0.000164
C180	C	1.157683	-0.051228	0.500164
C181	C	0.658195	-0.500817	0.000171
C182	C	1.158195	-0.000817	0.500171
C183	C	0.481876	-0.476446	0.000110
C184	C	0.981876	0.023554	0.500110
C185	C	0.481368	-0.526858	0.000104
C186	C	0.981368	-0.026858	0.500104
C187	C	0.525191	-0.558157	0.000118
C188	C	1.025191	-0.058157	0.500118
C189	C	0.658949	0.057570	0.000192
C190	C	1.158949	0.557570	0.500192
C191	C	0.712605	0.058113	0.000204
C192	C	1.212605	0.558113	0.500204
C193	C	0.566353	0.150181	0.000147
C194	C	1.066353	0.650181	0.500147
C195	C	0.566906	0.203836	0.000136
C196	C	1.066906	0.703836	0.500136
N197	N	0.570527	0.061771	0.188833
N198	N	1.070527	0.561771	0.688833
N199	N	0.570563	0.061779	-0.188503
N200	N	1.070563	0.561779	0.311497
C201	C	0.603646	0.028673	0.226951
C202	C	1.103646	0.528673	0.726951
C203	C	0.603649	0.028670	0.303178
C204	C	1.103649	0.528670	0.803178
C205	C	0.570537	0.061775	0.341286
C206	C	1.070537	0.561775	0.841286
C207	C	0.537412	0.094876	0.303160
C208	C	1.037412	0.594876	0.803160
C209	C	0.537406	0.094874	0.226933
C210	C	1.037406	0.594874	0.726933
C211	C	0.563875	0.105848	0.462036
C212	C	1.063875	0.605848	0.962036
C213	C	0.563884	0.105850	0.538261
C214	C	1.063884	0.605850	1.038261
C215	C	0.570551	0.061781	0.576394
C216	C	1.070551	0.561781	1.076394
C217	C	0.577220	0.017707	0.538292
C218	C	1.077220	0.517707	1.038292
C219	C	0.577214	0.017705	0.462066
C220	C	1.077214	0.517705	0.962066
C221	C	0.570539	0.061780	0.423941
C222	C	1.070539	0.561780	0.923941
C223	C	0.603676	0.028677	0.697166
C224	C	1.103676	0.528677	1.197166
C225	C	0.603675	0.028675	0.773395
C226	C	1.103675	0.528675	1.273395
C227	C	0.537440	0.094884	0.773375
C228	C	1.037440	0.594884	1.273375
C229	C	0.537438	0.094883	0.697147
C230	C	1.037438	0.594883	1.197147
C231	C	0.570558	0.061780	0.659047
C232	C	1.070558	0.561780	1.159047
H233	H	-0.282720	0.058171	-0.119569
H234	H	0.217280	0.558171	0.380431
Br235	Br	0.492470	0.139800	0.354874
Br236	Br	0.992470	0.639800	0.854874
H237	H	0.493226	-0.165375	0.000167
H238	H	0.993226	0.334625	0.500167
H239	H	0.582643	-0.018182	0.431047
H240	H	1.082643	0.481818	0.931047
Br241	Br	0.492497	0.139807	0.825086
Br242	Br	0.992497	0.639807	1.325086
Br243	Br	0.318674	0.064306	0.155746
Br244	Br	0.818674	0.564306	0.655746
H245	H	0.191897	0.062997	0.185922
H246	H	0.691897	0.562997	0.685922
Br247	Br	0.054307	0.061614	-0.221467
Br248	Br	0.554307	0.561614	0.278533
Br249	Br	0.492455	0.139796	0.175198
Br250	Br	0.992455	0.639796	0.675198
H251	H	-0.191268	0.059098	-0.119587
H252	H	0.308732	0.559098	0.380413
Br253	Br	0.054339	0.061578	0.221789
Br254	Br	0.554339	0.561578	0.721789
Br255	Br	-0.064503	0.060401	-0.221453
Br256	Br	0.435497	0.560401	0.278547
Br257	Br	0.318642	0.064328	-0.155483
Br258	Br	0.818642	0.564328	0.344517
H259	H	0.423793	0.065400	-0.119646
H260	H	0.923793	0.565400	0.380354
H261	H	0.510471	0.121836	0.666110
H262	H	1.010471	0.621836	1.166110
H263	H	0.100416	0.062083	-0.185630
H264	H	0.600416	0.562083	0.314370
H265	H	0.646929	-0.802542	0.000162
H266	H	1.146929	-0.302542	0.500162
Br267	Br	0.717157	-0.593716	0.000189
Br268	Br	1.217157	-0.093716	0.500189
H269	H	0.486977	-0.780421	0.000118
H270	H	0.986977	-0.280421	0.500118
Br271	Br	0.676980	-0.204466	0.000203
Br272	Br	1.176980	0.295534	0.500203
Br273	Br	0.470368	-0.056915	0.000152
Br274	Br	0.970368	0.443085	0.500152
H275	H	0.694908	-0.425472	0.000193
H276	H	1.194908	0.074528	0.500193
H277	H	0.487905	-0.688970	0.000107
H278	H	0.987905	-0.188970	0.500107
Br279	Br	0.422395	-0.433975	0.000088
Br280	Br	0.922395	0.066025	0.500088
H281	H	0.446789	-0.391168	0.000087
H282	H	0.946789	0.108832	0.500087
Br283	Br	0.205561	0.063161	-0.221471
Br284	Br	0.705561	0.563161	0.278529
H285	H	0.630613	0.001717	0.195932
H286	H	1.130613	0.501717	0.695932
H287	H	0.630620	0.001717	0.334219
H288	H	1.130620	0.501717	0.834219
Br289	Br	0.718373	-0.474887	0.000195
Br290	Br	1.218373	0.025113	0.500195
Br291	Br	0.437488	0.065533	0.155729
Br292	Br	0.937488	0.565533	0.655729
Br293	Br	-0.064476	0.060351	0.221794
Br294	Br	0.435524	0.560351	0.721794
Br295	Br	0.421187	-0.552789	0.000081
Br296	Br	0.921187	-0.052789	0.500081
Br297	Br	-0.177549	0.059230	0.155799
Br298	Br	0.322451	0.559230	0.655799
Br299	Br	-0.296387	0.058013	0.155806
Br300	Br	0.203613	0.558013	0.655806
H301	H	0.100451	0.062058	0.185930
H302	H	0.600451	0.562058	0.685930
Br303	Br	0.586275	-0.042106	0.590034
Br304	Br	1.086275	0.457894	1.090034
H305	H	0.647864	-0.711077	0.000172
H306	H	1.147864	-0.211077	0.500172
Br307	Br	0.719910	-0.323652	0.000199
Br308	Br	1.219910	0.176348	0.500199
Br309	Br	0.648622	-0.016249	0.645457
Br310	Br	1.148622	0.483751	1.145457
Br311	Br	0.423930	-0.282724	0.000078
Br312	Br	0.923930	0.217276	0.500078
Br313	Br	0.554875	0.165663	0.410291
Br314	Br	1.054875	0.665663	0.910291
H315	H	0.654110	-0.096024	0.000221
H316	H	1.154110	0.403976	0.500221
H317	H	0.630644	0.001719	0.804431
H318	H	1.130644	0.501719	1.304431
Br319	Br	0.554839	0.165664	0.589962
Br320	Br	1.054839	0.665664	1.089962
