data_functionalizedCrystal
_audit_creation_method	'MofGen! by Chris Wilmer'
_symmetry_space_group_name_H-M	'P1'
_symmetry_Int_Tables_number	1
_symmetry_cell_setting	triclinic
loop_
_symmetry_equiv_pos_as_xyz
  x,y,z
_cell_length_a	19.851628
_cell_length_b	21.606444
_cell_length_c	21.606444
_cell_angle_alpha	59.990220
_cell_angle_beta	89.999145
_cell_angle_gamma	60.007031
loop_
_atom_site_label
_atom_site_type_symbol
_atom_site_fract_x
_atom_site_fract_y
_atom_site_fract_z
Zr1	Zr	0.648906	0.677582	-0.081369
O2	O	0.541353	0.806703	-0.180211
O3	O	0.681876	0.548454	-0.051053
O4	O	0.681877	0.677588	-0.180196
O5	O	0.541350	0.677567	0.050786
O6	O	0.792726	0.677600	-0.180202
O7	O	0.541351	0.677569	-0.051068
O8	O	0.792723	0.446604	0.050811
O9	O	0.541353	0.908563	-0.180228
O10	O	0.778663	0.601578	-0.038146
O11	O	0.695937	0.601567	0.037870
O12	O	0.695939	0.753605	-0.114179
O13	O	0.613213	0.753594	-0.038163
Zr14	Zr	0.825695	0.677597	0.081066
Zr15	Zr	0.825697	0.677601	-0.081378
Zr16	Zr	0.648904	0.677578	0.081075
Zr17	Zr	0.648906	0.840037	-0.081396
Zr18	Zr	0.825694	0.515142	0.081094
O19	O	0.792725	0.806724	0.050751
O20	O	0.792727	0.806730	-0.180223
O21	O	0.541351	0.806697	0.050764
O22	O	0.933248	0.548476	0.179908
O23	O	0.933250	0.548482	-0.051066
O24	O	0.681874	0.548449	0.179921
O25	O	0.933250	0.677612	-0.051088
O26	O	0.792724	0.677591	0.179894
O27	O	0.681875	0.677579	0.179900
O28	O	0.933250	0.677609	0.050766
O29	O	0.681879	0.908578	-0.180235
O30	O	0.792722	0.446601	0.179933
O31	O	0.933248	0.446616	0.179925
O32	O	0.933248	0.446619	0.050804
O33	O	0.541353	0.908560	-0.051106
O34	O	0.681878	0.908575	-0.051113
O35	O	0.778662	0.601574	0.113877
O36	O	0.861388	0.601585	0.037861
O37	O	0.778664	0.753612	-0.038172
O38	O	0.695938	0.753601	0.037844
C39	C	0.737299	0.474383	-0.000117
C40	C	0.737299	0.405416	-0.000106
C41	C	0.676229	0.429146	-0.056230
C42	C	0.676232	0.364357	-0.056246
C43	C	0.737300	0.275838	-0.000133
C44	C	0.798376	0.252109	0.055994
C45	C	0.798377	0.316898	0.056006
C46	C	0.798376	-0.009178	0.055947
C47	C	0.798369	-0.073966	0.055932
C48	C	0.676231	0.038281	-0.056305
C49	C	0.676231	0.103070	-0.056293
C50	C	0.737309	0.079335	-0.000169
C51	C	0.737307	0.149588	-0.000153
C52	C	0.737300	0.205586	-0.000145
C53	C	0.516162	0.677565	-0.000140
C54	C	0.441109	0.677557	-0.000136
C55	C	0.304848	0.594685	0.041311
C56	C	0.237399	0.636119	0.071346
C57	C	0.303678	0.677580	-0.000146
C58	C	0.237392	0.636141	-0.030154
C59	C	0.170929	0.677596	-0.000154
C60	C	0.237218	0.719014	0.029931
C61	C	0.237221	0.719024	-0.071609
C62	C	0.169760	0.760519	-0.041592
C63	C	0.380153	0.677569	-0.000139
C64	C	0.094452	0.677614	-0.000160
C65	C	0.958439	0.677613	-0.000162
C66	C	1.033491	0.677621	-0.000166
C67	C	0.737302	0.677594	-0.203344
C68	C	0.737302	0.677596	-0.272305
C69	C	0.737302	0.880796	-0.000185
C70	C	0.737302	0.949763	-0.000197
C71	C	0.798370	0.677604	-0.304707
C72	C	0.798372	0.677598	-0.369500
C73	C	0.737303	0.677590	-0.401893
C74	C	0.676233	0.677579	-0.369486
C75	C	0.676234	0.677579	-0.304691
C76	C	0.676226	0.677578	-0.630796
C77	C	0.676227	0.677581	-0.695597
C78	C	0.798363	0.677597	-0.695605
C79	C	0.798365	0.677597	-0.630810
C80	C	0.737297	0.677582	-0.598406
C81	C	0.737296	0.677587	-0.528149
C82	C	0.737300	0.677591	-0.472152
C83	C	0.737299	0.677585	0.203042
C84	C	0.737299	0.677583	0.272003
C85	C	0.958438	0.474407	-0.000128
C86	C	1.033490	0.405448	-0.000121
C87	C	0.737298	0.474378	0.203076
C88	C	0.737297	0.405410	0.272049
C89	C	0.958436	0.474402	0.203064
C90	C	1.033488	0.405442	0.272034
C91	C	0.516164	0.880777	-0.203366
C92	C	0.441113	0.949737	-0.272336
C93	C	0.516163	0.880772	-0.000174
C94	C	0.441111	0.949731	-0.000181
C95	C	0.737303	0.880801	-0.203378
C96	C	0.737304	0.949769	-0.272351
C97	C	1.025554	0.373061	-0.039799
C98	C	1.096066	0.308276	-0.039807
C99	C	1.174514	0.275875	-0.000132
C100	C	1.182449	0.308269	0.039548
C101	C	1.111937	0.373057	0.039551
C102	C	0.780478	0.373025	0.344121
C103	C	0.780474	0.308231	0.408935
C104	C	0.737293	0.275819	0.401675
C105	C	0.694107	0.308210	0.329595
C106	C	0.694107	0.373007	0.264783
C107	C	1.111922	0.373063	0.264743
C108	C	1.182448	0.308277	0.329541
C109	C	1.174538	0.275866	0.401629
C110	C	1.096095	0.308251	0.408918
C111	C	1.025571	0.373041	0.344121
C112	C	0.362679	0.982124	-0.265045
C113	C	0.292153	1.046930	-0.329843
C114	C	0.300063	1.079344	-0.401931
C115	C	0.378506	1.046955	-0.409220
C116	C	0.449030	0.982154	-0.344423
C117	C	0.449047	0.982125	0.039490
C118	C	0.378535	1.046927	0.039480
C119	C	0.300087	1.079330	-0.000197
C120	C	0.292152	1.046934	-0.039874
C121	C	0.362664	0.982136	-0.039868
C122	C	0.780493	0.982161	-0.265066
C123	C	0.780510	1.046955	-0.329868
C124	C	0.737332	1.079361	-0.401953
C125	C	0.694142	1.046962	-0.409236
C126	C	0.694131	0.982165	-0.344436
H127	H	0.626501	0.057601	-0.102007
H128	H	0.385011	1.073294	0.071792
H129	H	0.626496	0.677573	-0.721970
H130	H	1.118379	0.399442	0.206051
H131	H	1.089666	0.281853	0.467621
H132	H	0.848105	0.297570	0.101709
Br133	Br	0.737356	1.167303	-0.489891
Br134	Br	1.270202	0.187947	-0.000144
Br135	Br	0.635540	1.090958	-0.507073
Br136	Br	0.839126	1.090914	-0.319966
H137	H	1.246331	0.281879	0.071850
H138	H	0.961709	0.399395	0.350068
H139	H	0.242678	1.132092	-0.000196
H140	H	0.236727	0.601084	0.131779
H141	H	1.118410	0.399419	0.071866
Br142	Br	0.635503	0.938219	-0.354336
H143	H	0.237817	0.754023	0.055376
Br144	Br	0.839090	0.264285	0.506748
Br145	Br	1.270258	0.187936	0.489562
H146	H	0.237924	0.754030	-0.132029
H147	H	0.356222	0.955736	-0.206353
H148	H	0.236732	0.601092	-0.055531
Br149	Br	0.185706	1.090872	-0.319932
H150	H	0.626511	0.677567	-0.395862
Br151	Br	1.085278	0.264325	-0.093660
Br152	Br	0.593358	0.677559	-0.260713
H153	H	0.362680	0.524594	0.076415
Br154	Br	0.389228	1.090953	-0.507060
Br155	Br	0.593341	0.549276	-0.132383
H156	H	0.228270	1.073326	-0.072178
Br157	Br	0.204343	1.167290	-0.489864
H158	H	0.626502	0.383686	-0.101948
H159	H	0.848096	0.677616	-0.278339
H160	H	0.626500	0.175144	-0.101984
H161	H	0.848102	-0.146046	0.101628
H162	H	0.848109	-0.028514	0.101647
H163	H	0.512893	0.955785	-0.350368
H164	H	0.961684	0.399441	-0.072117
H165	H	0.848103	0.180031	0.101679
H166	H	0.356191	0.955763	-0.072171
H167	H	0.112020	0.830667	-0.076646
Br168	Br	0.881253	0.677604	-0.413473
H169	H	0.815641	0.399408	0.350048
Br170	Br	0.881242	0.677615	-0.586853
H171	H	0.512917	0.955747	0.071805
H172	H	0.848090	0.677606	-0.721993
Br173	Br	0.593349	0.677560	-0.586824
H174	H	0.737300	0.223057	0.454456
H175	H	0.658951	0.281810	0.323695
H176	H	0.658946	0.399366	0.206100
Br177	Br	1.288895	0.264337	0.319630
Br178	Br	0.839098	0.938197	-0.167244
