data_functionalizedCrystal
_audit_creation_method	'MofGen! by Chris Wilmer'
_symmetry_space_group_name_H-M	'P1'
_symmetry_Int_Tables_number	1
_symmetry_cell_setting	triclinic
loop_
_symmetry_equiv_pos_as_xyz
  x,y,z
_cell_length_a	18.050591
_cell_length_b	29.839131
_cell_length_c	29.839135
_cell_angle_alpha	90.015469
_cell_angle_beta	90.019832
_cell_angle_gamma	90.037426
loop_
_atom_site_label
_atom_site_type_symbol
_atom_site_fract_x
_atom_site_fract_y
_atom_site_fract_z
Zn1	Zn	1.135216	-0.178974	0.254080
Zn2	Zn	1.635216	0.321026	0.754080
Zn3	Zn	1.135101	-0.254083	0.178950
Zn4	Zn	1.635101	0.245917	0.678950
Zn5	Zn	1.011038	-0.178963	0.178955
Zn6	Zn	1.511038	0.321037	0.678955
Zn7	Zn	1.010955	-0.254073	0.254044
Zn8	Zn	1.510955	0.245927	0.754044
O9	O	1.073077	-0.216523	0.216507
O10	O	1.573077	0.283477	0.716507
O11	O	1.239126	-0.188947	0.244128
O12	O	1.739126	0.311053	0.744128
O13	O	1.118630	-0.244118	0.116084
O14	O	1.618630	0.255882	0.616084
O15	O	1.027594	-0.116097	0.188938
O16	O	1.527594	0.383903	0.688938
O17	O	1.239041	-0.244129	0.188930
O18	O	1.739041	0.255871	0.688930
O19	O	1.118827	-0.116105	0.244132
O20	O	1.618827	0.383895	0.744132
O21	O	1.027482	-0.188927	0.116087
O22	O	1.527482	0.311073	0.616087
O23	O	0.907102	-0.188917	0.188902
O24	O	1.407102	0.311083	0.688902
O25	O	1.027452	-0.244111	0.316916
O26	O	1.527452	0.255889	0.816916
O27	O	0.907041	-0.244100	0.244069
O28	O	1.407041	0.255900	0.744069
O29	O	1.118746	-0.188936	0.316943
O30	O	1.618746	0.311064	0.816943
O31	O	1.118549	-0.316949	0.188894
O32	O	1.618549	0.183051	0.688894
O33	O	1.027340	-0.316941	0.244065
O34	O	1.527340	0.183059	0.744065
C35	C	0.880125	-0.216506	0.216482
C36	C	1.380125	0.283494	0.716482
C37	C	0.797580	-0.216510	0.216483
C38	C	1.297580	0.283490	0.716483
C39	C	0.598141	-0.186467	0.186552
C40	C	1.098141	0.313533	0.686552
C41	C	0.548706	-0.227440	0.175494
C42	C	1.048706	0.272560	0.675494
C43	C	0.646449	-0.216524	0.216503
C44	C	1.146449	0.283476	0.716503
C45	C	0.548802	-0.175564	0.227559
C46	C	1.048802	0.324436	0.727559
C47	C	0.500464	-0.216533	0.216522
C48	C	1.000464	0.283467	0.716522
C49	C	0.598101	-0.257519	0.205424
C50	C	1.098101	0.242481	0.705424
C51	C	0.598203	-0.205615	0.257508
C52	C	1.098203	0.294385	0.757508
C53	C	0.548790	-0.246617	0.246466
C54	C	1.048790	0.253383	0.746466
C55	C	0.730548	-0.216518	0.216491
C56	C	1.230548	0.283482	0.716491
C57	C	0.416368	-0.216544	0.216534
C58	C	0.916368	0.283456	0.716534
C59	C	1.072943	-0.333246	0.216485
C60	C	1.572943	0.166754	0.716485
C61	C	1.072954	-0.383180	0.216491
C62	C	1.572954	0.116820	0.716491
C63	C	1.120657	-0.692815	0.187822
C64	C	1.620657	-0.192815	0.687822
C65	C	1.120748	-0.880488	0.187839
C66	C	1.620748	-0.380488	0.687839
O67	O	1.161200	-0.904746	0.163447
O68	O	1.661200	-0.404746	0.663447
N69	N	1.073231	-0.903965	0.216541
N70	N	1.573231	-0.403965	0.716541
C71	C	1.025692	-0.880521	0.245243
C72	C	1.525692	-0.380521	0.745243
O73	O	0.985283	-0.904796	0.269659
O74	O	1.485283	-0.404796	0.769659
C75	C	1.025604	-0.692849	0.245227
C76	C	1.525604	-0.192849	0.745227
C77	C	1.073119	-0.669374	0.216520
C78	C	1.573119	-0.169374	0.716520
C79	C	1.168168	-0.669340	0.159118
C80	C	1.668168	-0.169340	0.659118
C81	C	1.168142	-0.622425	0.159112
C82	C	1.668142	-0.122425	0.659112
C83	C	1.120604	-0.598984	0.187810
C84	C	1.620604	-0.098984	0.687810
C85	C	1.073093	-0.622459	0.216515
C86	C	1.573093	-0.122459	0.716515
C87	C	0.978069	-0.669406	0.273931
C88	C	1.478069	-0.169406	0.773931
C89	C	0.978053	-0.622485	0.273925
C90	C	1.478053	-0.122485	0.773925
C91	C	1.025567	-0.599010	0.245218
C92	C	1.525567	-0.099010	0.745218
C93	C	1.025529	-0.552103	0.245207
C94	C	1.525529	-0.052103	0.745207
N95	N	1.073046	-0.528626	0.216505
N96	N	1.573046	-0.028626	0.716505
C97	C	1.120583	-0.552066	0.187807
C98	C	1.620583	-0.052066	0.687807
C99	C	1.025740	-0.979052	0.245248
C100	C	1.525740	-0.479052	0.745248
C101	C	1.025761	-1.025970	0.245252
C102	C	1.525761	-0.525970	0.745252
C103	C	1.120818	-1.025933	0.187849
C104	C	1.620818	-0.525933	0.687849
C105	C	1.120793	-0.979015	0.187843
C106	C	1.620793	-0.479015	0.687843
C107	C	1.073257	-0.955575	0.216546
C108	C	1.573257	-0.455575	0.716546
C109	C	1.120524	-0.453540	0.187797
C110	C	1.620524	0.046460	0.687797
C111	C	1.120491	-0.406621	0.187792
C112	C	1.620491	0.093379	0.687792
C113	C	1.025437	-0.406661	0.245197
C114	C	1.525437	0.093339	0.745197
C115	C	1.025467	-0.453577	0.245200
C116	C	1.525467	0.046423	0.745200
C117	C	1.073016	-0.477015	0.216498
C118	C	1.573016	0.022985	0.716498
O119	O	0.985104	-0.527816	0.269590
O120	O	1.485104	-0.027816	0.769590
O121	O	1.160997	-0.527783	0.163401
O122	O	1.660997	-0.027783	0.663401
C123	C	1.120683	-0.739730	0.187828
C124	C	1.620683	-0.239730	0.687828
C125	C	1.073172	-0.763205	0.216532
C126	C	1.573172	-0.263205	0.716532
C127	C	1.025634	-0.739765	0.245230
C128	C	1.525634	-0.239765	0.745230
C129	C	1.073192	-0.810123	0.216535
C130	C	1.573192	-0.310123	0.716535
C131	C	1.120730	-0.833564	0.187837
C132	C	1.620730	-0.333564	0.687837
C133	C	1.168247	-0.810087	0.159135
C134	C	1.668247	-0.310087	0.659135
C135	C	1.168220	-0.763171	0.159129
C136	C	1.668220	-0.263171	0.659129
C137	C	0.978117	-0.763242	0.273932
C138	C	1.478117	-0.263242	0.773932
C139	C	0.978147	-0.810157	0.273935
C140	C	1.478147	-0.310157	0.773935
C141	C	1.025684	-0.833598	0.245237
C142	C	1.525684	-0.333598	0.745237
C143	C	1.266783	-0.216540	0.216533
C144	C	1.766783	0.283460	0.716533
C145	C	1.349329	-0.216548	0.216543
C146	C	1.849329	0.283452	0.716543
C147	C	1.073103	-0.216524	0.333686
C148	C	1.573103	0.283476	0.833686
C149	C	1.073114	-0.216524	0.383620
C150	C	1.573114	0.283476	0.883620
C151	C	1.073232	-0.099345	0.216540
C152	C	1.573232	0.400655	0.716540
C153	C	1.073298	-0.049410	0.216553
C154	C	1.573298	0.450590	0.716553
C155	C	1.025613	-0.187788	0.693268
C156	C	1.525613	0.312212	1.193268
C157	C	1.025601	-0.187785	0.880941
C158	C	1.525601	0.312215	1.380941
O159	O	0.985219	-0.163362	0.905210
O160	O	1.485219	0.336638	1.405210
N161	N	1.073057	-0.216519	0.904405
N162	N	1.573057	0.283481	1.404405
C163	C	1.120517	-0.245257	0.880948
C164	C	1.620517	0.254743	1.380948
O165	O	1.160875	-0.269699	0.905212
O166	O	1.660875	0.230301	1.405212
C167	C	1.120524	-0.245261	0.693276
C168	C	1.620524	0.254739	1.193276
C169	C	1.073070	-0.216523	0.669814
C170	C	1.573070	0.283477	1.169814
C171	C	0.978162	-0.159053	0.669806
C172	C	1.478162	0.340947	1.169806
C173	C	0.978169	-0.159052	0.622891
C174	C	1.478169	0.340948	1.122891
C175	C	1.025626	-0.187787	0.599437
C176	C	1.525626	0.312213	1.099437
C177	C	1.073076	-0.216522	0.622899
C178	C	1.573076	0.283478	1.122899
C179	C	1.167979	-0.274001	0.669820
C180	C	1.667979	0.225999	1.169820
C181	C	1.167975	-0.274001	0.622899
C182	C	1.667975	0.225999	1.122899
C183	C	1.120521	-0.245262	0.599437
C184	C	1.620521	0.254738	1.099437
C185	C	1.120540	-0.245256	0.552530
C186	C	1.620540	0.254744	1.052530
N187	N	1.073084	-0.216523	0.529066
N188	N	1.573084	0.283477	1.029066
C189	C	1.025627	-0.187788	0.552519
C190	C	1.525627	0.312212	1.052519
C191	C	1.120510	-0.245252	0.979479
C192	C	1.620510	0.254748	1.479479
C193	C	1.120509	-0.245250	1.026397
C194	C	1.620509	0.254750	1.526397
C195	C	1.025593	-0.187779	1.026386
C196	C	1.525593	0.312221	1.526386
C197	C	1.025598	-0.187779	0.979468
C198	C	1.525598	0.312221	1.479468
C199	C	1.073054	-0.216518	0.956015
C200	C	1.573054	0.283482	1.456015
C201	C	1.025644	-0.187789	0.453993
C202	C	1.525644	0.312211	0.953993
C203	C	1.025657	-0.187789	0.407074
C204	C	1.525657	0.312211	0.907074
C205	C	1.120570	-0.245261	0.407088
C206	C	1.620570	0.254739	0.907088
C207	C	1.120560	-0.245259	0.454004
C208	C	1.620560	0.254741	0.954004
C209	C	1.073091	-0.216522	0.477455
C210	C	1.573091	0.283478	0.977455
O211	O	1.160895	-0.269671	0.528232
O212	O	1.660895	0.230329	1.028232
O213	O	0.985262	-0.163356	0.528247
O214	O	1.485262	0.336644	1.028247
C215	C	1.025607	-0.187789	0.740184
C216	C	1.525607	0.312211	1.240184
C217	C	1.073057	-0.216525	0.763645
C218	C	1.573057	0.283475	1.263645
C219	C	1.120515	-0.245259	0.740191
C220	C	1.620515	0.254741	1.240191
C221	C	1.073057	-0.216523	0.810563
C222	C	1.573057	0.283477	1.310563
C223	C	1.025600	-0.187788	0.834017
C224	C	1.525600	0.312212	1.334017
C225	C	0.978143	-0.159055	0.810553
C226	C	1.478143	0.340945	1.310553
C227	C	0.978150	-0.159054	0.763637
C228	C	1.478150	0.340946	1.263637
C229	C	1.167971	-0.273992	0.763655
C230	C	1.667971	0.226008	1.263655
C231	C	1.167961	-0.273991	0.810571
C232	C	1.667961	0.226009	1.310571
C233	C	1.120504	-0.245256	0.834025
C234	C	1.620504	0.254744	1.334025
C235	C	1.073051	-0.216528	1.099785
C236	C	1.573051	0.283472	1.599785
C237	C	1.073052	-0.216515	1.049850
C238	C	1.573052	0.283485	1.549850
H239	H	1.159183	-0.387509	0.164414
H240	H	1.659183	0.112491	0.664414
Br241	Br	0.961226	-0.148784	0.485813
Br242	Br	1.461226	0.351216	0.985813
H243	H	1.206834	-0.603314	0.135738
H244	H	1.706834	-0.103314	0.635738
Br245	Br	0.913745	-0.120050	0.731804
Br246	Br	1.413745	0.379950	1.231804
H247	H	0.987014	-0.164385	0.387974
H248	H	1.487014	0.335615	0.887974
H249	H	1.159526	-1.045027	0.164481
H250	H	1.659526	-0.545027	0.664481
Br251	Br	0.961194	-0.148776	0.947632
Br252	Br	1.461194	0.351224	1.447632
Br253	Br	0.634258	-0.144146	0.144293
Br254	Br	1.134258	0.355854	0.644293
H255	H	0.619961	-0.196369	0.292168
H256	H	1.119961	0.303631	0.792168
Br257	Br	1.185056	-0.485342	0.148844
Br258	Br	1.685056	0.014658	0.648844
H259	H	0.986779	-0.472691	0.268577
H260	H	1.486779	0.027309	0.768577
Br261	Br	0.961187	-0.148782	1.058225
Br262	Br	1.461187	0.351218	1.558225
H263	H	0.939374	-0.688511	0.297305
H264	H	1.439374	-0.188511	0.797305
Br265	Br	0.913760	-0.120050	0.591057
Br266	Br	1.413760	0.379950	1.091057
H267	H	0.526965	-0.236674	0.140824
H268	H	1.026965	0.263326	0.640824
H269	H	1.206614	-0.297394	0.744564
H270	H	1.706614	0.202606	1.244564
H271	H	0.986730	-0.387569	0.268561
H272	H	1.486730	0.112431	0.768561
Br273	Br	0.913538	-0.590676	0.312883
Br274	Br	1.413538	-0.090676	0.812883
H275	H	1.206911	-0.744061	0.135754
H276	H	1.706911	-0.244061	0.635754
H277	H	0.527258	-0.272068	0.271803
H278	H	1.027258	0.227932	0.771803
H279	H	1.159484	-0.959904	0.164468
H280	H	1.659484	-0.459904	0.664468
Br281	Br	0.913654	-0.842010	0.312897
Br282	Br	1.413654	-0.342010	0.812897
H283	H	1.206951	-0.829180	0.135766
H284	H	1.706951	-0.329180	0.635766
H285	H	0.939407	-0.744160	0.297303
H286	H	1.439407	-0.244160	0.797303
Br287	Br	0.512699	-0.117826	0.243132
Br288	Br	1.012699	0.382174	0.743132
Br289	Br	1.184925	-0.284246	1.058231
Br290	Br	1.684925	0.215754	1.558231
H291	H	1.206883	-0.688421	0.135748
H292	H	1.706883	-0.188421	0.635748
H293	H	1.206625	-0.297401	0.603806
H294	H	1.706625	0.202599	1.103806
Br295	Br	0.634039	-0.315277	0.189783
Br296	Br	1.134039	0.184723	0.689783
Br297	Br	1.232373	-0.312995	0.842406
Br298	Br	1.732373	0.187005	1.342406
H299	H	1.159210	-0.268655	0.473107
H300	H	1.659210	0.231345	0.973107
Br301	Br	1.184924	-0.284257	0.947656
Br302	Br	1.684924	0.215743	1.447656
Br303	Br	1.232380	-0.313009	0.701648
Br304	Br	1.732380	0.186991	1.201648
Br305	Br	0.961263	-1.057823	0.284206
Br306	Br	1.461263	-0.557823	0.784206
Br307	Br	1.184978	-0.284253	0.375249
Br308	Br	1.684978	0.215747	0.875249
Br309	Br	0.913742	-0.120056	0.842392
Br310	Br	1.413742	0.379944	1.342392
H311	H	0.987028	-0.959970	0.268622
H312	H	1.487028	-0.459970	0.768622
H313	H	0.939513	-0.135653	0.688898
H314	H	1.439513	0.364347	1.188898
