data_functionalizedCrystal
_audit_creation_method	'MofGen! by Chris Wilmer'
_symmetry_space_group_name_H-M	'P1'
_symmetry_Int_Tables_number	1
_symmetry_cell_setting	triclinic
loop_
_symmetry_equiv_pos_as_xyz
  x,y,z
_cell_length_a	16.109301
_cell_length_b	27.732048
_cell_length_c	14.586319
_cell_angle_alpha	89.991275
_cell_angle_beta	89.999213
_cell_angle_gamma	83.052068
loop_
_atom_site_label
_atom_site_type_symbol
_atom_site_fract_x
_atom_site_fract_y
_atom_site_fract_z
O1	O	1.102362	0.062130	-0.076193
O2	O	0.860204	0.069862	-0.076208
O3	O	0.988804	-0.004369	-0.076183
O4	O	0.973762	0.136361	-0.076218
O5	O	0.988795	-0.004370	0.076298
O6	O	0.860195	0.069861	0.076272
O7	O	1.102353	0.062129	0.076288
Cu8	Cu	0.981273	0.065995	0.090203
Cu9	Cu	0.981283	0.065996	-0.090123
O10	O	0.973753	0.136360	0.076262
C11	C	0.829228	0.069548	0.000030
C12	C	0.736945	0.068609	0.000025
C13	C	0.514154	0.110473	0.000025
C14	C	0.427445	0.109587	0.000031
C15	C	0.448409	0.021514	0.000050
C16	C	0.535117	0.022401	0.000050
C17	C	0.567987	0.066882	0.000033
C18	C	0.394570	0.065109	0.000039
C19	C	0.300556	0.064148	0.000045
C20	C	0.662007	0.067843	0.000028
C21	C	0.988483	-0.022378	0.000060
C22	C	0.987533	-0.076037	0.000068
C23	C	1.057541	-0.414559	0.000025
C24	C	1.054013	-0.616233	0.000012
O25	O	1.118031	-0.647221	-0.000024
N26	N	0.977759	-0.635676	0.000008
C27	C	0.902381	-0.604697	0.000001
O28	O	0.837441	-0.625862	-0.000012
C29	C	0.905910	-0.403024	0.000008
C30	C	0.982169	-0.383584	0.000021
C31	C	1.133794	-0.395119	0.000038
C32	C	1.134675	-0.344703	0.000046
C33	C	1.059303	-0.313728	0.000042
C34	C	0.983050	-0.333168	0.000029
C35	C	0.830533	-0.372045	-0.000006
C36	C	0.831422	-0.321624	-0.000006
C37	C	0.907681	-0.302184	0.000007
C38	C	0.908559	-0.251777	0.000034
N39	N	0.984814	-0.232334	0.000038
C40	C	1.060186	-0.263310	0.000042
C41	C	0.900534	-0.710579	-0.000000
C42	C	0.899652	-0.760997	-0.000000
C43	C	1.051284	-0.772530	0.000009
C44	C	1.052166	-0.722111	0.000016
C45	C	0.976789	-0.691136	0.000004
C46	C	1.062030	-0.157433	0.000060
C47	C	1.062905	-0.107012	0.000072
C48	C	0.911273	-0.095484	0.000058
C49	C	0.910398	-0.145900	0.000051
C50	C	0.985783	-0.176874	0.000049
O51	O	0.844576	-0.220761	0.000059
O52	O	1.125116	-0.242135	0.000035
C53	C	1.056660	-0.464975	0.000017
C54	C	0.980407	-0.484415	0.000005
C55	C	0.905035	-0.453440	0.000001
C56	C	0.979525	-0.534833	0.000005
C57	C	1.054897	-0.565808	0.000009
C58	C	1.131151	-0.546365	0.000013
C59	C	1.132032	-0.495950	0.000021
C60	C	0.828781	-0.472883	-0.000004
C61	C	0.827906	-0.523299	-0.000011
C62	C	0.903278	-0.554274	-0.000007
C63	C	1.133328	0.062443	0.000048
C64	C	1.225612	0.063382	0.000047
C65	C	0.974073	0.154369	0.000017
C66	C	0.975024	0.208028	0.000004
N67	N	0.981272	0.065994	0.217035
N68	N	0.981291	0.065994	-0.216955
C69	C	1.038234	0.033135	0.452053
C70	C	1.038237	0.033134	0.548034
C71	C	0.924323	0.098854	0.548020
C72	C	0.924317	0.098852	0.452041
C73	C	0.981278	0.065993	0.404060
C74	C	0.981286	0.065994	0.596020
C75	C	0.981288	0.065993	0.700087
C76	C	0.981275	0.065994	0.299986
H77	H	0.578951	-0.013099	0.000059
O78	O	0.868955	0.130820	0.405556
C79	C	0.818672	0.159817	0.468485
H80	H	0.852752	0.160372	0.536900
H81	H	0.805489	0.198416	0.440736
H82	H	0.757116	0.144111	0.478704
H83	H	0.421636	-0.014700	0.000069
H84	H	1.195175	-0.420334	0.000038
O85	O	0.827362	-0.680443	0.000116
C86	C	0.823317	-0.650949	0.079099
H87	H	0.889271	-0.648400	0.105429
H88	H	0.791841	-0.613054	0.061337
H89	H	0.785567	-0.667541	0.134396
H90	H	0.765802	-0.539121	-0.000014
O91	O	1.204390	-0.576440	0.000177
C92	C	1.250742	-0.567636	0.079137
H93	H	1.206630	-0.550404	0.134337
H94	H	1.284543	-0.603415	0.105638
H95	H	1.298535	-0.541969	0.061288
H96	H	1.125007	-0.091187	0.000085
H97	H	1.084614	0.006379	0.412988
H98	H	0.768435	-0.387864	-0.000022
H99	H	1.123416	-0.182646	0.000055
O100	O	1.208828	-0.325903	0.000011
C101	C	1.275154	-0.364062	0.000034
H102	H	1.252289	-0.398305	-0.028835
H103	H	1.328439	-0.353530	-0.044233
H104	H	1.298369	-0.371206	0.073188
H105	H	1.112655	-0.797759	0.000013
O106	O	0.545946	0.153722	0.000057
C107	C	0.479834	0.192007	0.000029
H108	H	0.421099	0.178463	0.028899
H109	H	0.497554	0.223059	0.044295
H110	H	0.467389	0.205455	-0.073125
H111	H	0.383617	0.145084	0.000026
H112	H	1.084615	0.006377	0.587107
H113	H	1.114263	-0.706287	0.000026
O114	O	0.869080	0.130756	0.594774
C115	C	0.881285	0.123705	0.689780
H116	H	0.947615	0.105649	0.702888
H117	H	0.871569	0.160311	0.726243
H118	H	0.834542	0.099455	0.717032
O119	O	0.825500	-0.779798	-0.000044
C120	C	0.759170	-0.741641	-0.000026
H121	H	0.782035	-0.707391	-0.028890
H122	H	0.705892	-0.752166	-0.044302
H123	H	0.735948	-0.734510	0.073124
O124	O	0.758121	-0.291605	0.000023
C125	C	0.690632	-0.319580	-0.000014
H126	H	0.712231	-0.357213	0.028853
H127	H	0.637855	-0.300985	0.044248
H128	H	0.667238	-0.323162	-0.073172
H129	H	0.767402	-0.447667	-0.000009
O130	O	0.836248	-0.164707	0.000000
C131	C	0.769913	-0.126553	0.000025
H132	H	0.792773	-0.092299	-0.028824
H133	H	0.716639	-0.137077	-0.044259
H134	H	0.746685	-0.119430	0.073176
O135	O	0.838136	-0.065321	0.000012
C136	C	0.855276	-0.016653	0.000040
H137	H	0.920559	-0.014727	-0.028815
H138	H	0.807203	0.006199	-0.044237
H139	H	0.851924	-0.002078	0.073193
H140	H	1.194130	-0.480127	0.000032
