data_functionalizedCrystal
_audit_creation_method	'MofGen! by Chris Wilmer'
_symmetry_space_group_name_H-M	'P1'
_symmetry_Int_Tables_number	1
_symmetry_cell_setting	triclinic
loop_
_symmetry_equiv_pos_as_xyz
  x,y,z
_cell_length_a	10.723023
_cell_length_b	14.044190
_cell_length_c	9.198806
_cell_angle_alpha	89.991997
_cell_angle_beta	89.996513
_cell_angle_gamma	88.829662
loop_
_atom_site_label
_atom_site_type_symbol
_atom_site_fract_x
_atom_site_fract_y
_atom_site_fract_z
O1	O	1.670503	0.133036	-0.120896
O2	O	2.170503	0.633036	0.379104
O3	O	1.308625	0.145772	-0.120904
O4	O	1.808625	0.645772	0.379096
O5	O	1.484127	0.001384	-0.120871
O6	O	1.984127	0.501384	0.379129
O7	O	1.495000	0.277424	-0.120928
O8	O	1.995000	0.777424	0.379072
O9	O	1.484112	0.001384	0.120914
O10	O	1.984112	0.501384	0.620914
O11	O	1.308609	0.145771	0.120881
O12	O	1.808609	0.645771	0.620881
O13	O	1.670487	0.133036	0.120889
O14	O	2.170487	0.633036	0.620889
Cu15	Cu	1.489547	0.139404	0.142962
Cu16	Cu	1.989547	0.639404	0.642962
Cu17	Cu	1.489565	0.139404	-0.142977
Cu18	Cu	1.989565	0.639404	0.357023
O19	O	1.494985	0.277424	0.120857
O20	O	1.994985	0.777424	0.620857
C21	C	1.262025	0.144845	-0.000012
C22	C	1.762025	0.644845	0.499988
C23	C	1.123193	0.142073	-0.000013
C24	C	1.623193	0.642073	0.499987
C25	C	1.061289	0.140836	0.125238
C26	C	1.561289	0.640836	0.625238
C27	C	0.917799	0.137971	0.125239
C28	C	1.417799	0.637971	0.625239
C29	C	1.479363	-0.033962	0.000025
C30	C	1.979363	0.466038	0.500025
C31	C	1.465175	-0.139280	0.000038
C32	C	1.965175	0.360720	0.500038
C33	C	1.539861	-0.389081	-0.000017
C34	C	2.039861	0.110919	0.499983
C35	C	1.439257	-0.332106	-0.000010
C36	C	1.939257	0.167894	0.499990
C37	C	1.453681	-0.224808	0.000017
C38	C	1.953681	0.275192	0.500017
C39	C	1.525438	-0.496389	-0.000044
C40	C	2.025438	0.003611	0.499956
C41	C	1.717087	0.133963	-0.000006
C42	C	2.217087	0.633963	0.499994
C43	C	1.855919	0.136735	-0.000014
C44	C	2.355919	0.636735	0.499986
C45	C	1.499749	0.312769	-0.000043
C46	C	1.999749	0.812769	0.499957
C47	C	1.513937	0.418088	-0.000065
C48	C	2.013937	0.918088	0.499935
N49	N	1.489543	0.139403	0.344076
N50	N	1.989543	0.639403	0.844076
N51	N	1.489578	0.139398	-0.344091
N52	N	1.989578	0.639398	0.155909
C53	C	1.563205	0.078511	0.416287
C54	C	2.063205	0.578511	0.916287
C55	C	1.563224	0.078508	0.583699
C56	C	2.063224	0.578508	1.083699
H57	H	0.909146	0.137804	-0.107251
H58	H	1.409146	0.637804	0.392749
O59	O	1.131782	0.142250	0.267291
O60	O	1.631782	0.642250	0.767291
H61	H	1.233422	0.144288	0.244998
H62	H	1.733422	0.644288	0.744998
O63	O	1.310817	-0.374232	-0.000007
O64	O	1.810817	0.125768	0.499993
H65	H	1.239342	-0.315940	0.000001
H66	H	1.739342	0.184060	0.500001
O67	O	1.668297	-0.346963	0.000014
O68	O	2.168297	0.153037	0.500014
H69	H	1.659612	-0.268074	0.000046
H70	H	2.159612	0.231926	0.500046
O71	O	1.646691	0.009427	0.334027
O72	O	2.146691	0.509427	0.834027
H73	H	1.633561	0.020260	0.215443
H74	H	2.133561	0.520260	0.715443
O75	O	1.406032	0.208450	0.573658
O76	O	1.906032	0.708450	1.073658
H77	H	1.430424	0.282473	0.602751
H78	H	1.930424	0.782473	1.102751
H79	H	0.864563	0.136913	0.232470
H80	H	1.364563	0.636913	0.732470
O81	O	1.646766	0.009446	0.665938
O82	O	2.146766	0.509446	1.165938
H83	H	1.633664	0.020276	0.784523
H84	H	2.133664	0.520276	1.284523
O85	O	1.406029	0.208473	0.426327
O86	O	1.906029	0.708473	0.926327
H87	H	1.340800	0.168231	0.495709
H88	H	1.840800	0.668231	0.995709
H89	H	1.069961	0.141007	-0.107245
H90	H	1.569961	0.641007	0.392755
