data_functionalizedCrystal
_audit_creation_method	'MofGen! by Chris Wilmer'
_symmetry_space_group_name_H-M	'P1'
_symmetry_Int_Tables_number	1
_symmetry_cell_setting	triclinic
loop_
_symmetry_equiv_pos_as_xyz
  x,y,z
_cell_length_a	18.101398
_cell_length_b	18.101395
_cell_length_c	18.101389
_cell_angle_alpha	89.983159
_cell_angle_beta	89.985654
_cell_angle_gamma	90.029256
loop_
_atom_site_label
_atom_site_type_symbol
_atom_site_fract_x
_atom_site_fract_y
_atom_site_fract_z
Zn1	Zn	1.132121	-0.294944	-0.418650
Zn2	Zn	1.632121	0.205056	0.081350
Zn3	Zn	1.132017	-0.418770	-0.294812
Zn4	Zn	1.632017	0.081230	0.205188
Zn5	Zn	1.008280	-0.294942	-0.294832
Zn6	Zn	1.508280	0.205058	0.205168
Zn7	Zn	1.008231	-0.418744	-0.418622
Zn8	Zn	1.508231	0.081256	0.081378
O9	O	1.070162	-0.356850	-0.356729
O10	O	1.570162	0.143150	0.143271
O11	O	1.235740	-0.311381	-0.402225
O12	O	1.735740	0.188619	0.097775
O13	O	1.115580	-0.402354	-0.191181
O14	O	1.615580	0.097646	0.308819
O15	O	1.024772	-0.191310	-0.311277
O16	O	1.524772	0.308690	0.188723
O17	O	1.235663	-0.402355	-0.311242
O18	O	1.735663	0.097645	0.188758
O19	O	1.115757	-0.191311	-0.402245
O20	O	1.615757	0.308689	0.097755
O21	O	1.024671	-0.311378	-0.191197
O22	O	1.524671	0.188622	0.308803
O23	O	0.904640	-0.311354	-0.311250
O24	O	1.404640	0.188646	0.188750
O25	O	1.024688	-0.402312	-0.522258
O26	O	1.524688	0.097688	-0.022258
O27	O	0.904604	-0.402310	-0.402198
O28	O	1.404604	0.097690	0.097802
O29	O	1.115710	-0.311356	-0.522279
O30	O	1.615710	0.188644	-0.022279
O31	O	1.115532	-0.522399	-0.311215
O32	O	1.615532	-0.022399	0.188785
O33	O	1.024587	-0.522380	-0.402178
O34	O	1.524587	-0.022380	0.097822
C35	C	0.877752	-0.356830	-0.356724
C36	C	1.377752	0.143170	0.143276
C37	C	0.795437	-0.356839	-0.356739
C38	C	1.295437	0.143161	0.143261
C39	C	0.644729	-0.356852	-0.356738
C40	C	1.144729	0.143148	0.143262
C41	C	0.613377	-0.414168	-0.413871
C42	C	1.113377	0.085832	0.086129
C43	C	0.527759	-0.414400	-0.413702
C44	C	1.027759	0.085600	0.086298
C45	C	0.496346	-0.356866	-0.356738
C46	C	0.996346	0.143134	0.143262
C47	C	0.527399	-0.377679	-0.278597
C48	C	1.027399	0.122321	0.221403
C49	C	0.613044	-0.378087	-0.278927
C50	C	1.113044	0.121913	0.221073
C51	C	0.613208	-0.278582	-0.377064
C52	C	1.113208	0.221418	0.122936
C53	C	0.527558	-0.279011	-0.378785
C54	C	1.027558	0.220989	0.121215
C55	C	0.412487	-0.356873	-0.356733
C56	C	0.912487	0.143127	0.143267
C57	C	0.728588	-0.356848	-0.356737
C58	C	1.228588	0.143152	0.143263
C59	C	1.070063	-0.549261	-0.356707
C60	C	1.570063	-0.049261	0.143293
C61	C	1.070088	-0.631575	-0.356722
C62	C	1.570088	-0.131575	0.143278
C63	C	1.070251	-0.930665	-0.356762
C64	C	1.570251	-0.430665	0.143238
C65	C	1.013163	-0.899359	-0.414136
C66	C	1.513163	-0.399359	0.085864
C67	C	1.012892	-0.813741	-0.413956
C68	C	1.512892	-0.313741	0.086044
C69	C	1.070170	-0.782283	-0.356743
C70	C	1.570170	-0.282283	0.143257
C71	C	1.049041	-0.813419	-0.278695
C72	C	1.549041	-0.313419	0.221305
C73	C	1.048673	-0.899065	-0.279039
C74	C	1.548673	-0.399065	0.220961
C75	C	1.148593	-0.899015	-0.376750
C76	C	1.648593	-0.399015	0.123250
C77	C	1.148132	-0.813365	-0.378461
C78	C	1.648132	-0.313365	0.121539
C79	C	1.070126	-0.698424	-0.356728
C80	C	1.570126	-0.198424	0.143272
C81	C	1.070293	-1.014525	-0.356773
C82	C	1.570293	-0.514525	0.143227
C83	C	1.263324	-0.356871	-0.356734
C84	C	1.763324	0.143129	0.143266
C85	C	1.345638	-0.356880	-0.356737
C86	C	1.845638	0.143120	0.143263
C87	C	1.070205	-0.356831	-0.549891
C88	C	1.570205	0.143169	-0.049891
C89	C	1.070223	-0.356823	-0.632205
C90	C	1.570223	0.143177	-0.132205
C91	C	1.070282	-0.163688	-0.356767
C92	C	1.570282	0.336312	0.143233
C93	C	1.070333	-0.081374	-0.356783
C94	C	1.570333	0.418626	0.143217
C95	C	1.070266	-0.356684	-0.931296
C96	C	1.570266	0.143316	-0.431296
C97	C	1.012801	-0.413729	-0.899958
C98	C	1.512801	0.086271	-0.399958
C99	C	1.012956	-0.413994	-0.814340
C100	C	1.512956	0.086006	-0.314340
C101	C	1.070244	-0.356753	-0.782913
C102	C	1.570244	0.143247	-0.282913
C103	C	1.148270	-0.377940	-0.814006
C104	C	1.648270	0.122060	-0.314006
C105	C	1.147949	-0.378314	-0.899651
C106	C	1.647949	0.121686	-0.399651
C107	C	1.050385	-0.278326	-0.899722
C108	C	1.550385	0.221674	-0.399722
C109	C	1.048649	-0.278779	-0.814071
C110	C	1.548649	0.221221	-0.314071
C111	C	1.070237	-0.356791	-0.699054
C112	C	1.570237	0.143209	-0.199054
C113	C	1.070279	-0.356649	-1.015156
C114	C	1.570279	0.143351	-0.515156
C115	C	1.070162	-0.356815	-0.164318
C116	C	1.570162	0.143185	0.335682
C117	C	1.070287	-0.356615	-0.082005
C118	C	1.570287	0.143385	0.417995
H119	H	1.026111	-0.792688	-0.471828
H120	H	1.526111	-0.292688	0.028172
N121	N	0.976615	-0.258743	-0.788576
N122	N	1.476615	0.241257	-0.288576
N123	N	0.941272	-0.301689	-0.747609
N124	N	1.441272	0.198311	-0.247609
H125	H	0.890397	-0.287541	-0.729600
H126	H	1.390397	0.212459	-0.229600
H127	H	0.633784	-0.338125	-0.234898
H128	H	1.133784	0.161875	0.265102
N129	N	0.502019	-0.487167	-0.396790
N130	N	1.002019	0.012833	0.103210
N131	N	0.547309	-0.537939	-0.385069
N132	N	1.047309	-0.037939	0.114931
H133	H	0.529132	-0.589334	-0.373124
H134	H	1.029132	-0.089334	0.126876
N135	N	1.102888	-0.225012	-0.925159
N136	N	1.602888	0.274988	-0.425159
N137	N	1.110785	-0.213879	-0.992857
N138	N	1.610785	0.286121	-0.492857
H139	H	1.147867	-0.176232	-1.010827
H140	H	1.647867	0.323768	-0.510827
N141	N	0.940035	-0.788117	-0.397390
N142	N	1.440035	-0.288117	0.102610
N143	N	0.906222	-0.748576	-0.442783
N144	N	1.406222	-0.248576	0.057217
H145	H	0.854757	-0.730486	-0.431095
H146	H	1.354757	-0.230486	0.068905
N147	N	0.940378	-0.397369	-0.787948
N148	N	1.440378	0.102631	-0.287948
N149	N	0.928075	-0.394725	-0.720048
N150	N	1.428075	0.105275	-0.220048
H151	H	0.876813	-0.382986	-0.701410
H152	H	1.376813	0.117014	-0.201410
N153	N	0.500468	-0.448664	-0.256678
N154	N	1.000468	0.051336	0.243322
N155	N	0.544860	-0.499921	-0.243705
N156	N	1.044860	0.000079	0.256295
H157	H	0.525841	-0.550057	-0.228228
H158	H	1.025841	-0.050057	0.271772
N159	N	0.639249	-0.398058	-0.486767
N160	N	1.139249	0.101942	0.013233
N161	N	0.706998	-0.397969	-0.500147
N162	N	1.206998	0.102031	-0.000147
H163	H	0.725274	-0.386586	-0.551631
H164	H	1.225274	0.113414	-0.051631
N165	N	0.640347	-0.486510	-0.397162
N166	N	1.140347	0.013490	0.102838
N167	N	0.682556	-0.496038	-0.343359
N168	N	1.182556	0.003962	0.156641
H169	H	0.701608	-0.547128	-0.331557
H170	H	1.201608	-0.047128	0.168443
N171	N	1.097306	-0.222622	-0.787219
N172	N	1.597306	0.277378	-0.287219
N173	N	1.072196	-0.169943	-0.750329
N174	N	1.572196	0.330057	-0.250329
H175	H	1.106563	-0.130284	-0.731357
H176	H	1.606563	0.369716	-0.231357
N177	N	1.029629	-0.925140	-0.486964
N178	N	1.529629	-0.425140	0.013036
N179	N	1.029834	-0.992876	-0.500373
N180	N	1.529834	-0.492876	-0.000373
H181	H	1.041483	-1.011081	-0.551808
H182	H	1.541483	-0.511081	-0.051808
N183	N	0.638068	-0.449844	-0.257366
N184	N	1.138068	0.050156	0.242634
N185	N	0.620897	-0.475273	-0.195488
N186	N	1.120897	0.024727	0.304512
H187	H	0.638568	-0.525954	-0.180259
H188	H	1.138568	-0.025954	0.319741
N189	N	1.172777	-0.926051	-0.446925
N190	N	1.672777	-0.426051	0.053075
N191	N	1.231026	-0.962821	-0.451550
N192	N	1.731026	-0.462821	0.048450
H193	H	1.248101	-0.981915	-0.501114
H194	H	1.748101	-0.481915	-0.001114
N195	N	1.169093	-0.450165	-0.924739
N196	N	1.669093	0.049835	-0.424739
N197	N	1.225167	-0.457776	-0.964322
N198	N	1.725167	0.042224	-0.464322
H199	H	1.240099	-0.508522	-0.982040
H200	H	1.740099	-0.008522	-0.482040
H201	H	0.634834	-0.259564	-0.433084
H202	H	1.134834	0.240436	0.066916
N203	N	1.203482	-0.328453	-0.925653
N204	N	1.703482	0.171547	-0.425653
N205	N	1.242355	-0.293493	-0.880544
N206	N	1.742355	0.206507	-0.380544
H207	H	1.281576	-0.258279	-0.898904
H208	H	1.781576	0.241721	-0.398904
H209	H	1.192236	-0.337697	-0.793651
H210	H	1.692236	0.162303	-0.293651
H211	H	0.507053	-0.337213	-0.234859
H212	H	1.007053	0.162787	0.265141
N213	N	1.029117	-0.486145	-0.926958
N214	N	1.529117	0.013855	-0.426958
N215	N	1.090174	-0.515212	-0.913047
N216	N	1.590174	-0.015212	-0.413047
H217	H	1.101702	-0.566355	-0.932117
H218	H	1.601702	-0.066355	-0.432117
N219	N	0.980240	-0.254119	-0.926792
N220	N	1.480240	0.245881	-0.426792
N221	N	0.929016	-0.240429	-0.882551
N222	N	1.429016	0.259571	-0.382551
H223	H	0.879472	-0.223341	-0.901669
H224	H	1.379472	0.276659	-0.401669
H225	H	1.165415	-0.434612	-0.792562
H226	H	1.665415	0.065388	-0.292562
N227	N	0.501427	-0.398108	-0.486376
N228	N	1.001427	0.101892	0.013624
N229	N	0.546304	-0.386487	-0.537577
N230	N	1.046304	0.113513	-0.037577
H231	H	0.527712	-0.374982	-0.588908
H232	H	1.027712	0.125018	-0.088908
H233	H	0.992380	-0.792030	-0.261460
H234	H	1.492380	-0.292030	0.238540
H235	H	1.164065	-0.793013	-0.435900
H236	H	1.664065	-0.293013	0.064100
N237	N	1.098556	-0.925040	-0.223568
N238	N	1.598556	-0.425040	0.276432
N239	N	1.133526	-0.879913	-0.184722
N240	N	1.633526	-0.379913	0.315278
H241	H	1.168747	-0.898254	-0.145538
H242	H	1.668747	-0.398254	0.354462
N243	N	0.976832	-0.924196	-0.257792
N244	N	1.476832	-0.424196	0.242208
N245	N	0.927313	-0.878482	-0.242816
N246	N	1.427313	-0.378482	0.257184
H247	H	0.876572	-0.896227	-0.227809
H248	H	1.376572	-0.396227	0.272191
H249	H	1.192915	-0.791947	-0.339719
H250	H	1.692915	-0.291947	0.160281
H251	H	0.506177	-0.234054	-0.340239
H252	H	1.006177	0.265946	0.159761
N253	N	0.502093	-0.259327	-0.450928
N254	N	1.002093	0.240673	0.049072
N255	N	0.434382	-0.253997	-0.463358
N256	N	0.934382	0.246003	0.036642
H257	H	0.416394	-0.240102	-0.514311
H258	H	0.916394	0.259898	-0.014311
N259	N	0.638647	-0.225022	-0.324862
N260	N	1.138647	0.274978	0.175138
N261	N	0.679811	-0.244311	-0.272895
N262	N	1.179811	0.255689	0.227105
H263	H	0.697781	-0.206490	-0.236024
H264	H	1.197781	0.293510	0.263976
N265	N	0.939999	-0.397258	-0.925792
N266	N	1.439999	0.102742	-0.425792
N267	N	0.929614	-0.343287	-0.967605
N268	N	1.429614	0.156713	-0.467605
H269	H	0.878197	-0.331654	-0.985857
H270	H	1.378197	0.168346	-0.485857
H271	H	1.026082	-0.472075	-0.793856
H272	H	1.526082	0.027925	-0.293856
N273	N	0.940761	-0.926429	-0.397722
N274	N	1.440761	-0.426429	0.102278
N275	N	0.911734	-0.912564	-0.336619
N276	N	1.411734	-0.412564	0.163381
H277	H	0.860601	-0.931684	-0.325022
H278	H	1.360601	-0.431684	0.174978
N279	N	1.099567	-0.787857	-0.223612
N280	N	1.599567	-0.287857	0.276388
N281	N	1.151835	-0.746306	-0.241305
N282	N	1.651835	-0.246306	0.258695
H283	H	1.187521	-0.728251	-0.202404
H284	H	1.687521	-0.228251	0.297596
H285	H	1.191125	-0.919259	-0.334963
H286	H	1.691125	-0.419259	0.165037
