data_functionalizedCrystal
_audit_creation_method	'MofGen! by Chris Wilmer'
_symmetry_space_group_name_H-M	'P1'
_symmetry_Int_Tables_number	1
_symmetry_cell_setting	triclinic
loop_
_symmetry_equiv_pos_as_xyz
  x,y,z
_cell_length_a	35.277629
_cell_length_b	35.288147
_cell_length_c	35.288095
_cell_angle_alpha	59.998213
_cell_angle_beta	89.998594
_cell_angle_gamma	60.000244
loop_
_atom_site_label
_atom_site_type_symbol
_atom_site_fract_x
_atom_site_fract_y
_atom_site_fract_z
O1	O	-0.260039	0.271229	-0.594224
O2	O	-0.204916	0.193630	-0.461518
O3	O	-0.204916	0.271229	-0.539115
O4	O	-0.260039	0.193631	-0.516628
O5	O	-0.267963	0.334255	-0.539115
O6	O	-0.267963	0.256657	-0.461518
O7	O	-0.323086	0.334256	-0.594224
Zn8	Zn	-0.305535	0.305463	-0.527871
Zn9	Zn	-0.222468	0.222423	-0.527871
O10	O	-0.323086	0.256658	-0.516628
C11	C	-0.500363	0.534382	-0.966277
C12	C	-0.477341	0.511686	-0.920669
C13	C	-0.431720	0.465761	-0.966277
C14	C	-0.408802	0.443169	-0.920670
C15	C	-0.431721	0.465758	-0.897653
C16	C	-0.477340	0.511688	-0.989189
C17	C	-0.665893	0.687442	-1.077433
C18	C	-0.712770	0.730792	-1.099184
C19	C	-0.736286	0.752536	-1.075735
C20	C	-0.787116	0.799533	-1.099314
C21	C	-0.712922	0.730930	-1.030534
C22	C	-0.666047	0.687588	-1.008789
C23	C	-0.642533	0.665844	-1.032240
C24	C	-0.389807	0.411426	-0.732168
C25	C	-0.368202	0.386313	-0.685304
C26	C	-0.322997	0.339356	-0.661794
C27	C	-0.299570	0.312119	-0.610980
C28	C	-0.299395	0.317516	-0.685153
C29	C	-0.320996	0.342633	-0.732016
C30	C	-0.366207	0.389590	-0.755521
C31	C	-0.389802	0.411438	-1.077435
C32	C	-0.368198	0.386324	-1.099185
C33	C	-0.322991	0.339366	-1.075736
C34	C	-0.299565	0.312132	-1.099316
C35	C	-0.299392	0.317524	-1.030538
C36	C	-0.320997	0.342638	-1.008790
C37	C	-0.366203	0.389600	-1.032244
C38	C	-0.591705	0.618842	-1.008655
C39	C	-0.551190	0.581379	-0.989857
C40	C	-0.408296	0.438530	-0.989859
C41	C	-0.389625	0.416826	-1.008657
C42	C	-0.408298	0.438525	-0.846840
C43	C	-0.389628	0.416819	-0.806336
C44	C	-0.163485	0.456601	-0.551418
C45	C	-0.186877	0.503370	-0.548200
C46	C	-0.117865	0.433906	-0.551739
C47	C	-0.163485	0.387979	-0.551418
C48	C	-0.186876	0.361376	-0.548200
C49	C	-0.117865	0.365388	-0.551739
C50	C	-0.094842	0.387979	-0.551418
C51	C	-0.044841	0.361377	-0.548200
C52	C	-0.186403	0.433906	-0.551739
C53	C	-0.004444	0.339884	-0.545599
C54	C	-0.205774	0.541154	-0.545599
C55	C	-0.205774	0.339883	-0.545599
C56	C	0.046235	0.312921	-0.542337
C57	C	-0.229482	0.588556	-0.542337
C58	C	-0.229482	0.312920	-0.542337
C59	C	-0.500370	0.061841	-0.493740
C60	C	-0.477348	0.015914	-0.493419
C61	C	-0.431727	0.061840	-0.493740
C62	C	-0.408809	0.015913	-0.493419
C63	C	-0.431728	-0.006782	-0.493740
C64	C	-0.477347	0.084431	-0.493419
C65	C	-0.665901	0.185420	-0.506164
C66	C	-0.712778	0.210684	-0.509676
C67	C	-0.736294	0.188999	-0.511440
C68	C	-0.787123	0.216396	-0.515257
C69	C	-0.712929	0.142046	-0.509686
C70	C	-0.666054	0.116782	-0.506168
C71	C	-0.642540	0.138471	-0.504406
C72	C	-0.389813	-0.159840	-0.506163
C73	C	-0.368207	-0.203190	-0.509676
C74	C	-0.323002	-0.224935	-0.511442
C75	C	-0.299575	-0.271932	-0.515257
C76	C	-0.299400	-0.203331	-0.509688
C77	C	-0.321001	-0.159988	-0.506167
C78	C	-0.366212	-0.138243	-0.504408
C79	C	-0.389809	0.185419	-0.506164
C80	C	-0.368206	0.210687	-0.509682
C81	C	-0.322998	0.189002	-0.511446
C82	C	-0.299573	0.216398	-0.515263
C83	C	-0.299399	0.142052	-0.509694
C84	C	-0.321005	0.116788	-0.506178
C85	C	-0.366210	0.138474	-0.504408
C86	C	-0.591712	0.111075	-0.500595
C87	C	-0.551197	0.089237	-0.497555
C88	C	-0.408303	0.089236	-0.497555
C89	C	-0.389632	0.111074	-0.500595
C90	C	-0.408304	-0.053779	-0.497555
C91	C	-0.389634	-0.091242	-0.500595
O92	O	0.196115	0.193633	-0.516628
O93	O	0.063372	0.271231	-0.539115
O94	O	0.140989	0.193632	-0.461518
O95	O	0.118498	0.271231	-0.594224
O96	O	0.140991	0.256659	-0.461518
O97	O	0.063374	0.334257	-0.539115
O98	O	0.196117	0.256660	-0.516628
Zn99	Zn	0.129745	0.305465	-0.527871
Zn100	Zn	0.129743	0.222425	-0.527871
O101	O	0.118499	0.334258	-0.594224
O102	O	-0.267958	0.256670	-1.193314
O103	O	-0.323080	0.334272	-1.138210
O104	O	-0.323077	0.256668	-1.138197
O105	O	-0.267961	0.334273	-1.193327
O106	O	-0.260027	0.193646	-1.075172
O107	O	-0.260030	0.271249	-1.075185
O108	O	-0.204909	0.193647	-1.130289
Zn109	Zn	-0.222459	0.222442	-1.092731
Zn110	Zn	-0.305530	0.305477	-1.175768
O111	O	-0.204912	0.271250	-1.130302
O112	O	-0.260045	0.712683	-0.516627
O113	O	-0.204917	0.602467	-0.539114
O114	O	-0.204919	0.602465	-0.461518
O115	O	-0.260042	0.712685	-0.594224
O116	O	-0.267965	0.602463	-0.461518
O117	O	-0.267962	0.602465	-0.539115
O118	O	-0.323090	0.712681	-0.516628
Zn119	Zn	-0.305536	0.657573	-0.527871
Zn120	Zn	-0.222471	0.657575	-0.527871
O121	O	-0.323088	0.712684	-0.594224
O122	O	-0.936623	0.925122	-1.130282
O123	O	-0.803877	0.814917	-1.075179
O124	O	-0.881489	0.814904	-1.075173
O125	O	-0.859011	0.925136	-1.130288
O126	O	-0.881488	0.814906	-1.138203
O127	O	-0.803876	0.814920	-1.138208
O128	O	-0.936621	0.925125	-1.193311
Zn129	Zn	-0.870249	0.870023	-1.175767
Zn130	Zn	-0.870250	0.870019	-1.092723
O131	O	-0.859010	0.925138	-1.193317
C132	C	-0.094837	0.071297	-0.234731
C133	C	-0.044835	0.024530	-0.211347
C134	C	-0.117859	0.093993	-0.211820
C135	C	-0.163481	0.139915	-0.303352
C136	C	-0.186874	0.166515	-0.353338
C137	C	-0.186399	0.162507	-0.280336
C138	C	-0.163480	0.139918	-0.234731
C139	C	-0.186871	0.166522	-0.211347
C140	C	-0.117860	0.093989	-0.280336
C141	C	-0.205768	0.188016	-0.192456
C142	C	-0.004437	-0.013253	-0.192456
C143	C	-0.205772	0.188006	-0.393722
C144	C	-0.229476	0.214980	-0.168756
C145	C	0.046242	-0.060653	-0.168756
C146	C	-0.229482	0.214967	-0.444385
C147	C	0.153295	0.139901	-0.234723
C148	C	0.150077	0.166502	-0.211338
C149	C	0.153615	0.093974	-0.211812
C150	C	0.153295	0.139904	-0.303347
C151	C	0.150077	0.166508	-0.353335
C152	C	0.153615	0.093977	-0.280332
C153	C	0.153293	0.071280	-0.234724
C154	C	0.150073	0.024511	-0.211340
C155	C	0.153617	0.162493	-0.280330
C156	C	0.147470	-0.013273	-0.192449
C157	C	0.147476	0.187993	-0.192445
C158	C	0.147476	0.188003	-0.393720
C159	C	0.144206	-0.060675	-0.168748
C160	C	0.144213	0.214955	-0.168743
C161	C	0.144213	0.214968	-0.444385
C162	C	-0.094852	0.388013	-1.234782
C163	C	-0.044850	0.361414	-1.211402
C164	C	-0.117878	0.433939	-1.280390
C165	C	-0.163492	0.388007	-1.234770
C166	C	-0.186880	0.361401	-1.211378
C167	C	-0.186413	0.433933	-1.280379
C168	C	-0.163498	0.456630	-1.303401
C169	C	-0.186892	0.503398	-1.353390
C170	C	-0.117872	0.365420	-1.211863
C171	C	-0.205792	0.541180	-1.393776
C172	C	-0.004454	0.339924	-1.192514
C173	C	-0.205775	0.339906	-1.192481
C174	C	-0.229504	0.588581	-1.444442
C175	C	0.046226	0.312965	-1.168818
C176	C	-0.229480	0.312940	-1.168772
C177	C	0.095610	0.534377	-0.966278
C178	C	0.095289	0.511681	-0.989189
C179	C	0.095608	0.465754	-0.897654
C180	C	0.095287	0.443163	-0.920669
C181	C	0.095608	0.465754	-0.966276
C182	C	0.095289	0.511681	-0.920670
C183	C	0.108041	0.687435	-1.008185
C184	C	0.111556	0.730786	-1.029786
C185	C	0.113320	0.752531	-1.074980
C186	C	0.117140	0.799529	-1.098400
C187	C	0.111566	0.730926	-1.098575
C188	C	0.108045	0.687584	-1.076976
C189	C	0.106283	0.665838	-1.031780
C190	C	0.108035	0.411427	-1.077431
C191	C	0.111548	0.386315	-1.099182
C192	C	0.113313	0.339358	-1.075734
C193	C	0.117129	0.312122	-1.099310
C194	C	0.111558	0.317516	-1.030533
C195	C	0.108037	0.342632	-1.008786
C196	C	0.106278	0.389589	-1.032240
C197	C	0.108034	0.411426	-0.732169
C198	C	0.111553	0.386310	-0.685304
C199	C	0.113316	0.339352	-0.661794
C200	C	0.117134	0.312116	-0.610978
C201	C	0.111564	0.317511	-0.685150
C202	C	0.108047	0.342627	-0.732013
C203	C	0.106278	0.389588	-0.755521
C204	C	0.102469	0.618837	-1.008362
C205	C	0.099428	0.581374	-0.989696
C206	C	0.099424	0.438522	-0.846840
C207	C	0.102464	0.416816	-0.806337
C208	C	0.099424	0.438522	-0.989856
C209	C	0.102464	0.416817	-1.008654
O210	O	0.118484	0.271217	-0.075168
O211	O	0.140989	0.193617	-0.130273
O212	O	0.063366	0.271213	-0.130278
O213	O	0.196107	0.193622	-0.075162
O214	O	0.063368	0.334242	-0.193306
O215	O	0.140991	0.256646	-0.193301
O216	O	0.118486	0.334246	-0.138196
Zn217	Zn	0.129739	0.305454	-0.175755
Zn218	Zn	0.129736	0.222410	-0.092713
O219	O	0.196109	0.256651	-0.138190
C220	C	-0.431989	-0.006489	-0.897892
C221	C	-0.477609	0.016203	-0.920903
C222	C	-0.431994	0.062134	-0.966522
C223	C	-0.477614	0.084722	-0.989429
C224	C	-0.500634	0.062129	-0.966512
C225	C	-0.409073	0.016208	-0.920914
C226	C	-0.320793	-0.159540	-0.732409
C227	C	-0.299032	-0.202889	-0.685544
C228	C	-0.322485	-0.224636	-0.662029
C229	C	-0.298897	-0.271632	-0.611213
C230	C	-0.367699	-0.203035	-0.685383
C231	C	-0.389453	-0.159694	-0.732246
C232	C	-0.365998	-0.137947	-0.755759
C233	C	-0.666163	0.116444	-1.008396
C234	C	-0.713040	0.141553	-1.029991
C235	C	-0.736560	0.188509	-1.075185
C236	C	-0.787388	0.215741	-1.098601
C237	C	-0.713198	0.210353	-1.098786
C238	C	-0.666321	0.185240	-1.077195
C239	C	-0.642806	0.138284	-1.031995
C240	C	-0.320814	0.116472	-1.008450
C241	C	-0.299060	0.141590	-1.030054
C242	C	-0.322519	0.188546	-1.075250
C243	C	-0.298936	0.215784	-1.098675
C244	C	-0.367730	0.210384	-1.098838
C245	C	-0.389481	0.185266	-1.077232
C246	C	-0.366017	0.138306	-1.032038
C247	C	-0.389593	-0.090947	-0.806573
C248	C	-0.408398	-0.053485	-0.847077
C249	C	-0.408409	0.089368	-0.989946
C250	C	-0.389608	0.111076	-1.008617
C251	C	-0.551462	0.089357	-0.989923
C252	C	-0.591977	0.111060	-1.008585
H253	H	-0.495830	0.530675	-0.902189
H254	H	-0.426293	0.203050	-1.096442
H255	H	-0.099383	0.328463	-1.174390
O256	O	0.106125	0.462079	-1.102728
H257	H	0.107928	0.473052	-1.137812
H258	H	-0.099380	0.328427	-0.552248
H259	H	0.154130	0.074980	-0.174339
O260	O	-0.393031	0.261021	-1.147591
H261	H	-0.370310	0.274815	-1.158657
H262	H	-0.099374	0.074996	-0.174347
O263	O	0.154305	0.211443	-0.304809
H264	H	0.154473	0.223412	-0.281131
O265	O	-0.093373	0.068838	-0.304817
H266	H	-0.117062	0.092353	-0.340464
H267	H	-0.223883	0.199463	-0.298816
O268	O	-0.236065	0.459096	-1.304852
H269	H	-0.248204	0.435585	-1.281170
H270	H	0.154128	0.074987	-0.298813
O271	O	-0.393659	-0.226486	-0.511584
H272	H	-0.402778	-0.241203	-0.479533
O273	O	0.113467	0.754384	-1.147318
H274	H	0.081402	0.769172	-1.171197
O275	O	-0.093400	0.459103	-1.304879
H276	H	-0.057739	0.435590	-1.281207
O277	O	-0.250632	0.266876	-1.005245
H278	H	-0.237854	0.255906	-0.970162
O279	O	-0.737979	0.261325	-0.511572
H280	H	-0.767648	0.294318	-0.544554
O281	O	-0.640538	0.208807	-0.504257
H282	H	-0.664657	0.245694	-0.506060
H283	H	-0.301779	0.324851	-0.971988
O284	O	-0.093377	0.459061	-0.552420
H285	H	-0.117058	0.494870	-0.552579
O286	O	0.094600	0.394212	-0.896196
H287	H	0.094433	0.382242	-0.860549
O288	O	0.094603	0.536835	-1.038827
H289	H	0.125908	0.537030	-1.040866
O290	O	-0.359152	0.394216	-0.896189
H291	H	-0.347012	0.382246	-0.919866
H292	H	0.094775	0.530676	-0.902194
H293	H	-0.301776	0.324848	-0.751032
O294	O	0.113448	0.409865	-1.147926
H295	H	0.111638	0.446731	-1.160577
H296	H	0.112983	0.404095	-0.666289
O297	O	-0.738283	0.754378	-1.005242
H298	H	-0.774805	0.788144	-1.027955
H299	H	0.106605	0.669735	-0.971385
O300	O	-0.236054	0.459063	-0.552424
H301	H	-0.248195	0.494876	-0.552591
H302	H	-0.371326	-0.003079	-0.492904
O303	O	0.106134	0.462072	-0.757525
H304	H	0.107952	0.473035	-0.733410
O305	O	-0.393656	0.261325	-0.511574
H306	H	-0.402757	0.253083	-0.479513
H307	H	-0.386789	-0.220747	-0.666234
O308	O	0.106161	0.319071	-0.757206
H309	H	0.073173	0.348717	-0.786871
H310	H	-0.495831	-0.003085	-0.492894
O311	O	-0.250633	-0.226798	-0.511565
H312	H	-0.239573	-0.260571	-0.514301
H313	H	0.112982	0.748374	-1.010573
H314	H	-0.426611	0.449674	-1.096535
O315	O	0.106162	0.664275	-1.102417
H316	H	0.107987	0.686671	-1.137469
H317	H	0.112989	0.279286	-1.011443
H318	H	0.106606	0.324848	-0.971986
O319	O	0.113461	0.266866	-0.659799
H320	H	0.116195	0.253072	-0.623289
O321	O	-0.501825	0.133382	-0.492733
H322	H	-0.537483	0.145352	-0.492566
O323	O	-0.502108	0.133678	-1.039064
H324	H	-0.478427	0.145653	-1.051205
O325	O	-0.502094	-0.008955	-0.896424
H326	H	-0.478410	-0.044763	-0.860774
O327	O	-0.438566	0.462073	-0.757518
H328	H	-0.449626	0.475865	-0.794028
H329	H	-0.371602	-0.002761	-0.902425
H330	H	-0.387418	0.404110	-1.135985
H331	H	-0.262252	0.123813	-1.010840
O332	O	-0.295512	0.065828	-0.959703
H333	H	-0.260424	0.054868	-0.946926
H334	H	-0.646752	0.669743	-1.096533
H335	H	-0.426615	0.203075	-0.504716
H336	H	-0.301690	-0.141838	-0.751549
H337	H	-0.647027	0.670000	-0.971988
H338	H	-0.262221	-0.220472	-0.666533
O339	O	-0.640802	0.065798	-0.959650
H340	H	-0.627762	0.072562	-0.936634
O341	O	-0.438212	-0.136399	-0.757436
H342	H	-0.450867	-0.158800	-0.733213
H343	H	-0.732078	0.124392	-0.511119
O344	O	-0.640853	0.066144	-0.504277
H345	H	-0.665079	0.055310	-0.506097
H346	H	-0.732058	0.123766	-1.010772
H347	H	-0.732347	0.248582	-1.135587
H348	H	-0.647302	0.203026	-1.096414
H349	H	-0.731790	0.748378	-1.135984
O350	O	-0.501816	0.536840	-1.038825
H351	H	-0.511955	0.578603	-1.061063
O352	O	-0.393660	0.409862	-0.660111
H353	H	-0.428818	0.446568	-0.684262
O354	O	-0.250637	0.266871	-0.659802
H355	H	-0.239580	0.253071	-0.623290
H356	H	-0.426623	-0.142140	-0.504728
O357	O	-0.295554	-0.136675	-0.504291
H358	H	-0.260493	-0.159070	-0.506116
H359	H	-0.262588	0.124396	-0.511131
O360	O	-0.295550	0.066146	-0.504280
H361	H	-0.260483	0.055307	-0.506090
