data_functionalizedCrystal
_audit_creation_method	'MofGen! by Chris Wilmer'
_symmetry_space_group_name_H-M	'P1'
_symmetry_Int_Tables_number	1
_symmetry_cell_setting	triclinic
loop_
_symmetry_equiv_pos_as_xyz
  x,y,z
_cell_length_a	20.919309
_cell_length_b	17.053046
_cell_length_c	17.052862
_cell_angle_alpha	102.025082
_cell_angle_beta	53.105828
_cell_angle_gamma	64.683354
loop_
_atom_site_label
_atom_site_type_symbol
_atom_site_fract_x
_atom_site_fract_y
_atom_site_fract_z
Zr1	Zr	0.673721	0.757253	0.109834
O2	O	0.709576	0.772315	-0.035765
O3	O	0.670332	0.631383	0.123606
O4	O	0.852577	0.591963	-0.074065
O5	O	0.374925	0.980760	0.352938
O6	O	0.956730	0.587627	-0.069169
O7	O	0.527331	0.811735	0.161905
O8	O	0.630727	0.658142	0.284428
O9	O	0.700928	0.910245	-0.000658
O10	O	0.737430	0.720960	0.170420
O11	O	0.545962	0.850336	0.309332
O12	O	0.760532	0.803925	0.076601
O13	O	0.569065	0.933301	0.215513
Zr14	Zr	0.596763	1.019913	0.422319
Zr15	Zr	0.839833	0.750339	0.117643
Zr16	Zr	0.430651	1.026828	0.414510
Zr17	Zr	0.659928	0.977235	0.165826
Zr18	Zr	0.610556	0.799932	0.366327
O19	O	0.600153	1.145784	0.408547
O20	O	0.945767	0.762483	-0.024662
O21	O	0.363962	1.155616	0.397444
O22	O	0.560908	1.004851	0.567918
O23	O	0.906522	0.621551	0.134709
O24	O	0.324717	1.014683	0.556816
O25	O	0.895559	0.796407	0.179215
O26	O	0.417907	1.185204	0.606218
O27	O	0.313754	1.189539	0.601322
O28	O	0.743153	0.965431	0.370248
O29	O	0.832966	0.904749	0.005549
O30	O	0.437519	0.872418	0.526604
O31	O	0.569556	0.866922	0.532811
O32	O	0.762764	0.652646	0.290635
O33	O	0.507720	1.124521	0.241519
O34	O	0.639757	1.119024	0.247725
O35	O	0.509952	0.973242	0.455552
O36	O	0.701419	0.843865	0.316640
O37	O	0.724522	0.926830	0.222821
O38	O	0.533055	1.056207	0.361733
C39	C	0.652494	0.613420	0.196039
C40	C	0.658350	0.520032	0.172269
C41	C	0.587570	0.315740	0.459652
C42	C	0.582081	0.403474	0.481985
C43	C	0.601147	0.432618	0.404558
C44	C	0.625704	0.374018	0.304794
C45	C	0.631203	0.286270	0.282453
C46	C	0.644780	0.403148	0.227359
C47	C	0.669337	0.344548	0.127595
C48	C	0.674833	0.256809	0.105258
C49	C	0.655767	0.227665	0.182685
C50	C	0.639282	0.490897	0.249701
C51	C	0.682914	0.461427	0.072501
C52	C	0.688403	0.373693	0.050168
C53	C	0.427461	0.897233	0.256309
C54	C	0.356942	0.900168	0.252994
C55	C	0.311756	0.858237	0.300403
C56	C	0.245495	0.860999	0.297287
C57	C	0.224428	0.905686	0.246753
C58	C	0.269616	0.947624	0.199344
C59	C	0.335869	0.944868	0.202469
C60	C	0.024984	0.916180	0.234875
C61	C	-0.041271	0.918930	0.231750
C62	C	-0.065390	0.832307	0.329695
C63	C	0.000870	0.829549	0.332809
C64	C	0.046048	0.871492	0.285406
C65	C	0.156702	0.908508	0.243563
C66	C	0.113766	0.868677	0.288605
C67	C	0.843024	0.879934	0.275844
C68	C	0.913543	0.876999	0.279159
C69	C	0.714252	0.835199	-0.054756
C70	C	0.741067	0.817081	-0.163644
C71	C	0.617990	1.163747	0.336114
C72	C	0.612135	1.257135	0.359884
C73	C	0.416870	1.036133	-0.180535
C74	C	0.391673	1.053156	-0.078228
C75	C	0.479019	0.994139	-0.099576
C76	C	0.591568	0.918096	-0.223244
C77	C	0.616768	0.901065	-0.325563
C78	C	0.678917	0.859071	-0.244603
C79	C	0.791465	0.783027	-0.368271
C80	C	0.816661	0.766000	-0.470578
C81	C	0.729315	0.825017	-0.449230
C82	C	0.653716	0.876102	-0.142284
C83	C	0.853614	0.741034	-0.287311
C84	C	0.878812	0.724011	-0.389619
C85	C	0.556232	0.941967	0.586910
C86	C	0.529417	0.960085	0.695797
C87	C	0.939286	0.551386	-0.115026
C88	C	1.042475	0.436945	-0.244369
C89	C	0.860276	0.604770	0.205807
C90	C	0.936650	0.508447	0.185352
C91	C	0.348451	0.950617	0.577142
C92	C	0.251116	0.971670	0.682715
C93	C	0.410208	1.172396	0.326347
C94	C	0.333834	1.268720	0.346802
C95	C	0.331199	1.225780	0.647180
C96	C	0.228009	1.340222	0.776522
C97	C	0.922033	0.826550	-0.044989
C98	C	1.019368	0.805496	-0.150562
C99	C	1.103003	0.426507	-0.354093
C100	C	1.199972	0.318983	-0.475632
C101	C	1.236407	0.221899	-0.487444
C102	C	1.175873	0.232342	-0.377707
C103	C	1.078910	0.339864	-0.256171
C104	C	0.991324	0.399046	0.099408
C105	C	1.063101	0.308527	0.080162
C106	C	1.080197	0.327413	0.146869
C107	C	1.025520	0.436825	0.232817
C108	C	0.953750	0.527340	0.252054
C109	C	0.186600	1.045724	0.808631
C110	C	0.095131	1.065529	0.907843
C111	C	0.068185	1.011272	0.881134
C112	C	0.132708	0.937215	0.755206
C113	C	0.224170	0.917417	0.655998
C114	C	0.279170	1.378119	0.432735
C115	C	0.207418	1.468632	0.451953
C116	C	0.190325	1.449746	0.385243
C117	C	0.244998	1.340334	0.299300
C118	C	0.316755	1.249822	0.280076
C119	C	0.191602	1.437281	0.788292
C120	C	0.094637	1.544818	0.909816
C121	C	0.034085	1.555293	1.019567
C122	C	0.070496	1.458223	1.007793
C123	C	0.167455	1.350689	0.886271
C124	C	1.046287	0.859765	-0.123814
C125	C	1.137749	0.839981	-0.223002
C126	C	1.202287	0.765934	-0.348934
C127	C	1.175365	0.711660	-0.375681
C128	C	1.083908	0.731438	-0.276496
H129	H	0.596676	0.504057	0.422748
F130	F	0.271895	1.134088	0.053379
H131	H	1.249245	0.310503	-0.564969
F132	F	0.334177	0.810667	0.354180
F133	F	0.256031	1.426158	0.671501
F134	F	1.121278	0.192093	-0.011311
H135	H	0.562091	0.451177	0.563211
H136	H	0.345765	1.084171	-0.163172
H137	H	1.205554	0.153281	-0.387345
H138	H	1.315362	0.134355	-0.586414
F139	F	0.292830	0.838592	0.521988
F140	F	1.014490	0.350956	-0.139402
F141	F	0.073060	0.960817	0.184421
H142	H	0.970450	0.662095	-0.490321
F143	F	0.026478	1.144346	1.041854
F144	F	0.756132	0.806905	-0.558117
F145	F	0.977615	0.938576	0.010206
H146	H	0.065008	1.623844	0.919378
H147	H	0.458496	1.008002	-0.016269
F148	F	0.973147	0.378920	0.028396
H149	H	1.138639	0.253700	0.131194
F150	F	1.043723	0.456908	0.303806
F151	F	0.533937	0.957030	-0.010680
F152	F	0.215261	1.103477	0.837084
F153	F	0.946581	0.678217	-0.310041
F154	F	0.703213	0.492435	-0.009912
H155	H	0.197092	1.271665	0.876704
F156	F	0.936448	0.685043	-0.602200
H157	H	0.909233	0.616418	0.322045
F158	F	0.247186	0.995193	0.145572
F159	F	0.197397	0.816381	0.347759
F160	F	1.064252	0.529817	-0.341551
F161	F	0.149238	1.585067	0.543429
H162	H	0.372646	0.979029	0.163881
H163	H	-0.058418	0.955319	0.190594
H164	H	0.139541	0.944893	0.202419
F165	F	-0.029161	1.032353	0.986734
H166	H	0.231070	1.324973	0.244989
H167	H	0.361255	1.160748	0.210104
F168	F	0.297349	1.398244	0.503744
F169	F	-0.069105	1.669750	1.148895
H170	H	0.018040	0.793135	0.373931
F171	F	0.104017	0.879478	0.726799
F172	F	-0.113480	0.787675	0.380146
F173	F	0.113950	1.546089	0.405717
F174	F	1.166379	0.897760	-0.194509
F175	F	1.299619	0.744898	-0.454484
H176	H	0.021181	1.466770	1.097170
H177	H	0.130917	0.832298	0.329756
F178	F	0.700981	0.194436	-0.000930
F179	F	1.244055	0.632863	-0.509715
H180	H	0.660230	0.156229	0.164510
F181	F	1.055264	0.673680	-0.304981
F182	F	0.567290	0.284710	0.542036
F183	F	0.714536	0.311318	-0.056005
F184	F	0.613147	0.553253	0.355874
