data_functionalizedCrystal
_audit_creation_method	'MofGen! by Chris Wilmer'
_symmetry_space_group_name_H-M	'P1'
_symmetry_Int_Tables_number	1
_symmetry_cell_setting	triclinic
loop_
_symmetry_equiv_pos_as_xyz
  x,y,z
_cell_length_a	10.489741
_cell_length_b	10.489741
_cell_length_c	9.565339
_cell_angle_alpha	89.992742
_cell_angle_beta	89.999736
_cell_angle_gamma	84.539174
loop_
_atom_site_label
_atom_site_type_symbol
_atom_site_fract_x
_atom_site_fract_y
_atom_site_fract_z
O1	O	1.694050	0.179973	-0.116173
O2	O	1.322855	0.196866	-0.116194
O3	O	1.516899	0.002822	-0.116175
O4	O	1.500006	0.374018	-0.116192
O5	O	1.516889	0.002805	0.116345
O6	O	1.322844	0.196849	0.116326
O7	O	1.694040	0.179956	0.116347
Zn8	Zn	1.508441	0.188400	0.153254
Zn9	Zn	1.508454	0.188423	-0.153101
O10	O	1.499996	0.374000	0.116328
C11	C	1.275318	0.195582	0.000063
C12	C	1.133688	0.191765	0.000055
C13	C	1.065548	0.068300	0.000074
C14	C	0.973427	0.126632	-0.114571
C15	C	0.973450	0.126644	0.114676
C16	C	1.043432	0.250147	-0.114684
C17	C	1.043465	0.250143	0.114665
C18	C	0.951371	0.308564	-0.000007
C19	C	1.515618	-0.044718	0.000084
C20	C	1.511801	-0.186348	0.000082
C21	C	1.388336	-0.254488	0.000064
C22	C	1.446655	-0.346619	0.114712
C23	C	1.446694	-0.346576	-0.114534
C24	C	1.570170	-0.276613	0.114824
C25	C	1.570192	-0.276561	-0.114525
C26	C	1.628600	-0.368665	0.000150
C27	C	1.741577	0.181241	0.000087
C28	C	1.883206	0.185058	0.000086
C29	C	1.501277	0.421541	0.000066
C30	C	1.505094	0.563170	0.000059
N31	N	1.508441	0.188384	0.362334
N32	N	1.508464	0.188429	-0.362180
C33	C	1.597477	0.097938	0.546678
C34	C	1.624310	0.213085	0.453436
C35	C	1.481664	0.073246	0.453506
C36	C	1.535356	0.303634	0.546629
C37	C	1.392658	0.163720	0.546707
C38	C	1.419443	0.278950	0.453507
H39	H	1.074264	0.302354	-0.211717
C40	C	1.699253	-0.005291	0.601963
N41	N	1.775914	-0.083034	0.643610
C42	C	1.756600	0.241303	0.398081
N43	N	1.856243	0.262548	0.356390
H44	H	1.730204	-0.418089	0.000220
H45	H	0.901947	0.410168	-0.000074
H46	H	1.074507	0.302333	0.211590
C47	C	0.931597	0.056032	0.245618
N48	N	0.900079	0.002839	0.344237
C49	C	1.376098	-0.388416	-0.245477
N50	N	1.322918	-0.419923	-0.344099
C51	C	1.566129	0.435231	0.601655
N52	N	1.589313	0.534345	0.643104
H53	H	1.622361	-0.245788	0.211859
C54	C	1.251203	-0.187400	0.000214
N55	N	1.147919	-0.136866	0.000336
C56	C	1.451048	-0.058323	0.398249
N57	N	1.427997	-0.157424	0.356636
H58	H	1.622393	-0.245510	-0.211451
C59	C	1.317738	0.382417	0.398573
N60	N	1.241142	0.460352	0.357190
C61	C	1.260397	0.135458	0.602083
N62	N	1.160774	0.114161	0.643786
H63	H	1.115238	-0.033196	-0.000065
C64	C	1.376073	-0.388531	0.245644
N65	N	1.322904	-0.420095	0.344256
H66	H	0.942416	0.074398	-0.211491
