data_functionalizedCrystal
_audit_creation_method	'MofGen! by Chris Wilmer'
_symmetry_space_group_name_H-M	'P1'
_symmetry_Int_Tables_number	1
_symmetry_cell_setting	triclinic
loop_
_symmetry_equiv_pos_as_xyz
  x,y,z
_cell_length_a	15.944545
_cell_length_b	15.944551
_cell_length_c	9.130313
_cell_angle_alpha	89.997799
_cell_angle_beta	90.002549
_cell_angle_gamma	83.497455
loop_
_atom_site_label
_atom_site_type_symbol
_atom_site_fract_x
_atom_site_fract_y
_atom_site_fract_z
O1	O	1.114523	0.108303	-0.121708
O2	O	0.869972	0.121665	-0.121732
O3	O	0.998926	-0.007291	-0.121706
O4	O	0.985569	0.237259	-0.121734
O5	O	0.998924	-0.007287	0.121893
O6	O	0.869971	0.121668	0.121867
O7	O	1.114521	0.108307	0.121891
Cu8	Cu	0.992246	0.114988	0.144122
Cu9	Cu	0.992248	0.114984	-0.143962
O10	O	0.985568	0.237263	0.121865
C11	C	0.838677	0.121113	0.000065
C12	C	0.745431	0.119453	0.000056
C13	C	0.474798	0.034559	0.000081
C14	C	0.525379	0.075490	0.120187
C15	C	0.409787	0.113532	0.000082
C16	C	0.525361	0.075507	-0.119982
C17	C	0.574701	0.116437	0.000066
C18	C	0.459140	0.154442	0.120287
C19	C	0.459119	0.154448	-0.119991
C20	C	0.509667	0.195436	0.000145
C21	C	0.314785	0.111856	0.000092
C22	C	0.669700	0.118119	0.000067
C23	C	0.998370	-0.038583	0.000094
C24	C	0.996708	-0.131829	0.000094
C25	C	0.912803	-0.346684	0.000066
C26	C	0.951765	-0.407700	0.120179
C27	C	0.993701	-0.302555	0.000083
C28	C	0.951786	-0.407687	-0.119991
C29	C	0.990790	-0.467468	0.000065
C30	C	1.032685	-0.362343	0.120295
C31	C	1.032694	-0.362324	-0.119982
C32	C	1.071715	-0.423322	0.000160
C33	C	0.995375	-0.207553	0.000094
C34	C	0.989122	-0.562469	0.000064
C35	C	1.145816	0.108859	0.000091
C36	C	1.239062	0.110519	0.000091
C37	C	0.986123	0.268555	0.000062
C38	C	0.987785	0.361801	0.000052
N39	N	0.992251	0.114990	0.346744
N40	N	0.992249	0.114975	-0.346585
C41	C	1.049366	0.057908	0.423408
C42	C	1.049363	0.057898	0.576744
C43	C	0.935128	0.172060	0.576741
C44	C	0.935127	0.172065	0.423407
C45	C	1.106489	0.000833	0.346745
C46	C	1.163609	-0.056254	0.423409
C47	C	1.163607	-0.056264	0.576745
C48	C	1.106484	0.000813	0.653419
H49	H	0.525159	0.263501	0.000207
H50	H	1.106497	0.000837	0.221891
H51	H	1.066872	-0.342352	0.221952
H52	H	0.459145	-0.033453	0.000205
C53	C	0.564467	0.030434	0.257370
N54	N	0.593905	-0.003507	0.360692
H55	H	1.210112	-0.102728	0.360973
C56	C	0.905544	-0.434823	-0.257171
N57	N	0.870710	-0.455258	-0.360491
H58	H	0.430330	0.187770	0.221936
C59	C	0.872279	0.234840	0.339072
N60	N	0.824932	0.282116	0.275551
H61	H	1.138922	-0.456483	0.000234
C62	C	1.078879	-0.335127	-0.257166
N63	N	1.113660	-0.314641	-0.360505
H64	H	0.430173	0.187769	-0.221542
H65	H	0.554280	0.042140	-0.221516
H66	H	0.845655	-0.313375	0.000179
C67	C	1.226428	-0.119070	0.661071
N68	N	1.273747	-0.166379	0.724582
H69	H	1.106482	0.000794	0.778276
H70	H	0.917548	-0.427806	0.221718
H71	H	0.888622	0.218530	0.639178
