data_functionalizedCrystal
_audit_creation_method	'MofGen! by Chris Wilmer'
_symmetry_space_group_name_H-M	'P1'
_symmetry_Int_Tables_number	1
_symmetry_cell_setting	triclinic
loop_
_symmetry_equiv_pos_as_xyz
  x,y,z
_cell_length_a	16.959455
_cell_length_b	21.295417
_cell_length_c	16.959447
_cell_angle_alpha	90.035193
_cell_angle_beta	90.014322
_cell_angle_gamma	90.027454
loop_
_atom_site_label
_atom_site_type_symbol
_atom_site_fract_x
_atom_site_fract_y
_atom_site_fract_z
Zn1	Zn	1.208326	-0.250648	0.446882
Zn2	Zn	1.708326	0.249352	0.946882
Zn3	Zn	1.208225	-0.355925	0.314692
Zn4	Zn	1.708225	0.144075	0.814692
Zn5	Zn	1.076155	-0.250668	0.314719
Zn6	Zn	1.576155	0.249332	0.814719
Zn7	Zn	1.076096	-0.355878	0.446831
Zn8	Zn	1.576096	0.144122	0.946831
O9	O	1.142200	-0.303280	0.380781
O10	O	1.642200	0.196720	0.880781
O11	O	1.318924	-0.264625	0.429357
O12	O	1.818924	0.235375	0.929357
O13	O	1.190688	-0.341990	0.204085
O14	O	1.690688	0.158010	0.704085
O15	O	1.093755	-0.162576	0.332284
O16	O	1.593755	0.337424	0.832284
O17	O	1.318849	-0.341971	0.332237
O18	O	1.818849	0.158029	0.832237
O19	O	1.190861	-0.162561	0.429383
O20	O	1.690861	0.337439	0.929383
O21	O	1.093657	-0.264658	0.204105
O22	O	1.593657	0.235342	0.704105
O23	O	0.965536	-0.264613	0.332234
O24	O	1.465536	0.235387	0.832234
O25	O	1.093654	-0.341891	0.557448
O26	O	1.593654	0.158109	1.057448
O27	O	0.965493	-0.341910	0.429296
O28	O	1.465493	0.158090	0.929296
O29	O	1.190803	-0.264579	0.557486
O30	O	1.690803	0.235421	1.057486
O31	O	1.190630	-0.444008	0.332188
O32	O	1.690630	0.055992	0.832188
O33	O	1.093555	-0.443973	0.429269
O34	O	1.593555	0.056027	0.929269
C35	C	0.936834	-0.303259	0.380763
C36	C	1.436834	0.196741	0.880763
C37	C	0.848978	-0.303265	0.380774
C38	C	1.348978	0.196735	0.880774
C39	C	0.477500	-0.262998	0.330347
C40	C	0.977500	0.237002	0.830347
C41	C	0.477504	-0.343613	0.431261
C42	C	0.977504	0.156387	0.931261
C43	C	0.560050	-0.343604	0.431256
C44	C	1.060050	0.156396	0.931256
C45	C	0.601325	-0.303292	0.380795
C46	C	1.101325	0.196708	0.880795
C47	C	0.560054	-0.262989	0.330339
C48	C	1.060054	0.237011	0.830339
C49	C	0.601327	-0.383911	0.481705
C50	C	1.101327	0.116089	0.981705
C51	C	0.683877	-0.383904	0.481702
C52	C	1.183877	0.116096	0.981702
C53	C	0.725154	-0.343588	0.431244
C54	C	1.225154	0.156412	0.931244
C55	C	0.683878	-0.303283	0.380787
C56	C	1.183878	0.196717	0.880787
C57	C	0.725153	-0.262971	0.330326
C58	C	1.225153	0.237029	0.830326
C59	C	0.683879	-0.222662	0.279871
C60	C	1.183879	0.277338	0.779871
C61	C	0.601330	-0.222673	0.279881
C62	C	1.101330	0.277327	0.779881
C63	C	0.807702	-0.343577	0.431235
C64	C	1.307702	0.156423	0.931235
C65	C	0.807707	-0.262962	0.330318
C66	C	1.307707	0.237038	0.830318
C67	C	1.142097	-0.466831	0.380737
C68	C	1.642097	0.033169	0.880737
C69	C	1.142125	-0.536799	0.380745
C70	C	1.642125	-0.036799	0.880745
C71	C	1.192717	-0.569663	0.330246
C72	C	1.692717	-0.069663	0.830246
C73	C	1.192754	-0.635406	0.330264
C74	C	1.692754	-0.135406	0.830264
C75	C	1.142185	-0.668282	0.380772
C76	C	1.642185	-0.168282	0.880772
C77	C	1.091589	-0.635410	0.431281
C78	C	1.591589	-0.135410	0.931281
C79	C	1.091559	-0.569669	0.431267
C80	C	1.591559	-0.069669	0.931267
N81	N	1.073038	-0.771544	0.386792
N82	N	1.573038	-0.271544	0.886792
N83	N	1.073069	-0.833996	0.386800
N84	N	1.573069	-0.333996	0.886800
C85	C	1.142273	-0.866357	0.380818
C86	C	1.642273	-0.366357	0.880818
N87	N	1.211448	-0.833907	0.374811
N88	N	1.711448	-0.333907	0.874811
N89	N	1.211416	-0.771449	0.374798
N90	N	1.711416	-0.271449	0.874798
C91	C	1.142212	-0.739567	0.380793
C92	C	1.642212	-0.239567	0.880793
C93	C	1.192910	-0.970506	0.330335
C94	C	1.692910	-0.470506	0.830335
C95	C	1.192948	-1.036249	0.330359
C96	C	1.692948	-0.536249	0.830359
C97	C	1.091777	-1.036253	0.431371
C98	C	1.591777	-0.536253	0.931371
C99	C	1.091745	-0.970510	0.431352
C100	C	1.591745	-0.470510	0.931352
C101	C	1.142311	-0.937641	0.380830
C102	C	1.642311	-0.437641	0.880830
C103	C	1.348369	-0.303301	0.380800
C104	C	1.848369	0.196699	0.880800
C105	C	1.436225	-0.303310	0.380808
C106	C	1.936225	0.196690	0.880808
C107	C	1.142233	-0.303228	0.586949
C108	C	1.642233	0.196772	1.086949
C109	C	1.142247	-0.303205	0.674806
C110	C	1.642247	0.196795	1.174806
C111	C	1.142326	-0.139089	0.380842
C112	C	1.642326	0.360911	0.880842
C113	C	1.142379	-0.069121	0.380868
C114	C	1.642379	0.430879	0.880868
C115	C	1.142213	-0.303286	0.175415
C116	C	1.642213	0.196714	0.675415
C117	C	1.142352	-0.303131	0.087559
C118	C	1.642352	0.196869	0.587559
C119	C	1.091760	-0.343392	1.046265
C120	C	1.591760	0.156608	1.546265
C121	C	1.192923	-0.262886	1.046299
C122	C	1.692923	0.237114	1.546299
C123	C	1.192902	-0.262900	0.963753
C124	C	1.692902	0.237100	1.463753
C125	C	1.142310	-0.303160	0.922459
C126	C	1.642310	0.196840	1.422459
C127	C	1.091740	-0.343407	0.963711
C128	C	1.591740	0.156593	1.463711
C129	C	1.243478	-0.222658	0.922495
C130	C	1.743478	0.277342	1.422495
C131	C	1.243459	-0.222670	0.839944
C132	C	1.743459	0.277330	1.339944
C133	C	1.192863	-0.262928	0.798648
C134	C	1.692863	0.237072	1.298648
C135	C	1.142289	-0.303176	0.839906
C136	C	1.642289	0.196824	1.339906
C137	C	1.091698	-0.343437	0.798612
C138	C	1.591698	0.156563	1.298612
C139	C	1.041120	-0.383682	0.839867
C140	C	1.541120	0.116318	1.339867
C141	C	1.041143	-0.383665	0.922416
C142	C	1.541143	0.116335	1.422416
C143	C	1.192839	-0.262945	0.716100
C144	C	1.692839	0.237055	1.216100
C145	C	1.091677	-0.343453	0.716058
C146	C	1.591677	0.156547	1.216058
H147	H	0.443891	-0.230178	0.289270
H148	H	0.943891	0.269822	0.789270
N149	N	1.036983	-0.534216	0.485725
N150	N	1.536983	-0.034216	0.985725
H151	H	1.069066	-0.506893	0.522377
H152	H	1.569066	-0.006893	1.022377
H153	H	1.004962	-0.565054	0.517675
H154	H	1.504962	-0.065054	1.017675
H155	H	0.567717	-0.189857	0.238803
H156	H	1.067717	0.310143	0.738803
H157	H	1.284672	-0.189883	0.956122
H158	H	1.784672	0.310117	1.456122
N159	N	0.986605	-0.427067	0.966927
N160	N	1.486605	0.072933	1.466927
H161	H	0.998839	-0.472050	0.952545
H162	H	1.498839	0.027950	1.452545
H163	H	0.930152	-0.417235	0.952559
H164	H	1.430152	0.082765	1.452559
N165	N	1.247317	-0.670854	0.275782
N166	N	1.747317	-0.170854	0.775782
H167	H	1.215219	-0.698170	0.239134
H168	H	1.715219	-0.198170	0.739134
H169	H	1.283934	-0.698053	0.307986
H170	H	1.783934	-0.198053	0.807986
N171	N	0.728396	-0.179179	0.225449
N172	N	1.228396	0.320821	0.725449
H173	H	0.714007	-0.188897	0.168951
H174	H	1.214007	0.311103	0.668951
H175	H	0.786938	-0.185312	0.233167
H176	H	1.286938	0.314688	0.733167
N177	N	0.728385	-0.427378	0.536121
N178	N	1.228385	0.072622	1.036121
H179	H	0.714039	-0.417658	0.592620
H180	H	1.214039	0.082342	1.092620
H181	H	0.786929	-0.421238	0.528398
H182	H	1.286929	0.078762	1.028398
N183	N	0.852215	-0.219474	0.275894
N184	N	1.352215	0.280526	0.775894
H185	H	0.837823	-0.229193	0.219397
H186	H	1.337823	0.270807	0.719397
H187	H	0.910759	-0.225600	0.283607
H188	H	1.410759	0.274400	0.783607
N189	N	1.037208	-0.386802	1.090745
N190	N	1.537208	0.113198	1.590745
H191	H	0.980740	-0.377019	1.076374
H192	H	1.480740	0.122981	1.576374
H193	H	1.044954	-0.380670	1.149293
H194	H	1.544954	0.119330	1.649293
N195	N	1.247454	-0.935044	0.275861
N196	N	1.747454	-0.435044	0.775861
H197	H	1.215344	-0.907814	0.239194
H198	H	1.715344	-0.407814	0.739194
H199	H	1.279508	-0.965879	0.243929
H200	H	1.779508	-0.465879	0.743929
H201	H	0.841304	-0.376398	0.472312
H202	H	1.341304	0.123602	0.972312
N203	N	0.432990	-0.387096	0.485677
N204	N	0.932990	0.112904	0.985677
H205	H	0.374433	-0.380988	0.478023
H206	H	0.874433	0.119012	0.978023
H207	H	0.447439	-0.377353	0.542151
H208	H	0.947439	0.122647	1.042151
N209	N	1.247391	-0.219552	0.671597
N210	N	1.747391	0.280448	1.171597
H211	H	1.235165	-0.174567	0.685976
H212	H	1.735165	0.325433	1.185976
H213	H	1.239670	-0.225730	0.613053
H214	H	1.739670	0.274270	1.113053
H215	H	1.234151	-1.063006	0.289238
H216	H	1.734151	-0.563006	0.789238
H217	H	1.284642	-0.189899	0.806360
H218	H	1.784642	0.310101	1.306360
N219	N	1.247266	-0.534213	0.275769
N220	N	1.747266	-0.034213	0.775769
H221	H	1.215162	-0.506979	0.239101
H222	H	1.715162	-0.006979	0.739101
H223	H	1.279312	-0.565053	0.243838
H224	H	1.779312	-0.065053	0.743838
H225	H	1.050417	-0.662182	0.472406
H226	H	1.550417	-0.162182	0.972406
H227	H	1.234117	-0.230111	1.079925
H228	H	1.734117	0.269889	1.579925
N229	N	0.556801	-0.427388	0.536120
N230	N	1.056801	0.072612	1.036120
H231	H	0.522578	-0.401842	0.572811
H232	H	1.022578	0.098158	1.072811
H233	H	0.595516	-0.452917	0.568028
H234	H	1.095516	0.047083	1.068028
N235	N	1.037239	-1.071702	0.485856
N236	N	1.537239	-0.571702	0.985856
H237	H	1.044936	-1.118337	0.478204
H238	H	1.544936	-0.618337	0.978204
H239	H	0.980789	-1.060258	0.473501
H240	H	1.480789	-0.560258	0.973501
H241	H	1.050545	-0.943751	0.472469
H242	H	1.550545	-0.443751	0.972469
N243	N	1.037096	-0.386867	0.671521
N244	N	1.537096	0.113133	1.171521
H245	H	1.005058	-0.412355	0.710184
H246	H	1.505058	0.087645	1.210184
H247	H	1.069230	-0.416013	0.637255
H248	H	1.569230	0.083987	1.137255
N249	N	0.986552	-0.427109	0.795333
N250	N	1.486552	0.072891	1.295333
H251	H	1.018645	-0.456291	0.761072
H252	H	1.518645	0.043709	1.261072
H253	H	0.949947	-0.401484	0.761137
H254	H	1.449947	0.098516	1.261137
