data_functionalizedCrystal
_audit_creation_method	'MofGen! by Chris Wilmer'
_symmetry_space_group_name_H-M	'P1'
_symmetry_Int_Tables_number	1
_symmetry_cell_setting	triclinic
loop_
_symmetry_equiv_pos_as_xyz
  x,y,z
_cell_length_a	10.489716
_cell_length_b	12.837943
_cell_length_c	11.295483
_cell_angle_alpha	85.461227
_cell_angle_beta	85.865349
_cell_angle_gamma	90.320962
loop_
_atom_site_label
_atom_site_type_symbol
_atom_site_fract_x
_atom_site_fract_y
_atom_site_fract_z
O1	O	-0.324137	1.384832	-0.099015
O2	O	-0.307742	1.082906	-0.099021
O3	O	-0.131100	1.240751	-0.099004
O4	O	-0.500780	1.226986	-0.099032
O5	O	-0.146588	1.226887	0.099046
O6	O	-0.323231	1.069042	0.099028
O7	O	-0.339626	1.370968	0.099035
Cu8	Cu	-0.332842	1.218739	0.117115
Cu9	Cu	-0.314526	1.235135	-0.117101
O10	O	-0.516268	1.213122	0.099018
C11	C	-0.309948	1.037312	0.000003
C12	C	-0.293430	0.922113	0.000001
C13	C	-0.492006	0.682623	0.000003
C14	C	-0.476492	0.574382	0.000002
C15	C	-0.246889	0.597389	0.000007
C16	C	-0.262403	0.705629	0.000008
C17	C	-0.384966	0.748242	0.000004
C18	C	-0.400478	0.856485	-0.000004
C19	C	-0.170877	0.879489	0.000010
C20	C	-0.155363	0.771249	0.000009
C21	C	-0.556170	1.221089	-0.000011
C22	C	-0.698141	1.224184	-0.000022
C23	C	-0.785144	1.127387	-0.000007
C24	C	-0.860523	1.185372	-0.097645
C25	C	-0.875731	1.171724	0.097617
C26	C	-0.771644	1.282134	-0.097740
C27	C	-0.786851	1.268467	0.097609
C28	C	-0.862187	1.326525	-0.000053
C29	C	-0.091198	1.232785	0.000022
C30	C	0.050774	1.229690	0.000025
C31	C	-0.337420	1.416562	0.000008
C32	C	-0.353937	1.531761	0.000002
N33	N	-0.345726	1.207214	0.281850
N34	N	-0.301633	1.246667	-0.281836
C35	C	-0.208822	1.329626	0.531153
C36	C	-0.218568	1.320925	0.655816
C37	C	-0.374956	1.181105	0.655840
C38	C	-0.365210	1.189807	0.531178
C39	C	-0.282142	1.264071	0.468838
C40	C	-0.272403	1.272777	0.344173
C41	C	-0.428784	1.132953	0.344200
C42	C	-0.438530	1.124251	0.468863
H43	H	-0.751179	1.043197	-0.000110
C44	C	-0.522916	1.048833	0.659975
C45	C	-0.529841	1.042628	0.537394
H46	H	-0.579298	0.998446	0.702278
H47	H	-0.437943	1.035499	0.680405
H48	H	-0.546831	1.116759	0.680375
H49	H	-0.505916	0.974703	0.516992
H50	H	-0.614832	1.055954	0.516955
H51	H	-0.563656	0.520958	0.000005
C52	C	-0.898237	1.151264	0.311261
C53	C	-0.937026	1.108753	0.209073
H54	H	-0.936083	1.112388	0.380065
H55	H	-0.807814	1.148287	0.311658
H56	H	-0.924531	1.221946	0.311370
H57	H	-0.910724	1.038073	0.208960
H58	H	-1.027469	1.111720	0.208676
H59	H	-0.204769	1.333249	0.293418
H60	H	-0.895903	1.410788	-0.000100
C61	C	-0.187471	1.480432	0.390965
C62	C	-0.117545	1.411285	0.462639
H63	H	-0.131125	1.530856	0.348681
H64	H	-0.229708	1.442632	0.336002
H65	H	-0.248990	1.514715	0.439611
H66	H	-0.056032	1.376996	0.413992
H67	H	-0.075287	1.449090	0.517609
H68	H	-0.147112	0.562667	0.000108
C69	C	-0.639358	1.076346	0.305835
C70	C	-0.509390	1.060889	0.275705
H71	H	-0.689121	1.031864	0.263543
H72	H	-0.657032	1.060533	0.388992
H73	H	-0.660065	1.147123	0.285383
H74	H	-0.488681	0.990113	0.296165
H75	H	-0.491709	1.076695	0.192529
C76	C	-0.617731	0.838336	-0.000009
C77	C	-0.626720	0.729473	-0.000009
H78	H	-0.700900	0.867256	-0.000024
H79	H	-0.578515	0.855959	0.069055
H80	H	-0.567698	0.865625	-0.069074
H81	H	-0.676745	0.702184	0.069060
H82	H	-0.665955	0.711842	-0.069081
C83	C	0.028006	0.939544	-0.101801
C84	C	-0.053206	0.951621	0.000009
H85	H	0.100644	0.984080	-0.101807
H86	H	0.054777	0.868988	-0.101788
H87	H	-0.016326	0.957392	-0.170858
H88	H	-0.008877	0.933766	0.069066
H89	H	-0.079976	1.022193	0.000006
C90	C	-1.037884	1.142318	-0.208388
C91	C	-0.904482	1.138010	-0.209077
H92	H	-1.065018	1.113077	-0.277180
H93	H	-1.074968	1.103783	-0.139045
H94	H	-1.064132	1.213022	-0.208494
H95	H	-0.878233	1.067305	-0.208962
H96	H	-0.867383	1.176543	-0.278439
C97	C	-0.063009	1.460004	0.643264
C98	C	-0.137974	1.392986	0.724313
H99	H	-0.013256	1.504495	0.685554
H100	H	-0.008014	1.419868	0.594656
H101	H	-0.116922	1.501111	0.594627
H102	H	-0.084060	1.351874	0.772944
H103	H	-0.192975	1.433126	0.772941
H104	H	-0.500275	0.891178	-0.000004
H105	H	-0.055577	0.736537	0.000025
H106	H	-0.726391	1.328755	-0.180388
C107	C	-0.609307	1.313181	0.207241
C108	C	-0.742861	1.315775	0.209052
H109	H	-0.582149	1.342385	0.276047
H110	H	-0.581707	1.242880	0.206538
H111	H	-0.573491	1.352535	0.137918
H112	H	-0.778676	1.276414	0.278372
H113	H	-0.770474	1.386088	0.209768
H114	H	-0.442579	1.120634	0.706613
