data_functionalizedCrystal
_audit_creation_method	'MofGen! by Chris Wilmer'
_symmetry_space_group_name_H-M	'P1'
_symmetry_Int_Tables_number	1
_symmetry_cell_setting	triclinic
loop_
_symmetry_equiv_pos_as_xyz
  x,y,z
_cell_length_a	23.196402
_cell_length_b	14.560432
_cell_length_c	23.196401
_cell_angle_alpha	90.006674
_cell_angle_beta	59.997914
_cell_angle_gamma	60.001109
loop_
_atom_site_label
_atom_site_type_symbol
_atom_site_fract_x
_atom_site_fract_y
_atom_site_fract_z
Zr1	Zr	0.631010	0.884773	-0.075636
O2	O	0.751295	0.738102	-0.167696
O3	O	0.510738	0.929732	-0.047416
O4	O	0.631026	0.929701	-0.167694
O5	O	0.630991	0.738160	0.047461
O6	O	0.631024	1.080842	-0.167692
O7	O	0.631007	0.738132	-0.047418
O8	O	0.415851	1.080896	0.047463
O9	O	0.846163	0.738106	-0.167694
O10	O	0.560202	1.061705	-0.035378
O11	O	0.560191	0.948931	0.035428
O12	O	0.701814	0.948896	-0.106184
O13	O	0.701803	0.836122	-0.035379
Zr14	Zr	0.630982	1.125870	0.075688
Zr15	Zr	0.631008	1.125825	-0.075632
Zr16	Zr	0.630984	0.884817	0.075685
Zr17	Zr	0.782315	0.884779	-0.075634
Zr18	Zr	0.479677	1.125863	0.075686
O19	O	0.751254	1.080911	0.047469
O20	O	0.751291	1.080847	-0.167690
O21	O	0.751258	0.738166	0.047463
O22	O	0.510697	1.272540	0.167748
O23	O	0.510734	1.272477	-0.047411
O24	O	0.510701	0.929795	0.167742
O25	O	0.631001	1.272482	-0.047409
O26	O	0.630966	1.080941	0.167747
O27	O	0.630968	0.929800	0.167744
O28	O	0.630985	1.272510	0.047470
O29	O	0.846161	0.929711	-0.167691
O30	O	0.415831	1.080932	0.167743
O31	O	0.415829	1.272536	0.167746
O32	O	0.415849	1.272501	0.047467
O33	O	0.846142	0.738142	-0.047414
O34	O	0.846140	0.929746	-0.047411
O35	O	0.560178	1.061747	0.106236
O36	O	0.560189	1.174521	0.035431
O37	O	0.701801	1.061711	-0.035375
O38	O	0.701790	0.948937	0.035430
C39	C	0.441737	1.005313	0.000023
C40	C	0.377504	1.005310	0.000022
C41	C	-0.033068	0.922062	-0.052245
C42	C	0.027290	0.922052	-0.052244
C43	C	0.005197	1.005331	0.000026
C44	C	-0.077261	1.088609	0.052310
C45	C	-0.137616	1.088609	0.052312
C46	C	0.060773	1.106966	0.016317
C47	C	0.121129	1.106966	0.016310
C48	C	0.191350	1.005329	0.000023
C49	C	0.201218	0.903686	-0.016272
C50	C	0.140863	0.903686	-0.016269
C51	C	0.070636	1.005339	0.000030
C52	C	0.339245	0.922042	-0.052254
C53	C	0.399601	0.922032	-0.052249
C54	C	0.295048	1.088597	0.052302
C55	C	0.234694	1.088598	0.052300
C56	C	0.256798	1.005321	0.000018
C57	C	0.630999	0.703802	0.000021
C58	C	0.631000	0.601469	0.000020
C59	C	0.631028	0.601413	-0.104529
C60	C	0.631045	0.553309	-0.156802
C61	C	0.631045	0.457159	-0.156800
C62	C	0.631025	0.409114	-0.104517
C63	C	0.631009	0.457219	-0.052243
C64	C	0.631011	0.553369	-0.052253
C65	C	0.630975	0.457279	0.052307
C66	C	0.630981	0.553424	0.052303
C67	C	0.630956	0.409233	0.104589
C68	C	0.630945	0.457334	0.156862
C69	C	0.630946	0.553488	0.156857
C70	C	0.630964	0.601528	0.104576
C71	C	0.820255	1.005329	0.000029
C72	C	0.884488	1.005332	0.000030
C73	C	0.631029	1.005265	-0.189253
C74	C	0.631040	1.005247	-0.253493
C75	C	0.630993	1.306841	0.000031
C76	C	0.630992	1.409174	0.000033
C77	C	0.631040	1.088514	-0.283654
C78	C	0.631024	1.088539	-0.344001
C79	C	0.631023	1.005279	-0.374192
C80	C	0.631018	0.922004	-0.344020
C81	C	0.631026	0.921988	-0.283671
C82	C	0.678520	0.903667	-0.493574
C83	C	0.678516	0.903683	-0.553925
C84	C	0.630994	1.005329	-0.560328
C85	C	0.583486	1.106966	-0.506378
C86	C	0.583494	1.106950	-0.446028
C87	C	0.631014	1.005288	-0.439630
C88	C	0.630976	1.088630	-0.655924
C89	C	0.630954	1.088656	-0.716269
C90	C	0.630957	0.922112	-0.716291
C91	C	0.630970	0.922095	-0.655943
C92	C	0.630983	1.005354	-0.625765
C93	C	0.630963	1.005377	0.189305
C94	C	0.630952	1.005396	0.253545
C95	C	0.441734	1.306833	0.000028
C96	C	0.377500	1.409163	0.000029
C97	C	0.441705	1.005369	0.189302
C98	C	0.377461	1.005385	0.253541
C99	C	0.441701	1.306888	0.189307
C100	C	0.377457	1.409238	0.253548
C101	C	0.820291	0.703754	-0.189255
C102	C	0.884535	0.601405	-0.253495
C103	C	0.820258	0.703810	0.000024
C104	C	0.884492	0.601480	0.000024
C105	C	0.820287	1.005274	-0.189250
C106	C	0.884531	1.005257	-0.253489
C107	C	0.347342	1.398330	-0.036939
C108	C	0.286996	1.494471	-0.036952
C109	C	0.256805	1.601444	0.000006
C110	C	0.286969	1.612275	0.036975
C111	C	0.347318	1.516135	0.036984
C112	C	0.347284	1.064281	0.320676
C113	C	0.286929	1.064292	0.381041
C114	C	0.256747	1.005413	0.374269
C115	C	0.286929	0.946509	0.307127
C116	C	0.347288	0.946493	0.246764
C117	C	0.347292	1.516179	0.246756
C118	C	0.286936	1.612356	0.307111
C119	C	0.256741	1.601589	0.374256
C120	C	0.286911	1.494637	0.381047
C121	C	0.347270	1.398462	0.320693
C122	C	0.914707	0.494464	-0.246704
C123	C	0.975082	0.398287	-0.307058
C124	C	1.005281	0.409053	-0.374204
C125	C	0.975106	0.516006	-0.380994
C126	C	0.914736	0.612180	-0.320640
C127	C	0.914656	0.612313	0.036985
C128	C	0.975019	0.516172	0.036982
C129	C	1.005212	0.409199	0.000021
C130	C	0.975045	0.398368	-0.036945
C131	C	0.914688	0.494508	-0.036945
C132	C	0.914694	1.064148	-0.246694
C133	C	0.975050	1.064155	-0.307048
C134	C	1.005246	1.005264	-0.374194
C135	C	0.975077	0.946371	-0.380987
C136	C	0.914718	0.946372	-0.320635
H137	H	-0.015063	0.854248	-0.094815
H138	H	0.630974	0.854287	-0.631386
H139	H	0.371868	1.524966	0.192088
F140	F	1.007228	0.883691	-0.452456
H141	H	0.371850	0.898536	0.192102
H142	H	0.262377	1.699432	0.301569
H143	H	0.631038	0.679695	-0.104541
H144	H	0.262378	1.699385	0.067065
H145	H	0.207664	1.679718	-0.000006
F146	F	-0.100772	1.177236	0.107941
H147	H	0.890130	0.485671	-0.067042
F148	F	0.630917	0.406202	0.212502
H149	H	1.054437	0.330732	-0.423343
H150	H	0.630950	0.330947	0.104592
F151	F	0.630970	0.703855	0.104564
F152	F	0.630985	1.177245	-0.623803
H153	H	0.631048	1.156310	-0.259084
F154	F	0.631024	1.177168	-0.376107
F155	F	0.882627	0.725993	-0.327879
H156	H	0.207599	1.005435	0.423427
F157	F	1.007150	1.126834	-0.299803
H158	H	0.630927	0.592654	0.199427
H159	H	0.544809	1.189706	-0.402102
F160	F	0.882577	0.482980	-0.175248
H161	H	0.544788	1.189736	-0.511587
F162	F	0.631057	0.405967	-0.212433
F163	F	0.882629	0.883679	-0.327877
H164	H	0.094428	0.854228	-0.094805
F165	F	0.254799	0.883851	0.299931
F166	F	1.007183	0.284471	-0.299817
F167	F	0.379363	1.284650	0.327932
H168	H	0.631058	0.592437	-0.199370
F169	F	1.007253	0.527447	-0.452462
F170	F	0.254815	1.126991	0.452491
H171	H	0.890077	0.699407	0.067087
F172	F	1.007111	0.527723	0.076330
F173	F	0.192499	1.703958	0.438485
H174	H	0.262317	1.485887	0.435725
H175	H	1.054359	0.330925	0.000027
H176	H	0.999638	0.311258	-0.067037
H177	H	0.148900	0.820925	-0.029535
H178	H	0.258395	0.820923	-0.029535
F179	F	0.882568	1.126833	-0.175237
H180	H	0.371865	1.524971	0.067091
F181	F	1.069487	1.005271	-0.438422
H182	H	0.357243	0.854231	-0.094824
H183	H	0.277059	1.156399	0.094865
F184	F	0.487351	0.833392	-0.107886
H185	H	0.113090	1.189729	0.029573
F186	F	0.146945	1.177230	0.107937
H187	H	0.003595	1.189737	0.029583
F188	F	-0.225366	1.177241	0.107952
H189	H	0.631015	0.330832	-0.104514
H190	H	0.630952	0.854324	-0.740870
F191	F	0.630948	1.177289	-0.748368
F192	F	0.729083	0.795513	-0.611340
H193	H	0.631016	0.854214	-0.368604
F194	F	0.631026	0.833360	-0.251569
F195	F	0.729148	0.795481	-0.486792
H196	H	0.371923	1.311235	-0.067043
H197	H	0.371852	1.112228	0.326203
F198	F	0.254902	1.482920	-0.076298
