data_functionalizedCrystal
_audit_creation_method	'MofGen! by Chris Wilmer'
_symmetry_space_group_name_H-M	'P1'
_symmetry_Int_Tables_number	1
_symmetry_cell_setting	triclinic
loop_
_symmetry_equiv_pos_as_xyz
  x,y,z
_cell_length_a	27.732048
_cell_length_b	10.654550
_cell_length_c	9.130313
_cell_angle_alpha	89.999890
_cell_angle_beta	90.005287
_cell_angle_gamma	83.563779
loop_
_atom_site_label
_atom_site_type_symbol
_atom_site_fract_x
_atom_site_fract_y
_atom_site_fract_z
O1	O	0.641855	0.149411	-0.121607
O2	O	0.501203	0.172130	-0.121651
O3	O	0.574763	-0.022105	-0.121623
O4	O	0.568295	0.343646	-0.121636
O5	O	0.574762	-0.022100	0.121976
O6	O	0.501202	0.172135	0.121948
O7	O	0.641854	0.149416	0.121991
Cu8	Cu	0.571528	0.160776	0.144212
Cu9	Cu	0.571529	0.160770	-0.143872
O10	O	0.568294	0.343651	0.121963
C11	C	0.574287	-0.068880	0.000175
C12	C	0.572867	-0.208264	0.000169
C13	C	0.483193	0.171655	0.000143
C14	C	0.429529	0.170219	0.000126
C15	C	0.616177	-0.289570	0.000187
C16	C	0.614840	-0.420535	0.000176
C17	C	0.526876	-0.388874	0.000136
C18	C	0.528215	-0.257912	0.000136
C19	C	0.660830	-0.239922	0.000220
C20	C	0.704144	-0.321230	0.000239
C21	C	0.702806	-0.452195	0.000229
C22	C	0.658154	-0.501852	0.000199
C23	C	0.091372	0.275959	0.000186
C24	C	-0.110321	0.270631	0.000199
O25	O	-0.140974	0.367322	0.000259
N26	N	-0.130162	0.155458	0.000200
C27	C	-0.099576	0.041609	0.000208
O28	O	-0.121080	-0.056475	0.000225
C29	C	0.102116	0.046938	0.000205
C30	C	0.121954	0.162118	0.000189
C31	C	0.111211	0.391130	0.000171
C32	C	0.161631	0.392461	0.000160
C33	C	0.192213	0.278620	0.000163
C34	C	0.172374	0.163449	0.000178
C35	C	0.132701	-0.066910	0.000224
C36	C	0.183126	-0.065567	0.000227
C37	C	0.202964	0.049613	0.000210
C38	C	0.253376	0.050940	0.000170
N39	N	0.273217	0.166113	0.000168
C40	C	0.242635	0.279953	0.000165
C41	C	-0.205467	0.038819	0.000207
C42	C	-0.255890	0.037486	0.000205
C43	C	-0.266631	0.266509	0.000198
C44	C	-0.216208	0.267840	0.000190
C45	C	-0.185626	0.153992	0.000205
C46	C	0.348522	0.282739	0.000140
C47	C	0.398947	0.284060	0.000123
C48	C	0.409684	0.055038	0.000137
C49	C	0.359263	0.053716	0.000146
C50	C	0.328683	0.167577	0.000153
O51	O	0.284058	-0.045700	0.000126
O52	O	0.264149	0.378023	0.000181
C53	C	0.040952	0.274628	0.000197
C54	C	0.021113	0.159457	0.000212
C55	C	0.051695	0.045616	0.000215
C56	C	-0.029309	0.158124	0.000210
C57	C	-0.059891	0.271965	0.000206
C58	C	-0.040050	0.387138	0.000205
C59	C	0.010370	0.388469	0.000194
C60	C	0.031854	-0.069557	0.000216
C61	C	-0.018567	-0.070878	0.000226
C62	C	-0.049148	0.042962	0.000223
C63	C	0.659864	0.149890	0.000194
C64	C	0.713528	0.151326	0.000201
C65	C	0.568769	0.390426	0.000162
C66	C	0.570190	0.529810	0.000158
N67	N	0.571531	0.160779	0.346835
N68	N	0.571530	0.160756	-0.346494
C69	C	0.604111	0.074801	0.423499
C70	C	0.604110	0.074786	0.576836
C71	C	0.538946	0.246739	0.576830
C72	C	0.538945	0.246747	0.423496
C73	C	0.636697	-0.011166	0.346838
C74	C	0.669281	-0.097151	0.423502
C75	C	0.669279	-0.097166	0.576839
C76	C	0.636694	-0.011197	0.653511
H77	H	0.740498	-0.280791	0.000227
H78	H	0.026517	0.482260	0.000182
H79	H	0.208024	-0.158279	0.000240
C80	C	0.636689	-0.011214	0.822178
H81	H	0.612617	0.052296	0.856857
H82	H	0.667636	0.005415	0.856885
H83	H	0.629804	-0.091365	0.856848
C84	C	0.750449	-0.541629	0.000247
H85	H	0.777231	-0.493299	0.000277
H86	H	0.751759	-0.593377	-0.084701
H87	H	0.751752	-0.593374	0.085207
C88	C	0.705120	-0.191717	0.339177
H89	H	0.724520	-0.242934	0.406801
H90	H	0.725389	-0.146900	0.279372
H91	H	0.687558	-0.243680	0.279352
C92	C	0.443330	-0.070177	0.000152
H93	H	0.476200	-0.052878	0.000162
H94	H	0.437275	-0.117463	-0.084785
H95	H	0.437277	-0.117431	0.085122
H96	H	0.695807	-0.167186	0.639258
H97	H	-0.064959	0.479831	0.000196
C98	C	0.183446	0.519160	0.000170
H99	H	0.158006	0.586759	0.000187
H100	H	0.202891	0.524460	-0.084772
H101	H	0.202893	0.524439	0.085135
H102	H	0.415096	0.377858	0.000108
H103	H	0.512417	0.316733	0.639267
H104	H	-0.034713	-0.164679	0.000228
C105	C	0.314891	0.407983	0.000128
H106	H	0.333934	0.476756	0.000102
H107	H	0.294999	0.412247	0.085073
H108	H	0.294997	0.412219	-0.084834
H109	H	0.512414	0.316757	0.361075
H110	H	0.657068	-0.608493	0.000174
C111	C	0.662301	-0.095866	0.000227
H112	H	0.630110	-0.054553	0.000219
H113	H	0.678850	-0.072081	-0.084707
H114	H	0.678842	-0.072091	0.085200
H115	H	0.490522	-0.429315	0.000114
H116	H	0.492947	-0.191709	0.000124
H117	H	0.056749	-0.162261	0.000223
C118	C	0.636699	-0.011146	0.178173
H119	H	0.612630	0.052379	0.143493
H120	H	0.629822	-0.091286	0.143463
H121	H	0.667648	0.005510	0.143509
C122	C	0.077578	0.516366	0.000155
H123	H	0.096622	0.585137	0.000135
H124	H	0.057683	0.520631	0.085096
H125	H	0.057686	0.520605	-0.084812
H126	H	-0.200059	0.361630	0.000185
C127	C	-0.171834	-0.086423	0.000207
H128	H	-0.190877	-0.155197	0.000193
H129	H	-0.151937	-0.090679	0.085153
H130	H	-0.151945	-0.090667	-0.084754
H131	H	-0.291540	0.359202	0.000196
H132	H	-0.272038	-0.056305	0.000195
C133	C	0.110890	-0.193610	0.000261
H134	H	0.136331	-0.261207	0.000285
H135	H	0.091439	-0.198920	-0.084677
H136	H	0.091450	-0.198882	0.085230
C137	C	0.337440	-0.072978	0.000149
H138	H	0.362877	-0.140585	0.000153
H139	H	0.317986	-0.078262	-0.084789
H140	H	0.318001	-0.078257	0.085118
