data_functionalizedCrystal
_audit_creation_method	'MofGen! by Chris Wilmer'
_symmetry_space_group_name_H-M	'P1'
_symmetry_Int_Tables_number	1
_symmetry_cell_setting	triclinic
loop_
_symmetry_equiv_pos_as_xyz
  x,y,z
_cell_length_a	14.908520
_cell_length_b	17.077404
_cell_length_c	17.077396
_cell_angle_alpha	90.019699
_cell_angle_beta	93.268321
_cell_angle_gamma	86.682202
loop_
_atom_site_label
_atom_site_type_symbol
_atom_site_fract_x
_atom_site_fract_y
_atom_site_fract_z
Zn1	Zn	-0.359229	-1.182020	-0.461875
Zn2	Zn	0.140771	-0.682020	0.038125
Zn3	Zn	-0.510100	-1.174353	-0.338181
Zn4	Zn	-0.010100	-0.674353	0.161819
Zn5	Zn	-0.359252	-1.050751	-0.330624
Zn6	Zn	0.140748	-0.550751	0.169376
Zn7	Zn	-0.510038	-1.043149	-0.469401
Zn8	Zn	-0.010038	-0.543149	0.030599
O9	O	-0.434655	-1.112568	-0.400020
O10	O	0.065345	-0.612568	0.099980
O11	O	-0.379258	-1.290849	-0.445480
O12	O	0.120742	-0.790849	0.054520
O13	O	-0.490125	-1.157929	-0.227333
O14	O	0.009875	-0.657929	0.272667
O15	O	-0.233005	-1.074554	-0.341723
O16	O	0.266995	-0.574554	0.158277
O17	O	-0.490103	-1.285216	-0.354602
O18	O	0.009897	-0.785216	0.145398
O19	O	-0.232987	-1.170997	-0.438152
O20	O	0.267013	-0.670997	0.061848
O21	O	-0.379298	-1.067119	-0.221781
O22	O	0.120702	-0.567119	0.278219
O23	O	-0.379238	-0.939896	-0.349020
O24	O	0.120762	-0.439896	0.150980
O25	O	-0.489997	-1.061597	-0.578248
O26	O	0.010003	-0.561597	-0.078248
O27	O	-0.490020	-0.934311	-0.450979
O28	O	0.009980	-0.434311	0.049021
O29	O	-0.379198	-1.163626	-0.572719
O30	O	0.120802	-0.663626	-0.072719
O31	O	-0.636336	-1.150558	-0.361900
O32	O	-0.136336	-0.650558	0.138100
O33	O	-0.636291	-1.054163	-0.458307
O34	O	-0.136291	-0.554163	0.041693
C35	C	-0.434626	-0.908622	-0.399996
C36	C	0.065374	-0.408622	0.100004
C37	C	-0.434635	-0.821371	-0.400006
C38	C	0.065365	-0.321371	0.099994
C39	C	-0.377020	-0.783310	-0.447407
C40	C	0.122980	-0.283310	0.052593
C41	C	-0.377024	-0.701329	-0.447409
C42	C	0.122976	-0.201329	0.052591
C43	C	-0.434649	-0.657411	-0.400014
C44	C	0.065351	-0.157411	0.099986
C45	C	-0.492266	-0.695478	-0.352607
C46	C	0.007734	-0.195478	0.147393
C47	C	-0.492256	-0.777458	-0.352602
C48	C	0.007744	-0.277458	0.147398
C49	C	-0.492283	-0.524607	-0.352624
C50	C	0.007717	-0.024607	0.147376
C51	C	-0.492294	-0.442622	-0.352630
C52	C	0.007706	0.057378	0.147370
C53	C	-0.377051	-0.448479	-0.447431
C54	C	0.122949	0.051521	0.052569
C55	C	-0.377042	-0.530458	-0.447425
C56	C	0.122958	-0.030458	0.052575
C57	C	-0.434660	-0.568520	-0.400020
C58	C	0.065340	-0.068520	0.099980
C59	C	-0.669047	-1.100725	-0.411757
C60	C	-0.169047	-0.600725	0.088243
C61	C	-0.769321	-1.095730	-0.416804
C62	C	-0.269321	-0.595730	0.083196
C63	C	-0.957733	-1.186824	-0.325981
C64	C	-0.457733	-0.686824	0.174019
C65	C	-1.051950	-1.182134	-0.330721
C66	C	-0.551950	-0.682134	0.169279
C67	C	-1.051973	-1.081664	-0.431027
C68	C	-0.551973	-0.581664	0.068973
C69	C	-0.957756	-1.086354	-0.426287
C70	C	-0.457756	-0.586354	0.073713
C71	C	-0.910640	-1.138935	-0.373762
C72	C	-0.410640	-0.638935	0.126238
C73	C	-0.816422	-1.143621	-0.369018
C74	C	-0.316422	-0.643621	0.130982
C75	C	-0.816446	-1.043155	-0.469328
C76	C	-0.316446	-0.543155	0.030672
C77	C	-0.910663	-1.038465	-0.474068
C78	C	-0.410663	-0.538465	0.025932
C79	C	-0.199347	-1.124479	-0.388255
C80	C	0.300653	-0.624479	0.111745
C81	C	-0.099073	-1.129554	-0.383241
C82	C	0.400927	-0.629554	0.116759
C83	C	-0.434588	-1.112619	-0.604761
C84	C	0.065412	-0.612619	-0.104761
C85	C	-0.434560	-1.112641	-0.692010
C86	C	0.065440	-0.612641	-0.192010
C87	C	-0.434680	-0.317311	-0.400039
C88	C	0.065320	0.182689	0.099961
C89	C	-0.434680	-0.404561	-0.400031
C90	C	0.065320	0.095439	0.099969
C91	C	-0.376862	-1.165769	-0.730122
C92	C	0.123138	-0.665769	-0.230122
C93	C	-0.376832	-1.165780	-0.812101
C94	C	0.123168	-0.665780	-0.312101
C95	C	-0.434505	-1.112666	-0.855967
C96	C	0.065495	-0.612666	-0.355967
C97	C	-0.492206	-1.059532	-0.817849
C98	C	0.007794	-0.559532	-0.317849
C99	C	-0.492230	-1.059518	-0.735871
C100	C	0.007770	-0.559518	-0.235871
C101	C	-0.492151	-1.059566	-0.988716
C102	C	0.007849	-0.559566	-0.488716
C103	C	-0.492128	-1.059581	-1.070700
C104	C	0.007872	-0.559581	-0.570700
C105	C	-0.376753	-1.165828	-1.064946
C106	C	0.123247	-0.665828	-0.564946
C107	C	-0.376778	-1.165814	-0.982968
C108	C	0.123222	-0.665814	-0.482968
C109	C	-0.434480	-1.112681	-0.944856
C110	C	0.065520	-0.612681	-0.444856
C111	C	-0.434656	-1.112566	-0.196073
C112	C	0.065344	-0.612566	0.303927
C113	C	-0.434430	-1.112709	-0.108812
C114	C	0.065570	-0.612709	0.391188
H115	H	-0.539218	-0.406866	-0.314037
H116	H	-0.039218	0.093134	0.185963
O117	O	-1.102812	-1.024960	-0.487672
O118	O	-0.602812	-0.524960	0.012328
H119	H	-1.084682	-1.039288	-0.548383
H120	H	-0.584682	-0.539288	-0.048383
O121	O	-0.961481	-0.981743	-0.530708
O122	O	-0.461481	-0.481743	-0.030708
H123	H	-1.034908	-0.986520	-0.525972
H124	H	-0.534908	-0.486520	-0.025972
H125	H	-0.778092	-1.004159	-0.508232
H126	H	-0.278092	-0.504159	-0.008232
O127	O	-0.554430	-0.565664	-0.301497
O128	O	-0.054430	-0.065664	0.198503
H129	H	-0.594509	-0.521354	-0.268548
H130	H	-0.094509	-0.021354	0.231452
O131	O	-0.314581	-1.223107	-0.935656
O132	O	0.185419	-0.723107	-0.435656
H133	H	-0.268693	-1.190293	-0.895999
H134	H	0.231307	-0.690293	-0.395999
H135	H	-0.329769	-1.209090	-1.095981
H136	H	0.170231	-0.709090	-0.595981
H137	H	-0.329901	-1.209023	-0.694412
H138	H	0.170099	-0.709023	-0.194412
H139	H	-0.330098	-0.819062	-0.486004
H140	H	0.169902	-0.319062	0.013996
H141	H	-0.330110	-0.670344	-0.486009
H142	H	0.169890	-0.170344	0.013991
H143	H	-0.330124	-0.566214	-0.486023
H144	H	0.169876	-0.066214	0.013977
O145	O	-0.314602	-1.223085	-0.853206
O146	O	0.185398	-0.723085	-0.353206
H147	H	-0.354977	-1.260977	-0.892588
H148	H	0.145023	-0.760977	-0.392588
H149	H	-0.330134	-0.417486	-0.486028
H150	H	0.169866	0.082514	0.013972
O151	O	-0.554452	-1.002203	-0.694764
O152	O	-0.054452	-0.502203	-0.194764
H153	H	-0.625258	-1.012076	-0.714030
H154	H	-0.125258	-0.512076	-0.214030
H155	H	-0.539088	-1.016329	-1.106413
H156	H	-0.039088	-0.516329	-0.606413
O157	O	-0.554379	-1.002255	-0.947604
O158	O	-0.054379	-0.502255	-0.447604
H159	H	-0.594484	-0.965327	-0.991878
H160	H	-0.094484	-0.465327	-0.491878
O161	O	-0.554404	-1.002236	-0.865157
O162	O	-0.054404	-0.502236	-0.365157
H163	H	-0.600305	-1.035048	-0.904804
H164	H	-0.100305	-0.535048	-0.404804
H165	H	-0.539180	-0.659714	-0.314013
H166	H	-0.039180	-0.159714	0.185987
O167	O	-0.554398	-0.818516	-0.301478
O168	O	-0.054398	-0.318516	0.198522
H169	H	-0.594476	-0.774206	-0.268527
H170	H	-0.094476	-0.274206	0.231473
H171	H	-0.778060	-1.186433	-0.326248
H172	H	-0.278060	-0.686433	0.173752
H173	H	-1.090290	-1.221131	-0.291814
H174	H	-0.590290	-0.721131	0.208186
O175	O	-0.906905	-1.243532	-0.269333
O176	O	-0.406905	-0.743532	0.230667
H177	H	-0.955482	-1.276047	-0.236905
H178	H	-0.455482	-0.776047	0.263095
