data_functionalizedCrystal
_audit_creation_method	'MofGen! by Chris Wilmer'
_symmetry_space_group_name_H-M	'P1'
_symmetry_Int_Tables_number	1
_symmetry_cell_setting	triclinic
loop_
_symmetry_equiv_pos_as_xyz
  x,y,z
_cell_length_a	15.995350
_cell_length_b	15.995350
_cell_length_c	14.472310
_cell_angle_alpha	90.001162
_cell_angle_beta	89.990621
_cell_angle_gamma	83.492375
loop_
_atom_site_label
_atom_site_type_symbol
_atom_site_fract_x
_atom_site_fract_y
_atom_site_fract_z
O1	O	1.110997	0.107921	-0.076758
O2	O	0.867221	0.121248	-0.076776
O3	O	0.995773	-0.007303	-0.076766
O4	O	0.982445	0.236472	-0.076769
O5	O	0.995740	-0.007296	0.076916
O6	O	0.867188	0.121256	0.076906
O7	O	1.110963	0.107928	0.076924
Cu8	Cu	0.989073	0.114593	0.090947
Cu9	Cu	0.989112	0.114584	-0.090800
O10	O	0.982412	0.236480	0.076913
C11	C	0.836010	0.120701	0.000062
C12	C	0.743060	0.119049	0.000055
C13	C	0.995205	-0.038494	0.000073
C14	C	0.993553	-0.131444	0.000068
C15	C	0.405312	0.113117	0.000074
C16	C	0.452746	0.021565	0.000418
C17	C	0.549436	0.023217	0.000065
C18	C	0.572873	0.116060	0.000065
C19	C	0.531804	0.161212	-0.087692
C20	C	0.435169	0.158912	-0.087759
C21	C	0.434792	0.160812	0.087007
C22	C	0.531737	0.160790	0.088160
C23	C	0.667570	0.117727	0.000057
C24	C	0.310614	0.111452	0.000076
C25	C	0.987621	-0.469192	0.000071
C26	C	0.896069	-0.421758	-0.000281
C27	C	0.897721	-0.325068	0.000066
C28	C	0.990564	-0.301631	0.000069
C29	C	1.035701	-0.342705	0.087831
C30	C	1.033401	-0.439340	0.087904
C31	C	1.035330	-0.439707	-0.086861
C32	C	1.035309	-0.342762	-0.088021
C33	C	0.992231	-0.206934	0.000071
C34	C	0.985956	-0.563890	0.000075
C35	C	1.142175	0.108476	0.000083
C36	C	1.235125	0.110127	0.000084
C37	C	0.982980	0.267671	0.000072
C38	C	0.984631	0.360621	0.000071
N39	N	0.989051	0.114598	0.218778
N40	N	0.989140	0.114572	-0.218631
C41	C	0.989111	0.114581	0.592869
C42	C	0.920095	0.183135	0.553698
C43	C	0.920254	0.183385	0.446610
C44	C	0.989081	0.114590	0.407278
C45	C	1.076445	0.133671	0.446122
C46	C	1.076057	0.134159	0.553243
C47	C	0.971542	0.026741	0.553398
C48	C	0.969538	0.027327	0.446270
C49	C	0.989069	0.114593	0.302390
C50	C	0.989128	0.114579	0.697757
H51	H	0.577852	-0.012275	0.062973
H52	H	1.129018	0.086196	0.579154
N53	N	0.833793	0.168331	0.587851
H54	H	0.790445	0.213004	0.561910
H55	H	0.820624	0.111020	0.566950
H56	H	0.559040	0.127830	0.153082
H57	H	0.414242	0.130885	0.153524
N58	N	1.096558	0.219011	0.586345
H59	H	1.153948	0.229324	0.562816
H60	H	1.052901	0.264335	0.562265
H61	H	1.005412	-0.460250	-0.153379
H62	H	0.547101	0.228494	0.093461
H63	H	0.560193	0.129845	-0.153002
H64	H	1.103909	-0.328579	0.091097
H65	H	1.129029	0.085068	0.420643
H66	H	0.403031	0.228313	0.087600
H67	H	0.862239	-0.296649	-0.062846
N68	N	0.994131	-0.305107	0.174332
H69	H	0.971843	-0.350921	0.211978
H70	H	1.036658	-0.277720	0.212036
N71	N	0.934771	0.269003	0.589294
H72	H	0.985928	0.263688	0.630689
H73	H	0.944211	0.306955	0.535419
H74	H	1.103014	-0.327400	-0.093317
H75	H	1.002307	-0.315516	-0.152945
H76	H	1.000459	-0.457639	0.153505
H77	H	0.931473	0.248569	0.420976
N78	N	0.428201	-0.026908	0.083784
H79	H	0.386092	0.010004	0.122138
H80	H	0.402266	-0.078387	0.062776
N81	N	0.392427	0.247934	-0.093043
H82	H	0.355713	0.260232	-0.036786
H83	H	0.436430	0.288455	-0.095352
H84	H	0.859490	-0.440293	-0.063217
H85	H	1.092297	0.197002	0.419285
H86	H	0.859626	-0.441349	0.062299
N87	N	0.586352	-0.024112	-0.083416
H88	H	0.616196	0.014919	-0.123407
H89	H	0.627752	-0.072839	-0.062576
H90	H	0.861973	-0.297200	0.063079
N91	N	1.122430	-0.482065	0.093188
H92	H	1.162994	-0.438098	0.095464
H93	H	1.129118	-0.517947	0.150710
H94	H	1.102831	-0.471468	-0.087449
H95	H	0.855314	0.172016	0.420349
N96	N	0.888975	0.002443	0.589215
H97	H	0.862121	0.048136	0.631397
H98	H	0.850194	-0.004971	0.535499
H99	H	0.905272	0.012845	0.420883
N100	N	1.038201	-0.040834	0.586968
H101	H	1.010854	-0.084082	0.623639
H102	H	1.068808	-0.068903	0.532179
H103	H	1.016541	-0.026079	0.419500
H104	H	0.416874	0.125979	-0.153359
N105	N	0.426789	-0.026693	-0.082471
H106	H	0.441302	0.003000	-0.140927
H107	H	0.457547	-0.085427	-0.081648
N108	N	0.550521	0.251559	-0.092032
H109	H	0.585886	0.264119	-0.037021
H110	H	0.582181	0.260835	-0.150852
