data_functionalizedCrystal
_audit_creation_method	'MofGen! by Chris Wilmer'
_symmetry_space_group_name_H-M	'P1'
_symmetry_Int_Tables_number	1
_symmetry_cell_setting	triclinic
loop_
_symmetry_equiv_pos_as_xyz
  x,y,z
_cell_length_a	25.639242
_cell_length_b	25.639239
_cell_length_c	25.639233
_cell_angle_alpha	89.981253
_cell_angle_beta	89.977834
_cell_angle_gamma	90.034213
loop_
_atom_site_label
_atom_site_type_symbol
_atom_site_fract_x
_atom_site_fract_y
_atom_site_fract_z
Zn1	Zn	0.799225	-0.208277	-0.295742
Zn2	Zn	1.299225	0.291723	0.204258
Zn3	Zn	0.799149	-0.295696	-0.208307
Zn4	Zn	1.299149	0.204304	0.291693
Zn5	Zn	0.711801	-0.208269	-0.208306
Zn6	Zn	1.211801	0.291731	0.291694
Zn7	Zn	0.711746	-0.295676	-0.295696
Zn8	Zn	1.211746	0.204324	0.204304
O9	O	0.755480	-0.251979	-0.252013
O10	O	1.255480	0.248021	0.247987
O11	O	0.872380	-0.219884	-0.284163
O12	O	1.372380	0.280116	0.215837
O13	O	0.787553	-0.284103	-0.135141
O14	O	1.287553	0.215897	0.364859
O15	O	0.723453	-0.135105	-0.219924
O16	O	1.223453	0.364895	0.280076
O17	O	0.872324	-0.284111	-0.219924
O18	O	1.372324	0.215889	0.280076
O19	O	0.787683	-0.135111	-0.284163
O20	O	1.287683	0.364889	0.215837
O21	O	0.723379	-0.219871	-0.135141
O22	O	1.223379	0.280129	0.364859
O23	O	0.638629	-0.219853	-0.219880
O24	O	1.138629	0.280147	0.280120
O25	O	0.723360	-0.284078	-0.368868
O26	O	1.223360	0.215922	0.131132
O27	O	0.638589	-0.284070	-0.284085
O28	O	1.138589	0.215930	0.215915
O29	O	0.787630	-0.219866	-0.368901
O30	O	1.287630	0.280134	0.131099
O31	O	0.787499	-0.368858	-0.219880
O32	O	1.287499	0.131142	0.280120
O33	O	0.723286	-0.368844	-0.284085
O34	O	1.223286	0.131156	0.215915
C35	C	0.619638	-0.251959	-0.251977
C36	C	1.119638	0.248041	0.248023
C37	C	0.561524	-0.251963	-0.251975
C38	C	1.061524	0.248037	0.248025
C39	C	0.201149	-0.285473	-0.285413
C40	C	0.701149	0.214527	0.214587
C41	C	0.146544	-0.285477	-0.285421
C42	C	0.646544	0.214523	0.214579
O43	O	0.118297	-0.313943	-0.313821
O44	O	0.618297	0.186057	0.186179
N45	N	0.119241	-0.251994	-0.252047
N46	N	0.619241	0.248006	0.247953
C47	C	0.146545	-0.218502	-0.218666
C48	C	0.646545	0.281498	0.281334
O49	O	0.118308	-0.190022	-0.190280
O50	O	0.618308	0.309978	0.309720
C51	C	0.201149	-0.218496	-0.218661
C52	C	0.701149	0.281504	0.281339
C53	C	0.228449	-0.251985	-0.252034
C54	C	0.728449	0.248015	0.247966
C55	C	0.228449	-0.318959	-0.318783
C56	C	0.728449	0.181041	0.181217
C57	C	0.283049	-0.318956	-0.318774
C58	C	0.783049	0.181044	0.181226
C59	C	0.310350	-0.285468	-0.285395
C60	C	0.810350	0.214532	0.214605
C61	C	0.283049	-0.251983	-0.252024
C62	C	0.783049	0.248017	0.247976
C63	C	0.228452	-0.185002	-0.185283
C64	C	0.728452	0.314998	0.314717
C65	C	0.283059	-0.185000	-0.185281
C66	C	0.783059	0.315000	0.314719
C67	C	0.310359	-0.218488	-0.218654
C68	C	0.810359	0.281512	0.281346
C69	C	0.364950	-0.218492	-0.218636
C70	C	0.864950	0.281508	0.281364
N71	N	0.392253	-0.251974	-0.252010
N72	N	0.892253	0.248026	0.247990
C73	C	0.364953	-0.285463	-0.285389
C74	C	0.864953	0.214537	0.214611
C75	C	0.031875	-0.218515	-0.218680
C76	C	0.531875	0.281485	0.281320
C77	C	-0.022728	-0.218523	-0.218683
C78	C	0.477272	0.281477	0.281317
C79	C	-0.022725	-0.285497	-0.285438
C80	C	0.477275	0.214503	0.214562
C81	C	0.031878	-0.285492	-0.285433
C82	C	0.531878	0.214508	0.214567
C83	C	0.059178	-0.251998	-0.252054
C84	C	0.559178	0.248002	0.247946
C85	C	0.479618	-0.285455	-0.285368
C86	C	0.979618	0.214545	0.214632
C87	C	0.534223	-0.285451	-0.285354
C88	C	1.034223	0.214549	0.214646
C89	C	0.534216	-0.218475	-0.218601
C90	C	1.034216	0.281525	0.281399
C91	C	0.479615	-0.218481	-0.218612
C92	C	0.979615	0.281519	0.281388
C93	C	0.452318	-0.251972	-0.252000
C94	C	0.952318	0.248028	0.248000
O95	O	0.393232	-0.190038	-0.190252
O96	O	0.893232	0.309962	0.309748
O97	O	0.393197	-0.313933	-0.313776
O98	O	0.893197	0.186067	0.186224
C99	C	0.755392	-0.387822	-0.251989
C100	C	1.255392	0.112178	0.248011
C101	C	0.755403	-0.445936	-0.251996
C102	C	1.255403	0.054064	0.248004
C103	C	0.789004	-0.806294	-0.218638
C104	C	1.289004	-0.306294	0.281362
C105	C	0.789024	-0.860898	-0.218645
C106	C	1.289024	-0.360898	0.281355
O107	O	0.817502	-0.889131	-0.190257
O108	O	1.317502	-0.389131	0.309743
N109	N	0.755572	-0.888218	-0.252048
N110	N	1.255572	-0.388218	0.247952
C111	C	0.722102	-0.860932	-0.285449
C112	C	1.222102	-0.360932	0.214551
O113	O	0.693651	-0.889184	-0.313861
O114	O	1.193651	-0.389184	0.186139
C115	C	0.722085	-0.806328	-0.285444
C116	C	1.222085	-0.306328	0.214556
C117	C	0.755535	-0.779011	-0.252036
C118	C	1.255535	-0.279011	0.247964
C119	C	0.822452	-0.778976	-0.185233
C120	C	1.322452	-0.278976	0.314767
C121	C	0.822431	-0.724376	-0.185226
C122	C	1.322431	-0.224376	0.314774
C123	C	0.788962	-0.697093	-0.218623
C124	C	1.288962	-0.197093	0.281377
C125	C	0.755514	-0.724410	-0.252028
C126	C	1.255514	-0.224410	0.247972
C127	C	0.688617	-0.779042	-0.318847
C128	C	1.188617	-0.279042	0.181153
C129	C	0.688603	-0.724435	-0.318840
C130	C	1.188603	-0.224435	0.181160
C131	C	0.722053	-0.697118	-0.285432
C132	C	1.222053	-0.197118	0.214568
C133	C	0.722024	-0.642527	-0.285418
C134	C	1.222024	-0.142527	0.214582
N135	N	0.755475	-0.615206	-0.252016
N136	N	1.255475	-0.115206	0.247984
C137	C	0.788944	-0.642490	-0.218618
C138	C	1.288944	-0.142490	0.281382
C139	C	0.722141	-0.975602	-0.285457
C140	C	1.222141	-0.475602	0.214543
C141	C	0.722155	-1.030204	-0.285459
C142	C	1.222155	-0.530204	0.214541
C143	C	0.789078	-1.030167	-0.218656
C144	C	1.289078	-0.530167	0.281344
C145	C	0.789061	-0.975564	-0.218652
C146	C	1.289061	-0.475564	0.281348
C147	C	0.755593	-0.948282	-0.252055
C148	C	1.255593	-0.448282	0.247945
C149	C	0.788897	-0.527824	-0.218605
C150	C	1.288897	-0.027824	0.281395
C151	C	0.788872	-0.473219	-0.218599
C152	C	1.288872	0.026781	0.281401
C153	C	0.721951	-0.473261	-0.285403
C154	C	1.221951	0.026739	0.214597
C155	C	0.721974	-0.527862	-0.285408
C156	C	1.221974	-0.027862	0.214592
C157	C	0.755452	-0.555142	-0.252007
C158	C	1.255452	-0.055142	0.247993
O159	O	0.693562	-0.614260	-0.313793
O160	O	1.193562	-0.114260	0.186207
O161	O	0.817396	-0.614231	-0.190216
O162	O	1.317396	-0.114231	0.309784
C163	C	0.891853	-0.252000	-0.252049
C164	C	1.391853	0.248000	0.247951
C165	C	0.949967	-0.252009	-0.252064
C166	C	1.449967	0.247991	0.247936
C167	C	0.755497	-0.251970	-0.388386
C168	C	1.255497	0.248030	0.111614
C169	C	0.755504	-0.251966	-0.446500
C170	C	1.255504	0.248034	0.053500
C171	C	0.755583	-0.115606	-0.252048
C172	C	1.255583	0.384394	0.247952
C173	C	0.755627	-0.057492	-0.252064
C174	C	1.255627	0.442508	0.247936
C175	C	0.789012	-0.218432	-0.806886
C176	C	1.289012	0.281568	-0.306886
C177	C	0.789019	-0.218417	-0.861491
C178	C	1.289019	0.281583	-0.361491
O179	O	0.817466	-0.189967	-0.889747
O180	O	1.317466	0.310033	-0.389747
N181	N	0.755562	-0.251844	-0.888783
N182	N	1.255562	0.248156	-0.388783
C183	C	0.722093	-0.285283	-0.861468
C184	C	1.222093	0.214717	-0.361468
O185	O	0.693636	-0.313713	-0.889695
O186	O	1.193636	0.186287	-0.389695
C187	C	0.722084	-0.285294	-0.806864
C188	C	1.222084	0.214706	-0.306864
C189	C	0.755547	-0.251870	-0.779575
C190	C	1.255547	0.248130	-0.279575
C191	C	0.822472	-0.185009	-0.779597
C192	C	1.322472	0.314991	-0.279597
C193	C	0.822466	-0.185025	-0.724997
C194	C	1.322466	0.314975	-0.224997
C195	C	0.789000	-0.218462	-0.697685
C196	C	1.289000	0.281538	-0.197685
C197	C	0.755541	-0.251885	-0.724974
C198	C	1.255541	0.248115	-0.224974
C199	C	0.688613	-0.318731	-0.779550
C200	C	1.188613	0.181269	-0.279550
C201	C	0.688607	-0.318739	-0.724943
C202	C	1.188607	0.181261	-0.224943
C203	C	0.722069	-0.285314	-0.697654
C204	C	1.222069	0.214686	-0.197654
C205	C	0.722070	-0.285338	-0.643063
C206	C	1.222070	0.214662	-0.143063
N207	N	0.755526	-0.251912	-0.615771
N208	N	1.255526	0.248088	-0.115771
C209	C	0.788992	-0.218474	-0.643082
C210	C	1.288992	0.281526	-0.143082
C211	C	0.722113	-0.285256	-0.976138
C212	C	1.222113	0.214744	-0.476138
C213	C	0.722124	-0.285247	-1.030741
C214	C	1.222124	0.214753	-0.530741
C215	C	0.789049	-0.218381	-1.030760
C216	C	1.289049	0.281619	-0.530760
C217	C	0.789041	-0.218392	-0.976157
C218	C	1.289041	0.281608	-0.476157
C219	C	0.755570	-0.251829	-0.948846
C220	C	1.255570	0.248171	-0.448846
C221	C	0.788977	-0.218509	-0.528417
C222	C	1.288977	0.281491	-0.028417
C223	C	0.788970	-0.218529	-0.473811
C224	C	1.288970	0.281471	0.026189
C225	C	0.722043	-0.285393	-0.473797
C226	C	1.222043	0.214607	0.026203
C227	C	0.722052	-0.285375	-0.528397
C228	C	1.222052	0.214625	-0.028397
C229	C	0.755521	-0.251929	-0.555706
C230	C	1.255521	0.248071	-0.055706
O231	O	0.693635	-0.313773	-0.614771
O232	O	1.193635	0.186227	-0.114771
O233	O	0.817439	-0.190044	-0.614847
O234	O	1.317439	0.309956	-0.114847
C235	C	0.755494	-0.251951	-0.116170
C236	C	1.255494	0.248049	0.383830
C237	C	0.755588	-0.251807	-0.058057
C238	C	1.255588	0.248193	0.441943
H239	H	0.206233	-0.157734	-0.158106
H240	H	0.706233	0.342266	0.341894
H241	H	0.457387	-0.191213	-0.191436
H242	H	0.957387	0.308787	0.308564
O243	O	0.309496	-0.152449	-0.152804
O244	O	0.809496	0.347551	0.347196
C245	C	0.273686	-0.122887	-0.123362
C246	C	0.773686	0.377113	0.376638
H247	H	0.234751	-0.144303	-0.121523
H248	H	0.734751	0.355697	0.378477
H249	H	0.289440	-0.117249	-0.082174
H250	H	0.789440	0.382751	0.417826
H251	H	0.267912	-0.083207	-0.142581
H252	H	0.767912	0.416793	0.357419
O253	O	0.689518	-0.446727	-0.317901
O254	O	1.189518	0.053273	0.182099
C255	C	0.719261	-0.415091	-0.351682
C256	C	1.219261	0.084909	0.148318
H257	H	0.760441	-0.431513	-0.354953
H258	H	1.260441	0.068487	0.145047
H259	H	0.700329	-0.414463	-0.391901
H260	H	1.200329	0.085537	0.108099
H261	H	0.721064	-0.373716	-0.335508
H262	H	1.221064	0.126284	0.164492
O263	O	0.821531	-0.949087	-0.186129
O264	O	1.321531	-0.449087	0.313871
C265	C	0.810134	-0.962454	-0.134008
C266	C	1.310134	-0.462454	0.365992
H267	H	0.790044	-1.002116	-0.132909
H268	H	1.290044	-0.502116	0.367091
H269	H	0.847884	-0.964302	-0.110604
H270	H	1.347884	-0.464302	0.389396
H271	H	0.783258	-0.931752	-0.116365
H272	H	1.283258	-0.431752	0.383635
H273	H	0.816221	-0.191310	-0.451595
H274	H	1.316221	0.308690	0.048405
O275	O	0.821539	-0.186005	-0.554859
O276	O	1.321539	0.313995	-0.054859
C277	C	0.851057	-0.156503	-0.519054
C278	C	1.351057	0.343497	-0.019054
H279	H	0.852840	-0.177934	-0.480133
H280	H	1.352840	0.322066	0.019867
H281	H	0.892261	-0.150929	-0.534836
H282	H	1.392261	0.349071	-0.034836
H283	H	0.831942	-0.116792	-0.513243
H284	H	1.331942	0.383208	-0.013243
H285	H	0.457399	-0.312726	-0.312556
H286	H	0.957399	0.187274	0.187444
H287	H	0.816288	-0.191174	-0.953941
H288	H	1.316288	0.308826	-0.453941
H289	H	-0.044963	-0.312763	-0.312619
H290	H	0.455037	0.187237	0.187381
H291	H	0.694912	-1.052442	-0.312659
H292	H	1.194912	-0.552442	0.187341
O293	O	0.854984	-0.152502	-0.698573
O294	O	1.354984	0.347498	-0.198573
C295	C	0.884527	-0.122998	-0.734397
C296	C	1.384527	0.377002	-0.234397
H297	H	0.863114	-0.121183	-0.773313
H298	H	1.363114	0.378817	-0.273313
H299	H	0.890131	-0.081805	-0.718632
H300	H	1.390131	0.418195	-0.218632
H301	H	0.924223	-0.142146	-0.740212
H302	H	1.424223	0.357854	-0.240212
O303	O	0.854908	-0.152468	-0.806144
O304	O	1.354908	0.347532	-0.306144
C305	C	0.825180	-0.118689	-0.837736
C306	C	1.325180	0.381311	-0.337736
H307	H	0.783997	-0.115458	-0.821280
H308	H	1.283997	0.384542	-0.321280
H309	H	0.844122	-0.078456	-0.838353
H310	H	1.344122	0.421544	-0.338353
H311	H	0.823381	-0.134838	-0.879120
H312	H	1.323381	0.365162	-0.379120
H313	H	0.206227	-0.346229	-0.345967
H314	H	0.706227	0.153771	0.154033
H315	H	0.556449	-0.312723	-0.312530
H316	H	1.056449	0.187277	0.187470
H317	H	0.816298	-0.191153	-1.053007
H318	H	1.316298	0.308847	-0.553007
H319	H	0.694881	-0.312471	-1.052955
H320	H	1.194881	0.187529	-0.552955
H321	H	0.661376	-0.801275	-0.346049
H322	H	1.161376	-0.301275	0.153951
H323	H	0.816111	-0.450979	-0.191392
H324	H	1.316111	0.049021	0.308608
O325	O	0.309484	-0.351500	-0.351245
O326	O	0.809484	0.148500	0.148755
C327	C	0.273670	-0.381063	-0.380696
C328	C	0.773670	0.118937	0.119304
H329	H	0.234761	-0.359649	-0.382543
H330	H	0.734761	0.140351	0.117457
H331	H	0.289458	-0.386699	-0.421881
H332	H	0.789458	0.113301	0.078119
H333	H	0.267831	-0.420744	-0.361480
H334	H	0.767831	0.079256	0.138520
O335	O	0.656054	-0.351214	-0.805969
O336	O	1.156054	0.148786	-0.305969
C337	C	0.626526	-0.380731	-0.770144
C338	C	1.126526	0.119269	-0.270144
H339	H	0.624738	-0.359320	-0.731224
H340	H	1.124738	0.140680	-0.231224
H341	H	0.585326	-0.386293	-0.785901
H342	H	1.085326	0.113707	-0.285901
H343	H	0.645637	-0.420446	-0.764337
H344	H	1.145637	0.079554	-0.264337
H345	H	0.694857	-0.312487	-0.953905
H346	H	1.194857	0.187513	-0.453905
H347	H	0.661345	-0.345963	-0.702710
H348	H	1.161345	0.154037	-0.202710
H349	H	0.694809	-0.312597	-0.550617
H350	H	1.194809	0.187403	-0.050617
O351	O	0.656043	-0.698015	-0.351307
O352	O	1.156043	-0.198015	0.148693
C353	C	0.626537	-0.733840	-0.380802
C354	C	1.126537	-0.233840	0.119198
H355	H	0.624754	-0.772773	-0.359387
H356	H	1.124754	-0.272773	0.140613
H357	H	0.585334	-0.718102	-0.386340
H358	H	1.085334	-0.218102	0.113660
H359	H	0.645664	-0.739613	-0.420529
H360	H	1.145664	-0.239613	0.079471
O361	O	0.689527	-0.317930	-0.447342
O362	O	1.189527	0.182070	0.052658
C363	C	0.659987	-0.347426	-0.483132
C364	C	1.159987	0.152574	0.016868
H365	H	0.681398	-0.349225	-0.522066
H366	H	1.181398	0.150775	-0.022066
H367	H	0.654389	-0.388624	-0.467350
H368	H	1.154389	0.111376	0.032650
H369	H	0.620288	-0.328280	-0.488922
H370	H	1.120288	0.171720	0.011078
O371	O	0.058315	-0.318036	-0.317903
O372	O	0.558315	0.181964	0.182097
C373	C	0.022503	-0.347602	-0.347352
C374	C	0.522503	0.152398	0.152648
H375	H	-0.016408	-0.326192	-0.349200
H376	H	0.483592	0.173808	0.150800
H377	H	0.038291	-0.353240	-0.388537
H378	H	0.538291	0.146760	0.111463
H379	H	0.016667	-0.387284	-0.328134
H380	H	0.516667	0.112716	0.171866
O381	O	0.560800	-0.186019	-0.186153
O382	O	1.060800	0.313981	0.313847
C383	C	0.592344	-0.215735	-0.152319
C384	C	1.092344	0.284265	0.347681
H385	H	0.600504	-0.255388	-0.170683
H386	H	1.100504	0.244612	0.329317
H387	H	0.630752	-0.194430	-0.145354
H388	H	1.130752	0.305570	0.354646
H389	H	0.571282	-0.221417	-0.113561
H390	H	1.071282	0.278583	0.386439
O391	O	0.058311	-0.185967	-0.186198
O392	O	0.558311	0.314033	0.313802
C393	C	0.022498	-0.156410	-0.156755
C394	C	0.522498	0.343590	0.343245
H395	H	-0.016435	-0.177830	-0.154917
H396	H	0.483565	0.322170	0.345083
H397	H	0.038251	-0.150773	-0.115566
H398	H	0.538251	0.349227	0.384434
H399	H	0.016720	-0.116729	-0.175971
H400	H	0.516720	0.383271	0.324029
O401	O	0.821431	-0.554239	-0.186109
O402	O	1.321431	-0.054239	0.313891
C403	C	0.850954	-0.518410	-0.156635
C404	C	1.350954	-0.018410	0.343365
H405	H	0.829521	-0.479510	-0.154804
H406	H	1.329521	0.020490	0.345196
H407	H	0.856564	-0.534193	-0.115446
H408	H	1.356564	-0.034193	0.384554
H409	H	0.890648	-0.512554	-0.175822
H410	H	1.390648	-0.012554	0.324178
O411	O	0.854954	-0.697785	-0.152850
O412	O	1.354954	-0.197785	0.347150
C413	C	0.888702	-0.666167	-0.182651
C414	C	1.388702	-0.166167	0.317349
H415	H	0.870230	-0.657982	-0.222251
H416	H	1.370230	-0.157982	0.277749
H417	H	0.895717	-0.627775	-0.161356
H418	H	1.395717	-0.127775	0.338644
H419	H	0.927448	-0.687177	-0.188444
H420	H	1.427448	-0.187177	0.311556
O421	O	0.854982	-0.805393	-0.152738
O422	O	1.354982	-0.305393	0.347262
C423	C	0.884505	-0.769563	-0.123267
C424	C	1.384505	-0.269563	0.376733
H425	H	0.863073	-0.730662	-0.121440
H426	H	1.363073	-0.230662	0.378560
H427	H	0.890114	-0.785342	-0.082077
H428	H	1.390114	-0.285342	0.417923
H429	H	0.924200	-0.763710	-0.142453
H430	H	1.424200	-0.263710	0.357547
H431	H	-0.044951	-0.191258	-0.191502
H432	H	0.455049	0.308742	0.308498
H433	H	0.816333	-1.052391	-0.191464
H434	H	1.316333	-0.552391	0.308536
H435	H	0.694883	-0.953392	-0.312656
H436	H	1.194883	-0.453392	0.187344
O437	O	0.689463	-0.554320	-0.317907
O438	O	1.189463	-0.054320	0.182093
C439	C	0.659907	-0.518527	-0.347371
C440	C	1.159907	-0.018527	0.152629
H441	H	0.681304	-0.479581	-0.349193
H442	H	1.181304	0.020419	0.150807
H443	H	0.654312	-0.534286	-0.388564
H444	H	1.154312	-0.034286	0.111436
H445	H	0.620208	-0.512773	-0.328183
H446	H	1.120208	-0.012773	0.171817
