data_functionalizedCrystal
_audit_creation_method	'MofGen! by Chris Wilmer'
_symmetry_space_group_name_H-M	'P1'
_symmetry_Int_Tables_number	1
_symmetry_cell_setting	triclinic
loop_
_symmetry_equiv_pos_as_xyz
  x,y,z
_cell_length_a	10.654550
_cell_length_b	10.654551
_cell_length_c	9.730223
_cell_angle_alpha	89.997362
_cell_angle_beta	89.999957
_cell_angle_gamma	84.485180
loop_
_atom_site_label
_atom_site_type_symbol
_atom_site_fract_x
_atom_site_fract_y
_atom_site_fract_z
O1	O	1.667840	0.176399	-0.114181
O2	O	2.167840	0.676399	0.385819
O3	O	1.302361	0.193205	-0.114206
O4	O	1.802361	0.693205	0.385794
O5	O	1.493503	0.002062	-0.114190
O6	O	1.993503	0.502062	0.385810
O7	O	1.476698	0.367541	-0.114197
O8	O	1.976698	0.867541	0.385803
O9	O	1.493490	0.002057	0.114390
O10	O	1.993490	0.502057	0.614390
O11	O	1.302349	0.193199	0.114374
O12	O	1.802349	0.693199	0.614374
O13	O	1.667827	0.176393	0.114398
O14	O	2.167827	0.676393	0.614398
Zn15	Zn	1.485086	0.184795	0.150678
Zn16	Zn	1.985086	0.684795	0.650678
Zn17	Zn	1.485103	0.184802	-0.150486
Zn18	Zn	1.985103	0.684802	0.349514
O19	O	1.476686	0.367535	0.114383
O20	O	1.976686	0.867535	0.614383
C21	C	1.492262	-0.044738	0.000097
C22	C	1.992262	0.455262	0.500097
C23	C	1.488570	-0.184181	0.000091
C24	C	1.988570	0.315819	0.500091
C25	C	1.255557	0.191968	0.000081
C26	C	1.755557	0.691968	0.500081
C27	C	1.116114	0.188276	0.000071
C28	C	1.616114	0.688276	0.500071
C29	C	1.486844	-0.249682	-0.124510
C30	C	1.986844	0.250318	0.375490
C31	C	1.483364	-0.380703	-0.124511
C32	C	1.983364	0.119297	0.375489
C33	C	1.483342	-0.380710	0.124699
C34	C	1.983342	0.119290	0.624699
C35	C	1.486813	-0.249691	0.124699
C36	C	1.986813	0.250309	0.624699
C37	C	1.036629	0.300818	0.000073
C38	C	1.536629	0.800818	0.500073
C39	C	0.905608	0.297341	0.000097
C40	C	1.405608	0.797341	0.500097
C41	C	0.933570	0.068772	0.000112
C42	C	1.433570	0.568772	0.500112
C43	C	1.064589	0.072249	0.000097
C44	C	1.564589	0.572249	0.500097
C45	C	1.714632	0.177630	0.000109
C46	C	2.214632	0.677630	0.500109
C47	C	1.854075	0.181322	0.000109
C48	C	2.354075	0.681322	0.500109
C49	C	1.477926	0.414336	0.000092
C50	C	1.977926	0.914336	0.500092
C51	C	1.481619	0.553779	0.000089
C52	C	1.981619	1.053779	0.500089
N53	N	1.485084	0.184790	0.356214
N54	N	1.985084	0.684790	0.856214
N55	N	1.485114	0.184798	-0.356022
N56	N	1.985114	0.684798	0.143978
C57	C	1.569751	0.100188	0.428147
C58	C	2.069751	0.600188	0.928147
C59	C	1.569763	0.100189	0.572030
C60	C	2.069763	0.600189	1.072030
C61	C	1.400439	0.269404	0.572035
C62	C	1.900439	0.769404	1.072035
C63	C	1.400421	0.269396	0.428154
C64	C	1.900421	0.769396	0.928154
H65	H	1.488271	-0.196348	-0.225974
H66	H	1.988271	0.303652	0.274026
Cl67	Cl	1.676203	-0.006175	0.662457
Cl68	Cl	2.176203	0.493825	1.162457
Cl69	Cl	0.868785	-0.077082	0.000136
Cl70	Cl	1.368785	0.422918	0.500136
Cl71	Cl	1.294015	0.375766	0.662480
Cl72	Cl	1.794015	0.875766	1.162480
Cl73	Cl	0.805688	0.438829	0.000101
Cl74	Cl	1.305688	0.938829	0.500101
Cl75	Cl	1.293969	0.375755	0.337715
Cl76	Cl	1.793969	0.875755	0.837715
H77	H	1.481955	-0.434027	-0.225973
H78	H	1.981955	0.065973	0.274027
H79	H	1.078576	0.395294	0.000062
H80	H	1.578576	0.895294	0.500062
Cl81	Cl	1.164521	-0.069243	0.000106
Cl82	Cl	1.664521	0.430757	0.500106
H83	H	1.488211	-0.196358	0.226170
H84	H	1.988211	0.303642	0.726170
H85	H	1.481913	-0.434065	0.226151
H86	H	1.981913	0.065935	0.726151
Cl87	Cl	1.676180	-0.006179	0.337715
Cl88	Cl	2.176180	0.493821	0.837715
