data_functionalizedCrystal
_audit_creation_method	'MofGen! by Chris Wilmer'
_symmetry_space_group_name_H-M	'P1'
_symmetry_Int_Tables_number	1
_symmetry_cell_setting	triclinic
loop_
_symmetry_equiv_pos_as_xyz
  x,y,z
_cell_length_a	9.616153
_cell_length_b	14.044220
_cell_length_c	14.044220
_cell_angle_alpha	86.811122
_cell_angle_beta	90.002961
_cell_angle_gamma	89.997882
loop_
_atom_site_label
_atom_site_type_symbol
_atom_site_fract_x
_atom_site_fract_y
_atom_site_fract_z
O1	O	0.115503	-1.277171	0.230164
O2	O	0.115538	-1.000500	0.221858
O3	O	0.115508	-1.134683	0.087675
O4	O	0.115534	-1.142988	0.364347
O5	O	-0.115784	-1.134663	0.087677
O6	O	-0.115753	-1.000480	0.221860
O7	O	-0.115788	-1.277152	0.230165
Zn8	Zn	-0.152493	-1.138813	0.226013
Zn9	Zn	0.152243	-1.138839	0.226011
O10	O	-0.115757	-1.142969	0.364348
C11	C	-0.000103	-0.964868	0.218223
C12	C	-0.000090	-0.858725	0.207379
N13	N	-0.360468	-1.138802	0.226014
C14	C	-0.000138	-1.131037	0.052054
C15	C	-0.000139	-1.120193	-0.054088
C16	C	-0.580821	-1.066766	0.297515
C17	C	-0.419654	-1.066959	0.297818
C18	C	-0.418927	-1.240260	0.256196
C19	C	-0.580145	-1.239877	0.256712
C20	C	-0.580386	-1.110354	0.124153
C21	C	-0.419159	-1.108113	0.124630
N22	N	0.360218	-1.138857	0.226003
C23	C	-0.000144	-1.312783	0.233800
C24	C	-0.000148	-1.418926	0.244645
C25	C	-0.000120	-0.664388	0.187553
C26	C	-0.000118	-0.613258	0.264467
C27	C	-0.000135	-0.505122	0.253435
C28	C	-0.000103	-0.772534	0.198583
C29	C	-0.000116	-1.100366	-0.248426
C30	C	-0.000122	-1.177281	-0.299556
C31	C	-0.000109	-1.166249	-0.407692
C32	C	-0.000129	-1.111397	-0.140280
C33	C	-0.000109	-1.146614	0.399969
C34	C	-0.000099	-1.157459	0.506112
H35	H	-0.380131	-0.991816	0.278592
N36	N	-0.000099	-0.662840	0.362668
H37	H	-0.000087	-0.734181	0.356734
H38	H	0.085649	-0.643702	0.398472
N39	N	-0.000141	-1.275482	-0.249974
H40	H	-0.000150	-1.269548	-0.178633
H41	H	-0.085891	-1.311280	-0.269116
H42	H	-0.381069	-1.086031	0.373224
N43	N	-0.365818	-1.172284	0.049970
H44	H	-0.446857	-1.204366	0.019092
H45	H	-0.312277	-1.133040	-0.000087
N46	N	-0.000145	-0.614806	0.089358
H47	H	-0.000155	-0.543466	0.095299
H48	H	0.085597	-0.633931	0.053544
N49	N	-0.368538	-1.009203	0.094538
H50	H	-0.406618	-0.989859	0.029281
H51	H	-0.401524	-0.962685	0.141992
H52	H	-0.000103	-1.026239	-0.285863
H53	H	-0.621315	-1.085632	0.372487
N54	N	-0.632217	-0.966940	0.272314
H55	H	-0.694225	-0.967473	0.214299
H56	H	-0.686552	-0.943041	0.327710
N57	N	-0.629956	-1.271433	0.355438
H58	H	-0.594545	-1.337862	0.372733
H59	H	-0.593710	-1.226020	0.402907
N60	N	-0.631821	-1.313609	0.190892
H61	H	-0.549869	-1.346223	0.161678
H62	H	-0.690041	-1.362450	0.228309
H63	H	-0.380587	-1.295530	0.205850
N64	N	-0.365425	-1.272294	0.353870
H65	H	-0.303334	-1.221243	0.378711
H66	H	-0.446536	-1.283848	0.398713
N67	N	-0.634288	-1.013869	0.088496
H68	H	-0.553520	-0.968859	0.076314
H69	H	-0.687712	-1.020526	0.027308
H70	H	-0.618514	-1.162827	0.070837
