data_functionalizedCrystal
_audit_creation_method	'MofGen! by Chris Wilmer'
_symmetry_space_group_name_H-M	'P1'
_symmetry_Int_Tables_number	1
_symmetry_cell_setting	triclinic
loop_
_symmetry_equiv_pos_as_xyz
  x,y,z
_cell_length_a	12.645330
_cell_length_b	12.645331
_cell_length_c	12.645323
_cell_angle_alpha	89.977324
_cell_angle_beta	90.024870
_cell_angle_gamma	89.983329
loop_
_atom_site_label
_atom_site_type_symbol
_atom_site_fract_x
_atom_site_fract_y
_atom_site_fract_z
Zn1	Zn	-0.422060	-1.620731	0.599446
Zn2	Zn	-0.599348	-1.620613	0.422186
Zn3	Zn	-0.422096	-1.443446	0.422191
Zn4	Zn	-0.599279	-1.443428	0.599402
O5	O	-0.510695	-1.532054	0.510806
O6	O	-0.445591	-1.769063	0.575949
O7	O	-0.575879	-1.597069	0.273840
O8	O	-0.273744	-1.467020	0.445724
O9	O	-0.575844	-1.768976	0.445717
O10	O	-0.273717	-1.597271	0.575953
O11	O	-0.445653	-1.466906	0.273843
O12	O	-0.445585	-1.295096	0.445681
O13	O	-0.575726	-1.466989	0.747755
O14	O	-0.575761	-1.295083	0.575877
O15	O	-0.445524	-1.597253	0.747788
O16	O	-0.747686	-1.597052	0.445674
O17	O	-0.747635	-1.466874	0.575873
C18	C	-0.510670	-1.256625	0.510776
C19	C	-0.510685	-1.138795	0.510788
C20	C	-0.786125	-1.531977	0.510791
C21	C	-0.903955	-1.532041	0.510821
C22	C	-0.510614	-1.532132	0.787312
C23	C	-0.510579	-1.532166	0.905142
C24	C	-1.071531	-1.450484	0.592982
C25	C	-0.948972	-1.450067	0.592717
C26	C	-0.948549	-1.501796	0.399099
C27	C	-1.071147	-1.501298	0.399597
C28	C	-1.071047	-1.644342	0.539475
C29	C	-0.948440	-1.643654	0.541918
C30	C	-0.234190	-1.532161	0.510844
C31	C	-0.116360	-1.532206	0.510861
C32	C	-0.510722	-1.808560	0.510838
C33	C	-0.510733	-1.926390	0.510851
C34	C	-0.428415	-0.971204	0.429333
C35	C	-0.428628	-1.093763	0.428974
C36	C	-0.622359	-1.094274	0.480273
C37	C	-0.621910	-0.971676	0.479717
C38	C	-0.482344	-0.971645	0.623072
C39	C	-0.479849	-1.094251	0.622448
C40	C	-0.510701	-1.532038	0.235377
C41	C	-0.510437	-1.532210	0.117547
C42	C	-0.592103	-1.449964	1.072685
C43	C	-0.592506	-1.450179	0.950125
C44	C	-0.540899	-1.643865	0.949662
C45	C	-0.541410	-1.643414	1.072260
C46	C	-0.398278	-1.503724	1.072340
C47	C	-0.398951	-1.501232	0.949733
H48	H	-0.918818	-1.468990	0.675558
H49	H	-0.345355	-0.941740	0.448254
O50	O	-1.107774	-1.677443	0.634975
C51	C	-1.107321	-1.815366	0.766520
C52	C	-1.065665	-1.778036	0.658339
H53	H	-1.073275	-1.896689	0.785453
H54	H	-1.197308	-1.820258	0.764035
H55	H	-1.082160	-1.756740	0.830200
H56	H	-1.090749	-1.836624	0.594600
H57	H	-0.975683	-1.773114	0.660913
H58	H	-0.337434	-1.563628	1.101353
O59	O	-0.697500	-1.128897	0.548953
C60	C	-0.830661	-1.080842	0.676451
C61	C	-0.745581	-1.041487	0.598727
H62	H	-0.869573	-1.010191	0.716698
H63	H	-0.792425	-1.133667	0.738751
H64	H	-0.893024	-1.127812	0.631381
H65	H	-0.683192	-0.994472	0.643707
H66	H	-0.783893	-0.988717	0.536429
O67	O	-0.473556	-1.718933	1.107854
C68	C	-0.396530	-1.804973	1.259515
C69	C	-0.473377	-1.719389	1.219355
H70	H	-0.396377	-1.805385	1.349667
H71	H	-0.313414	-1.787323	1.229423
H72	H	-0.422967	-1.885630	1.229172
H73	H	-0.447037	-1.638699	1.249682
H74	H	-0.556476	-1.737131	1.249437
H75	H	-1.100036	-1.705227	0.479663
H76	H	-0.483299	-1.706788	0.920526
H77	H	-0.447391	-1.123041	0.345814
H78	H	-0.622030	-1.668424	0.918973
O79	O	-0.329755	-1.129503	0.451713
C80	C	-0.149657	-1.083380	0.493543
C81	C	-0.261585	-1.042769	0.467809
H82	H	-0.094515	-1.013276	0.506586
H83	H	-0.119200	-1.133207	0.424884
H84	H	-0.152415	-1.133736	0.568289
H85	H	-0.258916	-0.992370	0.393093
H86	H	-0.291999	-0.993000	0.536527
O87	O	-0.913662	-1.671060	0.639953
C88	C	-0.815198	-1.796277	0.744665
C89	C	-0.854512	-1.765377	0.633577
H90	H	-0.767348	-1.872523	0.739544
H91	H	-0.885870	-1.808768	0.799199
H92	H	-0.763206	-1.730360	0.777485
H93	H	-0.906485	-1.831257	0.600662
H94	H	-0.783791	-1.752850	0.579115
H95	H	-0.446970	-0.940356	0.346662
H96	H	-0.376085	-1.419031	0.920634
H97	H	-0.917936	-1.420678	0.374420
O98	O	-0.650596	-0.937673	0.381776
C99	C	-0.702989	-0.986944	0.205312
C100	C	-0.670495	-1.025590	0.316179
H101	H	-0.719108	-1.058004	0.152253
H102	H	-0.636417	-0.937513	0.169955
H103	H	-0.777576	-0.936691	0.211679
H104	H	-0.595933	-1.075884	0.309904
H105	H	-0.737129	-1.074964	0.351496
O106	O	-0.365169	-1.408335	1.109314
C107	C	-0.232553	-1.313211	1.207668
C108	C	-0.269930	-1.421311	1.165880
H109	H	-0.155537	-1.323662	1.253392
H110	H	-0.295440	-1.278641	1.262210
H111	H	-0.218980	-1.257281	1.138262
H112	H	-0.283493	-1.477319	1.235219
H113	H	-0.207023	-1.455795	1.111307
O114	O	-0.322457	-1.567336	0.913089
C115	C	-0.159991	-1.583620	0.814912
C116	C	-0.246556	-1.508632	0.856327
H117	H	-0.098591	-1.536185	0.769030
H118	H	-0.197061	-1.645281	0.760603
H119	H	-0.120199	-1.624909	0.884519
H120	H	-0.286379	-1.467270	0.786787
H121	H	-0.209426	-1.447037	0.910667
H122	H	-0.397670	-1.123355	0.645458
H123	H	-0.685319	-0.942031	0.536502
H124	H	-1.100944	-1.469234	0.676094
O125	O	-0.651507	-1.131038	0.383505
C126	C	-0.688906	-1.283935	0.276157
C127	C	-0.655883	-1.242431	0.385789
H128	H	-0.692477	-1.373999	0.277973
H129	H	-0.628664	-1.257470	0.214549
H130	H	-0.770107	-1.251045	0.254804
H131	H	-0.574705	-1.275301	0.407242
H132	H	-0.716194	-1.268884	0.447334
O133	O	-0.553718	-0.937025	0.695659
C134	C	-0.582077	-0.839284	0.856718
C135	C	-0.501129	-0.878453	0.774619
H136	H	-0.539593	-0.791902	0.920566
H137	H	-0.623443	-0.910010	0.894317
H138	H	-0.643143	-0.786879	0.816001
H139	H	-0.439999	-0.930840	0.815256
H140	H	-0.459844	-0.807679	0.737024
H141	H	-0.573532	-1.367350	0.920023
O142	O	-1.108565	-1.351997	0.570633
C143	C	-1.261738	-1.240352	0.550627
C144	C	-1.219939	-1.351939	0.575937
H145	H	-1.351787	-1.240262	0.554928
H146	H	-1.235623	-1.216470	0.467712
H147	H	-1.228733	-1.181689	0.610583
H148	H	-1.252925	-1.410677	0.516049
H149	H	-1.246044	-1.375732	0.658880
O150	O	-0.639293	-1.672185	1.106222
C151	C	-0.815691	-1.724732	1.056875
C152	C	-0.704890	-1.692143	1.018277
H153	H	-0.868752	-1.740898	0.985792
H154	H	-0.851136	-1.658190	1.106281
H155	H	-0.809187	-1.799312	1.107140
H156	H	-0.711303	-1.617587	0.967970
H157	H	-0.669486	-1.758747	0.968927
H158	H	-0.535432	-1.124909	0.686433
H159	H	-0.919736	-1.366935	0.573760
H160	H	-0.573311	-1.366889	1.102159
O161	O	-0.386841	-0.934972	0.656238
C162	C	-0.209597	-0.979171	0.710629
C163	C	-0.317713	-1.020848	0.673118
H164	H	-0.153670	-1.048579	0.724266
H165	H	-0.220011	-0.933435	0.787600
H166	H	-0.175047	-0.924626	0.647712
H167	H	-0.352322	-1.075435	0.735960
H168	H	-0.307232	-1.066524	0.596121
O169	O	-0.690743	-1.471996	1.109387
C170	C	-0.874855	-1.422806	1.110103
C171	C	-0.763200	-1.397717	1.068480
H172	H	-0.933472	-1.362779	1.077030
H173	H	-0.875046	-1.418592	1.200158
H174	H	-0.898717	-1.505680	1.083877
H175	H	-0.739269	-1.314843	1.094629
H176	H	-0.763071	-1.402002	0.978430
O177	O	-0.691638	-1.472599	0.914965
C178	C	-0.804787	-1.498424	0.763793
C179	C	-0.692474	-1.472994	0.803466
H180	H	-0.805494	-1.498774	0.673643
H181	H	-0.862289	-1.435916	0.794013
H182	H	-0.829711	-1.579491	0.794365
H183	H	-0.667451	-1.391955	0.772910
H184	H	-0.635038	-1.535567	0.773257
O185	O	-1.106360	-1.569220	0.324030
C186	C	-1.059276	-1.692754	0.186845
C187	C	-1.019262	-1.615858	0.272375
H188	H	-0.988879	-1.730499	0.145074
H189	H	-1.109265	-1.647685	0.126812
H190	H	-1.109323	-1.757064	0.225389
H191	H	-0.969172	-1.551531	0.233925
H192	H	-0.969330	-1.661001	0.332399
H193	H	-1.099837	-1.419326	0.375357
H194	H	-0.917790	-1.707747	0.486462
H195	H	-0.919391	-1.559431	0.336240
