data_functionalizedCrystal
_audit_creation_method	'MofGen! by Chris Wilmer'
_symmetry_space_group_name_H-M	'P1'
_symmetry_Int_Tables_number	1
_symmetry_cell_setting	triclinic
loop_
_symmetry_equiv_pos_as_xyz
  x,y,z
_cell_length_a	20.919287
_cell_length_b	20.919320
_cell_length_c	19.851628
_cell_angle_alpha	62.595702
_cell_angle_beta	86.846077
_cell_angle_gamma	55.758717
loop_
_atom_site_label
_atom_site_type_symbol
_atom_site_fract_x
_atom_site_fract_y
_atom_site_fract_z
Zr1	Zr	0.589440	0.700769	-0.093865
O2	O	0.482011	0.834323	-0.189714
O3	O	0.625983	0.567207	-0.068488
O4	O	0.620781	0.700757	-0.203238
O5	O	0.487209	0.700785	0.055885
O6	O	0.726139	0.700757	-0.209349
O7	O	0.487213	0.700773	-0.054964
O8	O	0.735444	0.461860	0.031694
O9	O	0.477904	0.939681	-0.185158
O10	O	0.715833	0.622146	-0.057386
O11	O	0.637204	0.622155	0.029900
O12	O	0.631079	0.779393	-0.128750
O13	O	0.552449	0.779402	-0.041464
Zr14	Zr	0.757467	0.700788	0.073180
Zr15	Zr	0.757473	0.700769	-0.103612
Zr16	Zr	0.589434	0.700789	0.082927
Zr17	Zr	0.582890	0.868804	-0.086598
Zr18	Zr	0.764017	0.532753	0.065913
O19	O	0.720924	0.834350	0.047803
O20	O	0.720932	0.834322	-0.203573
O21	O	0.482003	0.834351	0.061662
O22	O	0.864896	0.567235	0.169029
O23	O	0.864904	0.567207	-0.082347
O24	O	0.625975	0.567235	0.182888
O25	O	0.859698	0.700772	-0.076571
O26	O	0.726126	0.700800	0.182553
O27	O	0.620768	0.700801	0.188664
O28	O	0.859694	0.700784	0.034279
O29	O	0.611468	0.939681	-0.192905
O30	O	0.735439	0.461876	0.172220
O31	O	0.869003	0.461876	0.164472
O32	O	0.869007	0.461860	0.023946
O33	O	0.477900	0.939697	-0.044631
O34	O	0.611463	0.939697	-0.052379
O35	O	0.715828	0.622164	0.108065
O36	O	0.794458	0.622155	0.020779
O37	O	0.709703	0.779402	-0.050585
O38	O	0.631074	0.779411	0.036701
C39	C	0.681647	0.490592	-0.019432
C40	C	0.684427	0.419257	-0.022517
C41	C	0.702215	0.015812	-0.042280
C42	C	0.699597	0.082840	-0.039379
C43	C	0.657249	0.116351	0.007640
C44	C	0.617509	0.082837	0.051754
C45	C	0.620122	0.015814	0.048848
C46	C	0.647301	0.318720	0.018690
C47	C	0.644692	0.385746	0.021595
C48	C	0.726780	0.385745	-0.069539
C49	C	0.729393	0.318718	-0.072438
C50	C	0.689650	0.285213	-0.028327
C51	C	0.654574	0.184863	0.010609
C52	C	0.692320	0.216707	-0.031300
C53	C	0.463270	0.700779	0.001849
C54	C	0.391936	0.700779	0.005987
C55	C	0.358425	0.700775	-0.053138
C56	C	0.291401	0.700771	-0.049247
C57	C	0.257886	0.700777	0.013768
C58	C	0.291404	0.700778	0.072899
C59	C	0.358430	0.700776	0.069010
C60	C	0.055515	0.700777	0.028569
C61	C	-0.011518	0.700782	0.032453
C62	C	-0.011515	0.700773	-0.089693
C63	C	0.055509	0.700776	-0.093579
C64	C	0.089023	0.700773	-0.034446
C65	C	0.189376	0.700775	0.017746
C66	C	0.157536	0.700768	-0.038421
C67	C	0.883637	0.700778	-0.022534
C68	C	0.954971	0.700778	-0.026672
C69	C	0.673461	0.700754	-0.231483
C70	C	0.673463	0.700746	-0.306535
C71	C	0.665260	0.910965	-0.001253
C72	C	0.662480	0.982300	0.001832
C73	C	0.719672	0.615028	-0.448990
C74	C	0.644070	0.657886	-0.510301
C75	C	0.673455	0.700769	-0.443965
C76	C	0.749041	0.657906	-0.516389
C77	C	0.673453	0.700785	-0.576714
C78	C	0.597810	0.743627	-0.504285
C79	C	0.702835	0.743635	-0.510366
C80	C	0.627187	0.786555	-0.571685
C81	C	0.673457	0.700757	-0.367491
C82	C	0.673443	0.700804	-0.653189
C83	C	0.673446	0.700803	0.210797
C84	C	0.673444	0.700812	0.285850
C85	C	0.891830	0.490592	-0.031624
C86	C	0.965945	0.419256	-0.038847
C87	C	0.681639	0.490617	0.201708
C88	C	0.684418	0.419290	0.273675
C89	C	0.891823	0.490617	0.189516
C90	C	0.965935	0.419289	0.257346
C91	C	0.455084	0.910941	-0.210201
C92	C	0.380972	0.982268	-0.278031
C93	C	0.455077	0.910965	0.010939
C94	C	0.380962	0.982301	0.018162
C95	C	0.665268	0.910940	-0.222393
C96	C	0.662489	0.982267	-0.294361
C97	C	0.959709	0.385752	-0.083048
C98	C	1.029341	0.318734	-0.089850
C99	C	1.105209	0.285217	-0.052447
C100	C	1.111443	0.318728	-0.008245
C101	C	1.041811	0.385750	-0.001447
C102	C	0.726763	0.385799	0.348281
C103	C	0.729370	0.318789	0.415910
C104	C	0.689636	0.285267	0.408931
C105	C	0.647285	0.318765	0.334318
C106	C	0.644674	0.385778	0.266691
C107	C	1.041790	0.385789	0.243636
C108	C	1.111433	0.318779	0.307363
C109	C	1.105219	0.285266	0.384798
C110	C	1.029356	0.318773	0.398507
C111	C	0.959715	0.385787	0.334781
C112	C	0.305117	1.015777	-0.264321
C113	C	0.235473	1.082808	-0.328047
C114	C	0.241687	1.116324	-0.405482
C115	C	0.317550	1.082812	-0.419191
C116	C	0.387192	1.015787	-0.355465
C117	C	0.387198	1.015813	0.062356
C118	C	0.317565	1.082849	0.069139
C119	C	0.241697	1.116368	0.031734
C120	C	0.235463	1.082854	-0.012466
C121	C	0.305095	1.015823	-0.019253
C122	C	0.702233	1.015768	-0.287357
C123	C	0.699638	1.082778	-0.354973
C124	C	0.657295	1.116291	-0.429591
C125	C	0.617551	1.082784	-0.436594
C126	C	0.620150	1.015770	-0.368979
H127	H	0.759136	0.413032	-0.105453
O128	O	0.521495	0.786739	-0.497420
C129	C	0.404100	0.790639	-0.489371
C130	C	0.490509	0.741746	-0.497172
H131	H	0.379028	0.754272	-0.489152
H132	H	0.364578	0.863531	-0.541316
H133	H	0.404748	0.790277	-0.431809
H134	H	0.489938	0.742040	-0.554704
H135	H	0.529995	0.668879	-0.445186
H136	H	0.763860	0.291523	0.476656
O137	O	0.173978	1.181513	0.038219
C138	C	0.029006	1.277685	0.003228
C139	C	0.105627	1.203923	-0.004198
H140	H	-0.026274	1.295812	-0.031045
H141	H	0.026507	1.340477	-0.021839
H142	H	0.030069	1.251323	0.068124
H143	H	0.104616	1.230199	-0.069074
H144	H	0.108097	1.141144	0.020919
H145	H	0.614935	0.291461	0.328647
H146	H	-0.038808	0.700774	-0.137836
H147	H	0.385715	0.700778	0.117157
O148	O	0.825296	0.614795	-0.523401
C149	C	0.943063	0.610198	-0.530750
C150	C	0.856706	0.659124	-0.522829
H151	H	0.968490	0.646006	-0.530273
H152	H	0.942296	0.611224	-0.588626
H153	H	0.982357	0.537091	-0.479154
H154	H	0.817362	0.732250	-0.574381
H155	H	0.857535	0.658025	-0.464922
H156	H	1.046865	0.413065	0.180589
H157	H	0.082795	0.700771	-0.144890
O158	O	0.298890	0.983336	-0.062179
C159	C	0.210088	0.990460	-0.142426
C160	C	0.217009	1.027310	-0.093821
H161	H	0.143891	1.026010	-0.168036
H162	H	0.242315	0.914532	-0.102701
H163	H	0.238942	1.003599	-0.192574
H164	H	0.188147	1.014236	-0.043670
H165	H	0.184803	1.103228	-0.133598
H166	H	0.587783	0.988501	-0.374693
H167	H	1.161931	0.230699	0.436681
H168	H	0.655184	1.170858	-0.484641
H169	H	1.024250	0.291457	-0.125843
H170	H	0.759120	0.413085	0.353979
O171	O	0.323726	1.115204	-0.494367
C172	C	0.412476	1.107879	-0.578075
C173	C	0.405597	1.071197	-0.492895
H174	H	0.478664	1.072302	-0.576914
H175	H	0.380247	1.183820	-0.608399
H176	H	0.383599	1.094630	-0.611980
H177	H	0.434481	1.084381	-0.458924
H178	H	0.437803	0.995266	-0.462632
O179	O	0.576422	1.115475	-0.509137
C180	C	0.536072	1.218703	-0.649474
C181	C	0.582669	1.181767	-0.567365
H182	H	0.541120	1.272293	-0.696574
H183	H	0.470025	1.250157	-0.651846
H184	H	0.562623	1.160947	-0.660789
H185	H	0.556186	1.239473	-0.555997
H186	H	0.648712	1.150287	-0.565033
O187	O	0.738345	1.115241	-0.348211
C188	C	0.840334	1.135779	-0.382776
C189	C	0.796579	1.098959	-0.390486
H190	H	0.887414	1.122646	-0.416963
H191	H	0.871092	1.100308	-0.317843
H192	H	0.794841	1.211711	-0.407859
H193	H	0.842020	1.023034	-0.365445
H194	H	0.765806	1.134499	-0.455430
H195	H	0.448966	0.988526	0.092822
O196	O	0.088062	0.700898	0.085910
C197	C	0.121637	0.778932	0.117038
C198	C	0.084774	0.778898	0.052013
H199	H	0.118976	0.841997	0.089659
H200	H	0.187000	0.715953	0.146867
H201	H	0.086170	0.778895	0.162744
H202	H	0.120177	0.778967	0.006257
H203	H	0.019404	0.841871	0.022246
O204	O	0.886095	0.418191	0.348242
C205	C	0.812055	0.411120	0.445388
C206	C	0.895477	0.374333	0.430247
H207	H	0.819611	0.375692	0.511687
H208	H	0.779130	0.397894	0.415961
H209	H	0.775656	0.487068	0.419716
H210	H	0.931941	0.298382	0.455919
H211	H	0.928339	0.387629	0.459658
O212	O	1.185058	0.286303	0.293896
C213	C	1.259099	0.293417	0.196754
C214	C	1.175673	0.330259	0.211896
H215	H	1.251540	0.328953	0.130460
H216	H	1.295508	0.217484	0.222337
H217	H	1.292015	0.306583	0.226269
H218	H	1.142690	0.317158	0.182383
H219	H	1.139325	0.406181	0.186331
O220	O	0.460928	0.983082	-0.368685
C221	C	0.589325	0.852272	-0.352066
C222	C	0.505855	0.889177	-0.337024
H223	H	0.625666	0.776349	-0.326491
H224	H	0.622293	0.865384	-0.322544
H225	H	0.581785	0.887784	-0.418358
H226	H	0.513322	0.853688	-0.270749
H227	H	0.472916	0.876079	-0.366599
O228	O	0.323776	1.115263	0.112140
C229	C	0.412573	1.108189	0.192341
C230	C	0.405653	1.071390	0.143683
H231	H	0.478765	1.072747	0.217843
H232	H	0.383806	1.094989	0.242556
H233	H	0.380259	1.184131	0.152596
H234	H	0.437971	0.995443	0.183364
H235	H	0.434396	1.084660	0.093462
O236	O	0.581674	-0.016879	0.091846
C237	C	0.569713	-0.092608	0.221333
C238	C	0.613310	-0.055613	0.172721
H239	H	0.595262	-0.123917	0.286727
H240	H	0.578903	-0.146324	0.211241
H241	H	0.502649	-0.034905	0.202005
H242	H	0.680387	-0.113255	0.192018
H243	H	0.604054	-0.001873	0.182816
H244	H	0.736703	-0.011473	-0.080564
O245	O	0.743435	0.983291	-0.214940
C246	C	0.824551	0.990405	-0.141138
C247	C	0.777927	1.027249	-0.223195
H248	H	0.852436	1.025943	-0.147783
H249	H	0.874162	0.914473	-0.111940
H250	H	0.781515	1.003568	-0.102933
H251	H	0.820899	1.014151	-0.261461
H252	H	0.728306	1.103170	-0.252330
H253	H	-0.038802	0.700788	0.083770
O254	O	0.613504	0.217256	0.056396
C255	C	0.599898	0.182614	0.187637
C256	C	0.646469	0.145802	0.135876
H257	H	0.626542	0.124865	0.251909
H258	H	0.533873	0.213950	0.167232
H259	H	0.604834	0.236303	0.182090
H260	H	0.641597	0.092082	0.141399
H261	H	0.712473	0.114523	0.156295
H262	H	0.619215	0.621648	-0.511020
O263	O	0.161745	1.115333	-0.314824
C264	C	0.037654	1.135781	-0.336218
C265	C	0.121116	1.098929	-0.351270
H266	H	0.004788	1.122515	-0.365663
H267	H	0.001210	1.211731	-0.361868
H268	H	0.045201	1.100321	-0.269922
H269	H	0.113644	1.134321	-0.417552
H270	H	0.157531	1.022974	-0.325566
H271	H	0.763877	0.291434	-0.110724
O272	O	0.738331	0.115245	-0.082134
C273	C	0.865003	0.080569	-0.106711
C274	C	0.821239	0.043758	-0.058218
H275	H	0.932039	0.022787	-0.087405
H276	H	0.855932	0.134199	-0.096556
H277	H	0.839421	0.111973	-0.172121
H278	H	0.846793	0.012307	0.007208
H279	H	0.830307	-0.009829	-0.068440
O280	O	0.603480	0.418235	0.067279
C281	C	0.522360	0.411143	0.157388
C282	C	0.568985	0.374283	0.105674
H283	H	0.494473	0.375610	0.188458
H284	H	0.472750	0.487075	0.118673
H285	H	0.565395	0.397989	0.203365
H286	H	0.526013	0.387373	0.059692
H287	H	0.618605	0.298363	0.144441
H288	H	0.691769	0.230701	0.464003
H289	H	0.614941	0.291446	0.054611
H290	H	0.173683	1.110155	-0.042919
O291	O	0.733351	0.184298	-0.077091
C292	C	0.747038	0.218945	-0.208312
C293	C	0.700487	0.255775	-0.156554
H294	H	0.720497	0.276719	-0.272565
H295	H	0.742061	0.165320	-0.202877
H296	H	0.813066	0.187531	-0.187794
H297	H	0.634442	0.287236	-0.177036
H298	H	0.705531	0.309358	-0.161993
H299	H	1.024308	0.291478	0.461563
H300	H	0.385705	0.700776	-0.104454
O301	O	0.258922	0.700814	-0.106769
C302	C	0.266018	0.700766	-0.228313
C303	C	0.302869	0.700738	-0.163229
H304	H	0.301543	0.700685	-0.273969
H305	H	0.200683	0.763799	-0.258194
H306	H	0.268578	0.637764	-0.200921
H307	H	0.300366	0.763697	-0.190558
H308	H	0.368186	0.637663	-0.133355
H309	H	0.264116	0.700778	0.124211
O310	O	0.156930	0.700631	0.079042
C311	C	0.178466	0.622674	0.220033
C312	C	0.215307	0.622715	0.150688
H313	H	0.225652	0.559696	0.277977
H314	H	0.124829	0.622616	0.212721
H315	H	0.157652	0.685728	0.220738
H316	H	0.236169	0.559672	0.149941
H317	H	0.268909	0.622821	0.158027
H318	H	0.583024	0.110131	0.090034
H319	H	0.300042	0.988492	-0.201275
H320	H	0.184828	0.700758	-0.089726
O321	O	0.886079	0.418232	-0.119465
C322	C	0.812018	0.411114	-0.201096
C323	C	0.895450	0.374268	-0.159902
H324	H	0.819566	0.375572	-0.233786
H325	H	0.775613	0.487045	-0.244956
H326	H	0.779104	0.397959	-0.154987
H327	H	0.928431	0.387358	-0.205954
H328	H	0.931794	0.298348	-0.116027
O329	O	0.580380	0.873127	-0.634287
C330	C	0.447854	1.016103	-0.699374
C331	C	0.500768	0.918081	-0.628447
H332	H	0.383481	1.052483	-0.694668
H333	H	0.448543	1.015534	-0.756563
H334	H	0.472386	1.052881	-0.699371
H335	H	0.476275	0.881246	-0.628375
H336	H	0.500077	0.918715	-0.571291
O337	O	0.766332	0.528504	-0.386302
C338	C	0.898481	0.384988	-0.321549
C339	C	0.845732	0.482942	-0.392592
H340	H	0.962690	0.348129	-0.326602
H341	H	0.873347	0.348528	-0.320888
H342	H	0.898463	0.385814	-0.264526
H343	H	0.845728	0.482200	-0.449652
H344	H	0.870883	0.519363	-0.393184
O345	O	0.732370	0.786959	-0.509488
C346	C	0.706682	0.911041	-0.502362
C347	C	0.673114	0.862089	-0.503374
H348	H	0.658795	0.971783	-0.497402
H349	H	0.724094	0.935106	-0.559263
H350	H	0.762037	0.862427	-0.449609
H351	H	0.617737	0.910650	-0.556089
H352	H	0.655757	0.838008	-0.446438
O353	O	1.172926	0.220133	-0.058993
C354	C	1.317900	0.123883	-0.023924
C355	C	1.241281	0.197609	-0.016462
H356	H	1.373186	0.105637	0.010470
H357	H	1.316940	0.150217	-0.088797
H358	H	1.320295	0.061164	0.001075
H359	H	1.238836	0.260353	-0.041419
H360	H	1.242273	0.171202	0.048421
H361	H	1.173223	0.291429	0.022207
H362	H	1.046900	0.413020	0.034550
H363	H	0.610194	0.413038	0.205946
H364	H	0.184974	1.170900	-0.457364
