data_functionalizedCrystal
_audit_creation_method	'MofGen! by Chris Wilmer'
_symmetry_space_group_name_H-M	'P1'
_symmetry_Int_Tables_number	1
_symmetry_cell_setting	triclinic
loop_
_symmetry_equiv_pos_as_xyz
  x,y,z
_cell_length_a	16.625546
_cell_length_b	13.897449
_cell_length_c	13.897433
_cell_angle_alpha	90.048509
_cell_angle_beta	89.925636
_cell_angle_gamma	89.976252
loop_
_atom_site_label
_atom_site_type_symbol
_atom_site_fract_x
_atom_site_fract_y
_atom_site_fract_z
Zn1	Zn	-0.320623	-1.474935	-0.545363
Zn2	Zn	0.012711	-1.141602	-0.212030
Zn3	Zn	0.346044	-0.808268	0.121304
Zn4	Zn	-0.455569	-1.474737	-0.384056
Zn5	Zn	-0.122236	-1.141404	-0.050723
Zn6	Zn	0.211097	-0.808071	0.282611
Zn7	Zn	-0.320757	-1.313546	-0.384081
Zn8	Zn	0.012576	-0.980213	-0.050748
Zn9	Zn	0.345909	-0.646879	0.282586
Zn10	Zn	-0.455420	-1.313593	-0.545309
Zn11	Zn	-0.122087	-0.980259	-0.211976
Zn12	Zn	0.211247	-0.646926	0.121358
O13	O	-0.388092	-1.394203	-0.464702
O14	O	-0.054759	-1.060869	-0.131369
O15	O	0.278574	-0.727536	0.201964
O16	O	-0.338530	-1.609891	-0.523977
O17	O	-0.005196	-1.276557	-0.190644
O18	O	0.328137	-0.943224	0.142689
O19	O	-0.437805	-1.453253	-0.249077
O20	O	-0.104472	-1.119920	0.084256
O21	O	0.228862	-0.786586	0.417589
O22	O	-0.207907	-1.335018	-0.405509
O23	O	0.125426	-1.001685	-0.072175
O24	O	0.458760	-0.668351	0.261158
O25	O	-0.437675	-1.609745	-0.405466
O26	O	-0.104341	-1.276412	-0.072133
O27	O	0.228992	-0.943079	0.261201
O28	O	-0.207808	-1.453590	-0.524002
O29	O	0.125525	-1.120256	-0.190668
O30	O	0.458858	-0.786923	0.142665
O31	O	-0.338759	-1.334826	-0.249096
O32	O	-0.005426	-1.001493	0.084238
O33	O	0.327907	-0.668160	0.417571
O34	O	-0.338615	-1.178571	-0.405456
O35	O	-0.005281	-0.845237	-0.072123
O36	O	0.328052	-0.511904	0.261211
O37	O	-0.437420	-1.335097	-0.680298
O38	O	-0.104087	-1.001764	-0.346965
O39	O	0.229247	-0.668430	-0.013631
O40	O	-0.437551	-1.178605	-0.523910
O41	O	-0.104217	-0.845271	-0.190576
O42	O	0.229116	-0.511938	0.142757
O43	O	-0.338385	-1.453635	-0.680338
O44	O	-0.005052	-1.120302	-0.347004
O45	O	0.328282	-0.786968	-0.013671
O46	O	-0.568382	-1.453298	-0.405414
O47	O	-0.235049	-1.119965	-0.072080
O48	O	0.098285	-0.786631	0.261253
O49	O	-0.568272	-1.334905	-0.523885
O50	O	-0.234939	-1.001572	-0.190552
O51	O	0.098394	-0.668239	0.142781
C52	C	-0.388082	-1.143588	-0.464680
C53	C	-0.054748	-0.810255	-0.131347
C54	C	0.278585	-0.476922	0.201986
C55	C	-0.388096	-1.036375	-0.464694
C56	C	-0.054763	-0.703041	-0.131360
C57	C	0.278570	-0.369708	0.201973
C58	C	-0.597583	-1.394111	-0.464662
C59	C	-0.264250	-1.060778	-0.131329
C60	C	0.069083	-0.727445	0.202005
C61	C	-0.687204	-1.394161	-0.464677
C62	C	-0.353871	-1.060827	-0.131344
C63	C	-0.020538	-0.727494	0.201990
C64	C	-0.387871	-1.394393	-0.716296
C65	C	-0.054538	-1.061060	-0.382962
C66	C	0.278796	-0.727727	-0.049629
C67	C	-0.387777	-1.394474	-0.823510
C68	C	-0.054443	-1.061141	-0.490177
C69	C	0.278890	-0.727808	-0.156843
C70	C	-1.015380	-1.394329	-0.464777
C71	C	-0.682047	-1.060996	-0.131444
C72	C	-0.348713	-0.727662	0.201889
C73	C	-0.924071	-1.394279	-0.464752
C74	C	-0.590738	-1.060946	-0.131419
C75	C	-0.257405	-0.727612	0.201915
C76	C	-0.851295	-1.394244	-0.464727
C77	C	-0.517962	-1.060911	-0.131393
C78	C	-0.184628	-0.727577	0.201940
C79	C	-0.759981	-1.394196	-0.464702
C80	C	-0.426647	-1.060862	-0.131369
C81	C	-0.093314	-0.727529	0.201964
C82	C	-0.177783	-1.394321	-0.464764
C83	C	0.155550	-1.060987	-0.131431
C84	C	0.488883	-0.727654	0.201903
C85	C	-0.088162	-1.394371	-0.464790
C86	C	0.245171	-1.061038	-0.131457
C87	C	0.578504	-0.727704	0.201876
C88	C	-0.388104	-1.645796	-0.464725
C89	C	-0.054770	-1.312462	-0.131392
C90	C	0.278563	-0.979129	0.201942
C91	C	-0.388109	-1.753010	-0.464735
C92	C	-0.054775	-1.419676	-0.131401
C93	C	0.278558	-1.086343	0.201932
C94	C	-0.388099	-0.840079	-0.464719
C95	C	-0.054766	-0.506746	-0.131386
C96	C	0.278567	-0.173413	0.201948
C97	C	-0.388095	-0.949312	-0.464702
C98	C	-0.054762	-0.615979	-0.131369
C99	C	0.278571	-0.282645	0.201964
C100	C	-0.388255	-1.394069	-0.214088
C101	C	-0.054922	-1.060735	0.119246
C102	C	0.278412	-0.727402	0.452579
C103	C	-0.388122	-1.394174	-0.106874
C104	C	-0.054789	-1.060841	0.226459
C105	C	0.278545	-0.727508	0.559793
C106	C	-0.387885	-1.394389	0.089421
C107	C	-0.054552	-1.061056	0.422754
C108	C	0.278781	-0.727722	0.756087
C109	C	-0.388019	-1.394272	-0.019812
C110	C	-0.054686	-1.060939	0.313522
C111	C	0.278647	-0.727606	0.646855
