data_functionalizedCrystal
_audit_creation_method	'MofGen! by Chris Wilmer'
_symmetry_space_group_name_H-M	'P1'
_symmetry_Int_Tables_number	1
_symmetry_cell_setting	triclinic
loop_
_symmetry_equiv_pos_as_xyz
  x,y,z
_cell_length_a	21.395362
_cell_length_b	14.908520
_cell_length_c	21.395355
_cell_angle_alpha	93.280325
_cell_angle_beta	89.956060
_cell_angle_gamma	93.337688
loop_
_atom_site_label
_atom_site_type_symbol
_atom_site_fract_x
_atom_site_fract_y
_atom_site_fract_z
Zn1	Zn	0.943513	-0.358891	-0.368965
Zn2	Zn	0.937386	-0.509736	-0.270231
Zn3	Zn	0.838727	-0.358933	-0.264168
Zn4	Zn	0.832667	-0.509755	-0.374937
O5	O	0.888073	-0.434329	-0.319575
O6	O	1.030380	-0.378876	-0.355906
O7	O	0.924270	-0.489742	-0.181749
O8	O	0.857727	-0.232679	-0.273033
O9	O	1.025878	-0.489701	-0.283367
O10	O	0.934713	-0.232649	-0.350027
O11	O	0.851786	-0.378948	-0.177295
O12	O	0.750244	-0.378966	-0.278823
O13	O	0.847399	-0.489733	-0.461822
O14	O	0.745792	-0.489773	-0.360205
O15	O	0.928838	-0.378894	-0.457435
O16	O	0.918395	-0.635987	-0.289157
O17	O	0.841458	-0.636001	-0.366084
C18	C	0.725284	-0.434377	-0.319504
C19	C	0.655641	-0.434419	-0.319490
C20	C	0.878621	-0.668729	-0.328940
C21	C	0.874634	-0.769006	-0.332968
C22	C	0.620623	-0.492193	-0.361808
C23	C	0.555188	-0.492171	-0.361835
C24	C	0.524774	-0.434384	-0.319533
C25	C	0.559800	-0.376599	-0.277212
C26	C	0.625234	-0.376616	-0.277190
C27	C	0.421340	-0.427116	-0.262837
C28	C	0.355907	-0.427105	-0.262858
C29	C	0.322956	-0.434325	-0.319600
C30	C	0.355444	-0.441575	-0.376324
C31	C	0.420877	-0.441593	-0.376302
C32	C	0.453823	-0.434358	-0.319552
C33	C	0.216986	-0.492079	-0.361951
C34	C	0.151550	-0.492050	-0.361979
C35	C	0.156163	-0.376483	-0.277350
C36	C	0.221598	-0.376506	-0.277327
C37	C	0.252005	-0.434309	-0.319627
C38	C	0.947340	-0.957362	-0.260497
C39	C	0.943596	-1.051582	-0.264279
C40	C	0.863407	-1.051666	-0.344317
C41	C	0.867151	-0.957446	-0.340535
C42	C	0.909118	-0.910298	-0.298623
C43	C	0.912858	-0.816077	-0.294838
C44	C	0.832672	-0.816163	-0.374879
C45	C	0.828929	-0.910382	-0.378661
C46	C	1.051498	-0.434282	-0.319647
C47	C	1.121141	-0.434262	-0.319677
C48	C	0.888126	-0.434311	-0.482998
C49	C	0.888148	-0.434303	-0.552639
C50	C	0.897580	-0.199014	-0.310187
C51	C	0.901631	-0.098737	-0.306187
C52	C	0.930552	-0.376587	-0.583068
C53	C	0.930553	-0.376548	-0.648502
C54	C	0.888156	-0.434242	-0.683505
C55	C	0.845745	-0.491962	-0.653068
C56	C	0.845741	-0.491992	-0.587635
C57	C	0.879933	-0.515477	-0.790423
C58	C	0.879941	-0.515447	-0.855855
C59	C	0.888164	-0.434146	-0.885322
C60	C	0.896392	-0.352872	-0.849348
C61	C	0.896388	-0.352902	-0.783915
C62	C	0.888155	-0.434214	-0.754456
C63	C	0.930570	-0.376383	-0.986702
C64	C	0.930566	-0.376343	-1.052137
C65	C	0.845761	-0.491764	-1.056701
C66	C	0.845762	-0.491797	-0.991267
C67	C	0.888170	-0.434107	-0.956272
C68	C	0.888059	-0.434282	-0.156786
C69	C	0.888169	-0.434036	-0.087135
H70	H	0.645376	-0.539259	-0.396253
H71	H	0.965081	-0.329544	-0.673283
F72	F	0.456403	-0.419433	-0.202439
F73	F	0.975707	-0.314920	-1.084522
F74	F	0.784269	-0.960571	-0.423266
H75	H	0.328616	-0.447453	-0.422529
F76	F	0.791984	-0.766067	-0.415451
F77	F	0.258868	-0.315017	-0.232284
F78	F	0.975684	-0.315184	-0.545827
F79	F	0.517912	-0.553664	-0.406878
H80	H	0.811235	-0.538731	-1.085199
H81	H	0.811236	-0.538801	-0.966492
H82	H	0.903086	-0.286726	-0.754629
F83	F	0.527430	-0.315095	-0.232193
H84	H	0.903089	-0.286669	-0.873338
F85	F	0.871189	-0.601946	-0.894135
F86	F	0.975701	-0.314982	-0.949455
F87	F	0.871194	-0.602016	-0.759070
F88	F	0.662504	-0.315122	-0.232147
F89	F	0.800621	-0.553360	-0.690320
H90	H	0.241745	-0.539140	-0.396397
F91	F	0.957520	-0.765899	-0.250229
F92	F	0.321337	-0.419389	-0.202488
H93	H	0.447326	-0.447493	-0.422489
H94	H	0.981507	-0.918973	-0.226366
H95	H	0.811208	-0.538991	-0.562859
H96	H	0.123040	-0.539095	-0.396443
F97	F	0.818754	-1.101860	-0.388926
F98	F	0.123799	-0.314976	-0.232331
F99	F	0.984279	-1.101668	-0.223701
