data_functionalizedCrystal
_audit_creation_method	'MofGen! by Chris Wilmer'
_symmetry_space_group_name_H-M	'P1'
_symmetry_Int_Tables_number	1
_symmetry_cell_setting	triclinic
loop_
_symmetry_equiv_pos_as_xyz
  x,y,z
_cell_length_a	11.169417
_cell_length_b	12.645330
_cell_length_c	11.169409
_cell_angle_alpha	89.967722
_cell_angle_beta	89.980176
_cell_angle_gamma	90.018570
loop_
_atom_site_label
_atom_site_type_symbol
_atom_site_fract_x
_atom_site_fract_y
_atom_site_fract_z
Zn1	Zn	1.834901	-0.421929	-0.678543
Zn2	Zn	1.834765	-0.599240	-0.477860
Zn3	Zn	1.634187	-0.421993	-0.477878
Zn4	Zn	1.634169	-0.599153	-0.678505
O5	O	1.734505	-0.510579	-0.578197
O6	O	2.002833	-0.445458	-0.651931
O7	O	1.808108	-0.575791	-0.309913
O8	O	1.660877	-0.273637	-0.504519
O9	O	2.002732	-0.575728	-0.504490
O10	O	1.808341	-0.273590	-0.651948
O11	O	1.660745	-0.445569	-0.309925
O12	O	1.466235	-0.445485	-0.504483
O13	O	1.660846	-0.575581	-0.846460
O14	O	1.466221	-0.575644	-0.651883
O15	O	1.808323	-0.445375	-0.846488
O16	O	1.808090	-0.747575	-0.504453
O17	O	1.660713	-0.747512	-0.651866
C18	C	1.422681	-0.510563	-0.578181
C19	C	1.289281	-0.510581	-0.578203
C20	C	1.734418	-0.786008	-0.578180
C21	C	1.734490	-0.903838	-0.578213
C22	C	1.642158	-1.071407	-0.671236
C23	C	1.641685	-0.948847	-0.670937
C24	C	1.700247	-0.948447	-0.451730
C25	C	1.699683	-1.071046	-0.452295
C26	C	1.861631	-1.070922	-0.610646
C27	C	1.860852	-0.948315	-0.613412
C28	C	2.047548	-0.510596	-0.578213
C29	C	2.180948	-0.510603	-0.578220
C30	C	1.734597	-0.510461	-0.891239
C31	C	1.734637	-0.510411	-1.024639
C32	C	1.734626	-0.234073	-0.578240
C33	C	1.734677	-0.116243	-0.578258
C34	C	1.734483	-0.510619	-0.266372
C35	C	1.734676	-0.510371	-0.132972
H36	H	1.663386	-1.100807	-0.765330
H37	H	1.892868	-1.101755	-0.701309
N38	N	1.893287	-0.911742	-0.730178
N39	N	1.912955	-0.976716	-0.812151
H40	H	1.935865	-0.950881	-0.894617
N41	N	1.951872	-0.909872	-0.534634
N42	N	1.924971	-0.848800	-0.450887
H43	H	1.989251	-0.821653	-0.395237
H44	H	1.608410	-0.917841	-0.423796
H45	H	1.930560	-1.099917	-0.542926
H46	H	1.548628	-1.102311	-0.650053
N47	N	1.668565	-0.911014	-0.788594
N48	N	1.687803	-0.975155	-0.871505
H49	H	1.706784	-0.948441	-0.954607
N50	N	1.523599	-0.912198	-0.644055
N51	N	1.438077	-0.936561	-0.710725
H52	H	1.354667	-0.910690	-0.691745
N53	N	1.583261	-1.107035	-0.417865
N54	N	1.502990	-1.041609	-0.393590
H55	H	1.420763	-1.067020	-0.369273
N56	N	1.780525	-1.108251	-0.362400
N57	N	1.837175	-1.043669	-0.299441
H58	H	1.894255	-1.069940	-0.235940
H59	H	1.765497	-0.919296	-0.380561
