data_functionalizedCrystal
_audit_creation_method	'MofGen! by Chris Wilmer'
_symmetry_space_group_name_H-M	'P1'
_symmetry_Int_Tables_number	1
_symmetry_cell_setting	triclinic
loop_
_symmetry_equiv_pos_as_xyz
  x,y,z
_cell_length_a	11.169417
_cell_length_b	19.077432
_cell_length_c	11.169409
_cell_angle_alpha	87.664449
_cell_angle_beta	89.980487
_cell_angle_gamma	87.728377
loop_
_atom_site_label
_atom_site_type_symbol
_atom_site_fract_x
_atom_site_fract_y
_atom_site_fract_z
Zn1	Zn	1.854016	-0.280118	-0.659311
Zn2	Zn	1.861913	-0.397837	-0.450551
Zn3	Zn	1.653305	-0.280162	-0.458644
Zn4	Zn	1.661313	-0.397781	-0.651200
O5	O	1.757637	-0.338975	-0.554927
O6	O	2.023014	-0.295739	-0.631626
O7	O	1.834194	-0.382269	-0.283671
O8	O	1.673274	-0.181666	-0.492044
O9	O	2.028816	-0.382227	-0.478251
O10	O	1.820735	-0.181634	-0.639474
O11	O	1.680931	-0.295814	-0.289618
O12	O	1.486417	-0.295759	-0.484180
O13	O	1.686922	-0.382131	-0.820229
O14	O	1.492301	-0.382173	-0.625650
O15	O	1.828501	-0.295684	-0.826188
O16	O	1.841960	-0.496320	-0.470386
O17	O	1.694580	-0.496279	-0.617802
C18	C	1.445812	-0.338965	-0.554914
C19	C	1.312413	-0.338978	-0.554935
C20	C	1.770028	-0.521837	-0.542362
C21	C	1.775439	-0.600066	-0.537027
C22	C	1.701195	-0.636822	-0.611209
C23	C	1.706285	-0.710327	-0.606191
C24	C	1.785624	-0.747074	-0.526996
C25	C	1.859870	-0.710312	-0.452806
C26	C	1.854774	-0.636809	-0.457819
C27	C	1.809094	-0.966905	-0.503776
C28	C	1.814187	-1.040413	-0.498771
C29	C	1.660599	-1.040422	-0.652155
C30	C	1.655515	-0.966918	-0.657166
C31	C	1.729757	-0.930163	-0.582971
N32	N	1.790830	-0.822207	-0.521868
N33	N	1.724543	-0.855030	-0.588094
C34	C	2.070680	-0.338985	-0.554940
C35	C	2.204080	-0.338989	-0.554946
C36	C	1.757724	-0.338896	-0.867975
C37	C	1.757761	-0.338863	-1.001377
C38	C	1.745230	-0.155398	-0.567567
C39	C	1.739943	-0.077169	-0.572953
C40	C	1.757616	-0.339002	-0.243100
C41	C	1.757798	-0.338837	-0.109712
H42	H	1.645817	-0.740250	-0.666587
H43	H	1.915230	-0.606883	-0.397410
O44	O	1.624193	-0.601205	-0.688304
C45	C	1.564317	-0.578619	-0.893952
C46	C	1.651585	-0.619009	-0.806773
H47	H	1.586449	-0.592988	-0.989755
H48	H	1.468539	-0.593148	-0.871904
H49	H	1.573410	-0.519774	-0.884734
H50	H	1.642599	-0.677864	-0.815944
H51	H	1.747328	-0.604422	-0.828847
O52	O	1.881045	-0.931178	-0.431585
C53	C	1.891544	-0.848240	-0.275247
C54	C	1.809914	-0.888670	-0.356915
H55	H	1.834068	-0.813851	-0.214874
H56	H	1.949100	-0.887104	-0.217708
H57	H	1.951910	-0.813796	-0.332771
H58	H	1.749475	-0.923115	-0.299484
H59	H	1.752439	-0.849768	-0.414461
H60	H	1.590910	-0.937000	-0.721652
O61	O	1.891381	-1.076060	-0.421892
C62	C	2.097080	-1.098586	-0.362253
C63	C	2.009818	-1.058142	-0.449371
H64	H	2.192857	-1.084126	-0.384454
H65	H	2.075131	-1.084195	-0.266419
H66	H	2.087849	-1.157423	-0.371443
H67	H	2.019001	-0.999296	-0.440289
H68	H	2.031792	-1.072591	-0.545171
O69	O	1.588524	-1.076235	-0.724095
C70	C	1.528346	-1.189475	-0.784404
C71	C	1.610026	-1.149005	-0.702845
H72	H	1.545720	-1.248316	-0.767270
H73	H	1.430563	-1.175139	-0.764217
H74	H	1.548348	-1.174922	-0.882177
H75	H	1.590131	-1.163537	-0.605046
H76	H	1.707785	-1.163345	-0.723135
O77	O	1.937055	-0.746043	-0.376035
C78	C	2.104779	-0.828993	-0.354339
C79	C	2.017470	-0.788558	-0.441421
H80	H	2.169800	-0.863388	-0.407167
H81	H	2.157057	-0.790132	-0.302185
H82	H	2.052049	-0.863432	-0.289178
H83	H	2.070106	-0.754119	-0.506655
H84	H	1.965190	-0.827457	-0.493489
