data_functionalizedCrystal
_audit_creation_method	'MofGen! by Chris Wilmer'
_symmetry_space_group_name_H-M	'P1'
_symmetry_Int_Tables_number	1
_symmetry_cell_setting	triclinic
loop_
_symmetry_equiv_pos_as_xyz
  x,y,z
_cell_length_a	16.120530
_cell_length_b	16.120444
_cell_length_c	16.120256
_cell_angle_alpha	84.383140
_cell_angle_beta	89.871735
_cell_angle_gamma	90.168401
loop_
_atom_site_label
_atom_site_type_symbol
_atom_site_fract_x
_atom_site_fract_y
_atom_site_fract_z
Zn1	Zn	1.224978	-0.422283	0.554821
Zn2	Zn	1.724978	0.077717	1.054821
Zn3	Zn	1.224871	-0.554963	0.422127
Zn4	Zn	1.724871	-0.054963	0.922127
Zn5	Zn	1.093718	-0.408194	0.408063
Zn6	Zn	1.593718	0.091806	0.908063
Zn7	Zn	1.078868	-0.554200	0.554060
Zn8	Zn	1.578868	-0.054200	1.054060
O9	O	1.155609	-0.484910	0.484768
O10	O	1.655609	0.015090	0.984768
O11	O	1.340999	-0.446099	0.543424
O12	O	1.840999	0.053901	1.043424
O13	O	1.213643	-0.529917	0.303628
O14	O	1.713643	-0.029917	0.803628
O15	O	1.117389	-0.293432	0.421964
O16	O	1.617389	0.206568	0.921964
O17	O	1.340921	-0.543579	0.445934
O18	O	1.840921	-0.043579	0.945934
O19	O	1.213825	-0.303783	0.529786
O20	O	1.713825	0.196217	1.029786
O21	O	1.117286	-0.422087	0.293295
O22	O	1.617286	0.077913	0.793295
O23	O	0.975712	-0.421346	0.421226
O24	O	1.475712	0.078654	0.921226
O25	O	1.092080	-0.542277	0.670795
O26	O	1.592080	-0.042277	1.170795
O27	O	0.964802	-0.528616	0.528489
O28	O	1.464802	-0.028616	1.028489
O29	O	1.199426	-0.445359	0.671354
O30	O	1.699426	0.054641	1.171354
O31	O	1.199244	-0.671493	0.445196
O32	O	1.699244	-0.171493	0.945196
O33	O	1.091977	-0.670932	0.542127
O34	O	1.591977	-0.170932	1.042127
C35	C	0.940171	-0.473370	0.473249
C36	C	1.440171	0.026630	0.973249
C37	C	0.848003	-0.468454	0.468342
C38	C	1.348003	0.031546	0.968342
C39	C	1.144009	-0.701456	0.495124
C40	C	1.644009	-0.201456	0.995124
C41	C	1.139121	-0.794101	0.499587
C42	C	1.639121	-0.294101	0.999587
C43	C	0.679252	-0.459460	0.459389
C44	C	1.179252	0.040540	0.959389
C45	C	0.632800	-0.510424	0.510211
C46	C	1.132800	-0.010424	1.010211
C47	C	0.538901	-0.505420	0.505229
C48	C	1.038901	-0.005420	1.005229
C49	C	0.773159	-0.464463	0.464370
C50	C	1.273159	0.035537	0.964370
C51	C	1.181159	-1.005258	0.461810
C52	C	1.681159	-0.505258	0.961810
C53	C	1.130212	-0.963720	0.507743
C54	C	1.630212	-0.463720	1.007743
C55	C	1.135170	-0.869335	0.503203
C56	C	1.635170	-0.369335	1.003203
C57	C	1.176202	-1.099651	0.466348
C58	C	1.676202	-0.599651	0.966348
C59	C	1.371888	-0.496496	0.496332
C60	C	1.871888	0.003504	0.996332
C61	C	1.464054	-0.501433	0.501261
C62	C	1.964054	-0.001433	1.001261
C63	C	1.144109	-0.495304	0.702162
C64	C	1.644109	0.004696	1.202162
C65	C	1.139208	-0.499734	0.794802
C66	C	1.639208	0.000266	1.294802
C67	C	1.167275	-0.267521	0.474391
C68	C	1.667275	0.232479	0.974391
C69	C	1.172247	-0.174882	0.469969
C70	C	1.672247	0.325118	0.969969
C71	C	1.167115	-0.474499	0.268220
C72	C	1.667115	0.025501	0.768220
C73	C	1.172189	-0.469843	0.175577
C74	C	1.672189	0.030157	0.675577
C75	C	1.181165	-0.461789	1.005966
C76	C	1.681165	0.038211	1.505966
C77	C	1.130235	-0.507785	0.964408
C78	C	1.630235	-0.007785	1.464408
C79	C	1.135229	-0.503304	0.870030
C80	C	1.635229	-0.003304	1.370030
C81	C	1.176172	-0.466269	1.100352
C82	C	1.676172	0.033731	1.600352
H83	H	0.663551	-0.557813	0.557462
H84	H	1.163551	-0.057813	1.057462
H85	H	0.648502	-0.412075	0.412142
H86	H	1.148502	0.087925	0.912142
C87	C	1.066245	-1.011431	0.565466
C88	C	1.566245	-0.511431	1.065466
C89	C	1.061304	-1.107181	0.569977
C90	C	1.561304	-0.607181	1.069977
C91	C	0.997336	-1.154895	0.627692
C92	C	1.497336	-0.654895	1.127692
C93	C	0.938308	-1.106860	0.680897
C94	C	1.438308	-0.606860	1.180897
C95	C	0.943246	-1.011105	0.676389
C96	C	1.443246	-0.511105	1.176389
C97	C	1.007215	-0.963390	0.618673
C98	C	1.507215	-0.463390	1.118673
H99	H	1.105002	-1.142744	0.530589
H100	H	1.605002	-0.642744	1.030589
H101	H	0.993681	-1.225780	0.631030
H102	H	1.493681	-0.725780	1.131030
H103	H	0.890955	-1.142181	0.723622
H104	H	1.390955	-0.642181	1.223622
H105	H	0.899548	-0.975542	0.715776
H106	H	1.399548	-0.475542	1.215776
H107	H	1.010870	-0.892506	0.615336
H108	H	1.510870	-0.392506	1.115336
H109	H	1.228497	-0.969939	0.419078
H110	H	1.728497	-0.469939	0.919078
C111	C	1.066266	-0.565537	1.012091
C112	C	1.566266	-0.065537	1.512091
C113	C	1.061301	-0.570000	1.107835
C114	C	1.561301	-0.070000	1.607835
C115	C	0.997339	-0.627753	1.155523
C116	C	1.497339	-0.127753	1.655523
C117	C	0.938342	-0.681042	1.107466
C118	C	1.438342	-0.181042	1.607466
C119	C	0.943305	-0.676581	1.011717
C120	C	1.443305	-0.176581	1.511717
C121	C	1.007267	-0.618828	0.964030
C122	C	1.507267	-0.118828	1.464030
H123	H	1.104976	-0.530550	1.143414
H124	H	1.604976	-0.030550	1.643414
H125	H	0.993665	-0.631055	1.226403
H126	H	1.493665	-0.131055	1.726403
H127	H	0.890993	-0.723794	1.142767
H128	H	1.390993	-0.223794	1.642767
H129	H	0.899630	-0.716030	0.976138
H130	H	1.399630	-0.216030	1.476138
H131	H	1.010941	-0.615526	0.893150
H132	H	1.510941	-0.115526	1.393150
H133	H	1.228516	-0.419050	0.970667
H134	H	1.728516	0.080950	1.470667
