data_functionalizedCrystal
_audit_creation_method	'MofGen! by Chris Wilmer'
_symmetry_space_group_name_H-M	'P1'
_symmetry_Int_Tables_number	1
_symmetry_cell_setting	triclinic
loop_
_symmetry_equiv_pos_as_xyz
  x,y,z
_cell_length_a	9.065215
_cell_length_b	12.376457
_cell_length_c	9.065218
_cell_angle_alpha	78.552305
_cell_angle_beta	85.015291
_cell_angle_gamma	101.461883
loop_
_atom_site_label
_atom_site_type_symbol
_atom_site_fract_x
_atom_site_fract_y
_atom_site_fract_z
O1	O	1.988318	0.093987	0.188437
O2	O	1.559034	0.093992	0.206187
O3	O	1.782549	0.093987	-0.017330
O4	O	1.764804	0.093992	0.411954
O5	O	1.726689	-0.094024	0.038472
O6	O	1.503175	-0.094019	0.261989
O7	O	1.932459	-0.094024	0.244239
Zn8	Zn	1.708948	-0.123872	0.261974
Zn9	Zn	1.782545	0.123840	0.188452
O10	O	1.708944	-0.094019	0.467756
C11	C	1.476118	-0.000013	0.232383
C12	C	1.312276	-0.000011	0.227284
N13	N	1.658731	-0.292929	0.312150
C14	C	1.949345	-0.647921	0.021761
C15	C	1.984484	-0.529581	-0.013358
C16	C	1.903048	-0.470413	0.068016
C17	C	1.786468	-0.529595	0.184515
C18	C	1.751333	-0.647945	0.219645
C19	C	1.705037	-0.470437	0.265900
C20	C	1.588457	-0.529619	0.382398
C21	C	1.553327	-0.647958	0.417522
C22	C	1.634763	-0.707127	0.336148
C23	C	1.740171	-0.352087	0.230770
C24	C	1.542160	-0.352111	0.428653
C25	C	1.507021	-0.470450	0.463772
C26	C	2.015376	-0.000016	0.218043
C27	C	2.179221	-0.000011	0.223139
C28	C	1.752914	-0.000016	-0.044416
C29	C	1.747816	-0.000011	-0.208260
N30	N	1.832774	0.292898	0.138265
C31	C	1.738580	-0.000013	0.494841
C32	C	1.743680	-0.000011	0.658683
H33	H	1.835091	-0.303911	0.135917
N34	N	1.940940	-0.342776	0.030143
H35	H	2.027146	-0.314262	-0.056007
H36	H	1.848786	-0.314377	-0.001113
N37	N	1.381295	-0.534296	0.589426
H38	H	1.405788	-0.513700	0.688280
H39	H	1.282510	-0.513694	0.564726
H40	H	2.079403	-0.481400	-0.108208
N41	N	1.454320	-0.288309	0.516438
H42	H	1.494263	-0.204359	0.476504
H43	H	1.343276	-0.309009	0.504078
N44	N	2.037183	-0.711735	-0.065983
H45	H	1.997237	-0.795684	-0.026044
H46	H	2.024894	-0.691063	-0.177041
H47	H	1.606150	-0.803489	0.364737
H48	H	1.458413	-0.696144	0.512393
