data_functionalizedCrystal
_audit_creation_method	'MofGen! by Chris Wilmer'
_symmetry_space_group_name_H-M	'P1'
_symmetry_Int_Tables_number	1
_symmetry_cell_setting	triclinic
loop_
_symmetry_equiv_pos_as_xyz
  x,y,z
_cell_length_a	25.639239
_cell_length_b	13.897449
_cell_length_c	13.897441
_cell_angle_alpha	90.023394
_cell_angle_beta	90.034305
_cell_angle_gamma	90.039513
loop_
_atom_site_label
_atom_site_type_symbol
_atom_site_fract_x
_atom_site_fract_y
_atom_site_fract_z
Zn1	Zn	-0.208123	1.474562	0.545425
Zn2	Zn	-0.295565	1.474397	0.384116
Zn3	Zn	-0.208147	1.313251	0.384136
Zn4	Zn	-0.295530	1.313174	0.545361
O5	O	-0.251841	1.393846	0.464759
O6	O	-0.219727	1.609522	0.524045
O7	O	-0.283994	1.452984	0.249137
O8	O	-0.134978	1.334751	0.405566
O9	O	-0.283970	1.609400	0.405532
O10	O	-0.134961	1.453265	0.524065
O11	O	-0.219768	1.334591	0.249151
O12	O	-0.219734	1.178259	0.405504
O13	O	-0.283910	1.334619	0.680351
O14	O	-0.283934	1.178202	0.523956
O15	O	-0.219693	1.453190	0.680398
O16	O	-0.368726	1.452909	0.405470
O17	O	-0.368700	1.334459	0.523936
C18	C	-0.251833	1.143232	0.464726
C19	C	-0.251842	1.036018	0.464734
C20	C	-0.251844	0.948948	0.464750
C21	C	-0.251848	0.839715	0.464780
C22	C	-0.387684	1.393684	0.464715
C23	C	-0.445798	1.393703	0.464728
C24	C	-0.806162	1.455684	0.403179
C25	C	-0.860766	1.455721	0.403192
O26	O	-0.889003	1.508251	0.350812
N27	N	-0.888080	1.394015	0.464823
C28	C	-0.860787	1.332275	0.526452
O29	O	-0.889034	1.279794	0.578876
C30	C	-0.806184	1.332243	0.526444
C31	C	-0.778873	1.393946	0.464801
C32	C	-0.778850	1.517382	0.341543
C33	C	-0.724250	1.517343	0.341529
C34	C	-0.696961	1.455606	0.403151
C35	C	-0.724272	1.393907	0.464788
C36	C	-0.778892	1.270509	0.588077
C37	C	-0.724285	1.270483	0.588063
C38	C	-0.696974	1.332186	0.526421
C39	C	-0.642382	1.332131	0.526396
N40	N	-0.615068	1.393837	0.464765
C41	C	-0.642357	1.455574	0.403142
C42	C	-0.975458	1.332348	0.526467
C43	C	-1.030060	1.332374	0.526472
C44	C	-1.030035	1.455822	0.403212
C45	C	-0.975432	1.455790	0.403204
C46	C	-0.948144	1.394054	0.464836
C47	C	-0.527692	1.455487	0.403117
C48	C	-0.473087	1.455440	0.403106
C49	C	-0.473117	1.331997	0.526369
C50	C	-0.527717	1.332040	0.526377
C51	C	-0.555004	1.393793	0.464748
O52	O	-0.614110	1.279630	0.578752
O53	O	-0.614104	1.508056	0.350736
C54	C	-0.115468	1.394035	0.464825
C55	C	-0.057354	1.394116	0.464853
C56	C	-0.251795	1.393914	0.716352
C57	C	-0.251775	1.393944	0.823566
C58	C	-0.251850	1.645439	0.464794
C59	C	-0.251853	1.752653	0.464808
C60	C	-0.251849	1.393833	0.214145
C61	C	-0.251722	1.393991	0.106931
C62	C	-0.251740	1.393970	1.019862
C63	C	-0.251761	1.393952	0.910629
H64	H	-0.450851	1.505686	0.352906
C65	C	-0.522168	1.577495	0.281267
C66	C	-0.557680	1.523359	0.335367
H67	H	-0.540682	1.619387	0.239435
H68	H	-0.500836	1.614353	0.323326
H69	H	-0.500907	1.535456	0.244338
H70	H	-0.578938	1.565399	0.372302
H71	H	-0.579021	1.486499	0.293304
C72	C	-0.456368	1.168630	0.573222
C73	C	-0.443115	1.264143	0.594112
H74	H	-0.437843	1.126747	0.615048
H75	H	-0.492791	1.159821	0.582055
H76	H	-0.447448	1.154542	0.508398
H77	H	-0.452039	1.278233	0.658934
H78	H	-0.406684	1.272957	0.585287
C79	C	-0.729726	1.639380	0.219712
C80	C	-0.694234	1.585184	0.273783
H81	H	-0.711197	1.681271	0.177895
H82	H	-0.751057	1.597386	0.182778
H83	H	-0.750990	1.676251	0.261797
H84	H	-0.672972	1.548308	0.231699
H85	H	-0.672894	1.627184	0.310721
C86	C	-1.113732	1.510804	0.348633
C87	C	-1.060038	1.523772	0.335560
H88	H	-1.132254	1.552779	0.306896
H89	H	-1.122740	1.446042	0.334376
H90	H	-1.122616	1.524812	0.413491
H91	H	-1.051154	1.509757	0.270704
H92	H	-1.051027	1.588549	0.349810
C93	C	-0.840137	1.647261	0.328338
C94	C	-0.808819	1.585319	0.273834
H95	H	-0.858626	1.689225	0.286540
H96	H	-0.864238	1.610528	0.364995
H97	H	-0.818781	1.684050	0.370431
H98	H	-0.830174	1.548524	0.231745
H99	H	-0.784714	1.622056	0.237161
C100	C	-0.662951	1.140679	0.601349
C101	C	-0.694291	1.202618	0.655813
H102	H	-0.644433	1.098787	0.643176
H103	H	-0.684290	1.103822	0.559302
H104	H	-0.638869	1.177427	0.564645
H105	H	-0.718376	1.165870	0.692512
H106	H	-0.672950	1.239479	0.697877
H107	H	-0.953198	1.506034	0.353010
H108	H	-0.549955	1.281799	0.576574
H109	H	-1.052293	1.282120	0.576658
C110	C	-0.914018	1.318815	0.656208
C111	C	-0.945465	1.264471	0.594211
H112	H	-0.895507	1.276910	0.698033
H113	H	-0.889935	1.355545	0.619506
H114	H	-0.935287	1.360833	0.693143
H115	H	-0.924195	1.222457	0.557270
H116	H	-0.969551	1.227724	0.630916
C117	C	-0.773409	1.148509	0.709929
C118	C	-0.808903	1.202688	0.655844
H119	H	-0.791937	1.106643	0.751772
H120	H	-0.752152	1.111622	0.667861
H121	H	-0.752071	1.190523	0.746845
H122	H	-0.830238	1.160675	0.618922
H123	H	-0.830169	1.239579	0.697917
