data_functionalizedCrystal
_audit_creation_method	'MofGen! by Chris Wilmer'
_symmetry_space_group_name_H-M	'P1'
_symmetry_Int_Tables_number	1
_symmetry_cell_setting	triclinic
loop_
_symmetry_equiv_pos_as_xyz
  x,y,z
_cell_length_a	14.044220
_cell_length_b	10.540539
_cell_length_c	13.101039
_cell_angle_alpha	93.398267
_cell_angle_beta	86.340132
_cell_angle_gamma	88.857185
loop_
_atom_site_label
_atom_site_type_symbol
_atom_site_fract_x
_atom_site_fract_y
_atom_site_fract_z
O1	O	1.264944	0.299850	-0.085096
O2	O	0.988901	0.288796	-0.085123
O3	O	1.133220	0.110253	-0.085108
O4	O	1.120625	0.478393	-0.085111
O5	O	1.122866	0.123087	0.085321
O6	O	0.978547	0.301630	0.085306
O7	O	1.254589	0.312683	0.085332
Zn8	Zn	1.114924	0.309194	0.112379
Zn9	Zn	1.128566	0.292285	-0.112169
O10	O	1.110270	0.491226	0.085317
C11	C	0.948377	0.290375	0.000088
C12	C	0.843054	0.275945	0.000078
C13	C	0.650213	0.249565	0.000099
C14	C	0.593272	0.351908	0.000102
C15	C	0.485969	0.337230	0.000114
C16	C	0.757526	0.264241	0.000087
C17	C	1.127098	0.069271	0.000105
C18	C	1.124273	-0.071963	0.000099
C19	C	1.016007	-0.266367	-0.000294
C20	C	1.018849	-0.119430	0.000090
C21	C	1.169094	-0.121162	0.097427
C22	C	1.165492	-0.268064	0.097509
C23	C	1.179411	-0.282960	-0.096300
C24	C	1.180460	-0.135977	-0.097587
C25	C	1.295114	0.311104	0.000119
C26	C	1.400437	0.325534	0.000123
C27	C	1.116392	0.532208	0.000103
C28	C	1.119218	0.673442	0.000102
N29	N	1.105620	0.320734	0.265626
N30	N	1.137878	0.280737	-0.265416
C31	C	1.092962	0.336445	0.474667
C32	C	1.150533	0.265029	0.525549
C33	C	1.143490	0.273771	0.641867
C34	C	1.100004	0.327705	0.358339
H35	H	0.618376	0.150932	0.000105
H36	H	1.149772	-0.323517	-0.170068
H37	H	1.038389	0.404149	0.518459
H38	H	1.205111	0.197322	0.481752
H39	H	1.246295	-0.090708	0.101053
H40	H	1.255598	-0.322536	-0.096948
H41	H	0.625112	0.450550	0.000096
H42	H	0.983167	-0.086117	-0.069679
H43	H	0.978603	-0.304433	-0.070090
C44	C	0.954280	-0.305761	0.093459
H45	H	0.991136	-0.358727	0.132843
H46	H	0.900783	-0.350868	0.071079
H47	H	0.932856	-0.231980	0.134309
C48	C	0.958811	-0.061388	0.094486
H49	H	0.960335	0.028717	0.095038
H50	H	0.984304	-0.089123	0.155030
H51	H	0.894740	-0.087936	0.091617
C52	C	1.108857	-0.303888	0.195774
H53	H	1.088261	-0.228701	0.235265
H54	H	1.148481	-0.353766	0.234691
H55	H	1.054873	-0.351276	0.177983
H56	H	1.241043	-0.308035	0.101931
H57	H	1.147712	-0.104293	-0.169588
C58	C	1.115534	-0.061084	0.195265
H59	H	1.065852	-0.006017	0.177007
H60	H	1.158707	-0.013939	0.234648
H61	H	1.088977	-0.126245	0.234488
H62	H	1.257679	-0.104427	-0.103457
