data_functionalizedCrystal
_audit_creation_method	'MofGen! by Chris Wilmer'
_symmetry_space_group_name_H-M	'P1'
_symmetry_Int_Tables_number	1
_symmetry_cell_setting	triclinic
loop_
_symmetry_equiv_pos_as_xyz
  x,y,z
_cell_length_a	18.215407
_cell_length_b	18.215405
_cell_length_c	18.215407
_cell_angle_alpha	90.011538
_cell_angle_beta	90.009795
_cell_angle_gamma	90.025333
loop_
_atom_site_label
_atom_site_type_symbol
_atom_site_fract_x
_atom_site_fract_y
_atom_site_fract_z
Zn1	Zn	1.124999	-0.293121	0.416102
Zn2	Zn	1.124929	-0.416152	0.293030
Zn3	Zn	1.001953	-0.293104	0.293050
Zn4	Zn	1.001897	-0.416151	0.416055
O5	O	1.063445	-0.354632	0.354559
O6	O	1.227974	-0.309448	0.399788
O7	O	1.108610	-0.399822	0.190049
O8	O	1.018328	-0.190122	0.309401
O9	O	1.227923	-0.399838	0.309368
O10	O	1.108729	-0.190135	0.399807
O11	O	1.018260	-0.309420	0.190063
O12	O	0.898961	-0.309420	0.309355
O13	O	1.018233	-0.399838	0.519046
O14	O	0.898921	-0.399822	0.399727
O15	O	1.108675	-0.309448	0.519080
O16	O	1.108556	-0.519136	0.309322
O17	O	1.018165	-0.519136	0.399708
C18	C	0.872238	-0.354620	0.354538
C19	C	0.790439	-0.354632	0.354547
C20	C	0.602244	-0.401778	0.401544
C21	C	0.525385	-0.401781	0.401553
C22	C	0.525398	-0.307499	0.307591
C23	C	0.602255	-0.307494	0.307586
C24	C	0.640676	-0.354638	0.354561
C25	C	0.486960	-0.354645	0.354576
C26	C	0.403626	-0.354647	0.354585
C27	C	0.724015	-0.354635	0.354553
C28	C	1.063367	-0.545838	0.354524
C29	C	1.063401	-0.627637	0.354534
C30	C	1.110578	-0.815807	0.307556
C31	C	1.110611	-0.892666	0.307574
C32	C	1.016405	-0.892705	0.401616
C33	C	1.016377	-0.815848	0.401601
C34	C	1.063462	-0.777401	0.354567
C35	C	1.063524	-0.931117	0.354600
C36	C	1.063559	-1.014450	0.354619
C37	C	1.063428	-0.694062	0.354548
C38	C	1.255398	-0.354645	0.354581
C39	C	1.337196	-0.354651	0.354590
C40	C	1.063456	-0.354645	0.546512
C41	C	1.063461	-0.354651	0.628311
C42	C	1.063543	-0.162679	0.354611
C43	C	1.063584	-0.080880	0.354633
C44	C	1.110495	-0.401708	0.893366
C45	C	1.110496	-0.401712	0.816507
C46	C	1.016406	-0.307581	0.816505
C47	C	1.016401	-0.307582	0.893362
C48	C	1.063449	-0.354645	0.931791
C49	C	1.063456	-0.354647	0.778075
C50	C	1.063458	-0.354650	0.694741
C51	C	1.063447	-0.354642	1.015130
C52	C	1.063433	-0.354638	1.163353
C53	C	1.063445	-0.354641	1.081554
H54	H	0.494106	-0.269118	0.269344
H55	H	0.494096	-0.440166	0.439813
O56	O	0.639534	-0.447487	0.447285
C57	C	0.663029	-0.483430	0.572404
C58	C	0.620769	-0.431609	0.520683
H59	H	0.647862	-0.470621	0.631755
H60	H	0.724572	-0.475328	0.564395
H61	H	0.647900	-0.542748	0.559340
H62	H	0.635836	-0.372271	0.533714
H63	H	0.559236	-0.439774	0.528701
H64	H	0.978101	-0.269264	0.785207
O65	O	0.970536	-0.778649	0.447294
C66	C	0.877133	-0.786793	0.540605
C67	C	0.928991	-0.829012	0.488884
H68	H	0.843542	-0.827492	0.574255
H69	H	0.838617	-0.750873	0.506809
H70	H	0.910892	-0.750749	0.579078
H71	H	0.895291	-0.865096	0.450401
H72	H	0.967509	-0.864885	0.522726
H73	H	1.148804	-0.440031	0.924652
H74	H	0.633548	-0.269102	0.269327
O75	O	1.156387	-0.778572	0.261849
C76	C	1.249798	-0.786649	0.168545
C77	C	1.197967	-0.828905	0.220282
H78	H	1.283419	-0.827324	0.134913
H79	H	1.288288	-0.750640	0.202326
H80	H	1.216016	-0.750690	0.130055
H81	H	1.231691	-0.864903	0.258783
H82	H	1.159475	-0.864867	0.186456
O83	O	0.970675	-0.261791	0.930580
C84	C	0.877318	-0.168458	0.922473
C85	C	0.929076	-0.220260	0.880234
H86	H	0.843660	-0.134878	0.881787
H87	H	0.911085	-0.129930	0.958454
H88	H	0.838853	-0.202262	0.958459
H89	H	0.967551	-0.186516	0.844208
H90	H	0.895263	-0.258790	0.844300
O91	O	1.156396	-0.930087	0.262017
C92	C	1.198262	-1.048470	0.220428
C93	C	1.146355	-1.006183	0.272044
H94	H	1.190151	-1.110001	0.228505
H95	H	1.257583	-1.033324	0.233462
H96	H	1.185443	-1.033381	0.161059
H97	H	1.159108	-1.021249	0.331430
H98	H	1.087050	-1.021332	0.258946
O99	O	0.970688	-0.930168	0.447227
C100	C	0.929007	-1.048588	0.488956
C101	C	0.980811	-1.006256	0.437252
H102	H	0.937184	-1.110112	0.480920
H103	H	0.869655	-1.033583	0.475969
H104	H	0.941868	-1.033401	0.548299
H105	H	0.968016	-1.021421	0.377891
H106	H	1.040147	-1.021265	0.450302
O107	O	1.156267	-0.447452	0.779295
C108	C	1.249562	-0.540845	0.787413
C109	C	1.197776	-0.489067	0.829646
H110	H	1.283125	-0.574516	0.828104
H111	H	1.288108	-0.507094	0.751465
H112	H	1.215749	-0.579297	0.751397
H113	H	1.231530	-0.450605	0.865702
H114	H	1.159228	-0.522865	0.865549
