data_functionalizedCrystal
_audit_creation_method	'MofGen! by Chris Wilmer'
_symmetry_space_group_name_H-M	'P1'
_symmetry_Int_Tables_number	1
_symmetry_cell_setting	triclinic
loop_
_symmetry_equiv_pos_as_xyz
  x,y,z
_cell_length_a	17.699083
_cell_length_b	19.188930
_cell_length_c	16.176319
_cell_angle_alpha	89.988074
_cell_angle_beta	89.998611
_cell_angle_gamma	83.213899
loop_
_atom_site_label
_atom_site_type_symbol
_atom_site_fract_x
_atom_site_fract_y
_atom_site_fract_z
O1	O	1.003963	0.088294	-0.068640
O2	O	1.503963	0.588294	0.431360
O3	O	0.783569	0.099782	-0.068668
O4	O	1.283569	0.599782	0.431332
O5	O	0.900126	-0.007610	-0.068637
O6	O	1.400126	0.492390	0.431363
O7	O	0.887406	0.195687	-0.068671
O8	O	1.387406	0.695687	0.431329
O9	O	0.900110	-0.007617	0.068856
O10	O	1.400110	0.492383	0.568856
O11	O	0.783553	0.099775	0.068825
O12	O	1.283553	0.599775	0.568825
O13	O	1.003947	0.088288	0.068853
O14	O	1.503947	0.588288	0.568853
Cu15	Cu	0.893748	0.094031	0.081393
Cu16	Cu	1.393748	0.594031	0.581393
Cu17	Cu	0.893767	0.094039	-0.081208
Cu18	Cu	1.393767	0.594039	0.418792
O19	O	0.887390	0.195680	0.068822
O20	O	1.387390	0.695680	0.568822
C21	C	0.755365	0.099367	0.000075
C22	C	1.255365	0.599367	0.500075
C23	C	0.671348	0.098132	0.000065
C24	C	1.171348	0.598132	0.500065
C25	C	0.622644	0.161169	0.000055
C26	C	1.122644	0.661169	0.500055
C27	C	0.543702	0.160004	0.000065
C28	C	1.043702	0.660004	0.500065
C29	C	0.513466	0.095802	0.000081
C30	C	1.013466	0.595802	0.500081
C31	C	0.562176	0.032761	0.000093
C32	C	1.062176	0.532761	0.500093
C33	C	0.641117	0.033926	0.000088
C34	C	1.141117	0.533926	0.500088
C35	C	0.243819	0.028060	0.000115
C36	C	0.743819	0.528060	0.500115
C37	C	0.164873	0.026900	0.000117
C38	C	0.664873	0.526900	0.500117
C39	C	0.146405	0.154139	0.000092
C40	C	0.646405	0.654139	0.500092
C41	C	0.225345	0.155304	0.000087
C42	C	0.725345	0.655304	0.500087
C43	C	0.274049	0.092263	0.000104
C44	C	0.774049	0.592263	0.500104
C45	C	0.359646	0.093526	0.000094
C46	C	0.859646	0.593526	0.500094
C47	C	0.427870	0.094538	0.000085
C48	C	0.927870	0.594538	0.500085
C49	C	0.899706	-0.033625	0.000112
C50	C	1.399706	0.466375	0.500112
C51	C	0.898469	-0.111131	0.000119
C52	C	1.398469	0.388869	0.500119
C53	C	0.966861	-0.155978	0.000131
C54	C	1.466861	0.344022	0.500131
C55	C	0.965699	-0.228804	0.000118
C56	C	1.465699	0.271196	0.500118
C57	C	0.896142	-0.256778	0.000108
C58	C	1.396142	0.243222	0.500108
C59	C	0.827741	-0.211921	0.000091
C60	C	1.327741	0.288079	0.500091
C61	C	0.828905	-0.139098	0.000096
C62	C	1.328905	0.360902	0.500096
N63	N	0.842968	-0.364845	0.046893
N64	N	1.342968	0.135155	0.546893
N65	N	0.841868	-0.434025	0.046890
N66	N	1.341868	0.065975	0.546890
C67	C	0.892632	-0.476191	0.000091
C68	C	1.392632	0.023809	0.500091
N69	N	0.944550	-0.446565	-0.046694
N70	N	1.444550	0.053435	0.453306
N71	N	0.945653	-0.377379	-0.046687
N72	N	1.445653	0.122621	0.453313
C73	C	0.894873	-0.335742	0.000102
C74	C	1.394873	0.164258	0.500102
C75	C	0.959769	-0.600004	0.000088
C76	C	1.459769	-0.100004	0.500088
C77	C	0.958604	-0.672830	0.000070
C78	C	1.458604	-0.172830	0.500070
C79	C	0.820644	-0.655946	0.000051
C80	C	1.320644	-0.155946	0.500051
C81	C	0.821811	-0.583121	0.000061
C82	C	1.321811	-0.083121	0.500061
C83	C	0.891375	-0.555155	0.000084
C84	C	1.391375	-0.055155	0.500084
C85	C	1.032151	0.088703	0.000108
C86	C	1.532151	0.588703	0.500108
C87	C	1.116167	0.089938	0.000113
C88	C	1.616167	0.589938	0.500113
C89	C	0.887810	0.221695	0.000071
C90	C	1.387810	0.721695	0.500071
C91	C	0.889046	0.299201	0.000059
C92	C	1.389046	0.799201	0.500059
N93	N	0.893741	0.094025	0.195758
N94	N	1.393741	0.594025	0.695758
N95	N	0.893781	0.094039	-0.195574
N96	N	1.393781	0.594039	0.304426
C97	C	0.945367	0.046491	0.239036
C98	C	1.445367	0.546491	0.739036
C99	C	0.945371	0.046490	0.325584
C100	C	1.445371	0.546490	0.825584
C101	C	0.893751	0.094027	0.368851
C102	C	1.393751	0.594027	0.868851
C103	C	0.842119	0.141563	0.325567
C104	C	1.342119	0.641563	0.825567
C105	C	0.842112	0.141560	0.239022
C106	C	1.342112	0.641560	0.739022
C107	C	0.842145	0.141576	0.674595
C108	C	1.342145	0.641576	1.174595
C109	C	0.842157	0.141577	0.761147
C110	C	1.342157	0.641577	1.261147
C111	C	0.945404	0.046506	0.761157
C112	C	1.445404	0.546506	1.261157
C113	C	0.945397	0.046503	0.674612
C114	C	1.445397	0.546503	1.174612
C115	C	0.893763	0.094036	0.631335
C116	C	1.393763	0.594036	1.131335
C117	C	0.893758	0.094036	0.537491
C118	C	1.393758	0.594036	1.037491
C119	C	0.893759	0.094031	0.462694
C120	C	1.393759	0.594031	0.962694
H121	H	0.504050	0.211335	0.000056
H122	H	1.004050	0.711335	0.500056
H123	H	0.283465	-0.023272	0.000129
H124	H	0.783465	0.476728	0.500129
N125	N	0.998143	-0.002065	0.805352
N126	N	1.498143	0.497935	1.305352
N127	N	1.044227	-0.044504	0.766709
N128	N	1.544227	0.455496	1.266709
H129	H	1.081475	-0.078807	0.797918
H130	H	1.581475	0.421193	1.297918
N131	N	0.531281	-0.032815	0.000118
N132	N	1.031281	0.467185	0.500118
N133	N	0.460798	-0.033848	0.000121
N134	N	0.960798	0.466152	0.500121
H135	H	0.438978	-0.080162	0.000137
H136	H	0.938978	0.419838	0.500137
N137	N	0.690870	-0.030464	0.000116
N138	N	1.190870	0.469536	0.500116
N139	N	0.688239	-0.073191	0.058086
N140	N	1.188239	0.426809	0.558086
H141	H	0.723378	-0.118668	0.058111
H142	H	1.223378	0.381332	0.558111
N143	N	0.789423	0.190137	0.630384
N144	N	1.289423	0.690137	1.130384
N145	N	0.789422	0.190135	0.553112
N146	N	1.289422	0.690135	1.053112
H147	H	0.752188	0.224436	0.521883
H148	H	1.252188	0.724436	1.021883
N149	N	0.751956	-0.537297	0.000067
N150	N	1.251956	-0.037297	0.500067
N151	N	0.753004	-0.472277	0.000075
N152	N	1.253004	0.027723	0.500075
H153	H	0.703667	-0.439912	0.000078
H154	H	1.203667	0.060088	0.500078
N155	N	0.756691	-0.240494	0.000103
N156	N	1.256691	0.259506	0.500103
N157	N	0.710632	-0.226721	0.058058
N158	N	1.210632	0.273279	0.558058
H159	H	0.660450	-0.246901	0.058066
H160	H	1.160450	0.253099	0.558066
H161	H	0.987405	0.007784	0.203814
H162	H	1.487405	0.507784	0.703814
H163	H	1.016412	-0.577233	0.000103
H164	H	1.516412	-0.077233	0.500103
N165	N	0.789431	0.190133	0.805358
N166	N	1.289431	0.690133	1.305358
N167	N	0.813300	0.233448	0.853635
N168	N	1.313300	0.733448	1.353635
H169	H	0.776065	0.267739	0.884861
H170	H	1.276065	0.767739	1.384861
N171	N	1.037911	-0.127403	0.000156
N172	N	1.537911	0.372597	0.500156
N173	N	1.053943	-0.088661	0.058118
N174	N	1.553943	0.411339	0.558118
H175	H	1.104123	-0.068478	0.058135
H176	H	1.604123	0.431522	0.558135
H177	H	0.800085	0.180266	0.360800
H178	H	1.300085	0.680266	0.860800
N179	N	0.749592	-0.684511	0.000057
N180	N	1.249592	-0.184511	0.500057
N181	N	0.703531	-0.670740	0.058010
N182	N	1.203531	-0.170740	0.558010
H183	H	0.653347	-0.690917	0.058013
H184	H	1.153347	-0.190917	0.558013
N185	N	0.998109	-0.002072	0.369778
N186	N	1.498109	0.497928	0.869778
N187	N	1.044196	-0.044510	0.331137
N188	N	1.544196	0.455490	0.831137
H189	H	1.081444	-0.078811	0.362348
H190	H	1.581444	0.421189	0.862348
H191	H	1.014299	-0.709345	0.000076
H192	H	1.514299	-0.209345	0.500076
N193	N	1.035570	-0.274615	0.000130
N194	N	1.535570	0.225385	0.500130
N195	N	1.097673	-0.249636	0.000148
N196	N	1.597673	0.250364	0.500148
H197	H	1.147020	-0.281987	0.000158
H198	H	1.647020	0.218013	0.500158
H199	H	0.800071	0.180266	0.203785
H200	H	1.300071	0.680266	0.703785
N201	N	0.998130	-0.002063	0.630433
N202	N	1.498130	0.497937	1.130433
N203	N	0.997315	-0.066598	0.640122
N204	N	1.497315	0.433402	1.140122
H205	H	1.034559	-0.100900	0.608923
H206	H	1.534559	0.399100	1.108923
N207	N	0.653539	0.226745	0.000032
N208	N	1.153539	0.726745	0.500032
N209	N	0.695526	0.241594	-0.057930
N210	N	1.195526	0.741594	0.442070
H211	H	0.717344	0.287909	-0.057944
H212	H	1.217344	0.787909	0.442056
N213	N	0.256217	0.220891	0.000063
N214	N	0.756217	0.720891	0.500063
N215	N	0.212722	0.277171	0.000054
N216	N	0.712722	0.777171	0.500054
H217	H	0.234524	0.323494	0.000039
H218	H	0.734524	0.823494	0.500039
N219	N	0.096654	0.218536	0.000102
N220	N	0.596654	0.718536	0.500102
N221	N	0.099293	0.261261	0.058052
N222	N	0.599293	0.761261	0.558052
H223	H	0.064158	0.306741	0.058059
H224	H	0.564158	0.806741	0.558059
H225	H	0.140258	-0.025384	0.000131
H226	H	0.640258	0.474616	0.500131
H227	H	0.773210	-0.102582	0.000086
H228	H	1.273210	0.397418	0.500086
