data_functionalizedCrystal
_audit_creation_method	'MofGen! by Chris Wilmer'
_symmetry_space_group_name_H-M	'P1'
_symmetry_Int_Tables_number	1
_symmetry_cell_setting	triclinic
loop_
_symmetry_equiv_pos_as_xyz
  x,y,z
_cell_length_a	18.050591
_cell_length_b	18.050589
_cell_length_c	18.050582
_cell_angle_alpha	89.981795
_cell_angle_beta	89.980240
_cell_angle_gamma	90.024669
loop_
_atom_site_label
_atom_site_type_symbol
_atom_site_fract_x
_atom_site_fract_y
_atom_site_fract_z
Zn1	Zn	1.135293	-0.295777	-0.420031
Zn2	Zn	1.135203	-0.419960	-0.295850
Zn3	Zn	1.011112	-0.295781	-0.295845
Zn4	Zn	1.011060	-0.419922	-0.419988
O5	O	1.073167	-0.357860	-0.357929
O6	O	1.239205	-0.312265	-0.403578
O7	O	1.118727	-0.403505	-0.191925
O8	O	1.027644	-0.191856	-0.312333
O9	O	1.239140	-0.403501	-0.312343
O10	O	1.118879	-0.191853	-0.403573
O11	O	1.027557	-0.312271	-0.191921
O12	O	0.907180	-0.312234	-0.312292
O13	O	1.027555	-0.403436	-0.523919
O14	O	0.907142	-0.403440	-0.403500
O15	O	1.118828	-0.312227	-0.523950
O16	O	1.118676	-0.523880	-0.312302
O17	O	1.027468	-0.523852	-0.403506
C18	C	0.880215	-0.357834	-0.357891
C19	C	0.797669	-0.357841	-0.357893
C20	C	0.548843	-0.308192	-0.308412
C21	C	0.598275	-0.290110	-0.376186
C22	C	0.500548	-0.357879	-0.357954
C23	C	0.598198	-0.375906	-0.290153
C24	C	0.646534	-0.357858	-0.357920
C25	C	0.548893	-0.339763	-0.425765
C26	C	0.548813	-0.425589	-0.339686
C27	C	0.598222	-0.407534	-0.407507
C28	C	0.416450	-0.357888	-0.357972
C29	C	0.730630	-0.357848	-0.357910
C30	C	1.073077	-0.550812	-0.357916
C31	C	1.073107	-0.633358	-0.357936
C32	C	1.023557	-0.832820	-0.407515
C33	C	1.005459	-0.882253	-0.339746
C34	C	1.073180	-0.784488	-0.357945
C35	C	1.091314	-0.882137	-0.425722
C36	C	1.073249	-0.930473	-0.357961
C37	C	1.055046	-0.832834	-0.290141
C38	C	1.140933	-0.832714	-0.376162
C39	C	1.122861	-0.882124	-0.308347
C40	C	1.073138	-0.700390	-0.357938
C41	C	1.073291	-1.014570	-0.357961
C42	C	1.266872	-0.357887	-0.357966
C43	C	1.349418	-0.357898	-0.357982
C44	C	1.073196	-0.357827	-0.551634
C45	C	1.073208	-0.357813	-0.634180
C46	C	1.073277	-0.164154	-0.357957
C47	C	1.073324	-0.081609	-0.357969
C48	C	1.023612	-0.407345	-0.833614
C49	C	1.091367	-0.425502	-0.883012
C50	C	1.073245	-0.357756	-0.785311
C51	C	1.005527	-0.339578	-0.882994
C52	C	1.073274	-0.357703	-0.931296
C53	C	1.141036	-0.375950	-0.833622
C54	C	1.055150	-0.289994	-0.833599
C55	C	1.122952	-0.308126	-0.882975
C56	C	1.073227	-0.357789	-0.701212
C57	C	1.073300	-0.357670	-1.015392
C58	C	1.073181	-0.357839	-0.164976
C59	C	1.073312	-0.357644	-0.082431
H60	H	0.981531	-0.811171	-0.449375
N61	N	1.175687	-0.255492	-0.909988
N62	N	1.242714	-0.262306	-0.894013
H63	H	1.279960	-0.225136	-0.913091
N64	N	0.971009	-0.460024	-0.806430
N65	N	0.977800	-0.527083	-0.822283
H66	H	0.940652	-0.564290	-0.803084
N67	N	1.212910	-0.395312	-0.806534
N68	N	1.240720	-0.456569	-0.822896
H69	H	1.291479	-0.470247	-0.803763
H70	H	0.948195	-0.904030	-0.324352
H71	H	0.527325	-0.324440	-0.483105
H72	H	0.619987	-0.232837	-0.391637
H73	H	1.039669	-0.811267	-0.232813
N74	N	0.521622	-0.255464	-0.255936
N75	N	0.481973	-0.276436	-0.203150
H76	H	0.462746	-0.239197	-0.166091
H77	H	0.619766	-0.449544	-0.449438
N78	N	1.035897	-0.218153	-0.806355
N79	N	0.974426	-0.190485	-0.822142
H80	H	0.960821	-0.139746	-0.802902
H81	H	0.527071	-0.482843	-0.324224
N82	N	1.175539	-0.909107	-0.255703
N83	N	1.168776	-0.893158	-0.188660
H84	H	1.205978	-0.912216	-0.151478
H85	H	0.948246	-0.324225	-0.904682
N86	N	1.212748	-0.805390	-0.395530
N87	N	1.220562	-0.764844	-0.451138
H88	H	1.271282	-0.745546	-0.464826
H89	H	0.619858	-0.391162	-0.232829
H90	H	1.106625	-0.903794	-0.483034
H91	H	1.106690	-0.482785	-0.904717
