data_functionalizedCrystal
_audit_creation_method	'MofGen! by Chris Wilmer'
_symmetry_space_group_name_H-M	'P1'
_symmetry_Int_Tables_number	1
_symmetry_cell_setting	triclinic
loop_
_symmetry_equiv_pos_as_xyz
  x,y,z
_cell_length_a	18.215407
_cell_length_b	19.805405
_cell_length_c	18.215399
_cell_angle_alpha	90.027923
_cell_angle_beta	90.016899
_cell_angle_gamma	90.024185
loop_
_atom_site_label
_atom_site_type_symbol
_atom_site_fract_x
_atom_site_fract_y
_atom_site_fract_z
Zn1	Zn	1.125062	-0.269516	0.416058
Zn2	Zn	1.625062	0.230484	0.916058
Zn3	Zn	1.124967	-0.382707	0.292992
Zn4	Zn	1.624967	0.117293	0.792992
Zn5	Zn	1.001995	-0.269532	0.293012
Zn6	Zn	1.501995	0.230468	0.793012
Zn7	Zn	1.001957	-0.382663	0.416023
Zn8	Zn	1.501957	0.117337	0.916023
O9	O	1.063495	-0.326105	0.354521
O10	O	1.563495	0.173895	0.854521
O11	O	1.228034	-0.284542	0.399740
O12	O	1.728034	0.215458	0.899740
O13	O	1.108630	-0.367719	0.190010
O14	O	1.608630	0.132281	0.690010
O15	O	1.018376	-0.174814	0.309357
O16	O	1.518376	0.325186	0.809357
O17	O	1.227964	-0.367703	0.309323
O18	O	1.727964	0.132297	0.809323
O19	O	1.108793	-0.174802	0.399759
O20	O	1.608793	0.325198	0.899759
O21	O	1.018283	-0.284570	0.190025
O22	O	1.518283	0.215430	0.690025
O23	O	0.899006	-0.284528	0.309323
O24	O	1.399006	0.215472	0.809323
O25	O	1.018311	-0.367629	0.519012
O26	O	1.518311	0.132371	1.019012
O27	O	0.898978	-0.367645	0.399699
O28	O	1.398978	0.132355	0.899699
O29	O	1.108756	-0.284500	0.519038
O30	O	1.608756	0.215500	1.019038
O31	O	1.108593	-0.477418	0.309289
O32	O	1.608593	0.022582	0.809289
O33	O	1.018219	-0.477386	0.399680
O34	O	1.518219	0.022614	0.899680
C35	C	0.872289	-0.326084	0.354510
C36	C	1.372289	0.173916	0.854510
C37	C	0.790490	-0.326091	0.354523
C38	C	1.290490	0.173909	0.854523
C39	C	0.525437	-0.369455	0.401516
C40	C	1.025437	0.130545	0.901516
C41	C	0.602296	-0.369449	0.401512
C42	C	1.102296	0.130551	0.901512
C43	C	0.602295	-0.282770	0.307540
C44	C	1.102295	0.217230	0.807540
C45	C	0.525437	-0.282779	0.307541
C46	C	1.025437	0.217221	0.807541
C47	C	0.487011	-0.326121	0.354533
C48	C	0.987011	0.173879	0.854533
C49	C	0.640727	-0.326105	0.354529
C50	C	1.140727	0.173895	0.854529
C51	C	0.724060	-0.326099	0.354524
C52	C	1.224060	0.173901	0.854524
C53	C	0.403672	-0.326129	0.354536
C54	C	0.903672	0.173871	0.854536
C55	C	1.063412	-0.501961	0.354495
C56	C	1.563412	-0.001961	0.854495
C57	C	1.063443	-0.577193	0.354508
C58	C	1.563443	-0.077193	0.854508
C59	C	1.110495	-0.612472	0.401617
C60	C	1.610495	-0.112472	0.901617
C61	C	1.110522	-0.683161	0.401631
C62	C	1.610522	-0.183161	0.901631
C63	C	1.063499	-0.718568	0.354531
C64	C	1.563499	-0.218568	0.854531
C65	C	1.016442	-0.683284	0.307420
C66	C	1.516442	-0.183284	0.807420
C67	C	1.016412	-0.612596	0.307411
C68	C	1.516412	-0.112596	0.807411
C69	C	1.016560	-0.968357	0.307458
C70	C	1.516560	-0.468357	0.807458
C71	C	1.016595	-1.039049	0.307469
C72	C	1.516595	-0.539049	0.807469
C73	C	1.110670	-1.038921	0.401678
C74	C	1.610670	-0.538921	0.901678
C75	C	1.110640	-0.968234	0.401668
C76	C	1.610640	-0.468234	0.901668
C77	C	1.063580	-0.932956	0.354560
C78	C	1.563580	-0.432956	0.854560
C79	C	1.063551	-0.856307	0.354547
C80	C	1.563551	-0.356307	0.854547
C81	C	1.063532	-0.795215	0.354540
C82	C	1.563532	-0.295215	0.854540
C83	C	1.255448	-0.326126	0.354533
C84	C	1.755448	0.173874	0.854533
C85	C	1.337247	-0.326135	0.354538
C86	C	1.837247	0.173865	0.854538
C87	C	1.063540	-0.326058	0.546474
C88	C	1.563540	0.173942	1.046474
C89	C	1.063559	-0.326038	0.628273
C90	C	1.563559	0.173962	1.128273
C91	C	1.063600	-0.149562	0.354564
C92	C	1.563600	0.350438	0.854564
C93	C	1.063644	-0.074330	0.354583
C94	C	1.563644	0.425670	0.854583
C95	C	1.063493	-0.326102	0.163315
C96	C	1.563493	0.173898	0.663315
C97	C	1.063617	-0.325932	0.081517
C98	C	1.563617	0.174068	0.581517
C99	C	1.110671	-0.282712	0.816482
C100	C	1.610671	0.217288	1.316482
C101	C	1.110680	-0.282693	0.893341
C102	C	1.610680	0.217307	1.393341
C103	C	1.016500	-0.369259	0.893303
C104	C	1.516500	0.130741	1.393303
C105	C	1.016488	-0.369275	0.816445
C106	C	1.516488	0.130725	1.316445
C107	C	1.063578	-0.326003	0.778037
C108	C	1.563578	0.173997	1.278037
C109	C	1.063598	-0.325967	0.931753
C110	C	1.563598	0.174033	1.431753
C111	C	1.063607	-0.325946	1.015087
C112	C	1.563607	0.174054	1.515087
C113	C	1.063568	-0.326023	0.694698
C114	C	1.563568	0.173977	1.194698
H115	H	1.148842	-0.711882	0.439986
H116	H	1.648842	-0.211882	0.939986
O117	O	0.970728	-0.717751	0.261769
O118	O	1.470728	-0.217751	0.761769
C119	C	0.923177	-0.758641	0.303631
C120	C	1.423177	-0.258641	0.803631
H121	H	0.949105	-0.769181	0.359427
H122	H	1.449105	-0.269181	0.859427
H123	H	0.913356	-0.808373	0.273652
H124	H	1.413356	-0.308373	0.773652
H125	H	0.868622	-0.731437	0.311665
H126	H	1.368622	-0.231437	0.811665
H127	H	1.149027	-0.247440	0.924639
H128	H	1.649027	0.252560	1.424639
O129	O	1.156239	-0.933871	0.447527
O130	O	1.656239	-0.433871	0.947527
C131	C	1.140130	-0.951128	0.520862
C132	C	1.640130	-0.451128	1.020862
H133	H	1.081344	-0.970603	0.524526
H134	H	1.581344	-0.470603	1.024526
H135	H	1.146426	-0.904616	0.557219
H136	H	1.646426	-0.404616	1.057219
H137	H	1.179592	-0.992117	0.540140
H138	H	1.679592	-0.492117	1.040140
O139	O	0.970832	-0.411273	0.930728
O140	O	1.470832	0.088727	1.430728
C141	C	0.980927	-0.401967	1.006809
C142	C	1.480927	0.098033	1.506809
H143	H	1.037736	-0.379802	1.017320
H144	H	1.537736	0.120198	1.517320
H145	H	0.975912	-0.452659	1.036003
H146	H	1.475912	0.047341	1.536003
H147	H	0.937299	-0.365914	1.028624
H148	H	1.437299	0.134086	1.528624
H149	H	0.978133	-0.404526	0.785143
H150	H	1.478133	0.095474	1.285143
H151	H	0.633591	-0.247482	0.269282
H152	H	1.133591	0.252518	0.769282
H153	H	1.148986	-1.067653	0.440038
H154	H	1.648986	-0.567653	0.940038
O155	O	0.970841	-1.073340	0.261694
O156	O	1.470841	-0.573340	0.761694
C157	C	0.929309	-1.027046	0.220101
C158	C	1.429309	-0.527046	0.720101
H159	H	0.926721	-0.976642	0.250234
H160	H	1.426721	-0.476642	0.750234
H161	H	0.871340	-1.047522	0.212210
H162	H	1.371340	-0.547522	0.712210
H163	H	0.956281	-1.019539	0.164228
H164	H	1.456281	-0.519539	0.664228
H165	H	1.148790	-0.583648	0.439968
H166	H	1.648790	-0.083648	0.939968
O167	O	0.488223	-0.411620	0.447184
O168	O	0.988223	0.088380	0.947184
C169	C	0.538624	-0.449852	0.488665
C170	C	1.038624	0.050148	0.988665
H171	H	0.593400	-0.452158	0.458514
H172	H	1.093400	0.047842	0.958514
H173	H	0.516403	-0.503192	0.496421
H174	H	1.016403	-0.003192	0.996421
H175	H	0.546827	-0.425125	0.544601
H176	H	1.046827	0.074875	1.044601
O177	O	1.156328	-0.240577	0.779206
O178	O	1.656328	0.259423	1.279206
C179	C	1.140292	-0.173115	0.798020
C180	C	1.640292	0.326885	1.298020
H181	H	1.081504	-0.169693	0.819139
H182	H	1.581504	0.330307	1.319139
H183	H	1.146641	-0.139684	0.747488
H184	H	1.646641	0.360316	1.247488
H185	H	1.179762	-0.155416	0.842646
H186	H	1.679762	0.344584	1.342646
O187	O	0.639704	-0.411447	0.447191
O188	O	1.139704	0.088553	0.947191
C189	C	0.684175	-0.372957	0.494805
C190	C	1.184175	0.127043	0.994805
H191	H	0.695700	-0.321635	0.468941
H192	H	1.195700	0.178365	0.968941
H193	H	0.738214	-0.400533	0.504619
H194	H	1.238214	0.099467	1.004619
H195	H	0.654573	-0.365581	0.549355
H196	H	1.154573	0.134419	1.049355
O197	O	0.487991	-0.240758	0.261909
O198	O	0.987991	0.259242	0.761909
C199	C	0.411915	-0.250059	0.271991
C200	C	0.911915	0.249941	0.771991
H201	H	0.401418	-0.302315	0.296016
H202	H	0.901418	0.197685	0.796016
H203	H	0.382696	-0.245434	0.216870
H204	H	0.882696	0.254566	0.716870
H205	H	0.390116	-0.209948	0.311237
H206	H	0.890116	0.290052	0.811237
H207	H	0.978244	-0.939639	0.269099
H208	H	1.478244	-0.439639	0.769099
O209	O	0.970681	-0.578428	0.261581
O210	O	1.470681	-0.078428	0.761581
C211	C	0.929169	-0.624835	0.220025
C212	C	1.429169	-0.124835	0.720025
H213	H	0.959337	-0.675202	0.217504
H214	H	1.459337	-0.175202	0.717504
H215	H	0.921337	-0.604448	0.162034
H216	H	1.421337	-0.104448	0.662034
H217	H	0.873267	-0.632383	0.246932
H218	H	1.373267	-0.132383	0.746932
