data_functionalizedCrystal
_audit_creation_method	'MofGen! by Chris Wilmer'
_symmetry_space_group_name_H-M	'P1'
_symmetry_Int_Tables_number	1
_symmetry_cell_setting	triclinic
loop_
_symmetry_equiv_pos_as_xyz
  x,y,z
_cell_length_a	12.759401
_cell_length_b	12.759400
_cell_length_c	12.759393
_cell_angle_alpha	89.968231
_cell_angle_beta	89.981503
_cell_angle_gamma	90.014916
loop_
_atom_site_label
_atom_site_type_symbol
_atom_site_fract_x
_atom_site_fract_y
_atom_site_fract_z
Zn1	Zn	1.606244	-0.418196	-0.594013
Zn2	Zn	1.606142	-0.593915	-0.418333
Zn3	Zn	1.430549	-0.418252	-0.418349
Zn4	Zn	1.430535	-0.593834	-0.593971
O5	O	1.518367	-0.506049	-0.506166
O6	O	1.753251	-0.441516	-0.570719
O7	O	1.582812	-0.570670	-0.271314
O8	O	1.453905	-0.271223	-0.441675
O9	O	1.753176	-0.570616	-0.441648
O10	O	1.582987	-0.271182	-0.570735
O11	O	1.453805	-0.441611	-0.271325
O12	O	1.283526	-0.441532	-0.441634
O13	O	1.453879	-0.570478	-0.740998
O14	O	1.283516	-0.570532	-0.570663
O15	O	1.582972	-0.441437	-0.741028
O16	O	1.582798	-0.740925	-0.441607
O17	O	1.453780	-0.740866	-0.570648
C18	C	1.245400	-0.506030	-0.506147
C19	C	1.128623	-0.506047	-0.506163
C20	C	1.073726	-0.573162	-0.438864
C21	C	0.964002	-0.573180	-0.438882
C22	C	0.964082	-0.438960	-0.573502
C23	C	1.073805	-0.438948	-0.573488
C24	C	1.128545	-0.640262	-0.371539
C25	C	1.073647	-0.707381	-0.304234
C26	C	0.963923	-0.707399	-0.304252
C27	C	0.909097	-0.640298	-0.371576
C28	C	1.518305	-0.779017	-0.506144
C29	C	1.518375	-0.895793	-0.506170
C30	C	1.585629	-0.950651	-0.439053
C31	C	1.585693	-1.060375	-0.439085
C32	C	1.451240	-1.060373	-0.573355
C33	C	1.451182	-0.950651	-0.573327
C34	C	1.652821	-0.895793	-0.371896
C35	C	1.720080	-0.950652	-0.304773
C36	C	1.720144	-1.060376	-0.304805
C37	C	1.652950	-1.115241	-0.371961
C38	C	1.792401	-0.506069	-0.506187
C39	C	1.909177	-0.506077	-0.506195
C40	C	1.518436	-0.505942	-0.780200
C41	C	1.518465	-0.505897	-0.896976
C42	C	1.518459	-0.232016	-0.506211
C43	C	1.518497	-0.115239	-0.506230
C44	C	1.451319	-0.438683	-0.951851
C45	C	1.451351	-0.438652	-1.061575
C46	C	1.585683	-0.573051	-1.061541
C47	C	1.585645	-0.573086	-0.951819
C48	C	1.384139	-0.371493	-0.897008
C49	C	1.316989	-0.304273	-0.951882
C50	C	1.317021	-0.304242	-1.061607
C51	C	1.384203	-0.371431	-1.116457
C52	C	1.518360	-0.506080	-0.233199
C53	C	1.518534	-0.505829	-0.116423
H54	H	1.118294	-0.762020	-0.249429
H55	H	1.774793	-0.905974	-0.250102
C56	C	1.384232	-0.371394	-1.237157
N57	N	1.384257	-0.371361	-1.328067
C58	C	1.249243	-0.640248	-0.371514
N59	N	1.340154	-0.640237	-0.371494
C60	C	0.903539	-0.781230	-0.230215
N61	N	0.858060	-0.836837	-0.174442
C62	C	1.243155	-0.230300	-1.121965
N63	N	1.187522	-0.174599	-1.167425
C64	C	1.134195	-0.365116	-0.647519
N65	N	1.179682	-0.309505	-0.703282
H66	H	1.774917	-1.105038	-0.250158
C67	C	0.788396	-0.640326	-0.371596
N68	N	0.697486	-0.640345	-0.371607
C69	C	1.659435	-0.647095	-1.121880
N70	N	1.714936	-0.702917	-1.167327
H71	H	1.653016	-1.204586	-0.371990
H72	H	1.396418	-0.905985	-0.627981
H73	H	0.919434	-0.384328	-0.628312
C74	C	1.659501	-0.647032	-0.891454
N75	N	1.715127	-0.702735	-0.845987
C76	C	1.243095	-0.230368	-0.891546
N77	N	1.187439	-0.174698	-0.846101
H78	H	1.396533	-1.105054	-0.628029
H79	H	1.652773	-0.806450	-0.371859
C80	C	1.384096	-0.371523	-0.776310
N81	N	1.384065	-0.371546	-0.685399
