data_functionalizedCrystal
_audit_creation_method	'MofGen! by Chris Wilmer'
_symmetry_space_group_name_H-M	'P1'
_symmetry_Int_Tables_number	1
_symmetry_cell_setting	triclinic
loop_
_symmetry_equiv_pos_as_xyz
  x,y,z
_cell_length_a	6.817900
_cell_length_b	15.866870
_cell_length_c	16.015572
_cell_angle_alpha	95.305972
_cell_angle_beta	104.485554
_cell_angle_gamma	102.655915
loop_
_atom_site_label
_atom_site_type_symbol
_atom_site_fract_x
_atom_site_fract_y
_atom_site_fract_z
V1	V	-3.996844	-0.034800	-0.280476
O2	O	-3.966447	0.088700	-0.236015
O3	O	-3.966340	-0.152703	-0.316185
O4	O	-3.927287	0.003921	-0.385636
O5	O	-4.005770	-0.069009	-0.166083
V6	V	-4.480895	-0.024540	-0.262223
O7	O	-4.256945	-0.057306	-0.320516
O8	O	-4.670991	-0.002034	-0.222183
O9	O	-4.288193	0.093362	-0.226515
O10	O	-4.628689	-0.148040	-0.306685
O11	O	-4.589366	0.009668	-0.376616
O12	O	-4.327246	-0.063262	-0.157064
C13	C	-3.816378	-0.182638	-0.321469
C14	C	-3.872583	-0.278779	-0.351366
C15	C	-3.917279	-0.657597	-0.074048
C16	C	-3.970096	-0.747931	-0.102166
C17	C	-4.026156	-0.722870	-0.252428
C18	C	-3.973333	-0.632531	-0.224321
C19	C	-3.918899	-0.599902	-0.135131
C20	C	-3.974953	-0.574837	-0.285404
C21	C	-3.922145	-0.484506	-0.257300
C22	C	-3.867716	-0.451870	-0.168113
C23	C	-3.866091	-0.509571	-0.107027
C24	C	-4.029402	-0.607468	-0.374595
C25	C	-4.031022	-0.549773	-0.435678
C26	C	-3.978199	-0.459441	-0.407574
C27	C	-3.923770	-0.426804	-0.318387
C28	C	-3.979824	-0.401739	-0.468660
C29	C	-3.927016	-0.311408	-0.440556
C30	C	-3.870962	-0.336474	-0.290283
C31	C	-3.766562	0.017152	-0.410059
C32	C	-3.791093	0.048031	-0.496274
C33	C	-4.121327	-0.226050	-0.961199
C34	C	-4.144378	-0.197007	-1.042199
C35	C	-4.044584	-0.046745	-0.969635
C36	C	-4.021514	-0.075776	-0.888628
C37	C	-4.059892	-0.165429	-0.884418
C38	C	-3.960078	-0.015155	-0.811846
C39	C	-3.937021	-0.044184	-0.730846
C40	C	-3.975400	-0.133834	-0.726628
C41	C	-4.036835	-0.194459	-0.803418
C42	C	-3.921715	0.074498	-0.816058
C43	C	-3.860280	0.135118	-0.739276
C44	C	-3.837207	0.106090	-0.658274
C45	C	-3.875586	0.016440	-0.654056
C46	C	-3.775772	0.166714	-0.581484
C47	C	-3.752715	0.137685	-0.500484
C48	C	-3.852529	-0.012589	-0.573056
C49	C	-4.101498	0.123292	-0.221230
C50	C	-4.024530	0.219434	-0.191339
C51	C	-4.151314	-0.076497	-0.132637
C52	C	-4.106021	-0.107372	-0.046420
H53	H	-3.821734	-0.483003	-0.034398
H54	H	-3.956629	-0.157468	-0.660671
H55	H	-3.702689	0.187049	-0.437965
H56	H	-4.194399	-0.246378	-1.104718
O57	O	-4.079332	-0.754680	-0.339048
C58	C	-4.344510	-0.844968	-0.463025
C59	C	-4.284549	-0.809025	-0.364917
H60	H	-4.510445	-0.888898	-0.483974
H61	H	-4.231032	-0.884356	-0.475912
H62	H	-4.336478	-0.788198	-0.501834
H63	H	-4.292597	-0.865741	-0.326044
H64	H	-4.398034	-0.769610	-0.352097
O65	O	-4.080329	-0.695216	-0.401847
C66	C	-3.967790	-0.828838	-0.395904
C67	C	-3.909827	-0.729469	-0.364990
H68	H	-3.829989	-0.856565	-0.366103
H69	H	-4.006880	-0.842296	-0.470138
H70	H	-4.109497	-0.861230	-0.374309
H71	H	-3.768087	-0.697010	-0.386523
H72	H	-3.870869	-0.716075	-0.290758
H73	H	-4.068059	-0.267463	-0.799991
O74	O	-3.738528	0.253829	-0.585429
C75	C	-3.637017	0.399819	-0.504900
C76	C	-3.679165	0.301186	-0.500311
H77	H	-3.588971	0.438137	-0.436090
H78	H	-3.785036	0.414958	-0.545044
H79	H	-3.505689	0.419383	-0.536970
H80	H	-3.810423	0.281554	-0.468222
H81	H	-3.531044	0.286101	-0.460196
H82	H	-3.940461	0.098131	-0.882015
H83	H	-4.013349	0.026251	-0.973076
H84	H	-3.824726	-0.378316	-0.145233
O85	O	-3.823019	0.222233	-0.743218
C86	C	-3.721475	0.368222	-0.662684
C87	C	-3.763652	0.269589	-0.658099
H88	H	-3.673425	0.406538	-0.593873
H89	H	-3.869482	0.383369	-0.702828
H90	H	-3.590140	0.387780	-0.694752
H91	H	-3.894917	0.249961	-0.626013
H92	H	-3.615543	0.254495	-0.617984
O93	O	-3.818460	-0.304812	-0.203644
C94	C	-3.927350	-0.301510	-0.071621
C95	C	-3.987079	-0.337417	-0.169729
H96	H	-4.063628	-0.327871	-0.044168
H97	H	-3.890009	-0.227038	-0.061992
H98	H	-3.784110	-0.323087	-0.036058
H99	H	-4.130353	-0.315906	-0.205356
H100	H	-4.024287	-0.411885	-0.179294
O101	O	-4.083940	-0.581329	-0.522349
C102	C	-4.133836	-0.546930	-0.668430
C103	C	-4.073918	-0.511080	-0.570302
H104	H	-4.125711	-0.490152	-0.707226
H105	H	-4.299741	-0.590893	-0.689451
H106	H	-4.020259	-0.586294	-0.681251
H107	H	-4.187352	-0.471678	-0.557407
H108	H	-3.907965	-0.467164	-0.549330
O109	O	-4.158011	-0.313101	-0.956934
C110	C	-4.016421	-0.430067	-0.902224
C111	C	-3.974716	-0.331491	-0.907080
H112	H	-3.868270	-0.444963	-0.861905
H113	H	-4.064131	-0.468579	-0.970937
H114	H	-4.147811	-0.449627	-0.870186
H115	H	-3.843298	-0.311850	-0.939081
H116	H	-3.927125	-0.293035	-0.838348
O117	O	-3.864622	-0.625788	0.012561
C118	C	-3.945527	-0.541267	0.126480
C119	C	-4.005353	-0.577223	0.028380
H120	H	-4.059302	-0.502010	0.139303
H121	H	-3.779727	-0.497208	0.147468
H122	H	-3.953338	-0.598025	0.165306
H123	H	-3.997666	-0.520521	-0.010514
H124	H	-4.171122	-0.621307	0.007460
H125	H	-3.968765	-0.794905	-0.052418
H126	H	-4.024171	-0.428320	-0.541280
H127	H	-3.928368	-0.264432	-0.490297
O128	O	-3.889094	-0.099668	-0.568940
C129	C	-3.793055	-0.233960	-0.600783
C130	C	-3.751790	-0.135382	-0.605601
H131	H	-3.682041	-0.262861	-0.630402
H132	H	-3.961748	-0.267862	-0.638664
H133	H	-3.765834	-0.244123	-0.529649
H134	H	-3.778893	-0.125139	-0.676707
H135	H	-3.583108	-0.101529	-0.567668
