data_functionalizedCrystal
_audit_creation_method	'MofGen! by Chris Wilmer'
_symmetry_space_group_name_H-M	'P1'
_symmetry_Int_Tables_number	1
_symmetry_cell_setting	triclinic
loop_
_symmetry_equiv_pos_as_xyz
  x,y,z
_cell_length_a	12.759401
_cell_length_b	18.050589
_cell_length_c	12.759393
_cell_angle_alpha	89.970454
_cell_angle_beta	89.979062
_cell_angle_gamma	90.029746
loop_
_atom_site_label
_atom_site_type_symbol
_atom_site_fract_x
_atom_site_fract_y
_atom_site_fract_z
Zn1	Zn	1.606168	-0.295593	-0.594027
Zn2	Zn	1.606017	-0.419801	-0.418350
Zn3	Zn	1.430466	-0.295633	-0.418362
Zn4	Zn	1.430417	-0.419749	-0.593987
O5	O	1.518267	-0.357694	-0.506182
O6	O	1.753169	-0.312075	-0.570735
O7	O	1.582688	-0.403368	-0.271331
O8	O	1.453857	-0.191703	-0.441686
O9	O	1.753058	-0.403330	-0.441666
O10	O	1.582944	-0.191674	-0.570746
O11	O	1.453711	-0.312142	-0.271339
O12	O	1.283439	-0.312092	-0.441648
O13	O	1.453773	-0.403241	-0.741014
O14	O	1.283402	-0.403280	-0.570679
O15	O	1.582896	-0.312025	-0.741043
O16	O	1.582640	-0.523719	-0.441627
O17	O	1.453627	-0.523681	-0.570667
C18	C	1.245300	-0.357685	-0.506161
C19	C	1.128523	-0.357699	-0.506177
C20	C	1.073670	-0.405253	-0.573257
C21	C	0.963946	-0.405256	-0.573278
C22	C	0.963938	-0.310149	-0.439129
C23	C	1.073660	-0.310143	-0.439114
C24	C	1.518140	-0.550646	-0.506164
C25	C	1.518182	-0.633192	-0.506192
C26	C	1.448094	-0.832649	-0.576339
C27	C	1.422478	-0.882097	-0.480470
C28	C	1.518285	-0.784322	-0.506206
C29	C	1.543953	-0.881956	-0.602085
C30	C	1.518383	-0.930307	-0.506227
C31	C	1.492619	-0.832683	-0.410286
C32	C	1.614139	-0.832538	-0.531966
C33	C	1.588559	-0.881964	-0.436031
C34	C	1.518226	-0.700224	-0.506194
C35	C	1.518442	-1.014404	-0.506228
C36	C	1.792300	-0.357704	-0.506203
C37	C	1.909077	-0.357708	-0.506212
C38	C	1.518346	-0.357623	-0.780215
C39	C	1.518379	-0.357592	-0.896992
C40	C	1.518423	-0.163989	-0.506222
C41	C	1.518489	-0.081443	-0.506239
C42	C	1.585619	-0.310088	-0.951871
C43	C	1.585637	-0.310056	-1.061595
C44	C	1.451172	-0.405039	-1.061552
C45	C	1.451150	-0.405067	-0.951829
C46	C	1.518249	-0.357712	-0.233214
C47	C	1.518419	-0.357533	-0.116438
H48	H	0.919255	-0.271432	-0.384527
C49	C	0.904201	-0.456807	-0.646068
C50	C	0.796368	-0.446621	-0.631754
C51	C	0.741299	-0.494092	-0.698803
H52	H	0.922015	-0.506722	-0.630632
H53	H	0.922169	-0.445992	-0.716705
H54	H	0.778407	-0.457442	-0.561133
H55	H	0.778522	-0.396717	-0.647197
H56	H	0.759267	-0.483276	-0.769440
H57	H	0.759122	-0.544003	-0.683361
H58	H	0.668129	-0.487182	-0.689107
C59	C	1.378314	-0.456690	-0.892103
C60	C	1.437749	-0.504294	-0.829088
C61	C	1.370689	-0.551848	-0.774043
H62	H	1.338258	-0.485035	-0.940354
H63	H	1.332571	-0.428307	-0.849240
H64	H	1.483474	-0.532674	-0.871948
H65	H	1.477802	-0.475970	-0.780818
H66	H	1.324946	-0.523465	-0.731180
H67	H	1.330637	-0.580187	-0.822301
H68	H	1.411005	-0.584148	-0.731274
C69	C	1.658725	-0.258662	-0.892274
C70	C	1.726039	-0.300727	-0.829302
C71	C	1.793405	-0.253376	-0.774400
H72	H	1.618671	-0.226301	-0.849388
H73	H	1.698833	-0.230377	-0.940642
H74	H	1.685936	-0.329000	-0.780940
H75	H	1.766117	-0.333087	-0.872162
H76	H	1.833512	-0.225090	-0.822767
H77	H	1.753342	-0.221016	-0.731519
H78	H	1.839092	-0.281910	-0.731674
C79	C	1.667897	-0.910707	-0.357043
C80	C	1.743474	-0.953287	-0.408965
C81	C	1.816577	-0.979773	-0.336235
H82	H	1.633179	-0.940433	-0.306314
H83	H	1.700956	-0.870058	-0.323226
H84	H	1.710419	-0.993931	-0.442765
H85	H	1.778219	-0.923577	-0.459688
H86	H	1.849635	-0.939124	-0.302418
H87	H	1.781849	-1.009496	-0.285511
H88	H	1.867869	-1.008661	-0.371455
C89	C	1.722173	-0.803447	-0.560833
C90	C	1.761578	-0.760835	-0.478071
C91	C	1.861103	-0.734033	-0.504632
H92	H	1.717242	-0.773674	-0.622038
H93	H	1.767896	-0.843950	-0.573768
H94	H	1.715866	-0.720338	-0.465148
H95	H	1.766535	-0.790593	-0.416858
H96	H	1.906826	-0.774536	-0.517567
H97	H	1.856161	-0.704263	-0.565838
H98	H	1.887855	-0.705123	-0.448479
H99	H	1.640388	-0.271372	-1.106272
H100	H	1.396439	-0.443693	-1.106214
C101	C	1.133047	-0.456905	-0.646190
C102	C	1.061518	-0.498536	-0.704962
C103	C	1.116174	-0.546117	-0.772173
H104	H	1.175814	-0.489295	-0.606038
H105	H	1.175867	-0.428547	-0.692086
H106	H	1.018716	-0.526891	-0.659072
H107	H	1.018749	-0.466166	-0.745136
H108	H	1.158994	-0.517759	-0.818069
H109	H	1.158939	-0.578502	-0.732012
H110	H	1.067651	-0.574364	-0.812064
C111	C	1.133034	-0.258482	-0.366163
C112	C	1.061506	-0.216854	-0.307409
C113	C	1.116163	-0.169265	-0.240192
H114	H	1.175881	-0.226091	-0.406311
H115	H	1.175775	-0.286834	-0.320256
H116	H	1.018784	-0.188504	-0.353309
H117	H	1.018657	-0.249225	-0.267239
H118	H	1.158903	-0.197617	-0.194286
H119	H	1.159007	-0.136879	-0.280349
H120	H	1.067640	-0.141019	-0.200313
H121	H	1.388648	-0.810995	-0.635565
H122	H	1.470854	-0.811128	-0.329188
C123	C	1.314462	-0.911230	-0.451590
C124	C	1.275907	-0.954973	-0.533566
C125	C	1.176410	-0.981827	-0.507001
H126	H	1.268344	-0.870770	-0.439920
H127	H	1.319247	-0.940246	-0.389635
H128	H	1.271115	-0.925958	-0.595503
H129	H	1.321996	-0.995444	-0.545247
H130	H	1.181195	-1.010844	-0.445046
H131	H	1.130301	-0.941363	-0.495331
H132	H	1.150242	-1.011516	-0.562613
C133	C	1.572712	-0.910715	-0.710281
C134	C	1.498927	-0.885712	-0.783369
C135	C	1.525384	-0.912178	-0.883053
H136	H	1.573150	-0.963335	-0.709501
H137	H	1.640272	-0.892995	-0.729110
H138	H	1.431384	-0.903435	-0.764545
H139	H	1.498478	-0.833095	-0.784182
H140	H	1.592944	-0.894458	-0.901882
H141	H	1.525822	-0.964797	-0.882262
H142	H	1.475331	-0.895211	-0.932656
