data_functionalizedCrystal
_audit_creation_method	'MofGen! by Chris Wilmer'
_symmetry_space_group_name_H-M	'P1'
_symmetry_Int_Tables_number	1
_symmetry_cell_setting	triclinic
loop_
_symmetry_equiv_pos_as_xyz
  x,y,z
_cell_length_a	18.215407
_cell_length_b	14.908178
_cell_length_c	18.215399
_cell_angle_alpha	86.674478
_cell_angle_beta	89.983101
_cell_angle_gamma	93.311509
loop_
_atom_site_label
_atom_site_type_symbol
_atom_site_fract_x
_atom_site_fract_y
_atom_site_fract_z
Zn1	Zn	1.108197	-0.359256	-0.399140
Zn2	Zn	1.441530	-0.025923	-0.065807
Zn3	Zn	1.774863	0.307410	0.267527
Zn4	Zn	1.101018	-0.510136	-0.268968
Zn5	Zn	1.434351	-0.176803	0.064365
Zn6	Zn	1.767685	0.156531	0.397698
Zn7	Zn	0.985128	-0.359278	-0.276093
Zn8	Zn	1.318462	-0.025944	0.057241
Zn9	Zn	1.651795	0.307389	0.390574
Zn10	Zn	0.978011	-0.510078	-0.392002
Zn11	Zn	1.311344	-0.176745	-0.058669
Zn12	Zn	1.644677	0.156589	0.274664
O13	O	1.043088	-0.434687	-0.334051
O14	O	1.376422	-0.101354	-0.000717
O15	O	1.709755	0.231980	0.332616
O16	O	1.210228	-0.379286	-0.381878
O17	O	1.543561	-0.045953	-0.048545
O18	O	1.876895	0.287381	0.284789
O19	O	1.085619	-0.490158	-0.166928
O20	O	1.418953	-0.156824	0.166406
O21	O	1.752286	0.176509	0.499739
O22	O	1.007437	-0.233021	-0.298384
O23	O	1.340770	0.100313	0.034950
O24	O	1.674103	0.433646	0.368283
O25	O	1.204954	-0.490137	-0.286242
O26	O	1.538287	-0.156803	0.047092
O27	O	1.871620	0.176530	0.380425
O28	O	1.097855	-0.233005	-0.388786
O29	O	1.431188	0.100328	-0.055453
O30	O	1.764521	0.433662	0.277881
O31	O	1.000476	-0.379323	-0.172162
O32	O	1.333809	-0.045990	0.161172
O33	O	1.667142	0.287344	0.494505
O34	O	0.881201	-0.379267	-0.291463
O35	O	1.214534	-0.045933	0.041871
O36	O	1.547867	0.287400	0.375204
O37	O	0.995306	-0.490038	-0.495935
O38	O	1.328639	-0.156704	-0.162602
O39	O	1.661972	0.176629	0.170732
O40	O	0.875971	-0.490059	-0.376621
O41	O	1.209305	-0.156725	-0.043288
O42	O	1.542638	0.176608	0.290046
O43	O	1.090953	-0.379230	-0.501179
O44	O	1.424286	-0.045896	-0.167846
O45	O	1.757620	0.287437	0.165488
O46	O	1.078718	-0.636383	-0.279320
O47	O	1.412051	-0.303049	0.054013
O48	O	1.745384	0.030284	0.387346
O49	O	0.988345	-0.636340	-0.369713
O50	O	1.321678	-0.303007	-0.036380
O51	O	1.655011	0.030327	0.296954
C52	C	0.851883	-0.434659	-0.334041
C53	C	1.185217	-0.101326	-0.000707
C54	C	1.518550	0.232007	0.332626
C55	C	0.770084	-0.434669	-0.334053
C56	C	1.103417	-0.101336	-0.000720
C57	C	1.436751	0.231997	0.332614
C58	C	0.502318	-0.492471	-0.378324
C59	C	0.835651	-0.159138	-0.044990
C60	C	1.168984	0.174195	0.288343
C61	C	0.579177	-0.492464	-0.378321
C62	C	0.912510	-0.159130	-0.044987
C63	C	1.245843	0.174203	0.288346
C64	C	0.584600	-0.376923	-0.289790
C65	C	0.917933	-0.043590	0.043543
C66	C	1.251266	0.289744	0.376877
C67	C	0.507742	-0.376936	-0.289790
C68	C	0.841075	-0.043603	0.043544
C69	C	1.174408	0.289731	0.376877
C70	C	0.466603	-0.434709	-0.334061
C71	C	0.799936	-0.101375	-0.000727
C72	C	1.133269	0.231958	0.332606
C73	C	0.620320	-0.434688	-0.334058
C74	C	0.953653	-0.101355	-0.000724
C75	C	1.286986	0.231979	0.332609
C76	C	0.703654	-0.434679	-0.334054
C77	C	1.036987	-0.101346	-0.000721
C78	C	1.370320	0.231987	0.332613
C79	C	0.383263	-0.434719	-0.334064
C80	C	0.716597	-0.101386	-0.000730
C81	C	1.049930	0.231948	0.332603
C82	C	1.032000	-0.669097	-0.322985
C83	C	1.365333	-0.335764	0.010348
C84	C	1.698667	-0.002431	0.343682
C85	C	1.027323	-0.769379	-0.318276
C86	C	1.360657	-0.436046	0.015058
C87	C	1.693990	-0.102713	0.348391
C88	C	1.112617	-0.957653	-0.403663
C89	C	1.445950	-0.624320	-0.070330
C90	C	1.779283	-0.290986	0.263003
C91	C	1.108225	-1.051877	-0.399241
C92	C	1.441559	-0.718543	-0.065908
C93	C	1.774892	-0.385210	0.267426
C94	C	1.014146	-1.052052	-0.305013
C95	C	1.347480	-0.718719	0.028320
C96	C	1.680813	-0.385385	0.361654
C97	C	1.018538	-0.957828	-0.309435
C98	C	1.351871	-0.624495	0.023898
C99	C	1.685204	-0.291162	0.357231
C100	C	1.067775	-0.910632	-0.358761
C101	C	1.401109	-0.577299	-0.025428
C102	C	1.734442	-0.243965	0.307905
C103	C	1.072170	-0.816407	-0.363180
C104	C	1.405503	-0.483073	-0.029846
C105	C	1.738837	-0.149740	0.303487
C106	C	0.978087	-0.816584	-0.268956
C107	C	1.311421	-0.483251	0.064378
C108	C	1.644754	-0.149917	0.397711
C109	C	0.973696	-0.910808	-0.264533
C110	C	1.307029	-0.577474	0.068800
C111	C	1.640363	-0.244141	0.402133
C112	C	1.235040	-0.434715	-0.334061
C113	C	1.568373	-0.101382	-0.000728
C114	C	1.901707	0.231951	0.332605
C115	C	1.316838	-0.434728	-0.334066
C116	C	1.650172	-0.101394	-0.000732
C117	C	1.983505	0.231939	0.332601
C118	C	1.043136	-0.434625	-0.526007
C119	C	1.376470	-0.101291	-0.192673
C120	C	1.709803	0.232042	0.140660
C121	C	1.043157	-0.434598	-0.607807
C122	C	1.376490	-0.101265	-0.274474
C123	C	1.709823	0.232068	0.058860
C124	C	1.054240	-0.199361	-0.345176
C125	C	1.387574	0.133972	-0.011842
C126	C	1.720907	0.467305	0.321491
C127	C	1.058993	-0.099079	-0.349917
C128	C	1.392326	0.234254	-0.016583
C129	C	1.725659	0.567587	0.316750
C130	C	1.092979	-0.376847	-0.798735
C131	C	1.426313	-0.043513	-0.465402
C132	C	1.759646	0.289820	-0.132069
C133	C	1.092989	-0.376820	-0.875595
C134	C	1.426323	-0.043487	-0.542262
C135	C	1.759656	0.289846	-0.208929
C136	C	0.993392	-0.492211	-0.870123
C137	C	1.326726	-0.158877	-0.536790
C138	C	1.660059	0.174456	-0.203456
C139	C	0.993379	-0.492232	-0.793265
C140	C	1.326713	-0.158898	-0.459931
C141	C	1.660046	0.174435	-0.126598
C142	C	1.043177	-0.434551	-0.757573
C143	C	1.376510	-0.101218	-0.424239
C144	C	1.709844	0.232116	-0.090906
C145	C	1.043200	-0.434504	-0.911291
C146	C	1.376533	-0.101170	-0.577958
C147	C	1.709867	0.232163	-0.244624
C148	C	1.043210	-0.434476	-0.994626
C149	C	1.376544	-0.101142	-0.661293
C150	C	1.709877	0.232191	-0.327959
C151	C	1.043166	-0.434578	-0.674232
C152	C	1.376499	-0.101244	-0.340899
C153	C	1.709832	0.232089	-0.007566
C154	C	1.043086	-0.434684	-0.142845
C155	C	1.376420	-0.101351	0.190489
C156	C	1.709753	0.231983	0.523822
C157	C	1.043220	-0.434456	-0.061057
C158	C	1.376554	-0.101123	0.272276
C159	C	1.709887	0.232210	0.605610
H160	H	0.618104	-0.329885	-0.253747
H161	H	0.951437	0.003448	0.079586
H162	H	1.284771	0.336781	0.412920
H163	H	1.152713	-0.919225	-0.443822
H164	H	1.486047	-0.585892	-0.110488
H165	H	1.819380	-0.252558	0.222845
H166	H	0.478662	-0.329897	-0.253742
H167	H	0.811995	0.003436	0.079591
H168	H	1.145329	0.336769	0.412925
H169	H	1.112264	-0.777980	-0.403341
H170	H	1.445597	-0.444647	-0.070008
H171	H	1.778930	-0.111314	0.263325
H172	H	0.608252	-0.539501	-0.414363
H173	H	0.941585	-0.206167	-0.081030
H174	H	1.274919	0.127166	0.252304
H175	H	1.133526	-0.329877	-0.769677
H176	H	1.466859	0.003457	-0.436344
H177	H	1.800193	0.336790	-0.103011
H178	H	1.144736	-1.090157	-0.435809
H179	H	1.478070	-0.756824	-0.102475
H180	H	1.811403	-0.423491	0.230858
H181	H	0.974056	-1.090495	-0.264857
H182	H	1.307389	-0.757162	0.068476
H183	H	1.640723	-0.423829	0.401809
H184	H	0.952850	-0.539174	-0.899193
H185	H	1.286184	-0.205841	-0.565860
H186	H	1.619517	0.127493	-0.232526
H187	H	0.933606	-0.949248	-0.224375
H188	H	1.266940	-0.615914	0.108958
H189	H	1.600273	-0.282581	0.442291
H190	H	0.468824	-0.539514	-0.414372
H191	H	0.802158	-0.206181	-0.081039
H192	H	1.135491	0.127153	0.252295
H193	H	1.133542	-0.329830	-0.909107
H194	H	1.466876	0.003503	-0.575773
H195	H	1.800209	0.336837	-0.242440
H196	H	0.952819	-0.539221	-0.759749
H197	H	1.286152	-0.205887	-0.426416
H198	H	1.619486	0.127446	-0.093082
H199	H	0.941576	-0.778289	-0.232391
H200	H	1.274910	-0.444955	0.100942
H201	H	1.608243	-0.111622	0.434276
