data_functionalizedCrystal
_audit_creation_method	'MofGen! by Chris Wilmer'
_symmetry_space_group_name_H-M	'P1'
_symmetry_Int_Tables_number	1
_symmetry_cell_setting	triclinic
loop_
_symmetry_equiv_pos_as_xyz
  x,y,z
_cell_length_a	13.897448
_cell_length_b	12.759401
_cell_length_c	12.759393
_cell_angle_alpha	90.019676
_cell_angle_beta	90.032272
_cell_angle_gamma	90.018119
loop_
_atom_site_label
_atom_site_type_symbol
_atom_site_fract_x
_atom_site_fract_y
_atom_site_fract_z
Zn1	Zn	-0.383957	1.606244	0.593972
Zn2	Zn	-0.545284	1.606126	0.418286
Zn3	Zn	-0.384005	1.430543	0.418311
Zn4	Zn	-0.545213	1.430526	0.593928
O5	O	-0.464615	1.518360	0.506124
O6	O	-0.405367	1.753250	0.570675
O7	O	-0.523939	1.582793	0.271269
O8	O	-0.249017	1.453907	0.441641
O9	O	-0.523893	1.753163	0.441600
O10	O	-0.248982	1.582994	0.570699
O11	O	-0.405449	1.453793	0.271286
O12	O	-0.405381	1.283520	0.441598
O13	O	-0.523773	1.453878	0.740955
O14	O	-0.523819	1.283507	0.570623
O15	O	-0.405299	1.582977	0.740987
O16	O	-0.680256	1.582776	0.441557
O17	O	-0.680204	1.453763	0.570600
C18	C	-0.464598	1.245393	0.506109
C19	C	-0.464614	1.128616	0.506128
C20	C	-0.403010	1.073800	0.573441
C21	C	-0.403019	0.964076	0.573448
C22	C	-0.526247	0.963994	0.438826
C23	C	-0.526232	1.073716	0.438814
C24	C	-0.715229	1.518283	0.506094
C25	C	-0.822443	1.518347	0.506116
C26	C	-1.018738	1.518457	0.506182
C27	C	-0.909506	1.518393	0.506148
C28	C	-0.213022	1.518466	0.506178
C29	C	-0.105808	1.518511	0.506200
C30	C	-0.464522	1.518439	0.780158
C31	C	-0.464483	1.518472	0.896934
C32	C	-0.464632	1.792393	0.506140
C33	C	-0.464640	1.909170	0.506146
C34	C	-0.464638	1.518342	0.233157
C35	C	-0.464405	1.518512	0.116381
C36	C	-0.402784	1.585699	0.951815
C37	C	-0.402742	1.585717	1.061539
C38	C	-0.526107	1.451278	1.061492
C39	C	-0.526143	1.451255	0.951770
H40	H	-0.352853	0.919449	0.628259
H41	H	-0.576385	1.396503	0.907085
N42	N	-0.589178	0.907896	0.370077
N43	N	-0.589186	0.809931	0.370095
H44	H	-0.633633	0.770312	0.321541
H45	H	-0.576399	1.118348	0.383994
H46	H	-0.576311	1.396554	1.106153
H47	H	-0.352573	1.640429	0.907171
N48	N	-0.339706	1.654389	1.117582
N49	N	-0.284657	1.714391	1.068604
H50	H	-0.240133	1.762893	1.108182
H51	H	-0.352834	1.118496	0.628249
