data_functionalizedCrystal
_audit_creation_method	'MofGen! by Chris Wilmer'
_symmetry_space_group_name_H-M	'P1'
_symmetry_Int_Tables_number	1
_symmetry_cell_setting	triclinic
loop_
_symmetry_equiv_pos_as_xyz
  x,y,z
_cell_length_a	19.188930
_cell_length_b	17.666332
_cell_length_c	19.188930
_cell_angle_alpha	89.989658
_cell_angle_beta	96.855221
_cell_angle_gamma	90.023133
loop_
_atom_site_label
_atom_site_type_symbol
_atom_site_fract_x
_atom_site_fract_y
_atom_site_fract_z
O1	O	0.926150	0.063200	-0.087168
O2	O	0.722838	0.063149	-0.098902
O3	O	0.830361	0.063161	0.008621
O4	O	0.818627	0.063188	-0.194690
O5	O	0.830342	-0.062735	0.008624
O6	O	0.722819	-0.062747	-0.098899
O7	O	0.926131	-0.062697	-0.087164
Cu8	Cu	0.824473	-0.074217	-0.093031
Cu9	Cu	0.824496	0.074670	-0.093035
O10	O	0.818608	-0.062709	-0.194687
C11	C	0.696818	0.000194	-0.098520
C12	C	0.619313	0.000174	-0.097380
N13	N	0.824463	-0.178937	-0.093028
C14	C	0.574389	0.000194	-0.160470
C15	C	0.501566	0.000203	-0.159399
C16	C	0.473669	0.000206	-0.095233
C17	C	0.518603	0.000181	-0.032133
C18	C	0.591425	0.000166	-0.033207
N19	N	0.365695	0.043078	-0.046187
N20	N	0.296517	0.043095	-0.045171
C21	C	0.254260	0.000252	-0.091994
N22	N	0.283795	-0.042599	-0.139882
N23	N	0.352979	-0.042612	-0.140900
C24	C	0.394707	0.000222	-0.094062
C25	C	0.130372	0.000280	-0.153928
C26	C	0.057547	0.000283	-0.152853
C27	C	0.074586	0.000270	-0.025586
C28	C	0.147409	0.000258	-0.026662
C29	C	0.175298	0.000267	-0.090835
C30	C	0.866672	-0.218523	-0.135274
C31	C	0.866683	-0.297771	-0.135272
C32	C	0.824472	-0.337429	-0.093032
C33	C	0.782261	-0.297833	-0.050778
C34	C	0.782256	-0.218587	-0.050776
N35	N	0.763324	-0.461884	-0.091312
N36	N	0.763330	-0.537165	-0.091318
C37	C	0.824485	-0.576193	-0.093035
N38	N	0.885634	-0.537097	-0.094759
N39	N	0.885627	-0.461809	-0.094757
C40	C	0.824473	-0.423358	-0.093029
C41	C	0.866710	-0.701709	-0.135280
C42	C	0.866722	-0.780958	-0.135273
C43	C	0.782293	-0.781018	-0.050784
C44	C	0.782287	-0.701771	-0.050787
C45	C	0.824494	-0.662121	-0.093039
C46	C	0.952151	0.000260	-0.087546
C47	C	1.029656	0.000285	-0.088687
C48	C	0.829972	0.000211	0.034634
C49	C	0.828831	0.000204	0.112138
N50	N	0.824512	0.179390	-0.093032
C51	C	0.818997	0.000244	-0.220700
C52	C	0.820138	0.000255	-0.298204
C53	C	0.891922	0.000216	0.157062
C54	C	0.890850	0.000228	0.229886
C55	C	0.826684	0.000212	0.257782
C56	C	0.763585	0.000205	0.212849
C57	C	0.764658	0.000200	0.140026
N58	N	0.777630	-0.042645	0.365788
N59	N	0.776615	-0.042642	0.434967
C60	C	0.823446	0.000227	0.477191
N61	N	0.871341	0.043084	0.447624
N62	N	0.872359	0.043079	0.378440
C63	C	0.825513	0.000218	0.336745
C64	C	0.885379	0.000253	0.601079
C65	C	0.884305	0.000270	0.673904
C66	C	0.757038	0.000239	0.656865
C67	C	0.758114	0.000230	0.584042
C68	C	0.822287	0.000233	0.556154
H69	H	0.597091	0.000203	-0.212725
H70	H	0.935683	0.000284	0.710481
H71	H	0.464982	0.000217	-0.210776
H72	H	0.495885	0.000194	0.020111
N73	N	0.955305	0.000241	0.275775
N74	N	1.012595	0.000246	0.250866
H75	H	1.058117	0.000254	0.283273
H76	H	0.628003	0.000150	0.018171
N77	N	0.950920	0.000276	0.572575
N78	N	0.951871	0.000272	0.507555
H79	H	0.998159	0.000290	0.487424
H80	H	0.901055	-0.330008	-0.169675
N81	N	0.691499	0.000216	0.685363
N82	N	0.676695	-0.052852	0.724111
H83	H	0.630406	-0.052867	0.744241
H84	H	0.153080	0.000276	-0.206181
N85	N	0.693661	0.000215	0.538159
N86	N	0.636373	0.000204	0.563072
H87	H	0.590849	0.000195	0.530668
H88	H	0.020970	0.000295	-0.204232
H89	H	0.747883	-0.186356	-0.016374
H90	H	0.051874	0.000319	0.026659
H91	H	0.901099	-0.813188	-0.169672
H92	H	0.711340	0.000194	0.235567
N93	N	0.700203	0.000192	0.094143
N94	N	0.642915	0.000186	0.119055
H95	H	0.597391	0.000179	0.086650
N96	N	0.909839	-0.661193	-0.178412
N97	N	0.956074	-0.616955	-0.151019
H98	H	0.986536	-0.588340	-0.181478
N99	N	0.193292	0.000240	0.037791
N100	N	0.168379	0.000240	0.095079
H101	H	0.200784	0.000224	0.140602
H102	H	0.901043	-0.186245	-0.169676
H103	H	0.747893	-0.330128	-0.016386
H104	H	0.747913	-0.669539	-0.016389
N105	N	0.739183	-0.821530	-0.007637
N106	N	0.739194	-0.892285	-0.007642
H107	H	0.708747	-0.920901	0.022833
N108	N	0.957476	0.000222	0.128587
N109	N	1.013804	0.000235	0.168712
H110	H	1.060103	0.000241	0.148602
