data_functionalizedCrystal
_audit_creation_method	'MofGen! by Chris Wilmer'
_symmetry_space_group_name_H-M	'P1'
_symmetry_Int_Tables_number	1
_symmetry_cell_setting	triclinic
loop_
_symmetry_equiv_pos_as_xyz
  x,y,z
_cell_length_a	6.817900
_cell_length_b	11.168138
_cell_length_c	14.125465
_cell_angle_alpha	94.659342
_cell_angle_beta	100.398878
_cell_angle_gamma	108.508793
loop_
_atom_site_label
_atom_site_type_symbol
_atom_site_fract_x
_atom_site_fract_y
_atom_site_fract_z
V1	V	-4.016764	-0.173620	-0.299984
O2	O	-3.978122	0.009459	-0.294266
O3	O	-3.993687	-0.345333	-0.297941
O4	O	-3.952443	-0.170460	-0.430814
O5	O	-4.019652	-0.166624	-0.160472
V6	V	-4.499173	-0.151779	-0.283297
O7	O	-4.280464	-0.221529	-0.336590
O8	O	-4.685670	-0.103870	-0.246691
O9	O	-4.299043	0.019933	-0.285340
O10	O	-4.655212	-0.334859	-0.289015
O11	O	-4.613682	-0.158775	-0.422809
O12	O	-4.340288	-0.154940	-0.152467
C13	C	-3.845364	-0.387208	-0.293210
C14	C	-3.907677	-0.527582	-0.292411
C15	C	-3.762035	-0.584071	-0.287492
C16	C	-3.826435	-0.729155	-0.286666
C17	C	-3.792751	-0.164138	-0.462703
C18	C	-3.821612	-0.162690	-0.569657
C19	C	-3.874514	-0.160035	-0.765480
C20	C	-4.060792	-0.165361	-0.817801
C21	C	-4.090229	-0.163884	-0.926764
C22	C	-3.845069	-0.161513	-0.656507
C23	C	-4.110710	0.061802	-0.290068
C24	C	-4.027635	0.202175	-0.290873
C25	C	-4.163323	-0.161265	-0.120573
C26	C	-4.113699	-0.162707	-0.013618
H27	H	-4.152230	-0.749232	-0.295091
H28	H	-4.080039	-0.586627	-0.296002
C29	C	-4.246382	-0.173029	-0.767776
H30	H	-4.367127	-0.176171	-0.814935
H31	H	-4.278767	-0.247763	-0.737565
H32	H	-4.207746	-0.099865	-0.719973
C33	C	-3.529182	-0.504316	-0.282631
H34	H	-3.516448	-0.417267	-0.283831
H35	H	-3.442967	-0.511902	-0.224170
H36	H	-3.484484	-0.534568	-0.336910
C37	C	-3.688957	-0.152394	-0.815512
H38	H	-3.733411	-0.152405	-0.883247
H39	H	-3.573969	-0.076094	-0.788296
H40	H	-3.645049	-0.223994	-0.805882
H41	H	-3.701854	-0.777759	-0.282459
