data_functionalizedCrystal
_audit_creation_method	'MofGen! by Chris Wilmer'
_symmetry_space_group_name_H-M	'P1'
_symmetry_Int_Tables_number	1
_symmetry_cell_setting	triclinic
loop_
_symmetry_equiv_pos_as_xyz
  x,y,z
_cell_length_a	16.959455
_cell_length_b	16.959454
_cell_length_c	18.215399
_cell_angle_alpha	90.022741
_cell_angle_beta	89.981437
_cell_angle_gamma	89.980118
loop_
_atom_site_label
_atom_site_type_symbol
_atom_site_fract_x
_atom_site_fract_y
_atom_site_fract_z
Zn1	Zn	1.208401	0.314754	-0.416118
Zn2	Zn	1.208307	0.446939	-0.293062
Zn3	Zn	1.076220	0.314772	-0.293068
Zn4	Zn	1.076188	0.446887	-0.416090
O5	O	1.142279	0.380838	-0.354584
O6	O	1.319000	0.332303	-0.399803
O7	O	1.190760	0.429436	-0.190079
O8	O	1.093807	0.204159	-0.309404
O9	O	1.318931	0.429419	-0.309395
O10	O	1.190920	0.204146	-0.399808
O11	O	1.093716	0.332333	-0.190083
O12	O	0.965605	0.332283	-0.309378
O13	O	1.093752	0.429330	-0.519078
O14	O	0.965581	0.429348	-0.399762
O15	O	1.190889	0.332253	-0.519098
O16	O	1.190729	0.557543	-0.309369
O17	O	1.093661	0.557505	-0.399757
C18	C	0.936913	0.380812	-0.354568
C19	C	0.849056	0.380820	-0.354578
C20	C	0.477568	0.330255	-0.307620
C21	C	0.477593	0.431486	-0.401591
C22	C	0.560138	0.431475	-0.401587
C23	C	0.601403	0.380854	-0.354597
C24	C	0.560122	0.330244	-0.307612
C25	C	0.601426	0.482089	-0.448566
C26	C	0.683977	0.482081	-0.448562
C27	C	0.725243	0.431455	-0.401576
C28	C	0.683957	0.380843	-0.354590
C29	C	0.725221	0.330221	-0.307600
C30	C	0.683937	0.279604	-0.260617
C31	C	0.601388	0.279618	-0.260626
C32	C	0.807791	0.431441	-0.401567
C33	C	0.807775	0.330210	-0.307593
C34	C	1.142202	0.586204	-0.354575
C35	C	1.142242	0.674061	-0.354596
C36	C	1.091776	1.045547	-0.401655
C37	C	1.192936	1.045527	-0.307610
C38	C	1.192912	0.962981	-0.307602
C39	C	1.142319	0.921714	-0.354620
C40	C	1.091749	0.962993	-0.401646
C41	C	1.243475	0.921695	-0.260571
C42	C	1.243453	0.839144	-0.260560
C43	C	1.192863	0.797876	-0.307583
C44	C	1.142292	0.839160	-0.354612
C45	C	1.091699	0.797894	-0.401630
C46	C	1.041131	0.839176	-0.448663
C47	C	1.041159	0.921725	-0.448669
C48	C	1.192835	0.715328	-0.307577
C49	C	1.091672	0.715340	-0.401622
C50	C	1.348447	0.380865	-0.354602
C51	C	1.436304	0.380876	-0.354609
C52	C	1.142327	0.380784	-0.546537
C53	C	1.142348	0.380760	-0.628336
C54	C	1.142365	1.174670	-0.354614
C55	C	1.142369	1.086813	-0.354636
C56	C	1.192945	0.330165	-0.816542
C57	C	1.192954	0.330142	-0.893401
C58	C	1.091806	0.431234	-0.893369
C59	C	1.091793	0.431252	-0.816511
C60	C	1.142367	0.380719	-0.778100
C61	C	1.142390	0.380677	-0.931816
C62	C	1.142399	0.380653	-1.015150
C63	C	1.142357	0.380742	-0.694761
C64	C	1.142276	0.380835	-0.163378
C65	C	1.142409	0.380636	-0.081580
H66	H	0.717545	0.238392	-0.222355
Br67	Br	1.023157	1.101569	-0.465488
H68	H	1.050601	0.472419	-0.785211
Br69	Br	0.421543	0.261557	-0.243866
Br70	Br	0.863771	0.261499	-0.243824
Br71	Br	0.739999	0.550773	-0.512324
Br72	Br	0.972538	0.977755	-0.512494
H73	H	1.234123	0.289015	-0.785270
Br74	Br	1.261594	1.101531	-0.243801
Br75	Br	1.261604	0.261535	-0.945570
Br76	Br	0.421591	0.500203	-0.465341
H77	H	0.567767	0.238409	-0.222374
H78	H	1.284660	0.955301	-0.222286
H79	H	0.567822	0.523308	-0.486817
Br80	Br	0.863818	0.500136	-0.465318
Br81	Br	1.023013	0.659342	-0.465443
Br82	Br	1.023177	0.499814	-0.945503
Br83	Br	0.972466	0.783162	-0.512466
H84	H	1.284629	0.805537	-0.222265
H85	H	1.234003	0.681719	-0.269280
