data_functionalizedCrystal
_audit_creation_method	'MofGen! by Chris Wilmer'
_symmetry_space_group_name_H-M	'P1'
_symmetry_Int_Tables_number	1
_symmetry_cell_setting	triclinic
loop_
_symmetry_equiv_pos_as_xyz
  x,y,z
_cell_length_a	14.519709
_cell_length_b	14.519709
_cell_length_c	10.868271
_cell_angle_alpha	89.993918
_cell_angle_beta	90.001299
_cell_angle_gamma	83.680145
loop_
_atom_site_label
_atom_site_type_symbol
_atom_site_fract_x
_atom_site_fract_y
_atom_site_fract_z
O1	O	1.223867	0.120892	-0.102165
O2	O	1.723867	0.620892	0.397835
O3	O	0.955390	0.135128	-0.102203
O4	O	1.455390	0.635128	0.397797
O5	O	1.096747	-0.006228	-0.102172
O6	O	1.596747	0.493772	0.397828
O7	O	1.082510	0.262248	-0.102196
O8	O	1.582510	0.762248	0.397804
O9	O	1.096735	-0.006234	0.102473
O10	O	1.596735	0.493766	0.602473
O11	O	0.955379	0.135123	0.102442
O12	O	1.455379	0.635123	0.602442
O13	O	1.223856	0.120886	0.102480
O14	O	1.723856	0.620886	0.602480
Zn15	Zn	1.089615	0.128004	0.134953
Zn16	Zn	1.589615	0.628004	0.634953
Zn17	Zn	1.089631	0.128011	-0.134675
Zn18	Zn	1.589631	0.628011	0.365325
O19	O	1.082499	0.262243	0.102449
O20	O	1.582499	0.762243	0.602449
C21	C	0.921025	0.134462	0.000115
C22	C	1.421025	0.634462	0.500115
C23	C	0.818643	0.132474	0.000101
C24	C	1.318643	0.632474	0.500101
C25	C	0.443748	0.125154	0.000157
C26	C	0.943748	0.625154	0.500157
C27	C	0.548056	0.127187	0.000141
C28	C	1.048056	0.627187	0.500141
C29	C	0.631192	0.128814	0.000128
C30	C	1.131192	0.628814	0.500128
C31	C	0.735507	0.130847	0.000114
C32	C	1.235507	0.630847	0.500114
C33	C	1.096078	-0.040591	0.000151
C34	C	1.596078	0.459409	0.500151
C35	C	1.094090	-0.142972	0.000151
C36	C	1.594090	0.357028	0.500151
C37	C	1.086770	-0.517868	0.000118
C38	C	1.586770	-0.017868	0.500118
C39	C	1.088803	-0.413560	0.000128
C40	C	1.588803	0.086440	0.500128
C41	C	1.090430	-0.330423	0.000136
C42	C	1.590430	0.169577	0.500136
C43	C	1.092463	-0.226109	0.000143
C44	C	1.592463	0.273891	0.500143
C45	C	1.258221	0.121553	0.000160
C46	C	1.758221	0.621553	0.500160
C47	C	1.360602	0.123541	0.000166
C48	C	1.860602	0.623541	0.500166
C49	C	1.083168	0.296605	0.000124
C50	C	1.583168	0.796605	0.500124
C51	C	1.085156	0.398987	0.000115
C52	C	1.585156	0.898987	0.500115
N53	N	1.089612	0.127998	0.318967
N54	N	1.589612	0.627998	0.818967
N55	N	1.089642	0.128009	-0.318690
N56	N	1.589642	0.628009	0.181310
C57	C	1.089626	0.128009	0.569973
C58	C	1.589626	0.628009	1.069973
C59	C	1.089615	0.128006	0.430295
C60	C	1.589615	0.628006	0.930295
