data_functionalizedCrystal
_audit_creation_method	'MofGen! by Chris Wilmer'
_symmetry_space_group_name_H-M	'P1'
_symmetry_Int_Tables_number	1
_symmetry_cell_setting	triclinic
loop_
_symmetry_equiv_pos_as_xyz
  x,y,z
_cell_length_a	10.723023
_cell_length_b	11.892095
_cell_length_c	10.723022
_cell_angle_alpha	86.072570
_cell_angle_beta	84.467387
_cell_angle_gamma	93.935983
loop_
_atom_site_label
_atom_site_type_symbol
_atom_site_fract_x
_atom_site_fract_y
_atom_site_fract_z
O1	O	1.665098	0.093997	0.167114
O2	O	2.165098	0.593997	0.667114
O3	O	1.301946	0.094000	0.183868
O4	O	1.801946	0.594000	0.683868
O5	O	1.491899	0.093994	-0.006085
O6	O	1.991899	0.593994	0.493915
O7	O	1.475145	0.094003	0.357067
O8	O	1.975145	0.594003	0.857067
O9	O	1.476061	-0.094013	0.009728
O10	O	1.976061	0.405987	0.509728
O11	O	1.286108	-0.094007	0.199681
O12	O	1.786108	0.405993	0.699681
O13	O	1.649260	-0.094010	0.182927
O14	O	2.149260	0.405990	0.682927
Zn15	Zn	1.465169	-0.123859	0.193815
Zn16	Zn	1.965169	0.376141	0.693815
Zn17	Zn	1.486037	0.123849	0.172980
Zn18	Zn	1.986037	0.623849	0.672980
O19	O	1.459307	-0.094004	0.372880
O20	O	1.959307	0.405996	0.872880
C21	C	1.247527	-0.000003	0.190555
C22	C	1.747527	0.499997	0.690555
C23	C	1.108973	-0.000002	0.186908
C24	C	1.608973	0.499998	0.686908
N25	N	1.450937	-0.292912	0.208033
N26	N	1.950937	0.207088	0.708033
C27	C	0.895801	-0.097391	0.189704
C28	C	1.395801	0.402609	0.689704
C29	C	1.039004	-0.097395	0.193474
C30	C	1.539004	0.402605	0.693474
C31	C	1.599314	-0.529565	0.059741
C32	C	2.099314	-0.029565	0.559741
C33	C	1.589375	-0.647906	0.069689
C34	C	2.089375	-0.147906	0.569689
C35	C	1.421114	-0.647939	0.237870
C36	C	1.921114	-0.147939	0.737870
C37	C	1.431053	-0.529598	0.227922
C38	C	1.931053	-0.029598	0.727922
C39	C	1.520157	-0.470414	0.138856
C40	C	2.020157	0.029586	0.638856
C41	C	1.530102	-0.352071	0.128915
C42	C	2.030102	0.147929	0.628915
C43	C	1.361836	-0.352106	0.297089
C44	C	1.861836	0.147894	0.797089
C45	C	1.351897	-0.470448	0.307036
C46	C	1.851897	0.029552	0.807036
C47	C	1.703679	-0.000004	0.176239
C48	C	2.203679	0.499996	0.676239
C49	C	1.842234	0.000002	0.179886
C50	C	2.342234	0.500002	0.679886
C51	C	1.482762	-0.000008	-0.044678
C52	C	1.982762	0.499992	0.455322
C53	C	1.479115	-0.000004	-0.183233
C54	C	1.979115	0.499996	0.316767
N55	N	1.500279	0.292902	0.158752
N56	N	2.000279	0.792902	0.658752
C57	C	1.581632	0.000001	-0.401412
C58	C	2.081632	0.500001	0.098588
C59	C	1.585403	-0.000003	-0.258209
C60	C	2.085403	0.499997	0.241791
C61	C	1.468445	0.000000	0.411473
C62	C	1.968445	0.500000	0.911473
C63	C	1.472092	0.000004	0.550027
C64	C	1.972092	0.500004	1.050027
H65	H	0.835644	-0.180771	0.195325
H66	H	1.335644	0.319229	0.695325
H67	H	1.062884	0.083384	0.178493
H68	H	1.562884	0.583384	0.678493
Cl69	Cl	0.935100	0.128741	0.171226
Cl70	Cl	1.435100	0.628741	0.671226
H71	H	1.085102	-0.180777	0.201880
H72	H	1.585102	0.319223	0.701880
H73	H	1.381103	-0.000004	-0.385530
H74	H	1.881103	0.499996	0.114470
H75	H	1.602658	-0.303885	0.056397
H76	H	2.102658	0.196115	0.556397
Cl77	Cl	1.711340	-0.455161	-0.052211
Cl78	Cl	2.211340	0.044839	0.447789
H79	H	1.653830	-0.696063	0.005265
H80	H	2.153830	-0.196063	0.505265
H81	H	1.348559	-0.696142	0.310376
H82	H	1.848559	-0.196142	0.810376
H83	H	1.279347	-0.518648	0.379549
H84	H	1.779347	-0.018648	0.879549
H85	H	1.672620	-0.000005	-0.465854
H86	H	2.172620	0.499995	0.034146
Cl87	Cl	1.262329	-0.277735	0.396558
Cl88	Cl	1.762329	0.222265	0.896558
H89	H	1.679194	0.000035	-0.216400
H90	H	2.179194	0.500035	0.283600
Cl91	Cl	1.334303	0.000008	-0.247772
Cl92	Cl	1.834303	0.500008	0.252228
