data_functionalizedCrystal
_audit_creation_method	'MofGen! by Chris Wilmer'
_symmetry_space_group_name_H-M	'P1'
_symmetry_Int_Tables_number	1
_symmetry_cell_setting	triclinic
loop_
_symmetry_equiv_pos_as_xyz
  x,y,z
_cell_length_a	16.120484
_cell_length_b	14.908780
_cell_length_c	14.908803
_cell_angle_alpha	89.799140
_cell_angle_beta	83.995202
_cell_angle_gamma	83.626566
loop_
_atom_site_label
_atom_site_type_symbol
_atom_site_fract_x
_atom_site_fract_y
_atom_site_fract_z
Zn1	Zn	-0.293544	-1.328168	0.602961
Zn2	Zn	0.206456	-0.828168	1.102961
Zn3	Zn	-0.425217	-1.329153	0.459379
Zn4	Zn	0.074783	-0.829153	0.959379
Zn5	Zn	-0.292579	-1.186574	0.443881
Zn6	Zn	0.207421	-0.686574	0.943881
Zn7	Zn	-0.441317	-1.169213	0.601823
Zn8	Zn	0.058683	-0.669213	1.101823
O9	O	-0.363164	-1.253277	0.527011
O10	O	0.136836	-0.753277	1.027011
O11	O	-0.304676	-1.454492	0.590877
O12	O	0.195324	-0.954492	1.090877
O13	O	-0.400481	-1.317917	0.331134
O14	O	0.099519	-0.817917	0.831134
O15	O	-0.175355	-1.212210	0.458974
O16	O	0.324645	-0.712210	0.958974
O17	O	-0.401416	-1.455215	0.485387
O18	O	0.098584	-0.955215	0.985387
O19	O	-0.176063	-1.316239	0.575850
O20	O	0.323937	-0.816239	1.075850
O21	O	-0.303033	-1.213165	0.319748
O22	O	0.196967	-0.713165	0.819748
O23	O	-0.318644	-1.058078	0.457870
O24	O	0.181356	-0.558078	0.957870
O25	O	-0.428856	-1.182622	0.728162
O26	O	0.071144	-0.682622	1.228162
O27	O	-0.427921	-1.045323	0.573909
O28	O	0.072079	-0.545323	1.073909
O29	O	-0.320287	-1.299405	0.728999
O30	O	0.179713	-0.799405	1.228999
O31	O	-0.544705	-1.301083	0.484283
O32	O	-0.044705	-0.801083	0.984283
O33	O	-0.556534	-1.183576	0.588936
O34	O	-0.056534	-0.683576	1.088936
C35	C	-0.374926	-1.018980	0.514085
C36	C	0.125074	-0.518980	1.014085
C37	C	-0.379979	-0.918744	0.508578
C38	C	0.120021	-0.418744	1.008578
C39	C	-0.288896	-0.729616	0.608259
C40	C	0.211104	-0.229616	1.108259
C41	C	-0.293641	-0.635436	0.603087
C42	C	0.206359	-0.135436	1.103087
C43	C	-0.394209	-0.636202	0.493058
C44	C	0.105791	-0.136202	0.993058
C45	C	-0.389464	-0.730382	0.498230
C46	C	0.110536	-0.230382	0.998230
C47	C	-0.336806	-0.777086	0.555833
C48	C	0.163194	-0.277086	1.055833
C49	C	-0.332066	-0.871268	0.561009
C50	C	0.167934	-0.371268	1.061009
C51	C	-0.432629	-0.872032	0.450976
C52	C	0.067371	-0.372032	0.950976
C53	C	-0.437374	-0.777852	0.445804
C54	C	0.062626	-0.277852	0.945804
C55	C	-0.581048	-1.240575	0.538189
C56	C	-0.081048	-0.740575	1.038189
C57	C	-0.674257	-1.235222	0.543006
C58	C	-0.174257	-0.735222	1.043006
C59	C	-0.844911	-1.225453	0.551819
C60	C	-0.344911	-0.725453	1.051819
C61	C	-0.880570	-1.281261	0.502227
C62	C	-0.380570	-0.781261	1.002227
C63	C	-0.975527	-1.275826	0.507131
C64	C	-0.475527	-0.775826	1.007131
C65	C	-0.749945	-1.230888	0.546916
C66	C	-0.249945	-0.730888	1.046916
C67	C	-0.144430	-1.266051	0.515810
C68	C	0.355570	-0.766051	1.015810
C69	C	-0.051218	-1.271495	0.511037
C70	C	0.448782	-0.771495	1.011037
C71	C	-0.376475	-1.238967	0.762215
C72	C	0.123525	-0.738967	1.262215
C73	C	-0.382147	-1.232869	0.862445
C74	C	0.117853	-0.732869	1.362445
C75	C	-0.351350	-0.488490	0.539981
C76	C	0.148650	0.011510	1.039981
C77	C	-0.346296	-0.588725	0.545490
C78	C	0.153704	-0.088725	1.045490
C79	C	-0.279735	-1.343016	1.051659
C80	C	0.220265	-0.843016	1.551659
C81	C	-0.285061	-1.337289	1.145834
C82	C	0.214939	-0.837289	1.645834
C83	C	-0.398123	-1.215686	1.144971
C84	C	0.101877	-0.715686	1.644971
C85	C	-0.392796	-1.221412	1.050796
C86	C	0.107204	-0.721412	1.550796
C87	C	-0.333601	-1.285080	1.004143
C88	C	0.166399	-0.785080	1.504143
C89	C	-0.328279	-1.290811	0.909967
C90	C	0.171721	-0.790811	1.409967
C91	C	-0.441336	-1.169203	0.909105
C92	C	0.058664	-0.669203	1.409105
C93	C	-0.446662	-1.163477	1.003280
C94	C	0.053338	-0.663477	1.503280
C95	C	-0.349925	-1.267525	1.292723
C96	C	0.150075	-0.767525	1.792723
C97	C	-0.344254	-1.273627	1.192493
C98	C	0.155746	-0.773627	1.692493
H99	H	-0.480244	-0.739813	0.398903
H100	H	0.019756	-0.239813	0.898903
C101	C	-0.825475	-1.351298	0.439869
C102	C	-0.325475	-0.851298	0.939869
H103	H	-0.767956	-1.345796	0.444695
H104	H	-0.267956	-0.845796	0.944695
H105	H	-0.837411	-1.410283	0.457151
H106	H	-0.337411	-0.910283	0.957151
H107	H	-0.837059	-1.340998	0.379275
H108	H	-0.337059	-0.840998	0.879275
H109	H	-0.485200	-1.122030	0.870408
H110	H	0.014800	-0.622030	1.370408
H111	H	-0.254625	-0.596790	0.645775
H112	H	0.245375	-0.096790	1.145775
H113	H	-0.246024	-0.767643	0.655166
H114	H	0.253976	-0.267643	1.155166
C115	C	-0.463222	-1.145651	1.196298
C116	C	0.036778	-0.645651	1.696298
H117	H	-0.458676	-1.150541	1.259190
H118	H	0.041324	-0.650541	1.759190
H119	H	-0.453117	-1.086717	1.176890
H120	H	0.046883	-0.586717	1.676890
H121	H	-0.518039	-1.156498	1.184489
H122	H	-0.018039	-0.656498	1.684489
H123	H	-0.437070	-0.598160	0.446150
H124	H	0.062930	-0.098160	0.946150
H125	H	-0.471649	-0.910691	0.408295
H126	H	0.028351	-0.410691	0.908295
H127	H	-0.885695	-1.173596	0.597954
H128	H	-0.385695	-0.673596	1.097954
C129	C	-0.214631	-1.413049	1.000335
C130	C	0.285369	-0.913049	1.500335
H131	H	-0.219178	-1.408166	0.937443
H132	H	0.280822	-0.908166	1.437443
H133	H	-0.159819	-1.402209	1.012152
H134	H	0.340181	-0.902209	1.512152
H135	H	-0.224744	-1.471986	1.019739
H136	H	0.275256	-0.971986	1.519739
C137	C	-0.263168	-1.360839	0.858646
C138	C	0.236832	-0.860839	1.358646
H139	H	-0.267714	-1.355959	0.795753
H140	H	0.232286	-0.855959	1.295753
H141	H	-0.208360	-1.349988	0.870465
H142	H	0.291640	-0.849988	1.370465
H143	H	-0.273273	-1.419778	0.878052
H144	H	0.226727	-0.919778	1.378052
H145	H	-0.241196	-1.384464	1.184517
H146	H	0.258804	-0.884464	1.684517
C147	C	-0.511774	-1.093451	1.054603
C148	C	-0.011774	-0.593451	1.554603
H149	H	-0.507236	-1.098341	1.117496
H150	H	-0.007236	-0.598341	1.617496
H151	H	-0.501679	-1.034514	1.035199
H152	H	-0.001679	-0.534514	1.535199
H153	H	-0.566585	-1.104312	1.042785
H154	H	-0.066585	-0.604312	1.542785
H155	H	-0.289191	-0.909293	0.607914
H156	H	0.210809	-0.409293	1.107914
