data_functionalizedCrystal
_audit_creation_method	'MofGen! by Chris Wilmer'
_symmetry_space_group_name_H-M	'P1'
_symmetry_Int_Tables_number	1
_symmetry_cell_setting	triclinic
loop_
_symmetry_equiv_pos_as_xyz
  x,y,z
_cell_length_a	21.295417
_cell_length_b	21.295419
_cell_length_c	21.295120
_cell_angle_alpha	89.933046
_cell_angle_beta	89.638316
_cell_angle_gamma	90.045308
loop_
_atom_site_label
_atom_site_type_symbol
_atom_site_fract_x
_atom_site_fract_y
_atom_site_fract_z
Zn1	Zn	-0.248320	0.962621	-0.355923
Zn2	Zn	0.001680	1.212621	-0.105923
Zn3	Zn	0.251680	1.462621	0.144077
Zn4	Zn	0.501680	1.712621	0.394077
Zn5	Zn	-0.354197	0.962445	-0.250645
Zn6	Zn	-0.104197	1.212445	-0.000645
Zn7	Zn	0.145803	1.462445	0.249355
Zn8	Zn	0.395803	1.712445	0.499355
Zn9	Zn	-0.248972	0.857265	-0.250665
Zn10	Zn	0.001028	1.107265	-0.000665
Zn11	Zn	0.251028	1.357265	0.249335
Zn12	Zn	0.501028	1.607265	0.499335
Zn13	Zn	-0.353583	0.857313	-0.355880
Zn14	Zn	-0.103583	1.107313	-0.105880
Zn15	Zn	0.146417	1.357313	0.144120
Zn16	Zn	0.396417	1.607313	0.394120
O17	O	-0.301268	0.909911	-0.303278
O18	O	-0.051268	1.159911	-0.053278
O19	O	0.198732	1.409911	0.196722
O20	O	0.448732	1.659911	0.446722
O21	O	-0.262349	1.050687	-0.341968
O22	O	-0.012349	1.300687	-0.091968
O23	O	0.237651	1.550687	0.158032
O24	O	0.487651	1.800687	0.408032
O25	O	-0.340768	0.948399	-0.162555
O26	O	-0.090768	1.198399	0.087445
O27	O	0.159232	1.448399	0.337445
O28	O	0.409232	1.698399	0.587445
O29	O	-0.160796	0.871295	-0.264654
O30	O	0.089204	1.121295	-0.014654
O31	O	0.339204	1.371295	0.235346
O32	O	0.589204	1.621295	0.485346
O33	O	-0.340136	1.050557	-0.264620
O34	O	-0.090136	1.300557	-0.014620
O35	O	0.159864	1.550557	0.235380
O36	O	0.409864	1.800557	0.485380
O37	O	-0.160317	0.948699	-0.341987
O38	O	0.089683	1.198699	-0.091987
O39	O	0.339683	1.448699	0.158013
O40	O	0.589683	1.698699	0.408013
O41	O	-0.263460	0.871124	-0.162570
O42	O	-0.013460	1.121124	0.087430
O43	O	0.236540	1.371124	0.337430
O44	O	0.486540	1.621124	0.587430
O45	O	-0.262865	0.769182	-0.264612
O46	O	-0.012865	1.019182	-0.014612
O47	O	0.237135	1.269182	0.235388
O48	O	0.487135	1.519182	0.485388
O49	O	-0.339089	0.871376	-0.443979
O50	O	-0.089089	1.121376	-0.193979
O51	O	0.160911	1.371376	0.056021
O52	O	0.410911	1.621376	0.306021
O53	O	-0.339722	0.769218	-0.341914
O54	O	-0.089722	1.019218	-0.091914
O55	O	0.160278	1.269218	0.158086
O56	O	0.410278	1.519218	0.408086
O57	O	-0.261753	0.948745	-0.444010
O58	O	-0.011753	1.198745	-0.194010
O59	O	0.238247	1.448745	0.055990
O60	O	0.488247	1.698745	0.305990
O61	O	-0.442205	0.948445	-0.264579
O62	O	-0.192205	1.198445	-0.014579
O63	O	0.057795	1.448445	0.235421
O64	O	0.307795	1.698445	0.485421
O65	O	-0.441754	0.871205	-0.341895
O66	O	-0.191754	1.121205	-0.091895
O67	O	0.058246	1.371205	0.158105
O68	O	0.308246	1.621205	0.408105
C69	C	-0.301298	0.746359	-0.303261
C70	C	-0.051298	0.996359	-0.053261
C71	C	0.198702	1.246359	0.196739
C72	C	0.448702	1.496359	0.446739
C73	C	-0.301326	0.676391	-0.303268
C74	C	-0.051326	0.926391	-0.053268
C75	C	0.198674	1.176391	0.196732
C76	C	0.448674	1.426391	0.446732
C77	C	-0.464820	0.909828	-0.303244
C78	C	-0.214820	1.159828	-0.053244
C79	C	0.035180	1.409828	0.196756
C80	C	0.285180	1.659828	0.446756
C81	C	-0.534788	0.909851	-0.303250
C82	C	-0.284788	1.159851	-0.053250
C83	C	-0.034788	1.409851	0.196750
C84	C	0.215212	1.659851	0.446750
C85	C	-0.260888	0.643614	-0.343605
C86	C	-0.010888	0.893614	-0.093605
C87	C	0.239112	1.143614	0.156395
C88	C	0.489112	1.393614	0.406395
C89	C	-0.260871	0.577872	-0.343608
C90	C	-0.010871	0.827872	-0.093608
C91	C	0.239129	1.077872	0.156392
C92	C	0.489129	1.327872	0.406392
C93	C	-0.301303	0.544909	-0.303280
C94	C	-0.051303	0.794909	-0.053280
C95	C	0.198697	1.044909	0.196720
C96	C	0.448697	1.294909	0.446720
C97	C	-0.341745	0.577693	-0.262935
C98	C	-0.091745	0.827693	-0.012935
C99	C	0.158255	1.077693	0.237065
C100	C	0.408255	1.327693	0.487065
C101	C	-0.341756	0.643435	-0.262929
C102	C	-0.091756	0.893435	-0.012929
C103	C	0.158244	1.143435	0.237071
C104	C	0.408244	1.393435	0.487071
N105	N	-0.356410	0.441630	-0.298360
N106	N	-0.106410	0.691630	-0.048360
N107	N	0.143590	0.941630	0.201640
N108	N	0.393590	1.191630	0.451640
N109	N	-0.356397	0.379178	-0.298369
N110	N	-0.106397	0.629178	-0.048369
N111	N	0.143603	0.879178	0.201631
N112	N	0.393603	1.129178	0.451631
C113	C	-0.301271	0.346834	-0.303293
C114	C	-0.051271	0.596834	-0.053293
C115	C	0.198729	0.846834	0.196707
C116	C	0.448729	1.096834	0.446707
N117	N	-0.246156	0.379301	-0.308221
N118	N	0.003844	0.629301	-0.058221
N119	N	0.253844	0.879301	0.191779
N120	N	0.503844	1.129301	0.441779
N121	N	-0.246169	0.441758	-0.308215
N122	N	0.003831	0.691758	-0.058215
N123	N	0.253831	0.941758	0.191785
N124	N	0.503831	1.191758	0.441785
C125	C	-0.301295	0.473623	-0.303281
C126	C	-0.051295	0.723623	-0.053281
C127	C	0.198705	0.973623	0.196719
C128	C	0.448705	1.223623	0.446719
C129	C	-0.260811	0.242772	-0.343635
C130	C	-0.010811	0.492772	-0.093635
C131	C	0.239189	0.742772	0.156365
C132	C	0.489189	0.992772	0.406365
C133	C	-0.260793	0.177028	-0.343633
C134	C	-0.010793	0.427028	-0.093633
C135	C	0.239207	0.677028	0.156367
C136	C	0.489207	0.927028	0.406367
C137	C	-0.341672	0.176851	-0.262964
C138	C	-0.091672	0.426851	-0.012964
C139	C	0.158328	0.676851	0.237036
C140	C	0.408328	0.926851	0.487036
C141	C	-0.341685	0.242593	-0.262962
C142	C	-0.091685	0.492593	-0.012962
C143	C	0.158315	0.742593	0.237038
C144	C	0.408315	0.992593	0.487038
C145	C	-0.301255	0.275550	-0.303302
C146	C	-0.051255	0.525550	-0.053302
C147	C	0.198745	0.775550	0.196698
C148	C	0.448745	1.025550	0.446698
C149	C	-0.567868	0.950105	-0.263032
C150	C	-0.317868	1.200105	-0.013032
C151	C	-0.067868	1.450105	0.236968
C152	C	0.182132	1.700105	0.486968
C153	C	-0.633610	0.950135	-0.263047
C154	C	-0.383610	1.200135	-0.013047
C155	C	-0.133610	1.450135	0.236953
C156	C	0.116390	1.700135	0.486953
C157	C	-0.666270	0.909899	-0.303271
C158	C	-0.416270	1.159899	-0.053271
C159	C	-0.166270	1.409899	0.196729
C160	C	0.083730	1.659899	0.446729
C161	C	-0.633182	0.869641	-0.343496
C162	C	-0.383182	1.119641	-0.093496
C163	C	-0.133182	1.369641	0.156504
C164	C	0.116818	1.619641	0.406504
C165	C	-0.567441	0.869617	-0.343485
C166	C	-0.317441	1.119617	-0.093485
C167	C	-0.067441	1.369617	0.156515
C168	C	0.182559	1.619617	0.406515
N169	N	-0.769522	0.854835	-0.308064
N170	N	-0.519522	1.104835	-0.058064
N171	N	-0.269522	1.354835	0.191936
N172	N	-0.019522	1.604835	0.441936
N173	N	-0.831974	0.854860	-0.308071
N174	N	-0.581974	1.104860	-0.058071
N175	N	-0.331974	1.354860	0.191929
N176	N	-0.081974	1.604860	0.441929
C177	C	-0.864344	0.909969	-0.303307
C178	C	-0.614344	1.159969	-0.053307
C179	C	-0.364344	1.409969	0.196693
C180	C	-0.114344	1.659969	0.446693
N181	N	-0.831905	0.965054	-0.298525
N182	N	-0.581905	1.215054	-0.048525
N183	N	-0.331905	1.465054	0.201475
N184	N	-0.081905	1.715054	0.451475
N185	N	-0.769447	0.965029	-0.298515
N186	N	-0.519447	1.215029	-0.048515
N187	N	-0.269447	1.465029	0.201485
N188	N	-0.019447	1.715029	0.451485
C189	C	-0.737555	0.909920	-0.303288
C190	C	-0.487555	1.159920	-0.053288
C191	C	-0.237555	1.409920	0.196712
C192	C	0.012445	1.659920	0.446712
C193	C	-0.968710	0.950259	-0.263103
C194	C	-0.718710	1.200259	-0.013103
C195	C	-0.468710	1.450259	0.236897
C196	C	-0.218710	1.700259	0.486897
C197	C	-1.034454	0.950290	-0.263122
C198	C	-0.784454	1.200290	-0.013122
C199	C	-0.534454	1.450290	0.236878
C200	C	-0.284454	1.700290	0.486878
C201	C	-1.034024	0.869790	-0.343568
C202	C	-0.784024	1.119790	-0.093568
C203	C	-0.534024	1.369790	0.156432
C204	C	-0.284024	1.619790	0.406432
C205	C	-0.968282	0.869765	-0.343553
C206	C	-0.718282	1.119765	-0.093553
C207	C	-0.468282	1.369765	0.156447
C208	C	-0.218282	1.619765	0.406447
C209	C	-0.935629	0.909999	-0.303317
C210	C	-0.685629	1.159999	-0.053317
C211	C	-0.435629	1.409999	0.196683
C212	C	-0.185629	1.659999	0.446683
C213	C	-0.137077	0.910011	-0.303327
C214	C	0.112923	1.160011	-0.053327
C215	C	0.362923	1.410011	0.196673
C216	C	0.612923	1.660011	0.446673
C217	C	-0.067109	0.910054	-0.303348
C218	C	0.182891	1.160054	-0.053348
C219	C	0.432891	1.410054	0.196652
C220	C	0.682891	1.660054	0.446652
C221	C	-0.300280	0.910086	-0.467474
C222	C	-0.050280	1.160086	-0.217474
C223	C	0.199720	1.410086	0.032526
C224	C	0.449720	1.660086	0.282526
C225	C	-0.299859	0.910160	-0.537445
C226	C	-0.049859	1.160160	-0.287445
C227	C	0.200141	1.410160	-0.037445
C228	C	0.450141	1.660160	0.212555
C229	C	-0.301238	1.074101	-0.303296
C230	C	-0.051238	1.324101	-0.053296
C231	C	0.198762	1.574101	0.196704
C232	C	0.448762	1.824101	0.446704
C233	C	-0.301225	1.144069	-0.303304
C234	C	-0.051225	1.394069	-0.053304
C235	C	0.198775	1.644069	0.196696
C236	C	0.448775	1.894069	0.446696
C237	C	-0.302206	0.909773	-0.139721
C238	C	-0.052206	1.159773	0.110279
C239	C	0.197794	1.409773	0.360279
C240	C	0.447794	1.659773	0.610279
C241	C	-0.302450	0.909821	-0.069751
C242	C	-0.052450	1.159821	0.180249
C243	C	0.197550	1.409821	0.430249
C244	C	0.447550	1.659821	0.680249
C245	C	-0.261731	0.949824	-0.037411
C246	C	-0.011731	1.199824	0.212589
C247	C	0.238269	1.449824	0.462589
C248	C	0.488269	1.699824	0.712589
C249	C	-0.261413	0.949871	0.028329
C250	C	-0.011413	1.199871	0.278329
C251	C	0.238587	1.449871	0.528329
C252	C	0.488587	1.699871	0.778329
C253	C	-0.301807	0.909902	0.061728
C254	C	-0.051807	1.159902	0.311728
C255	C	0.198193	1.409902	0.561728
C256	C	0.448193	1.659902	0.811728
C257	C	-0.342534	0.869896	0.029380
C258	C	-0.092534	1.119896	0.279380
C259	C	0.157466	1.369896	0.529380
C260	C	0.407466	1.619896	0.779380
C261	C	-0.342856	0.869856	-0.036359
C262	C	-0.092856	1.119856	0.213641
C263	C	0.157144	1.369856	0.463641
C264	C	0.407144	1.619856	0.713641
N265	N	-0.306541	0.854897	0.165101
N266	N	-0.056541	1.104897	0.415101
N267	N	0.193459	1.354897	0.665101
N268	N	0.443459	1.604897	0.915101
N269	N	-0.306233	0.854938	0.227551
N270	N	-0.056233	1.104938	0.477551
N271	N	0.193767	1.354938	0.727551
N272	N	0.443767	1.604938	0.977551
C273	C	-0.300843	0.910024	0.259796
C274	C	-0.050843	1.160024	0.509796
C275	C	0.199157	1.410024	0.759796
C276	C	0.449157	1.660024	1.009796
N277	N	-0.295761	0.965068	0.227233
N278	N	-0.045761	1.215068	0.477233
N279	N	0.204239	1.465068	0.727233
N280	N	0.454239	1.715068	0.977233
N281	N	-0.296067	0.965027	0.164778
N282	N	-0.046067	1.215027	0.414778
N283	N	0.203933	1.465027	0.664778
N284	N	0.453933	1.715027	0.914778
C285	C	-0.301464	0.909942	0.133011
C286	C	-0.051464	1.159942	0.383011
C287	C	0.198536	1.409942	0.633011
C288	C	0.448536	1.659942	0.883011
C289	C	-0.259777	0.950080	0.363420
C290	C	-0.009777	1.200080	0.613420
C291	C	0.240223	1.450080	0.863420
C292	C	0.490223	1.700080	1.113420
C293	C	-0.259463	0.950128	0.429162
C294	C	-0.009463	1.200128	0.679162
C295	C	0.240537	1.450128	0.929162
C296	C	0.490537	1.700128	1.179162
C297	C	-0.340581	0.870148	0.430211
C298	C	-0.090581	1.120148	0.680211
C299	C	0.159419	1.370148	0.930211
C300	C	0.409419	1.620148	1.180211
C301	C	-0.340898	0.870106	0.364470
C302	C	-0.090898	1.120106	0.614470
C303	C	0.159102	1.370106	0.864470
C304	C	0.409102	1.620106	1.114470
C305	C	-0.300493	0.910071	0.331079
C306	C	-0.050493	1.160071	0.581079
C307	C	0.199507	1.410071	0.831079
C308	C	0.449507	1.660071	1.081079
H309	H	-0.227966	0.670444	-0.376452
H310	H	0.022034	0.920444	-0.126452
H311	H	0.272034	1.170444	0.123548
H312	H	0.522034	1.420444	0.373548
H313	H	-0.374665	0.550851	-0.230099
H314	H	-0.124665	0.800851	0.019901
H315	H	0.125335	1.050851	0.269901
H316	H	0.375335	1.300851	0.519901
F317	F	-0.384700	0.141773	-0.220039
F318	F	-0.134700	0.391773	0.029961
F319	F	0.115300	0.641773	0.279961
F320	F	0.365300	0.891773	0.529961
F321	F	-0.218073	0.992449	0.062755
F322	F	0.031927	1.242449	0.312755
F323	F	0.281927	1.492449	0.562755
F324	F	0.531927	1.742449	0.812755
F325	F	-0.383578	0.827616	0.465751
F326	F	-0.133578	1.077616	0.715751
F327	F	0.116422	1.327616	0.965751
F328	F	0.366422	1.577616	1.215751
H329	H	-0.228832	0.982370	-0.064595
H330	H	0.021168	1.232370	0.185405
H331	H	0.271168	1.482370	0.435405
H332	H	0.521168	1.732370	0.685405
H333	H	-0.374054	0.837529	0.338139
H334	H	-0.124054	1.087529	0.588139
H335	H	0.125946	1.337529	0.838139
H336	H	0.375946	1.587529	1.088139
F337	F	-0.533120	0.992932	-0.220217
F338	F	-0.283120	1.242932	0.029783
F339	F	-0.033120	1.492932	0.279783
F340	F	0.216880	1.742932	0.529783
F341	F	-0.216126	0.992711	0.463580
F342	F	0.033874	1.242711	0.713580
F343	F	0.283874	1.492711	0.963580
F344	F	0.533874	1.742711	1.213580
F345	F	-0.668824	0.992980	-0.220240
F346	F	-0.418824	1.242980	0.029760
F347	F	-0.168824	1.492980	0.279760
F348	F	0.081176	1.742980	0.529760
H349	H	-0.659777	0.836882	-0.376249
H350	H	-0.409777	1.086882	-0.126249
H351	H	-0.159777	1.336882	0.123751
H352	H	0.090223	1.586882	0.373751
F353	F	-0.217828	0.542981	-0.386541
F354	F	0.032172	0.792981	-0.136541
F355	F	0.282172	1.042981	0.113459
F356	F	0.532172	1.292981	0.363459
H357	H	-0.540506	0.836837	-0.376236
H358	H	-0.290506	1.086837	-0.126236
H359	H	-0.040506	1.336837	0.123764
H360	H	0.209494	1.586837	0.373764
F361	F	-0.384796	0.678319	-0.219993
F362	F	-0.134796	0.928319	0.030007
F363	F	0.115204	1.178319	0.280007
F364	F	0.365204	1.428319	0.530007
F365	F	-0.386197	0.827277	-0.070779
F366	F	-0.136197	1.077277	0.179221
F367	F	0.113803	1.327277	0.429221
F368	F	0.363803	1.577277	0.679221
F369	F	-0.217779	0.277849	-0.386563
F370	F	0.032221	0.527849	-0.136563
F371	F	0.282221	0.777849	0.113437
F372	F	0.532221	1.027849	0.363437
F373	F	-0.933957	0.993078	-0.220281
F374	F	-0.683957	1.243078	0.029719
F375	F	-0.433957	1.493078	0.279719
F376	F	-0.183957	1.743078	0.529719
H377	H	-0.375425	0.837355	0.056577
H378	H	-0.125425	1.087355	0.306577
H379	H	0.124575	1.337355	0.556577
H380	H	0.374575	1.587355	0.806577
H381	H	-1.061387	0.983073	-0.230374
H382	H	-0.811387	1.233073	0.019626
H383	H	-0.561387	1.483073	0.269626
H384	H	-0.311387	1.733073	0.519626
F385	F	-0.216766	0.992605	0.327880
F386	F	0.033234	1.242605	0.577880
F387	F	0.283234	1.492605	0.827880
F388	F	0.533234	1.742605	1.077880
F389	F	-1.068778	0.826971	-0.386383
F390	F	-0.818778	1.076971	-0.136383
F391	F	-0.568778	1.326971	0.113617
F392	F	-0.318778	1.576971	0.363617
F393	F	-0.384723	0.277478	-0.220028
F394	F	-0.134723	0.527478	0.029972
F395	F	0.115277	0.777478	0.279972
F396	F	0.365277	1.027478	0.529972
F397	F	-0.933074	0.826918	-0.386356
F398	F	-0.683074	1.076918	-0.136356
F399	F	-0.433074	1.326918	0.113644
F400	F	-0.183074	1.576918	0.363644
H401	H	-0.227859	0.150342	-0.376480
H402	H	0.022141	0.400342	-0.126480
H403	H	0.272141	0.650342	0.123520
H404	H	0.522141	0.900342	0.373520
