data_functionalizedCrystal
_audit_creation_method	'MofGen! by Chris Wilmer'
_symmetry_space_group_name_H-M	'P1'
_symmetry_Int_Tables_number	1
_symmetry_cell_setting	triclinic
loop_
_symmetry_equiv_pos_as_xyz
  x,y,z
_cell_length_a	29.839134
_cell_length_b	29.839133
_cell_length_c	21.295411
_cell_angle_alpha	89.989633
_cell_angle_beta	90.034268
_cell_angle_gamma	89.971624
loop_
_atom_site_label
_atom_site_type_symbol
_atom_site_fract_x
_atom_site_fract_y
_atom_site_fract_z
Zn1	Zn	0.686799	0.178966	0.356124
Zn2	Zn	1.020132	0.512299	0.689457
Zn3	Zn	1.353465	0.845633	1.022790
Zn4	Zn	0.686725	0.254082	0.250870
Zn5	Zn	1.020059	0.587415	0.584203
Zn6	Zn	1.353392	0.920748	0.917537
Zn7	Zn	0.611665	0.178960	0.250851
Zn8	Zn	0.944999	0.512293	0.584184
Zn9	Zn	1.278332	0.845626	0.917518
Zn10	Zn	0.611640	0.254063	0.356084
Zn11	Zn	0.944973	0.587396	0.689417
Zn12	Zn	1.278306	0.920730	1.022750
O13	O	0.649207	0.216518	0.303482
O14	O	0.982541	0.549851	0.636815
O15	O	1.315874	0.883184	0.970149
O16	O	0.749656	0.188941	0.342186
O17	O	1.082989	0.522274	0.675520
O18	O	1.416323	0.855607	1.008853
O19	O	0.676748	0.244122	0.162778
O20	O	1.010082	0.577455	0.496111
O21	O	1.343415	0.910788	0.829445
O22	O	0.621674	0.116093	0.264824
O23	O	0.955007	0.449427	0.598158
O24	O	1.288340	0.782760	0.931491
O25	O	0.749602	0.244128	0.264857
O26	O	1.082935	0.577461	0.598190
O27	O	1.416269	0.910794	0.931523
O28	O	0.676874	0.116098	0.342168
O29	O	1.010207	0.449431	0.675501
O30	O	1.343540	0.782765	1.008835
O31	O	0.621602	0.188930	0.162764
O32	O	0.954936	0.522263	0.496097
O33	O	1.288269	0.855596	0.829431
O34	O	0.548795	0.188912	0.264786
O35	O	0.882128	0.522245	0.598119
O36	O	1.215462	0.855578	0.931452
O37	O	0.621630	0.244096	0.444178
O38	O	0.954963	0.577429	0.777512
O39	O	1.288296	0.910763	1.110845
O40	O	0.548776	0.244090	0.342100
O41	O	0.882109	0.577423	0.675433
O42	O	1.215443	0.910757	1.008766
O43	O	0.676849	0.188923	0.444208
O44	O	1.010182	0.522256	0.777541
O45	O	1.343515	0.855589	1.110875
O46	O	0.676723	0.316946	0.264818
O47	O	1.010057	0.650280	0.598151
O48	O	1.343390	0.983613	0.931485
O49	O	0.621558	0.316933	0.342118
O50	O	0.954892	0.650266	0.675451
O51	O	1.288225	0.983599	1.008785
C52	C	0.532485	0.216499	0.303437
C53	C	0.865818	0.549832	0.636770
C54	C	1.199151	0.883165	0.970103
C55	C	0.482550	0.216501	0.303432
C56	C	0.815884	0.549835	0.636766
C57	C	1.149217	0.883168	0.970099
C58	C	0.172907	0.245291	0.343690
C59	C	0.506240	0.578625	0.677024
C60	C	0.839573	0.911958	1.010357
C61	C	-0.014767	0.245304	0.343718
C62	C	0.318567	0.578637	0.677052
C63	C	0.651900	0.911971	1.010385
O64	O	-0.039032	0.269761	0.377920
O65	O	0.294302	0.603095	0.711253
O66	O	0.627635	0.936428	1.044587
N67	N	-0.038235	0.216534	0.303529
N68	N	0.295099	0.549867	0.636863
N69	N	0.628432	0.883201	0.970196
C70	C	-0.014782	0.187757	0.263334
C71	C	0.318551	0.521090	0.596667
C72	C	0.651885	0.854424	0.930000
O73	O	-0.039049	0.163283	0.229156
O74	O	0.294284	0.496617	0.562489
O75	O	0.627617	0.829950	0.895823
C76	C	0.172890	0.187742	0.263309
C77	C	0.506224	0.521076	0.596643
C78	C	0.839557	0.854409	0.929976
C79	C	0.196356	0.216517	0.303496
C80	C	0.529689	0.549851	0.636830
C81	C	0.863023	0.883184	0.970163
C82	C	0.196372	0.274064	0.383874
C83	C	0.529706	0.607397	0.717208
C84	C	0.863039	0.940730	1.050541
C85	C	0.243288	0.274062	0.383864
C86	C	0.576621	0.607395	0.717198
C87	C	0.909955	0.940729	1.050531
C88	C	0.266737	0.245288	0.343671
C89	C	0.600071	0.578621	0.677004
C90	C	0.933404	0.911954	1.010337
C91	C	0.243272	0.216516	0.303486
C92	C	0.576605	0.549849	0.636820
C93	C	0.909938	0.883182	0.970153
C94	C	0.196342	0.158963	0.223117
C95	C	0.529676	0.492296	0.556451
C96	C	0.863009	0.825630	0.889784
C97	C	0.243263	0.158961	0.223116
C98	C	0.576597	0.492295	0.556449
C99	C	0.909930	0.825628	0.889783
C100	C	0.266729	0.187736	0.263303
C101	C	0.600063	0.521070	0.596636
C102	C	0.933396	0.854403	0.929970
C103	C	0.313637	0.187740	0.263283
C104	C	0.646970	0.521073	0.596616
C105	C	0.980303	0.854406	0.929949
N106	N	0.337105	0.216510	0.303471
N107	N	0.670438	0.549843	0.636805
N108	N	1.003772	0.883176	0.970138
C109	C	0.313655	0.245284	0.343665
C110	C	0.646989	0.578617	0.676999
C111	C	0.980322	0.911950	1.010332
C112	C	-0.113312	0.187767	0.263349
C113	C	0.220021	0.521100	0.596682
C114	C	0.553354	0.854434	0.930015
C115	C	-0.160230	0.187771	0.263354
C116	C	0.173103	0.521105	0.596687
C117	C	0.506436	0.854438	0.930020
C118	C	-0.160212	0.245318	0.343739
C119	C	0.173122	0.578651	0.677072
C120	C	0.506455	0.911985	1.010406
C121	C	-0.113293	0.245316	0.343730
C122	C	0.220040	0.578649	0.677064
C123	C	0.553374	0.911982	1.010397
C124	C	-0.089844	0.216537	0.303537
C125	C	0.243489	0.549870	0.636871
C126	C	0.576822	0.883204	0.970204
C127	C	0.412181	0.245278	0.343641
C128	C	0.745514	0.578612	0.676975
C129	C	1.078848	0.911945	1.010308
C130	C	0.459101	0.245275	0.343626
C131	C	0.792434	0.578609	0.676959
C132	C	1.125767	0.911942	1.010293
C133	C	0.459078	0.187727	0.263243
C134	C	0.792411	0.521060	0.596577
C135	C	1.125745	0.854394	0.929910
C136	C	0.412163	0.187732	0.263256
C137	C	0.745496	0.521065	0.596589
C138	C	1.078829	0.854398	0.929923
C139	C	0.388715	0.216509	0.303460
C140	C	0.722049	0.549842	0.636793
C141	C	1.055382	0.883175	0.970127
O142	O	0.337931	0.163292	0.229104
O143	O	0.671264	0.496625	0.562437
O144	O	1.004597	0.829958	0.895770
O145	O	0.337931	0.269747	0.377848
O146	O	0.671264	0.603080	0.711181
O147	O	1.004597	0.936413	1.044515
C148	C	0.125991	0.245293	0.343700
C149	C	0.459324	0.578626	0.677033
C150	C	0.792658	0.911960	1.010367
C151	C	0.102525	0.216521	0.303516
C152	C	0.435859	0.549854	0.636849
C153	C	0.769192	0.883187	0.970183
C154	C	0.125975	0.187747	0.263322
C155	C	0.459308	0.521080	0.596655
C156	C	0.792642	0.854413	0.929989
C157	C	0.055607	0.216525	0.303521
C158	C	0.388941	0.549858	0.636854
C159	C	0.722274	0.883192	0.970188
C160	C	0.032158	0.245299	0.343715
C161	C	0.365491	0.578632	0.677048
C162	C	0.698824	0.911966	1.010382
C163	C	0.055626	0.274069	0.383904
C164	C	0.388959	0.607402	0.717237
C165	C	0.722293	0.940735	1.050570
C166	C	0.102541	0.274067	0.383894
C167	C	0.435875	0.607400	0.717227
C168	C	0.769208	0.940734	1.050561
C169	C	0.102507	0.158977	0.223133
C170	C	0.435840	0.492310	0.556467
C171	C	0.769173	0.825643	0.889800
C172	C	0.055591	0.158981	0.223146
C173	C	0.388924	0.492315	0.556479
C174	C	0.722258	0.825648	0.889813
C175	C	0.032141	0.187755	0.263340
C176	C	0.365475	0.521089	0.596673
C177	C	0.698808	0.854422	0.930007
C178	C	0.649142	0.333240	0.303479
C179	C	0.982476	0.666573	0.636813
C180	C	1.315809	0.999907	0.970146
C181	C	0.649156	0.383175	0.303499
C182	C	0.982489	0.716508	0.636833
C183	C	1.315822	1.049841	0.970166
C184	C	0.677931	0.739729	0.343797
C185	C	1.011264	1.073063	0.677130
C186	C	1.344597	1.406396	1.010464
C187	C	0.677901	0.552056	0.343798
C188	C	1.011234	0.885389	0.677131
C189	C	1.344568	1.218723	1.010464
O190	O	0.702331	0.527764	0.378054
O191	O	1.035664	0.861097	0.711387
O192	O	1.368998	1.194431	1.044720
N193	N	0.649181	0.528620	0.303497
N194	N	0.982514	0.861953	0.636830
N195	N	1.315848	1.195286	0.970163
C196	C	0.620469	0.552104	0.263190
C197	C	0.953802	0.885438	0.596523
C198	C	1.287135	1.218771	0.929856
O199	O	0.596043	0.527864	0.228907
O200	O	0.929377	0.861197	0.562240
O201	O	1.262710	1.194531	0.895573
C202	C	0.620501	0.739777	0.263186
C203	C	0.953834	1.073110	0.596520
C204	C	1.287168	1.406443	0.929853
C205	C	0.649220	0.763211	0.303495
C206	C	0.982553	1.096544	0.636828
C207	C	1.315886	1.429877	0.970161
C208	C	0.706647	0.763163	0.384102
C209	C	1.039981	1.096497	0.717435
C210	C	1.373314	1.429830	1.050768
C211	C	0.706653	0.810079	0.384103
C212	C	1.039986	1.143412	0.717437
C213	C	1.373319	1.476745	1.050770
C214	C	0.677942	0.833560	0.343801
C215	C	1.011275	1.166893	0.677134
C216	C	1.344608	1.500227	1.010468
C217	C	0.649225	0.810126	0.303497
C218	C	0.982558	1.143459	0.636830
C219	C	1.315892	1.476793	0.970163
C220	C	0.591791	0.763260	0.222877
C221	C	0.925124	1.096594	0.556210
C222	C	1.258458	1.429927	0.889544
C223	C	0.591803	0.810181	0.222878
C224	C	0.925136	1.143515	0.556212
C225	C	1.258469	1.476848	0.889545
C226	C	0.620521	0.833615	0.263187
C227	C	0.953854	1.166949	0.596520
C228	C	1.287188	1.500282	0.929853
C229	C	0.620519	0.880523	0.263196
C230	C	0.953853	1.213856	0.596529
C231	C	1.287186	1.547190	0.929863
N232	N	0.649239	0.903959	0.303497
N233	N	0.982572	1.237293	0.636830
N234	N	1.315906	1.570626	0.970164
C235	C	0.677950	0.880478	0.343799
C236	C	1.011284	1.213811	0.677133
C237	C	1.344617	1.547145	1.010466
C238	C	0.620453	0.453574	0.263195
C239	C	0.953786	0.786907	0.596529
C240	C	1.287120	1.120240	0.929862
C241	C	0.620444	0.406656	0.263197
C242	C	0.953778	0.739989	0.596530
C243	C	1.287111	1.073323	0.929863
C244	C	0.677878	0.406611	0.343804
C245	C	1.011211	0.739944	0.677137
C246	C	1.344544	1.073278	1.010471
C247	C	0.677884	0.453530	0.343805
C248	C	1.011217	0.786863	0.677139
C249	C	1.344550	1.120196	1.010472
C250	C	0.649173	0.477010	0.303496
C251	C	0.982506	0.810344	0.636830
C252	C	1.315840	1.143677	0.970163
C253	C	0.677959	0.979004	0.343801
C254	C	1.011293	1.312337	0.677134
C255	C	1.344626	1.645670	1.010467
C256	C	0.677961	1.025923	0.343801
C257	C	1.011294	1.359257	0.677134
C258	C	1.344627	1.692590	1.010467
C259	C	0.620530	1.025964	0.263191
C260	C	0.953863	1.359298	0.596525
C261	C	1.287196	1.692631	0.929858
C262	C	0.620526	0.979049	0.263193
C263	C	0.953859	1.312382	0.596527
C264	C	1.287193	1.645715	0.929860
C265	C	0.649245	0.955570	0.303500
C266	C	0.982578	1.288903	0.636833
C267	C	1.315911	1.622236	0.970167
O268	O	0.596106	0.904844	0.228953
O269	O	0.929439	1.238177	0.562286
O270	O	1.262772	1.571511	0.895620
O271	O	0.702379	0.904726	0.378067
O272	O	1.035713	1.238060	0.711401
O273	O	1.369046	1.571393	1.044734
C274	C	0.677925	0.692814	0.343795
C275	C	1.011259	1.026147	0.677129
C276	C	1.344592	1.359480	1.010462
C277	C	0.649209	0.669380	0.303491
C278	C	0.982542	1.002713	0.636824
C279	C	1.315875	1.336046	0.970158
C280	C	0.620498	0.692861	0.263188
C281	C	0.953831	1.026194	0.596522
C282	C	1.287164	1.359528	0.929855
C283	C	0.649200	0.622462	0.303492
C284	C	0.982533	0.955795	0.636826
C285	C	1.315867	1.289129	0.970159
C286	C	0.677911	0.598980	0.343795
C287	C	1.011245	0.932314	0.677128
C288	C	1.344578	1.265647	1.010462
C289	C	0.706631	0.622417	0.384096
C290	C	1.039965	0.955750	0.717429
C291	C	1.373298	1.289084	1.050763
C292	C	0.706637	0.669332	0.384098
C293	C	1.039970	1.002666	0.717431
C294	C	1.373303	1.335999	1.050764
C295	C	0.591778	0.669425	0.222887
C296	C	0.925111	1.002758	0.556221
C297	C	1.258444	1.336091	0.889554
C298	C	0.591774	0.622509	0.222889
C299	C	0.925108	0.955842	0.556223
C300	C	1.258441	1.289176	0.889556
C301	C	0.620485	0.599028	0.263192
C302	C	0.953819	0.932361	0.596525
C303	C	1.287152	1.265694	0.929859
C304	C	0.766386	0.216537	0.303528
C305	C	1.099719	0.549870	0.636861
C306	C	1.433052	0.883204	0.970195
C307	C	0.816320	0.216545	0.303548
C308	C	1.149653	0.549879	0.636881
C309	C	1.482987	0.883212	0.970214
C310	C	0.649245	0.216508	0.467672
C311	C	0.982578	0.549841	0.801006
C312	C	1.315911	0.883175	1.134339
C313	C	0.649260	0.216504	0.537641
C314	C	0.982594	0.549837	0.870974
C315	C	1.315927	0.883171	1.204307
C316	C	0.649268	1.099339	0.303497
C317	C	0.982601	1.432673	0.636830
C318	C	1.315934	1.766006	0.970163
C319	C	0.649250	1.049405	0.303498
C320	C	0.982583	1.382738	0.636832
C321	C	1.315916	1.716071	0.970165
C322	C	0.649196	0.216495	0.139931
C323	C	0.982529	0.549828	0.473264
C324	C	1.315863	0.883161	0.806597
C325	C	0.649267	0.216372	0.069963
C326	C	0.982601	0.549705	0.403296
C327	C	1.315934	0.883039	0.736629
C328	C	0.678012	0.187774	0.570524
C329	C	1.011345	0.521107	0.903857
C330	C	1.344678	0.854441	1.237190
C331	C	0.678011	0.187754	0.636266
C332	C	1.011345	0.521088	0.969599
C333	C	1.344678	0.854421	1.302933
C334	C	0.649264	0.216473	0.669123
C335	C	0.982597	0.549806	1.002456
C336	C	1.315931	0.883140	1.335790
C337	C	0.620507	0.245205	0.636232
C338	C	0.953840	0.578539	0.969566
C339	C	1.287174	0.911872	1.302899
C340	C	0.620505	0.245221	0.570491
C341	C	0.953839	0.578554	0.903824
C342	C	1.287172	0.911887	1.237158
N343	N	0.645796	0.255773	0.772349
N344	N	0.979129	0.589107	1.105682
N345	N	1.312462	0.922440	1.439015
N346	N	0.645800	0.255757	0.834800
N347	N	0.979133	0.589091	1.168133
N348	N	1.312467	0.922424	1.501467
C349	C	0.649267	0.216428	0.867198
C350	C	0.982600	0.549761	1.200531
C351	C	1.315933	0.883094	1.533865
N352	N	0.652738	0.177114	0.834785
N353	N	0.986071	0.510447	1.168118
N354	N	1.319405	0.843780	1.501452
N355	N	0.652736	0.177130	0.772328
N356	N	0.986069	0.510463	1.105661
N357	N	1.319403	0.843797	1.438995
C358	C	0.649262	0.216459	0.740409
C359	C	0.982596	0.549793	1.073742
C360	C	1.315929	0.883126	1.407075
C361	C	0.678019	0.187674	0.971366
C362	C	1.011352	0.521007	1.304700
C363	C	1.344686	0.854341	1.638033
C364	C	0.678015	0.187654	1.037110
C365	C	1.011349	0.520987	1.370444
C366	C	1.344682	0.854320	1.703777
C367	C	0.620513	0.245108	1.037075
C368	C	0.953847	0.578442	1.370408
C369	C	1.287180	0.911775	1.703742
C370	C	0.620515	0.245125	0.971333
C371	C	0.953848	0.578458	1.304666
C372	C	1.287182	0.911791	1.637999
C373	C	0.649270	0.216408	0.938482
C374	C	0.982603	0.549741	1.271816
C375	C	1.315937	0.883075	1.605149
H376	H	0.478204	0.268709	0.376352
H377	H	0.811538	0.602042	0.709685
H378	H	1.144871	0.935376	1.043018
Br379	Br	0.164557	0.313119	0.438431
Br380	Br	0.497890	0.646452	0.771765
Br381	Br	0.831223	0.979786	1.105098
Br382	Br	0.581549	0.947244	0.208491
Br383	Br	0.914882	1.280578	0.541825
Br384	Br	1.248216	1.613911	0.875158
Br385	Br	0.717022	0.148750	0.680903
Br386	Br	1.050356	0.482083	1.014236
Br387	Br	1.383689	0.815416	1.347570
Br388	Br	0.581482	0.284214	0.525861
Br389	Br	0.914815	0.617547	0.859194
Br390	Br	1.248148	0.950881	1.192527
H391	H	0.701426	0.164390	0.543781
H392	H	1.034759	0.497723	0.877114
H393	H	1.368093	0.831057	1.210447
Br394	Br	0.023792	0.313122	0.438448
Br395	Br	0.357126	0.646455	0.771781
Br396	Br	0.690459	0.979789	1.105115
Br397	Br	-0.081496	0.148706	0.208797
Br398	Br	0.251837	0.482039	0.542130
Br399	Br	0.585171	0.815372	0.875463
Br400	Br	0.717041	0.148701	0.926780
Br401	Br	1.050375	0.482034	1.260113
Br402	Br	1.383708	0.815368	1.593447
H403	H	-0.094190	0.268746	0.376455
H404	H	0.239143	0.602080	0.709788
H405	H	0.572476	0.935413	1.043122
H406	H	0.478179	0.164301	0.230517
H407	H	0.811513	0.497635	0.563850
H408	H	1.144846	0.830968	0.897183
Br409	Br	0.023751	0.119928	0.168598
Br410	Br	0.357084	0.453261	0.501932
Br411	Br	0.690417	0.786594	0.835265
H412	H	0.701427	0.164256	1.063882
H413	H	1.034761	0.497589	1.397216
H414	H	1.368094	0.830922	1.730549
H415	H	0.177245	0.135533	0.190391
H416	H	0.510578	0.468866	0.523725
H417	H	0.843911	0.802199	0.857058
H418	H	0.121595	0.135545	0.190402
H419	H	0.454928	0.468878	0.523735
H420	H	0.788261	0.802212	0.857069
H421	H	0.568423	0.829297	0.190053
H422	H	0.901756	1.162630	0.523386
H423	H	1.235090	1.495964	0.856719
H424	H	0.393096	0.268710	0.376381
H425	H	0.726429	0.602043	0.709714
H426	H	1.059763	0.935377	1.043047
H427	H	0.701346	1.045001	0.376628
H428	H	1.034680	1.378335	0.709962
H429	H	1.368013	1.711668	1.043295
H430	H	0.262353	0.135523	0.190389
H431	H	0.595686	0.468856	0.523722
H432	H	0.929020	0.802190	0.857056
Br433	Br	0.380315	0.148688	0.208704
Br434	Br	0.713648	0.482022	0.542038
Br435	Br	1.046982	0.815355	0.875371
H436	H	0.730022	0.688408	0.416921
H437	H	1.063355	1.021741	0.750255
H438	H	1.396689	1.355075	1.083588
Br439	Br	0.581493	0.284079	1.081660
Br440	Br	0.914826	0.617412	1.414993
Br441	Br	1.248159	0.950746	1.748326
H442	H	0.597105	0.268523	0.944559
H443	H	0.930438	0.601856	1.277892
H444	H	1.263772	0.935189	1.611226
Br445	Br	0.716935	0.947147	0.398503
Br446	Br	1.050268	1.280480	0.731836
Br447	Br	1.383602	1.613813	1.065169
H448	H	0.262390	0.297493	0.416590
H449	H	0.595723	0.630826	0.749923
H450	H	0.929056	0.964159	1.083257
Br451	Br	0.745628	0.841875	0.438813
Br452	Br	1.078962	1.175208	0.772146
Br453	Br	1.412295	1.508541	1.105480
H454	H	0.730030	0.744049	0.416920
H455	H	1.063363	1.077382	0.750254
H456	H	1.396696	1.410715	1.083587
H457	H	0.568384	0.603432	0.190067
H458	H	0.901717	0.936766	0.523400
H459	H	1.235051	1.270099	0.856734
H460	H	-0.179312	0.268747	0.376467
H461	H	0.154021	0.602080	0.709800
H462	H	0.487354	0.935414	1.043133
H463	H	0.701267	0.472607	0.376631
H464	H	1.034600	0.805940	0.709964
H465	H	1.367934	1.139273	1.043297
H466	H	0.701255	0.387485	0.376621
H467	H	1.034588	0.720818	0.709954
H468	H	1.367921	1.054151	1.043288
Br469	Br	0.581562	1.057841	0.208504
Br470	Br	0.914895	1.391174	0.541837
Br471	Br	1.248229	1.724508	0.875170
H472	H	-0.179332	0.164344	0.230623
H473	H	0.154001	0.497678	0.563957
H474	H	0.487334	0.831011	0.897290
H475	H	0.121643	0.297498	0.416618
H476	H	0.454977	0.630832	0.749952
H477	H	0.788310	0.964165	1.083285
H478	H	0.597054	0.387579	0.230381
H479	H	0.930387	0.720913	0.563715
H480	H	1.263721	1.054246	0.897048
Br481	Br	0.581483	0.485434	0.208486
Br482	Br	0.914817	0.818767	0.541820
Br483	Br	1.248150	1.152100	0.875153
H484	H	0.568406	0.744187	0.190054
H485	H	0.901739	1.077520	0.523387
H486	H	1.235073	1.410854	0.856721
H487	H	0.730007	0.603291	0.416914
H488	H	1.063341	0.936624	0.750248
H489	H	1.396674	1.269957	1.083581
Br490	Br	0.552808	0.701285	0.168186
Br491	Br	0.886141	1.034618	0.501519
Br492	Br	1.219475	1.367952	0.834852
Br493	Br	0.581489	0.284178	0.680822
Br494	Br	0.914823	0.617511	1.014155
Br495	Br	1.248156	0.950844	1.347489
