data_functionalizedCrystal
_audit_creation_method	'MofGen! by Chris Wilmer'
_symmetry_space_group_name_H-M	'P1'
_symmetry_Int_Tables_number	1
_symmetry_cell_setting	triclinic
loop_
_symmetry_equiv_pos_as_xyz
  x,y,z
_cell_length_a	17.699097
_cell_length_b	17.038272
_cell_length_c	16.776229
_cell_angle_alpha	89.993292
_cell_angle_beta	89.989262
_cell_angle_gamma	87.199993
loop_
_atom_site_label
_atom_site_type_symbol
_atom_site_fract_x
_atom_site_fract_y
_atom_site_fract_z
O1	O	1.010617	0.098911	-0.066356
O2	O	0.791090	0.111762	-0.066343
O3	O	0.899549	-0.008477	-0.066343
O4	O	0.902158	0.219150	-0.066356
O5	O	0.899533	-0.008484	0.066234
O6	O	0.791074	0.111754	0.066234
O7	O	1.010601	0.098903	0.066221
Zn8	Zn	0.900835	0.105328	0.087277
Zn9	Zn	0.900856	0.105337	-0.087399
O10	O	0.902142	0.219142	0.066221
C11	C	0.762855	0.111296	-0.000053
C12	C	0.678746	0.109909	-0.000048
C13	C	0.162474	0.101413	-0.072347
C14	C	0.241504	0.102711	-0.072343
C15	C	0.281004	0.103357	-0.000073
C16	C	0.241471	0.102697	0.072199
C17	C	0.162442	0.101394	0.072194
C18	C	0.560182	0.107952	0.072220
C19	C	0.639216	0.109258	0.072219
C20	C	0.639244	0.109269	-0.072318
C21	C	0.560215	0.107965	-0.072323
C22	C	0.520689	0.107302	-0.000052
C23	C	0.434996	0.105893	-0.000057
C24	C	0.366695	0.104771	-0.000067
C25	C	0.897168	-0.037605	-0.000055
C26	C	0.890087	-0.124387	-0.000054
C27	C	0.955097	-0.174604	-0.000057
C28	C	0.948439	-0.256144	-0.000065
C29	C	0.876771	-0.287465	-0.000063
C30	C	0.811756	-0.237242	-0.000063
C31	C	0.818414	-0.155704	-0.000061
C32	C	0.853248	-0.533186	-0.000073
C33	C	0.846594	-0.614731	-0.000072
C34	C	0.983279	-0.633627	-0.000075
C35	C	0.989931	-0.552086	-0.000069
C36	C	0.924916	-0.501870	-0.000073
C37	C	0.869964	-0.370812	-0.000068
C38	C	0.931723	-0.418525	-0.000074
C39	C	1.038836	0.099369	-0.000071
C40	C	1.122946	0.100756	-0.000081
C41	C	0.904524	0.248270	-0.000069
C42	C	0.911605	0.335052	-0.000075
N43	N	0.900826	0.105321	0.206488
N44	N	0.900871	0.105338	-0.206610
C45	C	0.948869	0.052101	0.248205
C46	C	0.948873	0.052100	0.331657
C47	C	0.900838	0.105324	0.373391
C48	C	0.852790	0.158546	0.331668
C49	C	0.852783	0.158542	0.248217
C50	C	0.852819	0.158561	0.668215
C51	C	0.852831	0.158563	0.751671
C52	C	0.948909	0.052119	0.751655
C53	C	0.948902	0.052115	0.668204
C54	C	0.900851	0.105335	0.626489
C55	C	0.900846	0.105334	0.536000
C56	C	0.900846	0.105329	0.463877
H57	H	0.130259	0.100867	0.131041
H58	H	0.273684	0.103241	-0.131189
O59	O	0.748296	-0.101538	-0.000057
H60	H	0.748057	-0.063939	0.053977
O61	O	0.800982	0.215958	0.376674
H62	H	0.809064	0.207027	0.441712
H63	H	0.988019	0.008778	0.634227
H64	H	0.528058	0.107443	-0.131173
O65	O	0.801028	0.215985	0.796680
H66	H	0.741388	0.206100	0.780697
H67	H	0.813661	0.201879	0.214252
O68	O	0.801003	0.215966	0.623225
H69	H	0.767612	0.252982	0.666268
H70	H	0.788230	-0.640229	-0.000058
O71	O	0.119871	0.100700	-0.150297
H72	H	0.160639	0.101361	-0.200546
H73	H	0.671435	0.109806	-0.131164
H74	H	0.671375	0.109784	0.131074
H75	H	0.988032	0.008782	0.785629
H76	H	0.528011	0.107400	0.131067
H77	H	0.990076	-0.393019	-0.000092
O78	O	0.734456	-0.271025	-0.000063
H79	H	0.690369	-0.222405	-0.000068
H80	H	0.811611	-0.396323	-0.000065
H81	H	0.987988	0.008763	0.214231
O82	O	1.067236	-0.518316	-0.000078
H83	H	1.073539	-0.481633	0.053962
O84	O	0.284068	0.103399	0.150152
H85	H	0.345662	0.104426	0.138016
O86	O	1.000704	-0.005287	0.376655
H87	H	1.034117	-0.042285	0.333615
H88	H	1.001378	-0.297028	-0.000065
O89	O	1.032397	-0.140822	-0.000067
H90	H	1.076483	-0.189443	-0.000080
O91	O	1.053400	-0.687786	-0.000076
H92	H	1.036734	-0.749748	-0.000083
H93	H	0.800308	-0.492309	-0.000075
