data_functionalizedCrystal
_audit_creation_method	'MofGen! by Chris Wilmer'
_symmetry_space_group_name_H-M	'P1'
_symmetry_Int_Tables_number	1
_symmetry_cell_setting	triclinic
loop_
_symmetry_equiv_pos_as_xyz
  x,y,z
_cell_length_a	17.019282
_cell_length_b	17.019294
_cell_length_c	15.500215
_cell_angle_alpha	97.060225
_cell_angle_beta	89.309895
_cell_angle_gamma	83.655696
loop_
_atom_site_label
_atom_site_type_symbol
_atom_site_fract_x
_atom_site_fract_y
_atom_site_fract_z
O1	O	1.046633	0.100508	0.001427
O2	O	0.817774	0.114156	0.019502
O3	O	0.938200	-0.007919	0.001427
O4	O	0.926206	0.222583	0.019501
O5	O	0.931654	-0.014456	-0.142462
O6	O	0.811228	0.107619	-0.124387
O7	O	1.040087	0.093971	-0.142462
Cu8	Cu	0.925060	0.100198	-0.146563
Cu9	Cu	0.932801	0.107929	0.023602
O10	O	0.919661	0.216046	-0.124387
C11	C	0.785210	0.110501	-0.050288
C12	C	0.697933	0.109340	-0.043870
C13	C	0.653367	0.105229	-0.119290
C14	C	0.571362	0.104125	-0.113262
C15	C	0.533924	0.107138	-0.031813
C16	C	0.578497	0.111247	0.043613
C17	C	0.660501	0.112345	0.037584
C18	C	0.286505	0.103995	-0.009686
C19	C	0.204494	0.102899	-0.003663
C20	C	0.197365	0.095775	-0.160539
C21	C	0.279370	0.096879	-0.166560
C22	C	0.323936	0.100983	-0.091135
C23	C	0.450102	0.106012	-0.025650
C24	C	0.407758	0.102103	-0.097299
C25	C	0.934343	-0.040674	-0.072670
C26	C	0.932594	-0.128533	-0.079082
C27	C	0.935343	-0.166242	-0.003662
C28	C	0.933694	-0.248795	-0.009690
C29	C	0.929303	-0.293639	-0.091139
C30	C	0.926552	-0.255924	-0.166565
C31	C	0.928195	-0.173372	-0.160536
C32	C	0.924159	-0.543072	-0.113267
C33	C	0.922519	-0.625630	-0.119290
C34	C	0.929659	-0.618495	0.037586
C35	C	0.931306	-0.535942	0.043607
C36	C	0.928551	-0.498234	-0.031818
C37	C	0.927620	-0.378022	-0.097303
C38	C	0.930228	-0.413852	-0.025653
C39	C	1.072651	0.097626	-0.072670
C40	C	1.159928	0.098788	-0.079083
C41	C	0.923517	0.248801	-0.050289
C42	C	0.925267	0.336661	-0.043870
N43	N	0.919621	0.094760	-0.266248
C44	C	0.965351	0.140520	-0.311519
C45	C	0.961248	0.136402	-0.402093
C46	C	0.911411	0.086528	-0.447394
C47	C	0.865679	0.040762	-0.402117
C48	C	0.869787	0.044876	-0.311545
C49	C	0.896622	0.071710	-0.720864
C50	C	0.892516	0.067601	-0.811443
C51	C	0.988086	0.163240	-0.811412
C52	C	0.992186	0.167354	-0.720838
C53	C	0.946458	0.121585	-0.675569
C54	C	0.907214	0.082319	-0.539975
C55	C	0.950659	0.125789	-0.582990
N56	N	0.938246	0.113361	0.143287
H57	H	0.438243	0.099646	-0.163615
H58	H	0.924048	-0.414543	-0.163619
O59	O	0.825322	0.000544	-0.267460
C60	C	0.774148	0.051401	-0.207488
H61	H	0.799357	0.110651	-0.191375
H62	H	0.713499	0.062168	-0.237079
C63	C	0.735163	-0.060397	-0.143558
C64	C	0.766128	0.012372	-0.123763
H65	H	0.730212	-0.084472	-0.091914
H66	H	0.769637	-0.094661	-0.183965
H67	H	0.684625	-0.051414	-0.168220
H68	H	0.816669	0.003388	-0.099112
H69	H	0.731662	0.046634	-0.083350
H70	H	0.322781	0.107335	0.051731
H71	H	0.933798	-0.377336	0.040663
O72	O	1.040669	0.215813	-0.676973
C73	C	1.080139	0.255335	-0.736351
H74	H	1.081727	0.219618	-0.803696
H75	H	1.047455	0.317157	-0.738942
C76	C	1.163311	0.307108	-0.624029
C77	C	1.165267	0.263237	-0.706741
H78	H	1.215820	0.311986	-0.605763
H79	H	1.136718	0.280484	-0.584023
H80	H	1.136070	0.358622	-0.626199
H81	H	1.192498	0.211721	-0.704568
H82	H	1.191867	0.289852	-0.746746
H83	H	0.419611	0.108465	0.040667
H84	H	0.548010	0.113694	0.109930
O85	O	0.703672	0.116381	0.110937
C86	C	0.653049	0.118788	0.184118
H87	H	0.590348	0.142017	0.167527
H88	H	0.653534	0.056270	0.203541
C89	C	0.758805	0.145959	0.280609
C90	C	0.681795	0.174496	0.260234
H91	H	0.776539	0.180320	0.327563
H92	H	0.792912	0.144335	0.231306
H93	H	0.759200	0.093861	0.296790
H94	H	0.681404	0.226589	0.244044
H95	H	0.647689	0.176131	0.309537
H96	H	0.535081	0.100764	-0.174679
H97	H	0.991239	0.166394	-0.546103
H98	H	0.174015	0.105355	0.062667
O99	O	0.315614	0.093911	-0.245752
C100	C	0.258691	0.090068	-0.311028
H101	H	0.204482	0.065268	-0.285846
H102	H	0.240761	0.152354	-0.329162
C103	C	0.360537	0.065691	-0.422780
C104	C	0.293959	0.035224	-0.391854
H105	H	0.382292	0.031864	-0.472639
H106	H	0.398888	0.068283	-0.378803
H107	H	0.345586	0.117596	-0.437885
H108	H	0.308912	-0.016675	-0.376739
H109	H	0.255611	0.032622	-0.435830
H110	H	0.851929	0.026987	-0.848324
H111	H	0.825105	0.000149	-0.439010
O112	O	0.918403	-0.669241	-0.198412
C113	C	0.985263	-0.726482	-0.212338
H114	H	1.035318	-0.706056	-0.170027
H115	H	0.969606	-0.785998	-0.194541
C116	C	0.950355	-0.761292	-0.360716
C117	C	1.011835	-0.736201	-0.308753
H118	H	0.966744	-0.767290	-0.420189
H119	H	0.905307	-0.722730	-0.351333
H120	H	0.937313	-0.810886	-0.345874
H121	H	1.024869	-0.686603	-0.323588
H122	H	1.056885	-0.774755	-0.318141
H123	H	0.925946	-0.142669	-0.221950
H124	H	0.938922	-0.129737	0.062662
H125	H	0.935935	-0.279494	0.051725
H126	H	0.934883	-0.499436	0.109932
H127	H	1.005929	0.181138	-0.274640
H128	H	0.998488	0.173664	-0.438948
O129	O	0.852119	0.027230	-0.677028
C130	C	0.807264	-0.017682	-0.736439
H131	H	0.799824	0.012174	-0.798219
H132	H	0.839076	-0.080379	-0.753116
C133	C	0.734486	-0.059051	-0.619475
C134	C	0.725342	-0.022376	-0.695352
H135	H	0.683954	-0.061950	-0.594131
H136	H	0.764707	-0.028796	-0.579448
H137	H	0.760998	-0.111295	-0.633383
H138	H	0.698839	0.029869	-0.681441
H139	H	0.695114	-0.052624	-0.735376
O140	O	0.154059	0.091640	-0.233789
C141	C	0.115151	0.022253	-0.240745
H142	H	0.148005	-0.023303	-0.202076
H143	H	0.051979	0.037876	-0.213804
C144	C	0.073251	0.042845	-0.384469
C145	C	0.113607	-0.013110	-0.336980
H146	H	0.072295	0.021033	-0.443831
H147	H	0.099461	0.089595	-0.379782
H148	H	0.020612	0.055859	-0.362008
H149	H	0.166247	-0.026115	-0.359434
H150	H	0.087405	-0.059862	-0.341673
H151	H	0.931900	-0.649206	0.098992
H152	H	1.025316	0.200502	-0.848279
H153	H	0.921931	-0.512382	-0.174685
O154	O	0.922185	-0.299555	-0.245627
C155	C	0.852990	-0.338234	-0.248058
H156	H	0.833161	-0.344413	-0.178940
H157	H	0.804229	-0.301687	-0.280411
C158	C	0.894415	-0.413918	-0.385268
C159	C	0.870064	-0.421513	-0.300376
H160	H	0.904945	-0.465286	-0.417543
H161	H	0.941032	-0.387857	-0.383633
H162	H	0.853776	-0.383459	-0.412217
H163	H	0.910706	-0.451962	-0.273424
H164	H	0.823455	-0.447581	-0.302008
H165	H	0.683841	0.102782	-0.185614
H166	H	0.866636	0.041711	-0.576870
