data_functionalizedCrystal
_audit_creation_method	'MofGen! by Chris Wilmer'
_symmetry_space_group_name_H-M	'P1'
_symmetry_Int_Tables_number	1
_symmetry_cell_setting	triclinic
loop_
_symmetry_equiv_pos_as_xyz
  x,y,z
_cell_length_a	25.639242
_cell_length_b	25.639240
_cell_length_c	25.639234
_cell_angle_alpha	89.973348
_cell_angle_beta	90.026995
_cell_angle_gamma	89.961311
loop_
_atom_site_label
_atom_site_type_symbol
_atom_site_fract_x
_atom_site_fract_y
_atom_site_fract_z
Zn1	Zn	0.799234	0.208247	0.295735
Zn2	Zn	1.132567	0.541580	0.629068
Zn3	Zn	1.465900	0.874913	0.962401
Zn4	Zn	0.799143	0.295674	0.208296
Zn5	Zn	1.132476	0.629008	0.541629
Zn6	Zn	1.465810	0.962341	0.874963
Zn7	Zn	0.711803	0.208248	0.208299
Zn8	Zn	1.045136	0.541581	0.541632
Zn9	Zn	1.378469	0.874915	0.874965
Zn10	Zn	0.711748	0.295646	0.295686
Zn11	Zn	1.045082	0.628979	0.629019
Zn12	Zn	1.378415	0.962313	0.962352
O13	O	0.755482	0.251954	0.252004
O14	O	1.088815	0.585287	0.585337
O15	O	1.422149	0.918620	0.918670
O16	O	0.872387	0.219855	0.284155
O17	O	1.205720	0.553189	0.617488
O18	O	1.539054	0.886522	0.950822
O19	O	0.787542	0.284089	0.135131
O20	O	1.120875	0.617423	0.468464
O21	O	1.454209	0.950756	0.801798
O22	O	0.723461	0.135083	0.219919
O23	O	1.056795	0.468416	0.553252
O24	O	1.390128	0.801749	0.886586
O25	O	0.872320	0.284088	0.219914
O26	O	1.205654	0.617422	0.553247
O27	O	1.538987	0.950755	0.886581
O28	O	0.787697	0.135082	0.284158
O29	O	1.121030	0.468415	0.617491
O30	O	1.454363	0.801748	0.950825
O31	O	0.723373	0.219858	0.135133
O32	O	1.056707	0.553191	0.468467
O33	O	1.390040	0.886524	0.801800
O34	O	0.638630	0.219830	0.219872
O35	O	0.971964	0.553164	0.553205
O36	O	1.305297	0.886497	0.886538
O37	O	0.723369	0.284040	0.368858
O38	O	1.056702	0.617373	0.702191
O39	O	1.390035	0.950707	1.035524
O40	O	0.638590	0.284041	0.284074
O41	O	0.971924	0.617375	0.617408
O42	O	1.305257	0.950708	0.950741
O43	O	0.787644	0.219828	0.368893
O44	O	1.120977	0.553161	0.702227
O45	O	1.454310	0.886495	1.035560
O46	O	0.787489	0.368836	0.219867
O47	O	1.120823	0.702169	0.553200
O48	O	1.454156	1.035502	0.886533
O49	O	0.723281	0.368815	0.284072
O50	O	1.056614	0.702148	0.617405
O51	O	1.389947	1.035482	0.950738
C52	C	0.619639	0.251933	0.251968
C53	C	0.952973	0.585266	0.585302
C54	C	1.286306	0.918600	0.918635
C55	C	0.561525	0.251937	0.251966
C56	C	0.894859	0.585270	0.585299
C57	C	1.228192	0.918604	0.918632
C58	C	0.755383	0.387796	0.251975
C59	C	1.088717	0.721130	0.585308
C60	C	1.422050	1.054463	0.918642
C61	C	0.755389	0.445910	0.251980
C62	C	1.088722	0.779244	0.585313
C63	C	1.422056	1.112577	0.918647
C64	C	0.201150	0.285444	0.285403
C65	C	0.534484	0.618778	0.618736
C66	C	0.867817	0.952111	0.952069
C67	C	0.146546	0.285448	0.285411
C68	C	0.479879	0.618781	0.618744
C69	C	0.813213	0.952114	0.952077
O70	O	0.118299	0.313911	0.313810
O71	O	0.451632	0.647244	0.647143
O72	O	0.784966	0.980578	0.980477
N73	N	0.119243	0.251968	0.252038
N74	N	0.452576	0.585301	0.585371
N75	N	0.785910	0.918635	0.918705
C76	C	0.146547	0.218480	0.218658
C77	C	0.479880	0.551813	0.551992
C78	C	0.813213	0.885146	0.885325
O79	O	0.118309	0.190003	0.190273
O80	O	0.451643	0.523336	0.523607
O81	O	0.784976	0.856669	0.856940
C82	C	0.201150	0.218474	0.218653
C83	C	0.534483	0.551808	0.551986
C84	C	0.867817	0.885141	0.885320
C85	C	0.228450	0.251960	0.252024
C86	C	0.561784	0.585293	0.585358
C87	C	0.895117	0.918626	0.918691
C88	C	0.228451	0.318926	0.318772
C89	C	0.561784	0.652260	0.652105
C90	C	0.895117	0.985593	0.985438
C91	C	0.283051	0.318924	0.318762
C92	C	0.616385	0.652257	0.652096
C93	C	0.949718	0.985590	0.985429
C94	C	0.310351	0.285439	0.285384
C95	C	0.643685	0.618772	0.618718
C96	C	0.977018	0.952106	0.952051
C97	C	0.283051	0.251957	0.252015
C98	C	0.616384	0.585290	0.585349
C99	C	0.949718	0.918624	0.918682
C100	C	0.228453	0.184983	0.185277
C101	C	0.561786	0.518317	0.518610
C102	C	0.895120	0.851650	0.851943
C103	C	0.283060	0.184981	0.185275
C104	C	0.616393	0.518314	0.518608
C105	C	0.949727	0.851647	0.851941
C106	C	0.310360	0.218466	0.218646
C107	C	0.643694	0.551799	0.551979
C108	C	0.977027	0.885133	0.885313
C109	C	0.364952	0.218469	0.218628
C110	C	0.698285	0.551803	0.551962
C111	C	1.031618	0.885136	0.885295
N112	N	0.392255	0.251949	0.252001
N113	N	0.725588	0.585282	0.585334
N114	N	1.058922	0.918615	0.918668
C115	C	0.364955	0.285434	0.285379
C116	C	0.698288	0.618767	0.618713
C117	C	1.031621	0.952100	0.952046
C118	C	0.031876	0.218493	0.218673
C119	C	0.365210	0.551826	0.552006
C120	C	0.698543	0.885160	0.885339
C121	C	-0.022726	0.218501	0.218675
C122	C	0.310607	0.551834	0.552008
C123	C	0.643941	0.885167	0.885341
C124	C	-0.022723	0.285468	0.285428
C125	C	0.310610	0.618801	0.618761
C126	C	0.643944	0.952135	0.952095
C127	C	0.031880	0.285463	0.285423
C128	C	0.365213	0.618796	0.618756
C129	C	0.698547	0.952129	0.952089
C130	C	0.059179	0.251972	0.252045
C131	C	0.392513	0.585306	0.585379
C132	C	0.725846	0.918639	0.918712
C133	C	0.479620	0.285426	0.285357
C134	C	0.812953	0.618759	0.618691
C135	C	1.146286	0.952092	0.952024
C136	C	0.534225	0.285422	0.285344
C137	C	0.867559	0.618755	0.618677
C138	C	1.200892	0.952088	0.952010
C139	C	0.534217	0.218453	0.218593
C140	C	0.867551	0.551786	0.551926
C141	C	1.200884	0.885119	0.885259
C142	C	0.479617	0.218459	0.218604
C143	C	0.812950	0.551792	0.551937
C144	C	1.146284	0.885125	0.885271
C145	C	0.452319	0.251947	0.251991
C146	C	0.785653	0.585280	0.585324
C147	C	1.118986	0.918613	0.918657
O148	O	0.393233	0.190019	0.190245
O149	O	0.726567	0.523352	0.523578
O150	O	1.059900	0.856686	0.856912
O151	O	0.393199	0.313901	0.313764
O152	O	0.726532	0.647234	0.647098
O153	O	1.059866	0.980567	0.980431
C154	C	0.788959	0.806272	0.218609
C155	C	1.122293	1.139605	0.551943
C156	C	1.455626	1.472938	0.885276
C157	C	0.788975	0.860876	0.218614
C158	C	1.122309	1.194209	0.551948
C159	C	1.455642	1.527543	0.885281
O160	O	0.817448	0.889111	0.190225
O161	O	1.150782	1.222445	0.523558
O162	O	1.484115	1.555778	0.856892
N163	N	0.755524	0.888193	0.252015
N164	N	1.088857	1.221526	0.585349
N165	N	1.422191	1.554859	0.918682
C166	C	0.722059	0.860903	0.285418
C167	C	1.055392	1.194236	0.618751
C168	C	1.388725	1.527569	0.952084
O169	O	0.693608	0.889152	0.313829
O170	O	1.026941	1.222485	0.647162
O171	O	1.360274	1.555818	0.980495
C172	C	0.722046	0.806299	0.285415
C173	C	1.055379	1.139633	0.618748
C174	C	1.388712	1.472966	0.952082
C175	C	0.755495	0.778985	0.252008
C176	C	1.088828	1.112319	0.585341
C177	C	1.422162	1.445652	0.918674
C178	C	0.822406	0.778958	0.185205
C179	C	1.155740	1.112291	0.518539
C180	C	1.489073	1.445624	0.851872
C181	C	0.822390	0.724357	0.185200
C182	C	1.155723	1.057690	0.518533
C183	C	1.489056	1.391024	0.851866
C184	C	0.788926	0.697071	0.218598
C185	C	1.122259	1.030404	0.551931
C186	C	1.455592	1.363737	0.885265
C187	C	0.755478	0.724385	0.252002
C188	C	1.088812	1.057718	0.585335
C189	C	1.422145	1.391051	0.918669
C190	C	0.688583	0.779010	0.318819
C191	C	1.021916	1.112343	0.652153
C192	C	1.355250	1.445677	0.985486
C193	C	0.688573	0.724403	0.318814
C194	C	1.021907	1.057736	0.652147
C195	C	1.355240	1.391070	0.985481
C196	C	0.722023	0.697089	0.285407
C197	C	1.055356	1.030422	0.618740
C198	C	1.388689	1.363756	0.952073
C199	C	0.721997	0.642498	0.285395
C200	C	1.055331	0.975831	0.618728
C201	C	1.388664	1.309164	0.952062
N202	N	0.755449	0.615181	0.251994
N203	N	1.088782	0.948514	0.585327
N204	N	1.422115	1.281847	0.918660
C205	C	0.788913	0.642467	0.218595
C206	C	1.122246	0.975801	0.551929
C207	C	1.455579	1.309134	0.885262
C208	C	0.722089	0.975573	0.285422
C209	C	1.055422	1.308906	0.618755
C210	C	1.388756	1.642240	0.952088
C211	C	0.722099	1.030175	0.285422
C212	C	1.055432	1.363509	0.618755
C213	C	1.388766	1.696842	0.952089
C214	C	0.789016	1.030145	0.218619
C215	C	1.122350	1.363478	0.551953
C216	C	1.455683	1.696812	0.885286
C217	C	0.789003	0.975542	0.218616
C218	C	1.122337	1.308875	0.551950
C219	C	1.455670	1.642208	0.885283
C220	C	0.755540	0.948256	0.252020
C221	C	1.088873	1.281590	0.585354
C222	C	1.422207	1.614923	0.918687
C223	C	0.788874	0.527802	0.218586
C224	C	1.122208	0.861136	0.551919
C225	C	1.455541	1.194469	0.885252
C226	C	0.788853	0.473197	0.218582
C227	C	1.122186	0.806530	0.551915
C228	C	1.455520	1.139864	0.885248
C229	C	0.721938	0.473232	0.285386
C230	C	1.055271	0.806565	0.618719
C231	C	1.388604	1.139899	0.952053
C232	C	0.721957	0.527833	0.285389
C233	C	1.055290	0.861166	0.618722
C234	C	1.388624	1.194499	0.952055
C235	C	0.755430	0.555116	0.251987
C236	C	1.088763	0.888450	0.585320
C237	C	1.422096	1.221783	0.918653
O238	O	0.693540	0.614228	0.313771
O239	O	1.026874	0.947561	0.647105
O240	O	1.360207	1.280894	0.980438
O241	O	0.817364	0.614212	0.190194
O242	O	1.150697	0.947545	0.523527
O243	O	1.484030	1.280878	0.856860
C244	C	0.891855	0.251975	0.252040
C245	C	1.225188	0.585308	0.585373
C246	C	1.558522	0.918641	0.918706
C247	C	0.949969	0.251984	0.252055
C248	C	1.283302	0.585317	0.585388
C249	C	1.616636	0.918650	0.918722
C250	C	0.755510	0.251931	0.388377
C251	C	1.088844	0.585264	0.721710
C252	C	1.422177	0.918597	1.055044
C253	C	0.755522	0.251921	0.446491
C254	C	1.088856	0.585254	0.779824
C255	C	1.422189	0.918588	1.113158
C256	C	0.755575	1.115581	0.252035
C257	C	1.088909	1.448914	0.585368
C258	C	1.422242	1.782247	0.918702
C259	C	0.755565	1.057467	0.252025
C260	C	1.088899	1.390800	0.585359
C261	C	1.422232	1.724133	0.918692
C262	C	0.755484	0.251939	0.116161
C263	C	1.088817	0.585272	0.449495
C264	C	1.422150	0.918606	0.782828
C265	C	0.755573	0.251802	0.058048
C266	C	1.088906	0.585135	0.391381
C267	C	1.422240	0.918468	0.724714
C268	C	0.788949	0.285323	0.697676
C269	C	1.122282	0.618657	1.031009
C270	C	1.455615	0.951990	1.364342
C271	C	0.788943	0.285334	0.643071
C272	C	1.122277	0.618668	0.976405
C273	C	1.455610	0.952001	1.309738
O274	O	0.817339	0.313792	0.614827
O275	O	1.150672	0.647126	0.948161
O276	O	1.484006	0.980459	1.281494
N277	N	0.755534	0.251895	0.615765
N278	N	1.088867	0.585229	0.949098
N279	N	1.422200	0.918562	1.282432
C280	C	0.722124	0.218447	0.643065
C281	C	1.055457	0.551781	0.976399
C282	C	1.388790	0.885114	1.309732
O283	O	0.693706	0.190006	0.614825
O284	O	1.027039	0.523340	0.948158
O285	O	1.360372	0.856673	1.281492
C286	C	0.722127	0.218439	0.697669
C287	C	1.055460	0.551773	1.031002
C288	C	1.388794	0.885106	1.364335
C289	C	0.755542	0.251877	0.724973
C290	C	1.088876	0.585210	1.058306
C291	C	1.422209	0.918543	1.391639
C292	C	0.822361	0.318758	0.724980
C293	C	1.155694	0.652092	1.058313
C294	C	1.489028	0.985425	1.391646
C295	C	0.822367	0.318747	0.779580
C296	C	1.155700	0.652080	1.112914
C297	C	1.489034	0.985413	1.446247
C298	C	0.788961	0.285300	0.806877
C299	C	1.122294	0.618633	1.140210
C300	C	1.455627	0.951967	1.473544
C301	C	0.755549	0.251865	0.779573
C302	C	1.088882	0.585198	1.112906
C303	C	1.422215	0.918532	1.446240
C304	C	0.688715	0.184994	0.724968
C305	C	1.022048	0.518328	1.058302
C306	C	1.355382	0.851661	1.391635
C307	C	0.688721	0.184990	0.779575
C308	C	1.022054	0.518323	1.112909
C309	C	1.355387	0.851656	1.446242
C310	C	0.722136	0.218427	0.806879
C311	C	1.055470	0.551760	1.140213
C312	C	1.388803	0.885093	1.473546
C313	C	0.722148	0.218406	0.861470
C314	C	1.055482	0.551740	1.194804
C315	C	1.388815	0.885073	1.528137
N316	N	0.755558	0.251845	0.888777
N317	N	1.088891	0.585179	1.222110
N318	N	1.422225	0.918512	1.555444
C319	C	0.788964	0.285292	0.861480
C320	C	1.122297	0.618625	1.194814
C321	C	1.455631	0.951959	1.528147
C322	C	0.722119	0.218467	0.528395
C323	C	1.055452	0.551800	0.861728
C324	C	1.388786	0.885134	1.195061
C325	C	0.722118	0.218472	0.473792
C326	C	1.055451	0.551805	0.807126
C327	C	1.388785	0.885139	1.140459
C328	C	0.788937	0.285360	0.473802
C329	C	1.122270	0.618693	0.807136
C330	C	1.455603	0.952026	1.140469
C331	C	0.788940	0.285352	0.528406
C332	C	1.122273	0.618685	0.861739
C333	C	1.455607	0.952019	1.195072
C334	C	0.755528	0.251906	0.555701
C335	C	1.088862	0.585239	0.889035
C336	C	1.422195	0.918573	1.222368
C337	C	0.788975	0.285265	0.976145
C338	C	1.122308	0.618598	1.309479
C339	C	1.455641	0.951931	1.642812
C340	C	0.788979	0.285248	1.030751
C341	C	1.122313	0.618582	1.364084
C342	C	1.455646	0.951915	1.697417
C343	C	0.722159	0.218363	1.030736
C344	C	1.055492	0.551696	1.364070
C345	C	1.388825	0.885029	1.697403
C346	C	0.722156	0.218377	0.976136
C347	C	1.055489	0.551710	1.309469
C348	C	1.388822	0.885043	1.642802
C349	C	0.755565	0.251832	0.948842
C350	C	1.088899	0.585165	1.282175
C351	C	1.422232	0.918499	1.615508
O352	O	0.693765	0.189965	0.889749
O353	O	1.027099	0.523298	1.223083
O354	O	1.360432	0.856631	1.556416
O355	O	0.817373	0.313733	0.889727
O356	O	1.150706	0.647066	1.223061
O357	O	1.484039	0.980400	1.556394
H358	H	0.556451	0.312691	0.312519
H359	H	0.889784	0.646025	0.645852
H360	H	1.223117	0.979358	0.979186
O361	O	0.689510	0.446695	0.317885
O362	O	1.022843	0.780028	0.651218
O363	O	1.356177	1.113361	0.984551
C364	C	0.719258	0.415055	0.351667
C365	C	1.052592	0.748389	0.685000
C366	C	1.385925	1.081722	1.018334
H367	H	0.760437	0.431477	0.354938
H368	H	1.093771	0.764810	0.688271
H369	H	1.427104	1.098143	1.021605
H370	H	0.700330	0.414423	0.391886
H371	H	1.033663	0.747757	0.725219
H372	H	1.366997	1.081090	1.058553
H373	H	0.721063	0.373682	0.335495
H374	H	1.054396	0.707015	0.668828
H375	H	1.387730	1.040348	1.002161
H376	H	0.661324	0.702190	0.346017
H377	H	0.994657	1.035523	0.679350
H378	H	1.327991	1.368856	1.012684
O379	O	0.656039	0.805559	0.351200
O380	O	0.989372	1.138892	0.684534
O381	O	1.322705	1.472226	1.017867
C382	C	0.622297	0.837205	0.321413
C383	C	0.955630	1.170538	0.654746
C384	C	1.288963	1.503872	0.988079
H385	H	0.619079	0.820782	0.280227
H386	H	0.952413	1.154116	0.613560
H387	H	1.285746	1.487449	0.946893
H388	H	0.582052	0.837847	0.340288
H389	H	0.915386	1.171180	0.673622
H390	H	1.248719	1.504514	1.006955
H391	H	0.638472	0.878575	0.319636
H392	H	0.971805	1.211908	0.652970
H393	H	1.305139	1.545241	0.986303
H394	H	0.849629	0.702121	0.157998
H395	H	1.182962	1.035454	0.491332
H396	H	1.516295	1.368788	0.824665
H397	H	-0.044961	0.312732	0.312608
H398	H	0.288372	0.646065	0.645941
H399	H	0.621706	0.979398	0.979275
O400	O	0.855001	0.805465	0.152850
O401	O	1.188335	1.138798	0.486183
O402	O	1.521668	1.472131	0.819516
C403	C	0.888757	0.836991	0.182672
C404	C	1.222090	1.170324	0.516005
C405	C	1.555423	1.503657	0.849338
H406	H	0.891911	0.820519	0.223860
H407	H	1.225245	1.153853	0.557193
H408	H	1.558578	1.487186	0.890527
H409	H	0.929020	0.837542	0.163836
H410	H	1.262354	1.170876	0.497169
H411	H	1.595687	1.504209	0.830503
H412	H	0.872635	0.878402	0.184434
H413	H	1.205969	1.211736	0.517768
H414	H	1.539302	1.545069	0.851101
O415	O	0.202023	0.152403	0.152845
O416	O	0.535356	0.485737	0.486179
O417	O	0.868690	0.819070	0.819512
C418	C	0.237838	0.122859	0.123383
C419	C	0.571172	0.456192	0.456716
C420	C	0.904505	0.789525	0.790049
H421	H	0.276774	0.121086	0.144801
H422	H	0.610107	0.454419	0.478134
H423	H	0.943440	0.787753	0.811468
H424	H	0.222092	0.081654	0.117888
H425	H	0.555425	0.414987	0.451222
H426	H	0.888758	0.748321	0.784555
H427	H	0.243611	0.141945	0.083635
H428	H	0.576944	0.475278	0.416969
H429	H	0.910278	0.808611	0.750302
O430	O	0.058369	0.186020	0.186166
O431	O	0.391703	0.519354	0.519500
O432	O	0.725036	0.852687	0.852833
C433	C	0.044974	0.197373	0.134040
C434	C	0.378308	0.530706	0.467373
C435	C	0.711641	0.864040	0.800707
H436	H	0.029941	0.239141	0.131330
H437	H	0.363274	0.572474	0.464663
H438	H	0.696607	0.905808	0.797997
H439	H	0.080868	0.192830	0.108209
H440	H	0.414201	0.526163	0.441542
H441	H	0.747534	0.859496	0.774875
H442	H	0.013284	0.169329	0.120430
H443	H	0.346617	0.502662	0.453763
H444	H	0.679951	0.835996	0.787097
O445	O	-0.049261	0.186057	0.186189
O446	O	0.284072	0.519390	0.519522
O447	O	0.617406	0.852723	0.852856
C448	C	-0.080889	0.215783	0.152376
C449	C	0.252445	0.549116	0.485710
C450	C	0.585778	0.882450	0.819043
H451	H	-0.064465	0.256959	0.149083
H452	H	0.268869	0.590293	0.482416
H453	H	0.602202	0.923626	0.815750
H454	H	-0.081507	0.196827	0.112170
H455	H	0.251826	0.530161	0.445503
H456	H	0.585159	0.863494	0.778836
H457	H	-0.122267	0.217600	0.168533
H458	H	0.211066	0.550933	0.501866
H459	H	0.544399	0.884266	0.835200
H460	H	0.694721	0.550073	0.312593
H461	H	1.028055	0.883406	0.645926
H462	H	1.361388	1.216739	0.979260
H463	H	0.305284	0.157705	0.158097
H464	H	0.638618	0.491038	0.491430
H465	H	0.971951	0.824372	0.824764
O466	O	0.854841	0.351178	0.698411
O467	O	1.188175	0.684511	1.031744
O468	O	1.521508	1.017844	1.365078
C469	C	0.888646	0.321421	0.666862
C470	C	1.221979	0.654754	1.000195
C471	C	1.555313	0.988087	1.333529
H472	H	0.870237	0.281799	0.658679
H473	H	1.203570	0.615132	0.992012
H474	H	1.536903	0.948465	1.325345
H475	H	0.895642	0.342728	0.628465
H476	H	1.228975	0.676062	0.961798
H477	H	1.562308	1.009395	1.295132
H478	H	0.927394	0.315673	0.687930
H479	H	1.260727	0.649007	1.021264
H480	H	1.594060	0.982340	1.354597
O481	O	0.821456	0.317781	1.057192
O482	O	1.154789	0.651115	1.390526
O483	O	1.488123	0.984448	1.723859
C484	C	0.850947	0.347295	1.021386
C485	C	1.184280	0.680629	1.354719
C486	C	1.517613	1.013962	1.688053
H487	H	0.829523	0.349108	0.982455
H488	H	1.162857	0.682442	1.315789
H489	H	1.496190	1.015775	1.649122
H490	H	0.856492	0.388488	1.037152
H491	H	1.189825	0.721822	1.370485
H492	H	1.523158	1.055155	1.703818
H493	H	0.890671	0.328157	1.015597
H494	H	1.224004	0.661490	1.348930
H495	H	1.557338	0.994823	1.682264
O496	O	0.689636	0.185901	1.057201
O497	O	1.022969	0.519234	1.390535
O498	O	1.356303	0.852568	1.723868
C499	C	0.637515	0.197334	1.043849
C500	C	0.970848	0.530668	1.377182
C501	C	1.304181	0.864001	1.710515
H502	H	0.636409	0.217435	1.004194
H503	H	0.969742	0.550768	1.337528
H504	H	1.303076	0.884101	1.670861
H505	H	0.614097	0.159599	1.041990
H506	H	0.947431	0.492932	1.375323
H507	H	1.280764	0.826266	1.708657
H508	H	0.619891	0.224213	1.074564
H509	H	0.953224	0.557546	1.407897
H510	H	1.286558	0.890880	1.741230
O511	O	0.821456	0.317688	0.949580
O512	O	1.154789	0.651022	1.282914
O513	O	1.488123	0.984355	1.616247
C514	C	0.855259	0.287935	0.918027
C515	C	1.188592	0.621268	1.251360
C516	C	1.521925	0.954601	1.584694
H517	H	0.836850	0.248313	0.909842
H518	H	1.170183	0.581646	1.243176
H519	H	1.503516	0.914979	1.576509
H520	H	0.862251	0.309245	0.879631
H521	H	1.195585	0.642578	1.212964
H522	H	1.528918	0.975912	1.546297
H523	H	0.894008	0.282187	0.939092
H524	H	1.227342	0.615520	1.272425
H525	H	1.560675	0.948854	1.605759
O526	O	0.689613	0.185970	0.447354
O527	O	1.022946	0.519304	0.780687
O528	O	1.356280	0.852637	1.114020
C529	C	0.660142	0.156440	0.483162
C530	C	0.993475	0.489773	0.816496
C531	C	1.326809	0.823106	1.149829
H532	H	0.658321	0.177850	0.522078
H533	H	0.991655	0.511183	0.855411
H534	H	1.324988	0.844517	1.188744
H535	H	0.618949	0.150857	0.467377
H536	H	0.952282	0.484191	0.800710
H537	H	1.285616	0.817524	1.134043
H538	H	0.679323	0.116733	0.488988
H539	H	1.012656	0.450066	0.822322
H540	H	1.345990	0.783400	1.155655
H541	H	0.661504	0.157767	0.702747
H542	H	0.994837	0.491100	1.036080
H543	H	1.328170	0.824434	1.369414
O544	O	0.854839	0.351282	0.806018
O545	O	1.188172	0.684615	1.139352
O546	O	1.521506	1.017948	1.472685
C547	C	0.884327	0.380793	0.770207
C548	C	1.217660	0.714126	1.103541
C549	C	1.550993	1.047460	1.436874
H550	H	0.862903	0.382598	0.731277
H551	H	1.196236	0.715931	1.064610
H552	H	1.529570	1.049265	1.397943
H553	H	0.889868	0.421989	0.785967
H554	H	1.223201	0.755322	1.119300
H555	H	1.556535	1.088655	1.452633
H556	H	0.924053	0.361657	0.764421
H557	H	1.257386	0.694990	1.097754
H558	H	1.590719	1.028324	1.431088
O559	O	0.453189	0.318004	0.317806
O560	O	0.786522	0.651338	0.651139
O561	O	1.119856	0.984671	0.984472
C562	C	0.489003	0.347542	0.347262
C563	C	0.822336	0.680875	0.680596
C564	C	1.155670	1.014209	1.013929
H565	H	0.527909	0.349317	0.325832
H566	H	0.861242	0.682650	0.659165
H567	H	1.194575	1.015983	0.992499
H568	H	0.473209	0.388747	0.352769
H569	H	0.806543	0.722080	0.686102
H570	H	1.139876	1.055413	1.019435
H571	H	0.494850	0.328449	0.387004
H572	H	0.828184	0.661782	0.720338
H573	H	1.161517	0.995116	1.053671
O574	O	0.821545	1.056576	0.186129
O575	O	1.154878	1.389909	0.519462
O576	O	1.488211	1.723243	0.852796
C577	C	0.851080	1.020763	0.156653
C578	C	1.184413	1.354097	0.489986
C579	C	1.517746	1.687430	0.823320
H580	H	0.829658	0.981860	0.154810
H581	H	1.162991	1.315193	0.488143
H582	H	1.496324	1.648527	0.821477
H583	H	0.856688	1.036562	0.115468
H584	H	1.190022	1.369896	0.448801
H585	H	1.523355	1.703229	0.782135
H586	H	0.890774	1.014909	0.175844
H587	H	1.224108	1.348242	0.509178
H588	H	1.557441	1.681576	0.842511
H589	H	0.694953	0.191142	0.953904
H590	H	1.028287	0.524476	1.287237
H591	H	1.361620	0.857809	1.620570
H592	H	0.816150	0.312580	0.550633
H593	H	1.149483	0.645913	0.883966
H594	H	1.482816	0.979246	1.217299
O595	O	0.689658	1.056681	0.317945
O596	O	1.022991	1.390015	0.651278
O597	O	1.356324	1.723348	0.984612
C598	C	0.701041	1.043284	0.370064
C599	C	1.034375	1.376617	0.703397
C600	C	1.367708	1.709950	1.036731
H601	H	0.742806	1.028235	0.372746
H602	H	1.076139	1.361568	0.706079
H603	H	1.409472	1.694901	1.039412
H604	H	0.696529	1.079180	0.395897
H605	H	1.029863	1.412513	0.729230
H606	H	1.363196	1.745846	1.062564
H607	H	0.672995	1.011604	0.383694
H608	H	1.006328	1.344938	0.717027
H609	H	1.339662	1.678271	1.050361
O610	O	0.560802	0.186000	0.186146
O611	O	0.894135	0.519333	0.519479
O612	O	1.227468	0.852667	0.852813
C613	C	0.592340	0.215720	0.152311
C614	C	0.925673	0.549053	0.485644
C615	C	1.259006	0.882386	0.818978
H616	H	0.600499	0.255370	0.170674
H617	H	0.933832	0.588704	0.504007
H618	H	1.267165	0.922037	0.837341
H619	H	0.630749	0.194415	0.145347
H620	H	0.964083	0.527748	0.478680
H621	H	1.297416	0.861082	0.812013
H622	H	0.571275	0.221405	0.113553
H623	H	0.904608	0.554739	0.446886
H624	H	1.237941	0.888072	0.780220
H625	H	0.305274	0.346190	0.345938
H626	H	0.638608	0.679523	0.679271
H627	H	0.971941	1.012857	1.012605
O628	O	0.202017	0.351507	0.351213
O629	O	0.535351	0.684840	0.684546
O630	O	0.868684	1.018174	1.017880
C631	C	0.237833	0.381043	0.380669
C632	C	0.571166	0.714377	0.714003
C633	C	0.904500	1.047710	1.047336
H634	H	0.276741	0.382810	0.359242
H635	H	0.610074	0.716144	0.692575
H636	H	0.943407	1.049477	1.025908
H637	H	0.222045	0.422250	0.386170
H638	H	0.555378	0.755584	0.719503
H639	H	0.888711	1.088917	1.052837
H640	H	0.243675	0.361954	0.420414
H641	H	0.577008	0.695287	0.753747
H642	H	0.910341	1.028620	1.087081
H643	H	0.457388	0.191193	0.191429
H644	H	0.790721	0.524526	0.524763
H645	H	1.124054	0.857860	0.858096
H646	H	0.694835	0.953360	0.312621
H647	H	1.028168	1.286693	0.645955
H648	H	1.361501	1.620027	0.979288
O649	O	0.689737	0.185946	0.554967
O650	O	1.023071	0.519280	0.888300
O651	O	1.356404	0.852613	1.221634
C652	C	0.719533	0.152166	0.586565
C653	C	1.052866	0.485499	0.919898
C654	C	1.386199	0.818833	1.253231
H655	H	0.759140	0.170611	0.594760
H656	H	1.092473	0.503944	0.928093
H657	H	1.425807	0.837277	1.261427
H658	H	0.698241	0.145147	0.624953
H659	H	1.031574	0.478481	0.958287
H660	H	1.364908	0.811814	1.291620
H661	H	0.725310	0.113425	0.565533
H662	H	1.058643	0.446759	0.898867
H663	H	1.391977	0.780092	1.232200
O664	O	0.821463	0.554239	0.186164
O665	O	1.154797	0.887572	0.519497
O666	O	1.488130	1.220905	0.852830
C667	C	0.873560	0.540839	0.197656
C668	C	1.206893	0.874172	0.530989
C669	C	1.540227	1.207505	0.864323
H670	H	0.874611	0.501185	0.217761
H671	H	1.207944	0.834518	0.551095
H672	H	1.541277	1.167852	0.884428
H673	H	0.897026	0.538955	0.159947
H674	H	1.230359	0.872288	0.493280
H675	H	1.563692	1.205621	0.826614
H676	H	0.891171	0.571540	0.224551
H677	H	1.224504	0.904873	0.557885
H678	H	1.557837	1.238206	0.891218
O679	O	0.821323	0.446722	0.186057
O680	O	1.154656	0.780056	0.519390
O681	O	1.487990	1.113389	0.852723
C682	C	0.809924	0.460098	0.133936
C683	C	1.143257	0.793432	0.467269
C684	C	1.476590	1.126765	0.800602
H685	H	0.789835	0.499763	0.132836
H686	H	1.123169	0.833096	0.466169
H687	H	1.456502	1.166430	0.799503
H688	H	0.847673	0.461946	0.110533
H689	H	1.181006	0.795279	0.443866
H690	H	1.514339	1.128613	0.777199
H691	H	0.783046	0.429403	0.116291
H692	H	1.116379	0.762736	0.449625
H693	H	1.449713	1.096069	0.782958
H694	H	0.816241	0.953306	0.191414
H695	H	1.149575	1.286639	0.524747
H696	H	1.482908	1.619973	0.858081
H697	H	0.816137	0.312595	0.451567
H698	H	1.149471	0.645928	0.784901
H699	H	1.482804	0.979261	1.118234
H700	H	0.661512	0.157753	0.801797
H701	H	0.994846	0.491086	1.135130
H702	H	1.328179	0.824420	1.468464
H703	H	0.054105	0.312728	0.312597
H704	H	0.387438	0.646062	0.645931
H705	H	0.720771	0.979395	0.979264
