data_functionalizedCrystal
_audit_creation_method	'MofGen! by Chris Wilmer'
_symmetry_space_group_name_H-M	'P1'
_symmetry_Int_Tables_number	1
_symmetry_cell_setting	triclinic
loop_
_symmetry_equiv_pos_as_xyz
  x,y,z
_cell_length_a	12.645331
_cell_length_b	11.169416
_cell_length_c	12.645331
_cell_angle_alpha	89.997031
_cell_angle_beta	89.999107
_cell_angle_gamma	90.009575
loop_
_atom_site_label
_atom_site_type_symbol
_atom_site_fract_x
_atom_site_fract_y
_atom_site_fract_z
Zn1	Zn	1.620611	-0.478135	0.599260
Zn2	Zn	1.620567	-0.678757	0.422004
Zn3	Zn	1.443377	-0.478084	0.422026
Zn4	Zn	1.443330	-0.678772	0.599241
O5	O	1.531972	-0.578437	0.510633
O6	O	1.768953	-0.504763	0.575745
O7	O	1.597064	-0.652110	0.273660
O8	O	1.466926	-0.310141	0.445553
O9	O	1.768920	-0.652159	0.445517
O10	O	1.597139	-0.310179	0.575766
O11	O	1.466883	-0.504676	0.273676
O12	O	1.295024	-0.504691	0.445535
O13	O	1.466846	-0.652185	0.747591
O14	O	1.294989	-0.652136	0.575734
O15	O	1.597093	-0.504778	0.747605
O16	O	1.597018	-0.846709	0.445499
O17	O	1.466803	-0.846720	0.575714
C18	C	1.256542	-0.578410	0.510636
C19	C	1.138712	-0.578427	0.510662
C20	C	1.531930	-0.890262	0.510625
C21	C	1.532009	-1.023662	0.510657
C22	C	0.971162	-0.671693	0.592143
C23	C	1.093722	-0.671392	0.592484
C24	C	1.094211	-0.452035	0.541181
C25	C	0.971612	-0.452604	0.541754
C26	C	0.971502	-0.610536	0.398403
C27	C	1.094109	-0.613301	0.399009
C28	C	1.808477	-0.578465	0.510631
C29	C	1.926307	-0.578477	0.510630
C30	C	1.531969	-0.578489	0.787138
C31	C	1.531968	-0.578511	0.904968
C32	C	1.532043	-0.265395	0.510664
C33	C	1.532073	-0.131995	0.510678
C34	C	1.449728	-0.670895	1.072523
C35	C	1.449979	-0.671288	0.949964
C36	C	1.643659	-0.612861	0.949475
C37	C	1.643173	-0.613504	1.072073
C38	C	1.503464	-0.451459	1.072167
C39	C	1.501008	-0.452157	0.949560
C40	C	1.531962	-0.578430	1.235203
C41	C	1.531951	-0.578462	1.117373
H42	H	1.123810	-0.765122	0.573358
H43	H	0.940344	-0.650756	0.674815
C44	C	1.584351	-0.358417	1.111363
H45	H	1.635238	-0.396717	1.155066
H46	H	1.618820	-0.322950	1.052420
H47	H	1.548891	-0.298195	1.150813
C48	C	0.931336	-0.798734	0.566604
H49	H	0.886991	-0.796068	0.506006
H50	H	0.989997	-0.849561	0.552979
H51	H	0.892426	-0.828942	0.625073
H52	H	1.123044	-0.650180	0.675640
H53	H	0.941940	-0.380665	0.485106
C54	C	1.337482	-0.642176	1.112340
H55	H	1.339754	-0.573562	1.156679
H56	H	1.292563	-0.626834	1.053675
H57	H	1.310887	-0.708415	1.151255
C58	C	1.395333	-0.409206	1.113926
H59	H	1.366545	-0.468635	1.159324
H60	H	1.404003	-0.336620	1.152101
H61	H	1.348730	-0.396325	1.056111
H62	H	1.667320	-0.706342	1.100683
C63	C	1.728670	-0.524758	0.910100
H64	H	1.696725	-0.466107	0.866058
H65	H	1.761009	-0.486650	0.968959
H66	H	1.780715	-0.567170	0.870969
C67	C	0.932968	-0.415876	0.652587
H68	H	0.992195	-0.400755	0.696839
H69	H	0.891123	-0.345505	0.647320
H70	H	0.891760	-0.478732	0.681989
H71	H	1.123352	-0.380697	0.483665
C72	C	1.389977	-0.417150	0.910254
H73	H	1.362597	-0.479268	0.866843
H74	H	1.344531	-0.405430	0.969164
H75	H	1.394313	-0.345161	0.870476
C76	C	1.474870	-0.797289	1.114164
H77	H	1.535262	-0.793974	1.158759
H78	H	1.416166	-0.826725	1.153173
H79	H	1.488714	-0.849141	1.056248
H80	H	1.668237	-0.704696	0.918785
H81	H	1.556536	-0.379613	0.918931
H82	H	1.706514	-0.549101	1.101743
C83	C	1.135647	-0.414631	0.650825
H84	H	1.180055	-0.475861	0.678149
H85	H	1.174804	-0.342383	0.644632
H86	H	1.077627	-0.402604	0.697352
H87	H	0.942495	-0.542638	0.337669
H88	H	0.940599	-0.701127	0.370664
H89	H	1.124737	-0.550328	0.335017
C90	C	1.133430	-0.738935	0.367901
H91	H	1.176852	-0.770013	0.422719
H92	H	1.074530	-0.790394	0.357471
H93	H	1.173202	-0.733892	0.304319
C94	C	1.338099	-0.642234	0.909305
H95	H	1.292084	-0.630091	0.967716
H96	H	1.340361	-0.571678	0.867419
H97	H	1.312819	-0.707026	0.867713
C98	C	1.475398	-0.798435	0.910354
H99	H	1.485628	-0.850044	0.969192
H100	H	1.418292	-0.827156	0.868656
H101	H	1.537960	-0.796554	0.868792
