data_functionalizedCrystal
_audit_creation_method	'MofGen! by Chris Wilmer'
_symmetry_space_group_name_H-M	'P1'
_symmetry_Int_Tables_number	1
_symmetry_cell_setting	triclinic
loop_
_symmetry_equiv_pos_as_xyz
  x,y,z
_cell_length_a	9.616153
_cell_length_b	8.597227
_cell_length_c	8.597304
_cell_angle_alpha	95.708869
_cell_angle_beta	82.297915
_cell_angle_gamma	97.709915
loop_
_atom_site_label
_atom_site_type_symbol
_atom_site_fract_x
_atom_site_fract_y
_atom_site_fract_z
O1	O	-0.393689	-2.086101	0.234186
O2	O	-0.341123	-1.629430	0.252185
O3	O	-0.341122	-1.866750	0.014857
O4	O	-0.393690	-1.848781	0.471514
O5	O	-0.109827	-1.866717	0.014862
O6	O	-0.109828	-1.629397	0.252190
O7	O	-0.162395	-2.086068	0.234191
Zn8	Zn	-0.099388	-1.857727	0.243191
Zn9	Zn	-0.404129	-1.857771	0.243185
O10	O	-0.162395	-1.848748	0.471519
C11	C	-0.218234	-1.570911	0.250260
C12	C	-0.196655	-1.396590	0.244499
N13	N	0.108588	-1.857709	0.243194
N14	N	-0.612105	-1.857801	0.243169
C15	C	0.329057	-1.730366	0.369718
C16	C	0.167798	-1.730651	0.370197
C17	C	0.142755	-2.022064	0.281477
C18	C	0.303949	-2.021372	0.282374
C19	C	0.352537	-1.822329	0.077981
C20	C	0.191635	-1.818569	0.079027
C21	C	-0.218236	-1.864803	-0.043641
C22	C	-0.196665	-1.859030	-0.217956
C23	C	-0.285282	-1.144586	0.236128
C24	C	-0.306859	-1.318902	0.241926
C25	C	-0.285284	-1.850695	0.530017
C26	C	-0.306864	-1.856468	0.704331
H27	H	-0.417714	-1.385748	0.244144
H28	H	-0.085799	-1.856788	-0.284784
C29	C	0.093355	-1.761300	0.533658
C30	C	0.193567	-1.779631	0.632376
C31	C	0.125041	-1.807899	0.782965
H32	H	0.043949	-1.674833	0.575184
H33	H	0.028312	-1.854535	0.527319
H34	H	0.258586	-1.686407	0.638720
H35	H	0.242979	-1.866101	0.590900
H36	H	0.059998	-1.901134	0.776627
H37	H	0.075637	-1.721427	0.824476
H38	H	0.193022	-1.820354	0.849960
H39	H	0.145690	-1.608564	0.347018
C40	C	-0.048722	-1.307693	0.241313
C41	C	0.036750	-1.363034	0.107948
C42	C	0.173035	-1.281196	0.104972
H43	H	-0.053166	-1.198431	0.237618
H44	H	-0.009797	-1.323927	0.333454
H45	H	-0.002165	-1.346787	0.015830
H46	H	0.041236	-1.472286	0.111615
H47	H	0.211961	-1.297430	0.197113
H48	H	0.168577	-1.171937	0.101281
H49	H	0.231048	-1.318743	0.014493
H50	H	0.323392	-2.052245	0.402921
H51	H	0.341796	-2.119295	0.193970
C52	C	-0.454779	-1.859665	-0.206782
C53	C	-0.540280	-1.993034	-0.262113
C54	C	-0.676549	-1.996013	-0.180260
H55	H	-0.450310	-1.863362	-0.097525
H56	H	-0.493699	-1.767521	-0.223007
H57	H	-0.501369	-2.085154	-0.245875
H58	H	-0.544791	-1.989366	-0.371359
H59	H	-0.715469	-1.903869	-0.196485
H60	H	-0.672065	-1.999705	-0.071007
H61	H	-0.734581	-2.086493	-0.217800
C62	C	0.403777	-1.566989	0.339163
C63	C	0.304563	-1.470014	0.313511
C64	C	0.373356	-1.319504	0.285329
H65	H	0.449495	-1.523588	0.427791
H66	H	0.472016	-1.574075	0.248790
H67	H	0.236350	-1.462922	0.403873
H68	H	0.258841	-1.513364	0.224879
H69	H	0.441594	-1.326590	0.194957
H70	H	0.419071	-1.276119	0.373962
H71	H	0.306052	-1.253692	0.267906
H72	H	0.103495	-2.119253	0.191865
C73	C	0.065086	-2.064214	0.440495
C74	C	0.163361	-2.083463	0.541230
C75	C	0.091869	-2.122303	0.687727
H76	H	0.011259	-1.982164	0.484805
H77	H	0.003767	-2.159579	0.427227
H78	H	0.224656	-1.988110	0.554502
H79	H	0.217193	-2.165518	0.496970
H80	H	0.030550	-2.217668	0.674458
H81	H	0.038044	-2.040247	0.732022
H82	H	0.158537	-2.135383	0.756088
H83	H	0.352246	-1.752978	0.491557
C84	C	0.431081	-1.665711	0.029655
C85	C	0.333382	-1.564840	0.008975
C86	C	0.405684	-1.420552	-0.035544
H87	H	0.486738	-1.619442	0.109449
H88	H	0.490730	-1.682528	-0.066336
H89	H	0.273757	-1.548019	0.104954
H90	H	0.277722	-1.611059	-0.070825
H91	H	0.465333	-1.437370	-0.131535
H92	H	0.461338	-1.374298	0.044256
H93	H	0.339407	-1.352099	-0.049595
H94	H	0.171399	-1.697655	0.050033
H95	H	0.152801	-1.905154	-0.019748
H96	H	0.390808	-1.915232	-0.016222
