data_functionalizedCrystal
_audit_creation_method	'MofGen! by Chris Wilmer'
_symmetry_space_group_name_H-M	'P1'
_symmetry_Int_Tables_number	1
_symmetry_cell_setting	triclinic
loop_
_symmetry_equiv_pos_as_xyz
  x,y,z
_cell_length_a	14.971486
_cell_length_b	19.288857
_cell_length_c	13.448316
_cell_angle_alpha	89.991240
_cell_angle_beta	89.998199
_cell_angle_gamma	83.373619
loop_
_atom_site_label
_atom_site_type_symbol
_atom_site_fract_x
_atom_site_fract_y
_atom_site_fract_z
O1	O	1.186455	0.090518	-0.082582
O2	O	1.519788	0.423851	0.250751
O3	O	1.853121	0.757184	0.584084
O4	O	0.925996	0.101357	-0.082610
O5	O	1.259329	0.434691	0.250723
O6	O	1.592662	0.768024	0.584057
O7	O	1.063755	-0.005169	-0.082583
O8	O	1.397088	0.328165	0.250750
O9	O	1.730421	0.661498	0.584083
O10	O	1.048696	0.197044	-0.082609
O11	O	1.382029	0.530377	0.250724
O12	O	1.715362	0.863710	0.584058
O13	O	1.063738	-0.005175	0.082800
O14	O	1.397071	0.328158	0.416134
O15	O	1.730404	0.661491	0.749467
O16	O	0.925978	0.101351	0.082774
O17	O	1.259312	0.434684	0.416107
O18	O	1.592645	0.768017	0.749440
O19	O	1.186438	0.090511	0.082801
O20	O	1.519771	0.423844	0.416135
O21	O	1.853104	0.757178	0.749468
Cu22	Cu	1.056206	0.095930	0.097888
Cu23	Cu	1.389540	0.429264	0.431222
Cu24	Cu	1.722873	0.762597	0.764555
Cu25	Cu	1.056227	0.095938	-0.097697
Cu26	Cu	1.389560	0.429271	0.235636
Cu27	Cu	1.722893	0.762605	0.568970
O28	O	1.048678	0.197037	0.082775
O29	O	1.382012	0.530370	0.416108
O30	O	1.715345	0.863704	0.749442
C31	C	0.892665	0.100869	0.000078
C32	C	1.225998	0.434203	0.333412
C33	C	1.559332	0.767536	0.666745
C34	C	0.793376	0.099417	0.000068
C35	C	1.126709	0.432750	0.333402
C36	C	1.460042	0.766083	0.666735
C37	C	0.735810	0.161998	0.000062
C38	C	1.069143	0.495331	0.333395
C39	C	1.402477	0.828664	0.666729
C40	C	0.642518	0.160629	0.000077
C41	C	0.975851	0.493962	0.333410
C42	C	1.309185	0.827295	0.666744
C43	C	0.606794	0.096678	0.000091
C44	C	0.940127	0.430011	0.333425
C45	C	1.273460	0.763344	0.666758
C46	C	0.664367	0.034092	0.000101
C47	C	0.997700	0.367425	0.333434
C48	C	1.331034	0.700758	0.666767
C49	C	0.757657	0.035462	0.000093
C50	C	1.090990	0.368795	0.333426
C51	C	1.424324	0.702128	0.666759
C52	C	0.469920	0.031241	0.000115
C53	C	0.803253	0.364574	0.333448
C54	C	1.136587	0.697908	0.666781
C55	C	0.376623	0.029871	0.000121
C56	C	0.709957	0.363204	0.333454
C57	C	1.043290	0.696537	0.666787
C58	C	0.354781	0.156408	0.000099
C59	C	0.688114	0.489741	0.333432
C60	C	1.021447	0.823075	0.666765
C61	C	0.448071	0.157778	0.000091
C62	C	0.781404	0.491111	0.333424
C63	C	1.114738	0.824445	0.666758
C64	C	0.505638	0.095192	0.000099
C65	C	0.838971	0.428525	0.333432
C66	C	1.172304	0.761858	0.666765
C67	C	1.063263	-0.031050	0.000109
C68	C	1.396596	0.302283	0.333443
C69	C	1.729929	0.635617	0.666776
C70	C	1.061812	-0.108159	0.000112
C71	C	1.395145	0.225175	0.333445
C72	C	1.728478	0.558508	0.666779
C73	C	1.061144	-0.144368	-0.090039
C74	C	1.394477	0.188966	0.243294
C75	C	1.727811	0.522299	0.576628
C76	C	1.059768	-0.216818	-0.090046
C77	C	1.393101	0.116515	0.243287
C78	C	1.726434	0.449848	0.576620
C79	C	1.059077	-0.253059	0.000102
C80	C	1.392411	0.080275	0.333435
C81	C	1.725744	0.413608	0.666769
C82	C	1.059740	-0.216840	0.090265
C83	C	1.393074	0.116493	0.423598
C84	C	1.726407	0.449827	0.756932
C85	C	1.061107	-0.144390	0.090270
C86	C	1.394441	0.188943	0.423603
C87	C	1.727774	0.522277	0.756937
C88	C	1.109294	-0.373129	0.069167
C89	C	1.442627	-0.039796	0.402500
C90	C	1.775961	0.293538	0.735833
C91	C	1.107932	-0.445578	0.069158
C92	C	1.441266	-0.112245	0.402491
C93	C	1.774599	0.221088	0.735825
C94	C	1.054856	-0.476518	0.000090
C95	C	1.388190	-0.143185	0.333424
C96	C	1.721523	0.190148	0.666757
C97	C	1.003154	-0.435001	-0.068985
C98	C	1.336487	-0.101668	0.264348
C99	C	1.669821	0.231666	0.597681
C100	C	1.004521	-0.362551	-0.068980
C101	C	1.337854	-0.029218	0.264353
C102	C	1.671188	0.304116	0.597686
C103	C	1.057594	-0.331618	0.000107
C104	C	1.390928	0.001715	0.333440
C105	C	1.724261	0.335048	0.666773
C106	C	1.052695	-0.591286	-0.090075
C107	C	1.386028	-0.257953	0.243258
C108	C	1.719362	0.075380	0.576592
C109	C	1.051313	-0.663738	-0.090079
C110	C	1.384647	-0.330404	0.243255
C111	C	1.717980	0.002929	0.576588
C112	C	1.051295	-0.663759	0.090235
C113	C	1.384628	-0.330426	0.423569
C114	C	1.717962	0.002908	0.756902
C115	C	1.052668	-0.591308	0.090236
C116	C	1.386001	-0.257975	0.423570
C117	C	1.719334	0.075358	0.756903
C118	C	1.053372	-0.555077	0.000079
C119	C	1.386705	-0.221743	0.333412
C120	C	1.720039	0.111590	0.666745
C121	C	1.219768	0.090999	0.000111
C122	C	1.553102	0.424333	0.333444
C123	C	1.886435	0.757666	0.666777
C124	C	1.319057	0.092452	0.000114
C125	C	1.652391	0.425785	0.333448
C126	C	1.985724	0.759119	0.666781
C127	C	1.049170	0.222919	0.000080
C128	C	1.382504	0.556252	0.333413
C129	C	1.715837	0.889585	0.666747
C130	C	1.050622	0.300027	0.000071
C131	C	1.383955	0.633360	0.333404
C132	C	1.717288	0.966694	0.666737
N133	N	1.056199	0.095924	0.235453
N134	N	1.389532	0.429258	0.568786
N135	N	1.722865	0.762591	0.902119
N136	N	1.056242	0.095939	-0.235261
N137	N	1.389575	0.429272	0.098072
N138	N	1.722908	0.762605	0.431405
C139	C	1.117217	0.048774	0.287505
C140	C	1.450550	0.382108	0.620838
C141	C	1.783884	0.715441	0.954172
C142	C	1.117223	0.048774	0.391608
C143	C	1.450556	0.382107	0.724941
C144	C	1.783889	0.715440	1.058275
C145	C	1.056213	0.095927	0.443657
C146	C	1.389547	0.429261	0.776991
C147	C	1.722880	0.762594	1.110324
C148	C	0.995188	0.143080	0.391598
C149	C	1.328522	0.476413	0.724931
C150	C	1.661855	0.809746	1.058265
C151	C	0.995179	0.143076	0.287497
C152	C	1.328513	0.476410	0.620830
C153	C	1.661846	0.809743	0.954163
C154	C	0.995213	0.143084	0.608578
C155	C	1.328546	0.476418	0.941911
C156	C	1.661880	0.809751	1.275245
C157	C	0.995223	0.143089	0.712686
C158	C	1.328556	0.476422	1.046020
C159	C	1.661890	0.809755	1.379353
C160	C	1.117257	0.048782	0.712690
C161	C	1.450590	0.382115	1.046023
C162	C	1.783923	0.715448	1.379356
C163	C	1.117248	0.048778	0.608588
C164	C	1.450581	0.382112	0.941922
C165	C	1.783914	0.715445	1.275255
C166	C	1.056223	0.095932	0.556536
C167	C	1.389557	0.429265	0.889869
C168	C	1.722890	0.762599	1.223203
H169	H	0.635273	-0.017978	0.000127
H170	H	0.968606	0.315355	0.333460
H171	H	1.301940	0.648688	0.666793
H172	H	0.945518	0.181480	0.566200
H173	H	1.278851	0.514813	0.899534
H174	H	1.612184	0.848146	1.232867
Cl175	Cl	0.282412	0.235088	0.000091
Cl176	Cl	0.615745	0.568421	0.333425
Cl177	Cl	0.949078	0.901755	0.666758
Cl178	Cl	1.050422	-0.709311	0.203566
Cl179	Cl	1.383755	-0.375978	0.536900
Cl180	Cl	1.717088	-0.042644	0.870233
H181	H	0.804527	-0.015499	0.000098
H182	H	1.137860	0.317835	0.333431
H183	H	1.471194	0.651168	0.666764
H184	H	0.347540	-0.022204	0.000134
H185	H	0.680873	0.311130	0.333467
H186	H	1.014207	0.644463	0.666800
Cl187	Cl	0.918520	0.202369	0.778112
Cl188	Cl	1.251853	0.535702	1.111445
Cl189	Cl	1.585186	0.869036	1.444779
Cl190	Cl	1.053573	-0.545734	-0.203414
Cl191	Cl	1.386906	-0.212401	0.129920
Cl192	Cl	1.720240	0.120932	0.463253
H193	H	0.477154	0.209852	0.000070
H194	H	0.810488	0.543186	0.333403
H195	H	1.143821	0.876519	0.666736
Cl196	Cl	1.058928	-0.262348	-0.203388
Cl197	Cl	1.392261	0.070985	0.129945
Cl198	Cl	1.725594	0.404319	0.463279
Cl199	Cl	0.918463	0.202352	0.222060
Cl200	Cl	1.251797	0.535685	0.555394
Cl201	Cl	1.585130	0.869018	0.888727
H202	H	0.764889	0.214074	0.000049
H203	H	1.098222	0.547407	0.333383
H204	H	1.431555	0.880741	0.666716
Cl205	Cl	1.193950	-0.010496	0.543153
Cl206	Cl	1.527284	0.322837	0.876486
Cl207	Cl	1.860617	0.656170	1.209819
Cl208	Cl	0.570153	0.239306	0.000063
Cl209	Cl	0.903486	0.572639	0.333396
Cl210	Cl	1.236819	0.905973	0.666729
Cl211	Cl	1.058865	-0.262398	0.203595
Cl212	Cl	1.392199	0.070936	0.536928
Cl213	Cl	1.725532	0.404269	0.870261
Cl214	Cl	1.061946	-0.098867	0.203612
Cl215	Cl	1.395279	0.234466	0.536945
Cl216	Cl	1.728613	0.567799	0.870279
Cl217	Cl	1.172932	-0.497764	0.155991
Cl218	Cl	1.506266	-0.164431	0.489324
Cl219	Cl	1.839599	0.168903	0.822658
H220	H	0.945509	0.181471	0.433982
H221	H	1.278842	0.514804	0.767316
H222	H	1.612176	0.848137	1.100649
H223	H	1.050765	-0.693218	-0.163494
H224	H	1.384098	-0.359884	0.169840
H225	H	1.717432	-0.026551	0.503173
Cl226	Cl	0.542288	-0.047440	0.000126
Cl227	Cl	0.875622	0.285893	0.333459
Cl228	Cl	1.208955	0.619226	0.666793
Cl229	Cl	1.053507	-0.545785	0.203576
Cl230	Cl	1.386840	-0.212452	0.536909
Cl231	Cl	1.720174	0.120881	0.870243
Cl232	Cl	1.193972	-0.010495	0.778130
Cl233	Cl	1.527306	0.322838	1.111463
Cl234	Cl	1.860639	0.656172	1.444797
Cl235	Cl	1.062023	-0.098823	-0.203380
Cl236	Cl	1.395356	0.234511	0.129953
Cl237	Cl	1.728689	0.567844	0.463287
H238	H	1.152514	-0.347944	0.125417
H239	H	1.485847	-0.014611	0.458751
H240	H	1.819180	0.318722	0.792084
H241	H	1.166902	0.010379	0.245133
H242	H	1.500235	0.343713	0.578467
H243	H	1.833568	0.677046	0.911800
Cl244	Cl	0.936421	-0.473888	-0.155815
Cl245	Cl	1.269754	-0.140554	0.177518
Cl246	Cl	1.603087	0.192779	0.510852
Cl247	Cl	0.939523	-0.310360	-0.155809
Cl248	Cl	1.272856	0.022973	0.177524
Cl249	Cl	1.606189	0.356306	0.510858
H250	H	1.166908	0.010380	0.433988
H251	H	1.500241	0.343713	0.767322
H252	H	1.833575	0.677047	1.100655
