data_functionalizedCrystal
_audit_creation_method	'MofGen! by Chris Wilmer'
_symmetry_space_group_name_H-M	'P1'
_symmetry_Int_Tables_number	1
_symmetry_cell_setting	triclinic
loop_
_symmetry_equiv_pos_as_xyz
  x,y,z
_cell_length_a	13.032831
_cell_length_b	18.050589
_cell_length_c	13.033352
_cell_angle_alpha	82.828541
_cell_angle_beta	89.095163
_cell_angle_gamma	82.833186
loop_
_atom_site_label
_atom_site_type_symbol
_atom_site_fract_x
_atom_site_fract_y
_atom_site_fract_z
Zn1	Zn	1.498141	-0.501730	0.780808
Zn2	Zn	1.519902	-0.612332	0.608834
Zn3	Zn	1.348060	-0.470657	0.587056
Zn4	Zn	1.326110	-0.608356	0.758954
O5	O	1.423053	-0.548269	0.683913
O6	O	1.644940	-0.531070	0.776256
O7	O	1.515399	-0.582199	0.462033
O8	O	1.368048	-0.370865	0.612789
O9	O	1.660927	-0.612329	0.649907
O10	O	1.478312	-0.393694	0.755138
O11	O	1.389148	-0.478111	0.446033
O12	O	1.201236	-0.474255	0.591598
O13	O	1.330638	-0.605551	0.905765
O14	O	1.185110	-0.575421	0.717891
O15	O	1.457029	-0.527214	0.921821
O16	O	1.494116	-0.715719	0.628716
O17	O	1.351738	-0.712798	0.739009
C18	C	1.155858	-0.521035	0.650010
C19	C	1.041548	-0.509405	0.635531
C20	C	0.982645	-0.554339	0.691470
C21	C	0.864500	-0.542319	0.676506
C22	C	1.422931	-0.741207	0.683880
C23	C	1.422969	-0.823759	0.683912
C24	C	1.345615	-1.021653	0.743874
C25	C	1.332495	-1.061129	0.646856
C26	C	1.423068	-0.974901	0.683939
C27	C	1.436237	-1.082512	0.780973
C28	C	1.423161	-1.120897	0.683972
C29	C	1.409906	-1.013281	0.586865
C30	C	1.513683	-1.034669	0.721051
C31	C	1.500607	-1.074122	0.623973
C32	C	1.423012	-0.890796	0.683920
C33	C	1.423219	-1.205000	0.683980
C34	C	1.691292	-0.575609	0.717948
C35	C	1.805599	-0.587260	0.732452
C36	C	1.388958	-0.569405	0.952151
C37	C	1.374428	-0.578412	1.066458
C38	C	1.423201	-0.354582	0.683972
C39	C	1.423264	-0.272044	0.683997
C40	C	1.430486	-0.543668	1.125364
C41	C	1.415470	-0.552976	1.243506
C42	C	1.457008	-0.527232	1.416717
C43	C	1.471536	-0.518227	1.302410
H44	H	1.019683	-0.601706	0.750442
N45	N	0.818033	-0.482888	0.602537
N46	N	0.722125	-0.473205	0.590491
H47	H	0.689305	-0.431231	0.538252
N48	N	1.450192	-1.120249	0.883895
N49	N	1.526630	-1.168620	0.905076
H50	H	1.536479	-1.195271	0.977765
N51	N	1.300269	-0.624365	1.112919
N52	N	1.288173	-0.631858	1.208824
H53	H	1.235795	-0.664312	1.241638
N54	N	1.545694	-0.472253	1.255989
N55	N	1.537422	-0.403970	1.267069
H56	H	1.589795	-0.371500	1.234286
N57	N	1.341295	-0.598926	1.289949
N58	N	1.268216	-0.570803	1.341602
H59	H	1.215828	-0.603253	1.374404
N60	N	1.263356	-0.992777	0.807328
N61	N	1.250587	-0.924386	0.818073
H62	H	1.192490	-0.903989	0.862881
N63	N	0.995112	-0.449970	0.561556
N64	N	1.006181	-0.383208	0.570042
H65	H	0.973389	-0.341229	0.517795
N66	N	0.852061	-0.646685	0.806433
N67	N	0.947969	-0.656368	0.818485
H68	H	0.980786	-0.698337	0.870732
H69	H	1.255908	-1.073151	0.615493
H70	H	1.398714	-0.983282	0.504784
H71	H	1.590247	-1.022651	0.752457
N72	N	1.582834	-1.102780	0.560317
N73	N	1.585284	-1.078551	0.466293
H74	H	1.643353	-1.098791	0.421332
H75	H	1.489592	-0.507028	1.088330
