data_functionalizedCrystal
_audit_creation_method	'MofGen! by Chris Wilmer'
_symmetry_space_group_name_H-M	'P1'
_symmetry_Int_Tables_number	1
_symmetry_cell_setting	triclinic
loop_
_symmetry_equiv_pos_as_xyz
  x,y,z
_cell_length_a	18.426585
_cell_length_b	17.052862
_cell_length_c	17.052832
_cell_angle_alpha	45.842616
_cell_angle_beta	77.684430
_cell_angle_gamma	70.265468
loop_
_atom_site_label
_atom_site_type_symbol
_atom_site_fract_x
_atom_site_fract_y
_atom_site_fract_z
Zr1	Zr	0.869304	0.878619	-0.240997
O2	O	0.807197	1.046070	-0.395009
O3	O	0.868598	0.711166	-0.175857
O4	O	0.930124	0.878623	-0.369163
O5	O	0.719598	0.878610	-0.069613
O6	O	1.049552	0.878628	-0.369167
O7	O	0.745671	0.878613	-0.201703
O8	O	0.939492	0.579078	-0.023378
O9	O	0.829657	1.178160	-0.415401
O10	O	0.981279	0.780047	-0.169737
O11	O	0.872694	0.780041	-0.071156
O12	O	0.945133	0.977200	-0.298749
O13	O	0.836548	0.977194	-0.200168
Zr14	Zr	1.018194	0.878624	-0.030334
Zr15	Zr	1.059777	0.878628	-0.241003
Zr16	Zr	0.827721	0.878615	-0.030328
Zr17	Zr	0.905125	1.089288	-0.273520
Zr18	Zr	0.982372	0.667955	0.002189
O19	O	1.018899	1.046077	-0.095474
O20	O	1.078025	1.046082	-0.395019
O21	O	0.748071	1.046065	-0.095465
O22	O	1.080300	0.711173	0.123678
O23	O	1.139426	0.711178	-0.175866
O24	O	0.809472	0.711161	0.123688
O25	O	1.167899	0.878632	-0.201718
O26	O	0.957373	0.878620	0.097832
O27	O	0.837946	0.878615	0.097836
O28	O	1.141827	0.878630	-0.069628
O29	O	0.981058	1.178167	-0.415407
O30	O	0.906439	0.579076	0.144076
O31	O	1.057840	0.579083	0.144070
O32	O	1.090893	0.579085	-0.023383
O33	O	0.796604	1.178157	-0.247948
O34	O	0.948005	1.178165	-0.247953
O35	O	0.942364	0.780043	0.027418
O36	O	1.050949	0.780049	-0.071163
O37	O	1.014803	0.977202	-0.200175
O38	O	0.906218	0.977196	-0.101594
C39	C	0.898941	0.615106	-0.094984
C40	C	0.883734	0.525671	-0.081176
C41	C	1.067590	0.273591	-0.248104
C42	C	1.081877	0.357624	-0.261084
C43	C	1.032343	0.399639	-0.216108
C44	C	0.968518	0.357615	-0.158150
C45	C	0.954226	0.273580	-0.145177
C46	C	0.918979	0.399628	-0.113181
C47	C	0.855154	0.357604	-0.055223
C48	C	0.840865	0.273576	-0.042251
C49	C	0.890399	0.231560	-0.087227
C50	C	0.933271	0.483663	-0.126154
C51	C	0.819908	0.483652	-0.023227
C52	C	0.805620	0.399619	-0.010247
C53	C	0.705496	0.878610	-0.135657
C54	C	0.624635	0.878607	-0.135654
C55	C	0.328529	0.878641	-0.135677
C56	C	0.410914	0.878636	-0.135674
C57	C	0.476580	0.878624	-0.135666
C58	C	0.558970	0.878619	-0.135662
C59	C	1.182001	0.878633	-0.135674
C60	C	1.262862	0.878636	-0.135677
C61	C	0.995763	0.878626	-0.399180
C62	C	1.013416	0.878627	-0.488615
C63	C	0.988556	1.142137	-0.176347
C64	C	1.003763	1.231571	-0.190155
C65	C	0.799992	0.878609	-0.740697
C66	C	0.783406	0.878600	-0.656664
C67	C	0.840906	0.878607	-0.614648
C68	C	0.914997	0.878622	-0.656672
C69	C	0.931586	0.878622	-0.740708
C70	C	0.972501	0.878621	-0.614659
C71	C	1.046591	0.878636	-0.656683
C72	C	1.063177	0.878636	-0.740711
C73	C	1.005676	0.878629	-0.782727
C74	C	0.955911	0.878621	-0.530623
C75	C	1.087506	0.878634	-0.530634
C76	C	1.104092	0.878643	-0.614667
C77	C	0.891735	0.878617	0.127849
C78	C	0.874082	0.878616	0.217284
C79	C	1.137194	0.615117	-0.094992
C80	C	1.202848	0.525686	-0.081188
C81	C	0.846927	0.615102	0.168531
C82	C	0.814067	0.525666	0.271773
C83	C	1.085180	0.615113	0.168523
C84	C	1.133181	0.525681	0.271762
C85	C	0.802317	1.142130	-0.439854
C86	C	0.754317	1.231562	-0.543093
C87	C	0.750303	1.142126	-0.176339
C88	C	0.684650	1.231556	-0.190143
C89	C	1.040570	1.142141	-0.439862
C90	C	1.073430	1.231577	-0.543104
C91	C	1.197314	0.483687	-0.126169
C92	C	1.259001	0.399669	-0.113220
C93	C	1.326219	0.357646	-0.055283
C94	C	1.331752	0.399653	-0.010301
C95	C	1.270068	0.483676	-0.023257
C96	C	0.835001	0.483667	0.371720
C97	C	0.804122	0.399644	0.468733
C98	C	0.752314	0.357615	0.465797
C99	C	0.731378	0.399622	0.365839
C100	C	0.762252	0.483650	0.268828
C101	C	1.212411	0.483685	0.268786
C102	C	1.257523	0.399666	0.365780
C103	C	1.223403	0.357637	0.465749
C104	C	1.144166	0.399641	0.468722
C105	C	1.099056	0.483665	0.371729
C106	C	0.675088	1.273568	-0.540118
C107	C	0.629980	1.357614	-0.637116
C108	C	0.664101	1.399646	-0.737087
C109	C	0.743337	1.357637	-0.740059
C110	C	0.788445	1.273599	-0.643063
C111	C	0.690186	1.273564	-0.145172
C112	C	0.628508	1.357606	-0.158148
C113	C	0.561291	1.399632	-0.216089
C114	C	0.555757	1.357621	-0.261065
C115	C	0.617437	1.273587	-0.248096
C116	C	1.125236	1.273579	-0.540133
C117	C	1.156126	1.357603	-0.637129
C118	C	1.135204	1.399629	-0.737097
C119	C	1.083395	1.357619	-0.740066
C120	C	1.052510	1.273591	-0.643069
H121	H	1.043980	0.468063	-0.226680
N122	N	0.823009	0.878609	-0.524020
H123	H	0.832009	0.948601	-0.549580
H124	H	0.857684	0.808582	-0.458013
H125	H	1.240205	0.517892	0.187395
N126	N	0.615445	1.490274	-0.841700
H127	H	0.635242	1.560013	-0.892918
H128	H	0.560089	1.510403	-0.824545
H129	H	1.274581	0.517860	0.013380
N130	N	1.147808	1.228251	-0.432313
H131	H	1.132760	1.292358	-0.434333
H132	H	1.205408	1.193367	-0.419123
N133	N	0.703496	0.878603	-0.611354
H134	H	0.701712	0.878603	-0.551746
H135	H	0.690494	0.808615	-0.580243
H136	H	1.198308	1.391798	-0.634692
H137	H	1.142591	0.517902	-0.173359
N138	N	1.392740	0.267015	-0.041311
H139	H	1.403697	0.197277	0.039142
H140	H	1.440022	0.296350	-0.075174
H141	H	0.895586	0.878608	-0.496414
N142	N	0.996625	1.228314	-0.646297
H143	H	0.945861	1.242946	-0.615994
H144	H	1.018573	1.143975	-0.600727
H145	H	0.788890	0.239370	0.004932
N146	N	0.494763	1.490251	-0.230050
H147	H	0.451336	1.510503	-0.273574
H148	H	0.512434	1.559916	-0.270059
H149	H	1.134328	0.878637	-0.496423
N150	N	1.143084	0.878675	-0.786047
H151	H	1.181807	0.808703	-0.725638
H152	H	1.156038	0.948722	-0.817229
H153	H	0.647292	1.239349	-0.458726
N154	N	1.253025	0.354373	-0.161740
H155	H	1.201079	0.393741	-0.200398
H156	H	1.258855	0.270017	-0.101478
N157	N	1.184000	0.878661	-0.659998
H158	H	1.185780	0.878662	-0.719606
H159	H	1.222669	0.808676	-0.599517
H160	H	0.565464	1.391803	-0.634675
H161	H	0.689192	0.365390	0.363465
N162	N	0.874997	0.140913	-0.073219
H163	H	0.875868	0.071188	0.007240
H164	H	0.916081	0.120769	-0.110558
N165	N	0.737982	0.878585	-0.786001
H166	H	0.759737	0.878582	-0.845607
H167	H	0.693515	0.948568	-0.817115
N168	N	0.780133	1.402977	-0.847887
H169	H	0.739528	1.462583	-0.908873
H170	H	0.804346	1.338807	-0.845774
N171	N	0.826712	0.354333	0.576539
H172	H	0.811667	0.418450	0.574506
H173	H	0.884312	0.319453	0.589721
H174	H	0.852956	1.239399	-0.645497
N175	N	0.736784	0.354287	0.052265
H176	H	0.735251	0.294679	0.053657
H177	H	0.687964	0.418458	0.015346
N178	N	0.762679	1.228247	-0.082678
H179	H	0.756819	1.267626	-0.056169
H180	H	0.808040	1.242872	-0.132188
H181	H	1.160358	1.468050	-0.816070
N182	N	0.739621	0.528955	0.161045
H183	H	0.754655	0.464847	0.163068
H184	H	0.767018	0.588601	0.100055
N185	N	1.342982	0.354370	0.362559
H186	H	1.357744	0.393741	0.284510
H187	H	1.355753	0.270015	0.408207
H188	H	1.260143	0.289220	0.544720
N189	N	1.060832	1.402952	-0.847891
H190	H	1.088260	1.462559	-0.908879
H191	H	1.003225	1.437764	-0.861054
H192	H	1.116394	0.365409	0.550131
N193	N	1.013599	0.528951	0.374947
H194	H	0.998836	0.489567	0.452999
H195	H	0.984002	0.514313	0.344595
H196	H	0.633027	1.391797	-0.121516
N197	N	0.483250	1.402935	-0.323535
H198	H	0.445018	1.462533	-0.324909
H199	H	0.459970	1.338748	-0.286587
N200	N	0.611451	1.228286	-0.296604
H201	H	0.566626	1.193434	-0.264224
H202	H	0.660752	1.168716	-0.279596
N203	N	1.002106	0.528982	-0.188663
H204	H	1.050961	0.464872	-0.151779
H205	H	1.003576	0.588608	-0.190049
N206	N	1.023556	0.878649	-0.873372
H207	H	1.014547	0.808666	-0.847822
H208	H	1.079214	0.878699	-0.893588
H209	H	1.133842	0.391838	-0.308274
H210	H	1.107912	0.239382	-0.284726
H211	H	1.386489	0.365425	0.036871
N212	N	0.766478	0.528945	0.025301
H213	H	0.712649	0.563810	-0.007068
H214	H	0.785282	0.588505	0.008286
N215	N	0.890880	0.528984	0.374903
H216	H	0.899446	0.489621	0.452947
H217	H	0.868945	0.613339	0.329253
N218	N	0.719018	0.266984	0.570435
H219	H	0.740147	0.246758	0.634194
H220	H	0.733640	0.197310	0.581149
