data_functionalizedCrystal
_audit_creation_method	'MofGen! by Chris Wilmer'
_symmetry_space_group_name_H-M	'P1'
_symmetry_Int_Tables_number	1
_symmetry_cell_setting	triclinic
loop_
_symmetry_equiv_pos_as_xyz
  x,y,z
_cell_length_a	19.805407
_cell_length_b	19.805405
_cell_length_c	19.805398
_cell_angle_alpha	89.972361
_cell_angle_beta	89.988649
_cell_angle_gamma	90.024042
loop_
_atom_site_label
_atom_site_type_symbol
_atom_site_fract_x
_atom_site_fract_y
_atom_site_fract_z
Zn1	Zn	1.034691	-0.269521	-0.382692
Zn2	Zn	1.368024	0.063813	-0.049359
Zn3	Zn	1.701358	0.397146	0.283974
Zn4	Zn	1.034618	-0.382711	-0.269506
Zn5	Zn	1.367951	-0.049378	0.063827
Zn6	Zn	1.701285	0.283956	0.397161
Zn7	Zn	0.921518	-0.269536	-0.269520
Zn8	Zn	1.254852	0.063797	0.063813
Zn9	Zn	1.588185	0.397131	0.397146
Zn10	Zn	0.921469	-0.382668	-0.382656
Zn11	Zn	1.254802	-0.049334	-0.049323
Zn12	Zn	1.588135	0.283999	0.284011
O13	O	0.978074	-0.326109	-0.326094
O14	O	1.311407	0.007225	0.007240
O15	O	1.644741	0.340558	0.340573
O16	O	1.129398	-0.284547	-0.367687
O17	O	1.462731	0.048786	-0.034354
O18	O	1.796065	0.382120	0.298980
O19	O	1.019605	-0.367723	-0.174791
O20	O	1.352939	-0.034389	0.158542
O21	O	1.686272	0.298944	0.491876
O22	O	0.936582	-0.174817	-0.284554
O23	O	1.269916	0.158516	0.048779
O24	O	1.603249	0.491849	0.382113
O25	O	1.129344	-0.367708	-0.284529
O26	O	1.462678	-0.034374	0.048804
O27	O	1.796011	0.298959	0.382137
O28	O	1.019730	-0.174806	-0.367701
O29	O	1.353063	0.158527	-0.034368
O30	O	1.686397	0.491861	0.298966
O31	O	0.936512	-0.284573	-0.174802
O32	O	1.269845	0.048760	0.158532
O33	O	1.603178	0.382093	0.491865
O34	O	0.826795	-0.284531	-0.284519
O35	O	1.160129	0.048802	0.048814
O36	O	1.493462	0.382135	0.382148
O37	O	0.936498	-0.367634	-0.477378
O38	O	1.269831	-0.034301	-0.144044
O39	O	1.603164	0.299033	0.189289
O40	O	0.826759	-0.367649	-0.367639
O41	O	1.160092	-0.034315	-0.034306
O42	O	1.493425	0.299018	0.299027
O43	O	1.019682	-0.284505	-0.477404
O44	O	1.353015	0.048828	-0.144071
O45	O	1.686348	0.382162	0.189263
O46	O	1.019557	-0.477422	-0.284494
O47	O	1.352890	-0.144088	0.048839
O48	O	1.686224	0.189245	0.382172
O49	O	0.936427	-0.477390	-0.367625
O50	O	1.269760	-0.144057	-0.034292
O51	O	1.603093	0.189277	0.299041
C52	C	0.802218	-0.326088	-0.326077
C53	C	1.135551	0.007246	0.007256
C54	C	1.468885	0.340579	0.340589
C55	C	0.726986	-0.326095	-0.326086
C56	C	1.060319	0.007239	0.007247
C57	C	1.393653	0.340572	0.340580
C58	C	0.691670	-0.282870	-0.369452
C59	C	1.025004	0.050464	-0.036119
C60	C	1.358337	0.383797	0.297215
C61	C	0.620982	-0.282873	-0.369455
C62	C	0.954315	0.050460	-0.036121
C63	C	1.287649	0.383793	0.297212
C64	C	0.585610	-0.326106	-0.326094
C65	C	0.918944	0.007228	0.007239
C66	C	1.252277	0.340561	0.340572
C67	C	0.620931	-0.369333	-0.282724
C68	C	0.954264	-0.035999	0.050610
C69	C	1.287598	0.297334	0.383943
C70	C	0.691618	-0.369325	-0.282718
C71	C	1.024951	-0.035992	0.050615
C72	C	1.358285	0.297341	0.383949
C73	C	0.335858	-0.369363	-0.282744
C74	C	0.669191	-0.036030	0.050589
C75	C	1.002524	0.297303	0.383922
C76	C	0.265166	-0.369369	-0.282755
C77	C	0.598499	-0.036035	0.050579
C78	C	0.931832	0.297298	0.383912
C79	C	0.265222	-0.282911	-0.369481
C80	C	0.598555	0.050422	-0.036148
C81	C	0.931888	0.383756	0.297186
C82	C	0.335909	-0.282904	-0.369476
C83	C	0.669242	0.050430	-0.036142
C84	C	1.002575	0.383763	0.297191
C85	C	0.371223	-0.326128	-0.326103
C86	C	0.704556	0.007206	0.007231
C87	C	1.037890	0.340539	0.340564
C88	C	0.447871	-0.326123	-0.326099
C89	C	0.781205	0.007211	0.007234
C90	C	1.114538	0.340544	0.340567
C91	C	0.508963	-0.326115	-0.326100
C92	C	0.842297	0.007218	0.007233
C93	C	1.175630	0.340552	0.340566
C94	C	0.977997	-0.501965	-0.326069
C95	C	1.311330	-0.168631	0.007264
C96	C	1.644664	0.164702	0.340598
C97	C	0.978026	-0.577197	-0.326081
C98	C	1.311359	-0.243863	0.007252
C99	C	1.644693	0.089470	0.340585
C100	C	1.021295	-0.612477	-0.369410
C101	C	1.354628	-0.279143	-0.036076
C102	C	1.687962	0.054190	0.297257
C103	C	1.021320	-0.683165	-0.369422
C104	C	1.354653	-0.349832	-0.036089
C105	C	1.687986	-0.016499	0.297244
C106	C	0.978078	-0.718572	-0.326103
C107	C	1.311411	-0.385239	0.007231
C108	C	1.644744	-0.051906	0.340564
C109	C	0.934804	-0.683287	-0.282772
C110	C	1.268137	-0.349954	0.050561
C111	C	1.601470	-0.016621	0.383895
C112	C	0.934776	-0.612600	-0.282763
C113	C	1.268110	-0.279267	0.050570
C114	C	1.601443	0.054066	0.383903
C115	C	0.934912	-0.968361	-0.282807
C116	C	1.268246	-0.635027	0.050527
C117	C	1.601579	-0.301694	0.383860
C118	C	0.934944	-1.039053	-0.282817
C119	C	1.268278	-0.705719	0.050516
C120	C	1.601611	-0.372386	0.383849
C121	C	1.021456	-1.038926	-0.369466
C122	C	1.354789	-0.705592	-0.036132
C123	C	1.688122	-0.372259	0.297201
C124	C	1.021428	-0.968238	-0.369457
C125	C	1.354762	-0.634905	-0.036124
C126	C	1.688095	-0.301572	0.297210
C127	C	0.978152	-0.932960	-0.326129
C128	C	1.311485	-0.599626	0.007204
C129	C	1.644819	-0.266293	0.340537
C130	C	0.978125	-0.856311	-0.326117
C131	C	1.311458	-0.522978	0.007216
C132	C	1.644792	-0.189645	0.340549
C133	C	0.978107	-0.795219	-0.326111
C134	C	1.311441	-0.461886	0.007222
C135	C	1.644774	-0.128553	0.340556
C136	C	1.154617	-0.326130	-0.326111
C137	C	1.487950	0.007203	0.007223
C138	C	1.821283	0.340536	0.340556
C139	C	1.229849	-0.326140	-0.326118
C140	C	1.563182	0.007194	0.007216
C141	C	1.896515	0.340527	0.340549
C142	C	0.978092	-0.326063	-0.502636
C143	C	1.311425	0.007270	-0.169303
C144	C	1.644759	0.340604	0.164030
C145	C	0.978100	-0.326043	-0.577868
C146	C	1.311433	0.007290	-0.244535
C147	C	1.644767	0.340623	0.088798
C148	C	0.978170	-0.149566	-0.326133
C149	C	1.311503	0.183767	0.007200
C150	C	1.644837	0.517101	0.340534
C151	C	0.978211	-0.074334	-0.326150
C152	C	1.311544	0.258999	0.007184
C153	C	1.644877	0.592333	0.340517
C154	C	1.021473	-0.369232	-1.039652
C155	C	1.354807	-0.035898	-0.706318
C156	C	1.688140	0.297435	-0.372985
C157	C	1.021455	-0.369250	-0.968963
C158	C	1.354788	-0.035917	-0.635630
C159	C	1.688121	0.297417	-0.302297
C160	C	0.978184	-0.325967	-0.933630
C161	C	1.311517	0.007366	-0.600297
C162	C	1.644851	0.340700	-0.266964
C163	C	0.934924	-0.282668	-0.968990
C164	C	1.268257	0.050665	-0.635656
C165	C	1.601591	0.383999	-0.302323
C166	C	0.934940	-0.282653	-1.039677
C167	C	1.268273	0.050680	-0.706343
C168	C	1.601607	0.384013	-0.373010
C169	C	0.934859	-0.282726	-0.683916
C170	C	1.268192	0.050607	-0.350583
C171	C	1.601525	0.383941	-0.017249
C172	C	0.934848	-0.282742	-0.613224
C173	C	1.268181	0.050591	-0.279891
C174	C	1.601514	0.383924	0.053443
C175	C	1.021374	-0.369322	-0.613203
C176	C	1.354707	-0.035989	-0.279869
C177	C	1.688040	0.297344	0.053464
C178	C	1.021389	-0.369308	-0.683890
C179	C	1.354723	-0.035975	-0.350556
C180	C	1.688056	0.297359	-0.017223
C181	C	0.978127	-0.326012	-0.719243
C182	C	1.311461	0.007322	-0.385910
C183	C	1.644794	0.340655	-0.052576
C184	C	0.978147	-0.325993	-0.795891
C185	C	1.311481	0.007340	-0.462558
C186	C	1.644814	0.340674	-0.129225
C187	C	0.978167	-0.325982	-0.856983
C188	C	1.311500	0.007352	-0.523650
C189	C	1.644834	0.340685	-0.190317
C190	C	0.978095	-0.326105	-0.150238
C191	C	1.311428	0.007228	0.183096
C192	C	1.644762	0.340561	0.516429
C193	C	0.978218	-0.325934	-0.075006
C194	C	1.311552	0.007399	0.258327
C195	C	1.644885	0.340732	0.591661
H196	H	0.720465	-0.247666	-0.404763
H197	H	1.053798	0.085667	-0.071430
H198	H	1.387132	0.419000	0.261904
C199	C	0.887278	-0.722238	-0.235079
C200	C	1.220611	-0.388904	0.098255
C201	C	1.553945	-0.055571	0.431588
N202	N	0.851498	-0.751574	-0.199138
N203	N	1.184831	-0.418241	0.134195
N204	N	1.518164	-0.084908	0.467529
C205	C	0.887292	-0.929563	-0.235160
C206	C	1.220625	-0.596230	0.098173
C207	C	1.553958	-0.262896	0.431506
N208	N	0.851416	-0.900338	-0.199277
N209	N	1.184749	-0.567005	0.134057
N210	N	1.518082	-0.233672	0.467390
C211	C	0.582138	-0.235324	-0.417163
C212	C	0.915471	0.098009	-0.083830
C213	C	1.248805	0.431342	0.249504
N214	N	0.552881	-0.199508	-0.453099
N215	N	0.886215	0.133825	-0.119766
N216	N	1.219548	0.467158	0.213568
C217	C	1.069056	-1.077739	-0.417133
C218	C	1.402389	-0.744405	-0.083800
C219	C	1.735722	-0.411072	0.249534
N220	N	1.104907	-1.106971	-0.453034
N221	N	1.438241	-0.773638	-0.119701
N222	N	1.771574	-0.440305	0.213633
C223	C	0.730465	-0.416878	-0.235014
C224	C	1.063798	-0.083544	0.098320
C225	C	1.397132	0.249789	0.431653
N226	N	0.759723	-0.452695	-0.199080
N227	N	1.093057	-0.119361	0.134254
N228	N	1.426390	0.213972	0.467587
C229	C	0.226370	-0.235352	-0.417182
C230	C	0.559703	0.097981	-0.083848
C231	C	0.893036	0.431315	0.249485
N232	N	0.197107	-0.199530	-0.453108
N233	N	0.530441	0.133803	-0.119774
N234	N	0.863774	0.467136	0.213559
H235	H	0.899631	-0.247472	-0.712692
H236	H	1.232964	0.085861	-0.379359
H237	H	1.566298	0.419194	-0.046025
H238	H	1.056713	-0.404474	-1.068415
H239	H	1.390046	-0.071141	-0.735081
H240	H	1.723380	0.262192	-0.401748
H241	H	1.056598	-0.404579	-0.584410
H242	H	1.389931	-0.071245	-0.251076
H243	H	1.723264	0.262088	0.082257
C244	C	0.374694	-0.416914	-0.235036
C245	C	0.708028	-0.083581	0.098298
C246	C	1.041361	0.249753	0.431631
N247	N	0.403948	-0.452732	-0.199100
N248	N	0.737282	-0.119399	0.134234
N249	N	1.070615	0.213934	0.467567
C250	C	0.887358	-0.235021	-1.078566
C251	C	1.220691	0.098312	-0.745233
C252	C	1.554024	0.431645	-0.411899
N253	N	0.851516	-0.199144	-1.107857
N254	N	1.184849	0.134189	-0.774523
N255	N	1.518183	0.467522	-0.441190
H256	H	1.056669	-0.404515	-0.940181
H257	H	1.390002	-0.071182	-0.606848
H258	H	1.723336	0.262151	-0.273514
H259	H	0.899541	-0.583876	-0.247482
H260	H	1.232875	-0.250542	0.085852
H261	H	1.566208	0.082791	0.419185
H262	H	1.056559	-0.711887	-0.404700
H263	H	1.389892	-0.378554	-0.071366
H264	H	1.723226	-0.045220	0.261967
C265	C	0.374813	-0.235342	-0.417173
C266	C	0.708147	0.097991	-0.083839
C267	C	1.041480	0.431324	0.249494
N268	N	0.404116	-0.199515	-0.453096
N269	N	0.737449	0.133819	-0.119763
N270	N	1.070782	0.467152	0.213570
C271	C	1.068989	-0.416924	-0.722752
C272	C	1.402323	-0.083590	-0.389419
C273	C	1.735656	0.249743	-0.056085
N274	N	1.104840	-0.452792	-0.752022
N275	N	1.438173	-0.119458	-0.418689
N276	N	1.771507	0.213875	-0.085355
H277	H	0.899609	-0.247494	-0.584458
H278	H	1.232942	0.085839	-0.251125
H279	H	1.566276	0.419173	0.082209
H280	H	0.236368	-0.404576	-0.247443
H281	H	0.569701	-0.071242	0.085891
H282	H	0.903035	0.262091	0.419224
H283	H	1.056511	-0.583653	-0.404683
H284	H	1.389844	-0.250320	-0.071349
H285	H	1.723177	0.083014	0.261984
H286	H	0.899728	-1.067879	-0.247540
H287	H	1.233062	-0.734546	0.085793
H288	H	1.566395	-0.401213	0.419127
C289	C	0.582020	-0.416888	-0.235026
C290	C	0.915353	-0.083555	0.098308
C291	C	1.248686	0.249778	0.431641
N292	N	0.552712	-0.452710	-0.199100
N293	N	0.886046	-0.119376	0.134233
N294	N	1.219379	0.213957	0.467566
H295	H	1.056642	-0.939412	-0.404730
H296	H	1.389975	-0.606079	-0.071396
H297	H	1.723309	-0.272746	0.261937
C298	C	0.887331	-0.235051	-0.930121
C299	C	1.220665	0.098283	-0.596788
C300	C	1.553998	0.431616	-0.263454
N301	N	0.851488	-0.199180	-0.900846
N302	N	1.184821	0.134154	-0.567512
N303	N	1.518154	0.467487	-0.234179
