data_functionalizedCrystal
_audit_creation_method	'MofGen! by Chris Wilmer'
_symmetry_space_group_name_H-M	'P1'
_symmetry_Int_Tables_number	1
_symmetry_cell_setting	triclinic
loop_
_symmetry_equiv_pos_as_xyz
  x,y,z
_cell_length_a	16.959455
_cell_length_b	19.121063
_cell_length_c	16.959447
_cell_angle_alpha	92.406624
_cell_angle_beta	89.985678
_cell_angle_gamma	92.465894
loop_
_atom_site_label
_atom_site_type_symbol
_atom_site_fract_x
_atom_site_fract_y
_atom_site_fract_z
Zn1	Zn	1.194915	-0.279656	-0.460312
Zn2	Zn	1.189180	-0.397117	-0.333763
Zn3	Zn	1.062742	-0.279678	-0.328150
Zn4	Zn	1.057053	-0.397064	-0.465899
O5	O	1.125973	-0.338379	-0.397031
O6	O	1.304764	-0.295250	-0.443535
O7	O	1.172389	-0.381570	-0.222409
O8	O	1.085056	-0.181391	-0.340995
O9	O	1.300551	-0.381548	-0.350560
O10	O	1.182163	-0.181375	-0.438093
O11	O	1.079495	-0.295288	-0.218285
O12	O	0.951377	-0.295237	-0.346412
O13	O	1.075360	-0.381459	-0.575767
O14	O	0.947198	-0.381480	-0.447615
O15	O	1.176646	-0.295199	-0.571662
O16	O	1.166873	-0.495394	-0.355978
O17	O	1.069800	-0.495356	-0.453058
C18	C	0.920608	-0.338356	-0.397012
C19	C	0.832751	-0.338363	-0.397023
C20	C	1.117118	-0.520859	-0.405750
C21	C	1.113402	-0.598924	-0.409507
C22	C	0.463428	-0.293435	-0.344438
C23	C	0.459118	-0.383380	-0.449672
C24	C	0.541664	-0.383370	-0.449666
C25	C	0.585096	-0.338393	-0.397045
C26	C	0.545982	-0.293425	-0.344430
C27	C	0.580784	-0.428342	-0.502276
C28	C	0.663336	-0.428334	-0.502272
C29	C	0.706770	-0.383353	-0.449654
C30	C	0.667650	-0.338383	-0.397037
C31	C	0.711082	-0.293405	-0.344416
C32	C	0.671965	-0.248431	-0.291802
C33	C	0.589416	-0.248444	-0.291812
C34	C	0.789319	-0.383340	-0.449644
C35	C	0.793636	-0.293395	-0.344407
C36	C	1.162236	-0.635597	-0.360769
C37	C	1.158746	-0.708948	-0.364307
C38	C	1.106417	-0.745625	-0.416579
C39	C	1.057581	-0.708948	-0.465322
C40	C	1.061076	-0.635598	-0.461787
C41	C	1.093339	-0.967094	-0.429780
C42	C	1.089847	-1.040449	-0.433309
C43	C	1.191013	-1.040443	-0.332295
C44	C	1.194500	-0.967092	-0.328762
C45	C	1.145667	-0.930421	-0.377508
C46	C	1.102847	-0.820602	-0.420195
C47	C	1.149242	-0.855446	-0.373896
C48	C	1.332140	-0.338403	-0.397051
C49	C	1.419996	-0.338413	-0.397059
C50	C	1.126008	-0.338321	-0.603196
C51	C	1.126024	-0.338296	-0.691052
C52	C	1.134884	-0.155186	-0.388295
C53	C	1.138681	-0.077121	-0.384572
C54	C	1.073386	-0.383133	-1.064664
C55	C	1.178857	-0.293311	-1.060384
C56	C	1.178835	-0.293326	-0.977839
C57	C	1.126089	-0.338246	-0.938703
C58	C	1.073365	-0.383151	-0.982111
C59	C	1.231564	-0.248426	-0.934425
C60	C	1.231545	-0.248440	-0.851875
C61	C	1.178794	-0.293357	-0.812736
C62	C	1.126067	-0.338263	-0.856150
C63	C	1.073321	-0.383183	-0.817013
C64	C	1.020590	-0.428087	-0.860425
C65	C	1.020614	-0.428068	-0.942973
C66	C	1.178770	-0.293376	-0.730189
C67	C	1.073299	-0.383201	-0.734460
C68	C	1.125985	-0.338386	-0.191665
C69	C	1.126133	-0.338213	-0.103800
H70	H	0.707338	-0.211814	-0.248954
C71	C	1.278320	-0.208556	-0.723437
C72	C	1.289485	-0.199065	-0.804158
H73	H	1.314088	-0.178071	-0.693980
H74	H	1.225708	-0.198287	-0.709437
H75	H	1.287608	-0.255747	-0.712151
H76	H	1.280192	-0.151876	-0.815446
H77	H	1.342110	-0.209330	-0.818164
C78	C	1.314371	-0.259111	-1.084168
C79	C	1.236836	-0.243938	-1.103400
H80	H	1.350165	-0.228630	-1.110730
H81	H	1.321896	-0.252690	-1.028799
H82	H	1.323639	-0.306301	-1.099945
H83	H	1.227567	-0.196749	-1.087618
H84	H	1.229307	-0.250352	-1.158781
C85	C	0.464789	-0.208518	-0.245107
C86	C	0.546416	-0.199009	-0.233986
H87	H	0.438243	-0.178000	-0.209406
H88	H	0.451781	-0.198305	-0.297744
H89	H	0.448984	-0.255698	-0.235699
H90	H	0.562223	-0.151830	-0.243400
H91	H	0.559430	-0.209217	-0.181337
H92	H	0.431575	-0.256817	-0.301603
H93	H	1.030340	-0.419775	-0.702601
H94	H	0.828993	-0.256764	-0.301561
H95	H	1.204845	-0.605739	-0.318201
H96	H	1.021311	-0.605740	-0.501476
C97	C	0.990942	-0.884672	-0.436690
C98	C	1.039659	-0.926785	-0.483351
H99	H	0.957804	-0.859781	-0.469765
H100	H	0.959367	-0.913330	-0.403612
H101	H	1.022619	-0.852336	-0.405059
H102	H	1.007981	-0.959125	-0.514979
H103	H	1.071237	-0.898124	-0.516443
C104	C	1.029098	-0.502053	-1.095733
C105	C	1.015426	-0.432491	-1.112376
H106	H	0.993311	-0.532523	-1.125186
H107	H	1.081702	-0.512330	-1.109759
H108	H	1.021539	-0.508482	-1.040967
H109	H	1.022990	-0.426060	-1.167141
H110	H	0.962809	-0.422210	-1.098355
H111	H	1.237110	-0.937231	-0.286199
H112	H	0.423750	-0.420003	-0.492509
H113	H	1.014977	-0.738816	-0.507886
C114	C	1.291361	-1.033069	-0.232094
C115	C	1.244694	-1.080753	-0.278721
H116	H	1.324500	-1.057956	-0.199017
H117	H	1.322936	-1.004419	-0.265181
H118	H	1.258294	-1.004503	-0.200454
H119	H	1.277761	-1.109316	-0.310366
H120	H	1.213117	-1.109416	-0.245630
C121	C	0.452328	-0.468284	-0.549013
C122	C	0.533044	-0.477779	-0.560113
H123	H	0.422855	-0.498803	-0.584726
H124	H	0.438291	-0.478506	-0.496381
H125	H	0.441098	-0.421105	-0.558418
H126	H	0.544276	-0.524956	-0.550703
H127	H	0.547086	-0.467562	-0.612757
H128	H	1.191851	-0.825581	-0.331339
C129	C	0.973736	-0.467992	-0.735779
C130	C	0.962611	-0.477462	-0.817400
H131	H	0.937939	-0.498471	-0.709216
H132	H	1.026335	-0.478284	-0.722752
H133	H	0.964462	-0.420801	-0.720013
H134	H	0.971890	-0.524653	-0.833167
H135	H	0.909999	-0.467176	-0.830432
H136	H	0.695178	-0.464954	-0.545114
H137	H	1.060239	-0.850473	-0.462753
H138	H	1.047244	-1.070309	-0.475889
C139	C	0.976332	-0.546988	-0.974048
C140	C	0.962661	-0.477427	-0.990692
H141	H	0.940552	-0.577459	-1.003508
H142	H	1.028939	-0.557263	-0.988065
H143	H	0.968763	-0.553419	-0.919284
H144	H	0.970235	-0.470994	-1.045456
H145	H	0.910041	-0.467148	-0.976681
H146	H	0.821164	-0.419959	-0.492479
H147	H	1.221705	-0.256818	-0.694846
H148	H	1.198512	-0.738803	-0.324619
C149	C	1.275866	-0.129500	-0.954184
C150	C	1.289540	-0.199055	-0.977446
H151	H	1.311663	-0.099021	-0.980744
H152	H	1.223267	-0.119216	-0.967221
H153	H	1.283408	-0.123091	-0.898808
H154	H	1.281993	-0.205466	-1.032821
H155	H	1.342152	-0.209343	-0.964415
