data_functionalizedCrystal
_audit_creation_method	'MofGen! by Chris Wilmer'
_symmetry_space_group_name_H-M	'P1'
_symmetry_Int_Tables_number	1
_symmetry_cell_setting	triclinic
loop_
_symmetry_equiv_pos_as_xyz
  x,y,z
_cell_length_a	19.188905
_cell_length_b	19.188930
_cell_length_c	14.586319
_cell_angle_alpha	89.991095
_cell_angle_beta	89.989373
_cell_angle_gamma	83.139668
loop_
_atom_site_label
_atom_site_type_symbol
_atom_site_fract_x
_atom_site_fract_y
_atom_site_fract_z
O1	O	0.926155	0.087084	-0.076402
O2	O	1.426155	0.587084	0.423598
O3	O	0.722841	0.098836	-0.076372
O4	O	1.222841	0.598836	0.423628
O5	O	0.830365	-0.008696	-0.076370
O6	O	1.330365	0.491304	0.423630
O7	O	0.818631	0.194616	-0.076404
O8	O	1.318631	0.694616	0.423596
O9	O	0.830358	-0.008698	0.076111
O10	O	1.330358	0.491302	0.576111
O11	O	0.722834	0.098834	0.076109
O12	O	1.222834	0.598834	0.576109
O13	O	0.926148	0.087082	0.076079
O14	O	1.426148	0.587082	0.576079
Cu15	Cu	0.824490	0.092958	0.090017
Cu16	Cu	1.324490	0.592958	0.590017
Cu17	Cu	0.824499	0.092960	-0.090309
Cu18	Cu	1.324499	0.592960	0.409691
O19	O	0.818624	0.194614	0.076077
O20	O	1.318624	0.694614	0.576077
C21	C	0.696826	0.098458	-0.000127
C22	C	1.196826	0.598458	0.499873
C23	C	0.619321	0.097324	-0.000115
C24	C	1.119321	0.597324	0.499885
C25	C	0.582933	0.096780	-0.083235
C26	C	1.082933	0.596780	0.416765
C27	C	0.510109	0.095707	-0.083246
C28	C	1.010109	0.595707	0.416754
C29	C	0.473678	0.095164	-0.000133
C30	C	0.973678	0.595164	0.499867
C31	C	0.510074	0.095712	0.082998
C32	C	1.010074	0.595712	0.582998
C33	C	0.582895	0.096792	0.083007
C34	C	1.082895	0.596792	0.583007
N35	N	0.364655	0.053735	0.061727
N36	N	0.864655	0.553735	0.561727
N37	N	0.295478	0.052707	0.061713
N38	N	0.795478	0.552707	0.561713
C39	C	0.254272	0.091911	-0.000154
C40	C	0.754272	0.591911	0.499846
N41	N	0.284857	0.132173	-0.062021
N42	N	0.784857	0.632173	0.437979
N43	N	0.354040	0.133197	-0.062010
N44	N	0.854040	0.633197	0.437990
C45	C	0.394716	0.093993	-0.000133
C46	C	0.894716	0.593993	0.499867
C47	C	0.138920	0.090205	-0.083292
C48	C	0.638920	0.590205	0.416708
C49	C	0.066094	0.089136	-0.083300
C50	C	0.566094	0.589136	0.416700
C51	C	0.066062	0.089134	0.082947
C52	C	0.566062	0.589134	0.582947
C53	C	0.138885	0.090209	0.082952
C54	C	0.638885	0.590209	0.582952
C55	C	0.175310	0.090742	-0.000170
C56	C	0.675310	0.590742	0.499830
C57	C	0.829982	-0.034708	-0.000127
C58	C	1.329982	0.465292	0.499873
C59	C	0.828841	-0.112213	-0.000118
C60	C	1.328841	0.387787	0.499882
C61	C	0.891933	-0.157142	-0.000123
C62	C	1.391933	0.342858	0.499877
C63	C	0.890861	-0.229966	-0.000138
C64	C	1.390861	0.270034	0.499862
C65	C	0.826694	-0.257857	-0.000129
C66	C	1.326694	0.242143	0.499871
C67	C	0.763594	-0.212917	-0.000129
C68	C	1.263594	0.287083	0.499871
C69	C	0.764668	-0.140095	-0.000124
C70	C	1.264668	0.359905	0.499876
N71	N	0.777644	-0.365858	0.051770
N72	N	1.277644	0.134142	0.551770
N73	N	0.776628	-0.435036	0.051767
N74	N	1.276628	0.064964	0.551767
C75	C	0.823456	-0.477265	-0.000147
C76	C	1.323456	0.022735	0.499853
N77	N	0.871348	-0.447703	-0.052047
N78	N	1.371348	0.052297	0.447953
N79	N	0.872366	-0.378519	-0.052040
N80	N	1.372366	0.121481	0.447960
C81	C	0.825523	-0.336819	-0.000135
C82	C	1.325523	0.163181	0.499865
C83	C	0.885390	-0.601159	-0.000169
C84	C	1.385390	-0.101159	0.499831
C85	C	0.884315	-0.673984	-0.000189
C86	C	1.384315	-0.173984	0.499811
C87	C	0.757047	-0.656933	-0.000172
C88	C	1.257047	-0.156933	0.499828
C89	C	0.758123	-0.584110	-0.000161
C90	C	1.258123	-0.084110	0.499839
C91	C	0.822296	-0.556228	-0.000155
C92	C	1.322296	-0.056228	0.499845
C93	C	0.952163	0.087460	-0.000167
C94	C	1.452163	0.587460	0.499833
C95	C	1.029668	0.088594	-0.000186
C96	C	1.529668	0.588594	0.499814
C97	C	0.819007	0.220626	-0.000168
C98	C	1.319007	0.720626	0.499832
C99	C	0.820148	0.298131	-0.000182
C100	C	1.320148	0.798131	0.499818
N101	N	0.824489	0.092956	0.216849
N102	N	1.324489	0.592956	0.716849
N103	N	0.824505	0.092956	-0.217141
N104	N	1.324505	0.592956	0.282859
C105	C	0.872116	0.045357	0.451856
C106	C	1.372116	0.545357	0.951856
C107	C	0.872118	0.045355	0.547837
C108	C	1.372118	0.545355	1.047837
C109	C	0.776873	0.140558	0.547845
C110	C	1.276873	0.640558	1.047845
C111	C	0.776868	0.140556	0.451865
C112	C	1.276868	0.640556	0.951865
C113	C	0.824494	0.092956	0.403873
C114	C	1.324494	0.592956	0.903873
C115	C	0.824501	0.092956	0.595834
C116	C	1.324501	0.592956	1.095834
C117	C	0.824502	0.092955	0.699901
C118	C	1.324502	0.592955	1.199901
C119	C	0.824491	0.092956	0.299800
C120	C	1.324491	0.592956	0.799800
H121	H	0.036399	0.088696	0.150619
H122	H	0.536399	0.588696	0.650619
Cl123	Cl	0.685346	-0.083609	-0.000117
Cl124	Cl	1.185346	0.416391	0.499883
H125	H	0.612586	0.097214	-0.150919
H126	H	1.112586	0.597214	0.349081
Cl127	Cl	0.717006	0.200398	0.608182
Cl128	Cl	1.217006	0.700398	1.108182
Cl129	Cl	0.464355	0.095023	-0.187747
Cl130	Cl	0.964355	0.595023	0.312253
H131	H	0.935694	-0.710565	-0.000198
H132	H	1.435694	-0.210565	0.499802
Cl133	Cl	0.020348	0.088459	-0.187803
Cl134	Cl	0.520348	0.588459	0.312197
Cl135	Cl	0.970182	-0.286459	-0.000145
Cl136	Cl	1.470182	0.213541	0.499855
H137	H	0.910895	0.006597	0.412783
H138	H	1.410895	0.506597	0.912783
Cl139	Cl	0.676379	-0.691989	-0.000166
Cl140	Cl	1.176379	-0.191989	0.499834
Cl141	Cl	0.682927	-0.247979	-0.000126
Cl142	Cl	1.182927	0.252021	0.499874
H143	H	0.937644	-0.578456	-0.000169
H144	H	1.437644	-0.078456	0.499831
Cl145	Cl	0.464275	0.095033	0.187483
Cl146	Cl	0.964275	0.595033	0.687483
H147	H	0.168513	0.090648	0.150637
H148	H	0.668513	0.590648	0.650637
Cl149	Cl	0.184714	0.090881	-0.187785
Cl150	Cl	0.684714	0.590881	0.312215
Cl151	Cl	0.716992	0.200396	0.391538
Cl152	Cl	1.216992	0.700396	0.891538
H153	H	0.612522	0.097235	0.150695
H154	H	1.112522	0.597235	0.650695
Cl155	Cl	0.931987	-0.014488	0.608156
Cl156	Cl	1.431987	0.485512	1.108156
H157	H	0.944187	-0.134445	-0.000122
H158	H	1.444187	0.365555	0.499878
Cl159	Cl	0.678803	-0.527624	-0.000150
Cl160	Cl	1.178803	-0.027624	0.499850
