data_functionalizedCrystal
_audit_creation_method	'MofGen! by Chris Wilmer'
_symmetry_space_group_name_H-M	'P1'
_symmetry_Int_Tables_number	1
_symmetry_cell_setting	triclinic
loop_
_symmetry_equiv_pos_as_xyz
  x,y,z
_cell_length_a	14.971486
_cell_length_b	14.586319
_cell_length_c	14.971486
_cell_angle_alpha	90.004001
_cell_angle_beta	83.614129
_cell_angle_gamma	89.998550
loop_
_atom_site_label
_atom_site_type_symbol
_atom_site_fract_x
_atom_site_fract_y
_atom_site_fract_z
O1	O	1.186944	0.076135	0.116562
O2	O	1.686944	0.576135	0.616562
O3	O	0.926543	0.076160	0.130520
O4	O	1.426543	0.576160	0.630520
O5	O	1.063723	0.076141	-0.006659
O6	O	1.563723	0.576141	0.493341
O7	O	1.049764	0.076155	0.253741
O8	O	1.549764	0.576155	0.753741
O9	O	1.063713	-0.076340	-0.006661
O10	O	1.563713	0.423660	0.493339
O11	O	0.926534	-0.076320	0.130518
O12	O	1.426534	0.423680	0.630518
O13	O	1.186934	-0.076345	0.116560
O14	O	1.686934	0.423655	0.616560
Cu15	Cu	1.056733	-0.090256	0.123539
Cu16	Cu	1.556733	0.409744	0.623539
Cu17	Cu	1.056744	0.090071	0.123541
Cu18	Cu	1.556744	0.590071	0.623541
O19	O	1.049755	-0.076326	0.253739
O20	O	1.549755	0.423674	0.753739
C21	C	0.893214	-0.000077	0.129895
C22	C	1.393214	0.499923	0.629895
C23	C	0.793917	-0.000067	0.128024
C24	C	1.293917	0.499933	0.628024
N25	N	1.056732	-0.217087	0.123536
N26	N	1.556732	0.282913	0.623536
C27	C	0.736692	-0.000064	0.208614
C28	C	1.236692	0.499936	0.708614
C29	C	0.643392	-0.000078	0.206850
C30	C	1.143392	0.499922	0.706850
C31	C	0.607320	-0.000088	0.124497
C32	C	1.107320	0.499912	0.624497
C33	C	0.664552	-0.000094	0.043902
C34	C	1.164552	0.499906	0.543902
C35	C	0.757850	-0.000087	0.045666
C36	C	1.257850	0.499913	0.545666
C37	C	0.470090	-0.000107	0.040231
C38	C	0.970090	0.499893	0.540231
C39	C	0.376786	-0.000113	0.038466
C40	C	0.876786	0.499887	0.538466
C41	C	0.355632	-0.000098	0.201415
C42	C	0.855632	0.499902	0.701415
C43	C	0.448930	-0.000091	0.203179
C44	C	0.948930	0.499909	0.703179
C45	C	0.506156	-0.000095	0.122584
C46	C	1.006156	0.499905	0.622584
C47	C	1.117495	-0.452103	0.062814
C48	C	1.617495	0.047897	0.562814
C49	C	1.117497	-0.548084	0.062812
C50	C	1.617497	-0.048084	0.562812
C51	C	0.995983	-0.548076	0.184262
C52	C	1.495983	-0.048076	0.684262
C53	C	0.995977	-0.452096	0.184259
C54	C	1.495977	0.047904	0.684259
C55	C	1.056738	-0.404112	0.123536
C56	C	1.556738	0.095888	0.623536
C57	C	1.056747	-0.596073	0.123537
C58	C	1.556747	-0.096073	0.623537
C59	C	1.056749	-0.700140	0.123535
C60	C	1.556749	-0.200140	0.623535
C61	C	1.056735	-0.300038	0.123537
C62	C	1.556735	0.199962	0.623537
C63	C	1.220263	-0.000106	0.117185
C64	C	1.720263	0.499894	0.617185
C65	C	1.319561	-0.000110	0.119056
C66	C	1.819561	0.499890	0.619056
C67	C	1.063094	-0.000099	-0.039985
C68	C	1.563094	0.499901	0.460015
C69	C	1.061223	-0.000098	-0.139282
C70	C	1.561223	0.499902	0.360718
N71	N	1.056753	0.216902	0.123536
N72	N	1.556753	0.716902	0.623536
C73	C	1.141812	-0.000107	-0.196507
C74	C	1.641812	0.499893	0.303493
C75	C	1.140049	-0.000097	-0.289807
C76	C	1.640049	0.499903	0.210193
C77	C	1.057696	-0.000086	-0.325879
C78	C	1.557696	0.499914	0.174121
C79	C	0.977101	-0.000075	-0.268646
C80	C	1.477101	0.499925	0.231354
C81	C	0.978865	-0.000078	-0.175349
C82	C	1.478865	0.499922	0.324651
C83	C	0.973430	-0.000071	-0.463109
C84	C	1.473430	0.499929	0.036891
C85	C	0.971665	-0.000070	-0.556413
C86	C	1.471665	0.499930	-0.056413
C87	C	1.134614	-0.000091	-0.577567
C88	C	1.634614	0.499909	-0.077567
C89	C	1.136378	-0.000094	-0.484269
C90	C	1.636378	0.499906	0.015731
C91	C	1.055782	-0.000084	-0.427043
C92	C	1.555782	0.499916	0.072957
C93	C	1.050384	-0.000084	0.287065
C94	C	1.550384	0.499916	0.787065
C95	C	1.052254	-0.000079	0.386362
C96	C	1.552254	0.499921	0.886362
H97	H	0.766054	-0.000055	0.275675
H98	H	1.266054	0.499945	0.775675
F99	F	1.182160	-0.401038	-0.001815
F100	F	1.682160	0.098962	0.498185
F101	F	1.182161	-0.599156	-0.001819
F102	F	1.682161	-0.099156	0.498181
F103	F	0.884016	-0.000059	-0.594802
F104	F	1.384016	0.499941	-0.094802
H105	H	0.946514	-0.587154	0.233702
H106	H	1.446514	-0.087154	0.733702
H107	H	0.907800	-0.000061	-0.416517
H108	H	1.407800	0.499939	0.083483
F109	F	0.889454	-0.000053	-0.307040
F110	F	1.389454	0.499947	0.192960
F111	F	0.338397	-0.000147	-0.049183
F112	F	0.838397	0.499853	0.450817
H113	H	0.913240	-0.000071	-0.128756
H114	H	1.413240	0.499929	0.371244
H115	H	0.946497	-0.413020	0.233707
H116	H	1.446497	0.086980	0.733707
F117	F	1.229465	-0.000128	-0.158125
F118	F	1.729465	0.499872	0.341875
H119	H	1.205673	-0.000106	-0.336396
H120	H	1.705673	0.499894	0.163604
H121	H	0.596802	-0.000074	0.272474
H122	H	1.096802	0.499926	0.772474
H123	H	0.478296	-0.000074	0.270239
H124	H	0.978296	0.499926	0.770239
F125	F	1.224028	-0.000104	-0.445880
F126	F	1.724028	0.499896	0.054120
H127	H	1.200238	-0.000096	-0.624165
H128	H	1.700238	0.499904	-0.124165
H129	H	0.516682	-0.000112	-0.025399
H130	H	1.016682	0.499888	0.474601
F131	F	0.294727	-0.000095	0.287192
F132	F	0.794727	0.499905	0.787192
F133	F	0.626159	-0.000111	-0.043745
F134	F	1.126159	0.499889	0.456255
H135	H	0.804443	-0.000089	-0.019958
H136	H	1.304443	0.499911	0.480042
