data_functionalizedCrystal
_audit_creation_method	'MofGen! by Chris Wilmer'
_symmetry_space_group_name_H-M	'P1'
_symmetry_Int_Tables_number	1
_symmetry_cell_setting	triclinic
loop_
_symmetry_equiv_pos_as_xyz
  x,y,z
_cell_length_a	21.295418
_cell_length_b	21.295417
_cell_length_c	21.295411
_cell_angle_alpha	89.978356
_cell_angle_beta	90.043738
_cell_angle_gamma	89.953681
loop_
_atom_site_label
_atom_site_type_symbol
_atom_site_fract_x
_atom_site_fract_y
_atom_site_fract_z
Zn1	Zn	0.962356	0.250415	0.356234
Zn2	Zn	0.962258	0.355667	0.250959
Zn3	Zn	0.857079	0.250445	0.250943
Zn4	Zn	0.857048	0.355680	0.356155
O5	O	0.909685	0.303052	0.303573
O6	O	1.050432	0.264360	0.342308
O7	O	0.948278	0.341716	0.162867
O8	O	0.871098	0.162351	0.264937
O9	O	1.050361	0.341688	0.264963
O10	O	0.948444	0.162330	0.342293
O11	O	0.871003	0.264410	0.162856
O12	O	0.768985	0.264422	0.264861
O13	O	0.871046	0.341709	0.444255
O14	O	0.768963	0.341738	0.342160
O15	O	0.948415	0.264372	0.444313
O16	O	0.948248	0.443758	0.264887
O17	O	0.870951	0.443767	0.342175
C18	C	0.746134	0.303085	0.303500
C19	C	0.676166	0.303114	0.303484
C20	C	0.909603	0.466603	0.303538
C21	C	0.909625	0.536571	0.303544
C22	C	0.643304	0.343426	0.343674
C23	C	0.577561	0.343410	0.343702
C24	C	0.544683	0.303090	0.303530
C25	C	0.577553	0.262770	0.263337
C26	C	0.643294	0.262783	0.263315
N27	N	0.441407	0.298163	0.248472
N28	N	0.378956	0.298155	0.248495
C29	C	0.346608	0.303050	0.303596
N30	N	0.379072	0.307965	0.358675
N31	N	0.441529	0.307976	0.358650
C32	C	0.473398	0.303072	0.303550
C33	C	0.242461	0.343346	0.343820
C34	C	0.176717	0.343326	0.343849
C35	C	0.176710	0.262690	0.263479
C36	C	0.242453	0.262707	0.263455
C37	C	0.275324	0.303038	0.303625
C38	C	0.909738	0.303038	0.467763
C39	C	0.909760	0.303033	0.537731
C40	C	1.073876	0.303019	0.303646
C41	C	1.143844	0.303005	0.303677
C42	C	0.909785	0.138861	0.303622
C43	C	0.909828	0.068893	0.303642
C44	C	0.949910	0.569412	0.263342
C45	C	0.949939	0.635155	0.263356
C46	C	0.909673	0.668054	0.303566
C47	C	0.869386	0.635205	0.343776
C48	C	0.869362	0.569464	0.343765
N49	N	0.854606	0.771336	0.308340
N50	N	0.854630	0.833787	0.308347
C51	C	0.909743	0.866129	0.303602
N52	N	0.964832	0.833659	0.298838
N53	N	0.964807	0.771202	0.298828
C54	C	0.909695	0.739339	0.303582
C55	C	0.950063	0.970255	0.263413
C56	C	0.950094	1.035999	0.263431
C57	C	0.869535	1.036048	0.343848
C58	C	0.869510	0.970305	0.343833
C59	C	0.909773	0.937413	0.303612
C60	C	0.909670	0.303019	0.140021
C61	C	0.909769	0.302848	0.070054
C62	C	0.950044	0.262761	0.570629
C63	C	0.950043	0.262734	0.636371
C64	C	0.909765	0.302989	0.669214
C65	C	0.869473	0.343263	0.636308
C66	C	0.869470	0.343285	0.570567
N67	N	0.904908	0.358058	0.772428
N68	N	0.904914	0.358036	0.834879
C69	C	0.909769	0.302926	0.867289
N70	N	0.914629	0.247837	0.834888
N71	N	0.914627	0.247860	0.772430
C72	C	0.909763	0.302970	0.740499
C73	C	0.950054	0.262621	0.971472
C74	C	0.950049	0.262593	1.037216
C75	C	0.869482	0.343128	1.037151
C76	C	0.869484	0.343151	0.971409
C77	C	0.909773	0.302898	0.938573
H78	H	0.670063	0.376266	0.376384
H79	H	0.836680	0.375898	1.063891
H80	H	0.982746	0.661899	0.230619
C81	C	0.140555	0.218338	0.219284
C82	C	0.149673	0.146785	0.224546
C83	C	0.113516	0.102431	0.180350
C84	C	0.068241	0.129628	0.130892
C85	C	0.059122	0.201184	0.125628
C86	C	0.095279	0.245539	0.169824
H87	H	0.183189	0.126649	0.261160
H88	H	0.120267	0.049460	0.184247
H89	H	0.041476	0.096794	0.098175
H90	H	0.025605	0.221321	0.089015
H91	H	0.088528	0.298510	0.165927
C92	C	0.278625	0.387701	0.388012
C93	C	0.350938	0.387720	0.387987
C94	C	0.387099	0.432073	0.432180
C95	C	0.350948	0.476409	0.476399
C96	C	0.278631	0.476392	0.476426
C97	C	0.242470	0.432038	0.432232
H98	H	0.377702	0.354898	0.355252
H99	H	0.440633	0.432085	0.432160
H100	H	0.377717	0.509242	0.509113
H101	H	0.251867	0.509213	0.509160
H102	H	0.188936	0.432026	0.432252
C103	C	0.541401	0.387758	0.387908
C104	C	0.550360	0.459314	0.382625
C105	C	0.514202	0.503662	0.426830
C106	C	0.469085	0.476456	0.476318
C107	C	0.460124	0.404897	0.481603
C108	C	0.496282	0.360548	0.437398
H109	H	0.583761	0.479457	0.345990
H110	H	0.520836	0.556635	0.422918
H111	H	0.442319	0.509286	0.509041
H112	H	0.426724	0.384754	0.518238
H113	H	0.489648	0.307576	0.441311
H114	H	0.836602	0.661996	0.376516
C115	C	0.994367	0.218342	0.935347
C116	C	0.994372	0.218369	0.863034
C117	C	1.038685	0.174089	0.826912
C118	C	1.082993	0.129783	0.863102
C119	C	1.082990	0.129755	0.935419
C120	C	1.038676	0.174034	0.971542
H121	H	0.961571	0.251168	0.836241
H122	H	1.038687	0.174111	0.773378
H123	H	1.115796	0.097005	0.836362
H124	H	1.115791	0.096955	0.962213
H125	H	1.038674	0.174012	1.025076
C126	C	0.825189	0.934176	0.388050
C127	C	0.825160	0.861863	0.388040
C128	C	0.780838	0.825733	0.432260
C129	C	0.736545	0.861917	0.476491
C130	C	0.736572	0.934234	0.476503
C131	C	0.780894	0.970363	0.432283
H132	H	0.857951	0.835074	0.355296
H133	H	0.780819	0.772200	0.432251
H134	H	0.703735	0.835172	0.509226
H135	H	0.703781	0.961022	0.509247
H136	H	0.780913	1.023897	0.432292
C137	C	0.994355	0.218476	0.534513
C138	C	0.967105	0.169072	0.489304
C139	C	1.011413	0.124784	0.453187
C140	C	1.082972	0.129900	0.462279
C141	C	1.110226	0.179306	0.507490
C142	C	1.065917	0.223594	0.543607
H143	H	0.914129	0.165283	0.482572
H144	H	0.991238	0.088210	0.419719
H145	H	1.115772	0.097115	0.435543
H146	H	1.163202	0.183094	0.514222
H147	H	1.086093	0.260167	0.577075
C148	C	0.994362	0.218438	0.672571
C149	C	1.065920	0.223576	0.663586
C150	C	1.110240	0.179283	0.699783
C151	C	1.083003	0.129851	0.744966
C152	C	1.011441	0.124712	0.753953
C153	C	0.967121	0.169005	0.717755
H154	H	1.086086	0.260170	0.630137
H155	H	1.163214	0.183088	0.693130
H156	H	1.115811	0.097063	0.771761
H157	H	0.991275	0.088118	0.787401
H158	H	0.914147	0.165200	0.724408
H159	H	0.836676	0.376038	0.663053
C160	C	0.825043	0.533335	0.387988
C161	C	0.753487	0.542462	0.382763
C162	C	0.709167	0.506332	0.426986
C163	C	0.736403	0.461076	0.476432
C164	C	0.807962	0.451947	0.481658
C165	C	0.852282	0.488077	0.437436
H166	H	0.733323	0.575965	0.346158
H167	H	0.656194	0.513090	0.423117
H168	H	0.703594	0.434330	0.509168
H169	H	0.828127	0.418443	0.518264
H170	H	0.905255	0.481319	0.441305
C171	C	0.825176	0.387457	0.935217
C172	C	0.780869	0.431738	0.971338
C173	C	0.736558	0.476045	0.935147
C174	C	0.736553	0.476071	0.862834
C175	C	0.780862	0.431788	0.826709
C176	C	0.825173	0.387481	0.862900
H177	H	0.780871	0.431721	1.024872
H178	H	0.703758	0.508826	0.961889
H179	H	0.703751	0.508870	0.836043
H180	H	0.780860	0.431806	0.773175
H181	H	0.857973	0.354700	0.836157
H182	H	0.836663	0.376078	0.543782
H183	H	0.982852	0.229795	1.064000
C184	C	0.994360	0.934070	0.219179
C185	C	1.043749	0.888800	0.246514
C186	C	1.088047	0.852618	0.202281
C187	C	1.082957	0.861707	0.130715
C188	C	1.033567	0.906979	0.103377
C189	C	0.989268	0.943160	0.147609
H190	H	1.047518	0.882071	0.299495
H191	H	1.124609	0.819105	0.222519
H192	H	1.115750	0.834923	0.097971
H193	H	1.029797	0.913708	0.050396
H194	H	0.952706	0.976674	0.127372
C195	C	0.825239	1.072227	0.388080
C196	C	0.775846	1.117494	0.360749
C197	C	0.731550	1.153676	0.404984
C198	C	0.736647	1.144590	0.476551
C199	C	0.786042	1.099321	0.503885
C200	C	0.830338	1.063139	0.459650
H201	H	0.772072	1.124221	0.307768
H202	H	0.694985	1.187187	0.384749
H203	H	0.703857	1.171374	0.509296
H204	H	0.789817	1.092593	0.556866
H205	H	0.866903	1.029628	0.479886
C206	C	0.541390	0.218418	0.219146
C207	C	0.469077	0.218406	0.219166
C208	C	0.432916	0.174049	0.174975
C209	C	0.469067	0.129706	0.130765
C210	C	0.541383	0.129716	0.130743
C211	C	0.577545	0.174073	0.174934
H212	H	0.442313	0.251233	0.251894
H213	H	0.379382	0.174042	0.174991
H214	H	0.442297	0.096870	0.098052
H215	H	0.568148	0.096889	0.098015
H216	H	0.631079	0.174080	0.174918
H217	H	0.670050	0.229954	0.230588
C218	C	0.140565	0.387672	0.388060
C219	C	0.095454	0.360464	0.437552
C220	C	0.059300	0.404810	0.481762
C221	C	0.068257	0.476366	0.476480
C222	C	0.113370	0.503578	0.426985
C223	C	0.149524	0.459232	0.382775
H224	H	0.088822	0.307491	0.441464
H225	H	0.025905	0.384666	0.518401
H226	H	0.041494	0.509194	0.509207
H227	H	0.120002	0.556551	0.423073
H228	H	0.182919	0.479376	0.346136
C229	C	0.278602	0.218372	0.219234
C230	C	0.269641	0.146815	0.224498
C231	C	0.305789	0.102478	0.180273
C232	C	0.350899	0.129696	0.130786
C233	C	0.359862	0.201256	0.125521
C234	C	0.323714	0.245594	0.169745
H235	H	0.236246	0.126663	0.261133
H236	H	0.299153	0.049504	0.184171
H237	H	0.377658	0.096875	0.098049
H238	H	0.393257	0.221409	0.088885
H239	H	0.330350	0.298568	0.165847
H240	H	0.982696	0.542633	0.230593
H241	H	0.982902	1.062737	0.230695
