data_functionalizedCrystal
_audit_creation_method	'MofGen! by Chris Wilmer'
_symmetry_space_group_name_H-M	'P1'
_symmetry_Int_Tables_number	1
_symmetry_cell_setting	triclinic
loop_
_symmetry_equiv_pos_as_xyz
  x,y,z
_cell_length_a	17.038272
_cell_length_b	16.109301
_cell_length_c	15.186229
_cell_angle_alpha	90.004940
_cell_angle_beta	90.002089
_cell_angle_gamma	92.713481
loop_
_atom_site_label
_atom_site_type_symbol
_atom_site_fract_x
_atom_site_fract_y
_atom_site_fract_z
O1	O	1.037364	-0.180538	-0.073123
O2	O	0.809734	-0.177671	-0.073149
O3	O	0.929802	-0.058518	-0.073127
O4	O	0.917296	-0.299692	-0.073146
O5	O	0.929794	-0.058516	0.073331
O6	O	0.809725	-0.177670	0.073308
O7	O	1.037356	-0.180536	0.073334
Zn8	Zn	0.923539	-0.179103	0.096574
Zn9	Zn	0.923550	-0.179105	-0.096390
O10	O	0.917287	-0.299690	0.073311
C11	C	0.780601	-0.175063	0.000076
C12	C	0.693808	-0.167284	0.000067
C13	C	0.643694	-0.238705	0.000062
C14	C	0.562143	-0.231391	0.000074
C15	C	0.530709	-0.152655	0.000086
C16	C	0.580830	-0.081229	0.000093
C17	C	0.662379	-0.088544	0.000087
C18	C	0.284951	-0.126813	0.000111
C19	C	0.203396	-0.119503	0.000115
C20	C	0.184714	-0.269665	0.000098
C21	C	0.266266	-0.276973	0.000086
C22	C	0.316380	-0.205547	0.000098
C23	C	0.447352	-0.145177	0.000096
C24	C	0.399736	-0.213026	0.000094
C25	C	0.929291	-0.027506	0.000102
C26	C	0.927773	0.064897	0.000103
C27	C	1.066488	-0.183145	0.000106
C28	C	1.153281	-0.190924	0.000110
C29	C	0.917798	-0.330702	0.000080
C30	C	0.919317	-0.423105	0.000073
N31	N	0.923537	-0.179101	0.228267
C32	C	0.995487	0.282360	0.000097
C33	C	0.994054	0.369183	0.000090
C34	C	0.851597	0.359425	0.000077
C35	C	0.853031	0.272605	0.000078
C36	C	0.924978	0.234075	0.000093
C37	C	0.922111	0.407718	0.000084
C38	C	0.920557	0.501854	0.000076
C39	C	0.926533	0.139932	0.000099
C40	C	0.976721	-0.126361	0.454000
C41	C	0.976723	-0.126360	0.546189
C42	C	0.870366	-0.231847	0.546178
C43	C	0.870361	-0.231843	0.453990
C44	C	0.923543	-0.179102	0.407903
C45	C	0.923550	-0.179104	0.592281
C46	C	0.923552	-0.179103	0.692237
C47	C	0.923540	-0.179102	0.307941
N48	N	0.923555	-0.179105	0.771918
H49	H	0.425333	-0.277132	0.000090
F50	F	0.777981	0.221212	0.000067
H51	H	0.703182	-0.030385	0.000091
H52	H	1.051470	0.408493	0.000091
H53	H	1.020024	-0.083414	0.416478
H54	H	0.827053	-0.274791	0.416456
F55	F	1.072060	0.241357	0.000112
H56	H	0.827067	-0.274789	0.583712
F57	F	0.299714	-0.360775	0.000069
H58	H	0.793020	0.390807	0.000067
H59	H	0.143903	-0.327816	0.000089
F60	F	1.033321	-0.070224	0.595245
H61	H	0.669280	-0.302820	0.000052
F62	F	0.169944	-0.035698	0.000143
H63	H	0.325745	-0.068652	0.000122
F64	F	0.508810	-0.307407	0.000065
H65	H	0.555230	-0.017121	0.000115
H66	H	0.421749	-0.081070	0.000130
