data_functionalizedCrystal
_audit_creation_method	'MofGen! by Chris Wilmer'
_symmetry_space_group_name_H-M	'P1'
_symmetry_Int_Tables_number	1
_symmetry_cell_setting	triclinic
loop_
_symmetry_equiv_pos_as_xyz
  x,y,z
_cell_length_a	15.698487
_cell_length_b	20.016444
_cell_length_c	20.016444
_cell_angle_alpha	89.997045
_cell_angle_beta	60.001889
_cell_angle_gamma	119.999471
loop_
_atom_site_label
_atom_site_type_symbol
_atom_site_fract_x
_atom_site_fract_y
_atom_site_fract_z
Zr1	Zr	0.932442	0.087659	0.643575
O2	O	1.110153	0.194333	0.536897
O3	O	0.754732	0.054960	0.676277
O4	O	0.932451	0.194336	0.676270
O5	O	0.932427	-0.054989	0.536910
O6	O	0.932458	0.194337	0.786210
O7	O	0.932434	0.054957	0.536904
O8	O	0.614550	-0.054983	0.786223
O9	O	1.250334	0.194331	0.536896
O10	O	0.827832	0.041012	0.772271
O11	O	0.827822	-0.041039	0.690229
O12	O	1.037063	0.123059	0.690220
O13	O	1.037053	0.041008	0.608177
Zr14	Zr	0.932442	-0.087690	0.818925
Zr15	Zr	0.932453	0.087659	0.818916
Zr16	Zr	0.932432	-0.087691	0.643584
Zr17	Zr	1.156015	0.087655	0.643574
Zr18	Zr	0.708869	-0.087686	0.818926
O19	O	1.110153	-0.054991	0.786223
O20	O	1.110168	0.194333	0.786209
O21	O	1.110138	-0.054992	0.536910
O22	O	0.754732	-0.194365	0.925603
O23	O	0.754747	0.054960	0.925590
O24	O	0.754717	-0.194365	0.676291
O25	O	0.932458	0.054957	0.925590
O26	O	0.932434	-0.194368	0.786230
O27	O	0.932427	-0.194368	0.676290
O28	O	0.932451	-0.054988	0.925596
O29	O	1.250343	0.194331	0.676269
O30	O	0.614542	-0.194362	0.786231
O31	O	0.614550	-0.194362	0.925604
O32	O	0.614559	-0.054982	0.925596
O33	O	1.250326	0.054951	0.536904
O34	O	1.250334	0.054951	0.676277
O35	O	0.827822	-0.123090	0.772280
O36	O	0.827832	-0.041039	0.854323
O37	O	1.037063	0.041008	0.772271
O38	O	1.037053	-0.041043	0.690229
C39	C	0.652787	-0.000011	0.731250
C40	C	0.557874	-0.000009	0.731250
C41	C	0.932456	0.219320	0.731238
C42	C	0.932460	0.293761	0.731234
C43	C	0.932429	-0.219352	0.731262
C44	C	0.932425	-0.293792	0.731266
C45	C	0.384091	-0.000023	0.731248
C46	C	0.480796	-0.000018	0.731248
C47	C	1.212098	-0.000021	0.731250
C48	C	1.307011	-0.000022	0.731250
C49	C	0.932429	-0.000016	0.511925
C50	C	0.932425	-0.000016	0.437488
C51	C	1.041663	0.507845	0.688419
C52	C	1.041658	0.577786	0.688425
C53	C	0.823213	0.492116	0.774087
C54	C	0.823220	0.422176	0.774084
C55	C	0.932448	0.430044	0.731246
C56	C	0.932437	0.569925	0.731255
C57	C	0.932430	0.645758	0.731262
C58	C	0.932455	0.354206	0.731239
C59	C	0.823222	-0.042846	0.309050
C60	C	0.823227	-0.042848	0.239105
C61	C	1.041672	0.042815	0.153451
C62	C	1.041665	0.042812	0.223395
C63	C	0.932437	-0.000016	0.301195
C64	C	0.932448	-0.000015	0.161305
C65	C	0.932454	-0.000017	0.085467
C66	C	0.932430	-0.000016	0.377038
C67	C	0.932456	-0.000015	0.950575
C68	C	0.932460	-0.000015	1.025012
C69	C	0.652800	-0.000010	0.950576
C70	C	0.557892	-0.000009	1.025013
C71	C	0.652773	-0.219347	0.731262
C72	C	0.557856	-0.293785	0.731266
C73	C	0.652787	-0.219346	0.950587
C74	C	0.557874	-0.293785	1.025028
C75	C	1.212098	0.219315	0.511913
C76	C	1.307011	0.293754	0.437472
C77	C	1.212085	-0.000021	0.511924
C78	C	1.306993	-0.000023	0.437487
C79	C	1.212111	0.219315	0.731238
C80	C	1.307029	0.293754	0.731234
C81	C	0.513322	0.042829	1.017139
C82	C	0.424158	0.042847	1.087074
C83	C	0.379560	0.000022	1.164882
C84	C	0.424139	-0.042817	1.172754
C85	C	0.513307	-0.042830	1.102819
C86	C	0.513282	-0.371580	0.774098
C87	C	0.424110	-0.441530	0.774098
C88	C	0.379507	-0.433684	0.731272
C89	C	0.424090	-0.355881	0.688435
C90	C	0.513267	-0.285933	0.688430
C91	C	0.513307	-0.285913	1.102819
C92	C	0.424139	-0.355849	1.172771
C93	C	0.379534	-0.433657	1.164930
C94	C	0.424109	-0.441528	1.087131
C95	C	0.513282	-0.371592	1.017181
C96	C	1.351588	0.285881	0.359681
C97	C	1.440784	0.355818	0.289729
C98	C	1.485394	0.433626	0.297570
C99	C	1.440813	0.441497	0.375369
C100	C	1.351625	0.371561	0.445319
C101	C	1.351572	-0.042853	0.445361
C102	C	1.440760	-0.042852	0.375426
C103	C	1.485362	-0.000025	0.297618
C104	C	1.440779	0.042811	0.289746
C105	C	1.351598	0.042814	0.359681
C106	C	1.351603	0.285882	0.774069
C107	C	1.440776	0.355818	0.774081
C108	C	1.485379	0.433626	0.731253
C109	C	1.440796	0.441497	0.688417
C110	C	1.351618	0.371561	0.688410
H111	H	1.130604	0.514255	0.653537
H112	H	1.558017	0.490565	0.240605
H113	H	0.549633	0.077712	0.953791
H114	H	1.477045	-0.077737	0.381851
H115	H	1.477147	0.504856	0.381743
H116	H	0.549547	-0.222592	0.653553
Br117	Br	0.674982	0.481445	0.832216
H118	H	0.387873	0.077732	1.080649
Br119	Br	0.363596	-0.100935	1.278356
H120	H	0.549612	-0.222563	1.109219
H121	H	0.387855	-0.349426	1.236112
Br122	Br	0.258544	0.000048	1.259785
H123	H	0.549584	-0.077718	1.109242
Br124	Br	0.573789	-0.382251	0.832231
Br125	Br	1.291062	0.180293	0.349017
Br126	Br	1.291132	0.382260	0.550890
H127	H	0.306923	-0.490597	1.221895
H128	H	0.387821	-0.504873	0.808984
H129	H	1.477125	0.504858	0.653547
Br130	Br	0.674988	0.316581	0.832211
Br131	Br	1.189903	0.100938	0.047865
H132	H	1.315264	-0.077734	0.508709
Br133	Br	1.606395	-0.000037	0.202715
Br134	Br	0.258481	-0.528623	0.731286
H135	H	1.130592	0.641132	0.653553
Br136	Br	0.674984	-0.100971	0.414633
Br137	Br	0.675000	-0.100982	0.249772
Br138	Br	1.189897	0.100934	0.212734
H139	H	0.387778	-0.504889	1.080759
Br140	Br	1.291091	0.180294	0.832200
Br141	Br	1.291145	0.382260	0.630263
Br142	Br	0.363544	-0.345247	0.630316
H143	H	1.477066	0.349394	0.808963
Br144	Br	0.573749	-0.382291	0.911610
Br145	Br	1.501266	0.345116	0.184155
Br146	Br	1.501320	0.100928	0.184144
Br147	Br	1.291103	0.100943	0.348980
Br148	Br	1.606409	0.528532	0.731270
