data_functionalizedCrystal
_audit_creation_method	'MofGen! by Chris Wilmer'
_symmetry_space_group_name_H-M	'P1'
_symmetry_Int_Tables_number	1
_symmetry_cell_setting	triclinic
loop_
_symmetry_equiv_pos_as_xyz
  x,y,z
_cell_length_a	13.635800
_cell_length_b	7.076148
_cell_length_c	7.190334
_cell_angle_alpha	96.844284
_cell_angle_beta	60.611776
_cell_angle_gamma	117.702381
loop_
_atom_site_label
_atom_site_type_symbol
_atom_site_fract_x
_atom_site_fract_y
_atom_site_fract_z
V1	V	-2.149221	-0.291704	0.663535
V2	V	-1.649221	0.208296	1.163535
O3	O	-2.101098	0.017518	0.652430
O4	O	-1.601098	0.517518	1.152430
O5	O	-2.161841	-0.581767	0.657529
O6	O	-1.661841	-0.081767	1.157529
O7	O	-2.167023	-0.285681	0.953595
O8	O	-1.667023	0.214319	1.453595
O9	O	-2.095880	-0.280618	0.354314
O10	O	-1.595880	0.219382	0.854314
V11	V	-2.380821	-0.254899	0.626728
V12	V	-1.880821	0.245101	1.126728
O13	O	-2.302139	-0.372439	0.744274
O14	O	-1.802139	0.127561	1.244274
O15	O	-2.453001	-0.174164	0.545989
O16	O	-1.953001	0.325836	1.045989
O17	O	-2.256597	0.035164	0.632734
O18	O	-1.756597	0.535164	1.132734
O19	O	-2.487642	-0.564122	0.637833
O20	O	-1.987642	-0.064122	1.137833
O21	O	-2.492860	-0.265986	0.935948
O22	O	-1.992860	0.234014	1.435948
O23	O	-2.251415	-0.260922	0.336668
O24	O	-1.751415	0.239078	0.836668
V25	V	-1.880814	-0.254899	0.626728
V26	V	-1.380814	0.245101	1.126728
O27	O	-1.934154	-0.265986	0.935948
O28	O	-1.434154	0.234014	1.435948
O29	O	-1.863011	-0.260922	0.336668
O30	O	-1.363011	0.239078	0.836668
O31	O	-1.868193	0.035164	0.632734
O32	O	-1.368193	0.535164	1.132734
O33	O	-1.928936	-0.564122	0.637833
O34	O	-1.428936	-0.064122	1.137833
V35	V	-1.649213	-0.291704	0.663535
V36	V	-1.149213	0.208296	1.163535
O37	O	-1.727895	-0.174164	0.545989
O38	O	-1.227895	0.325836	1.045989
O39	O	-1.577033	-0.372439	0.744274
O40	O	-1.077033	0.127561	1.244274
O41	O	-1.778619	-0.285681	0.953595
O42	O	-1.278619	0.214319	1.453595
O43	O	-1.537174	-0.280618	0.354314
O44	O	-1.037174	0.219382	0.854314
O45	O	-1.542392	0.017518	0.652430
O46	O	-1.042392	0.517518	1.152430
O47	O	-1.773437	-0.581767	0.657529
O48	O	-1.273437	-0.081767	1.157529
C49	C	-2.158178	0.105912	0.643576
C50	C	-1.658178	0.605912	1.143576
C51	C	-2.095409	0.347483	0.646654
C52	C	-1.595409	0.847483	1.146654
C53	C	-1.938091	0.105911	0.643583
C54	C	-1.438091	0.605911	1.143583
C55	C	-1.885892	0.347485	0.646638
C56	C	-1.385892	0.847485	1.146638
C57	C	-2.098554	-0.274829	1.024341
C58	C	-1.598554	0.225171	1.524341
C59	C	-2.155037	-0.271764	1.265913
C60	C	-1.655037	0.228236	1.765913
C61	C	-1.931475	-0.271767	0.265908
C62	C	-1.431475	0.228233	0.765908
C63	C	-1.874990	-0.274821	0.024334
C64	C	-1.374990	0.225179	0.524334
