data_functionalizedCrystal
_audit_creation_method	'MofGen! by Chris Wilmer'
_symmetry_space_group_name_H-M	'P1'
_symmetry_Int_Tables_number	1
_symmetry_cell_setting	triclinic
loop_
_symmetry_equiv_pos_as_xyz
  x,y,z
_cell_length_a	19.805407
_cell_length_b	29.839126
_cell_length_c	19.805405
_cell_angle_alpha	90.023889
_cell_angle_beta	89.973590
_cell_angle_gamma	89.979144
loop_
_atom_site_label
_atom_site_type_symbol
_atom_site_fract_x
_atom_site_fract_y
_atom_site_fract_z
Zn1	Zn	1.034744	-0.254021	0.269515
Zn2	Zn	1.534744	0.245979	0.769515
Zn3	Zn	1.034657	-0.178891	0.382693
Zn4	Zn	1.534657	0.321109	0.882693
Zn5	Zn	0.921556	-0.178902	0.269523
Zn6	Zn	1.421556	0.321098	0.769523
Zn7	Zn	0.921522	-0.253991	0.382667
Zn8	Zn	1.421522	0.246009	0.882667
O9	O	0.978120	-0.216451	0.326100
O10	O	1.478120	0.283549	0.826100
O11	O	1.129449	-0.244063	0.284536
O12	O	1.629449	0.255937	0.784536
O13	O	1.019631	-0.116025	0.367694
O14	O	1.519631	0.383975	0.867694
O15	O	0.936622	-0.188883	0.174805
O16	O	1.436622	0.311117	0.674805
O17	O	1.129385	-0.188865	0.367687
O18	O	1.629385	0.311135	0.867687
O19	O	1.019781	-0.244073	0.174799
O20	O	1.519781	0.255927	0.674799
O21	O	0.936537	-0.116033	0.284549
O22	O	1.436537	0.383967	0.784549
O23	O	0.826835	-0.188854	0.284525
O24	O	1.326835	0.311146	0.784525
O25	O	0.936564	-0.316862	0.367644
O26	O	1.436564	0.183138	0.867644
O27	O	0.826810	-0.244022	0.367651
O28	O	1.326810	0.255978	0.867651
O29	O	1.019748	-0.316884	0.284511
O30	O	1.519748	0.183116	0.784511
O31	O	1.019598	-0.188836	0.477406
O32	O	1.519598	0.311164	0.977406
O33	O	0.936479	-0.244012	0.477387
O34	O	1.436479	0.255988	0.977387
C35	C	0.802264	-0.216437	0.326087
C36	C	1.302264	0.283563	0.826087
C37	C	0.727032	-0.216441	0.326097
C38	C	1.227032	0.283559	0.826097
C39	C	0.978162	-0.333629	0.326074
C40	C	1.478162	0.166371	0.826074
C41	C	0.978180	-0.383564	0.326063
C42	C	1.478180	0.116436	0.826063
C43	C	0.691692	-0.245120	0.369447
C44	C	1.191692	0.254880	0.869447
C45	C	0.621004	-0.245127	0.369448
C46	C	1.121004	0.254873	0.869448
C47	C	0.585656	-0.216451	0.326103
C48	C	1.085656	0.283549	0.826103
C49	C	0.621001	-0.187770	0.282749
C50	C	1.121001	0.312230	0.782749
C51	C	0.691688	-0.187767	0.282745
C52	C	1.191688	0.312233	0.782745
C53	C	0.335927	-0.187785	0.282764
C54	C	0.835927	0.312215	0.782764
C55	C	0.265235	-0.187790	0.282772
C56	C	0.765235	0.312210	0.782772
C57	C	0.265244	-0.245145	0.369467
C58	C	0.765244	0.254855	0.869467
C59	C	0.335931	-0.245141	0.369463
C60	C	0.835931	0.254859	0.869463
C61	C	0.371269	-0.216463	0.326107
C62	C	0.871269	0.283537	0.826107
C63	C	0.447917	-0.216457	0.326105
C64	C	0.947917	0.283543	0.826105
C65	C	0.509009	-0.216454	0.326107
C66	C	1.009009	0.283546	0.826107
C67	C	0.934926	-0.693214	0.282701
C68	C	1.434926	-0.193214	0.782701
C69	C	0.934945	-0.880888	0.282654
C70	C	1.434945	-0.380888	0.782654
O71	O	0.898135	-0.905158	0.245854
O72	O	1.398135	-0.405158	0.745854
N73	N	0.978212	-0.904349	0.325936
N74	N	1.478212	-0.404349	0.825936
C75	C	1.021473	-0.880890	0.369235
C76	C	1.521473	-0.380890	0.869235
O77	O	1.058270	-0.905151	0.406052
O78	O	1.558270	-0.405151	0.906052
C79	C	1.021450	-0.693217	0.369285
C80	C	1.521450	-0.193217	0.869285
C81	C	0.978186	-0.669758	0.325996
C82	C	1.478186	-0.169758	0.825996
C83	C	0.891664	-0.669755	0.239416
C84	C	1.391664	-0.169755	0.739416
C85	C	0.891663	-0.622840	0.239426
C86	C	1.391663	-0.122840	0.739426
C87	C	0.934922	-0.599383	0.282720
C88	C	1.434922	-0.099383	0.782720
C89	C	0.978184	-0.622843	0.326005
C90	C	1.478184	-0.122843	0.826005
C91	C	1.064708	-0.669759	0.412587
C92	C	1.564708	-0.169759	0.912587
C93	C	1.064697	-0.622838	0.412597
C94	C	1.564697	-0.122838	0.912597
C95	C	1.021433	-0.599378	0.369308
C96	C	1.521433	-0.099378	0.869308
C97	C	1.021442	-0.552471	0.369310
C98	C	1.521442	-0.052471	0.869310
N99	N	0.978176	-0.529009	0.326028
N100	N	1.478176	-0.029009	0.826028
C101	C	0.934916	-0.552466	0.282733
C102	C	1.434916	-0.052466	0.782733
C103	C	1.021483	-0.979420	0.369205
C104	C	1.521483	-0.479420	0.869205
C105	C	1.021490	-1.026338	0.369192
C106	C	1.521490	-0.526338	0.869192
C107	C	0.934961	-1.026333	0.282611
C108	C	1.434961	-0.526333	0.782611
C109	C	0.934958	-0.979414	0.282622
C110	C	1.434958	-0.479414	0.782622
C111	C	0.978217	-0.955959	0.325923
C112	C	1.478217	-0.455959	0.825923
C113	C	0.934916	-0.453940	0.282756
C114	C	1.434916	0.046060	0.782756
C115	C	0.934920	-0.407020	0.282768
C116	C	1.434920	0.092980	0.782768
C117	C	1.021446	-0.407030	0.369350
C118	C	1.521446	0.092970	0.869350
C119	C	1.021445	-0.453945	0.369337
C120	C	1.521445	0.046055	0.869337
C121	C	0.978174	-0.477399	0.326037
C122	C	1.478174	0.022601	0.826037
O123	O	1.058227	-0.528171	0.406096
O124	O	1.558227	-0.028171	0.906096
O125	O	0.898114	-0.528196	0.245932
O126	O	1.398114	-0.028196	0.745932
C127	C	0.934928	-0.740130	0.282692
C128	C	1.434928	-0.240130	0.782692
C129	C	0.978189	-0.763589	0.325977
C130	C	1.478189	-0.263589	0.825977
C131	C	1.021449	-0.740133	0.369271
C132	C	1.521449	-0.240133	0.869271
C133	C	0.978196	-0.810507	0.325963
C134	C	1.478196	-0.310507	0.825963
C135	C	0.934936	-0.833963	0.282669
C136	C	1.434936	-0.333963	0.782669
C137	C	0.891670	-0.810502	0.239387
C138	C	1.391670	-0.310502	0.739387
C139	C	0.891668	-0.763586	0.239397
C140	C	1.391668	-0.263586	0.739397
C141	C	1.064716	-0.763595	0.412553
C142	C	1.564716	-0.263595	0.912553
C143	C	1.064714	-0.810510	0.412539
C144	C	1.564714	-0.310510	0.912539
C145	C	1.021455	-0.833966	0.369244
C146	C	1.521455	-0.333966	0.869244
C147	C	1.154663	-0.216466	0.326113
C148	C	1.654663	0.283534	0.826113
C149	C	1.229895	-0.216472	0.326119
C150	C	1.729895	0.283528	0.826119
C151	C	0.978044	-0.216429	0.501956
C152	C	1.478044	0.283571	1.001956
C153	C	0.978073	-0.216435	0.577188
C154	C	1.478073	0.283565	1.077188
C155	C	0.978117	-0.099729	0.326077
C156	C	1.478117	0.400271	0.826077
C157	C	0.978230	-0.049794	0.325897
C158	C	1.478230	0.450206	0.825897
C159	C	0.978215	-0.216483	0.149557
C160	C	1.478215	0.283517	0.649557
C161	C	0.978255	-0.216496	0.074325
C162	C	1.478255	0.283504	0.574325
C163	C	1.021395	-0.187735	0.612519
C164	C	1.521395	0.312265	1.112519
C165	C	1.021424	-0.187745	0.683207
C166	C	1.521424	0.312255	1.183207
C167	C	0.978127	-0.216453	0.718563
C168	C	1.478127	0.283547	1.218563
C169	C	0.934803	-0.245156	0.683227
C170	C	1.434803	0.254844	1.183227
C171	C	0.934778	-0.245148	0.612540
C172	C	1.434778	0.254852	1.112540
C173	C	0.934902	-0.245189	0.968300
C174	C	1.434902	0.254811	1.468300
C175	C	0.934929	-0.245194	1.038992
C176	C	1.434929	0.254806	1.538992
C177	C	1.021549	-0.187786	1.038968
C178	C	1.521549	0.312214	1.538968
C179	C	1.021524	-0.187778	0.968281
C180	C	1.521524	0.312222	1.468281
C181	C	0.978203	-0.216483	0.932950
C182	C	1.478203	0.283517	1.432950
C183	C	0.978173	-0.216472	0.856302
C184	C	1.478173	0.283528	1.356302
C185	C	0.978152	-0.216462	0.795210
C186	C	1.478152	0.283538	1.295210
H187	H	0.720467	-0.268470	0.404746
H188	H	1.220467	0.231530	0.904746
H189	H	1.056701	-0.164374	0.711971
H190	H	1.556701	0.335626	1.211971
H191	H	0.899627	-0.268561	0.939540
H192	H	1.399627	0.231439	1.439540
H193	H	0.899501	-0.268519	0.583774
H194	H	1.399501	0.231481	1.083774
H195	H	0.236463	-0.268498	0.404767
H196	H	0.736463	0.231502	0.904767
C197	C	0.887320	-0.479732	0.235121
C198	C	1.387320	0.020268	0.735121
N199	N	0.851475	-0.499159	0.199238
N200	N	1.351475	0.000841	0.699238
C201	C	0.887371	-1.052143	0.234991
C202	C	1.387371	-0.552143	0.734991
N203	N	0.851524	-1.071586	0.199129
N204	N	1.351524	-0.571586	0.699129
C205	C	0.844076	-0.695550	0.191779
C206	C	1.344076	-0.195550	0.691779
N207	N	0.808234	-0.714975	0.155891
N208	N	1.308234	-0.214975	0.655891
C209	C	0.887173	-0.276733	0.722121
C210	C	1.387173	0.223267	1.222121
N211	N	0.851294	-0.300516	0.751415
N212	N	1.351294	0.199484	1.251415
H213	H	0.856449	-0.829608	0.204132
H214	H	1.356449	-0.329608	0.704132
H215	H	1.056682	-0.473047	0.404579
H216	H	1.556682	0.026953	0.904579
H217	H	1.056669	-0.387923	0.404598
H218	H	1.556669	0.112077	0.904598
H219	H	1.056778	-0.164400	0.939496
H220	H	1.556778	0.335600	1.439496
C221	C	0.374790	-0.156235	0.235075
C222	C	0.874790	0.343765	0.735075
N223	N	0.404064	-0.132469	0.199154
N224	N	0.904064	0.367531	0.699154
H225	H	0.236457	-0.164439	0.247471
H226	H	0.736457	0.335561	0.747471
H227	H	0.592215	-0.164424	0.247453
H228	H	1.092215	0.335576	0.747453
C229	C	1.112312	-0.836310	0.460164
C230	C	1.612312	-0.336310	0.960164
N231	N	1.148157	-0.855741	0.496040
N232	N	1.648157	-0.355741	0.996040
H233	H	1.099941	-0.744501	0.447812
H234	H	1.599941	-0.244501	0.947812
H235	H	0.592234	-0.268480	0.404748
H236	H	1.092234	0.231520	0.904748
H237	H	0.364707	-0.268491	0.404761
H238	H	0.864707	0.231509	0.904761
H239	H	0.720460	-0.164415	0.247442
H240	H	1.220460	0.335585	0.747442
C241	C	1.069025	-0.156153	0.573634
C242	C	1.569025	0.343847	1.073634
N243	N	1.104903	-0.132365	0.544348
N244	N	1.604903	0.367635	1.044348
C245	C	1.112299	-0.695553	0.460214
C246	C	1.612299	-0.195553	0.960214
N247	N	1.148145	-0.714981	0.496092
N248	N	1.648145	-0.214981	0.996092
C249	C	1.069090	-1.052138	0.416808
C250	C	1.569090	-0.552138	0.916808
N251	N	1.104940	-1.071569	0.452677
N252	N	1.604940	-0.571569	0.952677
C253	C	0.887322	-0.381218	0.235146
C254	C	1.387322	0.118782	0.735146
N255	N	0.851470	-0.361785	0.199280
N256	N	1.351470	0.138215	0.699280
C257	C	0.887300	-0.276779	1.077882
C258	C	1.387300	0.223221	1.577882
N259	N	0.851428	-0.300567	1.107174
N260	N	1.351428	0.199433	1.607174
C261	C	0.844061	-0.597041	0.191810
C262	C	1.344061	-0.097041	0.691810
N263	N	0.808203	-0.577612	0.155946
N264	N	1.308203	-0.077612	0.655946
C265	C	0.887360	-0.953613	0.235005
C266	C	1.387360	-0.453613	0.735005
N267	N	0.851505	-0.934182	0.199140
N268	N	1.351505	-0.434182	0.699140
C269	C	1.069098	-0.953625	0.416820
C270	C	1.569098	-0.453625	0.916820
N271	N	1.104972	-0.934199	0.452674
N272	N	1.604972	-0.434199	0.952674
C273	C	1.069207	-0.156213	1.077837
C274	C	1.569207	0.343787	1.577837
N275	N	1.105100	-0.132431	1.107113
N276	N	1.605100	0.367569	1.607113
C277	C	1.112291	-0.597040	0.460230
C278	C	1.612291	-0.097040	0.960230
N279	N	1.148141	-0.577610	0.496103
N280	N	1.648141	-0.077610	0.996103
H281	H	0.856437	-0.744490	0.204146
H282	H	1.356437	-0.244490	0.704146
