data_functionalizedCrystal
_audit_creation_method	'MofGen! by Chris Wilmer'
_symmetry_space_group_name_H-M	'P1'
_symmetry_Int_Tables_number	1
_symmetry_cell_setting	triclinic
loop_
_symmetry_equiv_pos_as_xyz
  x,y,z
_cell_length_a	13.262390
_cell_length_b	13.339070
_cell_length_c	12.376897
_cell_angle_alpha	99.011576
_cell_angle_beta	87.004615
_cell_angle_gamma	99.429367
loop_
_atom_site_label
_atom_site_type_symbol
_atom_site_fract_x
_atom_site_fract_y
_atom_site_fract_z
O1	O	-1.310730	-0.044362	0.496965
O2	O	-1.030554	-0.075153	0.410830
O3	O	-1.138487	0.085820	0.444009
O4	O	-1.202796	-0.205335	0.463786
O5	O	-1.181289	0.053434	0.269170
O6	O	-1.073355	-0.107538	0.235991
O7	O	-1.353532	-0.076748	0.322126
Zn8	Zn	-1.220239	-0.097285	0.251299
Zn9	Zn	-1.163846	-0.054616	0.481657
O10	O	-1.245598	-0.237720	0.288947
C11	C	-1.015362	-0.092598	0.312161
C12	C	-0.906326	-0.096319	0.278640
C13	C	-1.149025	0.106747	0.353251
C14	C	-1.116643	0.217352	0.343301
N15	N	-1.258733	-0.126405	0.094088
C16	C	-1.368722	-0.059302	0.420798
C17	C	-1.477757	-0.055580	0.454326
C18	C	-0.505648	-0.036176	0.565383
C19	C	-0.608091	-0.032675	0.596879
C20	C	-0.682655	-0.048586	0.517322
C21	C	-0.654765	-0.067998	0.406263
C22	C	-0.552310	-0.071491	0.374763
C23	C	-0.729318	-0.083901	0.326702
C24	C	-0.701428	-0.103313	0.215644
C25	C	-0.598983	-0.106806	0.184149
C26	C	-0.524419	-0.090895	0.263706
C27	C	-0.831772	-0.080408	0.358202
C28	C	-0.878435	-0.115723	0.167583
C29	C	-0.775992	-0.119224	0.136086
C30	C	-1.235060	-0.258647	0.379708
C31	C	-1.267440	-0.369251	0.389665
C32	C	-1.368419	0.595344	0.420704
C33	C	-1.398848	0.491425	0.430049
C34	C	-1.328299	0.422902	0.408363
C35	C	-1.227316	0.458308	0.377330
C36	C	-1.196886	0.562236	0.367977
C37	C	-1.156767	0.389793	0.355635
C38	C	-1.055784	0.425199	0.324603
C39	C	-1.025359	0.529118	0.315252
C40	C	-1.095908	0.597641	0.336938
C41	C	-1.187196	0.285865	0.364989
C42	C	-1.015664	0.252757	0.312261
C43	C	-0.985235	0.356676	0.302917
C44	C	-1.035963	0.042115	-0.329459
C45	C	-1.009005	0.062498	-0.219416
C46	C	-1.071435	0.015274	-0.141035
C47	C	-1.160827	-0.052336	-0.172707
C48	C	-1.187792	-0.072715	-0.282759
C49	C	-1.223264	-0.099556	-0.094335
C50	C	-1.312656	-0.167166	-0.126007
C51	C	-1.339616	-0.187542	-0.236049
C52	C	-1.277187	-0.140317	-0.314430
C53	C	-1.196298	-0.079178	0.015717
C54	C	-1.348128	-0.194008	0.062417
C55	C	-1.375086	-0.214390	-0.047626
N56	N	-1.125358	-0.025487	0.638870
H57	H	-0.854470	-0.064605	0.448627
F58	F	-1.470221	-0.286345	-0.081348
H59	H	-1.299129	-0.156914	-0.404039
F60	F	-0.415385	-0.094627	0.230190
H61	H	-1.353081	0.338287	0.415972
H62	H	-0.766068	-0.045736	0.542973
F63	F	-0.969535	0.092371	-0.412879
H64	H	-0.576277	-0.122594	0.093717
F65	F	-0.957786	-0.132651	0.082905
F66	F	-0.746296	-0.139882	0.017892
H67	H	-1.269417	0.257048	0.390255
H68	H	-1.481068	0.462604	0.455314
H69	H	-1.071136	0.682263	0.329335
F70	F	-1.443494	0.668272	0.443764
F71	F	-1.434763	-0.259488	-0.269751
H72	H	-0.943134	0.557940	0.289975
H73	H	-1.398964	-0.232461	0.126236
H74	H	-0.630791	-0.016865	0.687303
H75	H	-0.936224	0.117548	-0.193636
H76	H	-0.444930	-0.023214	0.630146
H77	H	-0.958218	0.196964	0.294597
F78	F	-1.101164	-0.007224	0.049413
F79	F	-0.877763	0.394372	0.269893
F80	F	-1.042740	0.036968	-0.023918
