data_functionalizedCrystal
_audit_creation_method	'MofGen! by Chris Wilmer'
_symmetry_space_group_name_H-M	'P1'
_symmetry_Int_Tables_number	1
_symmetry_cell_setting	triclinic
loop_
_symmetry_equiv_pos_as_xyz
  x,y,z
_cell_length_a	10.723024
_cell_length_b	10.489741
_cell_length_c	9.798715
_cell_angle_alpha	89.997135
_cell_angle_beta	89.996609
_cell_angle_gamma	84.503522
loop_
_atom_site_label
_atom_site_type_symbol
_atom_site_fract_x
_atom_site_fract_y
_atom_site_fract_z
O1	O	1.657297	0.178906	-0.113481
O2	O	1.294155	0.196031	-0.113486
O3	O	1.483989	0.001865	-0.113475
O4	O	1.467463	0.373072	-0.113492
O5	O	1.483975	0.001865	0.113507
O6	O	1.294141	0.196030	0.113496
O7	O	1.657283	0.178906	0.113501
Zn8	Zn	1.475709	0.187468	0.149537
Zn9	Zn	1.475728	0.187469	-0.149522
O10	O	1.467448	0.373071	0.113490
C11	C	1.247647	0.194785	0.000005
C12	C	1.109091	0.191056	0.000003
C13	C	1.034175	0.299701	-0.000003
C14	C	0.890969	0.295850	-0.000004
C15	C	1.482734	-0.045666	0.000015
C16	C	1.478999	-0.187293	0.000012
C17	C	1.358213	-0.255356	0.000001
C18	C	1.415265	-0.347515	0.111915
C19	C	1.415307	-0.347489	-0.111871
C20	C	1.536100	-0.277587	0.112019
C21	C	1.536126	-0.277551	-0.111868
C22	C	1.593265	-0.369683	0.000074
C23	C	1.703790	0.180152	0.000007
C24	C	1.842347	0.183881	-0.000000
C25	C	1.468704	0.420602	-0.000003
C26	C	1.472438	0.562229	-0.000009
N27	N	1.475706	0.187467	0.353637
N28	N	1.475742	0.187460	-0.353622
C29	C	1.555412	0.105583	0.421418
C30	C	1.555432	0.105578	0.578581
H31	H	1.076055	0.395567	0.000001
H32	H	1.587196	-0.246539	-0.206487
C33	C	1.346222	-0.389374	0.239734
C34	C	1.414888	-0.481956	0.342960
C35	C	1.345838	-0.523808	0.470774
C36	C	1.208122	-0.473077	0.495362
C37	C	1.139449	-0.380490	0.392134
C38	C	1.208499	-0.338639	0.264320
H39	H	1.516840	-0.519515	0.324761
H40	H	1.396675	-0.592347	0.547190
H41	H	1.157007	-0.504058	0.589978
H42	H	1.037496	-0.342931	0.410333
H43	H	1.157661	-0.270099	0.187903
C44	C	1.647586	0.010874	0.342647
C45	C	1.647319	0.010889	0.185490
C46	C	1.739497	-0.083824	0.106725
C47	C	1.831942	-0.178552	0.185115
C48	C	1.832212	-0.178571	0.342280
C49	C	1.740034	-0.083858	0.421046
H50	H	1.578882	0.081016	0.127453
H51	H	1.739296	-0.083809	-0.009619
H52	H	1.900177	-0.248665	0.126808
H53	H	1.900649	-0.248698	0.400318
H54	H	1.740235	-0.083873	0.537390
H55	H	1.407476	0.257563	0.411957
C56	C	0.929296	0.058218	0.000007
C57	C	1.022617	0.028818	0.117875
C58	C	1.109577	-0.096844	0.117881
C59	C	1.103216	-0.193107	0.000020
C60	C	1.009891	-0.163710	-0.117857
C61	C	0.922931	-0.038048	-0.117864
H62	H	1.027330	0.100080	0.205131
H63	H	1.178663	-0.118605	0.205142
H64	H	1.167589	-0.286130	0.000025
H65	H	1.005178	-0.234972	-0.205113
H66	H	0.853845	-0.016287	-0.205125
H67	H	1.258904	-0.205641	0.000112
C68	C	1.647625	0.010866	0.657314
C69	C	1.597642	-0.086853	0.755643
C70	C	1.689839	-0.181569	0.834380
C71	C	1.832018	-0.178566	0.814788
C72	C	1.882008	-0.080843	0.716454
C73	C	1.789811	0.013872	0.637718
H74	H	1.492386	-0.089079	0.770151
H75	H	1.652832	-0.253909	0.907173
H76	H	1.900267	-0.248680	0.873073
H77	H	1.987264	-0.078617	0.701947
H78	H	1.826818	0.086213	0.564925
H79	H	0.826593	0.388858	-0.000015
H80	H	1.587157	-0.246787	0.206741
H81	H	1.067210	0.095190	-0.000028
H82	H	1.692663	-0.419171	0.000138
H83	H	1.364191	-0.378420	-0.206495
H84	H	1.407503	0.257572	0.588098
