data_functionalizedCrystal
_audit_creation_method	'MofGen! by Chris Wilmer'
_symmetry_space_group_name_H-M	'P1'
_symmetry_Int_Tables_number	1
_symmetry_cell_setting	triclinic
loop_
_symmetry_equiv_pos_as_xyz
  x,y,z
_cell_length_a	8.559649
_cell_length_b	7.681481
_cell_length_c	8.559649
_cell_angle_alpha	94.930900
_cell_angle_beta	110.221336
_cell_angle_gamma	94.912555
loop_
_atom_site_label
_atom_site_type_symbol
_atom_site_fract_x
_atom_site_fract_y
_atom_site_fract_z
O1	O	-2.109658	0.146430	-0.037794
O2	O	-1.634173	0.146430	0.045988
O3	O	-1.913806	0.146429	-0.233646
O4	O	-1.830024	0.146432	0.241840
O5	O	-1.948233	-0.146429	-0.268133
O6	O	-1.668600	-0.146428	0.011500
O7	O	-2.144084	-0.146428	-0.072281
Zn8	Zn	-1.911808	-0.192925	-0.035866
Zn9	Zn	-1.866449	0.192928	0.009573
O10	O	-1.864451	-0.146426	0.207352
C11	C	-1.591077	0.000002	0.035093
C12	C	-1.411378	0.000002	0.053992
N13	N	-1.942776	-0.456260	-0.066880
C14	C	-1.187180	0.000002	-0.061387
C15	C	-1.366879	0.000003	-0.080286
C16	C	-1.937368	0.000003	-0.311198
C17	C	-1.956266	0.000013	-0.490896
N18	N	-1.835496	0.456262	0.040571
C19	C	-1.840889	0.000004	0.284905
C20	C	-1.821989	0.000006	0.464604
H21	H	-1.466256	0.000011	-0.209704
H22	H	-2.052304	-0.531466	-0.176553
Br23	Br	-1.606273	-0.000005	-0.369764
Br24	Br	-1.245734	0.000027	0.269722
H25	H	-2.085696	-0.000002	-0.590286
H26	H	-1.725985	-0.468540	0.150248
