data_functionalizedCrystal
_audit_creation_method	'MofGen! by Chris Wilmer'
_symmetry_space_group_name_H-M	'P1'
_symmetry_Int_Tables_number	1
_symmetry_cell_setting	triclinic
loop_
_symmetry_equiv_pos_as_xyz
  x,y,z
_cell_length_a	26.210047
_cell_length_b	27.732048
_cell_length_c	27.732048
_cell_angle_alpha	82.642654
_cell_angle_beta	90.000479
_cell_angle_gamma	90.011447
loop_
_atom_site_label
_atom_site_type_symbol
_atom_site_fract_x
_atom_site_fract_y
_atom_site_fract_z
O1	O	0.042463	0.640931	0.057510
O2	O	0.542463	1.140931	0.557510
O3	O	0.042459	0.500138	0.066255
O4	O	0.542459	1.000138	0.566255
O5	O	0.042451	0.574907	-0.008514
O6	O	0.542451	1.074907	0.491486
O7	O	0.042470	0.566162	0.132279
O8	O	0.542470	1.066162	0.632279
O9	O	-0.042407	0.574893	-0.008502
O10	O	0.457593	1.074893	0.491498
O11	O	-0.042399	0.500123	0.066267
O12	O	0.457601	1.000123	0.566267
O13	O	-0.042395	0.640917	0.057522
O14	O	0.457605	1.140917	0.557522
Cu15	Cu	-0.050145	0.570519	0.061895
Cu16	Cu	0.449855	1.070519	0.561895
Cu17	Cu	0.050209	0.570536	0.061882
Cu18	Cu	0.550209	1.070536	0.561882
O19	O	-0.042388	0.566147	0.132291
O20	O	0.457612	1.066147	0.632291
C21	C	0.000029	0.482124	0.066078
C22	C	0.500029	0.982124	0.566078
C23	C	0.000027	0.428469	0.065525
C24	C	0.500027	0.928469	0.565525
N25	N	-0.120729	0.570510	0.061905
N26	N	0.379271	1.070510	0.561905
C27	C	0.000021	0.574716	-0.026515
C28	C	0.500021	1.074716	0.473485
C29	C	0.000017	0.574164	-0.080170
C30	C	0.500017	1.074164	0.419830
C31	C	-0.473247	0.603640	0.028781
C32	C	0.026753	1.103640	0.528781
C33	C	-0.686905	0.603651	0.028774
C34	C	-0.186905	1.103651	0.528774
O35	O	-0.714530	0.631801	0.000614
O36	O	-0.214530	1.131801	0.500614
N37	N	-0.713623	0.570538	0.061871
N38	N	-0.213623	1.070538	0.561871
C39	C	-0.686923	0.537419	0.094970
C40	C	-0.186923	1.037419	0.594970
O41	O	-0.714551	0.509251	0.123117
O42	O	-0.214551	1.009251	0.623117
C43	C	-0.473266	0.537406	0.094974
C44	C	0.026734	1.037406	0.594974
C45	C	-0.446550	0.570524	0.061878
C46	C	0.053450	1.070524	0.561878
C47	C	-0.446531	0.636755	-0.004312
C48	C	0.053469	1.136755	0.495688
C49	C	-0.393120	0.636754	-0.004308
C50	C	0.106880	1.136754	0.495692
C51	C	-0.366424	0.603638	0.028789
C52	C	0.133576	1.103638	0.528789
C53	C	-0.393139	0.570523	0.061882
C54	C	0.106861	1.070523	0.561882
C55	C	-0.446567	0.504284	0.128070
C56	C	0.053433	1.004284	0.628070
C57	C	-0.393149	0.504283	0.128067
C58	C	0.106851	1.004283	0.628067
C59	C	-0.366434	0.537401	0.094971
C60	C	0.133566	1.037401	0.594971
C61	C	-0.313031	0.537405	0.094983
C62	C	0.186969	1.037405	0.594983
N63	N	-0.286313	0.570518	0.061886
N64	N	0.213687	1.070518	0.561886
C65	C	-0.313010	0.603634	0.028789
C66	C	0.186990	1.103634	0.528789
C67	C	-0.799097	0.537428	0.094966
C68	C	-0.299097	1.037428	0.594966
C69	C	-0.852511	0.537432	0.094965
C70	C	-0.352511	1.037432	0.594965
C71	C	-0.852489	0.603664	0.028769
C72	C	-0.352489	1.103664	0.528769
C73	C	-0.799074	0.603662	0.028773
C74	C	-0.299074	1.103662	0.528773
C75	C	-0.772379	0.570541	0.061869
C76	C	-0.272379	1.070541	0.561869
C77	C	-0.200842	0.603629	0.028800
C78	C	0.299158	1.103629	0.528800
C79	C	-0.147425	0.603626	0.028808
C80	C	0.352575	1.103626	0.528808
C81	C	-0.147452	0.537393	0.095002
C82	C	0.352548	1.037393	0.595002
C83	C	-0.200863	0.537397	0.094996
C84	C	0.299137	1.037397	0.594996
C85	C	-0.227557	0.570517	0.061891
C86	C	0.272443	1.070517	0.561891
O87	O	-0.285374	0.509267	0.123125
O88	O	0.214626	1.009267	0.623125
O89	O	-0.285372	0.631790	0.000639
O90	O	0.214628	1.131790	0.500639
C91	C	-0.526658	0.603642	0.028777
C92	C	-0.026658	1.103642	0.528777
C93	C	-0.553373	0.570527	0.061871
C94	C	-0.053373	1.070527	0.561871
C95	C	-0.526677	0.537410	0.094968
C96	C	-0.026677	1.037410	0.594968
C97	C	-0.606788	0.570530	0.061870
C98	C	-0.106788	1.070530	0.561870
C99	C	-0.633484	0.603646	0.028773
C100	C	-0.133484	1.103646	0.528773
C101	C	-0.606766	0.636759	-0.004323
C102	C	-0.106766	1.136759	0.495677
C103	C	-0.553354	0.636758	-0.004320
C104	C	-0.053354	1.136758	0.495680
C105	C	-0.553395	0.504298	0.128064
C106	C	-0.053395	1.004298	0.628064
C107	C	-0.606807	0.504302	0.128058
C108	C	-0.106807	1.004302	0.628058
C109	C	-0.633503	0.537418	0.094961
C110	C	-0.133503	1.037418	0.594961
N111	N	0.120793	0.570548	0.061868
N112	N	0.620793	1.070548	0.561868
C113	C	0.000036	0.658931	0.057699
C114	C	0.500036	1.158931	0.557699
C115	C	0.000041	0.712586	0.058252
C116	C	0.500041	1.212586	0.558252
C117	C	0.000018	1.051401	0.017548
C118	C	0.500018	1.551401	0.517548
C119	C	0.000017	1.253060	0.019599
C120	C	0.500017	1.753060	0.519599
O121	O	-0.000010	1.284316	-0.017621
O122	O	0.499990	1.784316	0.482379
N123	N	0.000025	1.272184	0.063935
N124	N	0.500025	1.772184	0.563935
C125	C	0.000029	1.240890	0.107760
C126	C	0.500029	1.740890	0.607760
O127	O	0.000030	1.261783	0.145517
O128	O	0.500030	1.761783	0.645517
C129	C	0.000027	1.039231	0.105709
C130	C	0.500027	1.539231	0.605709
C131	C	0.000024	1.020110	0.061371
C132	C	0.500024	1.520110	0.561371
C133	C	0.000015	1.032280	-0.026786
C134	C	0.500015	1.532280	0.473214
C135	C	0.000019	0.981868	-0.027298
C136	C	0.500019	1.481868	0.472702
C137	C	0.000025	0.950577	0.016524
C138	C	0.500025	1.450577	0.516524
C139	C	0.000028	0.969698	0.060858
C140	C	0.500028	1.469698	0.560858
C141	C	0.000028	1.007937	0.149534
C142	C	0.500028	1.507937	0.649534
C143	C	0.000026	0.957520	0.149017
C144	C	0.500026	1.457520	0.649017
C145	C	0.000023	0.938399	0.104679
C146	C	0.500023	1.438399	0.604679
C147	C	0.000037	0.887996	0.104168
C148	C	0.500037	1.387996	0.604168
N149	N	0.000029	0.868872	0.059833
N150	N	0.500029	1.368872	0.559833
C151	C	0.000023	0.900163	0.016011
C152	C	0.500023	1.400163	0.516011
C153	C	0.000031	1.346764	0.108834
C154	C	0.500031	1.846764	0.608834
C155	C	0.000033	1.397178	0.109347
C156	C	0.500033	1.897178	0.609347
C157	C	0.000020	1.409345	0.021186
C158	C	0.500020	1.909345	0.521186
C159	C	0.000022	1.358930	0.020674
C160	C	0.500022	1.858930	0.520674
C161	C	0.000024	1.327640	0.064499
C162	C	0.500024	1.827640	0.564499
C163	C	0.000030	0.794293	0.014938
C164	C	0.500030	1.294293	0.514938
C165	C	0.000035	0.743876	0.014430
C166	C	0.500035	1.243876	0.514430
C167	C	0.000046	0.731713	0.102591
C168	C	0.500046	1.231713	0.602591
C169	C	0.000043	0.782126	0.103099
C170	C	0.500043	1.282126	0.603099
C171	C	0.000034	0.813415	0.059269
C172	C	0.500034	1.313415	0.559269
O173	O	0.000058	0.856712	0.141369
O174	O	0.500058	1.356712	0.641369
O175	O	0.000011	0.879260	-0.021740
O176	O	0.500011	1.379260	0.478260
C177	C	0.000015	1.101813	0.018061
C178	C	0.500015	1.601813	0.518061
C179	C	0.000018	1.120934	0.062395
C180	C	0.500018	1.620934	0.562395
C181	C	0.000024	1.089643	0.106217
C182	C	0.500024	1.589643	0.606217
C183	C	0.000020	1.171348	0.062908
C184	C	0.500020	1.671348	0.562908
C185	C	0.000014	1.202639	0.019086
C186	C	0.500014	1.702639	0.519086
C187	C	0.000006	1.183515	-0.025249
C188	C	0.500006	1.683515	0.474751
C189	C	0.000009	1.133103	-0.025761
C190	C	0.500009	1.633103	0.474239
C191	C	0.000032	1.108767	0.150553
C192	C	0.500032	1.608767	0.650553
C193	C	0.000029	1.159180	0.151061
C194	C	0.500029	1.659180	0.651061
C195	C	0.000023	1.190470	0.107239
C196	C	0.500023	1.690470	0.607239
C197	C	0.000044	0.614867	-0.418985
C198	C	0.500044	1.114867	0.081015
C199	C	0.000051	0.612816	-0.620645
C200	C	0.500051	1.112816	-0.120645
O201	O	0.000075	0.650037	-0.651900
O202	O	0.500075	1.150037	-0.151900
N203	N	0.000049	0.568481	-0.639768
N204	N	0.500049	1.068481	-0.139768
C205	C	0.000049	0.524656	-0.608474
C206	C	0.500049	1.024656	-0.108474
O207	O	0.000053	0.486899	-0.629367
O208	O	0.500053	0.986899	-0.129367
C209	C	0.000046	0.526707	-0.406815
C210	C	0.500046	1.026707	0.093185
C211	C	0.000042	0.571045	-0.387694
C212	C	0.500042	1.071045	0.112306
C213	C	0.000041	0.659202	-0.399864
C214	C	0.500041	1.159202	0.100136
C215	C	0.000037	0.659714	-0.349452
C216	C	0.500037	1.159714	0.150548
C217	C	0.000035	0.615892	-0.318161
C218	C	0.500035	1.115892	0.181839
C219	C	0.000038	0.571557	-0.337282
C220	C	0.500038	1.071557	0.162718
C221	C	0.000049	0.482882	-0.375521
C222	C	0.500049	0.982882	0.124479
C223	C	0.000049	0.483399	-0.325104
C224	C	0.500049	0.983399	0.174896
C225	C	0.000046	0.527737	-0.305983
C226	C	0.500046	1.027737	0.194017
C227	C	0.000031	0.528248	-0.255580
C228	C	0.500031	1.028248	0.244420
N229	N	0.000033	0.572583	-0.236456
N230	N	0.500033	1.072583	0.263544
C231	C	0.000035	0.616405	-0.267747
C232	C	0.500035	1.116405	0.232253
C233	C	0.000050	0.523582	-0.714348
C234	C	0.500050	1.023582	-0.214348
C235	C	0.000050	0.523069	-0.764762
C236	C	0.500050	1.023069	-0.264762
C237	C	0.000053	0.611230	-0.776930
C238	C	0.500053	1.111230	-0.276930
C239	C	0.000049	0.611742	-0.726514
C240	C	0.500049	1.111742	-0.226514
C241	C	0.000052	0.567917	-0.695224
C242	C	0.500052	1.067917	-0.195224
C243	C	0.000025	0.617477	-0.161878
C244	C	0.500025	1.117477	0.338122
C245	C	0.000019	0.617986	-0.111461
C246	C	0.500019	1.117986	0.388539
C247	C	0.000018	0.529825	-0.099298
C248	C	0.500018	1.029825	0.400702
C249	C	0.000022	0.529316	-0.149710
C250	C	0.500022	1.029316	0.350290
C251	C	0.000027	0.573147	-0.180999
C252	C	0.500027	1.073147	0.319001
O253	O	0.000014	0.491047	-0.224296
O254	O	0.500014	0.991047	0.275704
O255	O	0.000043	0.654156	-0.246844
O256	O	0.500043	1.154156	0.253156
C257	C	0.000049	0.614355	-0.469397
C258	C	0.500049	1.114355	0.030603
C259	C	0.000051	0.570021	-0.488518
C260	C	0.500051	1.070021	0.011482
C261	C	0.000050	0.526198	-0.457228
C262	C	0.500050	1.026198	0.042772
C263	C	0.000051	0.569508	-0.538933
C264	C	0.500051	1.069508	-0.038933
C265	C	0.000053	0.613330	-0.570223
C266	C	0.500053	1.113330	-0.070223
C267	C	0.000055	0.657665	-0.551100
C268	C	0.500055	1.157665	-0.051100
C269	C	0.000051	0.658177	-0.500688
C270	C	0.500051	1.158177	-0.000688
C271	C	0.000048	0.481863	-0.476351
C272	C	0.500048	0.981863	0.023649
C273	C	0.000052	0.481355	-0.526764
C274	C	0.500052	0.981355	-0.026764
C275	C	0.000053	0.525177	-0.558054
C276	C	0.500053	1.025177	-0.058054
C277	C	0.000044	0.566338	0.150292
C278	C	0.500044	1.066338	0.650292
C279	C	0.000052	0.566891	0.203947
C280	C	0.500052	1.066891	0.703947
H281	H	-0.125675	0.630597	0.001858
H282	H	0.374325	1.130597	0.501858
H283	H	0.000015	0.494146	-0.073812
H284	H	0.500015	0.994146	0.426188
Cl285	Cl	0.000052	0.468481	-0.675018
Cl286	Cl	0.500052	0.968481	-0.175018
Cl287	Cl	0.000026	0.918186	0.204115
Cl288	Cl	0.500026	1.418186	0.704115
H289	H	0.000047	0.647846	-0.710950
H290	H	0.500047	1.147846	-0.210950
H291	H	0.000033	1.321291	0.144524
H292	H	0.500033	1.821291	0.644524
H293	H	0.000048	0.694282	-0.485125
H294	H	0.500048	1.194282	0.014875
H295	H	0.000055	0.446777	-0.391080
H296	H	0.500055	0.946777	0.108920
H297	H	0.000054	0.693347	-0.576585
H298	H	0.500054	1.193347	-0.076585
Cl299	Cl	0.000012	1.448691	-0.033904
Cl300	Cl	0.500012	1.948691	0.466096
H301	H	-0.222569	0.630598	0.001842
H302	H	0.277431	1.130598	0.501842
H303	H	0.000015	0.966305	-0.063403
H304	H	0.500015	1.466305	0.436597
H305	H	-0.531606	0.663725	-0.031269
H306	H	-0.031606	1.163725	0.468731
Cl307	Cl	0.000058	0.666320	-0.816276
Cl308	Cl	0.500058	1.166320	-0.316276
Cl309	Cl	0.000053	0.425609	-0.550794
Cl310	Cl	0.500053	0.925609	-0.050794
H311	H	0.000035	0.728311	-0.021677
H312	H	0.500035	1.228311	0.478323
Cl313	Cl	0.000016	0.473577	-0.173748
Cl314	Cl	0.500016	0.973577	0.326252
Cl315	Cl	-0.640337	0.678392	-0.045929
Cl316	Cl	-0.140337	1.178392	0.454071
H317	H	-0.371371	0.663720	-0.031259
H318	H	0.128629	1.163720	0.468741
Cl319	Cl	0.000053	0.428300	-0.285770
Cl320	Cl	0.500053	0.928300	0.214230
Cl321	Cl	0.000046	0.426766	-0.437021
Cl322	Cl	0.500046	0.926766	0.062979
Cl323	Cl	0.000042	1.069437	0.205649
Cl324	Cl	0.500042	1.569437	0.705649
H325	H	-0.468263	0.663722	-0.031266
H326	H	0.031737	1.163722	0.468734
H327	H	-0.777325	0.630629	0.001823
H328	H	-0.277325	1.130629	0.501823
Cl329	Cl	0.000036	1.183210	0.206807
Cl330	Cl	0.500036	1.683210	0.706807
H331	H	0.000043	0.486964	-0.780325
H332	H	0.500043	0.986964	-0.280325
H333	H	0.000009	1.057752	-0.062473
H334	H	0.500009	1.557752	0.437527
Cl335	Cl	-0.640386	0.462666	0.169670
Cl336	Cl	-0.140386	0.962666	0.669670
Cl337	Cl	-0.886060	0.645294	-0.012838
Cl338	Cl	-0.386060	1.145294	0.487162
Cl339	Cl	-0.886090	0.495803	0.136579
Cl340	Cl	-0.386090	0.995803	0.636579
Cl341	Cl	0.000008	1.109074	-0.081504
Cl342	Cl	0.500008	1.609074	0.418496
H343	H	-0.222615	0.510434	0.121950
H344	H	0.277385	1.010434	0.621950
Cl345	Cl	-0.765543	0.495788	0.136578
Cl346	Cl	-0.265543	0.995788	0.636578
H347	H	-0.468311	0.477317	0.155019
H348	H	0.031689	0.977317	0.655019
H349	H	-0.531663	0.477330	0.155015
H350	H	-0.031663	0.977330	0.655015
Cl351	Cl	0.000020	0.833621	-0.040163
Cl352	Cl	0.500020	1.333621	0.459837
Cl353	Cl	0.000046	1.421209	0.165089
Cl354	Cl	0.500046	1.921209	0.665089
Cl355	Cl	-0.359593	0.462642	0.169676
Cl356	Cl	0.140407	0.962642	0.669676
Cl357	Cl	-0.113883	0.495763	0.136608
Cl358	Cl	0.386117	0.995763	0.636608
H359	H	0.000020	1.343366	-0.015430
H360	H	0.500020	1.843366	0.484570
H361	H	0.000032	1.023496	0.185639
H362	H	0.500032	1.523496	0.685639
H363	H	0.000046	0.797695	0.139203
H364	H	0.500046	1.297695	0.639203
H365	H	0.000004	1.209001	-0.060931
H366	H	0.500004	1.709001	0.439069
Cl367	Cl	0.000015	0.673729	-0.087427
Cl368	Cl	0.500015	1.173729	0.412573
Cl369	Cl	0.000031	0.672579	-0.201205
Cl370	Cl	0.500031	1.172579	0.298795
Cl371	Cl	0.000047	0.715457	-0.325422
Cl372	Cl	0.500047	1.215457	0.174578
H373	H	0.000053	0.706228	0.138270
H374	H	0.500053	1.206228	0.638270
H375	H	0.000045	0.694889	-0.425336
H376	H	0.500045	1.194889	0.074664
