data_functionalizedCrystal
_audit_creation_method	'MofGen! by Chris Wilmer'
_symmetry_space_group_name_H-M	'P1'
_symmetry_Int_Tables_number	1
_symmetry_cell_setting	triclinic
loop_
_symmetry_equiv_pos_as_xyz
  x,y,z
_cell_length_a	29.839134
_cell_length_b	29.839132
_cell_length_c	19.076919
_cell_angle_alpha	92.265092
_cell_angle_beta	87.728549
_cell_angle_gamma	89.959876
loop_
_atom_site_label
_atom_site_type_symbol
_atom_site_fract_x
_atom_site_fract_y
_atom_site_fract_z
Zn1	Zn	0.676515	0.189133	0.398103
Zn2	Zn	1.176515	0.689133	0.898103
Zn3	Zn	0.679456	0.261242	0.280399
Zn4	Zn	1.179456	0.761242	0.780399
Zn5	Zn	0.604412	0.186121	0.280403
Zn6	Zn	1.104412	0.686121	0.780403
Zn7	Zn	0.601343	0.264228	0.398033
Zn8	Zn	1.101343	0.764228	0.898033
O9	O	0.640431	0.225181	0.339234
O10	O	1.140431	0.725181	0.839234
O11	O	0.739772	0.198709	0.382517
O12	O	1.239772	0.698709	0.882517
O13	O	0.672016	0.248767	0.181912
O14	O	1.172016	0.748767	0.681912
O15	O	0.614030	0.123654	0.296047
O16	O	1.114030	0.623654	0.796047
O17	O	0.741932	0.251688	0.296040
O18	O	1.241932	0.751688	0.796040
O19	O	0.667004	0.125867	0.382521
O20	O	1.167004	0.625867	0.882521
O21	O	0.616881	0.193576	0.181915
O22	O	1.116881	0.693576	0.681915
O23	O	0.541138	0.196470	0.295979
O24	O	1.041138	0.696470	0.795979
O25	O	0.608800	0.256776	0.496530
O26	O	1.108800	0.756776	0.996530
O27	O	0.538883	0.253856	0.382402
O28	O	1.038883	0.753856	0.882402
O29	O	0.664029	0.201604	0.496582
O30	O	1.164029	0.701604	0.996582
O31	O	0.669040	0.324505	0.295973
O32	O	1.169040	0.824505	0.795973
O33	O	0.611651	0.326698	0.382398
O34	O	1.111651	0.826698	0.882398
C35	C	0.523710	0.225161	0.339184
C36	C	1.023710	0.725161	0.839184
C37	C	0.473776	0.225163	0.339179
C38	C	0.973776	0.725163	0.839179
C39	C	0.640344	0.341902	0.339192
C40	C	1.140344	0.841902	0.839192
C41	C	0.640346	0.391837	0.339198
C42	C	1.140346	0.891837	0.839198
C43	C	0.670333	0.700327	0.294270
C44	C	1.170333	1.200327	0.794270
C45	C	0.670376	0.888001	0.294286
C46	C	1.170376	1.388001	0.794286
O47	O	0.695824	0.911285	0.256074
O48	O	1.195824	1.411285	0.756074
N49	N	0.640478	0.912623	0.339246
N50	N	1.140478	1.412623	0.839246
C51	C	0.610570	0.890324	0.384209
C52	C	1.110570	1.390324	0.884209
O53	O	0.585144	0.915574	0.422455
O54	O	1.085144	1.415574	0.922455
C55	C	0.610530	0.702652	0.384196
C56	C	1.110530	1.202652	0.884196
C57	C	0.640426	0.678032	0.339227
C58	C	1.140426	1.178032	0.839227
C59	C	0.700228	0.675707	0.249306
C60	C	1.200228	1.175707	0.749306
C61	C	0.700215	0.628792	0.249300
C62	C	1.200215	1.128792	0.749300
C63	C	0.670308	0.606496	0.294257
C64	C	1.170308	1.106496	0.794257
C65	C	0.640414	0.631116	0.339221
C66	C	1.140414	1.131116	0.839221
C67	C	0.580624	0.680354	0.429161
C68	C	1.080624	1.180354	0.929161
C69	C	0.580617	0.633433	0.429155
C70	C	1.080617	1.133433	0.929155
C71	C	0.610514	0.608813	0.384187
C72	C	1.110514	1.108813	0.884187
C73	C	0.610494	0.561905	0.384173
C74	C	1.110494	1.061905	0.884173
N75	N	0.640392	0.537283	0.339213
N76	N	1.140392	1.037283	0.839213
C77	C	0.670299	0.559578	0.294255
C78	C	1.170299	1.059578	0.794255
C79	C	0.610592	0.988855	0.384211
C80	C	1.110592	1.488855	0.884211
C81	C	0.610602	1.035773	0.384214
C82	C	1.110602	1.535773	0.884214
C83	C	0.670408	1.033446	0.294292
C84	C	1.170408	1.533446	0.794292
C85	C	0.670397	0.986527	0.294286
C86	C	1.170397	1.486527	0.794286
C87	C	0.640490	0.964233	0.339251
C88	C	1.140490	1.464233	0.839251
C89	C	0.670270	0.461052	0.294245
C90	C	1.170270	0.961052	0.794245
C91	C	0.670254	0.414133	0.294240
C92	C	1.170254	0.914133	0.794240
C93	C	0.610448	0.416464	0.384165
C94	C	1.110448	0.916464	0.884165
C95	C	0.610463	0.463379	0.384167
C96	C	1.110463	0.963379	0.884167
C97	C	0.640378	0.485672	0.339204
C98	C	1.140378	0.985672	0.839204
O99	O	0.585063	0.538592	0.422370
O100	O	1.085063	1.038592	0.922370
O101	O	0.695728	0.534321	0.256025
O102	O	1.195728	1.034321	0.756025
C103	C	0.670346	0.747243	0.294276
C104	C	1.170346	1.247243	0.794276
C105	C	0.640452	0.771863	0.339240
C106	C	1.140452	1.271863	0.839240
C107	C	0.610544	0.749568	0.384198
C108	C	1.110544	1.249568	0.884198
C109	C	0.640461	0.818781	0.339242
C110	C	1.140461	1.318781	0.839242
C111	C	0.670368	0.841077	0.294285
C112	C	1.170368	1.341077	0.794285
C113	C	0.700266	0.816454	0.249325
C114	C	1.200266	1.316454	0.749325
C115	C	0.700253	0.769539	0.249318
C116	C	1.200253	1.269539	0.749318
C117	C	0.580647	0.774190	0.429158
C118	C	1.080647	1.274190	0.929158
C119	C	0.580661	0.821105	0.429160
C120	C	1.080661	1.321105	0.929160
C121	C	0.610568	0.843401	0.384202
C122	C	1.110568	1.343401	0.884202
C123	C	0.162968	0.255102	0.384179
C124	C	0.662968	0.755102	0.884179
C125	C	-0.024706	0.255116	0.384211
C126	C	0.475294	0.755116	0.884211
O127	O	-0.049960	0.280549	0.422442
O128	O	0.450040	0.780549	0.922442
N129	N	-0.047012	0.225199	0.339287
N130	N	0.452988	0.725199	0.839287
C131	C	-0.022397	0.195274	0.294357
C132	C	0.477603	0.695274	0.794357
O133	O	-0.045676	0.169825	0.256152
O134	O	0.454324	0.669825	0.756152
C135	C	0.165276	0.195259	0.294329
C136	C	0.665276	0.695259	0.794329
C137	C	0.187580	0.225181	0.339250
C138	C	0.687580	0.725181	0.839250
C139	C	0.185272	0.285022	0.429097
C140	C	0.685272	0.785022	0.929097
C141	C	0.232188	0.285020	0.429086
C142	C	0.732188	0.785020	0.929086
C143	C	0.256799	0.255098	0.384157
C144	C	0.756799	0.755098	0.884157
C145	C	0.234496	0.225179	0.339239
C146	C	0.734496	0.725179	0.839239
C147	C	0.189890	0.165332	0.249402
C148	C	0.689890	0.665332	0.749402
C149	C	0.236812	0.165330	0.249401
C150	C	0.736812	0.665330	0.749401
C151	C	0.259115	0.195253	0.294322
C152	C	0.759115	0.695253	0.794322
C153	C	0.306023	0.195256	0.294299
C154	C	0.806023	0.695256	0.794299
N155	N	0.328329	0.225173	0.339223
N156	N	0.828329	0.725173	0.839223
C157	C	0.303717	0.255094	0.384152
C158	C	0.803717	0.755094	0.884152
C159	C	-0.120928	0.195285	0.294373
C160	C	0.379072	0.695285	0.794373
C161	C	-0.167846	0.195289	0.294379
C162	C	0.332154	0.695289	0.794379
C163	C	-0.170152	0.255130	0.384234
C164	C	0.329848	0.755130	0.884234
C165	C	-0.123233	0.255128	0.384224
C166	C	0.376767	0.755128	0.884224
C167	C	-0.098622	0.225202	0.339296
C168	C	0.401378	0.725202	0.839296
C169	C	0.402244	0.255088	0.384125
C170	C	0.902244	0.755088	0.884125
C171	C	0.449164	0.255084	0.384108
C172	C	0.949164	0.755084	0.884108
C173	C	0.451466	0.195242	0.294255
C174	C	0.951466	0.695242	0.794255
C175	C	0.404550	0.195247	0.294269
C176	C	0.904550	0.695247	0.794269
C177	C	0.379940	0.225171	0.339210
C178	C	0.879940	0.725171	0.839210
O179	O	0.331306	0.169832	0.256094
O180	O	0.831306	0.669832	0.756094
O181	O	0.327004	0.280533	0.422361
O182	O	0.827004	0.780533	0.922361
C183	C	0.116052	0.255104	0.384190
C184	C	0.616052	0.755104	0.884190
C185	C	0.093748	0.225185	0.339272
C186	C	0.593748	0.725185	0.839272
C187	C	0.118360	0.195264	0.294343
C188	C	0.618360	0.695264	0.794343
C189	C	0.046830	0.225189	0.339278
C190	C	0.546830	0.725189	0.839278
C191	C	0.022218	0.255111	0.384207
C192	C	0.522218	0.755111	0.884207
C193	C	0.044525	0.285028	0.429130
C194	C	0.544525	0.785028	0.929130
C195	C	0.091440	0.285026	0.429119
C196	C	0.591440	0.785026	0.929119
C197	C	0.096054	0.165346	0.249420
C198	C	0.596054	0.665346	0.749420
C199	C	0.049138	0.165351	0.249434
C200	C	0.549138	0.665351	0.749434
C201	C	0.024526	0.195273	0.294363
C202	C	0.524526	0.695273	0.794363
C203	C	0.757608	0.225202	0.339286
C204	C	1.257608	0.725202	0.839286
C205	C	0.807542	0.225210	0.339308
C206	C	1.307542	0.725210	0.839308
C207	C	0.635744	0.229859	0.522807
C208	C	1.135744	0.729859	1.022807
C209	C	0.633746	0.231853	0.601034
C210	C	1.133746	0.731853	1.101034
C211	C	0.640515	1.108004	0.339277
C212	C	1.140515	1.608004	0.839277
C213	C	0.640509	1.058069	0.339256
C214	C	1.140509	1.558069	0.839256
C215	C	0.645127	0.220488	0.156376
C216	C	1.145127	0.720488	0.656376
C217	C	0.647211	0.218368	0.078149
C218	C	1.147211	0.718368	0.578149
C219	C	0.661561	0.204066	0.637814
C220	C	1.161561	0.704066	1.137814
C221	C	0.659679	0.205937	0.711317
C222	C	1.159679	0.705937	1.211317
C223	C	0.629983	0.235599	0.748039
C224	C	1.129983	0.735599	1.248039
C225	C	0.602165	0.263387	0.711255
C226	C	1.102165	0.763387	1.211255
C227	C	0.604046	0.261513	0.637753
C228	C	1.104046	0.761513	1.137753
C229	C	0.621274	0.244282	0.967863
C230	C	1.121274	0.744282	1.467863
C231	C	0.619396	0.246155	1.041370
C232	C	1.119396	0.746155	1.541370
C233	C	0.676909	0.188705	1.041427
C234	C	1.176909	0.688705	1.541427
C235	C	0.678789	0.186835	0.967924
C236	C	1.178789	0.686835	1.467924
C237	C	0.650970	0.214622	0.931146
C238	C	1.150970	0.714622	1.431146
N239	N	0.628060	0.237514	0.823171
N240	N	1.128060	0.737514	1.323171
N241	N	0.652891	0.212704	0.856015
N242	N	1.152891	0.712704	1.356015
H243	H	0.694599	0.394088	0.257620
H244	H	1.194599	0.894088	0.757620
C245	C	0.577702	0.964338	0.433698
C246	C	1.077702	1.464338	0.933698
N247	N	0.552931	0.945873	0.470978
N248	N	1.052931	1.445873	0.970978
H249	H	0.116089	0.140980	0.212833
H250	H	0.616089	0.640980	0.712833
H251	H	0.250343	0.309385	0.465667
H252	H	0.750343	0.809385	0.965667
H253	H	0.595214	0.270310	1.071267
H254	H	1.095214	0.770310	1.571267
C255	C	0.547756	0.749672	0.478637
C256	C	1.047756	1.249672	0.978637
N257	N	0.522984	0.731207	0.515912
N258	N	1.022984	1.231207	1.015912
H259	H	0.724584	0.693855	0.212696
H260	H	1.224584	1.193855	0.712696
H261	H	0.724616	0.834615	0.212717
H262	H	1.224616	1.334615	0.712717
C263	C	0.158206	0.317945	0.478520
C264	C	0.658206	0.817945	0.978520
N265	N	0.137823	0.342749	0.515741
N266	N	0.637823	0.842749	1.015741
C267	C	0.165367	0.132410	0.199993
C268	C	0.665367	0.632410	0.699993
N269	N	0.146896	0.107609	0.162777
N270	N	0.646896	0.607609	0.662777
H271	H	0.471513	0.170882	0.257673
H272	H	0.971513	0.670882	0.757673
C273	C	-0.192374	0.162375	0.244958
C274	C	0.307626	0.662375	0.744958
N275	N	-0.210848	0.137580	0.207736
N276	N	0.289152	0.637580	0.707736
H277	H	0.256848	0.140958	0.212818
H278	H	0.756848	0.640958	0.712818
C279	C	0.590670	0.274847	0.927417
C280	C	1.090670	0.774847	1.427417
N281	N	0.567617	0.297869	0.896950
N282	N	1.067617	0.797869	1.396950
C283	C	0.573448	0.292082	0.597296
C284	C	1.073448	0.792082	1.097296
N285	N	0.550400	0.315107	0.566825
N286	N	1.050400	0.815107	1.066825
C287	C	0.703175	0.485568	0.244780
C288	C	1.203175	0.985568	0.744780
N289	N	0.727956	0.504032	0.207518
N290	N	1.227956	1.004032	0.707518
H291	H	0.682330	0.183311	0.741259
H292	H	1.182330	0.683311	1.241259
C293	C	0.577709	1.062850	0.433675
C294	C	1.077709	1.562850	0.933675
N295	N	0.552935	1.083243	0.470935
N296	N	1.052935	1.583243	0.970935
H297	H	0.699558	0.166082	1.071380
H298	H	1.199558	0.666082	1.571380
H299	H	-0.100893	0.170915	0.257784
H300	H	0.399107	0.670915	0.757784
C301	C	0.703286	0.959450	0.244820
C302	C	1.203286	1.459450	0.744820
N303	N	0.728061	0.939057	0.207562
N304	N	1.228061	1.439057	0.707562
H305	H	0.556277	0.700392	0.465776
H306	H	1.056277	1.200392	0.965776
C307	C	0.569496	0.296011	0.751652
C308	C	1.069496	0.796011	1.251652
N309	N	0.544888	0.320583	0.782079
N310	N	1.044888	0.820583	1.282079
C311	C	0.024610	0.132431	0.200016
C312	C	0.524610	0.632431	0.700016
N313	N	0.006136	0.107633	0.162800
N314	N	0.506136	0.607633	0.662800
C315	C	0.711452	0.154201	0.927534
C316	C	1.211452	0.654201	1.427534
N317	N	0.736053	0.129619	0.897113
N318	N	1.236053	0.629619	1.397113
H319	H	0.724598	0.749496	0.212701
H320	H	1.224598	1.249496	0.712701
C321	C	-0.197234	0.288042	0.433660
C322	C	0.302766	0.788042	0.933660
N323	N	-0.217634	0.312827	0.470890
N324	N	0.282366	0.812827	0.970890
H325	H	0.724561	0.608749	0.212685
H326	H	1.224561	1.108749	0.712685
C327	C	0.703309	1.057980	0.244842
C328	C	1.203309	1.557980	0.744842
N329	N	0.728091	1.076461	0.207602
N330	N	1.228091	1.576461	0.707602
C331	C	0.694228	0.171435	0.597426
C332	C	1.194228	0.671435	1.097426
N333	N	0.718832	0.146855	0.567008
N334	N	1.218832	0.646855	1.067008
H335	H	0.109596	0.309391	0.465699
H336	H	0.609596	0.809391	0.965699
H337	H	0.556264	0.615283	0.465773
H338	H	1.056264	1.115283	0.965773
H339	H	0.467321	0.279452	0.420688
H340	H	0.967321	0.779452	0.920688
H341	H	0.586120	0.483426	0.420786
H342	H	1.086120	0.983426	0.920786
C343	C	0.380015	0.162334	0.244849
C344	C	0.880015	0.662334	0.744849
N345	N	0.361539	0.137541	0.207629
N346	N	0.861539	0.637541	0.707629
H347	H	0.556312	0.841147	0.465778
H348	H	1.056312	1.341147	0.965778
C349	C	0.375180	0.288010	0.433556
C350	C	0.875180	0.788010	0.933556
N351	N	0.354796	0.312809	0.470784
N352	N	0.854796	0.812809	0.970784
C353	C	0.577554	0.391929	0.433619
C354	C	1.077554	0.891929	0.933619
N355	N	0.552780	0.373449	0.470872
N356	N	1.052780	0.873449	0.970872
H357	H	0.024477	0.309392	0.465711
H358	H	0.524477	0.809392	0.965711
H359	H	-0.105076	0.279493	0.420804
H360	H	0.394924	0.779493	0.920804
