data_functionalizedCrystal
_audit_creation_method	'MofGen! by Chris Wilmer'
_symmetry_space_group_name_H-M	'P1'
_symmetry_Int_Tables_number	1
_symmetry_cell_setting	triclinic
loop_
_symmetry_equiv_pos_as_xyz
  x,y,z
_cell_length_a	13.897441
_cell_length_b	11.169417
_cell_length_c	11.169416
_cell_angle_alpha	90.013967
_cell_angle_beta	90.023053
_cell_angle_gamma	90.018542
loop_
_atom_site_label
_atom_site_type_symbol
_atom_site_fract_x
_atom_site_fract_y
_atom_site_fract_z
Zn1	Zn	-0.545375	-1.834924	0.477741
Zn2	Zn	-0.384098	-1.834808	0.678464
Zn3	Zn	-0.384100	-1.634215	0.477796
Zn4	Zn	-0.545357	-1.634208	0.678384
O5	O	-0.464733	-1.734539	0.578096
O6	O	-0.523989	-2.002859	0.504377
O7	O	-0.249117	-1.808154	0.651902
O8	O	-0.405502	-1.660890	0.309839
O9	O	-0.405499	-2.002773	0.651848
O10	O	-0.523990	-1.808351	0.309798
O11	O	-0.249118	-1.660778	0.504472
O12	O	-0.405484	-1.466264	0.504395
O13	O	-0.680341	-1.660879	0.651711
O14	O	-0.523959	-1.466259	0.651765
O15	O	-0.680355	-1.808344	0.504300
O16	O	-0.405481	-1.808147	0.846403
O17	O	-0.523957	-1.660767	0.846344
C18	C	-0.464738	-1.734476	0.889921
C19	C	-0.464772	-1.734559	1.023321
C20	C	-0.464720	-1.422714	0.578078
C21	C	-0.464738	-1.289314	0.578099
C22	C	-0.716326	-1.734624	0.577990
C23	C	-0.823540	-1.734660	0.577945
C24	C	-1.019835	-1.734693	0.577864
C25	C	-0.910602	-1.734671	0.577912
C26	C	-0.214118	-1.734523	0.578115
C27	C	-0.106905	-1.734719	0.577822
C28	C	-0.464746	-2.047581	0.578115
C29	C	-0.464751	-2.180981	0.578123
C30	C	-0.464759	-1.734622	1.265054
C31	C	-0.464795	-1.734627	1.131654
