data_functionalizedCrystal
_audit_creation_method	'MofGen! by Chris Wilmer'
_symmetry_space_group_name_H-M	'P1'
_symmetry_Int_Tables_number	1
_symmetry_cell_setting	triclinic
loop_
_symmetry_equiv_pos_as_xyz
  x,y,z
_cell_length_a	10.489741
_cell_length_b	11.026607
_cell_length_c	9.482900
_cell_angle_alpha	78.599815
_cell_angle_beta	80.612456
_cell_angle_gamma	83.437405
loop_
_atom_site_label
_atom_site_type_symbol
_atom_site_fract_x
_atom_site_fract_y
_atom_site_fract_z
O1	O	1.747347	-0.152678	-0.120961
O2	O	1.379692	-0.168782	-0.120949
O3	O	1.533048	0.016188	-0.120949
O4	O	1.593991	-0.337648	-0.120961
O5	O	1.501933	-0.021536	0.120844
O6	O	1.348577	-0.206506	0.120844
O7	O	1.716232	-0.190402	0.120831
Cu8	Cu	1.529563	-0.201898	0.142915
Cu9	Cu	1.566361	-0.157286	-0.143032
O10	O	1.562876	-0.375372	0.120831
C11	C	1.316335	-0.186428	-0.000051
C12	C	1.173905	-0.182791	-0.000046
C13	C	1.779589	-0.172755	-0.000070
C14	C	1.922021	-0.176392	-0.000084
C15	C	1.506248	0.042636	-0.000054
C16	C	1.472734	0.177643	-0.000058
C17	C	2.016049	-0.294085	-0.000073
C18	C	2.111286	-0.219890	-0.119282
C19	C	2.080569	-0.257055	0.119107
C20	C	2.015395	-0.102133	-0.119392
C21	C	1.984659	-0.139331	0.119104
C22	C	2.079854	-0.065046	-0.000134
C23	C	1.589676	-0.401819	-0.000067
C24	C	1.623192	-0.536825	-0.000072
N25	N	1.503691	-0.233276	0.344035
C26	C	1.565274	0.250641	-0.000063
C27	C	1.530638	0.390179	-0.000067
N28	N	1.592241	-0.125898	-0.344153
C29	C	1.558719	-0.166534	0.416234
C30	C	1.537205	-0.192650	0.583652
H31	H	1.987702	-0.390832	-0.000197
C32	C	1.602958	0.066136	0.484885
C33	C	1.677121	-0.022413	0.572174
H34	H	1.655296	0.130088	0.433277
H35	H	1.531913	0.100701	0.544408
H36	H	1.571389	0.027673	0.417755
H37	H	1.708683	0.016048	0.639311
H38	H	1.748190	-0.056981	0.512645
C39	C	2.153832	-0.385931	-0.254991
C40	C	2.185595	-0.265947	-0.255241
H41	H	2.199751	-0.414390	-0.338890
H42	H	2.063247	-0.384681	-0.255683
H43	H	2.176981	-0.440100	-0.170238
H44	H	2.162438	-0.211776	-0.339988
H45	H	2.276201	-0.267189	-0.254562
C46	C	1.842612	-0.011156	-0.254433
C47	C	1.976546	-0.013722	-0.255615
H48	H	1.818631	0.043416	-0.338538
H49	H	1.798068	0.017188	-0.169894
H50	H	1.820309	-0.092331	-0.254090
H51	H	1.998847	0.067453	-0.255947
H52	H	2.021105	-0.042059	-0.340177
H53	H	2.107971	0.031819	-0.000189
H54	H	1.474156	-0.269126	0.645776
H55	H	1.670143	0.209832	-0.000057
H56	H	1.929695	-0.105301	0.219898
H57	H	2.109534	-0.322597	0.219893
H58	H	1.440646	-0.309747	0.406165
C59	C	1.382147	0.572819	-0.000066
C60	C	1.389056	0.445248	-0.000064
H61	H	1.294740	0.606813	-0.000055
H62	H	1.434344	0.612230	-0.084383
H63	H	1.412654	0.585927	0.084255
H64	H	1.358558	0.432141	-0.084390
H65	H	1.336840	0.405824	0.084262
H66	H	1.728083	0.422392	-0.000185
H67	H	1.367865	0.218452	-0.000064
H68	H	1.621753	-0.090054	0.354107
