data_functionalizedCrystal
_audit_creation_method	'MofGen! by Chris Wilmer'
_symmetry_space_group_name_H-M	'P1'
_symmetry_Int_Tables_number	1
_symmetry_cell_setting	triclinic
loop_
_symmetry_equiv_pos_as_xyz
  x,y,z
_cell_length_a	10.654541
_cell_length_b	12.503552
_cell_length_c	14.044220
_cell_angle_alpha	86.160057
_cell_angle_beta	88.836403
_cell_angle_gamma	93.555982
loop_
_atom_site_label
_atom_site_type_symbol
_atom_site_fract_x
_atom_site_fract_y
_atom_site_fract_z
O1	O	1.687870	0.089291	0.127787
O2	O	1.323668	0.089300	0.140482
O3	O	1.500302	0.089285	-0.003885
O4	O	1.511236	0.089306	0.272154
O5	O	1.487002	-0.089356	0.006981
O6	O	1.310368	-0.089341	0.151349
O7	O	1.674571	-0.089351	0.138654
Cu8	Cu	1.491255	-0.105657	0.145993
Cu9	Cu	1.506983	0.105607	0.133142
O10	O	1.497937	-0.089335	0.283021
C11	C	1.270126	-0.000019	0.144984
C12	C	1.130403	-0.000016	0.142196
N13	N	1.480202	-0.254249	0.155032
C14	C	1.119782	0.000011	0.314826
C15	C	1.048831	0.000028	0.399827
C16	C	0.917549	0.000029	0.397202
C17	C	0.857216	0.000009	0.309567
C18	C	0.928167	-0.000008	0.224565
C19	C	1.059451	-0.000006	0.227200
C20	C	0.938787	-0.000042	0.051938
C21	C	1.070070	-0.000036	0.054560
C22	C	0.878454	-0.000062	-0.035697
C23	C	0.949406	-0.000072	-0.120701
C24	C	1.080695	-0.000072	-0.118073
C25	C	1.141021	-0.000053	-0.030441
C26	C	1.534299	-0.526687	0.110798
C27	C	1.463953	-0.473356	0.168328
C28	C	1.472996	-0.351434	0.160928
C29	C	1.525257	-0.648621	0.118196
C30	C	1.728112	-0.000029	0.134152
C31	C	1.867836	-0.000025	0.136939
N32	N	1.518046	0.254199	0.124096
C33	C	1.488866	-0.000036	-0.033798
C34	C	1.474590	-0.000037	-0.139117
C35	C	1.448493	-0.000021	-0.331951
C36	C	1.549741	-0.000020	-0.388919
C37	C	1.535220	-0.000011	-0.496219
C38	C	1.463012	-0.000030	-0.224642
C39	C	1.509373	-0.000012	0.312933
C40	C	1.523649	-0.000004	0.418252
H41	H	1.226680	0.000034	0.316971
F42	F	1.156197	-0.000098	-0.208544
H43	H	1.247918	-0.000040	-0.028293
H44	H	1.647333	0.000049	-0.357112
F45	F	1.376359	-0.533363	0.239970
H46	H	1.601312	-0.480782	0.055992
H47	H	1.097969	0.000042	0.471179
F48	F	0.842035	0.000039	0.487670
H49	H	1.350914	-0.000015	-0.363762
H50	H	0.750318	-0.000003	0.307438
H51	H	0.900272	-0.000087	-0.192047
F52	F	0.738731	-0.000067	-0.038489
