data_functionalizedCrystal
_audit_creation_method	'MofGen! by Chris Wilmer'
_symmetry_space_group_name_H-M	'P1'
_symmetry_Int_Tables_number	1
_symmetry_cell_setting	triclinic
loop_
_symmetry_equiv_pos_as_xyz
  x,y,z
_cell_length_a	14.044220
_cell_length_b	13.101039
_cell_length_c	14.044220
_cell_angle_alpha	93.667477
_cell_angle_beta	86.811122
_cell_angle_gamma	93.659868
loop_
_atom_site_label
_atom_site_type_symbol
_atom_site_fract_x
_atom_site_fract_y
_atom_site_fract_z
O1	O	1.281968	0.085109	-0.225348
O2	O	1.615302	0.418442	0.107985
O3	O	1.948635	0.751776	0.441318
O4	O	1.005298	0.085135	-0.217041
O5	O	1.338632	0.418468	0.116292
O6	O	1.671965	0.751802	0.449626
O7	O	1.139480	0.085112	-0.082860
O8	O	1.472813	0.418446	0.250474
O9	O	1.806147	0.751779	0.583807
O10	O	1.147787	0.085132	-0.359530
O11	O	1.481120	0.418465	-0.026197
O12	O	1.814454	0.751798	0.307137
O13	O	1.129854	-0.085316	-0.092504
O14	O	1.463188	0.248017	0.240829
O15	O	1.796521	0.581351	0.574162
O16	O	0.995673	-0.085293	-0.226686
O17	O	1.329006	0.248040	0.106647
O18	O	1.662339	0.581373	0.439981
O19	O	1.272343	-0.085319	-0.234993
O20	O	1.605676	0.248014	0.098340
O21	O	1.939009	0.581348	0.431674
Zn22	Zn	1.132479	-0.112365	-0.232371
Zn23	Zn	1.465813	0.220968	0.100963
Zn24	Zn	1.799146	0.554301	0.434296
Zn25	Zn	1.145162	0.112181	-0.219663
Zn26	Zn	1.478495	0.445515	0.113670
Zn27	Zn	1.811828	0.778848	0.447003
O28	O	1.138161	-0.085296	-0.369175
O29	O	1.471494	0.248037	-0.035841
O30	O	1.804828	0.581370	0.297492
C31	C	0.964864	-0.000076	-0.218228
C32	C	1.298197	0.333257	0.115106
C33	C	1.631531	0.666591	0.448439
C34	C	0.858722	-0.000066	-0.207383
C35	C	1.192055	0.333267	0.125951
C36	C	1.525388	0.666600	0.459284
N37	N	1.123831	-0.265612	-0.241043
N38	N	1.457164	0.067721	0.092290
N39	N	1.790497	0.401054	0.425623
C40	C	0.664383	-0.000088	-0.187558
C41	C	0.997716	0.333245	0.145776
C42	C	1.331049	0.666579	0.479109
C43	C	0.613253	-0.000087	-0.264472
C44	C	0.946586	0.333246	0.068861
C45	C	1.279920	0.666580	0.402195
C46	C	0.505116	-0.000099	-0.253441
C47	C	0.838449	0.333234	0.079892
C48	C	1.171783	0.666568	0.413226
C49	C	0.772529	-0.000076	-0.198587
C50	C	1.105863	0.333257	0.134746
C51	C	1.439196	0.666591	0.468080
C52	C	1.112065	-0.474653	-0.252851
C53	C	1.445398	-0.141320	0.080482
C54	C	1.778731	0.192014	0.413815
C55	C	1.165580	-0.525538	-0.199179
C56	C	1.498914	-0.192204	0.134154
C57	C	1.832247	0.141129	0.467488
C58	C	1.159034	-0.641855	-0.205749
C59	C	1.492367	-0.308522	0.127584
C60	C	1.825700	0.024812	0.460918
C61	C	1.118610	-0.358325	-0.246282
C62	C	1.451944	-0.024992	0.087051
C63	C	1.785277	0.308342	0.420384
C64	C	1.312777	-0.000106	-0.233806
C65	C	1.646111	0.333227	0.099527
C66	C	1.979444	0.666561	0.432860
C67	C	1.418920	-0.000109	-0.244651
C68	C	1.752253	0.333225	0.088682
C69	C	2.085587	0.666558	0.422016
C70	C	1.131031	-0.000102	-0.052060
C71	C	1.464365	0.333231	0.281273
C72	C	1.797698	0.666565	0.614607
C73	C	1.120187	-0.000102	0.054083
C74	C	1.453520	0.333231	0.387416
C75	C	1.786854	0.666565	0.720749
N76	N	1.153817	0.265428	-0.210984
N77	N	1.487151	0.598762	0.122349
N78	N	1.820484	0.932095	0.455683
C79	C	1.146610	-0.000080	-0.399974
C80	C	1.479943	0.333253	-0.066641
C81	C	1.813276	0.666587	0.266693
C82	C	1.157455	-0.000073	-0.506116
C83	C	1.490788	0.333260	-0.172783
C84	C	1.824121	0.666594	0.160550
C85	C	1.100362	-0.000086	0.248421
C86	C	1.433695	0.333248	0.581755
C87	C	1.767028	0.666581	0.915088
C88	C	1.177276	-0.000090	0.299551
C89	C	1.510609	0.333244	0.632884
C90	C	1.843942	0.666577	0.966218
C91	C	1.166245	-0.000080	0.407688
C92	C	1.499578	0.333253	0.741021
C93	C	1.832911	0.666586	1.074354
C94	C	1.111391	-0.000095	0.140275
C95	C	1.444725	0.333239	0.473608
C96	C	1.778058	0.666572	0.806941
H97	H	0.650693	-0.000077	-0.338605
H98	H	0.984026	0.333256	-0.005271
H99	H	1.317359	0.666590	0.328062
H100	H	1.216314	-0.481744	-0.148295
H101	H	1.549647	-0.148411	0.185038
H102	H	1.882981	0.184923	0.518372
C103	C	1.050286	-0.639219	-0.314846
C104	C	1.383619	-0.305886	0.018487
C105	C	1.716952	0.027447	0.351821
C106	C	1.043589	-0.533764	-0.321550
C107	C	1.376922	-0.200431	0.011783
C108	C	1.710256	0.132902	0.345117
H109	H	1.008018	-0.675719	-0.357264
H110	H	1.341352	-0.342385	-0.023931
H111	H	1.674685	-0.009052	0.309402
H112	H	1.033444	-0.656738	-0.251249
H113	H	1.366777	-0.323405	0.082084
H114	H	1.700111	0.009928	0.415417
H115	H	1.113937	-0.656720	-0.331494
H116	H	1.447270	-0.323387	0.001839
H117	H	1.780603	0.009946	0.335172
H118	H	0.979939	-0.516262	-0.304895
H119	H	1.313273	-0.182929	0.028439
H120	H	1.646606	0.150405	0.361772
H121	H	1.060425	-0.516238	-0.385161
H122	H	1.393758	-0.182905	-0.051827
H123	H	1.727091	0.150428	0.281506
C124	C	0.994215	0.087528	0.361022
C125	C	1.327548	0.420862	0.694355
C126	C	1.660881	0.754195	1.027689
C127	C	1.000290	-0.000082	0.298959
C128	C	1.333623	0.333251	0.632292
C129	C	1.666957	0.666585	0.965626
H130	H	0.932437	0.087522	0.392234
H131	H	1.265770	0.420855	0.725567
H132	H	1.599104	0.754189	1.058900
H133	H	1.005045	0.146948	0.325630
H134	H	1.338379	0.480281	0.658964
H135	H	1.671712	0.813614	0.992297
H136	H	1.041034	0.087520	0.407303
H137	H	1.374367	0.420854	0.740636
H138	H	1.707701	0.754187	1.073969
H139	H	0.953475	-0.000070	0.252673
H140	H	1.286808	0.333263	0.586007
H141	H	1.620142	0.666596	0.919340
H142	H	0.989449	-0.059517	0.334352
H143	H	1.322782	0.273816	0.667686
H144	H	1.656116	0.607150	1.001019
C145	C	0.514954	-0.000092	-0.095791
C146	C	0.848287	0.333242	0.237542
C147	C	1.181621	0.666575	0.570876
C148	C	0.613849	-0.000089	-0.087484
C149	C	0.947182	0.333245	0.245849
C150	C	1.280515	0.666578	0.579182
H151	H	0.483751	-0.000082	-0.034009
H152	H	0.817084	0.333251	0.299324
H153	H	1.150417	0.666584	0.632657
H154	H	0.493670	-0.059524	-0.132844
H155	H	0.827003	0.273810	0.200489
H156	H	1.160337	0.607143	0.533822
H157	H	0.500372	0.059341	-0.126140
H158	H	0.833706	0.392674	0.207194
H159	H	1.167039	0.726008	0.540527
H160	H	0.628431	-0.059526	-0.057142
H161	H	0.961764	0.273808	0.276192
H162	H	1.295098	0.607141	0.609525
H163	H	0.635140	0.059349	-0.050416
H164	H	0.968474	0.392683	0.282917
H165	H	1.301807	0.726016	0.616250
H166	H	1.251413	-0.000028	0.262115
H167	H	1.584746	0.333306	0.595449
H168	H	1.918079	0.666639	0.928782
