data_functionalizedCrystal
_audit_creation_method	'MofGen! by Chris Wilmer'
_symmetry_space_group_name_H-M	'P1'
_symmetry_Int_Tables_number	1
_symmetry_cell_setting	triclinic
loop_
_symmetry_equiv_pos_as_xyz
  x,y,z
_cell_length_a	16.992694
_cell_length_b	14.519709
_cell_length_c	16.053802
_cell_angle_alpha	92.569364
_cell_angle_beta	87.249047
_cell_angle_gamma	87.174184
loop_
_atom_site_label
_atom_site_type_symbol
_atom_site_fract_x
_atom_site_fract_y
_atom_site_fract_z
O1	O	1.043963	0.191936	-0.069327
O2	O	0.815676	0.189789	-0.069352
O3	O	0.935872	0.057059	-0.069332
O4	O	0.923768	0.324666	-0.069348
O5	O	0.929256	0.064333	0.069526
O6	O	0.809060	0.197063	0.069506
O7	O	1.037348	0.199210	0.069530
Zn8	Zn	0.922154	0.199291	0.091565
Zn9	Zn	0.930870	0.189708	-0.091386
O10	O	0.917152	0.331940	0.069510
C11	C	0.783152	0.190666	0.000074
C12	C	0.696097	0.182430	0.000065
C13	C	0.645968	0.261890	0.000061
C14	C	0.564170	0.254147	0.000073
C15	C	0.532503	0.166943	0.000083
C16	C	0.582638	0.087478	0.000089
C17	C	0.664434	0.095222	0.000083
C18	C	0.288859	0.134847	0.000107
C19	C	0.207056	0.127109	0.000111
C20	C	0.188594	0.293779	0.000095
C21	C	0.270393	0.301515	0.000084
C22	C	0.320520	0.222050	0.000095
N23	N	0.448892	0.159027	0.000092
N24	N	0.404129	0.229968	0.000092
C25	C	0.932000	0.026296	0.000097
C26	C	0.930309	-0.076207	0.000098
C27	C	0.924087	-0.451551	0.000075
C28	C	0.925815	-0.347118	0.000082
C29	C	0.927198	-0.263882	0.000087
C30	C	0.928926	-0.159443	0.000092
C31	C	1.069872	0.198333	0.000103
C32	C	1.156927	0.206569	0.000106
C33	C	0.921024	0.362703	0.000079
C34	C	0.922715	0.465206	0.000073
N35	N	0.916210	0.205832	0.216424
N36	N	0.936820	0.183161	-0.216246
C37	C	0.967373	0.149377	0.260127
C38	C	0.963222	0.153962	0.347533
C39	C	0.907913	0.215006	0.391235
C40	C	0.856746	0.271462	0.347526
C41	C	0.860893	0.266872	0.260121
C42	C	0.889799	0.235027	0.652641
C43	C	0.885658	0.239615	0.740052
C44	C	0.992134	0.122113	0.740053
C45	C	0.996279	0.117533	0.652646
C46	C	0.945109	0.173985	0.608945
N47	N	0.903672	0.219695	0.480578
N48	N	0.949347	0.169291	0.519604
H49	H	0.556847	0.016475	0.000110
C50	C	0.172784	0.032361	-0.000007
C51	C	0.201660	-0.019789	-0.071429
C52	C	0.170111	-0.107073	-0.071563
H53	H	0.116894	0.039004	-0.000052
H54	H	0.187699	0.001877	0.048395
H55	H	0.186739	0.010688	-0.119819
H56	H	0.257545	-0.026457	-0.071399
H57	H	0.185027	-0.137557	-0.023161
H58	H	0.114223	-0.100421	-0.071606
H59	H	0.189704	-0.142470	-0.120018
H60	H	0.329663	0.070141	0.000117
H61	H	0.147771	0.358475	0.000088
C62	C	0.509877	0.340526	0.000024
C63	C	0.555118	0.418550	-0.000013
C64	C	0.505131	0.498142	-0.000066
H65	H	0.475270	0.343640	0.048438
H66	H	0.479894	0.338481	-0.048414
H67	H	0.585088	0.420596	0.048421
H68	H	0.589723	0.415467	-0.048423
H69	H	0.475148	0.496097	-0.048505
H70	H	0.470527	0.501247	0.048348
H71	H	0.535820	0.551090	-0.000099
H72	H	0.705249	0.030517	0.000086
C73	C	1.027452	0.083007	0.212834
C74	C	1.071354	0.034530	0.269819
C75	C	1.126698	-0.026631	0.226287
H76	H	1.061833	0.116719	0.178724
H77	H	1.000828	0.040675	0.178766
H78	H	1.097976	0.076856	0.303873
H79	H	1.036994	0.000800	0.303931
H80	H	1.100074	-0.068962	0.192219
H81	H	1.161073	0.007089	0.192179
H82	H	1.156487	-0.059535	0.264945
H83	H	1.004882	0.107992	0.383115
C84	C	1.056355	0.051159	0.605352
C85	C	1.100260	0.002681	0.662334
C86	C	1.155604	-0.058477	0.618797
H87	H	1.090734	0.084873	0.571242
H88	H	1.029730	0.008828	0.571284
H89	H	1.126883	0.045006	0.696388
H90	H	1.065903	-0.031052	0.696446
H91	H	1.128980	-0.100808	0.584729
H92	H	1.189977	-0.024755	0.584689
H93	H	1.185395	-0.091382	0.657452
C94	C	1.047551	0.060704	0.787548
C95	C	1.003319	0.003757	0.837723
C96	C	1.054341	-0.052839	0.881480
H97	H	1.078639	0.097994	0.821704
H98	H	1.081072	0.023636	0.749031
H99	H	0.969812	0.040821	0.876236
H100	H	0.972233	-0.033552	0.803588
H101	H	1.087862	-0.089907	0.842963
H102	H	1.085426	-0.015541	0.915631
H103	H	1.024338	-0.091490	0.915523
H104	H	0.840616	0.289328	0.775630
C105	C	0.304618	0.396280	0.000121
C106	C	0.243207	0.464214	0.000142
C107	C	0.274705	0.551523	0.000184
H108	H	0.338431	0.400360	-0.048291
H109	H	0.333820	0.405350	0.048561
H110	H	0.214018	0.455148	-0.048293
H111	H	0.209389	0.460165	0.048550
H112	H	0.303906	0.560593	0.048624
H113	H	0.308517	0.555593	-0.048228
H114	H	0.233043	0.597627	0.000207
H115	H	0.848135	0.280995	0.617067
C116	C	0.796651	0.337593	0.395080
C117	C	0.746218	0.287527	0.445293
C118	C	0.690857	0.348419	0.489119
H119	H	0.766691	0.370584	0.356630
H120	H	0.823272	0.379864	0.429213
H121	H	0.719599	0.245272	0.411162
H122	H	0.776155	0.254539	0.483758
H123	H	0.717477	0.390690	0.523252
H124	H	0.660903	0.381407	0.450663
H125	H	0.656636	0.314459	0.523198
C126	C	0.680397	0.356538	-0.000125
C127	C	0.730191	0.362120	-0.071580
C128	C	0.761909	0.449302	-0.071784
H129	H	0.709680	0.365656	0.048237
H130	H	0.638847	0.402777	-0.000170
H131	H	0.771735	0.315894	-0.071528
H132	H	0.700926	0.353019	-0.119954
H133	H	0.720359	0.495541	-0.071829
H134	H	0.791188	0.458412	-0.023419
H135	H	0.795692	0.453104	-0.120269
C136	C	0.805304	0.328277	0.212820
C137	C	0.755993	0.382738	0.269798
C138	C	0.704779	0.439323	0.226256
H139	H	0.774161	0.290982	0.178731
H140	H	0.835161	0.367030	0.178731
H141	H	0.726139	0.343990	0.303873
H142	H	0.787115	0.420053	0.303888
H143	H	0.734636	0.478075	0.192166
H144	H	0.673641	0.402020	0.192168
H145	H	0.671321	0.476287	0.264908
