data_functionalizedCrystal
_audit_creation_method	'MofGen! by Chris Wilmer'
_symmetry_space_group_name_H-M	'P1'
_symmetry_Int_Tables_number	1
_symmetry_cell_setting	triclinic
loop_
_symmetry_equiv_pos_as_xyz
  x,y,z
_cell_length_a	14.853569
_cell_length_b	14.853559
_cell_length_c	13.930277
_cell_angle_alpha	90.006833
_cell_angle_beta	89.995365
_cell_angle_gamma	83.633509
loop_
_atom_site_label
_atom_site_type_symbol
_atom_site_fract_x
_atom_site_fract_y
_atom_site_fract_z
O1	O	1.196364	0.117699	-0.079782
O2	O	0.933905	0.131719	-0.079793
O3	O	1.072149	-0.006522	-0.079786
O4	O	1.058120	0.255939	-0.079789
O5	O	1.072129	-0.006500	0.079876
O6	O	0.933884	0.131740	0.079869
O7	O	1.196344	0.117720	0.079880
Zn8	Zn	1.065111	0.124733	0.105224
Zn9	Zn	1.065138	0.124705	-0.105137
O10	O	1.058100	0.255960	0.079873
C11	C	0.900306	0.131094	0.000036
C12	C	0.800222	0.129189	0.000032
C13	C	0.763848	0.046178	0.000029
C14	C	0.742554	0.210411	0.000039
C15	C	0.648520	0.208625	0.000040
C16	C	0.612146	0.125614	0.000037
C17	C	0.669806	0.044389	0.000033
C18	C	0.590853	0.289848	0.000053
C19	C	0.496812	0.288065	0.000055
C20	C	0.460437	0.205053	0.000046
C21	C	0.518103	0.123825	0.000041
C22	C	0.481729	0.040813	0.000039
C23	C	0.539394	-0.040416	0.000027
C24	C	0.633430	-0.038623	0.000024
C25	C	0.366401	0.203260	0.000049
C26	C	0.387687	0.039024	0.000042
C27	C	1.071505	-0.040100	0.000043
C28	C	1.069604	-0.140184	0.000037
C29	C	1.061551	-0.563371	-0.086995
C30	C	1.061529	-0.563342	0.087075
C31	C	1.063323	-0.469309	0.087076
C32	C	1.064229	-0.422302	0.000040
C33	C	1.063342	-0.469328	-0.086997
C34	C	1.064200	-0.422274	0.174111
C35	C	1.065993	-0.328235	0.174115
C36	C	1.066906	-0.281227	0.087078
C37	C	1.066020	-0.328260	0.000038
C38	C	1.066926	-0.281253	-0.086997
C39	C	1.066047	-0.328284	-0.174039
C40	C	1.064255	-0.422320	-0.174033
C41	C	1.068698	-0.187191	0.087073
C42	C	1.068717	-0.187210	-0.086999
C43	C	1.229943	0.118345	0.000048
C44	C	1.330027	0.120249	0.000046
C45	C	1.058744	0.289538	0.000042
C46	C	1.060645	0.389622	0.000041
N47	N	1.065099	0.124752	0.248790
N48	N	1.065157	0.124680	-0.248703
C49	C	1.119892	0.179469	0.701051
C50	C	1.010412	0.069905	0.701037
C51	C	1.010398	0.069919	0.600541
C52	C	1.065133	0.124708	0.550296
C53	C	1.119882	0.179483	0.600546
C54	C	0.955657	0.015139	0.550283
C55	C	0.955642	0.015151	0.449782
C56	C	1.010373	0.069945	0.399534
C57	C	1.065123	0.124723	0.449791
C58	C	1.119858	0.179512	0.399545
C59	C	1.174604	0.234295	0.449800
C60	C	1.174613	0.234277	0.550299
C61	C	1.010364	0.069963	0.299035
C62	C	1.119848	0.179526	0.299040
H63	H	0.772176	0.277995	0.000047
C64	C	1.060535	-0.615047	0.182805
H65	H	1.059347	-0.677789	0.170341
H66	H	1.008297	-0.592821	0.218571
H67	H	1.113366	-0.606445	0.218561
C68	C	0.950208	0.009642	0.756304
H69	H	0.958052	0.017482	0.823355
H70	H	0.966879	-0.052011	0.739813
H71	H	0.888541	0.026292	0.739852
C72	C	0.302971	0.292597	0.000065
H73	H	0.241756	0.279644	0.000072
H74	H	0.314011	0.326634	-0.055606
H75	H	0.314005	0.326627	0.055756
C76	C	1.063211	-0.473982	0.269840
H77	H	1.062032	-0.536724	0.257373
H78	H	1.010970	-0.451764	0.305606
H79	H	1.116040	-0.465374	0.305597
H80	H	1.063538	-0.460622	-0.244897
H81	H	1.069460	-0.148944	-0.157875
C82	C	0.827272	-0.043167	0.000021
H83	H	0.888488	-0.030217	0.000023
H84	H	0.816234	-0.077206	-0.055656
H85	H	0.816232	-0.077192	0.055706
H86	H	0.911064	-0.029456	0.408873
H87	H	1.066778	-0.289998	-0.244903
C88	C	1.060580	-0.615099	-0.182733
H89	H	1.059379	-0.677836	-0.170271
H90	H	1.113407	-0.606499	-0.218493
H91	H	1.008338	-0.592880	-0.218492
C92	C	1.066972	-0.276510	0.269854
H93	H	1.066183	-0.317976	0.321688
H94	H	1.015144	-0.233009	0.273475
H95	H	1.120213	-0.246646	0.273469
C96	C	0.950151	0.009711	0.243760
H97	H	0.917553	-0.022919	0.288078
H98	H	0.987040	-0.031704	0.204532
H99	H	0.908694	0.046591	0.204578
C100	C	1.069662	-0.135456	0.182802
H101	H	1.070854	-0.072718	0.170337
H102	H	1.121891	-0.157674	0.218573
H103	H	1.016821	-0.144048	0.218553
H104	H	0.358079	-0.028574	0.000035
H105	H	1.164416	0.224147	0.258138
C106	C	1.234809	0.294559	0.394524
H107	H	1.226956	0.286719	0.327474
H108	H	1.296473	0.277926	0.410977
H109	H	1.218124	0.356217	0.411005
C110	C	1.234837	0.294521	0.605580
H111	H	1.227011	0.286655	0.672629
H112	H	1.218164	0.356181	0.589137
H113	H	1.296499	0.277875	0.589090
H114	H	1.164462	0.224074	0.741973
H115	H	0.680389	-0.104755	0.000016
C116	C	0.499376	-0.131722	0.000022
H117	H	0.435112	-0.121148	0.000023
H118	H	0.519158	-0.165172	0.055693
H119	H	0.519155	-0.165170	-0.055669
C120	C	0.630860	0.381153	0.000051
H121	H	0.583052	0.429272	0.000065
H122	H	0.667100	0.385257	-0.055632
H123	H	0.667103	0.385268	0.055730
C124	C	0.433390	0.377411	0.000056
H125	H	0.468523	0.427104	0.000051
H126	H	0.396255	0.380136	0.055731
H127	H	0.396273	0.380119	-0.055631
H128	H	0.911102	-0.029475	0.591201
