data_functionalizedCrystal
_audit_creation_method	'MofGen! by Chris Wilmer'
_symmetry_space_group_name_H-M	'P1'
_symmetry_Int_Tables_number	1
_symmetry_cell_setting	triclinic
loop_
_symmetry_equiv_pos_as_xyz
  x,y,z
_cell_length_a	15.625110
_cell_length_b	16.974813
_cell_length_c	15.455313
_cell_angle_alpha	96.320231
_cell_angle_beta	69.260459
_cell_angle_gamma	84.977550
loop_
_atom_site_label
_atom_site_type_symbol
_atom_site_fract_x
_atom_site_fract_y
_atom_site_fract_z
O1	O	1.212736	0.088729	-0.303155
O2	O	0.945565	0.105104	-0.217955
O3	O	1.087050	-0.018687	-0.271159
O4	O	1.071250	0.212520	-0.249951
O5	O	1.095132	-0.025745	-0.418459
O6	O	0.953646	0.098046	-0.365255
O7	O	1.220818	0.081671	-0.450455
Cu8	Cu	1.087970	0.089214	-0.421305
Cu9	Cu	1.078412	0.097561	-0.247105
O10	O	1.079332	0.205462	-0.397251
C11	C	0.915428	0.101532	-0.280856
C12	C	0.813590	0.101395	-0.248828
C13	C	0.665647	0.105049	-0.123398
C14	C	0.761340	0.105177	-0.153502
C15	C	0.770159	0.097487	-0.314086
C16	C	0.674464	0.097362	-0.283994
C17	C	0.622216	0.101142	-0.188649
C18	C	0.631032	0.093455	-0.349245
C19	C	0.535347	0.093326	-0.319156
C20	C	0.483092	0.097104	-0.223816
C21	C	0.526530	0.101013	-0.158560
C22	C	0.683283	0.089669	-0.444590
C23	C	0.639852	0.085762	-0.509842
C24	C	0.544164	0.085639	-0.479752
C25	C	0.491909	0.089416	-0.384412
C26	C	0.500726	0.081729	-0.545008
C27	C	0.405040	0.081600	-0.514919
C28	C	0.396223	0.089287	-0.354323
C29	C	1.090641	-0.051767	-0.346741
C30	C	1.089287	-0.139821	-0.352493
C31	C	1.084248	-0.177338	-0.274904
C32	C	1.082970	-0.260074	-0.280310
C33	C	1.086738	-0.305292	-0.363308
C34	C	1.091775	-0.267770	-0.440903
C35	C	1.093046	-0.185035	-0.435494
C36	C	1.083403	-0.553146	-0.388094
C37	C	1.082134	-0.635887	-0.393498
C38	C	1.073327	-0.628184	-0.232904
C39	C	1.074604	-0.545449	-0.227504
C40	C	1.079636	-0.507933	-0.305096
N41	N	1.085435	-0.389862	-0.368837
N42	N	1.080933	-0.423364	-0.299565
C43	C	1.250954	0.085243	-0.387552
C44	C	1.352792	0.085381	-0.419574
C45	C	1.075741	0.238542	-0.321667
C46	C	1.077095	0.326597	-0.315908
N47	N	1.071691	0.103426	-0.124583
N48	N	1.094699	0.083343	-0.543829
C49	C	1.131912	0.050933	-0.101821
C50	C	1.126827	0.055367	-0.009102
C51	C	1.061515	0.112290	0.060855
C52	C	1.001291	0.164788	0.038087
C53	C	1.006381	0.160357	-0.054631
C54	C	1.039565	0.131410	0.340684
C55	C	1.034477	0.135835	0.433408
C56	C	1.160015	0.026415	0.386213
C57	C	1.165096	0.021986	0.293495
C58	C	1.104875	0.074487	0.270735
N59	N	1.056314	0.116822	0.155630
N60	N	1.110081	0.069959	0.175960
H61	H	0.353678	0.092376	-0.276682
O62	O	0.614819	0.108868	-0.030772
C63	C	0.490870	0.182005	0.104592
C64	C	0.548377	0.177789	-0.000296
H65	H	0.437125	0.237714	0.129259
H66	H	0.538289	0.184878	0.146125
H67	H	0.454580	0.126501	0.116025
H68	H	0.584674	0.233278	-0.011817
H69	H	0.500912	0.174876	-0.041776
H70	H	0.405179	0.097000	-0.199319
O71	O	1.088140	-0.516662	-0.463396
C72	C	1.015253	-0.417605	-0.524801
C73	C	1.009756	-0.458869	-0.439447
H74	H	0.951898	-0.370860	-0.505462
H75	H	1.017678	-0.464105	-0.585057
H76	H	1.080300	-0.387264	-0.547058
H77	H	0.944715	-0.489209	-0.417107
H78	H	1.007382	-0.412334	-0.379245
H79	H	1.094837	-0.304593	-0.508480
O80	O	0.475702	0.104832	-0.065934
C81	C	0.351752	0.177969	0.069430
C82	C	0.409260	0.173753	-0.035458
H83	H	0.298008	0.233678	0.094097
H84	H	0.399172	0.180842	0.110963
H85	H	0.315462	0.122465	0.080863
H86	H	0.445557	0.229242	-0.046979
H87	H	0.361795	0.170840	-0.076938
O88	O	0.362726	0.077919	-0.578201
C89	C	0.249098	0.142179	-0.629240
C90	C	0.296928	0.146443	-0.557496
H91	H	0.195904	0.197581	-0.612537
H92	H	0.213137	0.086354	-0.625798
H93	H	0.302901	0.139464	-0.702546
H94	H	0.243184	0.149189	-0.484156
H95	H	0.332908	0.202259	-0.561020
H96	H	0.682406	0.082681	-0.587472
O97	O	1.077926	-0.296522	-0.204908
C98	C	0.991952	-0.375384	-0.092094
C99	C	0.997535	-0.334135	-0.177479
H100	H	0.926971	-0.405818	-0.069904
H101	H	0.989427	-0.328868	-0.031808
H102	H	1.055372	-0.422052	-0.111403
H103	H	0.934131	-0.287471	-0.158260
H104	H	1.000105	-0.380697	-0.237742
O105	O	1.070892	-0.501639	-0.146792
C106	C	1.062076	-0.502740	0.011907
C107	C	1.066249	-0.552447	-0.079432
H108	H	1.058341	-0.543800	0.066385
H109	H	0.998231	-0.455670	0.039288
H110	H	1.126642	-0.471952	-0.002361
H111	H	1.001729	-0.583286	-0.065241
H112	H	1.130136	-0.599471	-0.106787
O113	O	0.803376	0.109022	-0.089982
C114	C	0.784535	0.116601	0.072480
C115	C	0.736809	0.112266	0.000649
H116	H	0.730739	0.119208	0.145768
H117	H	0.820393	0.172482	0.069114
H118	H	0.837825	0.061258	0.055719
H119	H	0.683478	0.167568	0.017361
H120	H	0.701012	0.056351	0.004029
H121	H	0.812713	0.094406	-0.391716
H122	H	0.761197	0.089775	-0.469086
H123	H	1.081184	-0.140527	-0.207319
H124	H	0.543282	0.078643	-0.622639
O125	O	0.947781	0.211382	-0.076577
C126	C	0.822760	0.320406	-0.019994
C127	C	0.889053	0.262654	0.004990
H128	H	0.775275	0.361885	0.045934
H129	H	0.779515	0.284652	-0.051398
H130	H	0.864465	0.357472	-0.073040
H131	H	0.847421	0.225574	0.058059
H132	H	0.932300	0.298454	0.036341
H133	H	1.069229	-0.658739	-0.169732
H134	H	1.218278	-0.024365	0.236537
H135	H	1.085198	-0.672701	-0.461087
O136	O	1.185047	0.004078	0.013009
C137	C	1.199097	-0.100033	0.103217
C138	C	1.133150	-0.041798	0.078369
H139	H	1.157165	-0.137151	0.156049
H140	H	1.242513	-0.064672	0.134781
H141	H	1.246446	-0.141429	0.037153
H142	H	1.085743	-0.000389	0.144389
H143	H	1.089798	-0.077209	0.046768
O144	O	1.097974	-0.148719	-0.510961
C145	C	1.106489	-0.165074	-0.670791
C146	C	1.100945	-0.206306	-0.585404
H147	H	1.108873	-0.211612	-0.730994
H148	H	1.171519	-0.134711	-0.693122
H149	H	1.043107	-0.118356	-0.651442
H150	H	1.164280	-0.253059	-0.604682
H151	H	1.035877	-0.236615	-0.563094
O152	O	1.195434	-0.004391	-0.169664
C153	C	1.319370	-0.112488	-0.206668
C154	C	1.247489	-0.049858	-0.129751
H155	H	1.361462	-0.149277	-0.174424
H156	H	1.367382	-0.080888	-0.262038
H157	H	1.282428	-0.153704	-0.240483
H158	H	1.284353	-0.008625	-0.095863
H159	H	1.199481	-0.081511	-0.074440
H160	H	1.209045	-0.016328	0.404753
O161	O	0.971007	0.191208	0.501245
C162	C	0.847000	0.299247	0.538285
C163	C	0.918845	0.236595	0.461367
H164	H	0.804795	0.335948	0.506076
H165	H	0.883880	0.340546	0.572083
H166	H	0.799090	0.267587	0.593660
H167	H	0.966775	0.268187	0.405933
H168	H	0.881904	0.195300	0.427643
H169	H	0.948116	0.211140	0.095051
O170	O	0.981028	0.182291	0.318494
C171	C	0.861338	0.195680	0.254616
C172	C	0.927604	0.137966	0.279680
H173	H	0.818114	0.159868	0.223248
H174	H	0.902971	0.232777	0.201561
H175	H	0.813826	0.237134	0.320553
H176	H	0.975131	0.096462	0.213798
H177	H	0.885913	0.100926	0.332770
