data_functionalizedCrystal
_audit_creation_method	'MofGen! by Chris Wilmer'
_symmetry_space_group_name_H-M	'P1'
_symmetry_Int_Tables_number	1
_symmetry_cell_setting	triclinic
loop_
_symmetry_equiv_pos_as_xyz
  x,y,z
_cell_length_a	27.732064
_cell_length_b	27.732025
_cell_length_c	9.016244
_cell_angle_alpha	90.012278
_cell_angle_beta	90.000318
_cell_angle_gamma	82.641446
loop_
_atom_site_label
_atom_site_type_symbol
_atom_site_fract_x
_atom_site_fract_y
_atom_site_fract_z
O1	O	0.640919	0.057554	-0.123031
O2	O	0.500126	0.066291	-0.123085
O3	O	0.574901	-0.008475	-0.123102
O4	O	0.566145	0.132320	-0.123015
O5	O	0.574890	-0.008473	0.123579
O6	O	0.500116	0.066293	0.123595
O7	O	0.640909	0.057556	0.123649
Cu8	Cu	0.570511	0.061924	0.146146
Cu9	Cu	0.570524	0.061922	-0.145582
O10	O	0.566134	0.132321	0.123666
C11	C	0.482114	0.066107	0.000247
C12	C	0.428460	0.065551	0.000224
C13	C	0.051391	0.017584	0.000279
C14	C	0.253051	0.019630	0.000241
O15	O	0.284307	-0.017592	0.000274
N16	N	0.272175	0.063965	0.000262
C17	C	0.240880	0.107791	0.000302
O18	O	0.261774	0.145547	0.000334
C19	C	0.039221	0.105744	0.000350
C20	C	0.020100	0.061407	0.000314
C21	C	0.032270	-0.026751	0.000244
C22	C	-0.018143	-0.027262	0.000246
C23	C	-0.049433	0.016561	0.000281
C24	C	-0.030312	0.060895	0.000315
C25	C	0.007928	0.149570	0.000400
C26	C	-0.042490	0.149054	0.000416
C27	C	-0.061611	0.104717	0.000380
C28	C	-0.112014	0.104207	0.000352
N29	N	-0.131138	0.059873	0.000331
C30	C	-0.099848	0.016050	0.000296
C31	C	0.346755	0.108862	0.000274
C32	C	0.397169	0.109374	0.000259
C33	C	0.409337	0.021213	0.000201
C34	C	0.358921	0.020702	0.000205
C35	C	0.327631	0.064528	0.000253
C36	C	-0.205717	0.014980	0.000297
C37	C	-0.256134	0.014472	0.000292
C38	C	-0.268297	0.102633	0.000358
C39	C	-0.217884	0.103141	0.000355
C40	C	-0.186595	0.059310	0.000329
O41	O	-0.143298	0.141409	0.000336
O42	O	-0.120750	-0.021701	0.000297
C43	C	0.101803	0.018095	0.000277
C44	C	0.120924	0.062429	0.000311
C45	C	0.089634	0.106252	0.000347
C46	C	0.171339	0.062941	0.000297
C47	C	0.202630	0.019118	0.000261
C48	C	0.183506	-0.025217	0.000241
C49	C	0.133094	-0.025728	0.000242
C50	C	0.108758	0.150586	0.000367
C51	C	0.159170	0.151094	0.000365
C52	C	0.190461	0.107271	0.000329
C53	C	0.574714	-0.026481	0.000224
C54	C	0.574165	-0.080137	0.000180
C55	C	0.570275	-0.463303	-0.134201
C56	C	0.572327	-0.261644	-0.134248
O57	O	0.572617	-0.235577	-0.248610
N58	N	0.572578	-0.236422	0.000214
C59	C	0.572318	-0.261618	0.134697
O60	O	0.572584	-0.235538	0.249064
C61	C	0.570269	-0.463277	0.134742
C62	C	0.570014	-0.488496	0.000272
C63	C	0.570020	-0.488522	-0.268661
C64	C	0.569504	-0.538934	-0.268648
C65	C	0.569243	-0.564126	-0.134175
C66	C	0.569498	-0.538907	0.000285
C67	C	0.570014	-0.488473	0.269224
C68	C	0.569503	-0.538891	0.269223
C69	C	0.569247	-0.564110	0.134752
C70	C	0.568722	-0.614511	0.134770
N71	N	0.568471	-0.639733	0.000309
C72	C	0.568732	-0.614541	-0.134164
C73	C	0.573393	-0.155744	0.134663
C74	C	0.573905	-0.105329	0.134652
C75	C	0.573914	-0.105359	-0.134293
C76	C	0.573399	-0.155774	-0.134281
C77	C	0.573143	-0.180966	0.000202
C78	C	0.567648	-0.720409	-0.134126
C79	C	0.567130	-0.770824	-0.134101
C80	C	0.567123	-0.770791	0.134843
C81	C	0.567639	-0.720379	0.134819
C82	C	0.567903	-0.695190	0.000322
O83	O	0.568437	-0.640610	0.249072
O84	O	0.568477	-0.640631	-0.248514
C85	C	0.570790	-0.412892	-0.134214
C86	C	0.571045	-0.387673	0.000245
C87	C	0.570785	-0.412865	0.134718
C88	C	0.571557	-0.337258	0.000234
C89	C	0.571817	-0.312066	-0.134238
C90	C	0.571567	-0.337288	-0.268700
C91	C	0.571051	-0.387699	-0.268687
C92	C	0.571035	-0.387643	0.269180
C93	C	0.571550	-0.337231	0.269156
C94	C	0.571811	-0.312039	0.134683
C95	C	0.658921	0.057739	0.000314
C96	C	0.712575	0.058295	0.000327
C97	C	0.566321	0.150328	0.000337
C98	C	0.566870	0.203983	0.000371
N99	N	0.570506	0.061926	0.351332
N100	N	0.570533	0.061917	-0.350768
C101	C	0.530387	0.101790	0.586374
C102	C	0.530472	0.101936	0.414483
C103	C	0.620861	0.072569	0.413699
C104	C	0.620641	0.072850	0.585644
C105	C	0.560773	0.011281	0.585839
C106	C	0.559607	0.011629	0.413885
H107	H	-0.293783	0.138313	0.000379
F108	F	0.632460	0.120271	0.357431
F109	F	0.511193	0.001059	0.360608
F110	F	0.595382	-0.028933	0.357718
F111	F	0.481526	0.093744	0.359367
F112	F	0.599044	-0.027498	0.638966
H113	H	0.492826	0.095612	0.627747
F114	F	0.567929	-0.693607	-0.277273
F115	F	0.513843	-0.002211	0.642557
F116	F	-0.038486	-0.074452	0.000196
H117	H	0.569299	-0.559463	-0.378148
F118	F	-0.197534	0.150330	0.000373
F119	F	0.417513	0.156564	0.000269
F120	F	0.216816	-0.071857	0.000197
H121	H	0.434822	-0.014469	0.000167
F122	F	0.538372	0.150642	0.642839
H123	H	0.570843	-0.408228	-0.378187
H124	H	0.321282	0.144553	0.000310
H125	H	0.117531	-0.061833	0.000213
H126	H	0.536663	0.139521	0.373363
F127	F	0.660800	0.036272	0.639994
F128	F	-0.276481	-0.032720	0.000245
H129	H	0.023486	0.185674	0.000423
F130	F	0.065565	-0.073397	0.000211
H131	H	-0.180247	-0.020712	0.000276
F132	F	-0.075789	0.195702	0.000473
H133	H	0.629300	0.109768	0.625760
H134	H	0.343357	-0.015402	0.000177
F135	F	0.660818	0.035600	0.360235
F136	F	0.179514	0.198288	0.000391
H137	H	0.571754	-0.316702	0.378666
F138	F	0.573128	-0.182609	-0.277401
H139	H	0.566920	-0.791355	-0.243608
F140	F	0.075462	0.197232	0.000401
F141	F	0.574185	-0.078538	-0.277410
F142	F	0.570298	-0.461718	-0.411798
F143	F	0.574166	-0.078493	0.277774
H144	H	0.566909	-0.791311	0.244327
H145	H	0.567828	-0.699842	0.244316
H146	H	0.573184	-0.176251	0.244181
H147	H	0.570227	-0.467949	0.378724
F148	F	0.569231	-0.565699	0.412362
H149	H	0.570824	-0.408150	0.378686
F150	F	0.571844	-0.310467	-0.411816
