data_functionalizedCrystal
_audit_creation_method	'MofGen! by Chris Wilmer'
_symmetry_space_group_name_H-M	'P1'
_symmetry_Int_Tables_number	1
_symmetry_cell_setting	triclinic
loop_
_symmetry_equiv_pos_as_xyz
  x,y,z
_cell_length_a	17.077402
_cell_length_b	16.120530
_cell_length_c	17.077396
_cell_angle_alpha	92.916610
_cell_angle_beta	90.029784
_cell_angle_gamma	87.118337
loop_
_atom_site_label
_atom_site_type_symbol
_atom_site_fract_x
_atom_site_fract_y
_atom_site_fract_z
Zn1	Zn	-0.373441	1.274550	0.504614
Zn2	Zn	0.126559	1.774550	1.004614
Zn3	Zn	-0.504712	1.274451	0.373340
Zn4	Zn	-0.004712	1.774451	0.873340
Zn5	Zn	-0.366803	1.135133	0.366714
Zn6	Zn	0.133197	1.635133	0.866714
Zn7	Zn	-0.498002	1.135099	0.497919
Zn8	Zn	0.001998	1.635099	0.997919
O9	O	-0.435740	1.204808	0.435647
O10	O	0.064260	1.704808	0.935647
O11	O	-0.396441	1.391202	0.492775
O12	O	0.103559	1.891202	0.992775
O13	O	-0.486447	1.255943	0.262613
O14	O	0.013553	1.755943	0.762613
O15	O	-0.257840	1.153682	0.385035
O16	O	0.242160	1.653682	0.885035
O17	O	-0.492884	1.391130	0.396329
O18	O	0.007116	1.891130	0.896329
O19	O	-0.262717	1.256111	0.486350
O20	O	0.237283	1.756111	0.986350
O21	O	-0.385127	1.153587	0.257744
O22	O	0.114873	1.653587	0.757744
O23	O	-0.378621	1.018463	0.378543
O24	O	0.121379	1.518463	0.878543
O25	O	-0.481449	1.153624	0.608655
O26	O	0.018551	1.653624	1.108655
O27	O	-0.475013	1.018438	0.474939
O28	O	0.024987	1.518438	0.974939
O29	O	-0.389935	1.256078	0.613574
O30	O	0.110065	1.756078	1.113574
O31	O	-0.613666	1.255910	0.389837
O32	O	-0.113666	1.755910	0.889837
O33	O	-0.608737	1.153529	0.481364
O34	O	-0.108737	1.653529	0.981364
C35	C	-0.639684	1.204728	0.435611
C36	C	-0.139684	1.704728	0.935611
C37	C	-0.726935	1.204769	0.435626
C38	C	-0.226935	1.704769	0.935626
C39	C	-0.425369	0.988200	0.425296
C40	C	0.074631	1.488200	0.925296
C41	C	-0.420951	0.895534	0.420886
C42	C	0.079049	1.395534	0.920886
C43	C	-0.770469	1.258134	0.388025
C44	C	-0.270469	1.758134	0.888025
C45	C	-0.852451	1.258175	0.388047
C46	C	-0.352451	1.758175	0.888047
C47	C	-0.890898	1.204846	0.435667
C48	C	-0.390898	1.704846	0.935667
C49	C	-0.847359	1.151479	0.483274
C50	C	-0.347359	1.651479	0.983274
C51	C	-0.765379	1.151443	0.483255
C52	C	-0.265379	1.651443	0.983255
C53	C	-1.018233	1.151557	0.483307
C54	C	-0.518233	1.651557	0.983307
C55	C	-1.100219	1.151591	0.483325
C56	C	-0.600219	1.651591	0.983325
C57	C	-1.105305	1.258288	0.388098
C58	C	-0.605305	1.758288	0.888098
C59	C	-1.023325	1.258252	0.388080
C60	C	-0.523325	1.758252	0.888080
C61	C	-0.979791	1.204884	0.435686
C62	C	-0.479791	1.704884	0.935686
C63	C	-0.412868	0.725872	0.412842
C64	C	0.087132	1.225872	0.912842
C65	C	-0.458669	0.684584	0.458508
C66	C	0.041331	1.184584	0.958508
C67	C	-0.454172	0.590179	0.454033
C68	C	0.045828	1.090179	0.954033
C69	C	-0.417364	0.820286	0.417317
C70	C	0.082636	1.320286	0.917317
C71	C	-0.231000	1.204912	0.435700
C72	C	0.269000	1.704912	0.935700
C73	C	-0.143753	1.204956	0.435723
C74	C	0.356247	1.704956	0.935723
C75	C	-0.435684	1.204859	0.640393
C76	C	0.064316	1.704859	1.140393
C77	C	-0.435661	1.204880	0.727644
C78	C	0.064339	1.704880	1.227644
C79	C	-0.446151	1.422262	0.446038
C80	C	0.053849	1.922262	0.946038
C81	C	-0.450588	1.514928	0.450467
C82	C	0.049412	2.014928	0.950467
C83	C	-0.435740	1.204806	0.231699
C84	C	0.064260	1.704806	0.731699
C85	C	-0.435551	1.204946	0.144456
C86	C	0.064449	1.704946	0.644456
C87	C	-0.388005	1.258230	0.771197
C88	C	0.111995	1.758230	1.271197
C89	C	-0.387979	1.258240	0.853178
C90	C	0.112021	1.758240	1.353178
C91	C	-0.435614	1.204904	0.891605
C92	C	0.064386	1.704904	1.391605
C93	C	-0.483272	1.151548	0.848046
C94	C	0.016728	1.651548	1.348046
C95	C	-0.483292	1.151534	0.766066
C96	C	0.016708	1.651534	1.266066
C97	C	-0.483226	1.151582	1.018918
C98	C	0.016774	1.651582	1.518918
C99	C	-0.483206	1.151596	1.100903
C100	C	0.016794	1.651596	1.600903
C101	C	-0.387913	1.258287	1.106030
C102	C	0.112087	1.758287	1.606030
C103	C	-0.387934	1.258273	1.024050
C104	C	0.112066	1.758273	1.524050
C105	C	-0.435593	1.204919	0.980497
C106	C	0.064407	1.704919	1.480497
H107	H	-0.739170	1.301556	0.349243
H108	H	-0.239170	1.801556	0.849243
Br109	Br	-0.547915	1.079157	0.900195
Br110	Br	-0.047915	1.579157	1.400195
H111	H	-0.501259	0.720138	0.500966
H112	H	-0.001259	1.220138	1.000966
H113	H	-0.887893	1.301629	0.349284
H114	H	-0.387893	1.801629	0.849284
Br115	Br	-0.971146	1.330625	0.323450
Br116	Br	-0.471146	1.830625	0.823450
H117	H	-0.370281	0.690321	0.370388
H118	H	0.129719	1.190321	0.870388
Br119	Br	-0.323361	1.330625	0.719055
Br120	Br	0.176639	1.830625	1.219055
H121	H	-0.349175	1.301684	0.888636
H122	H	0.150825	1.801684	1.388636
Br123	Br	-1.164385	1.330705	0.323479
Br124	Br	-0.664385	1.830705	0.823479
Br125	Br	-1.152397	1.079204	0.547940
Br126	Br	-0.652397	1.579204	1.047940
Br127	Br	-0.547846	1.079203	1.153054
Br128	Br	-0.047846	1.579203	1.653054
H129	H	-0.522090	1.108083	0.730606
H130	H	-0.022090	1.608083	1.230606
H131	H	-0.982791	1.108101	0.522076
H132	H	-0.482791	1.608101	1.022076
Br133	Br	-0.899537	1.079111	0.547909
Br134	Br	-0.399537	1.579111	1.047909
H135	H	-0.349106	1.301729	1.141494
H136	H	0.150894	1.801729	1.641494
Br137	Br	-0.706297	1.079023	0.547866
Br138	Br	-0.206297	1.579023	1.047866
H139	H	-0.349150	1.301709	0.992765
H140	H	0.150850	1.801709	1.492765
H141	H	-0.522022	1.108122	0.983458
H142	H	-0.022022	1.608122	1.483458
