data_functionalizedCrystal
_audit_creation_method	'MofGen! by Chris Wilmer'
_symmetry_space_group_name_H-M	'P1'
_symmetry_Int_Tables_number	1
_symmetry_cell_setting	triclinic
loop_
_symmetry_equiv_pos_as_xyz
  x,y,z
_cell_length_a	19.288867
_cell_length_b	17.019294
_cell_length_c	18.366186
_cell_angle_alpha	86.114787
_cell_angle_beta	89.992441
_cell_angle_gamma	83.266056
loop_
_atom_site_label
_atom_site_type_symbol
_atom_site_fract_x
_atom_site_fract_y
_atom_site_fract_z
O1	O	0.921526	0.098414	-0.066694
O2	O	1.254859	0.431747	0.266640
O3	O	1.588193	0.765080	0.599973
O4	O	0.719289	0.111687	-0.067533
O5	O	1.052622	0.445020	0.265801
O6	O	1.385956	0.778354	0.599134
O7	O	0.826049	-0.009803	-0.059908
O8	O	1.159382	0.323531	0.273425
O9	O	1.492715	0.656864	0.606758
O10	O	0.814766	0.219903	-0.074318
O11	O	1.148100	0.553237	0.259015
O12	O	1.481433	0.886570	0.592349
O13	O	0.826030	-0.009808	0.061192
O14	O	1.159364	0.323525	0.394525
O15	O	1.492697	0.656858	0.727858
O16	O	0.719271	0.111681	0.053567
O17	O	1.052604	0.445014	0.386900
O18	O	1.385938	0.778348	0.720234
O19	O	0.921508	0.098408	0.054406
O20	O	1.254841	0.431741	0.387740
O21	O	1.588174	0.765075	0.721073
Zn22	Zn	0.820386	0.105044	0.073214
Zn23	Zn	1.153720	0.438377	0.406547
Zn24	Zn	1.487053	0.771710	0.739881
Zn25	Zn	0.820410	0.105051	-0.086340
Zn26	Zn	1.153744	0.438385	0.246993
Zn27	Zn	1.487077	0.771718	0.580326
O28	O	0.814748	0.219897	0.046782
O29	O	1.148081	0.553231	0.380115
O30	O	1.481415	0.886564	0.713448
C31	C	0.693403	0.111257	-0.006957
C32	C	1.026736	0.444590	0.326376
C33	C	1.360069	0.777923	0.659710
C34	C	0.616297	0.109974	-0.006879
C35	C	0.949630	0.443307	0.326454
C36	C	1.282964	0.776640	0.659788
C37	C	0.060725	0.100737	-0.072302
C38	C	0.394058	0.434070	0.261031
C39	C	0.727392	0.767403	0.594364
C40	C	0.133175	0.101937	-0.072380
C41	C	0.466508	0.435271	0.260953
C42	C	0.799841	0.768604	0.594286
C43	C	0.169395	0.102538	-0.006407
C44	C	0.502728	0.435872	0.326926
C45	C	0.836061	0.769205	0.660260
C46	C	0.133161	0.101918	0.059651
C47	C	0.466494	0.435251	0.392984
C48	C	0.799828	0.768585	0.726317
C49	C	0.060714	0.100709	0.059727
C50	C	0.394047	0.434043	0.393061
C51	C	0.727380	0.767376	0.726394
C52	C	0.278799	0.150652	0.041148
C53	C	0.612133	0.483986	0.374481
C54	C	0.945466	0.817319	0.707814
C55	C	0.351245	0.151866	0.041068
C56	C	0.684578	0.485199	0.374401
C57	C	1.017912	0.818532	0.707735
C58	C	0.392847	0.106262	-0.006640
C59	C	0.726180	0.439596	0.326693
C60	C	1.059513	0.772929	0.660026
C61	C	0.361993	0.059455	-0.054282
C62	C	0.695326	0.392789	0.279051
C63	C	1.028660	0.726122	0.612384
C64	C	0.289546	0.058247	-0.054206
C65	C	0.622879	0.391580	0.279128
C66	C	0.956212	0.724913	0.612461
C67	C	0.247952	0.103848	-0.006483
C68	C	0.581285	0.437181	0.326851
C69	C	0.914618	0.770515	0.660184
C70	C	0.507630	0.108179	-0.072778
C71	C	0.840964	0.441512	0.260555
C72	C	1.174297	0.774845	0.593888
C73	C	0.580082	0.109374	-0.072853
C74	C	0.913415	0.442708	0.260480
C75	C	1.246749	0.776041	0.593814
C76	C	0.580066	0.109363	0.059179
C77	C	0.913399	0.442696	0.392513
C78	C	1.246733	0.776030	0.725846
C79	C	0.507617	0.108159	0.059253
C80	C	0.840950	0.441493	0.392586
C81	C	1.174283	0.774826	0.725920
C82	C	0.471403	0.107571	-0.006728
C83	C	0.804736	0.440904	0.326605
C84	C	1.138070	0.774238	0.659938
C85	C	0.825611	-0.039193	0.002484
C86	C	1.158945	0.294140	0.335817
C87	C	1.492278	0.627473	0.669150
C88	C	0.824328	-0.126759	0.007972
C89	C	1.157661	0.206574	0.341305
C90	C	1.490994	0.539907	0.674639
C91	C	0.823736	-0.167890	-0.055461
C92	C	1.157069	0.165443	0.277873
C93	C	1.490402	0.498776	0.611206
C94	C	0.822525	-0.250167	-0.050302
C95	C	1.155858	0.083166	0.283032
C96	C	1.489192	0.416500	0.616365
C97	C	0.821911	-0.291312	0.018291
C98	C	1.155244	0.042021	0.351624
C99	C	1.488577	0.375354	0.684958
C100	C	0.822500	-0.250175	0.081728
C101	C	1.155834	0.083158	0.415062
C102	C	1.489167	0.416491	0.748395
C103	C	0.823706	-0.167899	0.076568
C104	C	1.157040	0.165434	0.409902
C105	C	1.490373	0.498768	0.743235
C106	C	0.818265	-0.539733	0.037173
C107	C	1.151598	-0.206399	0.370506
C108	C	1.484931	0.126934	0.703839
C109	C	0.817061	-0.622015	0.042328
C110	C	1.150394	-0.288682	0.375661
C111	C	1.483728	0.044652	0.708995
C112	C	0.817084	-0.622001	-0.089703
C113	C	1.150418	-0.288668	0.243631
C114	C	1.483751	0.044666	0.576964
C115	C	0.818294	-0.539724	-0.094856
C116	C	1.151628	-0.206391	0.238477
C117	C	1.484961	0.126943	0.571810
C118	C	0.818880	-0.498593	-0.031419
C119	C	1.152213	-0.165260	0.301914
C120	C	1.485547	0.168073	0.635248
C121	C	0.820675	-0.375413	0.023566
C122	C	1.154009	-0.042079	0.356899
C123	C	1.487342	0.291254	0.690233
C124	C	0.820111	-0.414494	-0.036695
C125	C	1.153444	-0.081160	0.296638
C126	C	1.486777	0.252173	0.629972
C127	C	0.947394	0.098838	-0.006171
C128	C	1.280727	0.432172	0.327162
C129	C	1.614061	0.765505	0.660495
C130	C	1.024500	0.100121	-0.006254
C131	C	1.357833	0.433454	0.327080
C132	C	1.691166	0.766788	0.660413
C133	C	0.815185	0.249288	-0.015612
C134	C	1.148519	0.582621	0.317722
C135	C	1.481852	0.915955	0.651055
C136	C	0.816469	0.336854	-0.021105
C137	C	1.149803	0.670187	0.312229
C138	C	1.483136	1.003521	0.645562
N139	N	0.820375	0.105038	0.182105
N140	N	1.153709	0.438371	0.515439
N141	N	1.487042	0.771704	0.848772
N142	N	0.820427	0.105051	-0.195231
N143	N	1.153760	0.438384	0.138102
N144	N	1.487094	0.771718	0.471435
C145	C	0.867664	0.051268	0.223580
C146	C	1.200997	0.384602	0.556914
C147	C	1.534331	0.717935	0.890247
C148	C	0.867668	0.051265	0.299808
C149	C	1.201002	0.384598	0.633142
C150	C	1.534335	0.717932	0.966475
C151	C	0.820391	0.105044	0.334558
C152	C	1.153724	0.438378	0.667891
C153	C	1.487057	0.771711	1.001224
C154	C	0.773093	0.158818	0.293073
C155	C	1.106426	0.492151	0.626407
C156	C	1.439760	0.825484	0.959740
C157	C	0.773085	0.158814	0.216847
C158	C	1.106419	0.492148	0.550181
C159	C	1.439752	0.825481	0.883514
C160	C	0.811220	0.176920	0.450809
C161	C	1.144553	0.510253	0.784142
C162	C	1.477886	0.843586	1.117476
C163	C	0.811232	0.176924	0.527034
C164	C	1.144565	0.510257	0.860367
C165	C	1.477899	0.843591	1.193700
C166	C	0.820410	0.105054	0.569665
C167	C	1.153744	0.438387	0.902998
C168	C	1.487077	0.771721	1.236331
C169	C	0.829591	0.033177	0.536062
C170	C	1.162924	0.366510	0.869395
C171	C	1.496257	0.699843	1.202728
C172	C	0.829583	0.033173	0.459836
C173	C	1.162916	0.366507	0.793169
C174	C	1.496250	0.699840	1.126502
C175	C	0.820393	0.105053	0.417212
C176	C	1.153727	0.438387	0.750545
C177	C	1.487060	0.771720	1.083878
C178	C	0.867706	0.051277	0.693795
C179	C	1.201040	0.384610	1.027128
C180	C	1.534373	0.717943	1.360462
C181	C	0.867706	0.051272	0.770024
C182	C	1.201039	0.384605	1.103358
C183	C	1.534373	0.717939	1.436691
C184	C	0.773134	0.158831	0.763288
C185	C	1.106467	0.492165	1.096621
C186	C	1.439801	0.825498	1.429954
C187	C	0.773131	0.158829	0.687060
C188	C	1.106465	0.492162	1.020393
C189	C	1.439798	0.825496	1.353727
C190	C	0.820421	0.105053	0.652318
C191	C	1.153754	0.438386	0.985651
C192	C	1.487088	0.771719	1.318985
H193	H	0.395864	0.022323	-0.093133
H194	H	0.729197	0.355656	0.240200
H195	H	1.062531	0.688990	0.573533
H196	H	0.818756	-0.506256	0.088828
H197	H	1.152089	-0.172923	0.422161
H198	H	1.485422	0.160410	0.755495
N199	N	0.839483	-0.044344	0.423591
N200	N	1.172817	0.288990	0.756924
N201	N	1.506150	0.622323	1.090258
H202	H	0.800910	-0.077123	0.438920
H203	H	1.134243	0.256211	0.772254
H204	H	1.467576	0.589544	1.105587
H205	H	0.838103	-0.033366	0.368844
H206	H	1.171437	0.299967	0.702177
H207	H	1.504770	0.633301	1.035510
N208	N	0.619116	0.110016	0.130340
N209	N	0.952450	0.443350	0.463674
N210	N	1.285783	0.776683	0.797007
H211	H	0.612184	0.060915	0.162280
H212	H	0.945517	0.394248	0.495613
H213	H	1.278850	0.727581	0.828946
H214	H	0.670494	0.110905	0.120212
H215	H	1.003827	0.444238	0.453546
H216	H	1.337160	0.777572	0.786879
H217	H	0.818795	-0.506229	-0.150711
H218	H	1.152129	-0.172896	0.182622
H219	H	1.485462	0.160437	0.515955
H220	H	0.816557	-0.655513	0.098187
H221	H	1.149891	-0.322179	0.431520
H222	H	1.483224	0.011154	0.764853
N223	N	0.801325	0.254444	0.563274
N224	N	1.134659	0.587777	0.896607
N225	N	1.467992	0.921110	1.229941
H226	H	0.839891	0.287231	0.547937
H227	H	1.173225	0.620564	0.881270
H228	H	1.506558	0.953897	1.214604
H229	H	0.754699	0.284433	0.548117
H230	H	1.088032	0.617766	0.881450
H231	H	1.421366	0.951099	1.214784
H232	H	0.478121	0.107661	0.113037
H233	H	0.811455	0.440994	0.446370
H234	H	1.144788	0.774327	0.779703
H235	H	0.816606	-0.655498	-0.141349
H236	H	1.149939	-0.322165	0.191984
H237	H	1.483272	0.011169	0.525317
N238	N	0.821845	-0.294553	0.155710
N239	N	1.155178	0.038781	0.489043
N240	N	1.488511	0.372114	0.822377
H241	H	0.822402	-0.256009	0.195112
H242	H	1.155735	0.077324	0.528445
H243	H	1.489068	0.410658	0.861778
H244	H	0.778308	-0.322146	0.160316
H245	H	1.111641	0.011187	0.493650
H246	H	1.444974	0.344521	0.826983
H247	H	0.803734	0.235449	0.416104
H248	H	1.137067	0.568782	0.749438
H249	H	1.470400	0.902115	1.082771
H250	H	0.820606	-0.380989	-0.092543
H251	H	1.153939	-0.047656	0.240791
H252	H	1.487273	0.285678	0.574124
N253	N	0.384519	0.202335	0.092462
N254	N	0.717853	0.535668	0.425795
N255	N	1.051186	0.869002	0.759128
H256	H	0.436726	0.196182	0.085174
H257	H	0.770060	0.529516	0.418508
H258	H	1.103393	0.862849	0.751841
H259	H	0.365163	0.259760	0.082104
H260	H	0.698496	0.593093	0.415437
H261	H	1.031830	0.926427	0.748770
H262	H	0.734598	0.202604	0.321370
H263	H	1.067931	0.535938	0.654704
H264	H	1.401264	0.869271	0.988037
H265	H	0.824178	-0.134410	0.128222
H266	H	1.157512	0.198924	0.461555
H267	H	1.490845	0.532257	0.794889
N268	N	0.722077	0.216808	0.172108
N269	N	1.055410	0.550141	0.505441
N270	N	1.388744	0.883474	0.838775
H271	H	0.692123	0.250875	0.205686
H272	H	1.025457	0.584209	0.539019
H273	H	1.358790	0.917542	0.872352
H274	H	0.748626	0.251607	0.138289
H275	H	1.081960	0.584940	0.471622
H276	H	1.415293	0.918273	0.804955
N277	N	0.172255	0.102611	-0.143623
N278	N	0.505588	0.435945	0.189710
N279	N	0.838921	0.769278	0.523044
H280	H	0.223645	0.103468	-0.133658
H281	H	0.556978	0.436801	0.199675
H282	H	0.890311	0.770134	0.533009
H283	H	0.165277	0.053515	-0.169378
H284	H	0.498611	0.386848	0.163955
H285	H	0.831944	0.720182	0.497288
H286	H	0.244933	0.187784	0.080006
H287	H	0.578266	0.521118	0.413339
H288	H	0.911600	0.854451	0.746673
H289	H	0.031219	0.100211	0.113513
H290	H	0.364552	0.433544	0.446847
H291	H	0.697886	0.766878	0.780180
H292	H	0.824240	-0.134396	-0.111316
H293	H	1.157573	0.198937	0.222017
H294	H	1.490906	0.532270	0.555351
N295	N	0.021667	0.100092	-0.143464
N296	N	0.355001	0.433425	0.189870
N297	N	0.688334	0.766758	0.523203
H298	H	0.055614	0.100661	-0.185317
H299	H	0.388948	0.433994	0.148016
H300	H	0.722281	0.767327	0.481349
H301	H	-0.002707	0.050696	-0.143239
H302	H	0.330626	0.384030	0.190094
H303	H	0.663960	0.717363	0.523427
N304	N	0.619159	0.110026	-0.144094
N305	N	0.952492	0.443359	0.189239
N306	N	1.285826	0.776692	0.522573
H307	H	0.585222	0.109469	-0.185878
H308	H	0.918555	0.442802	0.147456
H309	H	1.251888	0.776136	0.480789
H310	H	0.643543	0.159415	-0.150066
H311	H	0.976877	0.492748	0.183267
H312	H	1.310210	0.826081	0.516600
N313	N	0.172222	0.102563	0.130809
N314	N	0.505555	0.435897	0.464142
N315	N	0.838888	0.769230	0.797476
H316	H	0.223614	0.103426	0.120738
H317	H	0.556947	0.436759	0.454072
H318	H	0.890281	0.770092	0.787405
H319	H	0.153873	0.151240	0.156584
H320	H	0.487206	0.484573	0.489918
H321	H	0.820540	0.817906	0.823251
H322	H	0.822046	-0.283653	-0.101955
H323	H	1.155379	0.049681	0.231378
H324	H	1.488713	0.383014	0.564711
H325	H	0.820178	-0.408923	0.079414
H326	H	1.153511	-0.075589	0.412748
H327	H	1.486844	0.257744	0.746081
H328	H	0.478144	0.107697	-0.126504
H329	H	0.811477	0.441030	0.206830
H330	H	1.144811	0.774364	0.540163
N331	N	0.722136	0.216837	0.642322
N332	N	1.055470	0.550170	0.975656
N333	N	1.388803	0.883504	1.308989
H334	H	0.729306	0.208676	0.588761
H335	H	1.062639	0.542009	0.922094
H336	H	1.395972	0.875342	1.255428
H337	H	0.672874	0.207869	0.656221
H338	H	1.006208	0.541202	0.989554
H339	H	1.339541	0.874536	1.322887
N340	N	0.256266	0.007763	-0.105582
N341	N	0.589600	0.341096	0.227752
N342	N	0.922933	0.674430	0.561085
H343	H	0.293609	-0.020946	-0.135819
H344	H	0.626942	0.312388	0.197515
H345	H	0.960276	0.645721	0.530848
H346	H	0.230791	-0.032204	-0.076417
H347	H	0.564124	0.301129	0.256916
H348	H	0.897458	0.634462	0.590250
N349	N	0.918663	-0.006734	0.186108
N350	N	1.251996	0.326599	0.519441
N351	N	1.585329	0.659932	0.852775
H352	H	0.967948	0.002212	0.198801
H353	H	1.301281	0.335545	0.532134
H354	H	1.634615	0.668878	0.865467
H355	H	0.910664	-0.062673	0.202909
H356	H	1.243997	0.270660	0.536242
H357	H	1.577330	0.603994	0.869576
N358	N	0.918674	-0.006727	0.344559
N359	N	1.252007	0.326607	0.677893
N360	N	1.585340	0.659940	1.011226
H361	H	0.910739	-0.062696	0.334817
H362	H	1.244072	0.270638	0.668150
H363	H	1.577405	0.603971	1.001484
H364	H	0.967934	0.002290	0.330701
H365	H	1.301267	0.335624	0.664034
H366	H	1.634601	0.668957	0.997368
N367	N	0.839495	-0.044348	0.582030
N368	N	1.172828	0.288986	0.915363
N369	N	1.506161	0.622319	1.248697
H370	H	0.838104	-0.033443	0.635418
H371	H	1.171437	0.299891	0.968751
H372	H	1.504770	0.633224	1.302084
H373	H	0.800914	-0.077090	0.570769
H374	H	1.134247	0.256244	0.904103
H375	H	1.467580	0.589577	1.237436
N376	N	0.918706	-0.006723	0.656316
N377	N	1.252040	0.326610	0.989650
N378	N	1.585373	0.659943	1.322983
H379	H	0.948662	-0.040792	0.694161
H380	H	1.281995	0.292541	1.027494
H381	H	1.615328	0.625874	1.360828
H382	H	0.892150	-0.041521	0.626879
H383	H	1.225484	0.291813	0.960213
H384	H	1.558817	0.625146	1.293546
N385	N	0.918724	-0.006712	0.814761
N386	N	1.252057	0.326622	1.148095
N387	N	1.585391	0.659955	1.481428
H388	H	0.948684	-0.040770	0.781182
H389	H	1.282018	0.292564	1.114516
H390	H	1.615351	0.625897	1.447849
H391	H	0.949390	0.023424	0.844480
H392	H	1.282723	0.356757	1.177813
H393	H	1.616056	0.690091	1.511147
N394	N	0.722135	0.216832	0.800756
N395	N	1.055468	0.550165	1.134090
N396	N	1.388802	0.883499	1.467423
H397	H	0.729313	0.208674	0.855340
H398	H	1.062646	0.542008	1.188673
H399	H	1.395980	0.875341	1.522006
H400	H	0.730097	0.272772	0.783917
H401	H	1.063431	0.606105	1.117251
H402	H	1.396764	0.939438	1.450584
