data_functionalizedCrystal
_audit_creation_method	'MofGen! by Chris Wilmer'
_symmetry_space_group_name_H-M	'P1'
_symmetry_Int_Tables_number	1
_symmetry_cell_setting	triclinic
loop_
_symmetry_equiv_pos_as_xyz
  x,y,z
_cell_length_a	12.645331
_cell_length_b	18.050590
_cell_length_c	12.645323
_cell_angle_alpha	90.030576
_cell_angle_beta	90.022676
_cell_angle_gamma	90.017531
loop_
_atom_site_label
_atom_site_type_symbol
_atom_site_fract_x
_atom_site_fract_y
_atom_site_fract_z
Zn1	Zn	1.620725	-0.295674	0.599404
Zn2	Zn	2.120725	0.204326	1.099404
Zn3	Zn	1.620604	-0.419873	0.422127
Zn4	Zn	2.120604	0.080127	0.922127
Zn5	Zn	1.443439	-0.295699	0.422149
Zn6	Zn	1.943439	0.204301	0.922149
Zn7	Zn	1.443419	-0.419824	0.599342
Zn8	Zn	1.943419	0.080176	1.099342
O9	O	1.532047	-0.357767	0.510755
O10	O	2.032047	0.142233	1.010755
O11	O	1.769056	-0.312159	0.575905
O12	O	2.269056	0.187841	1.075905
O13	O	1.597061	-0.403432	0.273782
O14	O	2.097061	0.096568	0.773782
O15	O	1.467016	-0.191771	0.445697
O16	O	1.967016	0.308229	0.945697
O17	O	1.768967	-0.403407	0.445660
O18	O	2.268967	0.096593	0.945660
O19	O	1.597267	-0.191753	0.575926
O20	O	2.097267	0.308247	1.075926
O21	O	1.466899	-0.312202	0.273798
O22	O	1.966899	0.187798	0.773798
O23	O	1.295089	-0.312155	0.445637
O24	O	1.795089	0.187845	0.945637
O25	O	1.466981	-0.403325	0.747698
O26	O	1.966981	0.096675	1.247698
O27	O	1.295074	-0.403349	0.575820
O28	O	1.795074	0.096651	1.075820
O29	O	1.597247	-0.312112	0.747743
O30	O	2.097247	0.187888	1.247743
O31	O	1.597040	-0.523791	0.445599
O32	O	2.097040	-0.023791	0.945599
O33	O	1.466863	-0.523755	0.575799
O34	O	1.966863	-0.023755	1.075799
C35	C	1.256617	-0.357750	0.510725
C36	C	1.756617	0.142250	1.010725
C37	C	1.138787	-0.357760	0.510737
C38	C	1.638787	0.142240	1.010737
C39	C	1.531965	-0.550720	0.510713
C40	C	2.031965	-0.050720	1.010713
C41	C	1.532027	-0.633265	0.510731
C42	C	2.032027	-0.133265	1.010731
C43	C	0.971197	-0.300126	0.429290
C44	C	1.471197	0.199874	0.929290
C45	C	1.093757	-0.300275	0.428931
C46	C	1.593757	0.199725	0.928931
C47	C	1.094265	-0.435993	0.480211
C48	C	1.594265	0.064007	0.980211
C49	C	0.971667	-0.435678	0.479655
C50	C	1.471667	0.064322	0.979655
C51	C	0.971638	-0.337906	0.623024
C52	C	1.471638	0.162094	1.123024
C53	C	1.094244	-0.336158	0.622400
C54	C	1.594244	0.163842	1.122400
C55	C	1.602965	-0.832708	0.440027
C56	C	2.102965	-0.332708	0.940027
C57	C	1.628865	-0.882039	0.536780
C58	C	2.128865	-0.382039	1.036780
C59	C	1.532088	-0.784396	0.510773
C60	C	2.032088	-0.284396	1.010773
C61	C	1.506295	-0.882147	0.414063
C62	C	2.006295	-0.382147	0.914063
C63	C	1.532148	-0.930381	0.510805
C64	C	2.032148	-0.430381	1.010805
C65	C	1.558037	-0.832639	0.607577
C66	C	2.058037	-0.332639	1.107577
C67	C	1.435422	-0.832743	0.484795
C68	C	1.935422	-0.332743	0.984795
C69	C	1.461286	-0.882051	0.581614
C70	C	1.961286	-0.382051	1.081614
C71	C	1.532056	-0.700297	0.510753
C72	C	2.032056	-0.200297	1.010753
C73	C	1.532179	-1.014477	0.510836
C74	C	2.032179	-0.514477	1.010836
C75	C	1.808552	-0.357786	0.510787
C76	C	2.308552	0.142214	1.010787
C77	C	1.926382	-0.357793	0.510800
C78	C	2.426382	0.142207	1.010800
C79	C	1.532125	-0.357710	0.787261
C80	C	2.032125	0.142290	1.287261
C81	C	1.532158	-0.357686	0.905091
C82	C	2.032158	0.142314	1.405091
C83	C	1.532157	-0.164062	0.510821
C84	C	2.032157	0.335938	1.010821
C85	C	1.532205	-0.081516	0.510849
C86	C	2.032205	0.418484	1.010849
C87	C	1.532030	-0.357771	0.235326
C88	C	2.032030	0.142229	0.735326
C89	C	1.532202	-0.357586	0.117496
C90	C	2.032202	0.142414	0.617496
C91	C	1.449955	-0.414797	1.072626
C92	C	1.949955	0.085203	1.572626
C93	C	1.450170	-0.415080	0.950066
C94	C	1.950170	0.084920	1.450066
C95	C	1.643857	-0.378927	0.949608
C96	C	2.143857	0.121073	1.449608
C97	C	1.643406	-0.379285	1.072206
C98	C	2.143406	0.120715	1.572206
C99	C	1.503718	-0.279014	1.072300
C100	C	2.003718	0.220986	1.572300
C101	C	1.501226	-0.279485	0.949693
C102	C	2.001226	0.220515	1.449693
H103	H	1.123859	-0.242262	0.448066
H104	H	1.623859	0.257738	0.948066
F105	F	1.474797	-0.491208	0.911735
F106	F	1.974797	0.008792	1.411735
H107	H	1.468575	-0.472682	1.103437
H108	H	1.968575	0.027318	1.603437
H109	H	1.123433	-0.480108	0.537715
H110	H	1.623433	0.019892	1.037715
F111	F	1.586720	-0.804338	0.714523
F112	F	2.086720	-0.304338	1.214523
H113	H	1.366880	-0.401633	1.102102
H114	H	1.866880	0.098367	1.602102
F115	F	0.932689	-0.224068	0.454030
F116	F	1.432689	0.275932	0.954030
F117	F	1.341908	-0.397702	0.910720
F118	F	1.841908	0.102298	1.410720
F119	F	0.930859	-0.317104	0.321233
F120	F	1.430859	0.182896	0.821233
H121	H	0.943020	-0.452544	0.397614
H122	H	1.443020	0.047456	0.897614
F123	F	0.933760	-0.392805	0.702406
F124	F	1.433760	0.107195	1.202406
F125	F	1.675959	-0.453216	0.909487
F126	F	2.175959	0.046784	1.409487
F127	F	1.726175	-0.327151	1.111009
F128	F	2.226175	0.172849	1.611009
H129	H	1.123035	-0.313420	0.345769
H130	H	1.623035	0.186580	0.845769
H131	H	1.123349	-0.278587	0.645418
H132	H	1.623349	0.221413	1.145418
F133	F	1.573814	-0.220824	0.909690
F134	F	2.073814	0.279176	1.409690
F135	F	1.582018	-0.223300	1.110229
F136	F	2.082018	0.276700	1.610229
H137	H	1.667550	-0.436723	1.100809
H138	H	2.167550	0.063277	1.600809
F139	F	1.382975	-0.910193	0.659919
F140	F	1.882975	-0.410193	1.159919
F141	F	1.735752	-0.910331	0.565542
F142	F	2.235752	-0.410331	1.065542
H143	H	1.124920	-0.453148	0.399050
H144	H	1.624920	0.046852	0.899050
H145	H	0.942021	-0.480100	0.536434
H146	H	1.442021	0.019900	1.036434
F147	F	1.328565	-0.804419	0.456015
F148	F	1.828565	-0.304419	0.956015
F149	F	1.477748	-0.910572	0.307147
F150	F	1.977748	-0.410572	0.807147
H151	H	1.706781	-0.338575	0.920478
H152	H	2.206781	0.161425	1.420478
F153	F	1.399108	-0.253707	1.112694
F154	F	1.899108	0.246293	1.612694
H155	H	0.940743	-0.281854	0.650783
H156	H	1.440743	0.218146	1.150783
H157	H	1.419026	-0.263466	0.920596
H158	H	1.919026	0.236534	1.420596
F159	F	1.134308	-0.387055	0.706029
F160	F	1.634308	0.112945	1.206029
H161	H	1.662924	-0.811042	0.380261
H162	H	2.162924	-0.311042	0.880261
