data_functionalizedCrystal
_audit_creation_method	'MofGen! by Chris Wilmer'
_symmetry_space_group_name_H-M	'P1'
_symmetry_Int_Tables_number	1
_symmetry_cell_setting	triclinic
loop_
_symmetry_equiv_pos_as_xyz
  x,y,z
_cell_length_a	12.594517
_cell_length_b	11.169416
_cell_length_c	11.169409
_cell_angle_alpha	89.969126
_cell_angle_beta	90.013636
_cell_angle_gamma	89.993774
loop_
_atom_site_label
_atom_site_type_symbol
_atom_site_fract_x
_atom_site_fract_y
_atom_site_fract_z
Zn1	Zn	1.627332	0.477842	0.678357
Zn2	Zn	2.127332	0.977842	1.178357
Zn3	Zn	1.627234	0.678582	0.477679
Zn4	Zn	2.127234	1.178582	0.977679
Zn5	Zn	1.449329	0.477897	0.477713
Zn6	Zn	1.949329	0.977897	0.977713
Zn7	Zn	1.449336	0.678467	0.678345
Zn8	Zn	1.949336	1.178467	1.178345
O9	O	1.538308	0.578197	0.578023
O10	O	2.038308	1.078197	1.078023
O11	O	1.776265	0.504495	0.651727
O12	O	2.276265	1.004495	1.151727
O13	O	1.603590	0.652033	0.309733
O14	O	2.103590	1.152033	0.809733
O15	O	1.472980	0.309940	0.504348
O16	O	1.972980	0.809940	1.004348
O17	O	1.776192	0.651979	0.504290
O18	O	2.276192	1.151979	1.004290
O19	O	1.603758	0.309899	0.651760
O20	O	2.103758	0.809899	1.151760
O21	O	1.472885	0.504590	0.309758
O22	O	1.972885	1.004590	0.809758
O23	O	1.300384	0.504479	0.504337
O24	O	1.800384	1.004479	1.004337
O25	O	1.472991	0.651782	0.846297
O26	O	1.972991	1.151782	1.346297
O27	O	1.300389	0.651836	0.651740
O28	O	1.800389	1.151836	1.151740
O29	O	1.603764	0.504384	0.846305
O30	O	2.103764	1.004384	1.346305
O31	O	1.603597	0.846517	0.504279
O32	O	2.103597	1.346517	1.004279
O33	O	1.472896	0.846432	0.651707
O34	O	1.972896	1.346432	1.151707
C35	C	1.261767	0.578152	0.578042
C36	C	1.761767	1.078152	1.078042
C37	C	1.143461	0.578161	0.578078
C38	C	1.643461	1.078161	1.078078
C39	C	1.074242	0.658466	0.658096
C40	C	1.574242	1.158466	1.158096
C41	C	1.003424	0.549036	0.687609
C42	C	1.503424	1.049036	1.187609
C43	C	1.003479	0.687682	0.548538
C44	C	1.503479	1.187682	1.048538
C45	C	1.074202	0.468672	0.607649
C46	C	1.574202	0.968672	1.107649
C47	C	1.074263	0.607393	0.468526
C48	C	1.574263	1.107393	0.968526
C49	C	1.003478	0.497887	0.497998
C50	C	1.503478	0.997887	0.997998
C51	C	1.538265	0.890022	0.578014
C52	C	2.038265	1.390022	1.078014
C53	C	1.538345	1.023422	0.578050
C54	C	2.038345	1.523422	1.078050
C55	C	1.538389	0.578064	0.891066
C56	C	2.038389	1.078064	1.391066
C57	C	1.538424	0.578007	1.024466
C58	C	2.038424	1.078007	1.524466
C59	C	1.815928	0.578244	0.578006
C60	C	2.315928	1.078244	1.078006
C61	C	1.934234	0.578263	0.577998
C62	C	2.434234	1.078263	1.077998
C63	C	1.538379	0.265155	0.578059
C64	C	2.038379	0.765155	1.078059
C65	C	1.538409	0.131755	0.578074
C66	C	2.038409	0.631755	1.078074
C67	C	1.538287	0.578243	0.266199
C68	C	2.038287	1.078243	0.766199
C69	C	1.538459	0.577962	0.132799
C70	C	2.038459	1.077962	0.632799
H71	H	0.972408	0.780259	0.523589
H72	H	1.472408	1.280259	1.023589
Br73	Br	1.126124	0.648571	0.314183
Br74	Br	1.626124	1.148571	0.814183
Br75	Br	0.952014	0.384647	0.385152
Br76	Br	1.452014	0.884647	0.885152
Br77	Br	1.126031	0.771445	0.771017
Br78	Br	1.626031	1.271445	1.271017
H79	H	0.972308	0.524347	0.780221
H80	H	1.472308	1.024347	1.280221
H81	H	1.105138	0.376067	0.632705
H82	H	1.605138	0.876067	1.132705
