data_functionalizedCrystal
_audit_creation_method	'MofGen! by Chris Wilmer'
_symmetry_space_group_name_H-M	'P1'
_symmetry_Int_Tables_number	1
_symmetry_cell_setting	triclinic
loop_
_symmetry_equiv_pos_as_xyz
  x,y,z
_cell_length_a	6.817900
_cell_length_b	10.773890
_cell_length_c	11.353885
_cell_angle_alpha	107.082533
_cell_angle_beta	107.526914
_cell_angle_gamma	96.645716
loop_
_atom_site_label
_atom_site_type_symbol
_atom_site_fract_x
_atom_site_fract_y
_atom_site_fract_z
V1	V	-4.064768	-0.260440	-0.404459
O2	O	-4.087402	-0.078354	-0.398946
O3	O	-3.981552	-0.429014	-0.399590
O4	O	-4.048671	-0.296306	-0.581817
O5	O	-4.019818	-0.211981	-0.215458
V6	V	-4.548722	-0.233950	-0.382108
O7	O	-4.325082	-0.318550	-0.453487
O8	O	-4.738605	-0.175840	-0.333080
O9	O	-4.408731	-0.065376	-0.386977
O10	O	-4.643485	-0.416035	-0.387622
O11	O	-4.711069	-0.282409	-0.571109
O12	O	-4.341612	-0.198084	-0.204751
C13	C	-3.817038	-0.468863	-0.392667
C14	C	-3.830501	-0.606931	-0.389869
C15	C	-3.902654	-0.299579	-0.625113
C16	C	-3.970546	-0.330019	-0.770090
C17	C	-3.981349	-0.231471	-0.818362
C18	C	-4.051518	-0.262929	-0.968203
C19	C	-4.009462	-0.675850	-0.394732
C20	C	-4.023381	-0.818551	-0.391840
C21	C	-4.236586	-0.025532	-0.393896
C22	C	-4.202362	0.112533	-0.396703
C23	C	-4.150970	-0.194813	-0.161447
C24	C	-4.062317	-0.164367	-0.016469
H25	H	-3.938640	-0.123810	-0.748757
O26	O	-4.108079	-0.405553	-1.060380
H27	H	-4.154333	-0.407882	-1.163607
H28	H	-4.019596	-0.056698	-0.946869
O29	O	-4.391696	-0.825711	-0.405048
H30	H	-4.351054	-0.723316	-0.405999
H31	H	-4.013234	-0.437678	-0.839694
O32	O	-3.641184	-0.668696	-0.381525
H33	H	-3.681823	-0.771085	-0.380557
H34	H	-4.152376	-0.629211	-0.401043
H35	H	-3.880461	-0.865190	-0.385542
