data_functionalizedCrystal
_audit_creation_method	'MofGen! by Chris Wilmer'
_symmetry_space_group_name_H-M	'P1'
_symmetry_Int_Tables_number	1
_symmetry_cell_setting	triclinic
loop_
_symmetry_equiv_pos_as_xyz
  x,y,z
_cell_length_a	6.817900
_cell_length_b	12.908942
_cell_length_c	11.102193
_cell_angle_alpha	94.413094
_cell_angle_beta	108.604059
_cell_angle_gamma	100.860556
loop_
_atom_site_label
_atom_site_type_symbol
_atom_site_fract_x
_atom_site_fract_y
_atom_site_fract_z
V1	V	-4.071822	-0.145860	-0.395550
O2	O	-4.072453	0.007001	-0.388748
O3	O	-4.009589	-0.289208	-0.392145
O4	O	-4.049205	-0.143620	-0.568383
O5	O	-4.032562	-0.139595	-0.211291
V6	V	-4.553901	-0.127576	-0.373596
O7	O	-4.336247	-0.185968	-0.443708
O8	O	-4.739673	-0.087467	-0.325439
O9	O	-4.392927	0.015773	-0.377001
O10	O	-4.670666	-0.280437	-0.380399
O11	O	-4.710557	-0.133841	-0.557856
O12	O	-4.353310	-0.129816	-0.200764
C13	C	-3.850390	-0.324154	-0.385725
C14	C	-3.880967	-0.441343	-0.384093
C15	C	-4.303577	-0.672296	-0.393684
C16	C	-4.332316	-0.782406	-0.392151
C17	C	-3.967190	-0.771676	-0.379503
C18	C	-3.938451	-0.661566	-0.381036
C19	C	-4.106652	-0.611880	-0.388125
C20	C	-4.077906	-0.501767	-0.389648
C21	C	-3.712787	-0.491040	-0.377010
C22	C	-3.741526	-0.601150	-0.375477
C23	C	-3.900924	-0.138439	-0.610532
C24	C	-3.963625	-0.137556	-0.751818
C25	C	-4.031410	-0.330638	-0.787210
C26	C	-4.094752	-0.426759	-0.871280
C27	C	-4.153665	-0.425924	-1.004029
C28	C	-4.149241	-0.328956	-1.052711
C29	C	-4.085899	-0.232835	-0.968641
C30	C	-4.026982	-0.233681	-0.835889
C31	C	-4.018129	-0.039756	-0.933251
C32	C	-3.959200	-0.040589	-0.800500
C33	C	-4.013704	0.057212	-0.981932
C34	C	-3.950347	0.153336	-0.897861
C35	C	-3.891429	0.152496	-0.765103
C36	C	-3.895858	0.055533	-0.716430
C37	C	-4.215466	0.050712	-0.383419
C38	C	-4.164129	0.167900	-0.385059
C39	C	-4.164933	-0.135000	-0.158609
C40	C	-4.081471	-0.135877	-0.017321
H41	H	-3.830264	-0.812151	-0.373744
H42	H	-3.552432	-0.441836	-0.372482
O43	O	-4.466876	-0.623929	-0.400728
C44	C	-4.514496	-0.574884	-0.512519
H45	H	-4.369456	-0.558498	-0.544113
H46	H	-4.559569	-0.496508	-0.491411
H47	H	-4.652967	-0.629983	-0.592427
H48	H	-4.214861	-0.461313	-0.395411
H49	H	-3.604591	-0.641620	-0.369710
H50	H	-3.946766	0.232279	-0.937509
H51	H	-4.492670	-0.831593	-0.396680
H52	H	-3.983412	-0.331327	-0.679118
O53	O	-4.071251	0.057881	-1.110919
C54	C	-4.283011	0.000217	-1.171098
H55	H	-4.326683	-0.058308	-1.106971
H56	H	-4.300062	-0.045555	-1.267229
H57	H	-4.393521	0.057885	-1.187758
O58	O	-4.098835	-0.520853	-0.823772
C59	C	-4.033303	-0.500988	-0.688579
H60	H	-3.932723	-0.416303	-0.653002
H61	H	-3.935305	-0.560155	-0.645996
H62	H	-4.178884	-0.510443	-0.657418
O63	O	-4.206178	-0.327998	-1.181629
C64	C	-4.033795	-0.269780	-1.210170
H65	H	-3.922200	-0.212226	-1.121299
H66	H	-4.095580	-0.222881	-1.291654
H67	H	-3.944214	-0.327154	-1.240636
H68	H	-3.839865	0.230770	-0.696660
H69	H	-4.205246	-0.504194	-1.072481
O70	O	-3.838262	0.054777	-0.587456
C71	C	-3.626537	0.112482	-0.527257
H72	H	-3.539819	0.114774	-0.599781
H73	H	-3.543506	0.071999	-0.444018
H74	H	-3.625079	0.197334	-0.489292
