data_functionalizedCrystal
_audit_creation_method	'MofGen! by Chris Wilmer'
_symmetry_space_group_name_H-M	'P1'
_symmetry_Int_Tables_number	1
_symmetry_cell_setting	triclinic
loop_
_symmetry_equiv_pos_as_xyz
  x,y,z
_cell_length_a	14.044220
_cell_length_b	14.044202
_cell_length_c	12.503572
_cell_angle_alpha	86.163523
_cell_angle_beta	86.164750
_cell_angle_gamma	86.809210
loop_
_atom_site_label
_atom_site_type_symbol
_atom_site_fract_x
_atom_site_fract_y
_atom_site_fract_z
O1	O	1.282209	-0.225115	-0.089240
O2	O	1.782209	0.274885	0.410760
O3	O	1.005539	-0.216808	-0.089266
O4	O	1.505539	0.283192	0.410734
O5	O	1.139715	-0.082627	-0.089224
O6	O	1.639715	0.417373	0.410776
O7	O	1.148033	-0.359296	-0.089282
O8	O	1.648033	0.140704	0.410718
O9	O	1.129626	-0.092737	0.089414
O10	O	1.629626	0.407263	0.589414
O11	O	0.995450	-0.226917	0.089373
O12	O	1.495450	0.273083	0.589373
O13	O	1.272120	-0.235225	0.089398
O14	O	1.772120	0.264775	0.589398
Cu15	Cu	1.132864	-0.231994	0.105697
Cu16	Cu	1.632864	0.268006	0.605697
Cu17	Cu	1.144795	-0.220039	-0.105564
Cu18	Cu	1.644795	0.279961	0.394436
O19	O	1.137944	-0.369406	0.089357
O20	O	1.637944	0.130594	0.589357
C21	C	0.964873	-0.218227	0.000050
C22	C	1.464873	0.281773	0.500050
C23	C	0.858730	-0.207382	0.000042
C24	C	1.358730	0.292618	0.500042
C25	C	1.131033	-0.052060	0.000100
C26	C	1.631033	0.447940	0.500100
C27	C	1.120184	0.054082	0.000114
C28	C	1.620184	0.554082	0.500114
C29	C	0.664390	-0.187557	0.000067
C30	C	1.164390	0.312443	0.500067
C31	C	0.613263	-0.264471	0.000056
C32	C	1.113263	0.235529	0.500056
C33	C	0.505126	-0.253440	0.000070
C34	C	1.005126	0.246560	0.500070
C35	C	0.772537	-0.198586	0.000053
C36	C	1.272537	0.301414	0.500053
C37	C	1.312787	-0.233806	0.000080
C38	C	1.812787	0.266194	0.500080
C39	C	1.418930	-0.244650	0.000081
C40	C	1.918930	0.255350	0.500081
N41	N	1.124478	-0.240403	0.254286
N42	N	1.624478	0.259597	0.754286
C43	C	1.177284	0.299542	0.000092
C44	C	1.677284	0.799542	0.500092
C45	C	1.100368	0.248416	0.000089
C46	C	1.600368	0.748416	0.500089
C47	C	1.111397	0.140279	0.000103
C48	C	1.611397	0.640279	0.500103
C49	C	1.166257	0.407689	0.000078
C50	C	1.666257	0.907689	0.500078
C51	C	1.146623	0.600027	0.000045
C52	C	1.646623	1.100027	0.500045
C53	C	1.157464	0.493882	0.000067
C54	C	1.657464	0.993882	0.500067
N55	N	1.153188	-0.211623	-0.254154
N56	N	1.653188	0.288377	0.245846
C57	C	1.112144	-0.252781	0.473398
C58	C	1.612144	0.247219	0.973398
C59	C	1.165519	-0.199248	0.526741
C60	C	1.665519	0.300752	1.026741
C61	C	1.158656	-0.206135	0.648663
C62	C	1.658656	0.293865	1.148663
C63	C	1.119006	-0.245895	0.351466
C64	C	1.619006	0.254105	0.851466
H65	H	0.650706	-0.338603	0.000035
H66	H	1.150706	0.161397	0.500035
H67	H	1.216370	-0.148245	0.480844
H68	H	1.716370	0.351755	0.980844
H69	H	1.061298	-0.303782	0.519289
H70	H	1.561298	0.196218	1.019289
O71	O	0.619880	-0.099053	0.000127
O72	O	1.119880	0.400947	0.500127
C73	C	0.638108	0.070546	0.000066
C74	C	1.138108	0.570546	0.500066
C75	C	0.688650	-0.029627	0.000032
C76	C	1.188650	0.470373	0.500032
H77	H	0.693687	0.126706	-0.000034
H78	H	1.193687	0.626706	0.499966
H79	H	0.587420	0.075382	0.074846
H80	H	1.087420	0.575382	0.574846
H81	H	0.595791	0.083711	-0.074674
H82	H	1.095791	0.583711	0.425326
H83	H	0.731018	-0.042857	0.074721
H84	H	1.231018	0.457143	0.574721
H85	H	0.739282	-0.034414	-0.074798
H86	H	1.239282	0.465586	0.425202
H87	H	1.251410	0.262100	0.000108
H88	H	1.751410	0.762100	0.500108
O89	O	1.011994	0.293228	0.000127
O90	O	1.511994	0.793228	0.500127
C91	C	0.920292	0.443440	0.000044
C92	C	1.420292	0.943440	0.500044
C93	C	1.020425	0.392807	0.000023
C94	C	1.520425	0.892807	0.500023
H95	H	0.927075	0.523959	-0.000063
H96	H	1.427075	1.023959	0.499937
H97	H	0.875602	0.417771	0.074822
H98	H	1.375602	0.917771	0.574822
H99	H	0.884067	0.426067	-0.074698
H100	H	1.384067	0.926067	0.425302
H101	H	1.056732	0.410157	0.074713
H102	H	1.556732	0.910157	0.574713
H103	H	1.065045	0.418481	-0.074806
H104	H	1.565045	0.918481	0.425194
