data_functionalizedCrystal
_audit_creation_method	'MofGen! by Chris Wilmer'
_symmetry_space_group_name_H-M	'P1'
_symmetry_Int_Tables_number	1
_symmetry_cell_setting	triclinic
loop_
_symmetry_equiv_pos_as_xyz
  x,y,z
_cell_length_a	16.109302
_cell_length_b	16.109301
_cell_length_c	9.130313
_cell_angle_alpha	89.994060
_cell_angle_beta	89.994534
_cell_angle_gamma	83.461631
loop_
_atom_site_label
_atom_site_type_symbol
_atom_site_fract_x
_atom_site_fract_y
_atom_site_fract_z
O1	O	1.103130	0.106870	-0.121870
O2	O	1.603130	0.606870	0.378130
O3	O	0.861068	0.120169	-0.121859
O4	O	1.361068	0.620169	0.378141
O5	O	0.988749	-0.007512	-0.121850
O6	O	1.488749	0.492488	0.378150
O7	O	0.975450	0.234550	-0.121879
O8	O	1.475450	0.734550	0.378121
O9	O	0.988740	-0.007515	0.121749
O10	O	1.488740	0.492485	0.621749
O11	O	0.861060	0.120165	0.121740
O12	O	1.361060	0.620165	0.621740
O13	O	1.103122	0.106866	0.121729
O14	O	1.603122	0.606866	0.621729
Cu15	Cu	0.982090	0.113515	0.143977
Cu16	Cu	1.482090	0.613515	0.643977
Cu17	Cu	0.982100	0.113520	-0.144107
Cu18	Cu	1.482100	0.613520	0.355893
O19	O	0.975441	0.234547	0.121720
O20	O	1.475441	0.734547	0.621720
C21	C	0.830089	0.119628	-0.000058
C22	C	1.330089	0.619628	0.499942
C23	C	0.737794	0.118013	-0.000053
C24	C	1.237794	0.618013	0.499947
C25	C	0.525448	0.114275	0.132718
C26	C	1.025448	0.614275	0.632718
C27	C	0.438728	0.112749	0.132714
C28	C	0.938728	0.612749	0.632714
C29	C	0.438748	0.112757	-0.132871
C30	C	0.938748	0.612757	0.367129
C31	C	0.525467	0.114278	-0.132865
C32	C	1.025467	0.614278	0.367135
C33	C	0.568815	0.115041	-0.000066
C34	C	1.068815	0.615041	0.499934
C35	C	0.395375	0.111994	-0.000077
C36	C	0.895375	0.611994	0.499923
C37	C	0.301350	0.110338	-0.000083
C38	C	0.801350	0.610338	0.499917
C39	C	0.662847	0.116695	-0.000059
C40	C	1.162847	0.616695	0.499941
C41	C	0.988206	-0.038488	-0.000050
C42	C	1.488206	0.461512	0.499950
C43	C	0.986591	-0.130784	-0.000047
C44	C	1.486591	0.369216	0.499953
C45	C	1.058599	-0.353056	-0.000074
C46	C	1.558599	0.146944	0.499926
C47	C	1.057074	-0.439776	-0.000086
C48	C	1.557074	0.060224	0.499914
C49	C	0.905586	-0.419902	-0.000073
C50	C	1.405586	0.080098	0.499927
C51	C	0.907111	-0.333184	-0.000072
C52	C	1.407111	0.166816	0.499928
C53	C	0.983620	-0.299763	-0.000065
C54	C	1.483620	0.200237	0.499935
C55	C	0.980571	-0.473202	-0.000078
C56	C	1.480571	0.026798	0.499922
C57	C	0.978918	-0.567228	-0.000091
C58	C	1.478918	-0.067228	0.499909
C59	C	0.985273	-0.205731	-0.000054
C60	C	1.485273	0.294269	0.499946
C61	C	1.134101	0.107407	-0.000075
C62	C	1.634101	0.607407	0.499925
C63	C	1.226396	0.109022	-0.000089
C64	C	1.726396	0.609022	0.499911
C65	C	0.975984	0.265523	-0.000083
C66	C	1.475984	0.765523	0.499917
C67	C	0.977599	0.357819	-0.000095
C68	C	1.477599	0.857819	0.499905
N69	N	0.982089	0.113512	0.346600
N70	N	1.482089	0.613512	0.846600
N71	N	0.982108	0.113517	-0.346729
N72	N	1.482108	0.613517	0.153271
C73	C	1.038645	0.056998	0.423256
C74	C	1.538645	0.556998	0.923256
C75	C	1.038653	0.056999	0.576592
C76	C	1.538653	0.556999	1.076592
C77	C	0.925546	0.170032	0.576604
C78	C	1.425546	0.670032	1.076604
C79	C	0.925535	0.170028	0.423270
C80	C	1.425535	0.670028	0.923270
H81	H	0.403444	0.112136	-0.240992
H82	H	0.903444	0.612136	0.259008
H83	H	0.560739	0.114897	0.240852
H84	H	1.060739	0.614897	0.740852
Br85	Br	0.584329	0.115307	-0.313085
Br86	Br	1.084329	0.615307	0.186915
Br87	Br	0.379877	0.111708	0.312929
Br88	Br	0.879877	0.611708	0.812929
Br89	Br	0.848769	0.246723	0.319225
Br90	Br	1.348769	0.746723	0.819225
H91	H	1.120897	-0.325848	-0.000071
H92	H	1.620897	0.174152	0.499929
Br93	Br	1.158836	-0.512100	-0.000107
Br94	Br	1.658836	-0.012100	0.499893
Br95	Br	0.801757	-0.465265	-0.000087
Br96	Br	1.301757	0.034735	0.499913
H97	H	1.084704	0.010979	0.639001
H98	H	1.584704	0.510979	1.139001
Br99	Br	0.805346	-0.260851	-0.000079
Br100	Br	1.305346	0.239149	0.499921
H101	H	1.084693	0.010979	0.360834
H102	H	1.584693	0.510979	0.860834
H103	H	0.879502	0.216048	0.639044
H104	H	1.379502	0.716048	1.139044
