data_functionalizedCrystal
_audit_creation_method	'MofGen! by Chris Wilmer'
_symmetry_space_group_name_H-M	'P1'
_symmetry_Int_Tables_number	1
_symmetry_cell_setting	triclinic
loop_
_symmetry_equiv_pos_as_xyz
  x,y,z
_cell_length_a	13.897449
_cell_length_b	13.897447
_cell_length_c	17.077396
_cell_angle_alpha	90.026095
_cell_angle_beta	90.018441
_cell_angle_gamma	90.020810
loop_
_atom_site_label
_atom_site_type_symbol
_atom_site_fract_x
_atom_site_fract_y
_atom_site_fract_z
Zn1	Zn	1.474668	-0.383982	0.443834
Zn2	Zn	1.474564	-0.545295	0.312573
Zn3	Zn	1.313364	-0.384019	0.312584
Zn4	Zn	1.313334	-0.545240	0.443799
O5	O	1.393983	-0.464634	0.378197
O6	O	1.609636	-0.405388	0.426431
O7	O	1.453149	-0.523939	0.202727
O8	O	1.334818	-0.249032	0.330013
O9	O	1.609559	-0.523903	0.329995
O10	O	1.453327	-0.249005	0.426442
O11	O	1.334716	-0.405451	0.202735
O12	O	1.178378	-0.405398	0.329980
O13	O	1.334767	-0.523811	0.553651
O14	O	1.178357	-0.523847	0.426383
O15	O	1.453298	-0.405335	0.553676
O16	O	1.453120	-0.680269	0.329961
O17	O	1.334665	-0.680229	0.426373
C18	C	1.143368	-0.464621	0.378179
C19	C	1.036154	-0.464639	0.378190
C20	C	0.839859	-0.464642	0.378211
C21	C	0.949092	-0.464637	0.378197
C22	C	1.393904	-0.715248	0.378179
C23	C	1.393959	-0.822462	0.378198
C24	C	1.394005	-0.909532	0.378216
C25	C	1.394073	-1.018764	0.378236
C26	C	1.645576	-0.464648	0.378216
C27	C	1.752789	-0.464653	0.378224
C28	C	1.394041	-0.464563	0.582942
C29	C	1.394066	-0.464533	0.670192
C30	C	1.394088	-0.213041	0.378233
C31	C	1.394132	-0.105827	0.378248
C32	C	1.393980	-0.464635	0.174250
C33	C	1.394142	-0.464394	0.087000
C34	C	1.455787	-0.402837	0.711196
C35	C	1.455799	-0.402805	0.793177
C36	C	1.394093	-0.464474	0.834151
C37	C	1.332365	-0.526172	0.793141
C38	C	1.332349	-0.526199	0.711162
C39	C	1.332404	-0.526114	0.964011
C40	C	1.332420	-0.526089	1.045996
C41	C	1.455854	-0.402720	1.046026
C42	C	1.455838	-0.402747	0.964047
C43	C	1.394110	-0.464447	0.923042
H44	H	1.506039	-0.352622	0.677841
C45	C	1.264488	-0.594008	0.838207
H46	H	1.227720	-0.630750	0.802042
H47	H	1.301374	-0.636029	0.870184
H48	H	1.222478	-0.557092	0.870187
C49	C	1.264479	-0.594087	0.666057
H50	H	1.227744	-0.630824	0.702199
H51	H	1.222454	-0.557217	0.634068
H52	H	1.301379	-0.636125	0.634085
H53	H	1.282172	-0.576303	1.079355
C54	C	1.523698	-0.334945	0.838279
H55	H	1.560454	-0.298230	0.802135
H56	H	1.486828	-0.292900	0.870260
H57	H	1.565717	-0.371844	0.870258
H58	H	1.506090	-0.352536	0.930688
C59	C	1.523764	-0.334863	1.091127
H60	H	1.514934	-0.343674	1.145819
H61	H	1.588559	-0.349005	1.077694
H62	H	1.509683	-0.270048	1.077704
H63	H	1.282123	-0.576342	0.930627
