data_functionalizedCrystal
_audit_creation_method	'MofGen! by Chris Wilmer'
_symmetry_space_group_name_H-M	'P1'
_symmetry_Int_Tables_number	1
_symmetry_cell_setting	triclinic
loop_
_symmetry_equiv_pos_as_xyz
  x,y,z
_cell_length_a	25.993478
_cell_length_b	25.993440
_cell_length_c	25.993511
_cell_angle_alpha	59.996696
_cell_angle_beta	89.996695
_cell_angle_gamma	59.999914
loop_
_atom_site_label
_atom_site_type_symbol
_atom_site_fract_x
_atom_site_fract_y
_atom_site_fract_z
O1	O	0.352913	0.453802	-0.015327
O2	O	0.278102	0.348451	0.015215
O3	O	0.278101	0.453797	-0.090135
O4	O	0.352914	0.348456	0.090023
O5	O	0.363666	0.368232	-0.090134
O6	O	0.363667	0.262886	0.015215
O7	O	0.438478	0.368236	-0.015326
Zn8	Zn	0.414658	0.301975	-0.000055
Zn9	Zn	0.301922	0.414712	-0.000056
O10	O	0.438479	0.262890	0.090023
C11	C	0.439261	0.554709	-0.022289
C12	C	0.407514	0.618203	-0.017923
C13	C	0.501175	0.523900	-0.022726
C14	C	0.439264	0.461543	-0.022281
C15	C	0.407520	0.425425	-0.017907
C16	C	0.501178	0.430876	-0.022719
C17	C	0.532422	0.461548	-0.022288
C18	C	0.600282	0.425435	-0.017922
C19	C	0.408159	0.523895	-0.022719
C20	C	0.094624	0.150817	0.036967
C21	C	0.125869	0.088468	0.037401
C22	C	0.187785	0.150814	0.036971
C23	C	0.218889	0.088465	0.037405
C24	C	0.187784	0.057656	0.036967
C25	C	0.125870	0.181484	0.037405
C26	C	-0.006063	0.251747	0.029408
C27	C	-0.069686	0.286046	0.024635
C28	C	-0.101596	0.256608	0.022239
C29	C	-0.170581	0.293797	0.017061
C30	C	-0.069889	0.192866	0.024621
C31	C	-0.006268	0.158567	0.029396
C32	C	0.025642	0.188010	0.031787
C33	C	0.187541	-0.035468	0.029404
C34	C	0.216866	-0.094319	0.024631
C35	C	0.278215	-0.123835	0.022238
C36	C	0.310012	-0.187642	0.017059
C37	C	0.310250	-0.094512	0.024623
C38	C	0.280928	-0.035667	0.029399
C39	C	0.219573	-0.006145	0.031786
C40	C	0.187545	0.251742	0.029414
C41	C	0.216868	0.286044	0.024637
C42	C	0.278218	0.256604	0.022244
C43	C	0.310017	0.293789	0.017069
C44	C	0.310249	0.192867	0.024623
C45	C	0.280928	0.158565	0.029398
C46	C	0.219576	0.188005	0.031793
C47	C	0.187788	0.565876	-0.471249
C48	C	0.125874	0.628226	-0.502353
C49	C	0.187788	0.565876	-0.378089
C50	C	0.125874	0.628226	-0.409334
C51	C	0.094628	0.659036	-0.471248
C52	C	0.218892	0.535207	-0.409335
C53	C	0.281157	0.464947	-0.471008
C54	C	0.310684	0.430649	-0.500333
C55	C	0.278850	0.460088	-0.561681
C56	C	0.310860	0.422901	-0.593479
C57	C	0.217491	0.523831	-0.593715
C58	C	0.187967	0.558129	-0.564393
C59	C	0.219801	0.528684	-0.503039
C60	C	-0.006058	0.752164	-0.564616
C61	C	-0.069681	0.811015	-0.594141
C62	C	-0.101590	0.840530	-0.562308
C63	C	-0.170574	0.904338	-0.594316
C64	C	-0.069882	0.811205	-0.500949
C65	C	-0.006262	0.752359	-0.471426
C66	C	0.025647	0.722838	-0.503260
C67	C	0.281158	0.464946	-0.277402
C68	C	0.310682	0.430642	-0.213777
C69	C	0.278849	0.460082	-0.181867
C70	C	0.310859	0.422894	-0.112882
C71	C	0.217492	0.523819	-0.213571
C72	C	0.187966	0.558122	-0.277194
C73	C	0.219801	0.528683	-0.309107
O74	O	0.806670	0.262897	0.015201
O75	O	0.626513	0.368246	-0.015340
O76	O	0.731845	0.262906	0.090009
O77	O	0.701337	0.368237	-0.090148
O78	O	0.731843	0.348476	0.090002
O79	O	0.626510	0.453816	-0.015348
O80	O	0.806667	0.348467	0.015194
Zn81	Zn	0.716588	0.414728	-0.000078
Zn82	Zn	0.716592	0.301985	-0.000068
O83	O	0.701335	0.453808	-0.090156
O84	O	0.363661	0.791469	0.015199
O85	O	0.438472	0.641851	-0.015341
O86	O	0.438468	0.641837	0.090008
O87	O	0.363665	0.791484	-0.090150
O88	O	0.352900	0.641843	0.090001
O89	O	0.352904	0.641857	-0.015348
O90	O	0.278093	0.791475	0.015192
Zn91	Zn	0.301913	0.716667	-0.000079
Zn92	Zn	0.414652	0.716659	-0.000070
O93	O	0.278097	0.791490	-0.090157
O94	O	-0.373478	1.074850	-0.636361
O95	O	-0.193323	0.925223	-0.561555
O96	O	-0.298662	0.925218	-0.561544
O97	O	-0.268139	1.074855	-0.636372
O98	O	-0.298665	0.925220	-0.647110
O99	O	-0.193326	0.925225	-0.647121
O100	O	-0.373480	1.074853	-0.721928
Zn101	Zn	-0.283403	1.000039	-0.698110
Zn102	Zn	-0.283400	1.000036	-0.585373
O103	O	-0.268141	1.074858	-0.721938
O104	O	0.352918	0.348452	-0.721936
O105	O	0.278100	0.453798	-0.647126
O106	O	0.278104	0.348450	-0.647117
O107	O	0.352914	0.453800	-0.721945
O108	O	0.363667	0.262886	-0.561552
O109	O	0.363664	0.368234	-0.561561
O110	O	0.438481	0.262888	-0.636371
Zn111	Zn	0.414658	0.301976	-0.585381
Zn112	Zn	0.301924	0.414710	-0.698117
O113	O	0.438478	0.368236	-0.636380
C114	C	0.532429	0.161992	0.277272
C115	C	0.600290	0.098500	0.309017
C116	C	0.501184	0.192802	0.308377
C117	C	0.439269	0.255153	0.184114
C118	C	0.407522	0.291268	0.116252
C119	C	0.408165	0.285821	0.215360
C120	C	0.439270	0.255151	0.277274
C121	C	0.407525	0.291266	0.309021
C122	C	0.501183	0.192803	0.215358
C123	C	0.738751	0.255199	0.277246
C124	C	0.734375	0.291321	0.308986
C125	C	0.739178	0.192852	0.308352
C126	C	0.738771	0.255184	0.184093
C127	C	0.734417	0.291290	0.116234
C128	C	0.739198	0.192838	0.215341
C129	C	0.738749	0.162036	0.277253
C130	C	0.734372	0.098548	0.309001
C131	C	0.739200	0.285859	0.215334
C132	C	0.439245	0.461521	0.277252
C133	C	0.407496	0.425405	0.308995
C134	C	0.501159	0.430847	0.308359
C135	C	0.439251	0.554688	0.184095
C136	C	0.407508	0.618187	0.116234
C137	C	0.501165	0.523872	0.215343
C138	C	0.532407	0.461517	0.277258
C139	C	0.600268	0.425397	0.309006
C140	C	0.408144	0.523876	0.215338
C141	C	0.679652	0.658996	-0.471259
C142	C	0.679227	0.628177	-0.502357
C143	C	0.679635	0.565844	-0.378098
C144	C	0.679210	0.535167	-0.409338
C145	C	0.679659	0.565828	-0.471250
C146	C	0.679203	0.628194	-0.409347
C147	C	0.687206	0.752131	-0.471025
C148	C	0.691981	0.810982	-0.500352
C149	C	0.694389	0.840488	-0.561698
C150	C	0.699570	0.904296	-0.593498
C151	C	0.692016	0.811155	-0.593727
C152	C	0.687239	0.752310	-0.564402
C153	C	0.684836	0.722797	-0.503051
C154	C	0.687244	0.558492	-0.564609
C155	C	0.692026	0.524387	-0.594129
C156	C	0.694416	0.460644	-0.562292
C157	C	0.699603	0.423661	-0.594295
C158	C	0.692019	0.431002	-0.500935
C159	C	0.687234	0.465107	-0.471418
C160	C	0.684850	0.528849	-0.503255
C161	C	0.687169	0.558544	-0.277418
C162	C	0.691934	0.524450	-0.213794
C163	C	0.694324	0.460708	-0.181881
C164	C	0.699486	0.423742	-0.112899
C165	C	0.691954	0.431048	-0.213581
C166	C	0.687192	0.465137	-0.277202
C167	C	0.684799	0.528884	-0.309118
O168	O	0.701240	0.368308	0.438390
O169	O	0.731784	0.262950	0.363591
O170	O	0.626436	0.368309	0.363568
O171	O	0.806587	0.262949	0.438412
O172	O	0.626456	0.453864	0.278005
O173	O	0.731804	0.348505	0.278027
O174	O	0.701260	0.453864	0.352826
Zn175	Zn	0.716535	0.414768	0.301842
Zn176	Zn	0.716509	0.302046	0.414575
O177	O	0.806607	0.348505	0.352849
C178	C	0.094647	1.150875	-0.471271
C179	C	0.125896	1.181544	-0.502372
C180	C	0.187803	1.057704	-0.378108
C181	C	0.218910	1.088514	-0.409351
C182	C	0.187810	1.150870	-0.471265
C183	C	0.125889	1.088519	-0.409357
C184	C	-0.006043	1.158198	-0.471036
C185	C	-0.069665	1.192299	-0.500363
C186	C	-0.101571	1.256047	-0.561712
C187	C	-0.170555	1.293027	-0.593513
C188	C	-0.069860	1.285699	-0.593743
C189	C	-0.006240	1.251598	-0.564418
C190	C	0.025666	1.187850	-0.503064
C191	C	0.187575	1.251805	-0.564630
C192	C	0.216903	1.286103	-0.594153
C193	C	0.278251	1.256658	-0.562317
C194	C	0.310052	1.293845	-0.594323
C195	C	0.310282	1.192910	-0.500957
C196	C	0.280956	1.158612	-0.471437
C197	C	0.219603	1.188062	-0.503274
C198	C	0.187554	0.964569	-0.277424
C199	C	0.216873	0.905717	-0.213798
C200	C	0.278221	0.876195	-0.181886
C201	C	0.310015	0.812381	-0.112901
C202	C	0.310256	0.905521	-0.213588
C203	C	0.280940	0.964373	-0.277211
C204	C	0.219589	0.993894	-0.309126
H205	H	0.269761	0.062681	0.038105
H206	H	0.739901	0.167050	0.190256
C207	C	0.028634	0.720153	-0.403959
N208	N	0.054925	0.695912	-0.353151
H209	H	0.526270	0.167013	0.190275
H210	H	0.526269	0.167005	0.359253
C211	C	0.535044	0.363063	0.377084
N212	N	0.560566	0.312010	0.428846
H213	H	0.357289	0.549679	-0.023413
H214	H	0.357289	0.549631	0.190236
H215	H	0.307014	0.106664	0.031340
H216	H	0.678512	0.484993	-0.384245
C217	C	0.535055	0.558712	0.181458
N218	N	0.560580	0.584954	0.155939
H219	H	0.100782	0.062682	0.038105
H220	H	0.678532	0.653963	-0.553229
H221	H	0.360641	0.378752	-0.474247
H222	H	0.100788	0.654003	-0.384242
H223	H	0.678498	0.653987	-0.384268
H224	H	0.357294	0.335993	0.190273
H225	H	0.685269	0.440979	-0.303010
H226	H	0.360209	-0.118555	0.022676
H227	H	0.739872	0.167073	0.359224
H228	H	0.739891	0.336039	0.190244
H229	H	0.693862	0.548607	-0.187990
H230	H	0.685218	0.610452	-0.303402
C231	C	0.120052	-0.003003	0.032038
N232	N	0.069217	0.021452	0.034019
H233	H	-0.095872	0.835247	-0.475032
H234	H	0.685246	0.728108	-0.421071
C235	C	0.092009	1.249332	-0.571096
N236	N	0.066486	1.300389	-0.622856
C237	C	0.535070	0.558723	-0.023653
N238	N	0.560604	0.584944	-0.024341
H239	H	0.693924	0.834851	-0.474266
C240	C	0.694673	0.843615	-0.661211
N241	N	0.696676	0.868060	-0.712039
H242	H	0.685304	0.728430	-0.590482
C243	C	0.684612	0.628616	-0.599637
N244	N	0.682633	0.681432	-0.626020
H245	H	0.693974	0.548531	-0.644086
H246	H	0.685288	0.440967	-0.421460
C247	C	0.377741	0.160478	0.021994
N248	N	0.428578	0.136082	0.020019
H249	H	0.693965	0.379095	-0.475016
H250	H	0.138005	0.610018	-0.303006
C251	C	-0.104553	0.843264	-0.661633
N252	N	-0.130824	0.867558	-0.712468
C253	C	0.694584	0.360924	-0.178473
N254	N	0.696561	0.308110	-0.152028
H255	H	0.190776	-0.118189	0.022692
H256	H	0.360641	0.378749	-0.187969
C257	C	0.287634	1.053673	-0.375457
N258	N	0.339395	1.027432	-0.349931
H259	H	0.100798	1.062737	-0.384276
C260	C	0.181633	0.873457	-0.178933
N261	N	0.155091	0.849156	-0.152670
C262	C	0.316164	-0.003411	0.032022
N263	N	0.342705	0.020885	0.033996
H264	H	0.137600	0.988601	-0.303408
C265	C	0.091985	0.663062	-0.571078
N266	N	0.066460	0.689300	-0.622839
C267	C	0.182473	0.556205	-0.178467
N268	N	0.156100	0.580598	-0.152025
H269	H	0.019933	1.106287	-0.421080
H270	H	-0.095477	1.168149	-0.474281
C271	C	-0.104965	1.355832	-0.661232
N272	N	-0.131404	1.408655	-0.712064
H273	H	0.019578	1.275742	-0.590499
C274	C	0.287618	0.467431	-0.375448
N275	N	0.339381	0.416385	-0.349925
H276	H	0.137619	1.275786	-0.590559
C277	C	0.120055	0.284133	0.032044
N278	N	0.069217	0.308535	0.034018
H279	H	0.190816	1.338006	-0.644112
C280	C	0.377772	1.160522	-0.465938
N281	N	0.428605	1.136125	-0.439559
H282	H	0.307040	1.106704	-0.421481
C283	C	-0.104999	0.160487	0.021983
N284	N	-0.131441	0.136097	0.019997
H285	H	0.307025	0.988251	-0.303021
C286	C	0.181629	0.356155	0.022018
N287	N	0.155086	0.408967	0.020042
H288	H	0.360213	0.881480	-0.187599
H289	H	0.019917	0.275722	0.031359
C290	C	0.182474	0.556210	-0.661203
N291	N	0.156096	0.580600	-0.712035
C292	C	0.535067	0.363097	-0.023665
N293	N	0.560592	0.312049	-0.024379
H294	H	0.307085	0.440974	-0.303384
H295	H	0.100783	0.231653	0.038109
C296	C	-0.104559	0.356159	0.022013
N297	N	-0.130827	0.408970	0.020040
H298	H	0.019547	0.106667	0.031339
H299	H	0.307083	0.440969	-0.421052
H300	H	0.138009	0.610029	-0.590477
H301	H	0.019920	0.728133	-0.590542
