data_functionalizedCrystal
_audit_creation_method	'MofGen! by Chris Wilmer'
_symmetry_space_group_name_H-M	'P1'
_symmetry_Int_Tables_number	1
_symmetry_cell_setting	triclinic
loop_
_symmetry_equiv_pos_as_xyz
  x,y,z
_cell_length_a	21.395362
_cell_length_b	29.839131
_cell_length_c	21.395364
_cell_angle_alpha	90.005543
_cell_angle_beta	90.036401
_cell_angle_gamma	90.057297
loop_
_atom_site_label
_atom_site_type_symbol
_atom_site_fract_x
_atom_site_fract_y
_atom_site_fract_z
Zn1	Zn	0.957766	-0.178780	0.354578
Zn2	Zn	0.957663	-0.253876	0.249798
Zn3	Zn	0.852995	-0.178782	0.249779
Zn4	Zn	0.852931	-0.253904	0.354502
O5	O	0.905339	-0.216336	0.302164
O6	O	1.045430	-0.188729	0.340718
O7	O	0.943762	-0.243903	0.162117
O8	O	0.866963	-0.115914	0.263705
O9	O	1.045354	-0.243902	0.263736
O10	O	0.943938	-0.115913	0.340701
O11	O	0.866863	-0.188732	0.162104
O12	O	0.765308	-0.188759	0.263632
O13	O	0.866854	-0.243950	0.442190
O14	O	0.765261	-0.243952	0.340571
O15	O	0.943876	-0.188757	0.442246
O16	O	0.943700	-0.316747	0.263663
O17	O	0.866754	-0.316768	0.340589
C18	C	0.742551	-0.216359	0.302092
C19	C	0.672910	-0.216380	0.302075
C20	C	0.640188	-0.245157	0.342078
C21	C	0.574753	-0.245146	0.342106
C22	C	0.542041	-0.216363	0.302120
C23	C	0.574771	-0.187581	0.262115
C24	C	0.640205	-0.187589	0.262093
C25	C	0.438325	-0.212733	0.245715
C26	C	0.372892	-0.212728	0.245736
C27	C	0.340221	-0.216334	0.302189
C28	C	0.372990	-0.219954	0.358623
C29	C	0.438424	-0.219963	0.358600
C30	C	0.471089	-0.216350	0.302140
C31	C	0.236547	-0.245100	0.342225
C32	C	0.171110	-0.245086	0.342254
C33	C	0.171129	-0.187523	0.262258
C34	C	0.236565	-0.187535	0.262235
C35	C	0.269269	-0.216326	0.302217
C36	C	0.905226	-0.333058	0.302133
C37	C	0.905234	-0.382993	0.302141
C38	C	0.945477	-0.692612	0.262168
C39	C	0.945555	-0.880285	0.262192
O40	O	0.979681	-0.904530	0.228181
N41	N	0.905469	-0.903778	0.302212
C42	C	0.865363	-0.880349	0.342231
O43	O	0.831274	-0.904636	0.376276
C44	C	0.865289	-0.692676	0.342210
C45	C	0.905374	-0.669187	0.302183
C46	C	0.985559	-0.669123	0.222144
C47	C	0.985537	-0.622207	0.222136
C48	C	0.945433	-0.598781	0.262151
C49	C	0.905352	-0.622271	0.302175
C50	C	0.825188	-0.669248	0.382232
C51	C	0.825174	-0.622327	0.382224
C52	C	0.865258	-0.598838	0.342197
C53	C	0.865226	-0.551930	0.342181
N54	N	0.905312	-0.528438	0.302162
C55	C	0.945416	-0.551864	0.262147
C56	C	0.865404	-0.978879	0.342239
C57	C	0.865421	-1.025797	0.342244
C58	C	0.945614	-1.025731	0.262205
C59	C	0.945593	-0.978812	0.262198
C60	C	0.905490	-0.955387	0.302219
C61	C	0.945366	-0.453338	0.262132
C62	C	0.945338	-0.406418	0.262126
C63	C	0.865148	-0.406489	0.342167
C64	C	0.865173	-0.453404	0.342171
C65	C	0.905287	-0.476828	0.302152
O66	O	0.831122	-0.527656	0.376179
O67	O	0.979510	-0.527568	0.228117
C68	C	0.945500	-0.739528	0.262176
C69	C	0.905418	-0.763018	0.302199
C70	C	0.865314	-0.739592	0.342214
C71	C	0.905436	-0.809935	0.302204
C72	C	0.945539	-0.833361	0.262189
C73	C	0.985625	-0.809869	0.222169
C74	C	0.985603	-0.762954	0.222161
C75	C	0.825228	-0.763084	0.382234
C76	C	0.825253	-0.809999	0.382238
C77	C	0.865357	-0.833425	0.342223
C78	C	1.068762	-0.216312	0.302238
C79	C	1.138403	-0.216302	0.302269
C80	C	0.905369	-0.216356	0.465588
C81	C	0.905382	-0.216365	0.535229
C82	C	0.905469	-0.099157	0.302209
C83	C	0.905525	-0.049223	0.302229
C84	C	0.945482	-0.187631	0.567972
C85	C	0.945472	-0.187623	0.633407
C86	C	0.905370	-0.216359	0.666097
C87	C	0.865263	-0.245095	0.633346
C88	C	0.865269	-0.245098	0.567912
C89	C	0.900370	-0.256830	0.769759
C90	C	0.900368	-0.256827	0.835192
C91	C	0.905347	-0.216348	0.867918
C92	C	0.910341	-0.175870	0.835203
C93	C	0.910347	-0.175874	0.769768
C94	C	0.905358	-0.216358	0.737050
C95	C	0.945438	-0.187603	0.971614
C96	C	0.945424	-0.187595	1.037050
C97	C	0.865218	-0.245071	1.036988
C98	C	0.865229	-0.245075	0.971552
C99	C	0.905342	-0.216342	0.938869
C100	C	0.905311	-0.216328	1.139377
C101	C	0.905321	-0.216330	1.069736
H102	H	0.263177	-0.268541	0.374785
H103	H	1.018179	-0.603085	0.189545
H104	H	0.896305	-0.289787	0.861824
H105	H	1.018278	-0.828950	0.189585
O106	O	0.470227	-0.223396	0.413443
C107	C	0.454322	-0.187145	0.452579
H108	H	0.436351	-0.158157	0.422906
H109	H	0.416358	-0.198085	0.486704
C110	C	0.534584	-0.207531	0.525759
C111	C	0.512515	-0.171926	0.489314
H112	H	0.570479	-0.198144	0.548421
H113	H	0.545298	-0.231955	0.499393
H114	H	0.502941	-0.216644	0.554191
H115	H	0.544155	-0.162817	0.460877
H116	H	0.501808	-0.147499	0.515675
O117	O	1.024622	-0.691810	0.183301
C118	C	1.087043	-0.680271	0.197101
H119	H	1.088279	-0.646209	0.221209
H120	H	1.108154	-0.706655	0.229329
C121	C	1.123525	-0.719871	0.106467
C122	C	1.125043	-0.678034	0.136072
H123	H	1.146967	-0.718493	0.068822
H124	H	1.081471	-0.727647	0.097170
H125	H	1.141117	-0.741854	0.133330
H126	H	1.107445	-0.656054	0.109212
H127	H	1.167095	-0.670255	0.145362
H128	H	0.978268	-1.044812	0.229623
H129	H	0.978144	-0.164233	0.541365
H130	H	0.548106	-0.268579	0.374683
H131	H	0.346391	-0.222890	0.404592
O132	O	0.826381	-0.956197	0.381134
C133	C	0.791018	-0.986998	0.416461
H134	H	0.788888	-1.020446	0.390794
H135	H	0.813930	-0.991962	0.464078
C136	C	0.726933	-0.927673	0.456925
C137	C	0.724312	-0.968754	0.425398
H138	H	0.685786	-0.916419	0.462441
H139	H	0.750759	-0.906922	0.433127
H140	H	0.746029	-0.931815	0.496603
H141	H	0.705224	-0.964610	0.385718
H142	H	0.700481	-0.989505	0.449190
H143	H	0.548133	-0.164144	0.229560
O144	O	0.139420	-0.273084	0.381134
C145	C	0.182321	-0.298489	0.416426
H146	H	0.228936	-0.300017	0.390741
H147	H	0.189355	-0.282102	0.464054
C148	C	0.099457	-0.344434	0.456880
C149	C	0.156710	-0.346314	0.425332
H150	H	0.083659	-0.373934	0.462377
H151	H	0.070553	-0.327318	0.433106
H152	H	0.105327	-0.330776	0.496567
H153	H	0.150838	-0.359966	0.385643
H154	H	0.185613	-0.363434	0.449100
O155	O	0.470130	-0.209294	0.190906
C156	C	0.507896	-0.247540	0.182723
H157	H	0.517714	-0.263495	0.230130
H158	H	0.482608	-0.272680	0.151523
C159	C	0.557989	-0.214210	0.093666
C160	C	0.570052	-0.233804	0.151892
H161	H	0.596328	-0.205738	0.074645
H162	H	0.532544	-0.188444	0.099177
H163	H	0.536914	-0.235163	0.067673
H164	H	0.591120	-0.212849	0.177886
H165	H	0.595502	-0.259567	0.146385
O166	O	0.139264	-0.159616	0.223420
C167	C	0.074493	-0.165775	0.232021
H168	H	0.065523	-0.200463	0.252477
H169	H	0.055989	-0.139157	0.265441
C170	C	0.051871	-0.118994	0.143516
C171	C	0.040853	-0.161601	0.168635
H172	H	0.031119	-0.116418	0.104418
H173	H	0.095508	-0.114843	0.137722
H174	H	0.036450	-0.096818	0.171371
H175	H	0.056280	-0.183777	0.140784
H176	H	-0.002783	-0.165756	0.174423
O177	O	0.826107	-0.383750	0.380975
C178	C	0.763670	-0.395278	0.367229
H179	H	0.760530	-0.408185	0.317173
H180	H	0.747287	-0.422522	0.400807
C181	C	0.725698	-0.337783	0.435953
C182	C	0.721840	-0.353631	0.374471
H183	H	0.699894	-0.312094	0.440422
H184	H	0.767763	-0.330017	0.445215
H185	H	0.712046	-0.360490	0.463927
H186	H	0.735499	-0.330926	0.346499
H187	H	0.679776	-0.361392	0.365204
O188	O	0.268257	-0.159569	0.223312
C189	C	0.225356	-0.134153	0.188036
H190	H	0.178679	-0.152545	0.185835
H191	H	0.218476	-0.100061	0.211070
C192	C	0.308169	-0.105009	0.124064
C193	C	0.250841	-0.127600	0.121356
H194	H	0.323889	-0.100965	0.082933
H195	H	0.337072	-0.122131	0.147831
H196	H	0.302427	-0.076601	0.143262
H197	H	0.256584	-0.156009	0.102166
H198	H	0.221939	-0.110483	0.097584
H199	H	0.896147	-0.289784	0.743120
H200	H	0.666846	-0.164154	0.229518
O201	O	0.341160	-0.209188	0.190867
C202	C	0.384025	-0.206011	0.141035
H203	H	0.430708	-0.193021	0.159319
H204	H	0.390908	-0.240517	0.119233
C205	C	0.301156	-0.189431	0.068893
C206	C	0.358491	-0.173473	0.091350
H207	H	0.285404	-0.169361	0.038244
H208	H	0.272276	-0.191573	0.102465
H209	H	0.306899	-0.218186	0.050730
H210	H	0.352745	-0.144721	0.109520
H211	H	0.387369	-0.171325	0.057780
O212	O	0.786159	-0.599643	0.421124
C213	C	0.750801	-0.630440	0.456462
H214	H	0.748660	-0.663889	0.430798
H215	H	0.773725	-0.635403	0.504074
C216	C	0.686733	-0.571110	0.496938
C217	C	0.684100	-0.612192	0.465414
H218	H	0.645589	-0.559853	0.502463
H219	H	0.710556	-0.550360	0.473132
H220	H	0.705839	-0.575252	0.536611
H221	H	0.665002	-0.608048	0.425740
H222	H	0.660272	-0.632940	0.489214
H223	H	0.832609	-0.268490	0.659966
H224	H	0.914412	-0.142915	0.743134
H225	H	0.978233	-0.959689	0.229605
H226	H	0.832612	-0.268497	0.541253
H227	H	0.977980	-0.387294	0.229529
O228	O	0.826566	-1.048661	0.381153
C229	C	0.862223	-1.075753	0.421681
H230	H	0.909720	-1.082745	0.399643
H231	H	0.869075	-1.057655	0.468117
C232	C	0.769419	-1.111759	0.460064
C233	C	0.827754	-1.120350	0.432994
H234	H	0.748156	-1.139268	0.467045
H235	H	0.745396	-1.093506	0.432761
H236	H	0.775137	-1.096677	0.498757
H237	H	0.822034	-1.135427	0.394298
H238	H	0.851775	-1.138607	0.460291
O239	O	0.984349	-0.476018	0.223197
C240	C	1.019727	-0.445216	0.187885
H241	H	0.994045	-0.411798	0.185686
H242	H	1.067297	-0.440177	0.210886
C243	C	1.060349	-0.504566	0.123911
C244	C	1.028803	-0.463522	0.121207
H245	H	1.065950	-0.515858	0.082782
H246	H	1.036516	-0.525318	0.147703
H247	H	1.099987	-0.500361	0.143081
H248	H	0.989163	-0.467729	0.102044
H249	H	1.052629	-0.442771	0.097410
H250	H	0.832579	-0.268476	0.944893
O251	O	0.786340	-0.692107	0.421151
C252	C	0.822002	-0.719195	0.461680
H253	H	0.869495	-0.726191	0.439636
H254	H	0.828862	-0.701092	0.508110
C255	C	0.729203	-0.755195	0.500084
C256	C	0.787533	-0.763790	0.473007
H257	H	0.707940	-0.782703	0.507074
H258	H	0.705176	-0.736944	0.472781
H259	H	0.734928	-0.740109	0.538773
H260	H	0.781807	-0.778871	0.434315
H261	H	0.811558	-0.782045	0.500304
H262	H	0.666813	-0.268600	0.374636
O263	O	0.786378	-0.832794	0.421213
C264	C	0.800025	-0.821291	0.483670
H265	H	0.850072	-0.808347	0.486886
H266	H	0.766414	-0.794084	0.499998
C267	C	0.731259	-0.878864	0.521543
C268	C	0.792730	-0.862969	0.525494
H269	H	0.726757	-0.904572	0.547343
H270	H	0.722063	-0.886613	0.479465
H271	H	0.703257	-0.856187	0.535149
H272	H	0.820730	-0.885643	0.511881
H273	H	0.801931	-0.855225	0.567571
O274	O	0.826301	-0.476206	0.381138
C275	C	0.839941	-0.464706	0.443597
H276	H	0.889985	-0.451756	0.446818
H277	H	0.806324	-0.437503	0.459927
C278	C	0.771184	-0.522288	0.481459
C279	C	0.832652	-0.506387	0.485416
H280	H	0.766685	-0.547997	0.507256
H281	H	0.761993	-0.530035	0.439380
H282	H	0.743177	-0.499615	0.495066
H283	H	0.860657	-0.529057	0.471802
H284	H	0.841848	-0.498644	0.527494
H285	H	1.018244	-0.743832	0.189567
O286	O	0.984461	-0.159774	0.665291
C287	C	1.024902	-0.185351	0.703154
H288	H	1.002757	-0.219397	0.712937
H289	H	1.071329	-0.190286	0.677969
C290	C	1.063472	-0.118816	0.753307
C291	C	1.036272	-0.160631	0.765326
H292	H	1.070489	-0.103568	0.791657
H293	H	1.036229	-0.101584	0.727797
H294	H	1.102159	-0.122934	0.732318
H295	H	0.997583	-0.156512	0.786308
H296	H	1.063510	-0.177862	0.790842
O297	O	0.915057	-0.136547	0.867007
C298	C	0.861721	-0.130773	0.904819
H299	H	0.821418	-0.151405	0.885068
H300	H	0.872497	-0.142397	0.954423
C301	C	0.892848	-0.055553	0.930057
C302	C	0.843345	-0.080890	0.905795
H303	H	0.881513	-0.024783	0.930661
H304	H	0.928782	-0.059444	0.904584
H305	H	0.901823	-0.065245	0.971391
H306	H	0.834376	-0.071202	0.864459
H307	H	0.807408	-0.076997	0.931261
O308	O	0.984417	-0.159647	0.939958
C309	C	1.019815	-0.134287	0.982893
H310	H	0.994148	-0.132732	1.029517
H311	H	1.067382	-0.150730	0.989889
C312	C	1.060425	-0.088383	0.900097
C313	C	1.028897	-0.086470	0.957360
H314	H	1.066031	-0.058888	0.884347
H315	H	1.036579	-0.105470	0.871170
H316	H	1.100061	-0.102088	0.905935
H317	H	0.989259	-0.072772	0.951520
H318	H	1.052737	-0.069381	0.986286
O319	O	0.826326	-0.272974	1.068832
C320	C	0.834908	-0.266803	1.133608
H321	H	0.883274	-0.252077	1.142580
H322	H	0.797764	-0.242888	1.152153
C323	C	0.769720	-0.330345	1.156174
C324	C	0.829125	-0.312262	1.167194
H325	H	0.766150	-0.358386	1.176893
H326	H	0.763936	-0.334502	1.112533
H327	H	0.738773	-0.310412	1.171629
H328	H	0.860070	-0.332193	1.151732
H329	H	0.834915	-0.308110	1.210833
H330	H	0.792572	-0.744014	0.414820
H331	H	0.978077	-0.164193	1.063709
