data_functionalizedCrystal
_audit_creation_method	'MofGen! by Chris Wilmer'
_symmetry_space_group_name_H-M	'P1'
_symmetry_Int_Tables_number	1
_symmetry_cell_setting	triclinic
loop_
_symmetry_equiv_pos_as_xyz
  x,y,z
_cell_length_a	19.121102
_cell_length_b	19.121449
_cell_length_c	13.897441
_cell_angle_alpha	87.527759
_cell_angle_beta	87.539222
_cell_angle_gamma	85.039789
loop_
_atom_site_label
_atom_site_type_symbol
_atom_site_fract_x
_atom_site_fract_y
_atom_site_fract_z
Zn1	Zn	1.087645	-0.326058	-0.589952
Zn2	Zn	1.092569	-0.443730	-0.422047
Zn3	Zn	0.969976	-0.321061	-0.422075
Zn4	Zn	0.974961	-0.438656	-0.576711
O5	O	1.031288	-0.382376	-0.502696
O6	O	1.186762	-0.345882	-0.573209
O7	O	1.076282	-0.427490	-0.287066
O8	O	0.981438	-0.223263	-0.449897
O9	O	1.190380	-0.432335	-0.449850
O10	O	1.067888	-0.226934	-0.573236
O11	O	0.986213	-0.337366	-0.287086
O12	O	0.872173	-0.332446	-0.437058
O13	O	0.989934	-0.423688	-0.713453
O14	O	0.875835	-0.418843	-0.550669
O15	O	1.072722	-0.340962	-0.723181
O16	O	1.081115	-0.541517	-0.437011
O17	O	0.994709	-0.537790	-0.550642
C18	C	0.848474	-0.374552	-0.492430
C19	C	0.770266	-0.371222	-0.488060
C20	C	1.039007	-0.565184	-0.492409
C21	C	1.042373	-0.643393	-0.488043
C22	C	0.735451	-0.414707	-0.545057
C23	C	0.661966	-0.411569	-0.540956
C24	C	0.623297	-0.364948	-0.479852
C25	C	0.658116	-0.321458	-0.422852
C26	C	0.731600	-0.324593	-0.426959
C27	C	0.401327	-0.353224	-0.464503
C28	C	0.327839	-0.350093	-0.460398
C29	C	0.331694	-0.440204	-0.578504
C30	C	0.405179	-0.443338	-0.582601
C31	C	0.439992	-0.399845	-0.525605
C32	C	0.548183	-0.361740	-0.475656
C33	C	0.515104	-0.403050	-0.529806
C34	C	0.998937	-0.678219	-0.545102
C35	C	1.002103	-0.751705	-0.540996
C36	C	1.048710	-0.790363	-0.479837
C37	C	1.092148	-0.755532	-0.422773
C38	C	1.088978	-0.682047	-0.426873
C39	C	1.060531	-1.012334	-0.464493
C40	C	1.063700	-1.085823	-0.460399
C41	C	0.973654	-1.081991	-0.578622
C42	C	0.970491	-1.008506	-0.582721
C43	C	1.013926	-0.973681	-0.525653
C44	C	1.051949	-0.865477	-0.475642
C45	C	1.010683	-0.898568	-0.529844
C46	C	1.214816	-0.390232	-0.513003
C47	C	1.293024	-0.393579	-0.517396
C48	C	1.031335	-0.382316	-0.754296
C49	C	1.031355	-0.382291	-0.861512
C50	C	1.023558	-0.198855	-0.513046
C51	C	1.020264	-0.120650	-0.517457
C52	C	1.031372	-0.382244	-1.057811
C53	C	1.031361	-0.382272	-0.948577
C54	C	1.031279	-0.382387	-0.252081
C55	C	1.031387	-0.382220	-0.144884
H56	H	0.633624	-0.446980	-0.587369
O57	O	1.097275	-0.903080	-0.416356
C58	C	1.195773	-0.990111	-0.404127
C59	C	1.144518	-0.947548	-0.471396
H60	H	1.233972	-1.026084	-0.448598
H61	H	1.226335	-0.952652	-0.364039
H62	H	1.164917	-1.023142	-0.349927
H63	H	1.175319	-0.914513	-0.525652
H64	H	1.113955	-0.985044	-0.511414
H65	H	0.516690	-0.323783	-0.425903
H66	H	1.095899	-0.983985	-0.418028
H67	H	1.130093	-0.787013	-0.372971
H68	H	1.124347	-0.653693	-0.380409
O69	O	1.108852	-1.123423	-0.400858
C70	C	1.121845	-1.206743	-0.266396
C71	C	1.070655	-1.164233	-0.333808
H72	H	1.090981	-1.239737	-0.212157
H73	H	1.160129	-1.242732	-0.310723
H74	H	1.152323	-1.169185	-0.226359
H75	H	1.040129	-1.201738	-0.373860
H76	H	1.032416	-1.128235	-0.289429
O77	O	0.965512	-0.860990	-0.589364
C78	C	0.952429	-0.777515	-0.723636
C79	C	1.003660	-0.820052	-0.656308
H80	H	0.983250	-0.744394	-0.777764
H81	H	0.921936	-0.814992	-0.763796
H82	H	0.914160	-0.741628	-0.679138
H83	H	1.041970	-0.855941	-0.700734
H84	H	1.034101	-0.782534	-0.616145
O85	O	0.772904	-0.460013	-0.604499
C86	C	0.768965	-0.549083	-0.721174
C87	C	0.726466	-0.497797	-0.653910
H88	H	0.731438	-0.579656	-0.761126
H89	H	0.802004	-0.518325	-0.775483
H90	H	0.804924	-0.587274	-0.676649
H91	H	0.690469	-0.459594	-0.698355
H92	H	0.693473	-0.528600	-0.599598
O93	O	0.953703	-0.640747	-0.604647
C94	C	0.918542	-0.616716	-0.768030
C95	C	0.969805	-0.659209	-0.700703
H96	H	0.931551	-0.631616	-0.845708
H97	H	0.862426	-0.628815	-0.747112
H98	H	0.923726	-0.558216	-0.761113
H99	H	0.964684	-0.717721	-0.707586
H100	H	1.025901	-0.647051	-0.721640
O101	O	0.442633	-0.488644	-0.642042
C102	C	0.438701	-0.577723	-0.758706
C103	C	0.396198	-0.526432	-0.691453
H104	H	0.401177	-0.608298	-0.798658
H105	H	0.471742	-0.546968	-0.813017
H106	H	0.474657	-0.615910	-0.714174
H107	H	0.360203	-0.488233	-0.735906
H108	H	0.363203	-0.557232	-0.637140
H109	H	0.966727	-0.780056	-0.587450
H110	H	0.932540	-0.977032	-0.632522
O111	O	0.290343	-0.304838	-0.400920
C112	C	0.266285	-0.269584	-0.237598
C113	C	0.308812	-0.320866	-0.304840
H114	H	0.281191	-0.282534	-0.159901
H115	H	0.278346	-0.213468	-0.258595
H116	H	0.207791	-0.274815	-0.244519
H117	H	0.367318	-0.315698	-0.297954
H118	H	0.296692	-0.376961	-0.283824
O119	O	0.931487	-1.115930	-0.633952
C120	C	0.896487	-1.227439	-0.680073
C121	C	0.944274	-1.189093	-0.617344
H122	H	0.906819	-1.286598	-0.666683
H123	H	0.839124	-1.210680	-0.660680
H124	H	0.908176	-1.213421	-0.759359
H125	H	0.932647	-1.203093	-0.538040
H126	H	1.001623	-1.205855	-0.636819
H127	H	0.303342	-0.475613	-0.624908
O128	O	0.435216	-0.311081	-0.409082
C129	C	0.517687	-0.305030	-0.283993
C130	C	0.479366	-0.352840	-0.346716
H131	H	0.553380	-0.338772	-0.233540
H132	H	0.550599	-0.269754	-0.332296
H133	H	0.477407	-0.271160	-0.239661
H134	H	0.519598	-0.386753	-0.391057
H135	H	0.446442	-0.388069	-0.298360
H136	H	0.626625	-0.283495	-0.373104
H137	H	0.759944	-0.289179	-0.380551
H138	H	0.546591	-0.441005	-0.579561
