data_functionalizedCrystal
_audit_creation_method	'MofGen! by Chris Wilmer'
_symmetry_space_group_name_H-M	'P1'
_symmetry_Int_Tables_number	1
_symmetry_cell_setting	triclinic
loop_
_symmetry_equiv_pos_as_xyz
  x,y,z
_cell_length_a	14.971482
_cell_length_b	10.489741
_cell_length_c	14.048226
_cell_angle_alpha	89.993872
_cell_angle_beta	89.994098
_cell_angle_gamma	84.075891
loop_
_atom_site_label
_atom_site_type_symbol
_atom_site_fract_x
_atom_site_fract_y
_atom_site_fract_z
O1	O	1.187895	0.166199	-0.079148
O2	O	1.687895	0.666199	0.420852
O3	O	0.927608	0.186110	-0.079152
O4	O	1.427608	0.686110	0.420848
O5	O	1.063674	-0.009512	-0.079144
O6	O	1.563674	0.490488	0.420856
O7	O	1.051829	0.361821	-0.079156
O8	O	1.551829	0.861821	0.420844
O9	O	1.063657	-0.009523	0.079177
O10	O	1.563657	0.490477	0.579177
O11	O	0.927591	0.186098	0.079169
O12	O	1.427591	0.686098	0.579169
O13	O	1.187878	0.166188	0.079174
O14	O	1.687878	0.666188	0.579174
Zn15	Zn	1.057732	0.176141	0.104308
Zn16	Zn	1.557732	0.676141	0.604308
Zn17	Zn	1.057754	0.176156	-0.104287
Zn18	Zn	1.557754	0.676156	0.395713
O19	O	1.051812	0.361810	0.079166
O20	O	1.551812	0.861810	0.579166
C21	C	0.894270	0.185215	0.000008
C22	C	1.394270	0.685215	0.500008
C23	C	0.794957	0.182549	0.000006
C24	C	1.294957	0.682549	0.500006
C25	C	0.748296	0.181287	0.086308
C26	C	1.248296	0.681287	0.586308
C27	C	0.654983	0.178762	0.086309
C28	C	1.154983	0.678762	0.586309
C29	C	0.608332	0.177508	0.000007
C30	C	1.108332	0.677508	0.500007
C31	C	0.655000	0.178766	-0.086301
C32	C	1.155000	0.678766	0.413699
C33	C	0.748312	0.181282	-0.086301
C34	C	1.248312	0.681282	0.413699
C35	C	0.460508	0.173525	-0.086295
C36	C	0.960508	0.673525	0.413705
C37	C	0.367190	0.171011	-0.086295
C38	C	0.867190	0.671011	0.413705
C39	C	0.367180	0.171005	0.086316
C40	C	0.867180	0.671005	0.586316
C41	C	0.460492	0.173521	0.086316
C42	C	0.960492	0.673521	0.586316
C43	C	0.507153	0.174781	0.000007
C44	C	1.007153	0.674781	0.500007
C45	C	1.062771	-0.057039	0.000016
C46	C	1.562771	0.442961	0.500016
C47	C	1.060094	-0.198637	0.000014
C48	C	1.560094	0.301363	0.500014
C49	C	0.973519	-0.265774	0.000006
C50	C	1.473519	0.234226	0.500006
C51	C	1.014408	-0.358376	0.078067
C52	C	1.514408	0.141624	0.578067
C53	C	1.014445	-0.358340	-0.078025
C54	C	1.514445	0.141660	0.421975
C55	C	1.101019	-0.289375	0.078140
C56	C	1.601019	0.210625	0.578140
C57	C	1.101044	-0.289329	-0.078023
C58	C	1.601044	0.210671	0.421977
C59	C	1.141996	-0.381904	0.000058
C60	C	1.641996	0.118096	0.500058
C61	C	1.221216	0.167083	0.000011
C62	C	1.721216	0.667083	0.500011
C63	C	1.320529	0.169749	0.000007
C64	C	1.820529	0.669749	0.500007
C65	C	1.052715	0.409337	0.000003
C66	C	1.552715	0.909337	0.500003
C67	C	1.055392	0.550935	-0.000001
C68	C	1.555392	1.050935	0.499999
N69	N	1.057724	0.176130	0.246669
N70	N	1.557724	0.676130	0.746669
N71	N	1.057769	0.176158	-0.246648
N72	N	1.557769	0.676158	0.253352
C73	C	1.117993	0.089545	0.296491
C74	C	1.617993	0.589545	0.796491
C75	C	1.117999	0.089544	0.396148
C76	C	1.617999	0.589544	0.896148
C77	C	1.057739	0.176136	0.445982
C78	C	1.557739	0.676136	0.945982
C79	C	0.997463	0.262725	0.396154
C80	C	1.497463	0.762725	0.896154
C81	C	0.997454	0.262719	0.296498
C82	C	1.497454	0.762719	0.796498
C83	C	0.997489	0.262735	0.603868
C84	C	1.497489	0.762735	1.103868
C85	C	0.997500	0.262743	0.703531
C86	C	1.497500	0.762743	1.203531
C87	C	1.118035	0.089560	0.703518
C88	C	1.618035	0.589560	1.203518
C89	C	1.118025	0.089553	0.603862
C90	C	1.618025	0.589553	1.103862
C91	C	1.057750	0.176145	0.554041
C92	C	1.557750	0.676145	1.054041
H93	H	0.498497	0.174551	-0.156577
H94	H	0.998497	0.674551	0.343423
Cl95	Cl	0.921702	0.371580	0.458800
Cl96	Cl	1.421702	0.871580	0.958800
H97	H	0.329184	0.169979	0.156592
H98	H	0.829184	0.669979	0.656592
Cl99	Cl	0.308544	0.169431	-0.194791
Cl100	Cl	0.808544	0.669431	0.305209
Cl101	Cl	0.519137	0.175111	0.194811
Cl102	Cl	1.019137	0.675111	0.694811
Cl103	Cl	0.921679	0.371570	0.233866
Cl104	Cl	1.421679	0.871570	0.733866
Cl105	Cl	1.157519	-0.242444	0.180145
Cl106	Cl	1.657519	0.257556	0.680145
H107	H	0.786272	0.182319	0.156585
H108	H	1.286272	0.682319	0.656585
Cl109	Cl	1.193767	-0.019310	0.458783
Cl110	Cl	1.693767	0.480690	0.958783
Cl111	Cl	0.596326	0.177199	0.194808
Cl112	Cl	1.096326	0.677199	0.694808
Cl113	Cl	0.596357	0.177142	-0.194796
Cl114	Cl	1.096357	0.677142	0.305204
H115	H	0.786302	0.182312	-0.156577
H116	H	1.286302	0.682312	0.343423
H117	H	0.902338	-0.215297	0.000083
H118	H	1.402338	0.284703	0.500083
H119	H	0.977770	-0.388968	0.144061
H120	H	1.477770	0.111032	0.644061
H121	H	1.213241	-0.432154	0.000102
H122	H	1.713241	0.067846	0.500102
H123	H	1.137652	-0.258703	-0.144020
H124	H	1.637652	0.241297	0.355980
H125	H	0.948429	0.333254	0.744101
H126	H	1.448429	0.833254	1.244101
Cl127	Cl	0.957876	-0.405515	-0.179911
Cl128	Cl	1.457876	0.094485	0.320089
H129	H	1.167112	0.019054	0.744089
H130	H	1.667112	0.519054	1.244089
Cl131	Cl	1.193786	-0.019297	0.541212
Cl132	Cl	1.693786	0.480703	1.041212
H133	H	1.167067	0.019037	0.255922
H134	H	1.667067	0.519037	0.755922
H135	H	0.948404	0.333243	0.563307
H136	H	1.448404	0.833243	1.063307
