data_functionalizedCrystal
_audit_creation_method	'MofGen! by Chris Wilmer'
_symmetry_space_group_name_H-M	'P1'
_symmetry_Int_Tables_number	1
_symmetry_cell_setting	triclinic
loop_
_symmetry_equiv_pos_as_xyz
  x,y,z
_cell_length_a	16.109318
_cell_length_b	17.699104
_cell_length_c	14.586319
_cell_angle_alpha	89.995275
_cell_angle_beta	90.000075
_cell_angle_gamma	83.380040
loop_
_atom_site_label
_atom_site_type_symbol
_atom_site_fract_x
_atom_site_fract_y
_atom_site_fract_z
O1	O	1.102962	0.097346	-0.076166
O2	O	1.602962	0.597346	0.423834
O3	O	0.860882	0.109439	-0.076185
O4	O	1.360882	0.609439	0.423815
O5	O	0.988753	-0.006785	-0.076167
O6	O	1.488753	0.493215	0.423833
O7	O	0.975092	0.213571	-0.076184
O8	O	1.475092	0.713571	0.423816
O9	O	0.988744	-0.006787	0.076314
O10	O	1.488744	0.493213	0.576314
O11	O	0.860873	0.109437	0.076296
O12	O	1.360873	0.609437	0.576296
O13	O	1.102953	0.097344	0.076315
O14	O	1.602953	0.597344	0.576315
Cu15	Cu	0.981913	0.103391	0.090228
Cu16	Cu	1.481913	0.603391	0.590228
Cu17	Cu	0.981923	0.103393	-0.090098
Cu18	Cu	1.481923	0.603393	0.409902
O19	O	0.975083	0.213569	0.076297
O20	O	1.475083	0.713569	0.576297
C21	C	0.829904	0.108946	0.000053
C22	C	1.329904	0.608946	0.500053
C23	C	0.737612	0.107471	0.000046
C24	C	1.237612	0.607471	0.500046
C25	C	0.438551	0.102706	-0.083054
C26	C	0.938551	0.602706	0.416946
C27	C	0.525270	0.104087	-0.083060
C28	C	1.025270	0.604087	0.416940
C29	C	0.525279	0.104075	0.083183
C30	C	1.025279	0.604075	0.583183
C31	C	0.438562	0.102688	0.083188
C32	C	0.938562	0.602688	0.583188
C33	C	0.395200	0.102008	0.000066
C34	C	0.895200	0.602008	0.500066
C35	C	0.568636	0.104776	0.000056
C36	C	1.068636	0.604776	0.500056
C37	C	0.662660	0.106274	0.000050
C38	C	1.162660	0.606274	0.500050
C39	C	0.301170	0.100508	0.000071
C40	C	0.801170	0.600508	0.500071
C41	C	0.988256	-0.034984	0.000074
C42	C	1.488256	0.465016	0.500074
C43	C	0.986778	-0.119003	0.000074
C44	C	1.486778	0.380997	0.500074
C45	C	1.053504	-0.643775	0.000053
C46	C	1.553504	-0.143775	0.500053
C47	C	1.054887	-0.564829	0.000062
C48	C	1.554887	-0.064829	0.500062
C49	C	0.979823	-0.516323	0.000058
C50	C	1.479823	-0.016323	0.500058
C51	C	0.903370	-0.546766	0.000055
C52	C	1.403370	-0.046766	0.500055
C53	C	0.901987	-0.625711	0.000053
C54	C	1.401987	-0.125711	0.500053
C55	C	0.908942	-0.228392	0.000063
C56	C	1.408942	0.271608	0.500063
C57	C	0.910331	-0.149443	0.000062
C58	C	1.410331	0.350557	0.500062
C59	C	1.061842	-0.167511	0.000071
C60	C	1.561842	0.332489	0.500071
C61	C	1.060460	-0.246455	0.000070
C62	C	1.560460	0.253545	0.500070
C63	C	0.984008	-0.276891	0.000072
C64	C	1.484008	0.223109	0.500072
C65	C	0.982509	-0.362493	0.000065
C66	C	1.482509	0.137507	0.500065
C67	C	0.981320	-0.430722	0.000058
C68	C	1.481320	0.069278	0.500058
C69	C	1.133932	0.097837	0.000075
C70	C	1.633932	0.597837	0.500075
C71	C	1.226224	0.099313	0.000076
C72	C	1.726224	0.599313	0.500076
C73	C	0.975580	0.241767	0.000054
C74	C	1.475580	0.741767	0.500054
C75	C	0.977057	0.325787	0.000048
C76	C	1.477057	0.825787	0.500048
N77	N	0.981911	0.103389	0.217060
N78	N	1.481911	0.603389	0.717060
N79	N	0.981931	0.103389	-0.216930
N80	N	1.481931	0.603389	0.283070
C81	C	1.038551	0.051942	0.452074
C82	C	1.538551	0.551942	0.952074
C83	C	1.038553	0.051940	0.548056
C84	C	1.538553	0.551940	1.048056
C85	C	0.925285	0.154838	0.548049
C86	C	1.425285	0.654838	1.048049
C87	C	0.925280	0.154836	0.452069
C88	C	1.425280	0.654836	0.952069
C89	C	0.981917	0.103388	0.404085
C90	C	1.481917	0.603388	0.904085
C91	C	0.981925	0.103389	0.596045
C92	C	1.481925	0.603389	1.096045
C93	C	0.981927	0.103387	0.700113
C94	C	1.481927	0.603387	1.200113
C95	C	0.981914	0.103389	0.300011
C96	C	1.481914	0.603389	0.800011
H97	H	1.117138	-0.540051	0.000067
H98	H	1.617138	-0.040051	0.500067
H99	H	0.403265	0.102119	0.150879
H100	H	0.903265	0.602119	0.650879
H101	H	0.403248	0.102151	-0.150737
H102	H	0.903248	0.602151	0.349263
O103	O	1.144303	-0.134678	0.000072
O104	O	1.644303	0.365322	0.500072
H105	H	1.196266	-0.181671	0.000060
H106	H	1.696266	0.318329	0.500060
H107	H	0.879157	0.196730	0.412994
H108	H	1.379157	0.696730	0.912994
O109	O	0.826484	-0.261210	0.000063
O110	O	1.326484	0.238790	0.500063
H111	H	0.822230	-0.296747	-0.062080
H112	H	1.322230	0.203253	0.437920
O113	O	0.572030	0.104845	-0.172711
O114	O	1.072030	0.604845	0.327289
H115	H	0.527305	0.104145	-0.230505
H116	H	1.027305	0.604145	0.269495
H117	H	0.560595	0.104631	0.150857
H118	H	1.060595	0.604631	0.650857
O119	O	0.829364	-0.097122	0.000064
O120	O	1.329364	0.402878	0.500064
H121	H	0.826381	-0.060723	0.062209
H122	H	1.326381	0.439277	0.562209
O123	O	0.864214	0.210338	0.599807
O124	O	1.364214	0.710338	1.099807
H125	H	0.799420	0.200676	0.581402
H126	H	1.299420	0.700676	1.081402
H127	H	1.114631	-0.683264	0.000049
H128	H	1.614631	-0.183264	0.500049
O129	O	1.141421	-0.298774	0.000084
O130	O	1.641421	0.201226	0.500084
H131	H	1.194814	-0.264345	0.000100
H132	H	1.694814	0.235655	0.500100
O133	O	0.822403	-0.494454	0.000053
O134	O	1.322403	0.005546	0.500053
H135	H	0.836206	-0.434445	0.000046
H136	H	1.336206	0.065555	0.500046
H137	H	0.839737	-0.650492	0.000056
H138	H	1.339737	-0.150492	0.500056
O139	O	1.099646	-0.003548	0.599808
O140	O	1.599646	0.496452	1.099808
H141	H	1.064731	-0.040354	0.643536
H142	H	1.564731	0.459646	1.143536
H143	H	1.084667	0.010049	0.413007
H144	H	1.584667	0.510049	0.913007
