data_functionalizedCrystal
_audit_creation_method	'MofGen! by Chris Wilmer'
_symmetry_space_group_name_H-M	'P1'
_symmetry_Int_Tables_number	1
_symmetry_cell_setting	triclinic
loop_
_symmetry_equiv_pos_as_xyz
  x,y,z
_cell_length_a	21.395362
_cell_length_b	21.395362
_cell_length_c	21.395355
_cell_angle_alpha	89.956060
_cell_angle_beta	90.020549
_cell_angle_gamma	89.954332
loop_
_atom_site_label
_atom_site_type_symbol
_atom_site_fract_x
_atom_site_fract_y
_atom_site_fract_z
Zn1	Zn	0.249246	0.957863	-0.354577
Zn2	Zn	0.354005	0.957768	-0.249796
Zn3	Zn	0.249275	0.853078	-0.249778
Zn4	Zn	0.354018	0.853049	-0.354500
O5	O	0.301636	0.905440	-0.302163
O6	O	0.263125	1.045529	-0.340717
O7	O	0.340119	0.943852	-0.162115
O8	O	0.161593	0.867031	-0.263704
O9	O	0.340091	1.045458	-0.263734
O10	O	0.161572	0.944016	-0.340700
O11	O	0.263174	0.866938	-0.162102
O12	O	0.263187	0.765397	-0.263630
O13	O	0.340113	0.866981	-0.442188
O14	O	0.340141	0.765375	-0.340569
O15	O	0.263137	0.943988	-0.442245
O16	O	0.441685	0.943824	-0.263660
O17	O	0.441695	0.866888	-0.340586
C18	C	0.301669	0.742652	-0.302090
C19	C	0.301698	0.673011	-0.302074
C20	C	0.464424	0.905360	-0.302130
C21	C	0.534065	0.905383	-0.302138
C22	C	0.341822	0.640303	-0.342076
C23	C	0.341806	0.574867	-0.342104
C24	C	0.301674	0.542142	-0.302118
C25	C	0.261543	0.574858	-0.262113
C26	C	0.261555	0.640292	-0.262091
C27	C	0.296627	0.438418	-0.245713
C28	C	0.296619	0.372985	-0.245735
C29	C	0.301633	0.340322	-0.302188
C30	C	0.306668	0.373100	-0.358621
C31	C	0.306681	0.438534	-0.358599
C32	C	0.301656	0.471190	-0.302138
C33	C	0.341742	0.236661	-0.342223
C34	C	0.341723	0.171225	-0.342252
C35	C	0.261462	0.171217	-0.262256
C36	C	0.261479	0.236652	-0.262233
C37	C	0.301622	0.269371	-0.302216
C38	C	0.138213	0.905537	-0.302209
C39	C	0.068571	0.905579	-0.302228
C40	C	0.566710	0.945446	-0.342258
C41	C	0.632145	0.945468	-0.342273
C42	C	0.664933	0.905433	-0.302157
C43	C	0.632280	0.865362	-0.262034
C44	C	0.566846	0.865337	-0.262025
C45	C	0.768635	0.900556	-0.245717
C46	C	0.834068	0.900586	-0.245725
C47	C	0.866754	0.905508	-0.302187
C48	C	0.833999	0.910413	-0.358643
C49	C	0.768565	0.910388	-0.358633
C50	C	0.735886	0.905456	-0.302163
C51	C	0.970351	0.945597	-0.342327
C52	C	1.035788	0.945614	-0.342344
C53	C	1.035922	0.865512	-0.262100
C54	C	0.970486	0.865491	-0.262089
C55	C	0.937705	0.905537	-0.302202
C56	C	0.301623	0.905492	-0.465586
C57	C	0.301618	0.905514	-0.535227
C58	C	0.301603	1.068863	-0.302236
C59	C	0.301589	1.138504	-0.302267
C60	C	0.261535	0.945609	-0.567971
C61	C	0.261508	0.945609	-0.633406
C62	C	0.301575	0.905519	-0.666096
C63	C	0.341661	0.865415	-0.633344
C64	C	0.341682	0.865413	-0.567910
C65	C	0.357992	0.900544	-0.769758
C66	C	0.357972	0.900551	-0.835191
C67	C	0.301509	0.905523	-0.867917
C68	C	0.245065	0.910501	-0.835202
C69	C	0.245086	0.910499	-0.769767
C70	C	0.301556	0.905517	-0.737048
C71	C	0.261393	0.945619	-0.971613
C72	C	0.261365	0.945614	-1.037049
C73	C	0.341524	0.865424	-1.036986
C74	C	0.341547	0.865426	-0.971551
C75	C	0.301482	0.905527	-0.938868
C76	C	0.301603	0.905424	-0.139375
C77	C	0.301432	0.905523	-0.069734
H78	H	0.374509	0.666938	-0.374634
H79	H	1.062617	0.832911	-0.229440
H80	H	0.310778	0.465219	-0.404549
F81	F	0.218747	0.136393	-0.219704
H82	H	0.292523	0.346302	-0.199783
F83	F	0.291291	0.473174	-0.185624
F84	F	0.218708	0.988299	-1.071897
H85	H	0.742027	0.896546	-0.199735
H86	H	0.540021	0.978052	-0.374922
H87	H	0.658980	0.832764	-0.229373
F88	F	0.384513	0.540050	-0.384681
H89	H	0.943905	0.832871	-0.229417
H90	H	0.228910	0.978262	-0.541364
H91	H	0.228880	0.666923	-0.229516
F92	F	0.532102	0.822694	-0.219322
F93	F	0.218834	0.988275	-0.668261
H94	H	1.062367	0.978239	-0.375017
H95	H	0.199128	0.914551	-0.743133
F96	F	0.312003	0.338343	-0.418708
H97	H	0.228866	0.548209	-0.229558
F98	F	0.384163	0.822753	-1.071772
F99	F	0.384211	0.822753	-0.936701
F100	F	0.868780	0.915654	-0.418738
F101	F	0.384426	0.136415	-0.384834
H102	H	0.943660	0.978203	-0.374992
H103	H	0.403932	0.896501	-0.861822
F104	F	0.418093	0.895266	-0.734934
H105	H	0.658730	0.978087	-0.374951
H106	H	0.741897	0.914380	-0.404600
F107	F	0.384302	0.822747	-0.668136
F108	F	0.218775	0.271464	-0.219655
F109	F	0.184969	0.915795	-0.870025
F110	F	0.218751	0.988295	-0.936827
F111	F	0.384346	0.822736	-0.533061
H112	H	0.374426	0.263302	-0.374783
F113	F	0.868922	0.895370	-0.185641
