data_functionalizedCrystal
_audit_creation_method	'MofGen! by Chris Wilmer'
_symmetry_space_group_name_H-M	'P1'
_symmetry_Int_Tables_number	1
_symmetry_cell_setting	triclinic
loop_
_symmetry_equiv_pos_as_xyz
  x,y,z
_cell_length_a	12.594517
_cell_length_b	21.295417
_cell_length_c	12.594509
_cell_angle_alpha	89.963755
_cell_angle_beta	89.978673
_cell_angle_gamma	90.030306
loop_
_atom_site_label
_atom_site_type_symbol
_atom_site_fract_x
_atom_site_fract_y
_atom_site_fract_z
Zn1	Zn	1.627160	-0.250594	-0.601801
Zn2	Zn	1.627006	-0.355872	-0.423797
Zn3	Zn	1.449164	-0.250621	-0.423830
Zn4	Zn	1.449101	-0.355829	-0.601727
O5	O	1.538108	-0.303229	-0.512789
O6	O	1.776085	-0.264566	-0.578205
O7	O	1.603377	-0.341940	-0.274856
O8	O	1.472866	-0.162528	-0.447482
O9	O	1.775972	-0.341914	-0.447427
O10	O	1.603639	-0.162508	-0.578237
O11	O	1.472717	-0.264612	-0.274879
O12	O	1.300210	-0.264570	-0.447411
O13	O	1.472759	-0.341839	-0.750683
O14	O	1.300164	-0.341865	-0.578112
O15	O	1.603578	-0.264524	-0.750737
O16	O	1.603316	-0.443956	-0.447356
O17	O	1.472610	-0.443924	-0.578080
C18	C	1.261567	-0.303216	-0.512757
C19	C	1.143261	-0.303226	-0.512769
C20	C	1.537968	-0.466780	-0.512730
C21	C	1.538006	-0.536748	-0.512740
C22	C	1.074002	-0.261127	-0.441817
C23	C	1.003167	-0.318547	-0.415623
C24	C	1.003298	-0.245834	-0.538981
C25	C	1.073984	-0.360676	-0.486525
C26	C	1.074121	-0.287924	-0.609928
C27	C	1.003318	-0.345384	-0.583771
C28	C	1.606125	-0.569611	-0.444742
C29	C	1.606175	-0.635353	-0.444766
C30	C	1.538087	-0.668231	-0.512777
C31	C	1.469963	-0.635361	-0.580789
C32	C	1.469923	-0.569619	-0.580770
N33	N	1.444976	-0.771496	-0.520881
N34	N	1.445018	-0.833948	-0.520892
C35	C	1.538206	-0.866306	-0.512838
N36	N	1.631353	-0.833853	-0.504752
N37	N	1.631311	-0.771396	-0.504735
C38	C	1.538123	-0.739516	-0.512805
C39	C	1.606385	-0.970454	-0.444862
C40	C	1.606436	-1.036197	-0.444893
C41	C	1.470215	-1.036203	-0.580910
C42	C	1.470173	-0.970461	-0.580885
C43	C	1.538256	-0.937590	-0.512855
C44	C	1.815729	-0.303242	-0.512821
C45	C	1.934034	-0.303247	-0.512835
C46	C	1.538179	-0.303174	-0.790410
C47	C	1.538209	-0.303150	-0.908715
C48	C	1.538277	-0.139038	-0.512871
C49	C	1.538349	-0.069070	-0.512906
C50	C	1.467079	-0.345178	-0.977939
C51	C	1.564193	-0.360559	-1.048726
C52	C	1.441171	-0.287731	-1.048728
C53	C	1.635374	-0.318561	-0.977944
C54	C	1.512287	-0.245707	-0.977939
C55	C	1.609468	-0.261066	-1.048694
C56	C	1.538098	-0.303238	-0.236248
C57	C	1.538274	-0.303084	-0.117943
H58	H	1.105039	-0.225561	-0.381741
H59	H	0.972003	-0.331503	-0.333486
H60	H	1.104905	-0.409235	-0.464291
H61	H	1.490297	-0.197170	-0.946822
C62	C	1.593272	-0.425338	-1.090137
C63	C	1.518506	-0.469186	-1.054317
C64	C	1.545243	-0.528866	-1.092451
H65	H	1.661706	-0.436643	-1.064884
H66	H	1.593673	-0.424775	-1.165565
H67	H	1.518116	-0.469751	-0.978905
H68	H	1.450066	-0.457902	-1.079567
H69	H	1.545644	-0.528303	-1.167879
H70	H	1.613678	-0.540165	-1.067195
H71	H	1.494514	-0.558623	-1.068160
C72	C	1.689894	-0.213630	-1.089654
C73	C	1.740296	-0.184629	-1.003586
C74	C	1.814405	-0.140938	-1.041276
H75	H	1.654607	-0.182784	-1.131160
H76	H	1.741279	-0.234515	-1.132088
H77	H	1.688919	-0.163744	-0.961169
H78	H	1.775604	-0.215458	-0.962072
H79	H	1.865790	-0.161823	-1.083710
H80	H	1.779109	-0.110097	-1.082782
H81	H	1.848619	-0.121260	-0.982885
H82	H	1.661826	-0.943689	-0.389471
C83	C	1.331621	-0.270461	-1.090042
C84	C	1.257449	-0.314645	-1.054168
C85	C	1.156518	-0.298758	-1.092191
H86	H	1.332447	-0.270197	-1.165458
H87	H	1.312635	-0.229975	-1.064734
H88	H	1.276430	-0.355121	-1.079482
H89	H	1.256590	-0.314916	-0.978757
H90	H	1.137532	-0.258272	-1.066883
H91	H	1.157355	-0.298494	-1.167606
H92	H	1.106179	-0.328731	-1.067849
C93	C	0.962392	-0.392973	-0.663828
C94	C	1.048479	-0.422808	-0.712799
C95	C	1.010817	-0.466658	-0.786536
H96	H	0.920937	-0.372116	-0.716033
H97	H	0.919913	-0.423346	-0.628414
H98	H	1.090939	-0.392439	-0.748212
H99	H	1.089941	-0.443677	-0.660621
H100	H	0.968338	-0.497031	-0.751122
H101	H	0.969362	-0.445796	-0.838734
H102	H	1.069220	-0.486910	-0.819765
H103	H	1.717489	-0.331630	-0.946982
H104	H	1.661914	-1.062953	-0.389523
C105	C	1.396334	-1.072004	-0.654642
C106	C	1.410933	-1.136612	-0.640092
C107	C	1.342885	-1.169614	-0.707992
H108	H	1.411800	-1.061262	-0.726210
H109	H	1.324797	-1.061314	-0.638988
H110	H	1.482454	-1.147298	-0.655754
H111	H	1.395459	-1.147373	-0.568538
H112	H	1.271348	-1.158924	-0.692337
H113	H	1.358357	-1.158867	-0.779555
H114	H	1.352774	-1.213454	-0.698121
H115	H	1.105311	-0.274950	-0.692040
H116	H	0.972192	-0.197296	-0.561087
C117	C	1.679945	-0.671115	-0.370842
C118	C	1.619707	-0.708921	-0.302604
C119	C	1.687619	-0.741874	-0.234489
H120	H	1.720498	-0.642188	-0.330224
H121	H	1.726312	-0.696761	-0.411549
H122	H	1.573358	-0.683277	-0.261902
H123	H	1.579156	-0.737860	-0.343193
H124	H	1.733986	-0.767520	-0.275196
H125	H	1.728169	-0.712943	-0.193879
H126	H	1.646758	-0.767533	-0.188189
C127	C	1.680171	-0.534037	-0.370855
C128	C	1.739860	-0.576893	-0.311331
C129	C	1.808096	-0.544144	-0.243270
H130	H	1.639590	-0.508430	-0.324339
H131	H	1.726568	-0.508364	-0.411587
H132	H	1.693470	-0.602556	-0.270602
H133	H	1.780463	-0.602502	-0.357819
H134	H	1.854492	-0.518471	-0.284002
H135	H	1.767506	-0.518538	-0.196761
H136	H	1.848610	-0.573217	-0.202882
H137	H	1.414527	-0.662134	-0.636166
H138	H	1.414451	-0.542862	-0.636144
C139	C	1.396084	-0.934891	-0.654742
C140	C	1.336444	-0.977752	-0.714290
C141	C	1.268171	-0.945008	-0.782333
H142	H	1.436636	-0.909198	-0.701244
H143	H	1.349659	-0.909304	-0.613995
H144	H	1.382863	-1.003328	-0.755034
H145	H	1.295870	-1.003446	-0.667816
H146	H	1.221746	-0.919421	-0.741586
H147	H	1.308732	-0.919316	-0.828827
H148	H	1.227690	-0.974084	-0.822737
C149	C	1.386951	-0.392584	-0.936296
C150	C	1.387267	-0.391604	-0.825141
C151	C	1.313463	-0.435260	-0.786742
H152	H	1.405475	-0.433388	-0.960422
H153	H	1.318138	-0.382051	-0.961513
H154	H	1.456065	-0.402141	-0.799935
H155	H	1.368732	-0.350811	-0.800987
H156	H	1.244650	-0.424727	-0.811959
H157	H	1.331994	-0.476061	-0.810875
H158	H	1.313661	-0.434597	-0.711320
