data_functionalizedCrystal
_audit_creation_method	'MofGen! by Chris Wilmer'
_symmetry_space_group_name_H-M	'P1'
_symmetry_Int_Tables_number	1
_symmetry_cell_setting	triclinic
loop_
_symmetry_equiv_pos_as_xyz
  x,y,z
_cell_length_a	12.759401
_cell_length_b	17.640280
_cell_length_c	12.759393
_cell_angle_alpha	78.768965
_cell_angle_beta	89.979062
_cell_angle_gamma	78.802151
loop_
_atom_site_label
_atom_site_type_symbol
_atom_site_fract_x
_atom_site_fract_y
_atom_site_fract_z
Zn1	Zn	1.690818	-0.314597	-0.509562
Zn2	Zn	1.726238	-0.446790	-0.298393
Zn3	Zn	1.515128	-0.314639	-0.333886
Zn4	Zn	1.550623	-0.446735	-0.474045
O5	O	1.620702	-0.380691	-0.403971
O6	O	1.842539	-0.332138	-0.481560
O7	O	1.698203	-0.429301	-0.156069
O8	O	1.508756	-0.204028	-0.386908
O9	O	1.868562	-0.429260	-0.326415
O10	O	1.637835	-0.203997	-0.515976
O11	O	1.543101	-0.332210	-0.182146
O12	O	1.372814	-0.332157	-0.352468
O13	O	1.569251	-0.429166	-0.625788
O14	O	1.398892	-0.429207	-0.455443
O15	O	1.672252	-0.332085	-0.651883
O16	O	1.732620	-0.557389	-0.291976
O17	O	1.603596	-0.557349	-0.421027
C18	C	1.347732	-0.380681	-0.403953
C19	C	1.230959	-0.380696	-0.403965
C20	C	1.189724	-0.431307	-0.457458
C21	C	1.080001	-0.431310	-0.457478
C22	C	1.052757	-0.330089	-0.350505
C23	C	1.162477	-0.330082	-0.350491
C24	C	1.675832	-0.586048	-0.348819
C25	C	1.699513	-0.673900	-0.325259
C26	C	1.441231	-0.962869	-0.583333
C27	C	1.463485	-1.045420	-0.561162
C28	C	1.597921	-1.045396	-0.426917
C29	C	1.575682	-0.962844	-0.449081
C30	C	1.497335	-0.921586	-0.527289
C31	C	1.631786	-0.921561	-0.393036
C32	C	1.609545	-0.839016	-0.415195
C33	C	1.531199	-0.797753	-0.493397
C34	C	1.475094	-0.839041	-0.549447
C35	C	1.710127	-0.962820	-0.314823
C36	C	1.766231	-0.921538	-0.258779
C37	C	1.743996	-0.838991	-0.280942
C38	C	1.665650	-0.797728	-0.359145
C39	C	1.800101	-0.797703	-0.224892
C40	C	1.777860	-0.715158	-0.247051
C41	C	1.643409	-0.715183	-0.381303
C42	C	1.894738	-0.380701	-0.403990
C43	C	2.011516	-0.380705	-0.403998
C44	C	1.620760	-0.380615	-0.678025
C45	C	1.620785	-0.380582	-0.794811
C46	C	1.565385	-0.174531	-0.459363
C47	C	1.541813	-0.086679	-0.482967
C48	C	1.674420	-0.330024	-0.863264
C49	C	1.674429	-0.329990	-0.972997
C50	C	1.567166	-0.431079	-0.945813
C51	C	1.567151	-0.431109	-0.836083
C52	C	1.620689	-0.380709	-0.130999
C53	C	1.620808	-0.380519	-0.014274
H54	H	0.996987	-0.288882	-0.306966
H55	H	1.523502	-0.472218	-0.979430
O56	O	1.409154	-1.085610	-0.615637
C57	C	1.420033	-1.178723	-0.732515
C58	C	1.481696	-1.133269	-0.670862
H59	H	1.478653	-1.217253	-0.777197
H60	H	1.375584	-1.217475	-0.673881
H61	H	1.360188	-1.135040	-0.792171
H62	H	1.541593	-1.176894	-0.611205
H63	H	1.526072	-1.094505	-0.729558
O64	O	1.726452	-0.280768	-1.039403
C65	C	1.741348	-0.146310	-1.109143
C66	C	1.682358	-0.201970	-1.033880
H67	H	1.705707	-0.082590	-1.104720
H68	H	1.829787	-0.160139	-1.083847
H69	H	1.732176	-0.155002	-1.194646
H70	H	1.691446	-0.193309	-0.948354
H71	H	1.593944	-0.188128	-1.059266
H72	H	1.046433	-0.472521	-0.501038
O73	O	1.726350	-0.280898	-0.823070
C74	C	1.711814	-0.174180	-0.727926
C75	C	1.652880	-0.229783	-0.773364
H76	H	1.652436	-0.132829	-0.687747
H77	H	1.776455	-0.210435	-0.666751
H78	H	1.750178	-0.138075	-0.795718
H79	H	1.614451	-0.265901	-0.705644
H80	H	1.588296	-0.193483	-0.834566
H81	H	1.523467	-0.472279	-0.780346
H82	H	1.196049	-0.288864	-0.306933
H83	H	1.245479	-0.472518	-0.501003
H84	H	1.579618	-0.681589	-0.444996
O85	O	1.509586	-0.717568	-0.514734
C86	C	1.450679	-0.599166	-0.445795
C87	C	1.475142	-0.689973	-0.421479
H88	H	1.422805	-0.576828	-0.370420
H89	H	1.525964	-0.576652	-0.473646
H90	H	1.385082	-0.576791	-0.511355
H91	H	1.540705	-0.712416	-0.355900
H92	H	1.399805	-0.712433	-0.393688
H93	H	1.377441	-0.929275	-0.647026
O94	O	1.398935	-0.799079	-0.625435
C95	C	1.268002	-0.807804	-0.756340
C96	C	1.354195	-0.853159	-0.670294
H97	H	1.231820	-0.851507	-0.792649
H98	H	1.202622	-0.769227	-0.718475
H99	H	1.305814	-0.769089	-0.821654
H100	H	1.316479	-0.891916	-0.604954
H101	H	1.419564	-0.891685	-0.708238
O102	O	1.731837	-1.043005	-0.293468
C103	C	1.790640	-1.161400	-0.362451
C104	C	1.766113	-1.070593	-0.386773
H105	H	1.818336	-1.183732	-0.437877
H106	H	1.856315	-1.183837	-0.296974
H107	H	1.715345	-1.183858	-0.334502
H108	H	1.841346	-1.048068	-0.414765
H109	H	1.700397	-1.048209	-0.452213
O110	O	1.842320	-0.961741	-0.182864
C111	C	1.936094	-1.088895	-0.089150
C112	C	1.849921	-1.043467	-0.175175
H113	H	1.942252	-1.154978	-0.082889
H114	H	2.016460	-1.072675	-0.112019
H115	H	1.913313	-1.072654	-0.008794
H116	H	1.872601	-1.059683	-0.255561
H117	H	1.769579	-1.059691	-0.152215
O118	O	1.876189	-0.837907	-0.148978
C119	C	1.969958	-0.965064	-0.055265
C120	C	1.883786	-0.919633	-0.141290
H121	H	1.976112	-1.031147	-0.049006
H122	H	2.050325	-0.948846	-0.078134
H123	H	1.947178	-0.948823	0.025091
H124	H	1.906465	-0.935849	-0.221677
H125	H	1.803442	-0.935854	-0.118330
O126	O	1.832486	-0.675173	-0.192544
C127	C	1.968134	-0.683852	-0.056992
C128	C	1.906373	-0.729233	-0.118667
H129	H	2.027870	-0.727540	0.002767
H130	H	2.012690	-0.645172	-0.115606
H131	H	1.909499	-0.645240	-0.012426
H132	H	1.964935	-0.767888	-0.163236
H133	H	1.861801	-0.767864	-0.060001
H134	H	1.661708	-1.078999	-0.363237
