data_functionalizedCrystal
_audit_creation_method	'MofGen! by Chris Wilmer'
_symmetry_space_group_name_H-M	'P1'
_symmetry_Int_Tables_number	1
_symmetry_cell_setting	triclinic
loop_
_symmetry_equiv_pos_as_xyz
  x,y,z
_cell_length_a	13.897448
_cell_length_b	12.759401
_cell_length_c	12.759393
_cell_angle_alpha	90.020011
_cell_angle_beta	89.966654
_cell_angle_gamma	89.986229
loop_
_atom_site_label
_atom_site_type_symbol
_atom_site_fract_x
_atom_site_fract_y
_atom_site_fract_z
Zn1	Zn	-0.384059	-1.606234	-0.594011
Zn2	Zn	-0.545388	-1.606119	-0.418325
Zn3	Zn	-0.384098	-1.430535	-0.418346
Zn4	Zn	-0.545303	-1.430515	-0.593962
O5	O	-0.464712	-1.518351	-0.506161
O6	O	-0.405479	-1.753239	-0.570718
O7	O	-0.524045	-1.582788	-0.271307
O8	O	-0.249111	-1.453899	-0.441677
O9	O	-0.524007	-1.753155	-0.441642
O10	O	-0.249082	-1.582983	-0.570737
O11	O	-0.405546	-1.453788	-0.271322
O12	O	-0.405463	-1.283512	-0.441630
O13	O	-0.523861	-1.453864	-0.740990
O14	O	-0.523899	-1.283497	-0.570654
O15	O	-0.405396	-1.582964	-0.741025
O16	O	-0.680359	-1.582768	-0.441595
O17	O	-0.680296	-1.453753	-0.570635
C18	C	-0.464676	-1.245383	-0.506140
C19	C	-0.464684	-1.128607	-0.506155
C20	C	-0.403081	-1.073782	-0.573467
C21	C	-0.403094	-0.964058	-0.573471
C22	C	-0.526323	-0.963993	-0.438848
C23	C	-0.526304	-1.073715	-0.438839
C24	C	-0.341461	-1.128673	-0.640783
C25	C	-0.279853	-1.073848	-0.708102
C26	C	-0.279866	-0.964124	-0.708106
C27	C	-0.341487	-0.909225	-0.640791
C28	C	-0.715326	-1.518274	-0.506131
C29	C	-0.822540	-1.518337	-0.506153
C30	C	-1.018835	-1.518448	-0.506219
C31	C	-0.909603	-1.518383	-0.506185
C32	C	-0.213119	-1.518456	-0.506214
C33	C	-0.105905	-1.518501	-0.506237
C34	C	-0.464615	-1.518424	-0.780194
C35	C	-0.464573	-1.518456	-0.896971
C36	C	-0.464736	-0.792384	-0.506177
C37	C	-0.464716	-0.909161	-0.506167
C38	C	-0.402883	-1.585687	-0.951853
C39	C	-0.402848	-1.585712	-1.061578
C40	C	-0.526202	-1.451271	-1.061527
C41	C	-0.526232	-1.451242	-0.951805
C42	C	-0.341224	-1.652901	-0.897019
C43	C	-0.279529	-1.720139	-0.951902
C44	C	-0.279494	-1.720164	-1.061626
C45	C	-0.341154	-1.652951	-1.116468
C46	C	-0.464739	-1.518338	-0.233194
C47	C	-0.464509	-1.518510	-0.116417
H48	H	-0.229678	-1.118554	-0.762900
C49	C	-0.211631	-1.794118	-1.122000
C50	C	-0.135868	-1.748650	-1.197446
C51	C	-0.068006	-1.822611	-1.257818
C52	C	-0.075908	-1.942040	-1.242744
C53	C	-0.151675	-1.987514	-1.167294
C54	C	-0.219536	-1.913553	-1.106922
H55	H	-0.130015	-1.660237	-1.208607
H56	H	-0.011919	-1.788948	-1.313670
H57	H	-0.025673	-1.996790	-1.287435
H58	H	-0.157527	-2.075927	-1.156133
H59	H	-0.275624	-1.947216	-1.051070
H60	H	-0.229322	-1.774854	-0.907242
C61	C	-0.212103	-0.903814	-0.782154
C62	C	-0.212116	-0.783124	-0.782168
C63	C	-0.144356	-0.722817	-0.856226
C64	C	-0.076583	-0.783200	-0.930269
C65	C	-0.076567	-0.903896	-0.930258
C66	C	-0.144327	-0.964204	-0.856201
H67	H	-0.262288	-0.738419	-0.727354
H68	H	-0.144368	-0.633469	-0.856233
H69	H	-0.026423	-0.738557	-0.985091
H70	H	-0.026395	-0.948602	-0.985072
H71	H	-0.144315	-1.053552	-0.856193
C72	C	-0.594109	-0.903608	-0.364813
C73	C	-0.703771	-0.918694	-0.373175
C74	C	-0.771562	-0.858311	-0.299141
C75	C	-0.729691	-0.782842	-0.216746
C76	C	-0.620023	-0.767753	-0.208381
C77	C	-0.552232	-0.828136	-0.282414
H78	H	-0.734772	-0.974563	-0.434172
H79	H	-0.852745	-0.869481	-0.305334
H80	H	-0.779874	-0.738143	-0.161942
H81	H	-0.589023	-0.711884	-0.147384
H82	H	-0.471049	-0.816966	-0.276221
C83	C	-0.594112	-1.377301	-0.891438
C84	C	-0.669869	-1.422792	-0.815998
C85	C	-0.737756	-1.348851	-0.755635
C86	C	-0.729886	-1.229421	-0.770712
C87	C	-0.654126	-1.183924	-0.846155
C88	C	-0.586239	-1.257864	-0.906518
H89	H	-0.675698	-1.511207	-0.804834
H90	H	-0.793839	-1.382531	-0.699786
H91	H	-0.780140	-1.174686	-0.726027
H92	H	-0.648298	-1.095509	-0.857319
H93	H	-0.530156	-1.224184	-0.962366
H94	H	-0.341473	-0.819880	-0.640777
C95	C	-0.594032	-1.377349	-1.121850
C96	C	-0.594005	-1.377384	-1.242540
C97	C	-0.661838	-1.303464	-1.302862
C98	C	-0.729699	-1.229508	-1.242493
C99	C	-0.729729	-1.229470	-1.121796
C100	C	-0.661895	-1.303391	-1.061475
H101	H	-0.543768	-1.432133	-1.287235
H102	H	-0.661816	-1.303493	-1.392210
H103	H	-0.779913	-1.174788	-1.287146
H104	H	-0.779965	-1.174722	-1.077101
H105	H	-0.661917	-1.303362	-0.972127
H106	H	-0.576467	-1.118355	-0.384028
H107	H	-0.341443	-1.218016	-0.640787
H108	H	-0.341248	-1.652890	-0.807676
H109	H	-0.341110	-1.652964	-1.205812
