data_functionalizedCrystal
_audit_creation_method	'MofGen! by Chris Wilmer'
_symmetry_space_group_name_H-M	'P1'
_symmetry_Int_Tables_number	1
_symmetry_cell_setting	triclinic
loop_
_symmetry_equiv_pos_as_xyz
  x,y,z
_cell_length_a	13.897449
_cell_length_b	13.897448
_cell_length_c	21.395355
_cell_angle_alpha	89.984371
_cell_angle_beta	89.973949
_cell_angle_gamma	90.018519
loop_
_atom_site_label
_atom_site_type_symbol
_atom_site_fract_x
_atom_site_fract_y
_atom_site_fract_z
Zn1	Zn	1.474728	-0.384105	-0.354299
Zn2	Zn	1.974728	0.115895	0.145701
Zn3	Zn	1.474614	-0.545385	-0.249527
Zn4	Zn	1.974614	-0.045385	0.250473
Zn5	Zn	1.313410	-0.384108	-0.249533
Zn6	Zn	1.813410	0.115892	0.250467
Zn7	Zn	1.313399	-0.545362	-0.354264
Zn8	Zn	1.813399	-0.045362	0.145736
O9	O	1.394038	-0.464740	-0.301906
O10	O	1.894038	0.035260	0.198094
O11	O	1.609694	-0.405508	-0.340413
O12	O	2.109694	0.094492	0.159587
O13	O	1.453187	-0.524002	-0.161850
O14	O	1.953187	-0.024002	0.338150
O15	O	1.334861	-0.249126	-0.263448
O16	O	1.834861	0.250874	0.236552
O17	O	1.609611	-0.523999	-0.263437
O18	O	2.109611	-0.023999	0.236563
O19	O	1.453381	-0.249124	-0.340419
O20	O	1.953381	0.250876	0.159581
O21	O	1.334751	-0.405512	-0.161854
O22	O	1.834751	0.094488	0.338146
O23	O	1.178427	-0.405490	-0.263414
O24	O	1.678427	0.094510	0.236586
O25	O	1.334842	-0.523961	-0.441947
O26	O	1.834842	-0.023961	0.058053
O27	O	1.178419	-0.523963	-0.340360
O28	O	1.678419	-0.023963	0.159640
O29	O	1.453370	-0.405486	-0.441972
O30	O	1.953370	0.094514	0.058028
O31	O	1.453177	-0.680364	-0.263403
O32	O	1.953177	-0.180364	0.236597
O33	O	1.334732	-0.680347	-0.340354
O34	O	1.834732	-0.180347	0.159646
C35	C	1.143423	-0.464725	-0.301884
C36	C	1.643423	0.035275	0.198116
C37	C	1.036209	-0.464742	-0.301889
C38	C	1.536209	0.035258	0.198111
C39	C	0.949140	-0.464745	-0.301900
C40	C	1.449140	0.035255	0.198100
C41	C	0.839907	-0.464752	-0.301919
C42	C	1.339907	0.035248	0.198081
C43	C	1.393967	-0.715354	-0.301888
C44	C	1.893967	-0.215354	0.198112
C45	C	1.394025	-0.822568	-0.301901
C46	C	1.894025	-0.322568	0.198099
C47	C	1.394127	-1.018863	-0.301940
C48	C	1.894127	-0.518863	0.198060
C49	C	1.394068	-0.909631	-0.301920
C50	C	1.894068	-0.409631	0.198080
C51	C	1.645631	-0.464756	-0.301928
C52	C	2.145631	0.035244	0.198072
C53	C	1.752845	-0.464762	-0.301938
C54	C	2.252845	0.035238	0.198062
C55	C	1.394118	-0.464721	-0.465329
C56	C	1.894118	0.035279	0.034671
C57	C	1.394152	-0.464712	-0.534970
C58	C	1.894152	0.035288	-0.034970
C59	C	1.394135	-0.213147	-0.301938
C60	C	1.894135	0.286853	0.198062
C61	C	1.394176	-0.105933	-0.301951
C62	C	1.894176	0.394067	0.198049
C63	C	1.455867	-0.403020	-0.567698
C64	C	1.955867	0.096980	-0.067698
C65	C	1.455865	-0.402978	-0.633133
C66	C	1.955865	0.097022	-0.133133
C67	C	1.394159	-0.464647	-0.665839
C68	C	1.894159	0.035353	-0.165839
C69	C	1.332433	-0.526343	-0.633104
C70	C	1.832433	-0.026343	-0.133104
C71	C	1.332429	-0.526376	-0.567669
C72	C	1.832429	-0.026376	-0.067669
C73	C	1.386519	-0.551499	-0.769507
C74	C	1.886519	-0.051499	-0.269507
C75	C	1.386529	-0.551468	-0.834940
C76	C	1.886529	-0.051468	-0.334940
C77	C	1.394165	-0.464545	-0.867660
C78	C	1.894165	0.035455	-0.367660
C79	C	1.401811	-0.377650	-0.834938
C80	C	1.901811	0.122350	-0.334938
C81	C	1.401808	-0.377683	-0.769504
C82	C	1.901808	0.122317	-0.269504
C83	C	1.394156	-0.464617	-0.736791
C84	C	1.894156	0.035383	-0.236791
C85	C	1.455882	-0.402802	-0.971340
C86	C	1.955882	0.097198	-0.471340
C87	C	1.455874	-0.402759	-1.036776
C88	C	1.955874	0.097241	-0.536776
C89	C	1.332446	-0.526132	-1.036745
C90	C	1.832446	-0.026132	-0.536745
C91	C	1.332449	-0.526167	-0.971310
C92	C	1.832449	-0.026167	-0.471310
C93	C	1.394172	-0.464503	-0.938611
C94	C	1.894172	0.035497	-0.438611
C95	C	1.394013	-0.464690	-0.139118
C96	C	1.894013	0.035310	0.360882
C97	C	1.394166	-0.464427	-0.069477
C98	C	1.894166	0.035573	0.430523
H99	H	1.506125	-0.352807	-0.541078
H100	H	2.006125	0.147193	-0.041078
H101	H	1.506128	-0.352516	-1.063422
H102	H	2.006128	0.147484	-0.563422
H103	H	1.506119	-0.352736	-0.659785
H104	H	2.006119	0.147264	-0.159785
C105	C	1.410205	-0.282100	-0.733513
C106	C	1.910205	0.217900	-0.233513
N107	N	1.416523	-0.210105	-0.706405
N108	N	1.916523	0.289895	-0.206405
C109	C	1.410210	-0.282026	-0.870925
C110	C	1.910210	0.217974	-0.370925
N111	N	1.416536	-0.210005	-0.898033
N112	N	1.916536	0.289995	-0.398033
C113	C	1.378118	-0.647053	-0.870927
C114	C	1.878118	-0.147053	-0.370927
N115	N	1.371780	-0.719050	-0.898031
N116	N	1.871780	-0.219050	-0.398031
C117	C	1.378136	-0.647129	-0.733522
C118	C	1.878136	-0.147129	-0.233522
N119	N	1.371830	-0.719156	-0.706419
N120	N	1.871830	-0.219156	-0.206419
H121	H	1.282194	-0.576334	-1.063373
H122	H	1.782194	-0.076334	-0.563373
C123	C	1.523769	-0.334962	-0.935369
C124	C	2.023769	0.165038	-0.435369
N125	N	1.574901	-0.283864	-0.908277
N126	N	2.074901	0.216136	-0.408277
H127	H	1.282188	-0.576551	-0.659737
H128	H	1.782188	-0.076551	-0.159737
H129	H	1.282200	-0.576409	-0.944663
H130	H	1.782200	-0.076409	-0.444663
H131	H	1.282169	-0.576612	-0.541023
H132	H	1.782169	-0.076612	-0.041023
