data_functionalizedCrystal
_audit_creation_method	'MofGen! by Chris Wilmer'
_symmetry_space_group_name_H-M	'P1'
_symmetry_Int_Tables_number	1
_symmetry_cell_setting	triclinic
loop_
_symmetry_equiv_pos_as_xyz
  x,y,z
_cell_length_a	14.853567
_cell_length_b	14.853567
_cell_length_c	16.176319
_cell_angle_alpha	89.996997
_cell_angle_beta	89.995559
_cell_angle_gamma	83.634930
loop_
_atom_site_label
_atom_site_type_symbol
_atom_site_fract_x
_atom_site_fract_y
_atom_site_fract_z
O1	O	1.196368	0.117706	-0.068682
O2	O	0.933909	0.131728	-0.068696
O3	O	1.072149	-0.006513	-0.068691
O4	O	1.058128	0.255947	-0.068687
O5	O	1.072130	-0.006521	0.068802
O6	O	0.933890	0.131719	0.068797
O7	O	1.196349	0.117698	0.068811
Cu8	Cu	1.065118	0.124707	0.081358
Cu9	Cu	1.065140	0.124718	-0.081243
O10	O	1.058109	0.255938	0.068806
C11	C	0.900311	0.131088	0.000049
C12	C	0.800227	0.129184	0.000044
C13	C	0.387693	0.039019	0.000061
C14	C	0.366412	0.203251	0.000063
C15	C	0.460446	0.205041	0.000060
C16	C	0.518108	0.123819	0.000056
C17	C	0.481736	0.040806	0.000056
C18	C	0.496825	0.288053	0.000052
C19	C	0.590864	0.289846	0.000049
C20	C	0.648528	0.208623	0.000051
C21	C	0.612150	0.125607	0.000051
C22	C	0.669812	0.044384	0.000048
C23	C	0.633437	-0.038633	0.000054
C24	C	0.539399	-0.040417	0.000058
C25	C	0.742565	0.210407	0.000047
C26	C	0.763855	0.046172	0.000043
C27	C	1.071504	-0.040106	0.000053
C28	C	1.069601	-0.140189	0.000046
C29	C	0.979435	-0.552723	0.000057
C30	C	1.143668	-0.574004	0.000065
C31	C	1.145458	-0.479971	0.000060
C32	C	1.064235	-0.422309	0.000055
C33	C	0.981223	-0.458680	0.000055
C34	C	1.228469	-0.443591	0.000069
C35	C	1.230262	-0.349552	0.000065
C36	C	1.149039	-0.291889	0.000054
C37	C	1.066023	-0.328266	0.000053
C38	C	0.984800	-0.270604	0.000047
C39	C	0.901783	-0.306979	0.000040
C40	C	0.899999	-0.401017	0.000043
C41	C	1.150823	-0.197851	0.000051
C42	C	0.986588	-0.176561	0.000045
C43	C	1.229947	0.118337	0.000064
C44	C	1.330031	0.120241	0.000064
C45	C	1.058754	0.289531	0.000060
C46	C	1.060657	0.389615	0.000062
N47	N	1.065108	0.124700	0.195724
N48	N	1.065157	0.124719	-0.195608
C49	C	1.126340	0.063512	0.238990
C50	C	1.126344	0.063511	0.325537
C51	C	1.065121	0.124703	0.368816
C52	C	1.003883	0.185893	0.325544
C53	C	1.003875	0.185889	0.238998
C54	C	1.003914	0.185910	0.674572
C55	C	1.003929	0.185912	0.761124
C56	C	1.126383	0.063532	0.761111
C57	C	1.126375	0.063528	0.674565
C58	C	1.065135	0.124715	0.631300
C59	C	1.065129	0.124714	0.537456
C60	C	1.065130	0.124709	0.462659
H61	H	0.358072	-0.028572	0.000069
N62	N	1.192368	-0.002485	0.192302
H63	H	1.256366	0.008011	0.207349
H64	H	1.181829	-0.066461	0.207387
N65	N	0.500167	-0.129950	0.000071
H66	H	0.431846	-0.118756	0.000072
H67	H	0.521251	-0.165499	-0.050898
H68	H	0.772178	0.277998	0.000044
H69	H	1.297860	-0.319944	0.000070
H70	H	0.835652	-0.260019	0.000042
H71	H	0.920445	-0.129618	0.000037
H72	H	0.954052	0.235733	0.639353
N73	N	0.810466	-0.440249	0.000039
H74	H	0.821661	-0.508571	0.000046
H75	H	0.774915	-0.419163	0.051008
N76	N	0.889898	-0.591948	0.000045
H77	H	0.901085	-0.660270	0.000045
H78	H	0.854345	-0.570865	0.051013
N79	N	1.231268	-0.636190	0.000084
H80	H	1.217539	-0.701282	0.000090
H81	H	1.267450	-0.624407	-0.050885
N82	N	1.316068	-0.505780	0.000090
H83	H	1.302337	-0.570871	0.000089
H84	H	1.352256	-0.493993	-0.050874
H85	H	0.810798	-0.019971	0.000043
N86	N	1.240350	-0.158615	0.000068
H87	H	1.291533	-0.209413	0.000076
H88	H	1.244682	-0.120063	-0.050904
H89	H	0.680397	-0.104764	0.000045
H90	H	0.449870	0.354180	0.000047
N91	N	1.192417	-0.002453	0.372204
H92	H	1.231215	-0.041204	0.331654
H93	H	1.232298	0.032175	0.408086
H94	H	0.620472	0.357443	0.000044
H95	H	0.319459	0.269379	0.000058
N96	N	1.192412	-0.002467	0.627885
H97	H	1.231203	-0.041232	0.668427
H98	H	1.157846	-0.042388	0.591986
H99	H	1.176246	0.013707	0.796346
H100	H	0.954070	0.235743	0.796360
N101	N	0.937842	0.251889	0.372219
H102	H	0.947138	0.242609	0.433611
H103	H	0.948328	0.315865	0.357083
H104	H	0.954013	0.235713	0.203772
