data_functionalizedCrystal
_audit_creation_method	'MofGen! by Chris Wilmer'
_symmetry_space_group_name_H-M	'P1'
_symmetry_Int_Tables_number	1
_symmetry_cell_setting	triclinic
loop_
_symmetry_equiv_pos_as_xyz
  x,y,z
_cell_length_a	17.699104
_cell_length_b	15.995350
_cell_length_c	16.776229
_cell_angle_alpha	89.991668
_cell_angle_beta	90.004464
_cell_angle_gamma	83.391946
loop_
_atom_site_label
_atom_site_type_symbol
_atom_site_fract_x
_atom_site_fract_y
_atom_site_fract_z
O1	O	1.004242	0.105953	0.066300
O2	O	1.504242	0.605953	0.566300
O3	O	0.783889	0.119711	0.066298
O4	O	1.283889	0.619711	0.566298
O5	O	0.900089	-0.009068	0.066299
O6	O	1.400089	0.490932	0.566299
O7	O	0.888042	0.234731	0.066300
O8	O	1.388042	0.734731	0.566300
O9	O	0.900078	-0.009045	-0.066278
O10	O	1.400078	0.490955	0.433722
O11	O	0.783878	0.119733	-0.066279
O12	O	1.283878	0.619733	0.433721
O13	O	1.004232	0.105975	-0.066276
O14	O	1.504232	0.605975	0.433724
Zn15	Zn	0.894053	0.112858	-0.087327
Zn16	Zn	1.394053	0.612858	0.412673
Zn17	Zn	0.894067	0.112828	0.087349
Zn18	Zn	1.394067	0.612828	0.587349
O19	O	0.888031	0.234754	-0.066277
O20	O	1.388031	0.734754	0.433723
C21	C	0.755686	0.119226	0.000009
C22	C	1.255686	0.619226	0.500009
C23	C	0.671666	0.117738	0.000009
C24	C	1.171666	0.617738	0.500009
C25	C	0.899586	-0.040250	0.000012
C26	C	1.399586	0.459750	0.500012
C27	C	0.898093	-0.133198	0.000016
C28	C	1.398093	0.366802	0.500016
C29	C	0.146907	0.184938	0.000017
C30	C	0.646907	0.684938	0.500017
C31	C	0.225853	0.186331	0.000020
C32	C	0.725853	0.686331	0.500020
C33	C	0.274345	0.110733	0.000019
C34	C	0.774345	0.610733	0.500019
C35	C	0.243887	0.033737	0.000024
C36	C	0.743887	0.533737	0.500024
C37	C	0.164943	0.032345	0.000028
C38	C	0.664943	0.532345	0.500028
C39	C	0.562263	0.039349	0.000012
C40	C	1.062263	0.539349	0.500012
C41	C	0.641212	0.040748	0.000006
C42	C	1.141212	0.540748	0.500006
C43	C	0.623173	0.193335	0.000004
C44	C	1.123173	0.693335	0.500004
C45	C	0.544229	0.191943	0.000007
C46	C	1.044229	0.691943	0.500007
C47	C	0.513778	0.114948	0.000016
C48	C	1.013778	0.614948	0.500016
C49	C	0.428175	0.113438	0.000015
C50	C	0.928175	0.613438	0.500015
C51	C	0.359946	0.112242	0.000014
C52	C	0.859946	0.612242	0.500014
C53	C	0.892730	-0.470935	0.000014
C54	C	1.392730	0.029065	0.500014
C55	C	0.809975	-0.423339	0.000310
C56	C	1.309975	0.076661	0.500310
C57	C	0.811468	-0.326652	0.000011
C58	C	1.311468	0.173348	0.500011
C59	C	0.895390	-0.303379	0.000015
C60	C	1.395390	0.196621	0.500015
C61	C	0.936202	-0.344524	-0.075691
C62	C	1.436202	0.155476	0.424309
C63	C	0.934123	-0.441155	-0.075754
C64	C	1.434123	0.058845	0.424246
C65	C	0.935845	-0.441542	0.075010
C66	C	1.435845	0.058458	0.575010
C67	C	0.935825	-0.344597	0.076011
C68	C	1.435825	0.155403	0.576011
C69	C	0.896898	-0.208685	0.000014
C70	C	1.396898	0.291315	0.500014
C71	C	0.891225	-0.565629	0.000010
C72	C	1.391225	-0.065629	0.500010
C73	C	1.032435	0.106460	0.000014
C74	C	1.532435	0.606460	0.500014
C75	C	1.116454	0.107948	0.000020
C76	C	1.616454	0.607948	0.500020
C77	C	0.888535	0.265936	0.000012
C78	C	1.388535	0.765936	0.500012
C79	C	0.890028	0.358884	0.000013
C80	C	1.390028	0.858884	0.500013
N81	N	0.894049	0.112878	-0.206538
N82	N	1.394049	0.612878	0.293462
C83	C	0.848176	0.062086	-0.751711
C84	C	1.348176	0.562086	-0.251711
C85	C	0.848174	0.062093	-0.668258
C86	C	1.348174	0.562093	-0.168258
C87	C	0.894071	0.112821	-0.626537
C88	C	1.394071	0.612821	-0.126537
C89	C	0.939977	0.163540	-0.668273
C90	C	1.439977	0.663540	-0.168273
C91	C	0.939983	0.163527	-0.751723
C92	C	1.439983	0.663527	-0.251723
C93	C	0.939958	0.163589	-0.331726
C94	C	1.439958	0.663589	0.168274
C95	C	0.939947	0.163599	-0.248269
C96	C	1.439947	0.663599	0.251731
C97	C	0.848149	0.062154	-0.248261
C98	C	1.348149	0.562154	0.251739
C99	C	0.848154	0.062142	-0.331711
C100	C	1.348154	0.562142	0.168289
C101	C	0.894064	0.112857	-0.373439
C102	C	1.394064	0.612857	0.126561
C103	C	0.894067	0.112847	-0.463928
C104	C	1.394067	0.612847	0.036072
C105	C	0.894065	0.112836	-0.536051
C106	C	1.394065	0.612836	-0.036051
N107	N	0.894078	0.112802	0.206560
N108	N	1.394078	0.612802	0.706560
H109	H	0.107430	0.246498	0.000012
H110	H	0.607430	0.746498	0.500012
Br111	Br	0.785879	-0.006758	-0.808324
Br112	Br	1.285879	0.493242	-0.308324
H113	H	0.283376	-0.027816	0.000029
H114	H	0.783376	0.472184	0.500029
Br115	Br	1.002286	0.232353	-0.808358
Br116	Br	1.502286	0.732353	-0.308358
H117	H	0.680694	-0.020817	0.000007
H118	H	1.180694	0.479183	0.500007
Br119	Br	0.520946	-0.065144	0.000048
Br120	Br	1.020946	0.434856	0.500048
Br121	Br	0.267179	0.290821	0.000024
Br122	Br	0.767179	0.790821	0.500024
H123	H	0.140150	-0.030348	0.000032
H124	H	0.640150	0.469652	0.500032
H125	H	0.810799	0.020792	-0.634286
H126	H	1.310799	0.520792	-0.134286
Br127	Br	1.037540	-0.494677	0.075865
Br128	Br	1.537540	0.005323	0.575865
H129	H	0.504750	0.253503	0.000003
H130	H	1.004750	0.753503	0.500003
Br131	Br	0.757998	-0.279186	0.090463
Br132	Br	1.257998	0.220814	0.590463
H133	H	0.908793	-0.462039	0.132391
H134	H	1.408793	0.037961	0.632391
Br135	Br	1.038966	-0.321185	-0.080383
Br136	Br	1.538966	0.178815	0.419617
Br137	Br	0.886510	-0.298561	0.169373
Br138	Br	1.386510	0.201439	0.669373
H139	H	0.647975	0.256028	-0.000001
H140	H	1.147975	0.756028	0.499999
Br141	Br	0.884504	-0.471551	-0.170079
Br142	Br	1.384504	0.028449	0.329921
Br143	Br	0.754847	-0.454129	0.090799
Br144	Br	1.254847	0.045871	0.590799
Br145	Br	0.754923	-0.456273	-0.089399
Br146	Br	1.254923	0.043727	0.410601
H147	H	0.994881	-0.473521	-0.079186
H148	H	1.494881	0.026479	0.420814
H149	H	0.779163	-0.298715	-0.054351
H150	H	1.279163	0.201285	0.445649
H151	H	0.907847	-0.316077	-0.132031
H152	H	1.407847	0.183923	0.367969
H153	H	0.810778	0.020837	-0.365676
H154	H	1.310778	0.520837	0.134324
H155	H	0.997025	-0.329355	0.080585
H156	H	1.497025	0.170645	0.580585
Br157	Br	0.785843	-0.006676	-0.191625
Br158	Br	1.285843	0.493324	0.308375
Br159	Br	1.002272	0.232380	-0.611652
Br160	Br	1.502272	0.732380	-0.111652
H161	H	0.977324	0.204911	-0.214302
H162	H	1.477324	0.704911	0.285698
H163	H	0.977340	0.204885	-0.365691
H164	H	1.477340	0.704885	0.134309
