data_functionalizedCrystal
_audit_creation_method	'MofGen! by Chris Wilmer'
_symmetry_space_group_name_H-M	'P1'
_symmetry_Int_Tables_number	1
_symmetry_cell_setting	triclinic
loop_
_symmetry_equiv_pos_as_xyz
  x,y,z
_cell_length_a	21.395362
_cell_length_b	19.121063
_cell_length_c	19.121264
_cell_angle_alpha	90.118627
_cell_angle_beta	87.584759
_cell_angle_gamma	92.485681
loop_
_atom_site_label
_atom_site_type_symbol
_atom_site_fract_x
_atom_site_fract_y
_atom_site_fract_z
Zn1	Zn	0.932244	-0.262025	0.408637
Zn2	Zn	1.182244	-0.012025	0.658637
Zn3	Zn	1.432244	0.237975	0.908637
Zn4	Zn	1.682244	0.487975	1.158637
Zn5	Zn	0.931803	-0.384234	0.296393
Zn6	Zn	1.181803	-0.134234	0.546393
Zn7	Zn	1.431803	0.115766	0.796393
Zn8	Zn	1.681803	0.365766	1.046393
Zn9	Zn	0.831761	-0.267045	0.291376
Zn10	Zn	1.081761	-0.017045	0.541376
Zn11	Zn	1.331761	0.232955	0.791376
Zn12	Zn	1.581761	0.482955	1.041376
Zn13	Zn	0.822784	-0.379266	0.413550
Zn14	Zn	1.072784	-0.129266	0.663550
Zn15	Zn	1.322784	0.120734	0.913550
Zn16	Zn	1.572784	0.370734	1.163550
O17	O	0.879648	-0.323142	0.352489
O18	O	1.129648	-0.073142	0.602489
O19	O	1.379648	0.176858	0.852489
O20	O	1.629648	0.426858	1.102489
O21	O	1.019863	-0.278215	0.393790
O22	O	1.269863	-0.028215	0.643790
O23	O	1.519863	0.221785	0.893790
O24	O	1.769863	0.471785	1.143790
O25	O	0.922104	-0.372868	0.197623
O26	O	1.172104	-0.122868	0.447623
O27	O	1.422104	0.127132	0.697623
O28	O	1.672104	0.377132	0.947623
O29	O	0.849032	-0.168269	0.302775
O30	O	1.099032	0.081731	0.552775
O31	O	1.349032	0.331731	0.802775
O32	O	1.599032	0.581731	1.052775
O33	O	1.019538	-0.368001	0.311325
O34	O	1.269538	-0.118001	0.561325
O35	O	1.519538	0.131999	0.811325
O36	O	1.769538	0.381999	1.061325
O37	O	0.922856	-0.164581	0.388926
O38	O	1.172856	0.085419	0.638926
O39	O	1.422856	0.335419	0.888926
O40	O	1.672856	0.585419	1.138926
O41	O	0.848604	-0.286770	0.193937
O42	O	1.098604	-0.036770	0.443937
O43	O	1.348604	0.213230	0.693937
O44	O	1.598604	0.463230	0.943937
O45	O	0.742893	-0.281952	0.307540
O46	O	0.992893	-0.031952	0.557540
O47	O	1.242893	0.218048	0.807540
O48	O	1.492893	0.468048	1.057540
O49	O	0.833732	-0.359534	0.511003
O50	O	1.083732	-0.109534	0.761003
O51	O	1.333732	0.140466	1.011003
O52	O	1.583732	0.390466	1.261003
O53	O	0.736298	-0.364401	0.397300
O54	O	0.986298	-0.114401	0.647300
O55	O	1.236298	0.135599	0.897300
O56	O	1.486298	0.385599	1.147300
O57	O	0.914152	-0.273398	0.507393
O58	O	1.164152	-0.023398	0.757393
O59	O	1.414152	0.226602	1.007393
O60	O	1.664152	0.476602	1.257393
O61	O	0.913400	-0.481685	0.316090
O62	O	1.163400	-0.231685	0.566090
O63	O	1.413400	0.018315	0.816090
O64	O	1.663400	0.268315	1.066090
O65	O	0.833304	-0.478035	0.402165
O66	O	1.083304	-0.228035	0.652165
O67	O	1.333304	0.021965	0.902165
O68	O	1.583304	0.271965	1.152165
C69	C	0.716862	-0.323183	0.352409
C70	C	0.966862	-0.073183	0.602409
C71	C	1.216862	0.176817	0.852409
C72	C	1.466862	0.426817	1.102409
C73	C	0.647220	-0.323216	0.352392
C74	C	0.897220	-0.073216	0.602392
C75	C	1.147220	0.176784	0.852392
C76	C	1.397220	0.426784	1.102392
C77	C	0.611089	-0.366210	0.399066
C78	C	0.861089	-0.116210	0.649066
C79	C	1.111089	0.133790	0.899066
C80	C	1.361089	0.383790	1.149066
C81	C	0.545653	-0.366191	0.399097
C82	C	0.795653	-0.116191	0.649097
C83	C	1.045653	0.133809	0.899097
C84	C	1.295653	0.383809	1.149097
C85	C	0.516351	-0.323187	0.352441
C86	C	0.766351	-0.073187	0.602441
C87	C	1.016351	0.176813	0.852441
C88	C	1.266351	0.426813	1.102441
C89	C	0.552490	-0.280185	0.305764
C90	C	0.802490	-0.030185	0.555764
C91	C	1.052490	0.219815	0.805764
C92	C	1.302490	0.469815	1.055764
C93	C	0.617925	-0.280200	0.305740
C94	C	0.867925	-0.030200	0.555740
C95	C	1.117925	0.219800	0.805740
C96	C	1.367925	0.469800	1.055740
C97	C	0.415166	-0.320223	0.289087
C98	C	0.665166	-0.070223	0.539087
C99	C	0.915166	0.179777	0.789087
C100	C	1.165166	0.429777	1.039087
C101	C	0.349733	-0.320214	0.289111
C102	C	0.599733	-0.070214	0.539111
C103	C	0.849733	0.179786	0.789111
C104	C	1.099733	0.429786	1.039111
C105	C	0.314529	-0.323138	0.352517
C106	C	0.564529	-0.073138	0.602517
C107	C	0.814529	0.176862	0.852517
C108	C	1.064529	0.426862	1.102517
C109	C	0.344766	-0.326087	0.415902
C110	C	0.594766	-0.076087	0.665902
C111	C	0.844766	0.173913	0.915902
C112	C	1.094766	0.423913	1.165902
C113	C	0.410201	-0.326102	0.415877
C114	C	0.660201	-0.076102	0.665877
C115	C	0.910201	0.173898	0.915877
C116	C	1.160201	0.423898	1.165877
C117	C	0.445399	-0.323166	0.352463
C118	C	0.695399	-0.073166	0.602463
C119	C	0.945399	0.176834	0.852463
C120	C	1.195399	0.426834	1.102463
C121	C	0.207445	-0.366114	0.399227
C122	C	0.457445	-0.116114	0.649227
C123	C	0.707445	0.133886	0.899227
C124	C	0.957445	0.383886	1.149227
C125	C	0.142008	-0.366090	0.399259
C126	C	0.392008	-0.116090	0.649259
C127	C	0.642008	0.133910	0.899259
C128	C	0.892008	0.383910	1.149259
C129	C	0.148846	-0.280088	0.305920
C130	C	0.398846	-0.030088	0.555920
C131	C	0.648846	0.219912	0.805920
C132	C	0.898846	0.469912	1.055920
C133	C	0.214282	-0.280108	0.305895
C134	C	0.464282	-0.030108	0.555895
C135	C	0.714282	0.219892	0.805895
C136	C	0.964282	0.469892	1.055895
C137	C	0.243577	-0.323124	0.352547
C138	C	0.493577	-0.073124	0.602547
C139	C	0.743577	0.176876	0.852547
C140	C	0.993577	0.426876	1.102547
C141	C	0.872346	-0.505298	0.360220
C142	C	1.122346	-0.255298	0.610220
C143	C	1.372346	-0.005298	0.860220
C144	C	1.622346	0.244702	1.110220
C145	C	0.869279	-0.583224	0.363551
C146	C	1.119279	-0.333224	0.613551
C147	C	1.369279	-0.083224	0.863551
C148	C	1.619279	0.166776	1.113551
C149	C	0.909569	-0.621709	0.320338
C150	C	1.159569	-0.371709	0.570338
C151	C	1.409569	-0.121709	0.820338
C152	C	1.659569	0.128291	1.070338
C153	C	0.906688	-0.694928	0.323475
C154	C	1.156688	-0.444928	0.573475
C155	C	1.406688	-0.194928	0.823475
C156	C	1.656688	0.055072	1.073475
C157	C	0.863513	-0.729661	0.369821
C158	C	1.113513	-0.479661	0.619821
C159	C	1.363513	-0.229661	0.869821
C160	C	1.613513	0.020339	1.119821
C161	C	0.823221	-0.691171	0.413038
C162	C	1.073221	-0.441171	0.663038
C163	C	1.323221	-0.191171	0.913038
C164	C	1.573221	0.058829	1.163038
C165	C	0.826106	-0.617953	0.409905
C166	C	1.076106	-0.367953	0.659905
C167	C	1.326106	-0.117953	0.909905
C168	C	1.576106	0.132047	1.159905
C169	C	0.852718	-0.950639	0.381526
C170	C	1.102718	-0.700639	0.631526
C171	C	1.352718	-0.450639	0.881526
C172	C	1.602718	-0.200639	1.131526
C173	C	0.849835	-1.023862	0.384655
C174	C	1.099835	-0.773862	0.634655
C175	C	1.349835	-0.523862	0.884655
C176	C	1.599835	-0.273862	1.134655
C177	C	0.933303	-1.027615	0.295092
C178	C	1.183303	-0.777615	0.545092
C179	C	1.433303	-0.527615	0.795092
C180	C	1.683303	-0.277615	1.045092
C181	C	0.936182	-0.954395	0.291959
C182	C	1.186182	-0.704395	0.541959
C183	C	1.436182	-0.454395	0.791959
C184	C	1.686182	-0.204395	1.041959
C185	C	0.895892	-0.915911	0.335179
C186	C	1.145892	-0.665911	0.585179
C187	C	1.395892	-0.415911	0.835179
C188	C	1.645892	-0.165911	1.085179
C189	C	0.860566	-0.804503	0.373027
C190	C	1.110566	-0.554503	0.623027
C191	C	1.360566	-0.304503	0.873027
C192	C	1.610566	-0.054503	1.123027
C193	C	0.898843	-0.841070	0.331977
C194	C	1.148843	-0.591070	0.581977
C195	C	1.398843	-0.341070	0.831977
C196	C	1.648843	-0.091070	1.081977
C197	C	1.043070	-0.323102	0.352569
C198	C	1.293070	-0.073102	0.602569
C199	C	1.543070	0.176898	0.852569
C200	C	1.793070	0.426898	1.102569
C201	C	1.112710	-0.323085	0.352604
C202	C	1.362710	-0.073085	0.602604
C203	C	1.612710	0.176915	0.852604
C204	C	1.862710	0.426915	1.102604
C205	C	0.872990	-0.315352	0.535347
C206	C	1.122990	-0.065352	0.785347
C207	C	1.372990	0.184648	1.035347
C208	C	1.622990	0.434648	1.285347
C209	C	0.870153	-0.312032	0.613270
C210	C	1.120153	-0.062032	0.863270
C211	C	1.370153	0.187968	1.113270
C212	C	1.620153	0.437968	1.363270
C213	C	0.886995	-0.140275	0.344743
C214	C	1.136995	0.109725	0.594743
C215	C	1.386995	0.359725	0.844743
C216	C	1.636995	0.609725	1.094743
C217	C	0.890126	-0.062348	0.341442
C218	C	1.140126	0.187652	0.591442
C219	C	1.390126	0.437652	0.841442
C220	C	1.640126	0.687652	1.091442
C221	C	0.907084	-0.355296	0.651800
C222	C	1.157084	-0.105296	0.901800
C223	C	1.407084	0.144704	1.151800
C224	C	1.657084	0.394704	1.401800
C225	C	0.904418	-0.352169	0.725017
C226	C	1.154418	-0.102169	0.975017
C227	C	1.404418	0.147831	1.225017
C228	C	1.654418	0.397831	1.475017
C229	C	0.864817	-0.305779	0.759702
C230	C	1.114817	-0.055779	1.009702
C231	C	1.364817	0.194221	1.259702
C232	C	1.614817	0.444221	1.509702
C233	C	0.827884	-0.262509	0.721167
C234	C	1.077884	-0.012509	0.971167
C235	C	1.327884	0.237491	1.221167
C236	C	1.577884	0.487491	1.471167
C237	C	0.830554	-0.265634	0.647951
C238	C	1.080554	-0.015634	0.897951
C239	C	1.330554	0.234366	1.147951
C240	C	1.580554	0.484366	1.397951
C241	C	0.854846	-0.294098	0.980669
C242	C	1.104846	-0.044098	1.230669
C243	C	1.354846	0.205902	1.480669
C244	C	1.604846	0.455902	1.730669
C245	C	0.852178	-0.290978	1.053890
C246	C	1.102178	-0.040978	1.303890
C247	C	1.352178	0.209022	1.553890
C248	C	1.602178	0.459022	1.803890
C249	C	0.928713	-0.380636	1.057735
C250	C	1.178713	-0.130636	1.307735
C251	C	1.428713	0.119364	1.557735
C252	C	1.678713	0.369364	1.807735
C253	C	0.931376	-0.383760	0.984518
C254	C	1.181376	-0.133760	1.234518
C255	C	1.431376	0.116240	1.484518
C256	C	1.681376	0.366240	1.734518
C257	C	0.894446	-0.340488	0.945989
C258	C	1.144446	-0.090488	1.195989
C259	C	1.394446	0.159512	1.445989
C260	C	1.644446	0.409512	1.695989
C261	C	0.862090	-0.302582	0.834541
C262	C	1.112090	-0.052582	1.084541
C263	C	1.362090	0.197418	1.334541
C264	C	1.612090	0.447418	1.584541
C265	C	0.897177	-0.343682	0.871151
C266	C	1.147177	-0.093682	1.121151
C267	C	1.397177	0.156318	1.371151
C268	C	1.647177	0.406318	1.621151
C269	C	0.886274	-0.330919	1.170343
C270	C	1.136274	-0.080919	1.420343
C271	C	1.386274	0.169081	1.670343
C272	C	1.636274	0.419081	1.920343
C273	C	0.889110	-0.334242	1.092420
C274	C	1.139110	-0.084242	1.342420
C275	C	1.389110	0.165758	1.592420
C276	C	1.639110	0.415758	1.842420
H277	H	0.434818	-0.328500	0.467487
H278	H	0.684818	-0.078500	0.717487
H279	H	0.934818	0.171500	0.967487
H280	H	1.184818	0.421500	1.217487
H281	H	0.825411	-0.832791	0.410761
H282	H	1.075411	-0.582791	0.660761
H283	H	1.325411	-0.332791	0.910761
H284	H	1.575411	-0.082791	1.160761
H285	H	0.516230	-0.401201	0.437107
H286	H	0.766230	-0.151201	0.687107
H287	H	1.016230	0.098799	0.937107
H288	H	1.266230	0.348799	1.187107
H289	H	0.966106	-1.058956	0.259906
H290	H	1.216106	-0.808956	0.509906
H291	H	1.466106	-0.558956	0.759906
H292	H	1.716106	-0.308956	1.009906
H293	H	0.443824	-0.317839	0.237451
H294	H	0.693824	-0.067839	0.487451
H295	H	0.943824	0.182161	0.737451
H296	H	1.193824	0.432161	0.987451
H297	H	0.528628	-0.245170	0.267778
H298	H	0.778628	0.004830	0.517778
H299	H	1.028628	0.254830	0.767778
H300	H	1.278628	0.504830	1.017778
H301	H	0.243700	-0.245102	0.267884
H302	H	0.493700	0.004898	0.517884
H303	H	0.743700	0.254898	0.767884
H304	H	0.993700	0.504898	1.017884
H305	H	0.325119	-0.317817	0.237499
H306	H	0.575119	-0.067817	0.487499
H307	H	0.825119	0.182183	0.737499
H308	H	1.075119	0.432183	0.987499
H309	H	0.944724	-0.593435	0.282595
H310	H	1.194724	-0.343435	0.532595
H311	H	1.444724	-0.093435	0.782595
H312	H	1.694724	0.156565	1.032595
H313	H	0.814684	-1.052139	0.422408
H314	H	1.064684	-0.802139	0.672408
H315	H	1.314684	-0.552139	0.922408
H316	H	1.564684	-0.302139	1.172408
H317	H	0.788070	-0.719456	0.450778
H318	H	1.038070	-0.469456	0.700778
H319	H	1.288070	-0.219456	0.950778
H320	H	1.538070	0.030544	1.200778
H321	H	0.795643	-0.224735	0.749413
H322	H	1.045643	0.025265	0.999413
H323	H	1.295643	0.275265	1.249413
H324	H	1.545643	0.525265	1.499413
H325	H	0.124989	-0.245070	0.267935
H326	H	0.374989	0.004930	0.517935
H327	H	0.624989	0.254930	0.767935
H328	H	0.874989	0.504930	1.017935
H329	H	0.647342	-0.245188	0.267732
H330	H	0.897342	0.004812	0.517732
H331	H	1.147342	0.254812	0.767732
H332	H	1.397342	0.504812	1.017732
H333	H	0.316105	-0.328467	0.467533
H334	H	0.566105	-0.078467	0.717533
H335	H	0.816105	0.171533	0.967533
H336	H	1.066105	0.421533	1.217533
H337	H	0.829846	-0.264813	0.862790
H338	H	1.079846	-0.014813	1.112790
H339	H	1.329846	0.235187	1.362790
H340	H	1.579846	0.485187	1.612790
H341	H	0.971338	-0.926117	0.254220
H342	H	1.221338	-0.676117	0.504220
H343	H	1.471338	-0.426117	0.754220
H344	H	1.721338	-0.176117	1.004220
H345	H	0.231299	-0.401136	0.437218
H346	H	0.481299	-0.151136	0.687218
H347	H	0.731299	0.098864	0.937218
H348	H	0.981299	0.348864	1.187218
H349	H	0.819912	-0.919311	0.416716
H350	H	1.069912	-0.669311	0.666716
H351	H	1.319912	-0.419311	0.916716
H352	H	1.569912	-0.169311	1.166716
H353	H	0.634937	-0.401236	0.437056
H354	H	0.884937	-0.151236	0.687056
H355	H	1.134937	0.098764	0.937056
H356	H	1.384937	0.348764	1.187056
H357	H	0.793298	-0.586618	0.445094
H358	H	1.043298	-0.336618	0.695094
H359	H	1.293298	-0.086618	0.945094
H360	H	1.543298	0.163382	1.195094
H361	H	0.800482	-0.230401	0.616581
H362	H	1.050482	0.019599	0.866581
H363	H	1.300482	0.269599	1.116581
H364	H	1.550482	0.519599	1.366581
H365	H	0.929422	-0.381449	0.842907
H366	H	1.179422	-0.131449	1.092907
H367	H	1.429422	0.118551	1.342907
H368	H	1.679422	0.368551	1.592907
H369	H	0.112591	-0.401099	0.437270
H370	H	0.362591	-0.151099	0.687270
H371	H	0.612591	0.098901	0.937270
H372	H	0.862591	0.348901	1.187270
H373	H	0.939496	-0.726260	0.288286
H374	H	1.189496	-0.476260	0.538286
H375	H	1.439496	-0.226260	0.788286
H376	H	1.689496	0.023740	1.038286
H377	H	0.933998	-0.812788	0.294244
H378	H	1.183998	-0.562788	0.544244
H379	H	1.433998	-0.312788	0.794244
H380	H	1.683998	-0.062788	1.044244
H381	H	0.939334	-0.393070	0.623564
H382	H	1.189334	-0.143070	0.873564
H383	H	1.439334	0.106930	1.123564
H384	H	1.689334	0.356930	1.373564
H385	H	0.934492	-0.387399	0.756385
H386	H	1.184492	-0.137399	1.006385
H387	H	1.434492	0.112601	1.256385
H388	H	1.684492	0.362601	1.506385
H389	H	0.963613	-0.421547	0.956283
H390	H	1.213613	-0.171547	1.206283
H391	H	1.463613	0.078453	1.456283
H392	H	1.713613	0.328453	1.706283
H393	H	0.958781	-0.415864	1.089113
H394	H	1.208781	-0.165864	1.339113
H395	H	1.458781	0.084136	1.589113
H396	H	1.708781	0.334136	1.839113
H397	H	0.819932	-0.253196	1.082128
H398	H	1.069932	-0.003196	1.332128
H399	H	1.319932	0.246804	1.582128
H400	H	1.569932	0.496804	1.832128
H401	H	0.824772	-0.258865	0.949308
H402	H	1.074772	-0.008865	1.199308
H403	H	1.324772	0.241135	1.449308
H404	H	1.574772	0.491135	1.699308
