data_functionalizedCrystal
_audit_creation_method	'MofGen! by Chris Wilmer'
_symmetry_space_group_name_H-M	'P1'
_symmetry_Int_Tables_number	1
_symmetry_cell_setting	triclinic
loop_
_symmetry_equiv_pos_as_xyz
  x,y,z
_cell_length_a	18.050590
_cell_length_b	14.908780
_cell_length_c	14.908308
_cell_angle_alpha	90.212689
_cell_angle_beta	93.264736
_cell_angle_gamma	86.692378
loop_
_atom_site_label
_atom_site_type_symbol
_atom_site_fract_x
_atom_site_fract_y
_atom_site_fract_z
Zn1	Zn	-0.259785	-1.345323	-0.587856
Zn2	Zn	0.240215	-0.845323	-0.087856
Zn3	Zn	-0.376436	-1.353909	-0.437492
Zn4	Zn	0.123564	-0.853909	0.062508
Zn5	Zn	-0.258978	-1.203637	-0.428824
Zn6	Zn	0.241022	-0.703637	0.071176
Zn7	Zn	-0.390653	-1.194935	-0.579109
Zn8	Zn	0.109347	-0.694935	-0.079109
O9	O	-0.321463	-1.274451	-0.508320
O10	O	0.178537	-0.774451	-0.008320
O11	O	-0.269647	-1.472290	-0.575198
O12	O	0.230353	-0.972290	-0.075198
O13	O	-0.354567	-1.341210	-0.310520
O14	O	0.145433	-0.841210	0.189480
O15	O	-0.155159	-1.222481	-0.449952
O16	O	0.344841	-0.722481	0.050048
O17	O	-0.355350	-1.478597	-0.464727
O18	O	0.144650	-0.978597	0.035273
O19	O	-0.155753	-1.326577	-0.566793
O20	O	0.344247	-0.826577	-0.066793
O21	O	-0.268271	-1.230805	-0.304151
O22	O	0.231729	-0.730805	0.195849
O23	O	-0.282056	-1.076655	-0.441471
O24	O	0.217944	-0.576655	0.058529
O25	O	-0.379580	-1.207650	-0.706092
O26	O	0.120420	-0.707650	-0.206092
O27	O	-0.378797	-1.070262	-0.551885
O28	O	0.121203	-0.570262	-0.051885
O29	O	-0.283432	-1.318139	-0.712519
O30	O	0.216568	-0.818139	-0.212519
O31	O	-0.482247	-1.332772	-0.456245
O32	O	0.017753	-0.832772	0.043755
O33	O	-0.492692	-1.215975	-0.560291
O34	O	0.007308	-0.715975	-0.060291
C35	C	-0.331883	-1.040833	-0.494789
C36	C	0.168117	-0.540833	0.005211
C37	C	-0.336359	-0.940889	-0.489021
C38	C	0.163641	-0.440889	0.010979
C39	C	-0.255667	-0.746503	-0.593393
C40	C	0.244333	-0.246503	-0.093393
C41	C	-0.259871	-0.652597	-0.587977
C42	C	0.240129	-0.152597	-0.087977
C43	C	-0.348966	-0.659168	-0.472769
C44	C	0.151034	-0.159168	0.027231
C45	C	-0.344762	-0.753074	-0.478185
C46	C	0.155238	-0.253074	0.021815
C47	C	-0.298112	-0.796739	-0.538500
C48	C	0.201888	-0.296739	-0.038500
C49	C	-0.293913	-0.890647	-0.543920
C50	C	0.206087	-0.390647	-0.043920
C51	C	-0.383003	-0.897216	-0.428708
C52	C	0.116997	-0.397216	0.071292
C53	C	-0.387207	-0.803310	-0.423292
C54	C	0.112793	-0.303310	0.076708
C55	C	-0.514416	-1.274384	-0.508280
C56	C	-0.014416	-0.774384	-0.008280
C57	C	-0.596960	-1.274436	-0.508298
C58	C	-0.096960	-0.774436	-0.008298
C59	C	-0.790703	-1.338070	-0.451809
C60	C	-0.290703	-0.838070	0.048191
C61	C	-0.843173	-1.355297	-0.535140
C62	C	-0.343173	-0.855297	-0.035140
C63	C	-0.748090	-1.274485	-0.508337
C64	C	-0.248090	-0.774485	-0.008337
C65	C	-0.842699	-1.257347	-0.425048
C66	C	-0.342699	-0.757347	0.074952
C67	C	-0.894074	-1.274534	-0.508367
C68	C	-0.394074	-0.774534	-0.008367
C69	C	-0.799474	-1.291751	-0.591714
C70	C	-0.299474	-0.791751	-0.091714
C71	C	-0.798994	-1.193766	-0.481564
C72	C	-0.298994	-0.693766	0.018436
C73	C	-0.851447	-1.210959	-0.564950
C74	C	-0.351447	-0.710959	-0.064950
C75	C	-0.663992	-1.274459	-0.508319
C76	C	-0.163992	-0.774459	-0.008319
C77	C	-0.978171	-1.274560	-0.508395
C78	C	-0.478171	-0.774560	-0.008395
C79	C	-0.127756	-1.274542	-0.508381
C80	C	0.372244	-0.774542	-0.008381
C81	C	-0.045209	-1.274580	-0.508407
C82	C	0.454791	-0.774580	-0.008407
C83	C	-0.333182	-1.260966	-0.742842
C84	C	0.166818	-0.760966	-0.242842
C85	C	-0.338176	-1.255220	-0.842781
C86	C	0.161824	-0.755220	-0.342781
C87	C	-0.310996	-0.508982	-0.521899
C88	C	0.189004	-0.008982	-0.021899
C89	C	-0.306519	-0.608926	-0.527668
C90	C	0.193481	-0.108926	-0.027668
C91	C	-0.247425	-1.359472	-1.037271
C92	C	0.252575	-0.859472	-0.537271
C93	C	-0.252115	-1.354075	-1.131173
C94	C	0.247885	-0.854075	-0.631173
C95	C	-0.352242	-1.239027	-1.124489
C96	C	0.147758	-0.739027	-0.624489
C97	C	-0.347552	-1.244423	-1.030587
C98	C	0.152448	-0.744423	-0.530587
C99	C	-0.295142	-1.304649	-0.986981
C100	C	0.204858	-0.804649	-0.486981
C101	C	-0.290457	-1.310049	-0.893078
C102	C	0.209543	-0.810049	-0.393078
C103	C	-0.390580	-1.194996	-0.886395
C104	C	0.109420	-0.694996	-0.386395
C105	C	-0.395269	-1.189600	-0.980297
C106	C	0.104731	-0.689600	-0.480297
C107	C	-0.309733	-1.287935	-0.274714
C108	C	0.190267	-0.787935	0.225286
C109	C	-0.304522	-1.293856	-0.174785
C110	C	0.195478	-0.793856	0.325215
H111	H	-0.255929	-0.926196	-0.593033
H112	H	0.244071	-0.426196	-0.093033
H113	H	-0.204755	-1.408514	-1.001767
H114	H	0.295245	-0.908514	-0.501767
Cl115	Cl	-0.873254	-1.460722	-0.570147
Cl116	Cl	-0.373254	-0.960722	-0.070147
Cl117	Cl	-0.768873	-1.088372	-0.446541
Cl118	Cl	-0.268873	-0.588372	0.053459
H119	H	-0.417571	-0.938128	-0.384017
H120	H	0.082429	-0.438128	0.115983
H121	H	-0.861788	-1.242831	-0.354599
H122	H	-0.361788	-0.742831	0.145401
Cl123	Cl	-0.770144	-1.314300	-0.700518
Cl124	Cl	-0.270144	-0.814300	-0.200518
Cl125	Cl	-0.445847	-0.748409	-0.347469
Cl126	Cl	0.054153	-0.248409	0.152531
H127	H	-0.247783	-1.359089	-0.857576
H128	H	0.252217	-0.859089	-0.357576
Cl129	Cl	-0.197031	-0.801398	-0.669224
Cl130	Cl	0.302969	-0.301398	-0.169224
Cl131	Cl	-0.192123	-1.422998	-1.194392
Cl132	Cl	0.307877	-0.922998	-0.694392
H133	H	-0.394910	-1.189994	-1.160009
H134	H	0.105090	-0.689994	-0.660009
Cl135	Cl	-0.892137	-1.127967	-0.638861
Cl136	Cl	-0.392137	-0.627967	-0.138861
Cl137	Cl	-0.450579	-1.126081	-0.823169
Cl138	Cl	0.049421	-0.626081	-0.323169
Cl139	Cl	-0.206508	-0.589446	-0.656987
Cl140	Cl	0.293492	-0.089446	-0.156987
Cl141	Cl	-0.407597	-0.604261	-0.396940
Cl142	Cl	0.092403	-0.104261	0.103060
H143	H	-0.437938	-1.140564	-1.015813
H144	H	0.062062	-0.640564	-0.515813
Cl145	Cl	-0.749809	-1.421107	-0.378085
Cl146	Cl	-0.249809	-0.921107	0.121915
