data_functionalizedCrystal
_audit_creation_method	'MofGen! by Chris Wilmer'
_symmetry_space_group_name_H-M	'P1'
_symmetry_Int_Tables_number	1
_symmetry_cell_setting	triclinic
loop_
_symmetry_equiv_pos_as_xyz
  x,y,z
_cell_length_a	27.732048
_cell_length_b	27.732048
_cell_length_c	26.809956
_cell_angle_alpha	89.999364
_cell_angle_beta	89.996742
_cell_angle_gamma	82.642655
loop_
_atom_site_label
_atom_site_type_symbol
_atom_site_fract_x
_atom_site_fract_y
_atom_site_fract_z
O1	O	0.640931	0.057510	-0.041421
O2	O	0.974264	0.390843	0.291913
O3	O	1.307598	0.724177	0.625246
O4	O	0.500138	0.066256	-0.041436
O5	O	0.833471	0.399589	0.291897
O6	O	1.166804	0.732922	0.625230
O7	O	0.574907	-0.008514	-0.041419
O8	O	0.908240	0.324820	0.291915
O9	O	1.241574	0.658153	0.625248
O10	O	0.566162	0.132280	-0.041439
O11	O	0.899495	0.465613	0.291895
O12	O	1.232828	0.798946	0.625228
O13	O	0.574893	-0.008502	0.041541
O14	O	0.908226	0.324831	0.374874
O15	O	1.241560	0.658164	0.708207
O16	O	0.500123	0.066267	0.041523
O17	O	0.833457	0.399600	0.374856
O18	O	1.166790	0.732934	0.708189
O19	O	0.640917	0.057522	0.041539
O20	O	0.974250	0.390855	0.374872
O21	O	1.307584	0.724188	0.708205
Zn22	Zn	0.570518	0.061896	0.054702
Zn23	Zn	0.903851	0.395229	0.388036
Zn24	Zn	1.237185	0.728563	0.721369
Zn25	Zn	0.570536	0.061881	-0.054600
Zn26	Zn	0.903870	0.395214	0.278733
Zn27	Zn	1.237203	0.728548	0.612067
O28	O	0.566147	0.132291	0.041521
O29	O	0.899481	0.465624	0.374854
O30	O	1.232814	0.798958	0.708187
C31	C	0.574716	-0.026515	0.000062
C32	C	0.908050	0.306818	0.333396
C33	C	1.241383	0.640152	0.666729
C34	C	0.574164	-0.080170	0.000066
C35	C	0.907497	0.253163	0.333400
C36	C	1.240830	0.586497	0.666733
C37	C	0.482124	0.066078	0.000041
C38	C	0.815457	0.399411	0.333375
C39	C	1.148790	0.732744	0.666708
C40	C	0.428469	0.065525	0.000036
C41	C	0.761802	0.398858	0.333369
C42	C	1.095135	0.732192	0.666702
C43	C	0.614867	-0.418985	0.000045
C44	C	0.948201	-0.085652	0.333379
C45	C	1.281534	0.247682	0.666712
C46	C	0.612816	-0.620645	0.000038
C47	C	0.946150	-0.287311	0.333372
C48	C	1.279483	0.046022	0.666705
O49	O	0.650037	-0.651900	0.000021
O50	O	0.983370	-0.318567	0.333354
O51	O	1.316704	0.014766	0.666687
N52	N	0.568481	-0.639768	0.000034
N53	N	0.901814	-0.306435	0.333367
N54	N	1.235148	0.026898	0.666700
C55	C	0.524656	-0.608474	0.000028
C56	C	0.857989	-0.275140	0.333361
C57	C	1.191322	0.058193	0.666694
O58	O	0.486899	-0.629367	0.000019
O59	O	0.820232	-0.296033	0.333352
O60	O	1.153565	0.037300	0.666685
C61	C	0.526707	-0.406815	0.000031
C62	C	0.860040	-0.073482	0.333365
C63	C	1.193374	0.259852	0.666698
C64	C	0.571045	-0.387694	0.000041
C65	C	0.904378	-0.054361	0.333374
C66	C	1.237712	0.278972	0.666708
C67	C	0.659202	-0.399864	0.000054
C68	C	0.992535	-0.066530	0.333388
C69	C	1.325868	0.266803	0.666721
C70	C	0.659714	-0.349452	0.000059
C71	C	0.993047	-0.016118	0.333392
C72	C	1.326381	0.317215	0.666726
C73	C	0.615892	-0.318161	0.000054
C74	C	0.949225	0.015172	0.333388
C75	C	1.282559	0.348506	0.666721
C76	C	0.571557	-0.337282	0.000045
C77	C	0.904891	-0.003949	0.333379
C78	C	1.238224	0.329384	0.666712
C79	C	0.482882	-0.375521	0.000022
C80	C	0.816215	-0.042188	0.333355
C81	C	1.149549	0.291145	0.666688
C82	C	0.483399	-0.325104	0.000021
C83	C	0.816732	0.008229	0.333355
C84	C	1.150066	0.341563	0.666688
C85	C	0.527737	-0.305983	0.000031
C86	C	0.861070	0.027350	0.333364
C87	C	1.194404	0.360683	0.666698
C88	C	0.528247	-0.255580	0.000045
C89	C	0.861581	0.077754	0.333379
C90	C	1.194914	0.411087	0.666712
N91	N	0.572583	-0.236456	0.000050
N92	N	0.905916	0.096877	0.333383
N93	N	1.239249	0.430211	0.666717
C94	C	0.616405	-0.267747	0.000054
C95	C	0.949738	0.065587	0.333388
C96	C	1.283072	0.398920	0.666721
C97	C	0.523582	-0.714348	0.000027
C98	C	0.856915	-0.381014	0.333360
C99	C	1.190248	-0.047681	0.666693
C100	C	0.523069	-0.764762	0.000027
C101	C	0.856402	-0.431429	0.333360
C102	C	1.189735	-0.098096	0.666693
C103	C	0.611230	-0.776930	0.000036
C104	C	0.944563	-0.443596	0.333370
C105	C	1.277896	-0.110263	0.666703
C106	C	0.611742	-0.726514	0.000040
C107	C	0.945075	-0.393181	0.333373
C108	C	1.278409	-0.059848	0.666707
C109	C	0.567917	-0.695224	0.000031
C110	C	0.901250	-0.361891	0.333365
C111	C	1.234583	-0.028557	0.666698
C112	C	0.617477	-0.161878	0.000064
C113	C	0.950811	0.171456	0.333398
C114	C	1.284144	0.504789	0.666731
C115	C	0.617986	-0.111461	0.000071
C116	C	0.951319	0.221873	0.333404
C117	C	1.284652	0.555206	0.666738
C118	C	0.529825	-0.099298	0.000059
C119	C	0.863158	0.234036	0.333392
C120	C	1.196492	0.567369	0.666725
C121	C	0.529316	-0.149710	0.000055
C122	C	0.862650	0.183623	0.333388
C123	C	1.195983	0.516957	0.666721
C124	C	0.573147	-0.180999	0.000056
C125	C	0.906480	0.152334	0.333389
C126	C	1.239813	0.485667	0.666723
O127	O	0.491047	-0.224296	0.000057
O128	O	0.824380	0.109038	0.333391
O129	O	1.157713	0.442371	0.666724
O130	O	0.654156	-0.246844	0.000053
O131	O	0.987490	0.086489	0.333386
O132	O	1.320823	0.419823	0.666719
C133	C	0.614355	-0.469397	0.000041
C134	C	0.947688	-0.136064	0.333374
C135	C	1.281022	0.197270	0.666708
C136	C	0.570021	-0.488518	0.000032
C137	C	0.903354	-0.155185	0.333365
C138	C	1.236687	0.178148	0.666699
C139	C	0.526198	-0.457228	0.000027
C140	C	0.859532	-0.123894	0.333361
C141	C	1.192865	0.209439	0.666694
C142	C	0.569508	-0.538933	0.000032
C143	C	0.902841	-0.205599	0.333365
C144	C	1.236174	0.127734	0.666699
C145	C	0.613330	-0.570223	0.000036
C146	C	0.946663	-0.236890	0.333370
C147	C	1.279996	0.096443	0.666703
C148	C	0.657665	-0.551100	0.000041
C149	C	0.990998	-0.217766	0.333374
C150	C	1.324332	0.115567	0.666708
C151	C	0.658177	-0.500688	0.000045
C152	C	0.991511	-0.167354	0.333379
C153	C	1.324844	0.165979	0.666712
C154	C	0.481863	-0.476351	0.000023
C155	C	0.815197	-0.143018	0.333356
C156	C	1.148530	0.190315	0.666690
C157	C	0.481355	-0.526764	0.000019
C158	C	0.814688	-0.193430	0.333352
C159	C	1.148021	0.139903	0.666686
C160	C	0.525177	-0.558054	0.000023
C161	C	0.858510	-0.224721	0.333357
C162	C	1.191843	0.108612	0.666690
C163	C	0.089654	0.106229	0.000051
C164	C	0.422987	0.439562	0.333385
C165	C	0.756320	0.772895	0.666718
C166	C	-0.112006	0.104178	0.000056
C167	C	0.221327	0.437511	0.333390
C168	C	0.554661	0.770844	0.666723
O169	O	-0.143262	0.141398	0.000073
O170	O	0.190072	0.474732	0.333406
O171	O	0.523405	0.808065	0.666739
N172	N	-0.131130	0.059843	0.000062
N173	N	0.202204	0.393176	0.333395
N174	N	0.535537	0.726509	0.666728
C175	C	-0.099835	0.016017	0.000069
C176	C	0.233498	0.349350	0.333402
C177	C	0.566832	0.682684	0.666736
O178	O	-0.120728	-0.021740	0.000079
O179	O	0.212605	0.311593	0.333412
O180	O	0.545938	0.644927	0.666746
C181	C	0.101824	0.018068	0.000068
C182	C	0.435157	0.351402	0.333401
C183	C	0.768490	0.684735	0.666735
C184	C	0.120944	0.062407	0.000057
C185	C	0.454278	0.395740	0.333391
C186	C	0.787611	0.729073	0.666724
C187	C	0.108775	0.150563	0.000042
C188	C	0.442108	0.483897	0.333375
C189	C	0.775442	0.817230	0.666708
C190	C	0.159187	0.151076	0.000038
C191	C	0.492520	0.484409	0.333371
C192	C	0.825853	0.817742	0.666704
C193	C	0.190477	0.107253	0.000044
C194	C	0.523811	0.440587	0.333377
C195	C	0.857144	0.773920	0.666710
C196	C	0.171356	0.062919	0.000054
C197	C	0.504690	0.396252	0.333387
C198	C	0.838023	0.729585	0.666720
C199	C	0.133117	-0.025757	0.000079
C200	C	0.466451	0.307577	0.333412
C201	C	0.799784	0.640910	0.666746
C202	C	0.183535	-0.025240	0.000080
C203	C	0.516868	0.308094	0.333413
C204	C	0.850201	0.641427	0.666747
C205	C	0.202655	0.019098	0.000069
C206	C	0.535989	0.352432	0.333403
C207	C	0.869322	0.685765	0.666736
C208	C	0.253059	0.019609	0.000056
C209	C	0.586392	0.352942	0.333389
C210	C	0.919725	0.686276	0.666722
N211	N	0.272183	0.063944	0.000050
N212	N	0.605516	0.397277	0.333384
N213	N	0.938849	0.730611	0.666717
C214	C	0.240892	0.107766	0.000044
C215	C	0.574225	0.441100	0.333378
C216	C	0.907559	0.774433	0.666711
C217	C	-0.205709	0.014943	0.000069
C218	C	0.127624	0.348276	0.333402
C219	C	0.460957	0.681610	0.666735
C220	C	-0.256124	0.014430	0.000068
C221	C	0.077210	0.347763	0.333401
C222	C	0.410543	0.681097	0.666735
C223	C	-0.268291	0.102591	0.000056
C224	C	0.065042	0.435924	0.333390
C225	C	0.398376	0.769258	0.666723
C226	C	-0.217876	0.103104	0.000053
C227	C	0.115458	0.436437	0.333387
C228	C	0.448791	0.769770	0.666720
C229	C	-0.186585	0.059278	0.000063
C230	C	0.146748	0.392612	0.333397
C231	C	0.480081	0.725945	0.666730
C232	C	0.346761	0.108839	0.000036
C233	C	0.680094	0.442172	0.333369
C234	C	1.013428	0.775505	0.666702
C235	C	0.397178	0.109347	0.000030
C236	C	0.730511	0.442681	0.333363
C237	C	1.063845	0.776014	0.666696
C238	C	0.409341	0.021186	0.000044
C239	C	0.742674	0.354520	0.333378
C240	C	1.076008	0.687853	0.666711
C241	C	0.358929	0.020678	0.000048
C242	C	0.692262	0.354011	0.333381
C243	C	1.025595	0.687344	0.666714
C244	C	0.327639	0.064508	0.000045
C245	C	0.660973	0.397841	0.333378
C246	C	0.994306	0.731175	0.666712
O247	O	0.284343	-0.017592	0.000045
O248	O	0.617676	0.315741	0.333378
O249	O	0.951009	0.649075	0.666712
O250	O	0.261794	0.145518	0.000045
O251	O	0.595128	0.478851	0.333379
O252	O	0.928461	0.812184	0.666712
C253	C	0.039242	0.105716	0.000055
C254	C	0.372575	0.439050	0.333389
C255	C	0.705908	0.772383	0.666722
C256	C	0.020120	0.061382	0.000065
C257	C	0.353454	0.394715	0.333399
C258	C	0.686787	0.728049	0.666732
C259	C	0.051411	0.017560	0.000071
C260	C	0.384744	0.350893	0.333405
C261	C	0.718078	0.684226	0.666738
C262	C	-0.030294	0.060869	0.000065
C263	C	0.303039	0.394202	0.333398
C264	C	0.636373	0.727536	0.666731
C265	C	-0.061585	0.104691	0.000059
C266	C	0.271749	0.438025	0.333392
C267	C	0.605082	0.771358	0.666725
C268	C	-0.042461	0.149026	0.000053
C269	C	0.290872	0.482360	0.333387
C270	C	0.624206	0.815693	0.666720
C271	C	0.007951	0.149539	0.000049
C272	C	0.341284	0.482872	0.333383
C273	C	0.674618	0.816205	0.666716
C274	C	0.032287	-0.026775	0.000077
C275	C	0.365621	0.306558	0.333410
C276	C	0.698954	0.639891	0.666743
C277	C	-0.018125	-0.027284	0.000080
C278	C	0.315208	0.306049	0.333413
C279	C	0.648541	0.639383	0.666747
C280	C	-0.049416	0.016538	0.000074
C281	C	0.283917	0.349871	0.333407
C282	C	0.617251	0.683205	0.666741
C283	C	0.658931	0.057699	0.000060
C284	C	0.992264	0.391033	0.333393
C285	C	1.325598	0.724366	0.666726
C286	C	0.712586	0.058252	0.000062
C287	C	1.045919	0.391586	0.333395
C288	C	1.379252	0.724919	0.666729
C289	C	0.566338	0.150292	0.000039
C290	C	0.899671	0.483626	0.333372
C291	C	1.233005	0.816959	0.666705
C292	C	0.566891	0.203947	0.000031
C293	C	0.900224	0.537280	0.333365
C294	C	1.233557	0.870614	0.666698
N295	N	0.570509	0.061906	0.129298
N296	N	0.903842	0.395239	0.462632
N297	N	1.237175	0.728573	0.795965
N298	N	0.570549	0.061867	-0.129196
N299	N	0.903883	0.395201	0.204137
N300	N	1.237216	0.728534	0.537471
C301	C	0.603640	0.028781	0.473932
C302	C	0.936973	0.362115	0.807266
C303	C	1.270307	0.695448	1.140599
C304	C	0.603652	0.028774	0.682810
C305	C	0.936985	0.362107	1.016143
C306	C	1.270318	0.695441	1.349477
O307	O	0.631801	0.000613	0.709820
O308	O	0.965135	0.333946	1.043154
O309	O	1.298468	0.667280	1.376487
N310	N	0.570539	0.061870	0.708925
N311	N	0.903873	0.395204	1.042259
N312	N	1.237206	0.728537	1.375592
C313	C	0.537419	0.094969	0.682818
C314	C	0.870753	0.428302	1.016151
C315	C	1.204086	0.761636	1.349485
O316	O	0.509252	0.123116	0.709824
O317	O	0.842585	0.456450	1.043157
O318	O	1.175919	0.789783	1.376490
C319	C	0.537406	0.094974	0.473941
C320	C	0.870739	0.428307	0.807275
C321	C	1.204073	0.761640	1.140608
C322	C	0.570524	0.061878	0.447829
C323	C	0.903857	0.395212	0.781162
C324	C	1.237191	0.728545	1.114495
C325	C	0.636755	-0.004312	0.447819
C326	C	0.970088	0.329022	0.781153
C327	C	1.303422	0.662355	1.114486
C328	C	0.636754	-0.004308	0.395603
C329	C	0.970087	0.329025	0.728936
C330	C	1.303420	0.662359	1.062270
C331	C	0.603637	0.028789	0.369500
C332	C	0.936971	0.362123	0.702833
C333	C	1.270304	0.695456	1.036166
C334	C	0.570522	0.061882	0.395612
C335	C	0.903856	0.395216	0.728946
C336	C	1.237189	0.728549	1.062279
C337	C	0.504284	0.128070	0.447835
C338	C	0.837618	0.461403	0.781168
C339	C	1.170951	0.794736	1.114502
C340	C	0.504283	0.128067	0.395613
C341	C	0.837616	0.461401	0.728946
C342	C	1.170950	0.794734	1.062279
C343	C	0.537401	0.094972	0.369500
C344	C	0.870734	0.428305	0.702833
C345	C	1.204068	0.761638	1.036167
C346	C	0.537405	0.094983	0.317293
C347	C	0.870738	0.428317	0.650626
C348	C	1.204071	0.761650	0.983959
N349	N	0.570517	0.061887	0.291177
N350	N	0.903850	0.395220	0.624510
N351	N	1.237184	0.728553	0.957844
C352	C	0.603633	0.028790	0.317281
C353	C	0.936967	0.362123	0.650614
C354	C	1.270300	0.695456	0.983947
C355	C	0.537429	0.094965	0.792481
C356	C	0.870763	0.428298	1.125815
C357	C	1.204096	0.761632	1.459148
C358	C	0.537433	0.094964	0.844700
C359	C	0.870767	0.428298	1.178034
C360	C	1.204100	0.761631	1.511367
C361	C	0.603665	0.028768	0.844689
C362	C	0.936998	0.362102	1.178022
C363	C	1.270332	0.695435	1.511355
C364	C	0.603663	0.028772	0.792469
C365	C	0.936996	0.362105	1.125802
C366	C	1.270330	0.695438	1.459135
C367	C	0.570542	0.061868	0.766366
C368	C	0.903875	0.395202	1.099699
C369	C	1.237209	0.728535	1.433033
C370	C	0.603628	0.028801	0.207623
C371	C	0.936961	0.362134	0.540956
C372	C	1.270295	0.695467	0.874289
C373	C	0.603625	0.028809	0.155402
C374	C	0.936958	0.362142	0.488735
C375	C	1.270292	0.695476	0.822068
C376	C	0.537392	0.095003	0.155418
C377	C	0.870725	0.428336	0.488751
C378	C	1.204058	0.761670	0.822085
C379	C	0.537396	0.094997	0.207635
C380	C	0.870730	0.428330	0.540968
C381	C	1.204063	0.761663	0.874301
C382	C	0.570516	0.061892	0.233735
C383	C	0.903850	0.395225	0.567069
C384	C	1.237183	0.728558	0.900402
O385	O	0.509266	0.123126	0.290250
O386	O	0.842599	0.456459	0.623583
O387	O	1.175933	0.789792	0.956916
O388	O	0.631789	0.000640	0.290266
O389	O	0.965123	0.333973	0.623599
O390	O	1.298456	0.667306	0.956933
C391	C	0.603642	0.028777	0.526149
C392	C	0.936975	0.362111	0.859482
C393	C	1.270308	0.695444	1.192815
C394	C	0.570527	0.061870	0.552261
C395	C	0.903860	0.395204	0.885595
C396	C	1.237193	0.728537	1.218928
C397	C	0.537410	0.094968	0.526158
C398	C	0.870744	0.428301	0.859491
C399	C	1.204077	0.761634	1.192824
C400	C	0.570531	0.061870	0.604480
C401	C	0.903864	0.395203	0.937814
C402	C	1.237197	0.728537	1.271147
C403	C	0.603647	0.028773	0.630584
C404	C	0.936980	0.362106	0.963917
C405	C	1.270314	0.695440	1.297250
C406	C	0.636759	-0.004324	0.604468
C407	C	0.970093	0.329010	0.937802
C408	C	1.303426	0.662343	1.271135
C409	C	0.636758	-0.004320	0.552252
C410	C	0.970091	0.329014	0.885585
C411	C	1.303425	0.662347	1.218919
C412	C	0.504298	0.128064	0.552273
C413	C	0.837631	0.461397	0.885606
C414	C	1.170965	0.794731	1.218940
C415	C	0.504303	0.128058	0.604489
C416	C	0.837636	0.461391	0.937823
C417	C	1.170969	0.794724	1.271156
C418	C	0.537419	0.094961	0.630593
C419	C	0.870752	0.428294	0.963926
C420	C	1.204086	0.761627	1.297260
H421	H	0.653168	-0.187348	0.000063
H422	H	0.986501	0.145985	0.333397
H423	H	1.319835	0.479319	0.666730
N424	N	0.028564	0.197364	0.000043
N425	N	0.361898	0.530697	0.333376
N426	N	0.695231	0.864030	0.666709
H427	H	0.049208	0.199550	0.030795
H428	H	0.382541	0.532883	0.364128
H429	H	0.715874	0.866217	0.697461
H430	H	0.049186	0.199515	-0.030732
H431	H	0.382520	0.532848	0.302602
H432	H	0.715853	0.866181	0.635935
H433	H	-0.033688	-0.063392	0.000085
H434	H	0.299645	0.269941	0.333418
H435	H	0.632979	0.603275	0.666751
H436	H	0.647846	-0.710950	0.000047
H437	H	0.981179	-0.377617	0.333381
H438	H	1.314513	-0.044283	0.666714
N439	N	0.672470	-0.040007	0.367441
N440	N	1.005803	0.293327	0.700775
N441	N	1.339137	0.626660	1.034108
H442	H	0.706734	-0.034677	0.376529
H443	H	1.040067	0.298656	0.709862
H444	H	1.373400	0.631990	1.043195
H445	H	0.667116	-0.074259	0.376544
H446	H	1.000449	0.259074	0.709878
H447	H	1.333782	0.592408	1.043211
H448	H	0.445246	-0.542327	0.000015
H449	H	0.778580	-0.208993	0.333349
H450	H	1.111913	0.124340	0.666682
H451	H	0.486964	-0.780325	0.000028
H452	H	0.820297	-0.446992	0.333361
H453	H	1.153631	-0.113659	0.666694
N454	N	0.501675	0.130699	0.127259
N455	N	0.835008	0.464033	0.460592
N456	N	1.168341	0.797366	0.793925
H457	H	0.506700	0.125675	0.090217
H458	H	0.840034	0.459008	0.423550
H459	H	1.173367	0.792342	0.756883
H460	H	0.467428	0.125347	0.136389
H461	H	0.800761	0.458680	0.469722
H462	H	1.134095	0.792013	0.803055
N463	N	0.468576	0.163754	0.632649
N464	N	0.801910	0.497087	0.965983
N465	N	1.135243	0.830420	1.299316
H466	H	0.473597	0.158732	0.669692
H467	H	0.806930	0.492065	1.003025
H468	H	1.140264	0.825399	1.336358
H469	H	0.473898	0.198010	0.623523
H470	H	0.807231	0.531343	0.956857
H471	H	1.140565	0.864676	1.290190
H472	H	0.663722	-0.031266	0.469068
H473	H	0.997056	0.302068	0.802402
H474	H	1.330389	0.635401	1.135735
H475	H	0.117558	-0.061861	0.000088
H476	H	0.450892	0.271472	0.333421
H477	H	0.784225	0.604805	0.666755
N478	N	0.217283	-0.072510	0.000094
N479	N	0.550617	0.260824	0.333427
N480	N	0.883950	0.594157	0.666761
H481	H	0.197517	-0.100672	0.000101
H482	H	0.530850	0.232661	0.333435
H483	H	0.864183	0.565995	0.666768
H484	H	0.238467	-0.074226	-0.030660
H485	H	0.571801	0.259108	0.302673
H486	H	0.905134	0.592441	0.636006
N487	N	0.501686	0.130699	0.235803
N488	N	0.835019	0.464032	0.569136
N489	N	1.168352	0.797366	0.902469
H490	H	0.480709	0.151668	0.211340
H491	H	0.814042	0.485002	0.544674
H492	H	1.147376	0.818335	0.878007
H493	H	0.480454	0.112340	0.257468
H494	H	0.813787	0.445674	0.590802
H495	H	1.147121	0.779007	0.924135
N496	N	0.468575	0.163761	0.524123
N497	N	0.801909	0.497094	0.857456
N498	N	1.135242	0.830428	1.190789
H499	H	0.447601	0.184723	0.548595
H500	H	0.780934	0.518057	0.881928
H501	H	1.114268	0.851390	1.215261
H502	H	0.486916	0.185008	0.502456
H503	H	0.820250	0.518341	0.835790
H504	H	1.153583	0.851675	1.169123
N505	N	-0.276744	-0.033391	0.000070
N506	N	0.056589	0.299942	0.333404
N507	N	0.389923	0.633275	0.666737
H508	H	-0.249267	-0.061072	0.000076
H509	H	0.084066	0.272261	0.333409
H510	H	0.417399	0.605595	0.666742
H511	H	-0.297398	-0.035522	0.030825
H512	H	0.035936	0.297811	0.364158
H513	H	0.369269	0.631145	0.697492
H514	H	0.630630	0.001820	0.865951
H515	H	0.963964	0.335153	1.199284
H516	H	1.297297	0.668487	1.532617
N517	N	0.672470	-0.040021	0.524088
N518	N	1.005804	0.293313	0.857422
N519	N	1.339137	0.626646	1.190755
H520	H	0.693735	-0.021700	0.502420
H521	H	1.027069	0.311634	0.835753
H522	H	1.360402	0.644967	1.169086
H523	H	0.693414	-0.060979	0.548584
H524	H	1.026747	0.272354	0.881917
H525	H	1.360080	0.605688	1.215251
N526	N	0.658496	-0.810684	0.000043
N527	N	0.991829	-0.477350	0.333376
N528	N	1.325163	-0.144017	0.666709
H529	H	0.651439	-0.845521	0.000041
H530	H	0.984772	-0.512187	0.333374
H531	H	1.318106	-0.178854	0.666708
H532	H	0.677838	-0.804531	-0.030711
H533	H	1.011171	-0.471197	0.302622
H534	H	1.344504	-0.137864	0.635956
H535	H	0.510471	0.121919	0.865958
H536	H	0.843804	0.455252	1.199291
H537	H	1.177137	0.788585	1.532624
N538	N	0.672481	-0.040020	0.632628
N539	N	1.005814	0.293314	0.965961
N540	N	1.339147	0.626647	1.299295
H541	H	0.667453	-0.034996	0.669670
H542	H	1.000786	0.298337	1.003003
H543	H	1.334119	0.631671	1.336336
H544	H	0.667155	-0.074274	0.623502
H545	H	1.000488	0.259059	0.956836
H546	H	1.333821	0.592393	1.290169
H547	H	0.321291	0.144530	0.000035
H548	H	0.654624	0.477863	0.333368
H549	H	0.987957	0.811196	0.666702
N550	N	-0.171963	-0.032329	0.000082
N551	N	0.161370	0.301005	0.333415
N552	N	0.494703	0.634338	0.666749
H553	H	-0.191733	-0.060489	0.000085
H554	H	0.141600	0.272845	0.333418
H555	H	0.474934	0.606178	0.666751
H556	H	-0.150777	-0.034045	-0.030671
H557	H	0.182556	0.299289	0.302662
H558	H	0.515889	0.632622	0.635996
N559	N	0.481495	-0.170333	0.000048
N560	N	0.814828	0.163000	0.333381
N561	N	1.148161	0.496333	0.666715
H562	H	0.479322	-0.190975	-0.030709
H563	H	0.812656	0.142358	0.302625
H564	H	1.145989	0.475692	0.635958
H565	H	0.479339	-0.190959	0.030818
H566	H	0.812672	0.142374	0.364151
H567	H	1.146006	0.475707	0.697485
N568	N	0.476311	-0.680600	0.000021
N569	N	0.809645	-0.347267	0.333355
N570	N	1.142978	-0.013933	0.666688
H571	H	0.456955	-0.686717	-0.030732
H572	H	0.790289	-0.353383	0.302601
H573	H	1.123622	-0.020050	0.635934
H574	H	0.456988	-0.686733	0.030794
H575	H	0.790321	-0.353399	0.364127
H576	H	1.123655	-0.020066	0.697461
N577	N	0.665809	-0.090838	0.000084
N578	N	0.999143	0.242496	0.333417
N579	N	1.332476	0.575829	0.666751
H580	H	0.693491	-0.118313	0.000085
H581	H	1.026825	0.215020	0.333418
H582	H	1.360158	0.548354	0.666752
H583	H	0.667949	-0.070183	-0.030667
H584	H	1.001283	0.263150	0.302666
H585	H	1.334616	0.596483	0.635999
H586	H	0.434827	-0.014492	0.000047
H587	H	0.768160	0.318841	0.333381
H588	H	1.101494	0.652174	0.666714
N589	N	0.707536	-0.328832	0.000068
N590	N	1.040869	0.004501	0.333401
N591	N	1.374203	0.337834	0.666734
H592	H	0.735215	-0.356310	0.000069
H593	H	1.068549	-0.022977	0.333402
H594	H	1.401882	0.310356	0.666735
H595	H	0.709676	-0.308181	-0.030686
H596	H	1.043010	0.025153	0.302647
H597	H	1.376343	0.358486	0.635981
H598	H	0.694889	-0.425336	0.000056
H599	H	1.028223	-0.092003	0.333390
H600	H	1.361556	0.241330	0.666723
N601	N	0.435060	-0.396136	0.000018
N602	N	0.768393	-0.062803	0.333351
N603	N	1.101726	0.270530	0.666684
H604	H	0.407381	-0.368657	0.000014
H605	H	0.740714	-0.035324	0.333347
H606	H	1.074048	0.298009	0.666681
H607	H	0.432927	-0.416788	-0.030736
H608	H	0.766261	-0.083455	0.302597
H609	H	1.099594	0.249879	0.635930
N610	N	0.338302	-0.027142	0.000049
N611	N	0.671635	0.306191	0.333383
N612	N	1.004968	0.639525	0.666716
H613	H	0.365776	-0.054825	0.000050
H614	H	0.699109	0.278508	0.333383
H615	H	1.032443	0.611842	0.666717
H616	H	0.317651	-0.029272	0.030807
H617	H	0.650985	0.304061	0.364140
H618	H	0.984318	0.637394	0.697473
H619	H	0.630597	0.001843	0.228868
H620	H	0.963930	0.335176	0.562202
H621	H	1.297264	0.668510	0.895535
H622	H	0.174750	0.187180	0.000029
H623	H	0.508083	0.520513	0.333362
H624	H	0.841417	0.853847	0.666696
N625	N	0.704932	-0.584852	0.000042
N626	N	1.038266	-0.251519	0.333376
N627	N	1.371599	0.081815	0.666709
H628	H	0.724290	-0.578744	0.030798
H629	H	1.057623	-0.245411	0.364131
H630	H	1.390957	0.087923	0.697464
H631	H	0.697836	-0.619675	0.000019
H632	H	1.031170	-0.286342	0.333353
H633	H	1.364503	0.046991	0.666686
N634	N	0.436129	-0.291355	0.000010
N635	N	0.769462	0.041978	0.333343
N636	N	1.102796	0.375311	0.666676
H637	H	0.407967	-0.311122	0.000003
H638	H	0.741300	0.022211	0.333337
H639	H	1.074633	0.355545	0.666670
H640	H	0.434412	-0.270174	0.030765
H641	H	0.767746	0.063159	0.364098
H642	H	1.101079	0.396493	0.697431
N643	N	0.482561	-0.065544	0.000067
N644	N	0.815895	0.267790	0.333401
N645	N	1.149228	0.601123	0.666734
H646	H	0.489618	-0.030706	0.000073
H647	H	0.822951	0.302627	0.333406
H648	H	1.156285	0.635960	0.666740
H649	H	0.463222	-0.071690	-0.030687
H650	H	0.796555	0.261643	0.302646
H651	H	1.129889	0.594976	0.635979
N652	N	0.501705	0.130671	0.764337
N653	N	0.835038	0.464004	1.097671
N654	N	1.168371	0.797337	1.431004
H655	H	0.520011	0.151949	0.742670
H656	H	0.853345	0.485283	1.076003
H657	H	1.186678	0.818616	1.409336
H658	H	0.480443	0.112317	0.742704
H659	H	0.813776	0.445651	1.076037
H660	H	1.147110	0.778984	1.409370
H661	H	-0.067947	0.184708	0.000046
H662	H	0.265386	0.518041	0.333380
H663	H	0.598720	0.851375	0.666713
N664	N	0.705998	-0.480067	0.000050
N665	N	1.039332	-0.146733	0.333383
N666	N	1.372665	0.186600	0.666717
H667	H	0.708175	-0.459423	0.030804
H668	H	1.041508	-0.126090	0.364138
H669	H	1.374842	0.207244	0.697471
H670	H	0.733650	-0.507570	0.000033
H671	H	1.066984	-0.174237	0.333366
H672	H	1.400317	0.159096	0.666699
N673	N	0.434595	-0.442606	0.000018
N674	N	0.767929	-0.109272	0.333351
N675	N	1.101262	0.224061	0.666684
H676	H	0.406435	-0.462375	0.000014
H677	H	0.739768	-0.129042	0.333347
H678	H	1.073102	0.204292	0.666681
H679	H	0.432881	-0.421426	0.030774
H680	H	0.766215	-0.088093	0.364107
H681	H	1.099548	0.245240	0.697441
H682	H	0.083302	0.186251	0.000038
H683	H	0.416636	0.519584	0.333372
H684	H	0.749969	0.852917	0.666705
H685	H	0.412743	0.145454	0.000021
H686	H	0.746076	0.478787	0.333354
H687	H	1.079410	0.812121	0.666687
H688	H	-0.202311	0.139207	0.000047
H689	H	0.131022	0.472541	0.333381
H690	H	0.464355	0.805874	0.666714
H691	H	0.057760	-0.062462	0.000083
H692	H	0.391093	0.270872	0.333416
H693	H	0.724427	0.604205	0.666749
H694	H	-0.293777	0.138273	0.000051
H695	H	0.039557	0.471606	0.333385
H696	H	0.372890	0.804939	0.666718
N697	N	0.468556	0.163763	0.367459
N698	N	0.801890	0.497096	0.700793
N699	N	1.135223	0.830430	1.034126
H700	H	0.447579	0.184726	0.391929
H701	H	0.780913	0.518059	0.725262
H702	H	1.114246	0.851392	1.058595
H703	H	0.486896	0.185010	0.345792
H704	H	0.820230	0.518344	0.679126
H705	H	1.153563	0.851677	1.012459
H706	H	0.630595	0.001859	0.134142
H707	H	0.963929	0.335192	0.467476
H708	H	1.297262	0.668525	0.800809
H709	H	0.630630	0.001822	0.771211
H710	H	0.963964	0.335156	1.104544
H711	H	1.297297	0.668489	1.437877
H712	H	0.477317	0.155019	0.469089
H713	H	0.810650	0.488352	0.802422
H714	H	1.143983	0.821685	1.135756
