data_functionalizedCrystal
_audit_creation_method	'MofGen! by Chris Wilmer'
_symmetry_space_group_name_H-M	'P1'
_symmetry_Int_Tables_number	1
_symmetry_cell_setting	triclinic
loop_
_symmetry_equiv_pos_as_xyz
  x,y,z
_cell_length_a	16.992694
_cell_length_b	23.532407
_cell_length_c	15.455313
_cell_angle_alpha	92.643560
_cell_angle_beta	87.142206
_cell_angle_gamma	86.758451
loop_
_atom_site_label
_atom_site_type_symbol
_atom_site_fract_x
_atom_site_fract_y
_atom_site_fract_z
O1	O	1.042902	0.118384	-0.072037
O2	O	1.542902	0.618384	0.427963
O3	O	0.814628	0.117059	-0.072062
O4	O	1.314628	0.617059	0.427938
O5	O	0.935648	0.035132	-0.072033
O6	O	1.435648	0.535132	0.427967
O7	O	0.921882	0.200311	-0.072066
O8	O	1.421882	0.700311	0.427934
O9	O	0.928727	0.039796	0.072228
O10	O	1.428727	0.539796	0.572228
O11	O	0.807707	0.121723	0.072198
O12	O	1.307707	0.621723	0.572198
O13	O	1.035981	0.123049	0.072224
O14	O	1.535981	0.623049	0.572224
Cu15	Cu	0.921212	0.122812	0.085383
Cu16	Cu	1.421212	0.622812	0.585383
Cu17	Cu	0.929397	0.117296	-0.085222
Cu18	Cu	1.429397	0.617296	0.414778
O19	O	0.914962	0.204976	0.072194
O20	O	1.414962	0.704976	0.572194
C21	C	0.781968	0.117688	0.000065
C22	C	1.281968	0.617688	0.500065
C23	C	0.694964	0.112604	0.000056
C24	C	1.194964	0.612604	0.500056
C25	C	0.644342	0.161650	0.000047
C26	C	1.144342	0.661650	0.500047
C27	C	0.562592	0.156871	0.000060
C28	C	1.062592	0.656871	0.500060
C29	C	0.531466	0.103045	0.000076
C30	C	1.031466	0.603045	0.500076
C31	C	0.582095	0.053995	0.000088
C32	C	1.082095	0.553995	0.500088
C33	C	0.663843	0.058775	0.000081
C34	C	1.163843	0.558775	0.500081
C35	C	0.288022	0.083234	0.000103
C36	C	0.788022	0.583234	0.500103
C37	C	0.206267	0.078457	0.000107
C38	C	0.706267	0.578457	0.500107
C39	C	0.186770	0.181334	0.000081
C40	C	0.686770	0.681334	0.500081
C41	C	0.268521	0.186109	0.000069
C42	C	0.768521	0.686109	0.500069
C43	C	0.319142	0.137059	0.000085
C44	C	0.819142	0.637059	0.500085
N45	N	0.447905	0.098158	0.000086
N46	N	0.947905	0.598158	0.500086
N47	N	0.402701	0.141946	0.000081
N48	N	0.902701	0.641946	0.500081
C49	C	0.931837	0.016231	0.000100
C50	C	1.431837	0.516231	0.500100
C51	C	0.930782	-0.047038	0.000106
C52	C	1.430782	0.452962	0.500106
C53	C	0.995791	-0.442917	0.000066
C54	C	1.495791	0.057083	0.500066
C55	C	0.994812	-0.502366	0.000059
C56	C	1.494812	-0.002366	0.500059
O57	O	1.055075	-0.536121	0.000034
O58	O	1.555075	-0.036121	0.500034
N59	N	0.922865	-0.528562	0.000052
N60	N	1.422865	-0.028562	0.500052
C61	C	0.851893	-0.495307	0.000042
C62	C	1.351893	0.004693	0.500042
O63	O	0.790607	-0.523048	0.000035
O64	O	1.290607	-0.023048	0.500035
C65	C	0.852873	-0.435859	0.000043
C66	C	1.352873	0.064141	0.500043
C67	C	0.924824	-0.409666	0.000059
C68	C	1.424824	0.090334	0.500059
C69	C	1.067736	-0.416723	0.000081
C70	C	1.567736	0.083277	0.500081
C71	C	1.068714	-0.357278	0.000089
C72	C	1.568714	0.142722	0.500089
C73	C	0.997748	-0.324027	0.000083
C74	C	1.497748	0.175973	0.500083
C75	C	0.925803	-0.350221	0.000067
C76	C	1.425803	0.149779	0.500067
C77	C	0.781902	-0.402605	0.000027
C78	C	1.281902	0.097395	0.500027
C79	C	0.782889	-0.343154	0.000027
C80	C	1.282889	0.156846	0.500027
C81	C	0.854839	-0.316960	0.000043
C82	C	1.354839	0.183040	0.500043
C83	C	0.855814	-0.257525	0.000069
C84	C	1.355814	0.242475	0.500069
N85	N	0.927761	-0.231328	0.000076
N86	N	1.427761	0.268672	0.500076
C87	C	0.998728	-0.264579	0.000083
C88	C	1.498728	0.235421	0.500083
C89	C	0.849841	-0.620151	0.000040
C90	C	1.349841	-0.120151	0.500040
C91	C	0.848860	-0.679598	0.000046
C92	C	1.348860	-0.179598	0.500046
C93	C	0.991779	-0.686653	0.000061
C94	C	1.491779	-0.186653	0.500061
C95	C	0.992759	-0.627205	0.000061
C96	C	1.492759	-0.127205	0.500061
C97	C	0.921788	-0.593955	0.000047
C98	C	1.421788	-0.093955	0.500047
C99	C	1.000777	-0.139740	0.000101
C100	C	1.500777	0.360260	0.500101
C101	C	1.001749	-0.080289	0.000113
C102	C	1.501749	0.419711	0.500113
C103	C	0.858831	-0.073240	0.000093
C104	C	1.358831	0.426760	0.500093
C105	C	0.857858	-0.132685	0.000086
C106	C	1.357858	0.367315	0.500086
C107	C	0.928838	-0.165934	0.000087
C108	C	1.428838	0.334066	0.500087
O109	O	0.795583	-0.223733	0.000090
O110	O	1.295583	0.276267	0.500090
O111	O	1.060004	-0.236831	0.000079
O112	O	1.560004	0.263169	0.500079
C113	C	1.068641	0.122420	0.000095
C114	C	1.568641	0.622420	0.500095
C115	C	1.155645	0.127504	0.000098
C116	C	1.655645	0.627504	0.500098
C117	C	0.918772	0.223877	0.000060
C118	C	1.418772	0.723877	0.500060
C119	C	0.919827	0.287146	0.000048
C120	C	1.419827	0.787146	0.500048
N121	N	0.915462	0.126692	0.205377
N122	N	1.415462	0.626692	0.705377
N123	N	0.935153	0.113412	-0.205216
N124	N	1.435153	0.613412	0.294784
C125	C	0.966893	0.091901	0.250784
C126	C	1.466893	0.591901	0.750784
C127	C	0.962551	0.094840	0.341591
C128	C	1.462551	0.594840	0.841591
C129	C	0.906782	0.132574	0.386989
C130	C	1.406782	0.632574	0.886989
C131	C	0.855345	0.167366	0.341576
C132	C	1.355345	0.667366	0.841576
C133	C	0.859684	0.164424	0.250771
C134	C	1.359684	0.664424	0.750771
C135	C	0.888055	0.145261	0.658566
C136	C	1.388055	0.645261	1.158566
C137	C	0.883722	0.148203	0.749378
C138	C	1.383722	0.648203	1.249378
C139	C	0.990928	0.075676	0.749386
C140	C	1.490928	0.575676	1.249386
C141	C	0.995265	0.072738	0.658579
C142	C	1.495265	0.572738	1.158579
C143	C	0.943825	0.107529	0.613174
C144	C	1.443825	0.607529	1.113174
N145	N	0.902344	0.135581	0.479808
N146	N	1.402344	0.635581	0.979808
N147	N	0.948260	0.104518	0.520356
N148	N	1.448260	0.604518	1.020356
H149	H	0.329228	0.043294	0.000117
H150	H	0.829228	0.543294	0.500117
H151	H	0.809932	0.198088	0.378545
H152	H	1.309932	0.698088	0.878545
H153	H	0.556745	0.010169	0.000113
H154	H	1.056745	0.510169	0.500113
O155	O	0.809689	0.198279	0.206795
O156	O	1.309689	0.698279	0.706795
C157	C	0.759522	0.232206	0.266334
C158	C	1.259522	0.732206	0.766334
H159	H	0.788560	0.236424	0.331058
H160	H	1.288560	0.736424	0.831058
H161	H	0.748460	0.276271	0.240080
H162	H	1.248460	0.776271	0.740080
H163	H	0.700983	0.211358	0.276008
H164	H	1.200983	0.711358	0.776008
H165	H	1.125529	-0.443790	0.000084
H166	H	1.625529	0.056210	0.500084
H167	H	1.004430	0.066510	0.378560
H168	H	1.504430	0.566510	0.878560
H169	H	0.705059	0.018836	0.000088
H170	H	1.205059	0.518836	0.500088
O171	O	1.060776	-0.718902	-0.000056
O172	O	1.560776	-0.218902	0.499944
C173	C	1.108061	-0.708942	-0.074778
C174	C	1.608061	-0.208942	0.425222
H175	H	1.089653	-0.665576	-0.099682
H176	H	1.589653	-0.165576	0.400318
H177	H	1.172661	-0.709601	-0.057972
H178	H	1.672661	-0.209601	0.442028
H179	H	1.100104	-0.743594	-0.127100
H180	H	1.600104	-0.243594	0.372900
O181	O	0.838057	0.179116	0.614602
O182	O	1.338057	0.679116	1.114602
C183	C	0.787895	0.213042	0.674147
C184	C	1.287895	0.713042	1.174147
H185	H	0.816936	0.217258	0.738869
H186	H	1.316936	0.717258	1.238869
H187	H	0.776832	0.257108	0.647898
H188	H	1.276832	0.757108	1.147898
H189	H	0.729355	0.192195	0.683825
H190	H	1.229355	0.692195	1.183825
O191	O	1.071717	-0.054939	0.000087
O192	O	1.571717	0.445061	0.500087
C193	C	1.134140	-0.097039	0.000109
C194	C	1.634140	0.402961	0.500109
H195	H	1.113799	-0.139259	-0.027209
H196	H	1.613799	0.360741	0.472791
H197	H	1.186410	-0.083682	-0.041766
H198	H	1.686410	0.416318	0.458234
H199	H	1.152689	-0.102219	0.069320
H200	H	1.652689	0.397781	0.569320
O201	O	0.137484	0.228921	0.000111
O202	O	0.637484	0.728921	0.500111
C203	C	0.058657	0.213163	0.000098
C204	C	0.558657	0.713163	0.500098
H205	H	0.054563	0.169187	0.027418
H206	H	0.554563	0.669187	0.527418
H207	H	0.019359	0.245551	0.041978
H208	H	0.519359	0.745551	0.541978
H209	H	0.038305	0.212008	-0.069109
H210	H	0.538305	0.712008	0.430891
O211	O	1.049101	0.035890	0.614348
O212	O	1.549101	0.535890	1.114348
C213	C	1.041718	0.040612	0.524465
C214	C	1.541718	0.540612	1.024465
H215	H	1.013109	0.084247	0.511924
H216	H	1.513109	0.584247	1.011924
H217	H	1.102669	0.035463	0.489754
H218	H	1.602669	0.535463	0.989754
H219	H	1.003408	0.005947	0.499036
H220	H	1.503408	0.505947	0.999036
O221	O	0.778899	-0.704948	0.000001
O222	O	1.278899	-0.204948	0.500001
C223	C	0.716477	-0.662844	0.000020
C224	C	1.216477	-0.162844	0.500020
H225	H	0.739441	-0.622383	-0.027283
H226	H	1.239441	-0.122383	0.472717
H227	H	0.668223	-0.678896	-0.041870
H228	H	1.168223	-0.178896	0.458130
H229	H	0.691290	-0.653207	0.069228
H230	H	1.191290	-0.153207	0.569228
O231	O	0.513377	0.204501	0.000196
O232	O	1.013377	0.704501	0.500196
C233	C	0.461919	0.207229	0.074901
C234	C	0.961919	0.707229	0.574901
H235	H	0.489590	0.181176	0.127133
H236	H	0.989590	0.681176	0.627133
H237	H	0.451165	0.253481	0.099959
H238	H	0.951165	0.753481	0.599959
H239	H	0.403392	0.189238	0.058020
H240	H	0.903392	0.689238	0.558020
H241	H	1.058576	-0.166805	0.000099
H242	H	1.558576	0.333195	0.500099
O243	O	1.138679	-0.331931	0.000059
O244	O	1.638679	0.168069	0.500059
C245	C	1.201096	-0.374036	0.000084
C246	C	1.701096	0.125964	0.500084
H247	H	1.180748	-0.416255	-0.027230
H248	H	1.680748	0.083745	0.472770
H249	H	1.253368	-0.360685	-0.041794
H250	H	1.753368	0.139315	0.458206
H251	H	1.219645	-0.379215	0.069295
H252	H	1.719645	0.120785	0.569295
H253	H	1.051348	-0.605882	0.000074
H254	H	1.551348	-0.105882	0.500074
H255	H	0.669678	0.205481	0.000033
H256	H	1.169678	0.705481	0.500033
H257	H	0.792043	-0.593082	0.000036
H258	H	1.292043	-0.093082	0.500036
H259	H	0.293858	0.229939	0.000046
H260	H	0.793858	0.729939	0.500046
O261	O	0.176159	0.026125	0.000160
O262	O	0.676159	0.526125	0.500160
C263	C	0.238368	-0.016144	0.000150
C264	C	0.738368	0.483856	0.500150
H265	H	0.292476	0.003223	0.027460
H266	H	0.792476	0.503223	0.527460
H267	H	0.219557	-0.052144	0.042040
H268	H	0.719557	0.447856	0.542040
H269	H	0.253375	-0.033690	-0.069055
H270	H	0.753375	0.466310	0.430945
H271	H	0.838305	0.178933	0.786337
H272	H	1.338305	0.678933	1.286337
H273	H	0.725094	-0.316084	0.000014
H274	H	1.225094	0.183916	0.500014
O275	O	0.711941	-0.427950	-0.000031
O276	O	1.211941	0.072050	0.499969
C277	C	0.649525	-0.385842	-0.000021
C278	C	1.149525	0.114158	0.499979
H279	H	0.672497	-0.345383	-0.027322
H280	H	1.172497	0.154617	0.472678
H281	H	0.601273	-0.401891	-0.041919
H282	H	1.101273	0.098109	0.458081
H283	H	0.624331	-0.376203	0.069183
H284	H	1.124331	0.123797	0.569183
O285	O	0.787899	-0.158043	0.000035
O286	O	1.287899	0.341957	0.500035
C287	C	0.725472	-0.115943	0.000056
C288	C	1.225472	0.384057	0.500056
H289	H	0.748433	-0.075478	-0.027237
H290	H	1.248433	0.424522	0.472763
H291	H	0.677224	-0.131995	-0.041843
H292	H	1.177224	0.368005	0.458157
H293	H	0.700279	-0.106312	0.069262
H294	H	1.200279	0.393688	0.569262
O295	O	0.789971	-0.040851	0.000047
O296	O	1.289971	0.459149	0.500047
C297	C	0.806271	0.017235	0.000075
C298	C	1.306271	0.517235	0.500075
H299	H	0.869131	0.021435	-0.027222
H300	H	1.369131	0.521435	0.472778
H301	H	0.763025	0.040736	-0.041818
H302	H	1.263025	0.540736	0.458182
H303	H	0.799839	0.036504	0.069284
H304	H	1.299839	0.536504	0.569284
H305	H	1.032806	0.047350	0.786363
H306	H	1.532806	0.547350	1.286363
O307	O	1.021092	0.055196	0.206822
O308	O	1.521092	0.555196	0.706822
C309	C	1.065567	0.025129	0.266376
C310	C	1.565567	0.525129	0.766376
H311	H	1.030344	0.025109	0.331109
H312	H	1.530344	0.525109	0.831109
H313	H	1.079134	-0.020637	0.240157
H314	H	1.579134	0.479363	0.740157
H315	H	1.123185	0.046602	0.276019
H316	H	1.623185	0.546602	0.776019
