data_functionalizedCrystal
_audit_creation_method	'MofGen! by Chris Wilmer'
_symmetry_space_group_name_H-M	'P1'
_symmetry_Int_Tables_number	1
_symmetry_cell_setting	triclinic
loop_
_symmetry_equiv_pos_as_xyz
  x,y,z
_cell_length_a	21.395362
_cell_length_b	19.805405
_cell_length_c	21.395355
_cell_angle_alpha	90.019910
_cell_angle_beta	90.043940
_cell_angle_gamma	90.042288
loop_
_atom_site_label
_atom_site_type_symbol
_atom_site_fract_x
_atom_site_fract_y
_atom_site_fract_z
Zn1	Zn	0.957878	-0.269255	0.354580
Zn2	Zn	0.957789	-0.382425	0.249800
Zn3	Zn	0.853093	-0.269286	0.249781
Zn4	Zn	0.853070	-0.382438	0.354504
O5	O	0.905458	-0.325851	0.302166
O6	O	1.045544	-0.284248	0.340720
O7	O	0.943873	-0.367424	0.162119
O8	O	0.867040	-0.174565	0.263706
O9	O	1.045478	-0.367393	0.263738
O10	O	0.944025	-0.174542	0.340701
O11	O	0.866953	-0.284302	0.162105
O12	O	0.765412	-0.284315	0.263633
O13	O	0.867001	-0.367417	0.442192
O14	O	0.765395	-0.367448	0.340573
O15	O	0.944003	-0.284261	0.442247
O16	O	0.943850	-0.477143	0.263665
O17	O	0.866914	-0.477153	0.340591
C18	C	0.742670	-0.325887	0.302093
C19	C	0.673029	-0.325918	0.302077
C20	C	0.640323	-0.369263	0.342080
C21	C	0.574888	-0.369246	0.342108
C22	C	0.542160	-0.325892	0.302122
C23	C	0.574874	-0.282539	0.262116
C24	C	0.640308	-0.282553	0.262094
C25	C	0.438435	-0.320440	0.245717
C26	C	0.373002	-0.320431	0.245738
C27	C	0.340340	-0.325848	0.302191
C28	C	0.373118	-0.331287	0.358624
C29	C	0.438552	-0.331301	0.358602
C30	C	0.471208	-0.325873	0.302142
C31	C	0.236682	-0.369177	0.342227
C32	C	0.171245	-0.369156	0.342256
C33	C	0.171232	-0.282452	0.262259
C34	C	0.236668	-0.282470	0.262236
C35	C	0.269388	-0.325836	0.302219
C36	C	0.905387	-0.501707	0.302136
C37	C	0.905414	-0.576939	0.302144
C38	C	0.945514	-0.612255	0.262130
C39	C	0.945540	-0.682944	0.262144
C40	C	0.905464	-0.718315	0.302169
C41	C	0.865362	-0.682993	0.342187
C42	C	0.865339	-0.612306	0.342175
C43	C	0.865455	-0.968067	0.342233
C44	C	0.865480	-1.038759	0.342240
C45	C	0.945656	-1.038704	0.262202
C46	C	0.945633	-0.968017	0.262191
C47	C	0.905534	-0.932702	0.302210
C48	C	0.905507	-0.856053	0.302196
C49	C	0.905488	-0.794962	0.302181
C50	C	1.068881	-0.325816	0.302239
C51	C	1.138522	-0.325800	0.302271
C52	C	0.905510	-0.325837	0.465589
C53	C	0.905532	-0.325831	0.535231
C54	C	0.905545	-0.149308	0.302210
C55	C	0.905583	-0.074076	0.302229
C56	C	0.905442	-0.325816	0.139378
C57	C	0.905541	-0.325631	0.069738
C58	C	0.945625	-0.282530	0.567974
C59	C	0.945624	-0.282501	0.633409
C60	C	0.905537	-0.325785	0.666099
C61	C	0.865436	-0.369089	0.633348
C62	C	0.865433	-0.369112	0.567914
C63	C	0.900565	-0.386731	0.769762
C64	C	0.900572	-0.386709	0.835195
C65	C	0.905540	-0.325714	0.867920
C66	C	0.910516	-0.264738	0.835204
C67	C	0.910513	-0.264762	0.769770
C68	C	0.905534	-0.325765	0.737051
C69	C	0.945635	-0.282378	0.971615
C70	C	0.945630	-0.282347	1.037052
C71	C	0.865444	-0.368941	1.036990
C72	C	0.865446	-0.368966	0.971555
C73	C	0.905545	-0.325685	0.938871
H74	H	0.263297	-0.247178	0.229658
O75	O	0.822088	-0.574215	0.385334
H76	H	0.828809	-0.519120	0.378608
O77	O	0.988786	-0.721038	0.218983
H78	H	1.016643	-0.684567	0.191144
H79	H	0.465238	-0.335727	0.404552
H80	H	0.914563	-0.215070	0.861848
O81	O	0.822194	-0.415770	0.668605
H82	H	0.832905	-0.468895	0.656049
H83	H	0.346526	-0.335697	0.404594
O84	O	0.271981	-0.415938	0.385357
H85	H	0.238242	-0.446067	0.413187
O86	O	0.988880	-0.235698	0.936357
H87	H	0.960856	-0.201284	0.906517
O88	O	0.135964	-0.415997	0.385321
H89	H	0.169713	-0.446189	0.413083
H90	H	0.832782	-0.404372	0.541255
H91	H	0.978277	-0.247083	1.063710
O92	O	0.135944	-0.235695	0.219124
H93	H	0.084948	-0.242972	0.225855
H94	H	0.666960	-0.404574	0.374638
H95	H	0.978276	-0.247287	0.541367
O96	O	0.539600	-0.416024	0.385230
H97	H	0.573346	-0.446191	0.413018
O98	O	0.822184	-0.415660	0.936244
H99	H	0.832890	-0.468780	0.948802
H100	H	0.978265	-0.939220	0.229597
O101	O	0.822200	-0.415622	1.072239
H102	H	0.832913	-0.468747	1.059685
H103	H	0.896351	-0.436388	0.743122
H104	H	0.832804	-0.939318	0.374817
O105	O	0.988926	-1.076792	0.219052
H106	H	0.982221	-1.131888	0.225791
O107	O	0.988874	-0.235803	0.668737
H108	H	1.016759	-0.205715	0.635017
O109	O	0.822257	-1.076913	0.385416
H110	H	0.794375	-1.040481	0.413248
H111	H	0.832734	-0.711798	0.374778
H112	H	0.346319	-0.316007	0.199786
O113	O	0.895199	-0.452470	0.870480
H114	H	0.891728	-0.494886	0.836733
O115	O	0.473663	-0.314599	0.184824
H116	H	0.439879	-0.310826	0.145588
H117	H	0.548223	-0.247239	0.229561
H118	H	0.914562	-0.215113	0.743136
O119	O	0.675590	-0.235814	0.218935
H120	H	0.641842	-0.205668	0.191129
H121	H	0.978146	-0.583461	0.229535
