data_functionalizedCrystal
_audit_creation_method	'MofGen! by Chris Wilmer'
_symmetry_space_group_name_H-M	'P1'
_symmetry_Int_Tables_number	1
_symmetry_cell_setting	triclinic
loop_
_symmetry_equiv_pos_as_xyz
  x,y,z
_cell_length_a	14.519709
_cell_length_b	10.540539
_cell_length_c	12.996460
_cell_angle_alpha	89.996006
_cell_angle_beta	90.000034
_cell_angle_gamma	84.102818
loop_
_atom_site_label
_atom_site_type_symbol
_atom_site_fract_x
_atom_site_fract_y
_atom_site_fract_z
O1	O	1.224765	0.166400	-0.085428
O2	O	1.724765	0.666400	0.414572
O3	O	0.956394	0.185995	-0.085459
O4	O	1.456394	0.685995	0.414541
O5	O	1.096702	-0.008571	-0.085441
O6	O	1.596702	0.491429	0.414559
O7	O	1.084457	0.360967	-0.085445
O8	O	1.584457	0.860967	0.414555
O9	O	1.096688	-0.008582	0.085693
O10	O	1.596688	0.491418	0.585693
O11	O	0.956379	0.185985	0.085675
O12	O	1.456379	0.685985	0.585675
O13	O	1.224751	0.166389	0.085706
O14	O	1.724751	0.666389	0.585706
Cu15	Cu	1.090563	0.176186	0.101316
Cu16	Cu	1.590563	0.676186	0.601316
Cu17	Cu	1.090581	0.176199	-0.101069
Cu18	Cu	1.590581	0.676199	0.398931
O19	O	1.084442	0.360956	0.085689
O20	O	1.584442	0.860956	0.585689
C21	C	0.922022	0.185077	0.000104
C22	C	1.422022	0.685077	0.500104
C23	C	0.819626	0.182340	0.000092
C24	C	1.319626	0.682340	0.500092
C25	C	1.095777	-0.055870	0.000124
C26	C	1.595777	0.444130	0.500124
C27	C	1.093029	-0.196790	0.000118
C28	C	1.593029	0.303210	0.500118
C29	C	0.444676	0.172265	0.000139
C30	C	0.944676	0.672265	0.500139
C31	C	0.548999	0.175063	0.000126
C32	C	1.048999	0.675063	0.500126
C33	C	0.632148	0.177303	0.000115
C34	C	1.132148	0.677303	0.500115
C35	C	0.736477	0.180101	0.000103
C36	C	1.236477	0.680101	0.500103
C37	C	0.987750	-0.379142	-0.000278
C38	C	1.487750	0.120858	0.499722
C39	C	0.990535	-0.232553	0.000107
C40	C	1.490535	0.267447	0.500107
C41	C	1.142346	-0.258958	0.097849
C42	C	1.642346	0.241042	0.597849
C43	C	1.138848	-0.405467	0.097931
C44	C	1.638848	0.094533	0.597931
C45	C	1.140949	-0.405994	-0.096680
C46	C	1.640949	0.094006	0.403320
C47	C	1.141893	-0.259021	-0.097972
C48	C	1.641893	0.240979	0.402028
C49	C	1.259123	0.167308	0.000141
C50	C	1.759123	0.667308	0.500141
C51	C	1.361519	0.170044	0.000146
C52	C	1.861519	0.670044	0.500146
C53	C	1.085368	0.408255	0.000121
C54	C	1.585368	0.908255	0.500121
C55	C	1.088115	0.549175	0.000120
C56	C	1.588115	1.049175	0.500120
N57	N	1.090558	0.176176	0.243664
N58	N	1.590558	0.676176	0.743664
N59	N	1.090594	0.176198	-0.243416
N60	N	1.590594	0.676198	0.256584
C61	C	1.090580	0.176200	0.663478
C62	C	1.590580	0.676200	1.163478
C63	C	1.090571	0.176198	0.546673
C64	C	1.590571	0.676198	1.046673
C65	C	1.090569	0.176189	0.453574
C66	C	1.590569	0.676189	0.953574
C67	C	1.090560	0.176185	0.336762
C68	C	1.590560	0.676185	0.836762
H69	H	0.951730	-0.189549	-0.069951
H70	H	1.451730	0.310451	0.430049
H71	H	1.216620	-0.235562	-0.103864
H72	H	1.716620	0.264438	0.396136
H73	H	1.214980	-0.453975	-0.097328
H74	H	1.714980	0.046025	0.402672
H75	H	0.947268	-0.407325	-0.070364
H76	H	1.447268	0.092675	0.429636
H77	H	0.947421	-0.408943	0.069405
H78	H	1.447421	0.091057	0.569405
C79	C	1.238427	-0.471290	0.103948
C80	C	1.738427	0.028710	0.603948
N81	N	1.313429	-0.520862	0.108487
N82	N	1.813429	-0.020862	0.608487
C83	C	1.089582	-0.443068	0.196609
C84	C	1.589582	0.056932	0.696609
N85	N	1.052470	-0.471381	0.270934
N86	N	1.552470	0.028619	0.770934
H87	H	1.105809	-0.217790	-0.170271
H88	H	1.605809	0.282210	0.329729
C89	C	0.937730	-0.175604	0.094901
C90	C	1.437730	0.324396	0.594901
N91	N	0.897956	-0.132712	0.166306
N92	N	1.397956	0.367288	0.666306
H93	H	1.217614	-0.237372	0.101491
H94	H	1.717614	0.262628	0.601491
H95	H	1.107783	-0.437203	-0.170753
H96	H	1.607783	0.062797	0.329247
C97	C	1.096044	-0.200953	0.196093
C98	C	1.596044	0.299047	0.696093
N99	N	1.061163	-0.157266	0.270089
N100	N	1.561163	0.342734	0.770089
