data_functionalizedCrystal
_audit_creation_method	'MofGen! by Chris Wilmer'
_symmetry_space_group_name_H-M	'P1'
_symmetry_Int_Tables_number	1
_symmetry_cell_setting	triclinic
loop_
_symmetry_equiv_pos_as_xyz
  x,y,z
_cell_length_a	19.288864
_cell_length_b	14.044220
_cell_length_c	18.366186
_cell_angle_alpha	89.993222
_cell_angle_beta	89.977106
_cell_angle_gamma	88.162561
loop_
_atom_site_label
_atom_site_type_symbol
_atom_site_fract_x
_atom_site_fract_y
_atom_site_fract_z
O1	O	0.928948	0.118214	-0.060787
O2	O	1.428948	0.618214	0.439213
O3	O	0.727712	0.134161	-0.060738
O4	O	1.227712	0.634161	0.439262
O5	O	0.825310	-0.011784	-0.060755
O6	O	1.325310	0.488216	0.439245
O7	O	0.831351	0.264160	-0.060770
O8	O	1.331351	0.764160	0.439230
O9	O	0.825291	-0.011791	0.060345
O10	O	1.325291	0.488209	0.560345
O11	O	0.727694	0.134154	0.060362
O12	O	1.227694	0.634154	0.560362
O13	O	0.928930	0.118207	0.060312
O14	O	1.428930	0.618207	0.560312
Zn15	Zn	0.828309	0.126180	0.079564
Zn16	Zn	1.328309	0.626180	0.579564
Zn17	Zn	0.828333	0.126189	-0.079990
Zn18	Zn	1.328333	0.626189	0.420010
O19	O	0.831332	0.264152	0.060329
O20	O	1.331332	0.764152	0.560329
C21	C	0.701794	0.133645	-0.000182
C22	C	1.201794	0.633645	0.499818
C23	C	0.624591	0.132104	-0.000163
C24	C	1.124591	0.632104	0.499837
C25	C	0.585397	0.217738	-0.000179
C26	C	1.085397	0.717738	0.499821
C27	C	0.512857	0.216291	-0.000187
C28	C	1.012857	0.716291	0.499813
C29	C	0.479514	0.129205	-0.000193
C30	C	0.979514	0.629205	0.499807
C31	C	0.518717	0.043560	-0.000173
C32	C	1.018717	0.543560	0.499827
C33	C	0.591256	0.045010	-0.000157
C34	C	1.091256	0.545010	0.499843
C35	C	0.366860	0.060749	-0.042640
C36	C	0.866860	0.560749	0.457360
C37	C	0.294322	0.059303	-0.042660
C38	C	0.794322	0.559303	0.457340
C39	C	0.255781	0.124731	-0.000237
C40	C	0.755781	0.624731	0.499763
C41	C	0.289785	0.191621	0.042196
C42	C	0.789785	0.691621	0.542196
C43	C	0.362323	0.193071	0.042212
C44	C	0.862323	0.693071	0.542212
C45	C	0.400858	0.127624	-0.000209
C46	C	0.900858	0.627624	0.499791
C47	C	0.137930	0.208802	-0.000261
C48	C	0.637930	0.708802	0.499739
C49	C	0.065389	0.207351	-0.000264
C50	C	0.565389	0.707351	0.499736
C51	C	0.071251	0.034617	-0.000257
C52	C	0.571251	0.534617	0.499743
C53	C	0.143790	0.036071	-0.000247
C54	C	0.643790	0.536071	0.499753
C55	C	0.177126	0.123165	-0.000252
C56	C	0.677126	0.623165	0.499748
C57	C	0.822656	-0.047091	-0.000204
C58	C	1.322656	0.452909	0.499796
C59	C	0.814768	-0.152283	-0.000201
C60	C	1.314768	0.347717	0.499799
C61	C	0.800348	-0.344882	-0.000208
C62	C	1.300348	0.155118	0.499792
C63	C	0.856291	-0.402755	-0.000224
C64	C	1.356291	0.097245	0.499776
C65	C	0.848267	-0.509924	-0.000228
C66	C	1.348267	-0.009924	0.499772
C67	C	0.808370	-0.237703	-0.000204
C68	C	1.308370	0.262297	0.499796
C69	C	0.954848	0.118724	-0.000245
C70	C	1.454848	0.618724	0.499755
C71	C	1.032051	0.120264	-0.000269
C72	C	1.532051	0.620264	0.499731
C73	C	0.833986	0.299459	-0.000223
C74	C	1.333986	0.799459	0.499777
C75	C	0.841874	0.404651	-0.000231
C76	C	1.341874	0.904651	0.499769
N77	N	0.828297	0.126173	0.188455
N78	N	1.328297	0.626173	0.688455
N79	N	0.828350	0.126188	-0.188881
N80	N	1.328350	0.626188	0.311119
C81	C	0.871531	0.061580	0.226548
C82	C	1.371531	0.561580	0.726548
C83	C	0.871535	0.061575	0.302776
C84	C	1.371535	0.561575	0.802776
C85	C	0.828313	0.126180	0.340908
C86	C	1.328313	0.626180	0.840908
C87	C	0.785071	0.190778	0.302806
C88	C	1.285071	0.690778	0.802806
C89	C	0.785063	0.190774	0.226579
C90	C	1.285063	0.690774	0.726579
C91	C	0.824562	0.212524	0.461665
C92	C	1.324562	0.712524	0.961665
C93	C	0.824575	0.212529	0.537890
C94	C	1.324575	0.712529	1.037890
C95	C	0.828333	0.126192	0.576015
C96	C	1.328333	0.626192	1.076015
C97	C	0.832093	0.039847	0.537907
C98	C	1.332093	0.539847	1.037907
C99	C	0.832085	0.039843	0.461681
C100	C	1.332085	0.539843	0.961681
C101	C	0.828316	0.126191	0.423563
C102	C	1.328316	0.626191	0.923563
C103	C	0.871574	0.061589	0.696763
C104	C	1.371574	0.561589	1.196763
C105	C	0.871573	0.061584	0.772993
C106	C	1.371573	0.561584	1.272993
C107	C	0.785113	0.190795	0.773021
C108	C	1.285113	0.690795	1.273021
C109	C	0.785110	0.190792	0.696793
C110	C	1.285110	0.690792	1.196793
C111	C	0.828344	0.126190	0.658669
C112	C	1.328344	0.626190	1.158669
H113	H	0.480939	0.286027	-0.000198
H114	H	0.980939	0.786027	0.499802
Br115	Br	0.012195	0.323579	-0.000280
Br116	Br	0.512195	0.823579	0.499720
H117	H	0.910212	-0.371814	-0.000286
H118	H	1.410212	0.128186	0.499714
H119	H	0.746431	-0.375822	-0.000197
H120	H	1.246431	0.124178	0.499803
Br121	Br	0.473468	-0.074629	-0.000174
Br122	Br	0.973468	0.425371	0.499826
H123	H	0.906733	0.008975	0.195510
H124	H	1.406733	0.508975	0.695510
Br125	Br	0.930213	-0.026095	0.354483
Br126	Br	1.430213	0.473905	0.854483
Br127	Br	0.837181	-0.077334	0.409964
Br128	Br	1.337181	0.422666	0.909964
Br129	Br	0.837202	-0.077333	0.589639
Br130	Br	1.337202	0.422667	1.089639
Br131	Br	0.726406	0.278451	0.354553
Br132	Br	1.226406	0.778451	0.854553
Br133	Br	0.930245	-0.026086	0.645022
Br134	Br	1.430245	0.473914	1.145022
Br135	Br	0.930245	-0.026093	0.824695
Br136	Br	1.430245	0.473907	1.324695
Br137	Br	0.726446	0.278464	0.824765
Br138	Br	1.226446	0.778464	1.324765
Br139	Br	0.196986	-0.080154	-0.000226
Br140	Br	0.696986	0.419846	0.499774
Br141	Br	0.726435	0.278461	0.645089
Br142	Br	1.226435	0.778461	1.145089
H143	H	0.821518	0.282836	0.568912
H144	H	1.321518	0.782836	1.068912
Br145	Br	0.026008	-0.083573	-0.000254
Br146	Br	0.526008	0.416427	0.499746
Br147	Br	0.248181	-0.031464	-0.100257
Br148	Br	0.748181	0.468536	0.399743
H149	H	0.749856	0.243374	0.195563
H150	H	1.249856	0.743374	0.695563
Br151	Br	0.630635	0.335937	-0.000185
Br152	Br	1.130635	0.835937	0.499815
Br153	Br	0.408471	0.283843	0.099798
Br154	Br	0.908471	0.783843	0.599798
H155	H	0.165073	0.279719	-0.000254
H156	H	0.665073	0.779719	0.499746
Br157	Br	0.237488	0.280427	0.099772
Br158	Br	0.737488	0.780427	0.599772
Br159	Br	0.644452	-0.071217	-0.000133
Br160	Br	1.144452	0.428783	0.499867
Br161	Br	0.419159	-0.028058	-0.100217
Br162	Br	0.919159	0.471942	0.399783
Br163	Br	0.819532	0.329708	0.409930
Br164	Br	1.319532	0.829708	0.909930
