data_functionalizedCrystal
_audit_creation_method	'MofGen! by Chris Wilmer'
_symmetry_space_group_name_H-M	'P1'
_symmetry_Int_Tables_number	1
_symmetry_cell_setting	triclinic
loop_
_symmetry_equiv_pos_as_xyz
  x,y,z
_cell_length_a	14.971506
_cell_length_b	19.288857
_cell_length_c	13.448316
_cell_angle_alpha	89.991240
_cell_angle_beta	89.992937
_cell_angle_gamma	83.377748
loop_
_atom_site_label
_atom_site_type_symbol
_atom_site_fract_x
_atom_site_fract_y
_atom_site_fract_z
O1	O	1.186443	0.090585	-0.082704
O2	O	1.686443	0.590585	0.417296
O3	O	0.925987	0.101410	-0.082705
O4	O	1.425987	0.601410	0.417295
O5	O	1.063744	-0.005109	-0.082692
O6	O	1.563744	0.494891	0.417308
O7	O	1.048685	0.197103	-0.082716
O8	O	1.548685	0.697103	0.417284
O9	O	1.063727	-0.005115	0.082692
O10	O	1.563727	0.494885	0.582692
O11	O	0.925969	0.101403	0.082679
O12	O	1.425969	0.601403	0.582679
O13	O	1.186426	0.090578	0.082680
O14	O	1.686426	0.590578	0.582680
Cu15	Cu	1.056196	0.095990	0.097780
Cu16	Cu	1.556196	0.595990	0.597780
Cu17	Cu	1.056217	0.095998	-0.097805
Cu18	Cu	1.556217	0.595998	0.402195
O19	O	1.048668	0.197096	0.082668
O20	O	1.548668	0.697096	0.582668
C21	C	0.892656	0.100920	-0.000013
C22	C	1.392656	0.600920	0.499987
C23	C	0.793368	0.099461	-0.000013
C24	C	1.293368	0.599461	0.499987
C25	C	0.354775	0.156474	-0.000030
C26	C	0.854775	0.656474	0.499970
C27	C	0.448068	0.157838	-0.000034
C28	C	0.948068	0.657838	0.499966
C29	C	0.505629	0.095255	-0.000022
C30	C	1.005629	0.595255	0.499978
C31	C	0.469892	0.031302	-0.000016
C32	C	0.969892	0.531302	0.499984
C33	C	0.376601	0.029938	-0.000019
C34	C	0.876601	0.529938	0.499981
C35	C	0.664340	0.034150	-0.000008
C36	C	1.164340	0.534150	0.499992
C37	C	0.757637	0.035514	-0.000004
C38	C	1.257637	0.535514	0.499996
C39	C	0.735807	0.162050	-0.000023
C40	C	1.235807	0.662050	0.499977
C41	C	0.642516	0.160686	-0.000026
C42	C	1.142516	0.660686	0.499974
C43	C	0.606786	0.096733	-0.000018
C44	C	1.106786	0.596733	0.499982
C45	C	1.063252	-0.030990	0.000001
C46	C	1.563252	0.469010	0.500001
C47	C	1.061801	-0.108099	0.000003
C48	C	1.561801	0.391901	0.500003
C49	C	1.061134	-0.144308	-0.090147
C50	C	1.561134	0.355692	0.409853
C51	C	1.059757	-0.216759	-0.090155
C52	C	1.559757	0.283241	0.409845
C53	C	1.059067	-0.252999	-0.000006
C54	C	1.559067	0.247001	0.499994
C55	C	1.059730	-0.216780	0.090157
C56	C	1.559730	0.283220	0.590157
C57	C	1.061097	-0.144330	0.090161
C58	C	1.561097	0.355670	0.590161
C59	C	1.109283	-0.373067	0.069053
C60	C	1.609283	0.126933	0.569053
C61	C	1.107922	-0.445516	0.069045
C62	C	1.607922	0.054484	0.569045
C63	C	1.054846	-0.476459	-0.000017
C64	C	1.554846	0.023541	0.499983
C65	C	1.003144	-0.434945	-0.069088
C66	C	1.503144	0.065055	0.430912
C67	C	1.004511	-0.362495	-0.069083
C68	C	1.504511	0.137505	0.430917
C69	C	1.057584	-0.331559	-0.000001
C70	C	1.557584	0.168441	0.499999
C71	C	1.052685	-0.591227	-0.090183
C72	C	1.552685	-0.091227	0.409817
C73	C	1.051303	-0.663679	-0.090186
C74	C	1.551303	-0.163679	0.409814
C75	C	1.051285	-0.663700	0.090128
C76	C	1.551285	-0.163700	0.590128
C77	C	1.052657	-0.591249	0.090129
C78	C	1.552657	-0.091249	0.590129
C79	C	1.053362	-0.555017	-0.000029
C80	C	1.553362	-0.055017	0.499971
C81	C	1.219756	0.091068	-0.000014
C82	C	1.719756	0.591068	0.499986
C83	C	1.319045	0.092526	-0.000021
C84	C	1.819045	0.592526	0.499979
C85	C	1.049160	0.222978	-0.000027
C86	C	1.549160	0.722978	0.499973
C87	C	1.050611	0.300086	-0.000037
C88	C	1.550611	0.800086	0.499963
N89	N	1.056188	0.095984	0.235345
N90	N	1.556188	0.595984	0.735345
N91	N	1.056231	0.095998	-0.235369
N92	N	1.556231	0.595998	0.264631
C93	C	1.117206	0.048837	0.287391
C94	C	1.617206	0.548837	0.787391
C95	C	1.117212	0.048837	0.391494
C96	C	1.617212	0.548837	0.891494
C97	C	1.056203	0.095987	0.443549
C98	C	1.556203	0.595987	0.943549
C99	C	0.995179	0.143136	0.391496
C100	C	1.495179	0.643136	0.891496
C101	C	0.995170	0.143132	0.287395
C102	C	1.495170	0.643132	0.787395
C103	C	0.995203	0.143140	0.608476
C104	C	1.495203	0.643140	1.108476
C105	C	0.995213	0.143145	0.712585
C106	C	1.495213	0.643145	1.212585
C107	C	1.117246	0.048845	0.712575
C108	C	1.617246	0.548845	1.212575
C109	C	1.117237	0.048841	0.608474
C110	C	1.617237	0.548841	1.108474
C111	C	1.056213	0.095991	0.556428
C112	C	1.556213	0.595991	1.056428
H113	H	1.061704	-0.114813	-0.163561
H114	H	1.561704	0.385187	0.336439
H115	H	1.166919	0.010452	0.566091
H116	H	1.666919	0.510452	1.066091
O117	O	0.292700	0.223978	-0.000033
O118	O	0.792700	0.723978	0.499967
H119	H	0.221824	0.212289	-0.000021
H120	H	0.721824	0.712289	0.499979
H121	H	0.945509	0.181533	0.566104
H122	H	1.445509	0.681533	1.066104
O123	O	0.580433	0.228187	-0.000036
O124	O	1.080433	0.728187	0.499964
H125	H	0.537406	0.230590	0.067375
H126	H	1.037406	0.730590	0.567375
O127	O	1.183006	-0.002021	0.231246
O128	O	1.683006	0.497979	0.731246
H129	H	1.225429	-0.034810	0.284931
H130	H	1.725429	0.465190	0.784931
O131	O	1.183072	-0.002004	0.768709
O132	O	1.683072	0.497996	1.268709
H133	H	1.225505	-0.034782	0.715023
H134	H	1.725505	0.465218	1.215023
O135	O	0.929380	0.193998	0.447634
O136	O	1.429380	0.693998	0.947634
H137	H	0.886038	0.164708	0.495094
H138	H	1.386038	0.664708	0.995094
O139	O	1.059039	-0.255827	-0.187392
O140	O	1.559039	0.244173	0.312608
H141	H	1.059762	-0.218461	-0.250082
H142	H	1.559762	0.281539	0.249918
O143	O	0.948738	-0.317714	-0.143558
O144	O	1.448738	0.182286	0.356442
H145	H	0.911591	-0.351396	-0.191579
H146	H	1.411591	0.148604	0.308421
O147	O	0.929362	0.193986	0.231251
O148	O	1.429362	0.693986	0.731251
H149	H	0.886946	0.226779	0.284936
H150	H	1.386946	0.726779	0.784936
H151	H	0.635252	-0.017927	-0.000007
H152	H	1.135252	0.482073	0.499993
O153	O	0.486610	0.226810	-0.000021
O154	O	0.986610	0.726810	0.499979
H155	H	0.430912	0.270098	-0.000009
H156	H	0.930912	0.770098	0.499991
O157	O	0.774330	0.231033	-0.000033
O158	O	1.274330	0.731033	0.499967
H159	H	0.816310	0.234692	-0.067446
H160	H	1.316310	0.734692	0.432554
O161	O	0.819726	-0.031984	-0.000008
O162	O	1.319726	0.468016	0.499992
H163	H	0.779210	-0.076684	-0.000022
H164	H	1.279210	0.423316	0.499978
O165	O	0.531974	-0.036199	0.000007
O166	O	1.031974	0.463801	0.500007
H167	H	0.575019	-0.038604	-0.067390
H168	H	1.075019	0.461396	0.432610
O169	O	0.338055	-0.039033	0.000001
O170	O	0.838055	0.460967	0.500001
H171	H	0.393752	-0.082323	0.000022
H172	H	0.893752	0.417677	0.500022
H173	H	0.959925	-0.460136	-0.125325
H174	H	1.459925	0.039864	0.374675
H175	H	1.053253	-0.561725	-0.163595
H176	H	1.553253	-0.061725	0.336405
H177	H	1.050755	-0.693158	-0.163601
H178	H	1.550755	-0.193158	0.336399
O179	O	1.050547	-0.702776	0.187364
O180	O	1.550547	-0.202776	0.687364
H181	H	1.049491	-0.759240	0.172218
H182	H	1.549491	-0.259240	0.672218
O183	O	1.053400	-0.552189	0.187363
O184	O	1.553400	-0.052189	0.687363
H185	H	1.052700	-0.589560	0.250050
H186	H	1.552700	-0.089560	0.750050
O187	O	1.163680	-0.490291	0.143538
O188	O	1.663680	0.009709	0.643538
H189	H	1.200801	-0.456603	0.191577
H190	H	1.700801	0.043397	0.691577
H191	H	1.152503	-0.347879	0.125300
H192	H	1.652503	0.152121	0.625300
H193	H	1.059165	-0.246292	0.163556
H194	H	1.559165	0.253708	0.663556
H195	H	1.061637	-0.114849	0.163575
H196	H	1.561637	0.385151	0.663575
O197	O	1.183040	-0.002002	0.447633
O198	O	1.683040	0.497998	0.947633
H199	H	1.225474	-0.034778	0.393947
H200	H	1.725474	0.465222	0.893947
O201	O	0.929395	0.193984	0.768737
O202	O	1.429395	0.693984	1.268737
H203	H	0.886946	0.226759	0.715059
H204	H	1.386946	0.726759	1.215059
