data_functionalizedCrystal
_audit_creation_method	'MofGen! by Chris Wilmer'
_symmetry_space_group_name_H-M	'P1'
_symmetry_Int_Tables_number	1
_symmetry_cell_setting	triclinic
loop_
_symmetry_equiv_pos_as_xyz
  x,y,z
_cell_length_a	17.640112
_cell_length_b	21.295417
_cell_length_c	17.640968
_cell_angle_alpha	101.234808
_cell_angle_beta	87.860920
_cell_angle_gamma	101.256239
loop_
_atom_site_label
_atom_site_type_symbol
_atom_site_fract_x
_atom_site_fract_y
_atom_site_fract_z
Zn1	Zn	1.247775	-0.018088	0.195079
Zn2	Zn	1.221981	-0.147966	0.068087
Zn3	Zn	1.095099	-0.059037	0.093722
Zn4	Zn	1.120723	-0.139680	0.220669
O5	O	1.171395	-0.091193	0.144389
O6	O	1.350625	-0.021647	0.156795
O7	O	1.183631	-0.156775	-0.034787
O8	O	1.115423	0.034499	0.107185
O9	O	1.331674	-0.117068	0.063494
O10	O	1.227593	0.064584	0.181652
O11	O	1.090412	-0.091439	-0.015953
O12	O	0.992227	-0.083404	0.132000
O13	O	1.159096	-0.102945	0.323549
O14	O	1.011052	-0.142652	0.225268
O15	O	1.252440	-0.013612	0.304748
O16	O	1.208478	-0.234971	0.088309
O17	O	1.134084	-0.228883	0.200410
C18	C	0.974084	-0.116573	0.184193
C19	C	0.889678	-0.127442	0.201239
C20	C	1.171287	-0.254765	0.144367
C21	C	1.171315	-0.324729	0.144369
C22	C	0.563037	-0.008607	0.014897
C23	C	0.483727	-0.018831	0.030925
C24	C	0.503351	-0.080669	0.127878
C25	C	0.582665	-0.070447	0.111861
C26	C	0.612502	-0.034416	0.055369
C27	C	0.632129	-0.096257	0.152332
C28	C	0.711436	-0.086038	0.136313
C29	C	0.741279	-0.050011	0.079823
C30	C	0.691809	-0.024198	0.039350
C31	C	0.602290	-0.132291	0.208820
C32	C	0.651755	-0.158101	0.249291
C33	C	0.731064	-0.147879	0.233277
C34	C	0.760907	-0.111851	0.176786
C35	C	0.780534	-0.173691	0.273749
C36	C	0.859841	-0.163473	0.257730
C37	C	0.840214	-0.101633	0.160767
C38	C	1.210105	-0.360729	0.086039
C39	C	1.210144	-0.426464	0.086049
C40	C	1.171378	-0.456199	0.144384
C41	C	1.132586	-0.420189	0.202724
C42	C	1.132555	-0.354454	0.202717
N43	N	1.106115	-0.566893	0.163575
N44	N	1.106146	-0.629339	0.163577
C45	C	1.171472	-0.654254	0.144410
N46	N	1.236764	-0.614366	0.125225
N47	N	1.236731	-0.551916	0.125220
C48	C	1.171408	-0.527477	0.144398
C49	C	1.210308	-0.761531	0.086087
C50	C	1.210349	-0.827266	0.086102
C51	C	1.132784	-0.820991	0.202775
C52	C	1.132750	-0.755256	0.202763
C53	C	1.171510	-0.725531	0.144415
C54	C	1.369475	-0.065714	0.104431
C55	C	1.453885	-0.054856	0.087403
C56	C	1.211503	-0.052786	0.342475
C57	C	1.228595	-0.036419	0.426887
C58	C	1.171527	0.073024	0.144424
C59	C	1.171584	0.143004	0.144438
C60	C	1.131486	-0.129399	-0.052935
C61	C	1.114541	-0.145569	-0.137376
C62	C	1.041841	-0.215148	0.753447
C63	C	1.057917	-0.199759	0.832762
C64	C	1.155108	-0.106745	0.813176
C65	C	1.139037	-0.122124	0.733858
C66	C	1.082403	-0.176327	0.704000
C67	C	1.179600	-0.083303	0.684411
C68	C	1.163533	-0.098683	0.605099
C69	C	1.106903	-0.152885	0.575235
C70	C	1.066336	-0.191707	0.624689
C71	C	1.236237	-0.029103	0.714269
C72	C	1.276800	0.009719	0.664822
C73	C	1.260729	-0.005659	0.585510
C74	C	1.204100	-0.059860	0.555646
C75	C	1.301296	0.033164	0.536056
C76	C	1.285229	0.017784	0.456745
C77	C	1.188033	-0.075241	0.476334
H78	H	0.864510	-0.072281	0.114778
H79	H	1.101160	-0.725943	0.250258
C80	C	1.039379	-0.217487	0.963039
C81	C	1.013320	-0.242432	0.887119
H82	H	1.011849	-0.243833	0.996594
H83	H	1.030931	-0.174099	0.978281
H84	H	1.093029	-0.217622	0.965732
H85	H	0.959671	-0.242292	0.884425
H86	H	1.021761	-0.285831	0.871873
H87	H	0.537713	-0.140610	0.221860
H88	H	1.322913	0.053849	0.689143
C89	C	1.395763	0.123567	0.508729
C90	C	1.363551	0.092740	0.568881
H91	H	1.434200	0.160344	0.528994
H92	H	1.356428	0.137398	0.484484
H93	H	1.418518	0.093867	0.471921
H94	H	1.340791	0.122439	0.605686
H95	H	1.402892	0.078910	0.593138
H96	H	1.318258	0.049397	0.416484
C97	C	1.222895	-0.041861	0.926057
C98	C	1.217356	-0.047165	0.846001
H99	H	1.261321	-0.005075	0.946319
H100	H	1.236613	-0.080208	0.936797
H101	H	1.174506	-0.036693	0.949349
H102	H	1.265743	-0.052337	0.822708
H103	H	1.203642	-0.008809	0.835254
C104	C	1.221168	-0.360674	-0.050019
C105	C	1.252721	-0.328057	0.021909
H106	H	1.247484	-0.340504	-0.089608
H107	H	1.167897	-0.358662	-0.050883
H108	H	1.226738	-0.404976	-0.058350
H109	H	1.247146	-0.283755	0.030243
H110	H	1.306005	-0.330062	0.022774
C111	C	1.098393	-0.918968	0.254592
C112	C	1.090173	-0.853667	0.266901
H113	H	1.072084	-0.939142	0.294182
H114	H	1.151668	-0.920965	0.255459
H115	H	1.076988	-0.941085	0.205790
H116	H	1.111583	-0.831549	0.315700
H117	H	1.036888	-0.851666	0.266041
H118	H	0.805856	-0.041693	0.066780
H119	H	0.716105	0.005154	-0.006639
H120	H	1.241734	-0.455781	0.038549
H121	H	0.627450	-0.187439	0.295284
H122	H	1.241871	-0.737328	0.038579
H123	H	0.756228	-0.203033	0.319739
H124	H	1.141897	-0.119366	0.452027
C125	C	0.535678	0.051492	-0.079351
C126	C	0.595841	0.030994	-0.047205
H127	H	0.555931	0.075932	-0.117693
H128	H	0.511479	0.077977	-0.039968
H129	H	0.498828	0.014465	-0.102202
H130	H	0.632688	0.068021	-0.024348
H131	H	0.620052	0.004508	-0.086594
C132	C	1.098186	-0.518174	0.254532
C133	C	1.089971	-0.452871	0.266846
H134	H	1.071873	-0.538349	0.294119
H135	H	1.151460	-0.520174	0.255400
H136	H	1.076781	-0.540287	0.205729
H137	H	1.111381	-0.430757	0.315646
H138	H	1.036687	-0.450867	0.265985
C139	C	0.871285	-0.225615	0.355193
C140	C	0.914220	-0.191837	0.302221
H141	H	0.904858	-0.243123	0.382661
H142	H	0.833628	-0.260067	0.328305
H143	H	0.846260	-0.196558	0.390545
H144	H	0.939240	-0.220895	0.266866
H145	H	0.951890	-0.157381	0.329111
H146	H	1.100967	-0.325141	0.250217
C147	C	0.373826	-0.041233	-0.053179
C148	C	0.429349	0.009552	-0.013549
H149	H	0.340258	-0.023709	-0.080634
H150	H	0.344714	-0.064150	-0.017245
H151	H	0.398854	-0.070277	-0.088547
H152	H	0.404322	0.038594	0.021823
H153	H	0.458465	0.032480	-0.049487
C154	C	0.390494	-0.123789	0.195490
C155	C	0.470550	-0.120270	0.189975
H156	H	0.370248	-0.148232	0.233832
H157	H	0.367151	-0.144514	0.147078
H158	H	0.379791	-0.081004	0.209315
H159	H	0.481253	-0.163055	0.176144
H160	H	0.493900	-0.099546	0.238397
H161	H	1.241941	-0.856576	0.038603
C162	C	1.156111	-0.181674	0.447035
C163	C	1.089239	-0.169793	0.488055
H164	H	1.145205	-0.192108	0.393214
H165	H	1.172838	-0.217132	0.462318
H166	H	1.195639	-0.143834	0.457745
H167	H	1.049712	-0.207635	0.477349
H168	H	1.072501	-0.134332	0.472766
H169	H	1.020201	-0.235832	0.600381
C170	C	0.947397	-0.305578	0.780763
C171	C	0.979605	-0.274743	0.720616
H172	H	0.908987	-0.342373	0.760490
H173	H	0.924616	-0.275895	0.817556
H174	H	0.986746	-0.319387	0.805026
H175	H	0.940257	-0.260929	0.696357
H176	H	1.002385	-0.304431	0.683810
H177	H	1.249319	-0.016583	0.778850
