data_functionalizedCrystal
_audit_creation_method	'MofGen! by Chris Wilmer'
_symmetry_space_group_name_H-M	'P1'
_symmetry_Int_Tables_number	1
_symmetry_cell_setting	triclinic
loop_
_symmetry_equiv_pos_as_xyz
  x,y,z
_cell_length_a	14.044220
_cell_length_b	10.654550
_cell_length_c	9.130313
_cell_angle_alpha	90.003780
_cell_angle_beta	89.997493
_cell_angle_gamma	91.163110
loop_
_atom_site_label
_atom_site_type_symbol
_atom_site_fract_x
_atom_site_fract_y
_atom_site_fract_z
O1	O	0.133227	-1.681222	-0.121925
O2	O	0.145921	-1.317019	-0.121902
O3	O	0.001554	-1.493654	-0.121899
O4	O	0.277595	-1.504587	-0.121929
O5	O	0.001557	-1.493652	0.121700
O6	O	0.145925	-1.317017	0.121696
O7	O	0.133231	-1.681220	0.121673
Cu8	Cu	0.139578	-1.499119	0.143927
Cu9	Cu	0.139574	-1.499121	-0.144156
O10	O	0.277598	-1.504585	0.121670
C11	C	0.144991	-1.270127	-0.000100
C12	C	0.142202	-1.130403	-0.000091
C13	C	-0.033790	-1.488867	-0.000099
C14	C	-0.139110	-1.474592	-0.000096
C15	C	0.134161	-1.728113	-0.000132
C16	C	0.136950	-1.867836	-0.000151
C17	C	-0.331943	-1.448493	-0.000116
C18	C	-0.388911	-1.549741	-0.000126
C19	C	-0.496210	-1.535219	-0.000137
C20	C	-0.224634	-1.463013	-0.000105
C21	C	0.312942	-1.509372	-0.000133
C22	C	0.418262	-1.523648	-0.000146
N23	N	0.139581	-1.499126	0.346550
C24	C	0.227203	-1.059459	-0.000121
C25	C	0.224578	-0.928175	-0.000146
C26	C	0.051942	-0.938790	-0.000116
C27	C	0.054569	-1.070072	-0.000081
C28	C	0.326873	-1.053329	-0.000145
C29	C	0.324247	-0.922045	-0.000170
N30	N	0.139564	-1.499122	-0.346779
C31	C	0.075677	-1.577364	0.423203
C32	C	0.075666	-1.577359	0.576540
C33	C	0.203470	-1.420876	0.576557
C34	C	0.203477	-1.420875	0.423223
C35	C	0.001893	-1.667713	0.423195
C36	C	0.001881	-1.667708	0.576532
H37	H	-0.357098	-1.647328	-0.000231
H38	H	0.018134	-1.765853	0.618140
O39	O	0.360097	-0.870955	0.125231
C40	C	0.396005	-0.681346	0.259937
C41	C	0.355376	-0.739043	0.117859
H42	H	0.392220	-0.574687	0.254012
H43	H	0.352596	-0.716955	0.357499
H44	H	0.473348	-0.709695	0.273442
H45	H	0.278042	-0.710719	0.104214
H46	H	0.398855	-0.703437	0.020370
H47	H	0.255492	-1.357165	0.639000
O48	O	-0.370043	-1.332169	-0.000037
C49	C	-0.513293	-1.211462	-0.000110
C50	C	-0.470256	-1.343268	-0.000173
H51	H	-0.594321	-1.220391	-0.000251
H52	H	-0.488773	-1.158196	0.101871
H53	H	-0.488636	-1.158213	-0.102020
H54	H	-0.494894	-1.396622	0.101668
H55	H	-0.494773	-1.396439	-0.102222
O56	O	-0.085124	-1.633311	0.373787
C57	C	-0.243718	-1.570794	0.437818
C58	C	-0.145214	-1.609708	0.493971
H59	H	-0.292335	-1.551726	0.534957
H60	H	-0.235740	-1.482202	0.368514
H61	H	-0.276022	-1.649742	0.368392
H62	H	-0.112854	-1.530844	0.563457
H63	H	-0.153253	-1.698337	0.563195
H64	H	-0.014647	-1.127830	-0.000035
H65	H	-0.019406	-0.889652	-0.000131
O66	O	0.029429	-1.779360	0.366677
C67	C	0.081303	-1.989099	0.417548
C68	C	0.050111	-1.862737	0.481751
H69	H	0.098053	-2.056535	0.510554
H70	H	0.021454	-2.030777	0.347319
H71	H	0.147566	-1.973494	0.347221
H72	H	-0.016130	-1.878234	0.552143
H73	H	0.110016	-1.821099	0.551896
O74	O	-0.080318	-1.623242	0.633472
C75	C	-0.217760	-1.666461	0.784632
C76	C	-0.124690	-1.716961	0.720257
H77	H	-0.253672	-1.742217	0.854786
H78	H	-0.201076	-1.580411	0.855019
H79	H	-0.267472	-1.639388	0.691648
H80	H	-0.074934	-1.744107	0.813147
H81	H	-0.141446	-1.802964	0.649831
O82	O	0.373236	-1.092953	0.121625
C83	C	0.377639	-1.096551	0.385422
C84	C	0.325033	-1.051623	0.247645
H85	H	0.338700	-1.063132	0.487344
H86	H	0.379756	-1.203458	0.385574
H87	H	0.453457	-1.056248	0.385338
H88	H	0.249192	-1.091836	0.247638
H89	H	0.322992	-0.944713	0.247547
O90	O	0.364796	-1.099472	-0.125673
C91	C	0.433236	-1.051702	-0.361687
C92	C	0.390332	-0.999275	-0.219584
H93	H	0.453875	-0.970719	-0.437665
H94	H	0.499164	-1.107841	-0.334393
H95	H	0.378362	-1.115378	-0.418245
H96	H	0.445136	-0.935546	-0.162956
H97	H	0.324385	-0.943208	-0.246972
H98	H	0.361800	-0.884087	-0.102127
H99	H	0.255504	-1.357156	0.360813
