data_functionalizedCrystal
_audit_creation_method	'MofGen! by Chris Wilmer'
_symmetry_space_group_name_H-M	'P1'
_symmetry_Int_Tables_number	1
_symmetry_cell_setting	triclinic
loop_
_symmetry_equiv_pos_as_xyz
  x,y,z
_cell_length_a	17.699077
_cell_length_b	16.176319
_cell_length_c	17.699104
_cell_angle_alpha	90.005487
_cell_angle_beta	96.713953
_cell_angle_gamma	90.003161
loop_
_atom_site_label
_atom_site_type_symbol
_atom_site_fract_x
_atom_site_fract_y
_atom_site_fract_z
O1	O	1.004086	0.068737	-0.095676
O2	O	1.504086	0.568737	0.404324
O3	O	0.783708	0.068742	-0.108133
O4	O	1.283708	0.568742	0.391867
O5	O	0.900115	0.068732	0.008283
O6	O	1.400115	0.568732	0.508283
O7	O	0.887679	0.068747	-0.212093
O8	O	1.387679	0.568747	0.287907
O9	O	0.900104	-0.068761	0.008262
O10	O	1.400104	0.431239	0.508262
O11	O	0.783697	-0.068752	-0.108155
O12	O	1.283697	0.431248	0.391845
O13	O	1.004075	-0.068756	-0.095698
O14	O	1.504075	0.431244	0.404302
Cu15	Cu	0.893885	-0.081308	-0.101928
Cu16	Cu	1.393885	0.418692	0.398072
Cu17	Cu	0.893898	0.081294	-0.101903
Cu18	Cu	1.393898	0.581294	0.398097
O19	O	0.887668	-0.068746	-0.212114
O20	O	1.387668	0.431254	0.287886
C21	C	0.755506	-0.000005	-0.107698
C22	C	1.255506	0.499995	0.392302
C23	C	0.671487	-0.000003	-0.106362
C24	C	1.171487	0.499997	0.393638
N25	N	0.893881	-0.195673	-0.101945
N26	N	1.393881	0.304327	0.398055
C27	C	0.632014	-0.074952	-0.105743
C28	C	1.132014	0.425048	0.394257
C29	C	0.553071	-0.074953	-0.104475
C30	C	1.053071	0.425047	0.395525
C31	C	0.513603	-0.000004	-0.103831
C32	C	1.013603	0.499996	0.396169
C33	C	0.553082	0.074950	-0.104447
C34	C	1.053082	0.574950	0.395553
C35	C	0.632024	0.074950	-0.105710
C36	C	1.132024	0.574950	0.394290
C37	C	0.234718	0.074951	-0.099354
C38	C	0.734718	0.574951	0.400646
C39	C	0.155771	0.074945	-0.098093
C40	C	0.655771	0.574945	0.401907
C41	C	0.155765	-0.074951	-0.098119
C42	C	0.655765	0.425049	0.401881
C43	C	0.234707	-0.074951	-0.099382
C44	C	0.734707	0.425049	0.400618
C45	C	0.274180	0.000002	-0.099994
C46	C	0.774180	0.500002	0.400006
C47	C	0.359779	0.000003	-0.101367
C48	C	0.859779	0.500003	0.398633
C49	C	0.428005	-0.000003	-0.102463
C50	C	0.928005	0.499997	0.397537
C51	C	0.848087	-0.761065	-0.056040
C52	C	1.348087	-0.261065	0.443960
C53	C	0.848085	-0.674518	-0.056046
C54	C	1.348085	-0.174518	0.443954
C55	C	0.893902	-0.631249	-0.101896
C56	C	1.393902	-0.131249	0.398104
C57	C	0.939728	-0.674530	-0.147738
C58	C	1.439728	-0.174530	0.352262
C59	C	0.939733	-0.761076	-0.147727
C60	C	1.439733	-0.261076	0.352273
C61	C	0.939709	-0.325502	-0.147780
C62	C	1.439709	0.174498	0.352220
C63	C	0.939699	-0.238950	-0.147789
C64	C	1.439699	0.261050	0.352211
C65	C	0.848062	-0.238945	-0.056100
C66	C	1.348062	0.261055	0.443900
C67	C	0.848067	-0.325490	-0.056089
C68	C	1.348067	0.174510	0.443911
C69	C	0.893896	-0.368764	-0.101927
C70	C	1.393896	0.131236	0.398073
C71	C	0.893898	-0.462608	-0.101919
C72	C	1.393898	0.037392	0.398081
C73	C	0.893896	-0.537406	-0.101909
C74	C	1.393896	-0.037406	0.398091
C75	C	1.032278	-0.000008	-0.096133
C76	C	1.532278	0.499992	0.403867
C77	C	1.116296	-0.000004	-0.097469
C78	C	1.616296	0.499996	0.402531
C79	C	0.899661	-0.000015	0.036469
C80	C	1.399661	0.499985	0.536469
C81	C	0.898317	-0.000015	0.120487
C82	C	1.398317	0.499985	0.620487
N83	N	0.893908	0.195659	-0.101880
N84	N	1.393908	0.695659	0.398120
C85	C	0.888122	0.000002	-0.240300
C86	C	1.388122	0.500002	0.259700
C87	C	0.889467	0.000008	-0.324318
C88	C	1.389467	0.500008	0.175682
C89	C	0.959061	0.000007	0.645359
C90	C	1.459061	0.500007	1.145359
C91	C	0.960320	-0.000000	0.566415
C92	C	1.460320	0.500000	1.066415
C93	C	0.891984	-0.000001	0.517796
C94	C	1.391984	0.499999	1.017796
C95	C	0.822385	-0.000002	0.548125
C96	C	1.322385	0.499998	1.048125
C97	C	0.821127	-0.000001	0.627067
C98	C	1.321127	0.499999	1.127067
C99	C	0.827458	-0.000009	0.229759
C100	C	1.327458	0.499991	0.729759
C101	C	0.828722	-0.000008	0.150811
C102	C	1.328722	0.499992	0.650811
C103	C	0.966651	-0.000009	0.169107
C104	C	1.466651	0.499991	0.669107
C105	C	0.965393	-0.000007	0.248049
C106	C	1.465393	0.499993	0.748049
C107	C	0.895794	-0.000013	0.278371
C108	C	1.395794	0.499987	0.778371
C109	C	0.894430	-0.000007	0.363971
C110	C	1.394430	0.499993	0.863971
C111	C	0.893348	-0.000001	0.432198
C112	C	1.393348	0.499999	0.932198
H113	H	0.664142	-0.135983	-0.106274
H114	H	1.164142	0.364017	0.393726
H115	H	0.977026	-0.360725	-0.185105
H116	H	1.477026	0.139275	0.314895
Cl117	Cl	0.106138	-0.169181	-0.097346
Cl118	Cl	0.606138	0.330819	0.402654
H119	H	0.123638	0.135981	-0.097568
H120	H	0.623638	0.635981	0.402432
H121	H	0.766746	-0.000008	0.508533
H122	H	1.266746	0.499992	1.008533
Cl123	Cl	0.733634	-0.000005	0.665188
Cl124	Cl	1.233634	0.499995	1.165188
Cl125	Cl	0.790455	-0.620118	0.001559
Cl126	Cl	1.290455	-0.120118	0.501559
Cl127	Cl	0.790464	-0.379882	0.001550
Cl128	Cl	1.290464	0.120118	0.501550
Cl129	Cl	0.790450	-0.184538	0.001530
Cl130	Cl	1.290450	0.315462	0.501530
H131	H	1.016990	-0.000002	0.541730
H132	H	1.516990	0.499998	1.041730
H133	H	0.520941	0.135974	-0.103917
H134	H	1.020941	0.635974	0.396083
H135	H	0.266848	0.135983	-0.099850
H136	H	0.766848	0.635983	0.400150
H137	H	0.520937	-0.135983	-0.103959
H138	H	1.020937	0.364017	0.396041
Cl139	Cl	0.681649	0.169175	-0.106484
Cl140	Cl	1.181649	0.669175	0.393516
H141	H	0.977036	-0.639293	-0.185066
H142	H	1.477036	-0.139293	0.314934
Cl143	Cl	1.054148	-0.000006	0.130984
Cl144	Cl	1.554148	0.499994	0.630984
Cl145	Cl	0.790482	-0.815453	0.001600
Cl146	Cl	1.290482	-0.315453	0.501600
Cl147	Cl	0.997301	-0.184555	-0.205434
Cl148	Cl	1.497301	0.315445	0.294566
H149	H	0.977046	-0.796310	-0.185054
H150	H	1.477046	-0.296310	0.314946
Cl151	Cl	0.284320	-0.169176	-0.100196
Cl152	Cl	0.784320	0.330824	0.399804
Cl153	Cl	1.044973	0.000014	0.706473
Cl154	Cl	1.544973	0.500014	1.206473
Cl155	Cl	1.051304	-0.000004	0.309166
Cl156	Cl	1.551304	0.499996	0.809166
H157	H	0.773072	-0.000011	0.111227
H158	H	1.273072	0.499989	0.611227
Cl159	Cl	0.739963	-0.000009	0.267867
Cl160	Cl	1.239963	0.499991	0.767867
