data_functionalizedCrystal
_audit_creation_method	'MofGen! by Chris Wilmer'
_symmetry_space_group_name_H-M	'P1'
_symmetry_Int_Tables_number	1
_symmetry_cell_setting	triclinic
loop_
_symmetry_equiv_pos_as_xyz
  x,y,z
_cell_length_a	18.215407
_cell_length_b	12.759399
_cell_length_c	12.759393
_cell_angle_alpha	89.969094
_cell_angle_beta	89.976349
_cell_angle_gamma	90.015037
loop_
_atom_site_label
_atom_site_type_symbol
_atom_site_fract_x
_atom_site_fract_y
_atom_site_fract_z
Zn1	Zn	-1.125144	0.418218	0.594093
Zn2	Zn	-0.791811	0.751551	0.927427
Zn3	Zn	-0.458477	1.084884	1.260760
Zn4	Zn	-1.125067	0.593933	0.418412
Zn5	Zn	-0.791734	0.927267	0.751745
Zn6	Zn	-0.458400	1.260600	1.085079
Zn7	Zn	-1.002070	0.418269	0.418420
Zn8	Zn	-0.668737	0.751602	0.751753
Zn9	Zn	-0.335403	1.084935	1.085087
Zn10	Zn	-1.002064	0.593855	0.594041
Zn11	Zn	-0.668730	0.927188	0.927374
Zn12	Zn	-0.335397	1.260522	1.260708
O13	O	-1.063586	0.506069	0.506242
O14	O	-0.730253	0.839402	0.839575
O15	O	-0.396920	1.172735	1.172908
O16	O	-1.228118	0.441538	0.570807
O17	O	-0.894785	0.774871	0.904141
O18	O	-0.561451	1.108205	1.237474
O19	O	-1.108722	0.570685	0.271392
O20	O	-0.775388	0.904018	0.604725
O21	O	-0.442055	1.237352	0.938059
O22	O	-1.018431	0.271241	0.441749
O23	O	-0.685098	0.604574	0.775082
O24	O	-0.351765	0.937907	1.108415
O25	O	-1.228061	0.570636	0.441735
O26	O	-0.894728	0.903969	0.775068
O27	O	-0.561395	1.237302	1.108402
O28	O	-1.108853	0.271203	0.570815
O29	O	-0.775520	0.604537	0.904148
O30	O	-0.442186	0.937870	1.237482
O31	O	-1.018356	0.441625	0.271398
O32	O	-0.685023	0.774958	0.604731
O33	O	-0.351690	1.108292	0.938064
O34	O	-0.899085	0.441549	0.441698
O35	O	-0.565752	0.774882	0.775031
O36	O	-0.232418	1.108216	1.108365
O37	O	-1.018420	0.570502	0.741069
O38	O	-0.685087	0.903835	1.074402
O39	O	-0.351753	1.237169	1.407736
O40	O	-0.899080	0.570552	0.570726
O41	O	-0.565747	0.903885	0.904059
O42	O	-0.232413	1.237218	1.237393
O43	O	-1.108847	0.441462	0.741107
O44	O	-0.775513	0.774796	1.074441
O45	O	-0.442180	1.108129	1.407774
O46	O	-1.108715	0.740944	0.441684
O47	O	-0.775382	1.074277	0.775018
O48	O	-0.442049	1.407611	1.108351
O49	O	-1.018345	0.740886	0.570718
O50	O	-0.685012	1.074220	0.904051
O51	O	-0.351678	1.407553	1.237385
C52	C	-0.872380	0.506048	0.506208
C53	C	-0.539047	0.839381	0.839541
C54	C	-0.205713	1.172715	1.172874
C55	C	-0.790581	0.506065	0.506218
C56	C	-0.457248	0.839398	0.839552
C57	C	-0.123914	1.172731	1.172885
C58	C	-1.063541	0.779036	0.506218
C59	C	-0.730208	1.112369	0.839551
C60	C	-0.396874	1.445703	1.172884
C61	C	-1.063589	0.895813	0.506243
C62	C	-0.730256	1.229146	0.839576
C63	C	-0.396922	1.562479	1.172909
C64	C	-1.063641	0.505968	0.780275
C65	C	-0.730308	0.839301	1.113608
C66	C	-0.396975	1.172634	1.446942
C67	C	-1.063665	0.505925	0.897052
C68	C	-0.730331	0.839258	1.230385
C69	C	-0.396998	1.172591	1.563718
C70	C	-0.602404	0.573339	0.573315
C71	C	-0.269071	0.906673	0.906649
C72	C	0.064263	1.240006	1.239982
C73	C	-0.525545	0.573342	0.573327
C74	C	-0.192212	0.906675	0.906660
C75	C	0.141122	1.240008	1.239994
C76	C	-0.525521	0.438804	0.439172
C77	C	-0.192187	0.772137	0.772505
C78	C	0.141146	1.105470	1.105839
C79	C	-0.602378	0.438797	0.439166
C80	C	-0.269045	0.772130	0.772500
C81	C	0.064289	1.105464	1.105833
C82	C	-0.640818	0.506071	0.506236
C83	C	-0.307484	0.839404	0.839570
C84	C	0.025849	1.172737	1.172903
C85	C	-0.487101	0.506080	0.506254
C86	C	-0.153768	0.839413	0.839587
C87	C	0.179565	1.172746	1.172920
C88	C	-0.403768	0.506082	0.506266
C89	C	-0.070434	0.839415	0.839599
C90	C	0.262899	1.172748	1.172932
C91	C	-0.724156	0.506068	0.506226
C92	C	-0.390823	0.839401	0.839559
C93	C	-0.057490	1.172734	1.172893
C94	C	-0.255539	0.506087	0.506271
C95	C	0.077794	0.839420	0.839605
C96	C	0.411128	1.172753	1.172938
C97	C	-0.337338	0.506086	0.506272
C98	C	-0.004005	0.839419	0.839605
C99	C	0.329329	1.172753	1.172938
C100	C	-1.063652	0.232035	0.506289
C101	C	-0.730318	0.565369	0.839622
C102	C	-0.396985	0.898702	1.172955
C103	C	-1.063679	0.115259	0.506309
C104	C	-0.730346	0.448592	0.839642
C105	C	-0.397013	0.781925	1.172975
C106	C	-1.110698	0.950670	0.439131
C107	C	-0.777365	1.284003	0.772464
C108	C	-0.444032	1.617336	1.105798
C109	C	-1.110746	1.060394	0.439166
C110	C	-0.777412	1.393727	0.772500
C111	C	-0.444079	1.727060	1.105833
C112	C	-1.016568	1.060394	0.573427
C113	C	-0.683235	1.393727	0.906761
C114	C	-0.349901	1.727061	1.240094
C115	C	-1.016525	0.950672	0.573397
C116	C	-0.683192	1.284005	0.906730
C117	C	-0.349858	1.617339	1.240063
C118	C	-1.063574	0.506093	0.233274
C119	C	-0.730240	0.839427	0.566607
C120	C	-0.396907	1.172760	0.899941
C121	C	-1.063693	0.505840	0.116498
C122	C	-0.730359	0.839174	0.449831
C123	C	-0.397026	1.172507	0.783165
C124	C	-1.110753	0.438723	0.951935
C125	C	-0.777420	0.772056	1.285269
C126	C	-0.444087	1.105390	1.618602
C127	C	-1.110766	0.438678	1.061660
C128	C	-0.777433	0.772011	1.394993
C129	C	-0.444099	1.105344	1.728326
C130	C	-1.016599	0.573045	1.061607
C131	C	-0.683266	0.906378	1.394940
C132	C	-0.349932	1.239712	1.728273
C133	C	-1.016583	0.573084	0.951885
C134	C	-0.683250	0.906418	1.285218
C135	C	-0.349917	1.239751	1.618551
H136	H	-0.633699	0.628115	0.627931
H137	H	-0.300366	0.961449	0.961264
H138	H	0.032968	1.294782	1.294597
F139	F	-0.643263	0.367191	0.367773
F140	F	-0.309930	0.700524	0.701107
F141	F	0.023404	1.033858	1.034440
H142	H	-1.149088	0.384034	0.907294
H143	H	-0.815755	0.717368	1.240627
H144	H	-0.482422	1.050701	1.573960
H145	H	-1.149109	0.383953	1.106341
H146	H	-0.815776	0.717287	1.439674
H147	H	-0.482442	1.050620	1.773008
F148	F	-0.966497	0.644521	1.119973
F149	F	-0.633164	0.977854	1.453306
F150	F	-0.299830	1.311187	1.786640
F151	F	-0.966385	0.892286	0.644835
F152	F	-0.633052	1.225619	0.978168
F153	F	-0.299719	1.558952	1.311501
H154	H	-1.149108	1.105053	0.384519
H155	H	-0.815775	1.438387	0.717852
H156	H	-0.482441	1.771720	1.051185
H157	H	-0.494272	0.628117	0.627951
H158	H	-0.160939	0.961450	0.961284
H159	H	0.172395	1.294784	1.294617
F160	F	-0.484604	0.367212	0.367794
F161	F	-0.151271	0.700545	0.701127
F162	F	0.182063	1.033878	1.034460
F163	F	-0.966480	1.118788	0.644892
F164	F	-0.633147	1.452122	0.978225
F165	F	-0.299814	1.785455	1.311558
H166	H	-0.978233	0.627807	0.907197
H167	H	-0.644899	0.961141	1.240530
H168	H	-0.311566	1.294474	1.573864
H169	H	-1.149022	0.906006	0.384452
H170	H	-0.815689	1.239339	0.717785
H171	H	-0.482355	1.572672	1.051118
