data_functionalizedCrystal
_audit_creation_method	'MofGen! by Chris Wilmer'
_symmetry_space_group_name_H-M	'P1'
_symmetry_Int_Tables_number	1
_symmetry_cell_setting	triclinic
loop_
_symmetry_equiv_pos_as_xyz
  x,y,z
_cell_length_a	15.995350
_cell_length_b	15.995350
_cell_length_c	15.072220
_cell_angle_alpha	89.998899
_cell_angle_beta	89.991149
_cell_angle_gamma	96.507625
loop_
_atom_site_label
_atom_site_type_symbol
_atom_site_fract_x
_atom_site_fract_y
_atom_site_fract_z
O1	O	1.110996	-0.107921	-0.073703
O2	O	0.867221	-0.121249	-0.073721
O3	O	0.995772	0.007303	-0.073710
O4	O	0.982444	-0.236472	-0.073713
O5	O	0.995740	0.007296	0.073855
O6	O	0.867189	-0.121256	0.073844
O7	O	1.110964	-0.107928	0.073862
Zn8	Zn	0.989071	-0.114593	0.097283
Zn9	Zn	0.989113	-0.114584	-0.097141
O10	O	0.982413	-0.236480	0.073852
C11	C	0.836010	-0.120701	0.000060
C12	C	0.743060	-0.119049	0.000053
C13	C	0.405312	-0.113117	0.000071
C14	C	0.452746	-0.021565	0.000401
C15	C	0.549436	-0.023217	0.000063
C16	C	0.572873	-0.116060	0.000063
C17	C	0.531804	-0.161212	-0.084201
C18	C	0.435168	-0.158912	-0.084266
C19	C	0.434793	-0.160812	0.083543
C20	C	0.531738	-0.160790	0.084651
C21	C	0.667570	-0.117727	0.000055
C22	C	0.310614	-0.111452	0.000073
C23	C	0.995205	0.038494	0.000070
C24	C	0.993553	0.131444	0.000065
C25	C	1.142175	-0.108476	0.000080
C26	C	1.235125	-0.110127	0.000081
C27	C	0.982980	-0.267671	0.000069
C28	C	0.984631	-0.360621	0.000069
N29	N	0.989049	-0.114599	0.229971
C30	C	0.987621	0.469192	0.000068
C31	C	0.896069	0.421758	-0.000270
C32	C	0.897721	0.325068	0.000063
C33	C	0.990564	0.301631	0.000066
C34	C	1.035702	0.342705	0.084335
C35	C	1.033402	0.439341	0.084405
C36	C	1.035330	0.439707	-0.083404
C37	C	1.035308	0.342761	-0.084518
C38	C	0.992231	0.206934	0.000068
C39	C	0.985956	0.563890	0.000072
N40	N	0.989142	-0.114571	-0.229830
C41	C	0.989112	-0.114580	0.589173
C42	C	0.920095	-0.183135	0.551560
C43	C	0.920254	-0.183385	0.448735
C44	C	0.989080	-0.114590	0.410969
C45	C	1.076445	-0.133671	0.448266
C46	C	1.076058	-0.134159	0.551124
C47	C	0.971542	-0.026741	0.551272
C48	C	0.969537	-0.027327	0.448409
C49	C	0.989067	-0.114593	0.310255
C50	C	0.989130	-0.114579	0.689886
H51	H	0.577307	0.012521	-0.060446
N52	N	0.833793	-0.168334	0.584352
H53	H	0.838592	-0.117048	0.623910
H54	H	0.808542	-0.219054	0.619021
H55	H	1.102831	0.471468	-0.083968
N56	N	1.124995	0.322424	-0.091261
H57	H	1.125503	0.259440	-0.095019
H58	H	1.157422	0.344593	-0.037083
N59	N	0.426789	0.026693	-0.079189
H60	H	0.441300	-0.003000	-0.135318
H61	H	0.457546	0.085427	-0.078398
H62	H	1.002306	0.315516	-0.146857
H63	H	0.434211	0.015027	0.060830
N64	N	1.126062	0.324028	0.088479
H65	H	1.138635	0.288672	0.035648
H66	H	1.135370	0.292376	0.144949
H67	H	0.545929	-0.229421	-0.087335
H68	H	0.861974	0.297200	0.060568
N69	N	1.031803	0.043417	0.414374
H70	H	1.000940	0.084763	0.380222
H71	H	1.073729	0.019725	0.374061
H72	H	0.416873	-0.125979	-0.147255
N73	N	1.097443	-0.217563	0.414146
H74	H	1.153768	-0.229278	0.438516
H75	H	1.099939	-0.216168	0.347200
N76	N	0.994156	0.305102	0.167403
H77	H	0.946104	0.261472	0.150641
H78	H	0.971923	0.350961	0.203523
N79	N	0.989766	0.463580	0.167840
H80	H	0.930528	0.434036	0.169260
H81	H	0.987897	0.526477	0.168673
N82	N	0.834236	-0.168330	0.415324
H83	H	0.795873	-0.161472	0.467415
H84	H	0.810176	-0.217868	0.378201
N85	N	0.934772	-0.269003	0.585740
H86	H	0.985929	-0.263687	0.625487
H87	H	0.944212	-0.306955	0.534009
H88	H	0.931473	-0.248570	0.424121
H89	H	0.577852	0.012275	0.060467
H90	H	1.091540	-0.198219	0.575106
N91	N	0.567900	-0.117134	0.167229
H92	H	0.556017	-0.056453	0.166697
H93	H	0.630698	-0.119579	0.168847
N94	N	1.146100	-0.070509	0.584089
H95	H	1.177096	-0.042265	0.531801
H96	H	1.186446	-0.099913	0.621235
N97	N	0.392444	-0.247943	-0.089296
H98	H	0.436411	-0.288508	-0.091471
H99	H	0.356552	-0.254668	-0.144516
H100	H	0.547102	-0.228494	0.089741
H101	H	1.129029	-0.085068	0.423801
N102	N	0.569400	-0.119670	-0.167274
H103	H	0.613025	-0.071612	-0.150517
H104	H	0.523533	-0.097445	-0.203380
N105	N	0.392728	-0.250225	0.084304
H106	H	0.354756	-0.259827	0.030872
H107	H	0.358279	-0.260228	0.140246
H108	H	0.909219	-0.008392	0.577258
N109	N	0.884381	-0.008168	0.416183
H110	H	0.858566	-0.055806	0.377484
H111	H	0.891054	0.045771	0.380754
H112	H	0.414244	-0.130885	0.147414
H113	H	0.862238	0.296649	-0.060344
N114	N	1.038197	0.040848	0.583487
H115	H	1.095318	0.027782	0.562672
H116	H	1.037278	0.042874	0.650450
N117	N	0.847606	0.446307	-0.080312
H118	H	0.884522	0.488416	-0.117133
H119	H	0.796127	0.472243	-0.060131
H120	H	0.859626	0.441349	0.059819
H121	H	1.100617	0.471588	0.088231
N122	N	0.995706	0.466917	-0.168011
H123	H	0.946423	0.498639	-0.153085
H124	H	0.975545	0.415664	-0.204579
