data_functionalizedCrystal
_audit_creation_method	'MofGen! by Chris Wilmer'
_symmetry_space_group_name_H-M	'P1'
_symmetry_Int_Tables_number	1
_symmetry_cell_setting	triclinic
loop_
_symmetry_equiv_pos_as_xyz
  x,y,z
_cell_length_a	17.019372
_cell_length_b	17.699083
_cell_length_c	16.176319
_cell_angle_alpha	90.007696
_cell_angle_beta	93.869003
_cell_angle_gamma	96.662360
loop_
_atom_site_label
_atom_site_type_symbol
_atom_site_fract_x
_atom_site_fract_y
_atom_site_fract_z
O1	O	1.046481	-0.096398	0.005686
O2	O	0.816796	-0.108700	-0.010653
O3	O	0.938128	0.007636	-0.002014
O4	O	0.925149	-0.212734	-0.002952
O5	O	0.938111	0.007643	0.135478
O6	O	0.816779	-0.108693	0.126839
O7	O	1.046464	-0.096391	0.143178
Cu8	Cu	0.931620	-0.102541	0.147563
Cu9	Cu	0.931640	-0.102550	-0.015037
O10	O	0.925133	-0.212727	0.134540
C11	C	0.787400	-0.108231	0.056003
C12	C	0.699834	-0.106835	0.049774
N13	N	0.931612	-0.102534	0.261927
C14	C	0.937654	0.035837	0.066699
C15	C	0.936259	0.119856	0.066600
C16	C	0.204581	-0.098915	0.010729
C17	C	0.286859	-0.100227	0.016593
C18	C	0.327980	-0.100884	0.094473
C19	C	0.286820	-0.100222	0.166493
C20	C	0.204545	-0.098905	0.160628
C21	C	0.576399	-0.104856	0.115930
C22	C	0.658679	-0.106175	0.121789
C23	C	0.658713	-0.106179	-0.028112
C24	C	0.576435	-0.104866	-0.033970
C25	C	0.535283	-0.104200	0.038051
C26	C	0.412081	-0.102227	0.100468
C27	C	0.451185	-0.102852	0.032054
C28	C	1.075861	-0.096860	0.076521
C29	C	1.163427	-0.098256	0.082744
C30	C	0.925606	-0.240928	0.065825
C31	C	0.927001	-0.324947	0.065918
C32	C	1.007478	0.168430	0.071667
C33	C	1.006163	0.247374	0.071566
C34	C	0.933627	0.277743	0.066404
C35	C	0.862403	0.229162	0.061333
C36	C	0.863719	0.150220	0.061429
C37	C	0.857092	0.547529	0.060949
C38	C	0.855781	0.626478	0.060857
C39	C	0.999536	0.644684	0.071087
C40	C	1.000852	0.565741	0.071182
C41	C	0.929628	0.517167	0.066107
C42	C	0.931056	0.431567	0.066215
C43	C	0.932199	0.363341	0.066302
N44	N	0.931655	-0.102550	-0.129402
C45	C	0.985354	-0.051042	0.309018
C46	C	0.985358	-0.051041	0.395565
C47	C	0.931624	-0.102537	0.435021
C48	C	0.877876	-0.154032	0.387924
C49	C	0.877869	-0.154029	0.301378
C50	C	0.877903	-0.154046	0.736954
C51	C	0.877916	-0.154047	0.823507
C52	C	0.985392	-0.051059	0.831141
C53	C	0.985385	-0.051055	0.744595
C54	C	0.931635	-0.102547	0.697506
C55	C	0.931631	-0.102546	0.603661
C56	C	0.931631	-0.102542	0.528864
H57	H	0.171106	-0.098385	-0.052689
H58	H	0.799097	0.507989	0.056817
C59	C	0.703988	-0.106902	-0.107329
N60	N	0.738090	-0.107442	-0.166998
C61	C	0.332126	-0.100942	-0.062629
N62	N	0.366222	-0.101477	-0.122304
C63	C	0.531210	-0.104131	-0.119643
N64	N	0.497146	-0.103575	-0.184174
H65	H	0.692157	-0.106716	0.185211
H66	H	0.803343	0.253894	0.057125
C67	C	1.044512	0.005591	0.882947
N68	N	1.089040	0.048258	0.921966
H69	H	0.834156	-0.195983	0.855629
C70	C	0.531139	-0.104146	0.195155
N71	N	0.497045	-0.103620	0.254831
H72	H	0.320308	-0.100753	0.229904
H73	H	1.059918	0.541020	0.075390
H74	H	1.064157	0.286921	0.075694
C75	C	1.077885	0.698122	0.076660
N76	N	1.136896	0.738370	0.080859
C77	C	1.044460	0.005623	0.447360
N78	N	1.088970	0.048312	0.486370
C79	C	1.087275	0.135033	0.077346
N80	N	1.147379	0.109881	0.081621
H81	H	0.417701	-0.102313	-0.031355
H82	H	0.834139	-0.195974	0.698621
H83	H	0.171037	-0.098376	0.219271
H84	H	1.029143	-0.009125	0.712474
H85	H	0.834120	-0.195958	0.420053
C86	C	0.775983	0.659880	0.055171
N87	N	0.715882	0.685039	0.050887
H88	H	0.834106	-0.195958	0.263037
C89	C	0.785372	0.096787	0.055856
N90	N	0.726359	0.056543	0.051656
C91	C	1.044467	0.005609	0.265625
N92	N	1.088991	0.048283	0.232944
H93	H	0.445570	-0.102764	0.163878
