data_functionalizedCrystal
_audit_creation_method	'MofGen! by Chris Wilmer'
_symmetry_space_group_name_H-M	'P1'
_symmetry_Int_Tables_number	1
_symmetry_cell_setting	triclinic
loop_
_symmetry_equiv_pos_as_xyz
  x,y,z
_cell_length_a	18.050591
_cell_length_b	18.050590
_cell_length_c	18.050591
_cell_angle_alpha	90.007244
_cell_angle_beta	90.008361
_cell_angle_gamma	90.014558
loop_
_atom_site_label
_atom_site_type_symbol
_atom_site_fract_x
_atom_site_fract_y
_atom_site_fract_z
Zn1	Zn	1.135250	-0.295904	0.420027
Zn2	Zn	1.135209	-0.420052	0.295836
Zn3	Zn	1.011097	-0.295872	0.295838
Zn4	Zn	1.011038	-0.420048	0.419971
O5	O	1.073149	-0.357969	0.357918
O6	O	1.239169	-0.312387	0.403575
O7	O	1.118753	-0.403568	0.191911
O8	O	1.027608	-0.191951	0.312337
O9	O	1.239139	-0.403599	0.312332
O10	O	1.118823	-0.191975	0.403578
O11	O	1.027568	-0.312333	0.191913
O12	O	0.907164	-0.312329	0.312283
O13	O	1.027508	-0.403591	0.523903
O14	O	0.907122	-0.403560	0.403482
O15	O	1.118766	-0.312383	0.523944
O16	O	1.118696	-0.523976	0.312278
O17	O	1.027468	-0.523973	0.403480
C18	C	0.880197	-0.357941	0.357877
C19	C	0.797651	-0.357947	0.357877
C20	C	0.598202	-0.308278	0.308397
C21	C	0.548798	-0.376009	0.290120
C22	C	0.646520	-0.357970	0.357911
C23	C	0.548843	-0.290263	0.376186
C24	C	0.500535	-0.357986	0.357942
C25	C	0.598203	-0.425736	0.339598
C26	C	0.598253	-0.339944	0.425696
C27	C	0.548871	-0.407722	0.407444
C28	C	0.730619	-0.357960	0.357891
C29	C	0.416439	-0.358003	0.357962
C30	C	1.073092	-0.550921	0.357888
C31	C	1.073135	-0.633467	0.357901
C32	C	1.122848	-0.832892	0.308374
C33	C	1.140969	-0.882251	0.376156
C34	C	1.073177	-0.784597	0.357930
C35	C	1.055132	-0.882320	0.290179
C36	C	1.073219	-0.930582	0.357953
C37	C	1.091333	-0.832869	0.425748
C38	C	1.005465	-0.832933	0.339725
C39	C	1.023560	-0.882270	0.407553
C40	C	1.073155	-0.700499	0.357916
C41	C	1.073242	-1.014679	0.357975
C42	C	1.266854	-0.357997	0.357960
C43	C	1.349400	-0.358009	0.357977
C44	C	1.073135	-0.357990	0.551624
C45	C	1.073130	-0.357999	0.634169
C46	C	1.073226	-0.164263	0.357964
C47	C	1.073259	-0.081717	0.357984
C48	C	1.023491	-0.407591	0.882973
C49	C	1.005351	-0.339837	0.833584
C50	C	1.073123	-0.357977	0.931290
C51	C	1.091231	-0.425737	0.833597
C52	C	1.073124	-0.357992	0.785305
C53	C	1.054947	-0.290189	0.882988
C54	C	1.140859	-0.376134	0.883006
C55	C	1.122744	-0.308334	0.833639
C56	C	1.073120	-0.357970	1.015388
C57	C	1.073127	-0.357992	0.701208
C58	C	1.073146	-0.357968	1.164966
C59	C	1.073119	-0.357969	1.082420
H60	H	0.527122	-0.233004	0.391604
N61	N	0.625295	-0.497590	0.320128
N62	N	0.665273	-0.505515	0.264150
H63	H	0.684409	-0.556259	0.250396
H64	H	0.948200	-0.811252	0.324291
H65	H	0.948069	-0.324482	0.811875
H66	H	0.527348	-0.449800	0.449330
N67	N	1.035641	-0.218294	0.910096
N68	N	1.032493	-0.206694	0.978294
H69	H	1.018852	-0.155921	0.997442
N70	N	1.175563	-0.805699	0.255857
N71	N	1.242626	-0.821509	0.262755
H72	H	1.279858	-0.802304	0.225668
H73	H	1.039852	-0.904042	0.232873
N74	N	1.212703	-0.395414	0.910254
N75	N	1.263869	-0.409739	0.865855
H76	H	1.314611	-0.423362	0.885099
H77	H	1.106548	-0.483035	0.811902
H78	H	1.164717	-0.266336	0.812115
H79	H	0.619862	-0.266301	0.266479
H80	H	0.619994	-0.324665	0.482989
H81	H	1.106556	-0.811239	0.483103
N82	N	0.521543	-0.395136	0.218222
N83	N	0.481033	-0.350884	0.183651
H84	H	0.461787	-0.364388	0.132871
N85	N	1.212822	-0.909463	0.395461
N86	N	1.267555	-0.893656	0.356099
H87	H	1.318300	-0.912886	0.369718
H88	H	0.981487	-0.449488	0.904635
H89	H	0.981573	-0.903814	0.449519
