data_functionalizedCrystal
_audit_creation_method	'MofGen! by Chris Wilmer'
_symmetry_space_group_name_H-M	'P1'
_symmetry_Int_Tables_number	1
_symmetry_cell_setting	triclinic
loop_
_symmetry_equiv_pos_as_xyz
  x,y,z
_cell_length_a	14.971491
_cell_length_b	14.971494
_cell_length_c	14.048226
_cell_angle_alpha	89.995286
_cell_angle_beta	89.991693
_cell_angle_gamma	83.616896
loop_
_atom_site_label
_atom_site_type_symbol
_atom_site_fract_x
_atom_site_fract_y
_atom_site_fract_z
O1	O	1.186948	0.116586	-0.079198
O2	O	0.926549	0.130540	-0.079190
O3	O	1.063724	-0.006636	-0.079192
O4	O	1.049773	0.253763	-0.079196
O5	O	1.063707	-0.006644	0.079129
O6	O	0.926532	0.130532	0.079131
O7	O	1.186931	0.116578	0.079124
Zn8	Zn	1.056729	0.123554	0.104264
Zn9	Zn	1.056751	0.123564	-0.104331
O10	O	1.049756	0.253754	0.079125
C11	C	0.893216	0.129911	-0.000029
C12	C	0.793919	0.128039	-0.000026
C13	C	1.063090	-0.039965	-0.000033
C14	C	1.061216	-0.139262	-0.000037
C15	C	0.366222	0.119963	-0.086349
C16	C	0.459522	0.121720	-0.086345
C17	C	0.506159	0.122599	-0.000041
C18	C	0.459492	0.121713	0.086265
C19	C	0.366194	0.119950	0.086261
C20	C	0.653954	0.125390	0.086269
C21	C	0.747258	0.127155	0.086274
C22	C	0.747282	0.127160	-0.086337
C23	C	0.653984	0.125397	-0.086342
C24	C	0.607323	0.124512	-0.000035
C25	C	1.220264	0.117207	-0.000040
C26	C	1.319561	0.119079	-0.000049
C27	C	1.060347	-0.185902	-0.086339
C28	C	1.058581	-0.279201	-0.086340
C29	C	1.057690	-0.325859	-0.000038
C30	C	1.058557	-0.279212	0.086270
C31	C	1.060317	-0.185914	0.086270
C32	C	1.054891	-0.473675	0.086264
C33	C	1.053133	-0.566980	0.086264
C34	C	1.053155	-0.566963	-0.086347
C35	C	1.054915	-0.473664	-0.086347
C36	C	1.055783	-0.427024	-0.000038
C37	C	1.050390	0.287083	-0.000036
C38	C	1.052263	0.386380	-0.000038
N39	N	1.056721	0.123546	0.246625
N40	N	1.056766	0.123565	-0.246692
C41	C	1.117481	0.062829	0.296442
C42	C	1.117487	0.062829	0.396100
C43	C	1.056736	0.123550	0.445938
C44	C	0.995970	0.184269	0.396114
C45	C	0.995960	0.184265	0.296458
C46	C	0.995995	0.184276	0.603828
C47	C	0.996006	0.184282	0.703491
C48	C	1.117522	0.062840	0.703470
C49	C	1.117513	0.062835	0.603814
C50	C	1.056747	0.123556	0.553997
H51	H	0.328256	0.119253	-0.156628
H52	H	1.166984	0.013396	0.563236
Cl53	Cl	1.052056	-0.625595	-0.194849
Cl54	Cl	1.061408	-0.127280	0.194769
H55	H	0.946536	0.233726	0.744065
Cl56	Cl	0.805939	0.128283	-0.194837
Cl57	Cl	1.193862	-0.013507	0.233799
Cl58	Cl	0.919569	0.260595	0.233832
Cl59	Cl	1.056043	-0.415011	-0.194842
Cl60	Cl	1.052014	-0.625635	0.194760
H61	H	1.166962	0.013388	0.436661
Cl62	Cl	1.057490	-0.337831	-0.194839
Cl63	Cl	1.055986	-0.415043	0.194769
H64	H	0.946501	0.233707	0.436699
Cl65	Cl	1.057426	-0.337866	0.194765
Cl66	Cl	0.805887	0.128254	0.194772
Cl67	Cl	1.193913	-0.013492	0.766101
Cl68	Cl	0.919600	0.260611	0.541205
H69	H	0.497510	0.122433	-0.156619
Cl70	Cl	0.595355	0.124298	-0.194840
H71	H	1.061077	-0.147921	-0.156616
Cl72	Cl	0.595297	0.124268	0.194771
Cl73	Cl	0.518121	0.122818	0.194763
H74	H	0.328203	0.119240	0.156535
