data_functionalizedCrystal
_audit_creation_method	'MofGen! by Chris Wilmer'
_symmetry_space_group_name_H-M	'P1'
_symmetry_Int_Tables_number	1
_symmetry_cell_setting	triclinic
loop_
_symmetry_equiv_pos_as_xyz
  x,y,z
_cell_length_a	10.908878
_cell_length_b	9.065215
_cell_length_c	8.140239
_cell_angle_alpha	89.997810
_cell_angle_beta	89.997076
_cell_angle_gamma	72.549744
loop_
_atom_site_label
_atom_site_type_symbol
_atom_site_fract_x
_atom_site_fract_y
_atom_site_fract_z
O1	O	0.187732	1.911451	-0.136591
O2	O	0.521066	2.244785	0.196743
O3	O	0.854399	2.578118	0.530076
O4	O	0.203137	1.478150	-0.136598
O5	O	0.536470	1.811483	0.196736
O6	O	0.869803	2.144816	0.530069
O7	O	0.009170	1.752240	-0.136587
O8	O	0.342503	2.085573	0.196746
O9	O	0.675837	2.418907	0.530080
O10	O	0.381699	1.637361	-0.136601
O11	O	0.715032	1.970694	0.196732
O12	O	1.048366	2.304028	0.530065
O13	O	0.009168	1.752228	0.136640
O14	O	0.342501	2.085561	0.469973
O15	O	0.675834	2.418895	0.803307
O16	O	0.203134	1.478138	0.136629
O17	O	0.536468	1.811471	0.469963
O18	O	0.869801	2.144804	0.803296
O19	O	0.187730	1.911439	0.136636
O20	O	0.521063	2.244773	0.469970
O21	O	0.854397	2.578106	0.803303
Zn22	Zn	0.195432	1.694787	0.180014
Zn23	Zn	0.528765	2.028120	0.513347
Zn24	Zn	0.862098	2.361453	0.846680
Zn25	Zn	0.195435	1.694802	-0.179975
Zn26	Zn	0.528768	2.028136	0.153358
Zn27	Zn	0.862102	2.361469	0.486692
O28	O	0.381697	1.637349	0.136626
O29	O	0.715030	1.970682	0.469959
O30	O	1.048363	2.304016	0.803292
C31	C	0.201656	1.423543	0.000015
C32	C	0.534989	1.756876	0.333348
C33	C	0.868322	2.090209	0.666681
C34	C	0.197232	1.260853	0.000012
C35	C	0.530565	1.594186	0.333345
C36	C	0.863899	1.927520	0.666679
C37	C	-0.038548	1.762970	0.000025
C38	C	0.294785	2.096303	0.333358
C39	C	0.628119	2.429637	0.666691
C40	C	-0.180729	1.794942	0.000020
C41	C	0.152604	2.128276	0.333353
C42	C	0.485938	2.461609	0.666686
C43	C	-0.231093	1.678282	0.000015
C44	C	0.102240	2.011615	0.333348
C45	C	0.435573	2.344948	0.666681
C46	C	-0.378045	1.711324	0.000009
C47	C	-0.044711	2.044657	0.333343
C48	C	0.288622	2.377990	0.666676
C49	C	0.429415	1.626619	0.000010
C50	C	0.762748	1.959952	0.333344
C51	C	1.096081	2.293286	0.666677
C52	C	0.571596	1.594647	0.000005
C53	C	0.904929	1.927980	0.333338
C54	C	1.238262	2.261313	0.666671
C55	C	0.189211	1.966046	0.000020
C56	C	0.522544	2.299380	0.333353
C57	C	0.855878	2.632713	0.666687
C58	C	0.193635	2.128736	0.000012
C59	C	0.526968	2.462069	0.333345
C60	C	0.860301	2.795403	0.666679
N61	N	0.195429	1.694787	0.425696
N62	N	0.528762	2.028120	0.759029
N63	N	0.862096	2.361454	1.092363
N64	N	0.195428	1.694816	-0.425658
N65	N	0.528761	2.028150	-0.092324
N66	N	0.862094	2.361483	0.241009
H67	H	-0.165420	1.553942	0.000023
H68	H	0.167913	1.887276	0.333356
H69	H	0.501247	2.220609	0.666689
H70	H	-0.443714	1.835672	0.000017
H71	H	-0.110381	2.169005	0.333350
H72	H	0.222952	2.502338	0.666684
Br73	Br	-0.318964	1.387386	0.000029
Br74	Br	0.014369	1.720720	0.333363
Br75	Br	0.347702	2.054053	0.666696
Br76	Br	-0.290177	2.002192	0.000039
Br77	Br	0.043157	2.335525	0.333373
Br78	Br	0.376490	2.668859	0.666706
