data_functionalizedCrystal
_audit_creation_method	'MofGen! by Chris Wilmer'
_symmetry_space_group_name_H-M	'P1'
_symmetry_Int_Tables_number	1
_symmetry_cell_setting	triclinic
loop_
_symmetry_equiv_pos_as_xyz
  x,y,z
_cell_length_a	11.792241
_cell_length_b	13.101039
_cell_length_c	14.044220
_cell_angle_alpha	93.667477
_cell_angle_beta	91.308853
_cell_angle_gamma	93.376518
loop_
_atom_site_label
_atom_site_type_symbol
_atom_site_fract_x
_atom_site_fract_y
_atom_site_fract_z
O1	O	1.524822	0.085117	-0.124790
O2	O	1.774822	0.335117	0.125210
O3	O	2.024822	0.585117	0.375210
O4	O	2.274822	0.835117	0.625210
O5	O	1.195740	0.085141	-0.138185
O6	O	1.445740	0.335141	0.111815
O7	O	1.695740	0.585141	0.361815
O8	O	1.945740	0.835141	0.611815
O9	O	1.355341	0.085119	0.006522
O10	O	1.605341	0.335119	0.256522
O11	O	1.855341	0.585119	0.506522
O12	O	2.105341	0.835119	0.756522
O13	O	1.365221	0.085139	-0.269497
O14	O	1.615221	0.335139	-0.019497
O15	O	1.865221	0.585139	0.230503
O16	O	2.115221	0.835139	0.480503
O17	O	1.343891	-0.085309	-0.003878
O18	O	1.593891	0.164691	0.246122
O19	O	1.843891	0.414691	0.496122
O20	O	2.093891	0.664691	0.746122
O21	O	1.184291	-0.085287	-0.148585
O22	O	1.434291	0.164713	0.101415
O23	O	1.684291	0.414713	0.351415
O24	O	1.934291	0.664713	0.601415
O25	O	1.513372	-0.085311	-0.135190
O26	O	1.763372	0.164689	0.114810
O27	O	2.013372	0.414689	0.364810
O28	O	2.263372	0.664689	0.614810
Zn29	Zn	1.347014	-0.112359	-0.143539
Zn30	Zn	1.597014	0.137641	0.106461
Zn31	Zn	1.847014	0.387641	0.356461
Zn32	Zn	2.097014	0.637641	0.606461
Zn33	Zn	1.362099	0.112188	-0.129836
Zn34	Zn	1.612099	0.362188	0.120164
Zn35	Zn	1.862099	0.612188	0.370164
Zn36	Zn	2.112099	0.862188	0.620164
O37	O	1.353772	-0.085290	-0.279897
O38	O	1.603772	0.164710	-0.029897
O39	O	1.853772	0.414710	0.220103
O40	O	2.103772	0.664710	0.470103
C41	C	1.147646	-0.000070	-0.142543
C42	C	1.397646	0.249930	0.107457
C43	C	1.647646	0.499930	0.357457
C44	C	1.897646	0.749930	0.607457
C45	C	1.021396	-0.000061	-0.140024
C46	C	1.271396	0.249939	0.109976
C47	C	1.521396	0.499939	0.359976
C48	C	1.771396	0.749939	0.609976
N49	N	1.336727	-0.265606	-0.152889
N50	N	1.586727	-0.015606	0.097111
N51	N	1.836727	0.234394	0.347111
N52	N	2.086727	0.484394	0.597111
C53	C	0.790247	-0.000091	-0.135394
C54	C	1.040247	0.249909	0.114606
C55	C	1.290247	0.499909	0.364606
C56	C	1.540247	0.749909	0.614606
C57	C	0.918875	-0.000075	-0.137967
C58	C	1.168875	0.249925	0.112033
C59	C	1.418875	0.499925	0.362033
C60	C	1.668875	0.749925	0.612033
C61	C	1.322732	-0.474646	-0.165620
C62	C	1.572732	-0.224646	0.084380
C63	C	1.822732	0.025354	0.334380
C64	C	2.072732	0.275354	0.584380
C65	C	1.386386	-0.525531	-0.107750
C66	C	1.636386	-0.275531	0.142250
C67	C	1.886386	-0.025531	0.392250
C68	C	2.136386	0.224469	0.642250
C69	C	1.378599	-0.641848	-0.114834
C70	C	1.628599	-0.391848	0.135166
C71	C	1.878599	-0.141848	0.385166
C72	C	2.128599	0.108152	0.635166
C73	C	1.330517	-0.358318	-0.158538
C74	C	1.580517	-0.108318	0.091462
C75	C	1.830517	0.141682	0.341462
C76	C	2.080517	0.391682	0.591462
C77	C	1.561467	-0.000098	-0.130832
C78	C	1.811467	0.249902	0.119168
C79	C	2.061467	0.499902	0.369168
C80	C	2.311467	0.749902	0.619168
C81	C	1.687717	-0.000100	-0.133350
C82	C	1.937717	0.249900	0.116650
C83	C	2.187717	0.499900	0.366650
C84	C	2.437717	0.749900	0.616650
C85	C	1.345292	-0.000095	0.036659
C86	C	1.595292	0.249905	0.286659
C87	C	1.845292	0.499905	0.536659
C88	C	2.095292	0.749905	0.786659
C89	C	1.332393	-0.000095	0.141951
C90	C	1.582393	0.249905	0.391951
C91	C	1.832393	0.499905	0.641951
C92	C	2.082393	0.749905	0.891951
N93	N	1.372394	0.265435	-0.120478
N94	N	1.622394	0.515435	0.129522
N95	N	1.872394	0.765435	0.379522
N96	N	2.122394	1.015435	0.629522
C97	C	1.363821	-0.000073	-0.310033
C98	C	1.613821	0.249927	-0.060033
C99	C	1.863821	0.499927	0.189967
C100	C	2.113821	0.749927	0.439967
C101	C	1.376720	-0.000066	-0.415325
C102	C	1.626720	0.249934	-0.165325
C103	C	1.876720	0.499934	0.084675
C104	C	2.126720	0.749934	0.334675
C105	C	1.308812	-0.000079	0.334734
C106	C	1.558812	0.249921	0.584734
C107	C	1.808812	0.499921	0.834734
C108	C	2.058812	0.749921	1.084734
C109	C	1.400296	-0.000083	0.391897
C110	C	1.650296	0.249917	0.641897
C111	C	1.900296	0.499917	0.891897
C112	C	2.150296	0.749917	1.141897
C113	C	1.387176	-0.000073	0.499168
C114	C	1.637176	0.249927	0.749168
C115	C	1.887176	0.499927	0.999168
C116	C	2.137176	0.749927	1.249168
C117	C	1.321931	-0.000088	0.227453
C118	C	1.571931	0.249912	0.477453
C119	C	1.821931	0.499912	0.727453
C120	C	2.071931	0.749912	0.977453
H121	H	1.446730	-0.481737	-0.052887
H122	H	1.696730	-0.231737	0.197113
H123	H	1.946730	0.018263	0.447113
H124	H	2.196730	0.268263	0.697113
H125	H	1.262393	-0.518435	-0.220481
H126	H	1.512393	-0.268435	0.029519
H127	H	1.762393	-0.018435	0.279519
H128	H	2.012393	0.231565	0.529519
N129	N	1.517101	-0.000114	0.350021
N130	N	1.767101	0.249886	0.600021
N131	N	2.017101	0.499886	0.850021
N132	N	2.267101	0.749886	1.100021
H133	H	1.564012	0.063058	0.375737
H134	H	1.814012	0.313058	0.625737
H135	H	2.064012	0.563058	0.875737
H136	H	2.314012	0.813058	1.125737
H137	H	1.509949	-0.000161	0.278219
H138	H	1.759949	0.249839	0.528219
H139	H	2.009949	0.499839	0.778219
H140	H	2.259949	0.749839	1.028219
H141	H	1.220642	-0.000070	0.366357
H142	H	1.470642	0.249930	0.616357
H143	H	1.720642	0.499930	0.866357
H144	H	1.970642	0.749930	1.116357
