data_functionalizedCrystal
_audit_creation_method	'MofGen! by Chris Wilmer'
_symmetry_space_group_name_H-M	'P1'
_symmetry_Int_Tables_number	1
_symmetry_cell_setting	triclinic
loop_
_symmetry_equiv_pos_as_xyz
  x,y,z
_cell_length_a	16.109301
_cell_length_b	10.489741
_cell_length_c	15.186229
_cell_angle_alpha	89.996534
_cell_angle_beta	89.999362
_cell_angle_gamma	84.000327
loop_
_atom_site_label
_atom_site_type_symbol
_atom_site_fract_x
_atom_site_fract_y
_atom_site_fract_z
O1	O	1.104141	0.163947	-0.073172
O2	O	0.862205	0.184350	-0.073186
O3	O	0.988678	-0.011529	-0.073174
O4	O	0.977668	0.359826	-0.073185
O5	O	0.988670	-0.011532	0.073284
O6	O	0.862196	0.184347	0.073271
O7	O	1.104133	0.163944	0.073285
Zn8	Zn	0.983163	0.174145	0.096531
Zn9	Zn	0.983174	0.174149	-0.096433
O10	O	0.977659	0.359823	0.073272
C11	C	0.831221	0.183522	0.000041
C12	C	0.738910	0.181044	0.000035
C13	C	0.517319	0.291514	0.000042
C14	C	0.430584	0.289175	0.000048
C15	C	0.449026	0.056771	0.000051
C16	C	0.535759	0.059111	0.000052
C17	C	0.569903	0.176486	0.000043
C18	C	0.396435	0.171808	0.000048
C19	C	0.302393	0.169272	0.000054
C20	C	0.663950	0.179022	0.000038
C21	C	0.987842	-0.059050	0.000054
C22	C	0.985354	-0.200644	0.000053
C23	C	0.904883	-0.267616	0.000042
C24	C	0.942893	-0.360292	0.072255
C25	C	0.942920	-0.360264	-0.072141
C26	C	1.023397	-0.291454	0.072325
C27	C	1.023413	-0.291417	-0.072135
C28	C	1.061482	-0.384066	0.000096
C29	C	1.135117	0.164772	0.000056
C30	C	1.227427	0.167250	0.000056
C31	C	0.978495	0.407344	0.000042
C32	C	0.980983	0.548938	0.000038
N33	N	0.983162	0.174142	0.228224
N34	N	0.983183	0.174142	-0.228125
C35	C	1.039183	0.087436	0.453952
C36	C	1.039186	0.087433	0.546142
C37	C	0.927155	0.260852	0.546140
C38	C	0.927149	0.260848	0.453952
C39	C	0.983168	0.174141	0.407860
C40	C	0.983176	0.174142	0.592238
C41	C	0.983179	0.174140	0.692194
C42	C	0.983165	0.174142	0.307898
H43	H	0.387773	0.382843	0.000049
C44	C	0.438046	-0.142030	-0.075237
C45	C	0.411493	-0.072244	0.000050
H46	H	0.414879	-0.221683	-0.075236
H47	H	0.420041	-0.094663	-0.126300
H48	H	0.497228	-0.157089	-0.075224
H49	H	0.352311	-0.057176	0.000034
H50	H	0.429492	-0.119621	0.051126
H51	H	0.578575	-0.034565	0.000055
C52	C	1.056201	-0.086154	0.649814
C53	C	1.100761	-0.007877	0.596805
H54	H	1.094217	-0.145001	0.681085
H55	H	1.022852	-0.034517	0.690457
H56	H	1.021322	-0.132045	0.613844
H57	H	1.135635	0.038022	0.632776
H58	H	1.134125	-0.059519	0.556157
C59	C	0.490375	0.520998	0.000050
C60	C	0.554851	0.420530	0.000044
H61	H	0.513546	0.600648	0.000059
H62	H	0.456932	0.515260	-0.051020
H63	H	0.456928	0.515233	0.051126
H64	H	0.588294	0.426290	-0.051035
H65	H	0.588307	0.426271	0.051120
C66	C	0.773629	-0.233792	0.075844
C67	C	0.815570	-0.199280	0.000131
H68	H	0.718494	-0.191595	0.075903
H69	H	0.771433	-0.323922	0.076360
H70	H	0.802509	-0.209242	0.126619
H71	H	0.786693	-0.223838	-0.050644
H72	H	0.817761	-0.109130	-0.000393
C73	C	1.149913	-0.083992	0.463217
C74	C	1.100750	-0.007883	0.403288
H75	H	1.187918	-0.142845	0.431939
H76	H	1.180139	-0.030886	0.499165
H77	H	1.115024	-0.129877	0.499182
H78	H	1.135640	0.038010	0.367327
H79	H	1.070523	-0.060996	0.367325
H80	H	1.127704	-0.434450	0.000140
H81	H	0.908840	-0.390810	0.133302
H82	H	0.881546	0.331449	0.583677
H83	H	0.881530	0.331455	0.416421
C84	C	1.071195	-0.117362	0.154118
C85	C	1.069314	-0.250511	0.154839
H86	H	1.099535	-0.092085	0.205062
H87	H	1.099595	-0.093248	0.102912
H88	H	1.015728	-0.076453	0.153906
H89	H	1.124781	-0.291420	0.155044
H90	H	1.040916	-0.274638	0.206059
H91	H	1.057437	-0.260865	-0.133185
H92	H	0.908865	-0.390732	-0.133197
