data_functionalizedCrystal
_audit_creation_method	'MofGen! by Chris Wilmer'
_symmetry_space_group_name_H-M	'P1'
_symmetry_Int_Tables_number	1
_symmetry_cell_setting	triclinic
loop_
_symmetry_equiv_pos_as_xyz
  x,y,z
_cell_length_a	10.686154
_cell_length_b	10.685741
_cell_length_c	10.685314
_cell_angle_alpha	99.024712
_cell_angle_beta	81.644047
_cell_angle_gamma	90.321389
loop_
_atom_site_label
_atom_site_type_symbol
_atom_site_fract_x
_atom_site_fract_y
_atom_site_fract_z
Zn1	Zn	-1.914134	-0.401137	-0.597679
Zn2	Zn	-1.414134	0.098863	-0.097679
Zn3	Zn	-1.944099	-0.594673	-0.399250
Zn4	Zn	-1.444099	-0.094673	0.100750
Zn5	Zn	-1.718152	-0.401231	-0.401715
Zn6	Zn	-1.218152	0.098769	0.098285
Zn7	Zn	-1.718180	-0.629610	-0.630172
Zn8	Zn	-1.218180	-0.129610	-0.130172
O9	O	-1.823641	-0.506663	-0.507204
O10	O	-1.323641	-0.006663	-0.007204
O11	O	-2.094677	-0.412149	-0.556728
O12	O	-1.594677	0.087851	-0.056728
O13	O	-1.926655	-0.554431	-0.220924
O14	O	-1.426655	-0.054431	0.279076
O15	O	-1.731597	-0.224645	-0.415143
O16	O	-1.231597	0.275355	0.084857
O17	O	-2.116692	-0.554340	-0.410943
O18	O	-1.616692	-0.054340	0.089057
O19	O	-1.875585	-0.224576	-0.559117
O20	O	-1.375585	0.275424	-0.059117
O21	O	-1.760653	-0.412310	-0.222734
O22	O	-1.260653	0.087690	0.277266
O23	O	-1.541588	-0.446186	-0.446650
O24	O	-1.041588	0.053814	0.053350
O25	O	-1.731645	-0.613884	-0.804515
O26	O	-1.231645	-0.113884	-0.304515
O27	O	-1.541609	-0.613975	-0.614497
O28	O	-1.041609	-0.113975	-0.114497
O29	O	-1.875612	-0.446026	-0.780643
O30	O	-1.375612	0.053974	-0.280643
O31	O	-1.926682	-0.775881	-0.442450
O32	O	-1.426682	-0.275881	0.057550
O33	O	-1.760700	-0.801548	-0.612107
O34	O	-1.260700	-0.301548	-0.112107
C35	C	-1.495816	-0.533883	-0.534367
C36	C	-0.995816	-0.033883	-0.034367
C37	C	-1.355571	-0.545560	-0.546020
C38	C	-0.855571	-0.045560	-0.046020
C39	C	-1.846978	-0.834497	-0.530562
C40	C	-1.346978	-0.334497	-0.030562
C41	C	-1.857074	-0.974740	-0.540587
C42	C	-1.357074	-0.474740	-0.040587
C43	C	-1.800289	-0.533841	-0.840197
C44	C	-1.300289	-0.033841	-0.340197
C45	C	-1.790338	-0.545423	-0.982099
C46	C	-1.290338	-0.045423	-0.482099
C47	C	-1.152746	-0.479324	-0.479927
C48	C	-0.652746	0.020676	0.020073
C49	C	-1.292990	-0.467641	-0.468279
C50	C	-0.792990	0.032359	0.031721
C51	C	-1.800246	-0.177547	-0.483781
C52	C	-1.300246	0.322453	0.016219
C53	C	-1.790276	-0.037298	-0.473799
C54	C	-1.290276	0.462702	0.026201
C55	C	-1.846969	-0.479493	-0.175494
C56	C	-1.346969	0.020507	0.324506
C57	C	-1.857139	-0.467535	-0.033547
C58	C	-1.357139	0.032465	0.466453
H59	H	-1.346703	-0.391998	-0.392805
H60	H	-0.846703	0.108002	0.107195
O61	O	-1.284491	-0.645820	-0.645996
O62	O	-0.784491	-0.145820	-0.145996
H63	H	-1.215874	-0.599758	-0.712006
H64	H	-0.715874	-0.099758	-0.212006
O65	O	-1.942929	-0.045908	-0.626458
O66	O	-1.442929	0.454092	-0.126458
H67	H	-1.937542	-0.148593	-0.621097
H68	H	-1.437542	0.351407	-0.121097
O69	O	-1.704405	0.033873	-0.387934
O70	O	-1.204405	0.533873	0.112066
H71	H	-1.709775	0.136557	-0.393309
H72	H	-1.209775	0.636557	0.106691
H73	H	-1.725531	-0.620966	-1.046612
H74	H	-1.225531	-0.120966	-0.546612
H75	H	-1.921935	-0.391975	-0.969028
H76	H	-1.421935	0.108025	-0.469028
