data_functionalizedCrystal
_audit_creation_method	'MofGen! by Chris Wilmer'
_symmetry_space_group_name_H-M	'P1'
_symmetry_Int_Tables_number	1
_symmetry_cell_setting	triclinic
loop_
_symmetry_equiv_pos_as_xyz
  x,y,z
_cell_length_a	14.908520
_cell_length_b	14.908571
_cell_length_c	14.908308
_cell_angle_alpha	89.824947
_cell_angle_beta	83.639235
_cell_angle_gamma	90.205961
loop_
_atom_site_label
_atom_site_type_symbol
_atom_site_fract_x
_atom_site_fract_y
_atom_site_fract_z
Zn1	Zn	-0.470613	1.316651	0.613065
Zn2	Zn	-0.613252	1.316549	0.470429
Zn3	Zn	-0.453291	1.176020	0.453125
Zn4	Zn	-0.612180	1.157642	0.612023
O5	O	-0.537334	1.241715	0.537161
O6	O	-0.497231	1.441995	0.601822
O7	O	-0.585232	1.305556	0.341941
O8	O	-0.329399	1.202409	0.467536
O9	O	-0.602028	1.441920	0.497029
O10	O	-0.342124	1.305730	0.585043
O11	O	-0.467710	1.202310	0.329228
O12	O	-0.466671	1.048225	0.466525
O13	O	-0.600202	1.171086	0.738354
O14	O	-0.583406	1.034722	0.583267
O15	O	-0.496192	1.287909	0.739120
O16	O	-0.739300	1.287736	0.496018
O17	O	-0.738513	1.170987	0.600046
C18	C	-0.523043	1.008970	0.522906
C19	C	-0.516953	0.909397	0.516830
C20	C	-0.627234	0.708277	0.626831
C21	C	-0.621514	0.614720	0.621125
C22	C	-0.499789	0.628723	0.499719
C23	C	-0.505509	0.722281	0.505424
C24	C	-0.569235	0.762054	0.568981
C25	C	-0.574958	0.855613	0.574682
C26	C	-0.453230	0.869615	0.453280
C27	C	-0.447510	0.776058	0.447575
C28	C	-0.771629	1.227379	0.549818
C29	C	-0.871868	1.221326	0.555268
C30	C	-1.060998	1.331634	0.457284
C31	C	-1.155181	1.325950	0.462402
C32	C	-1.154420	1.204279	0.570626
C33	C	-1.060237	1.209963	0.565508
C34	C	-1.013529	1.273642	0.508834
C35	C	-0.919343	1.279321	0.503712
C36	C	-0.918584	1.157655	0.611940
C37	C	-1.012768	1.151970	0.617058
C38	C	-0.302127	1.256131	0.524476
C39	C	-0.201896	1.262274	0.519070
C40	C	-0.550010	1.227459	0.772372
C41	C	-0.555411	1.221383	0.872606
C42	C	-0.551681	1.475370	0.551472
C43	C	-0.557795	1.574939	0.557571
C44	C	-0.524646	1.255972	0.302864
C45	C	-0.519001	1.262236	0.202628
C46	C	-0.457236	1.331614	1.061752
C47	C	-0.462308	1.325908	1.155930
C48	C	-0.570623	1.204264	1.155141
C49	C	-0.565551	1.209969	1.060963
C50	C	-0.508856	1.273647	1.014272
C51	C	-0.503789	1.279356	0.920093
C52	C	-0.612099	1.157708	0.919305
C53	C	-0.617171	1.152002	1.013483
H54	H	-0.447902	0.596323	0.447979
H55	H	-0.881314	1.331169	0.457563
C56	C	-0.441429	1.349395	0.868729
H57	H	-0.445805	1.344498	0.805840
H58	H	-0.380867	1.339058	0.880091
H59	H	-0.459154	1.407844	0.888562
H60	H	-1.193828	1.373175	0.420427
C61	C	-0.394875	1.401653	1.010389
H62	H	-0.364854	1.435356	1.052156
H63	H	-0.429783	1.440796	0.977897
H64	H	-0.351499	1.372008	0.969436
H65	H	-0.420271	1.373109	1.194585
C66	C	-0.632970	1.134218	1.206510
H67	H	-0.628595	1.139125	1.269399
H68	H	-0.615246	1.075774	1.186675
H69	H	-0.693540	1.144552	1.195159
H70	H	-0.663328	1.100156	1.051511
H71	H	-0.654134	1.110509	0.880636
C72	C	-0.697329	0.752031	0.696735
H73	H	-0.731052	0.706603	0.730374
H74	H	-0.736934	0.788221	0.666521
H75	H	-0.667240	0.788253	0.736452
H76	H	-0.626848	0.887995	0.626432
H77	H	-0.668742	0.570938	0.668234
C78	C	-0.377423	0.732302	0.377663
H79	H	-0.382326	0.668880	0.382545
H80	H	-0.318504	0.750530	0.388610
H81	H	-0.388214	0.750493	0.318694
H82	H	-1.050810	1.100127	0.663202
C83	C	-0.389429	0.928768	0.389638
H84	H	-0.350666	0.891677	0.350965
H85	H	-0.354282	0.965581	0.424294
H86	H	-0.423989	0.965529	0.354374
C87	C	-1.009612	1.401670	0.394944
H88	H	-0.946721	1.396744	0.399275
H89	H	-1.029392	1.460119	0.412708
H90	H	-1.021012	1.391340	0.334381
C91	C	-1.205809	1.134238	0.632957
H92	H	-1.268699	1.139159	0.628616
H93	H	-1.194408	1.144549	0.693519
H94	H	-1.186031	1.075788	0.615176
H95	H	-0.879924	1.110431	0.653913
