data_functionalizedCrystal
_audit_creation_method	'MofGen! by Chris Wilmer'
_symmetry_space_group_name_H-M	'P1'
_symmetry_Int_Tables_number	1
_symmetry_cell_setting	triclinic
loop_
_symmetry_equiv_pos_as_xyz
  x,y,z
_cell_length_a	17.077404
_cell_length_b	12.759394
_cell_length_c	17.077396
_cell_angle_alpha	89.973684
_cell_angle_beta	89.980499
_cell_angle_gamma	90.015062
loop_
_atom_site_label
_atom_site_type_symbol
_atom_site_fract_x
_atom_site_fract_y
_atom_site_fract_z
Zn1	Zn	1.200099	-0.418260	-0.443855
Zn2	Zn	1.700099	0.081740	0.056145
Zn3	Zn	1.200024	-0.593961	-0.312593
Zn4	Zn	1.700024	-0.093961	0.187407
Zn5	Zn	1.068830	-0.418297	-0.312602
Zn6	Zn	1.568830	0.081703	0.187398
Zn7	Zn	1.068817	-0.593898	-0.443817
Zn8	Zn	1.568817	-0.093898	0.056183
O9	O	1.134442	-0.506104	-0.378217
O10	O	1.634442	-0.006104	0.121783
O11	O	1.309936	-0.441578	-0.426454
O12	O	1.809936	0.058422	0.073546
O13	O	1.182595	-0.570700	-0.202748
O14	O	1.682595	-0.070700	0.297252
O15	O	1.086280	-0.271271	-0.330033
O16	O	1.586280	0.228729	0.169967
O17	O	1.309881	-0.570664	-0.330017
O18	O	1.809881	-0.070664	0.169983
O19	O	1.182722	-0.271244	-0.426463
O20	O	1.682722	0.228756	0.073537
O21	O	1.086208	-0.441641	-0.202754
O22	O	1.586208	0.058359	0.297246
O23	O	0.958982	-0.441580	-0.329996
O24	O	1.458982	0.058420	0.170004
O25	O	1.086257	-0.570558	-0.553669
O26	O	1.586257	-0.070558	-0.053669
O27	O	0.958972	-0.570594	-0.426399
O28	O	1.458972	-0.070594	0.073601
O29	O	1.182709	-0.441517	-0.553697
O30	O	1.682709	0.058483	-0.053697
O31	O	1.182582	-0.740974	-0.329981
O32	O	1.682582	-0.240974	0.170019
O33	O	1.086185	-0.740928	-0.426391
O34	O	1.586185	-0.240928	0.073609
C35	C	0.930495	-0.506085	-0.378195
C36	C	1.430495	-0.006085	0.121805
C37	C	0.843245	-0.506102	-0.378205
C38	C	1.343245	-0.006102	0.121795
C39	C	0.802270	-0.573381	-0.428321
C40	C	1.302270	-0.073381	0.071679
C41	C	0.720290	-0.573383	-0.428334
C42	C	1.220290	-0.073383	0.071666
C43	C	0.679285	-0.506111	-0.378225
C44	C	1.179285	-0.006111	0.121775
C45	C	0.720266	-0.438825	-0.328107
C46	C	1.220266	0.061175	0.171893
C47	C	0.802245	-0.438818	-0.328099
C48	C	1.302245	0.061182	0.171901
C49	C	0.549396	-0.438846	-0.328125
C50	C	1.049396	0.061154	0.171875
C51	C	0.467411	-0.438854	-0.328132
C52	C	0.967411	0.061146	0.171868
C53	C	0.467441	-0.573411	-0.428360
C54	C	0.967441	-0.073411	0.071640
C55	C	0.549419	-0.573404	-0.428352
C56	C	1.049419	-0.073404	0.071648
C57	C	0.590394	-0.506119	-0.378233
C58	C	1.090394	-0.006119	0.121767
C59	C	1.134395	-0.779072	-0.378198
C60	C	1.634395	-0.279072	0.121802
C61	C	1.134447	-0.895848	-0.378216
C62	C	1.634447	-0.395848	0.121784
C63	C	1.234901	-0.895843	-0.277900
C64	C	1.734901	-0.395843	0.222100
C65	C	1.285148	-0.950701	-0.227751
C66	C	1.785148	-0.450701	0.272249
C67	C	1.285194	-1.060422	-0.227773
C68	C	1.785194	-0.560422	0.272227
C69	C	1.234989	-1.115288	-0.277950
C70	C	1.734989	-0.615288	0.222050
C71	C	1.184742	-1.060430	-0.328099
C72	C	1.684742	-0.560430	0.171901
C73	C	1.184700	-0.950706	-0.328070
C74	C	1.684700	-0.450706	0.171930
C75	C	1.084293	-1.060436	-0.428417
C76	C	1.584293	-0.560436	0.071583
C77	C	1.084242	-0.950714	-0.428393
C78	C	1.584242	-0.450714	0.071607
C79	C	1.034088	-1.115302	-0.478594
C80	C	1.534088	-0.615302	0.021406
C81	C	0.983835	-1.060444	-0.528740
C82	C	1.483835	-0.560444	-0.028740
C83	C	0.983791	-0.950716	-0.528716
C84	C	1.483791	-0.450716	-0.028716
C85	C	1.033994	-0.895856	-0.478542
C86	C	1.533994	-0.395856	0.021458
C87	C	1.339187	-0.506124	-0.378239
C88	C	1.839187	-0.006124	0.121761
C89	C	1.426436	-0.506132	-0.378249
C90	C	1.926436	-0.006132	0.121751
C91	C	1.134490	-0.506027	-0.582961
C92	C	1.634490	-0.006027	-0.082961
C93	C	1.134510	-0.505994	-0.670211
C94	C	1.634510	-0.005994	-0.170211
C95	C	1.134511	-0.232071	-0.378253
C96	C	1.634511	0.267929	0.121747
C97	C	1.134540	-0.115294	-0.378269
C98	C	1.634540	0.384706	0.121731
C99	C	1.184735	-0.438797	-0.711217
C100	C	1.684735	0.061203	-0.211217
C101	C	1.184744	-0.438762	-0.793197
C102	C	1.684744	0.061238	-0.293197
C103	C	1.134532	-0.505930	-0.834171
C104	C	1.634532	-0.005930	-0.334171
C105	C	1.084302	-0.573130	-0.793159
C106	C	1.584302	-0.073130	-0.293159
C107	C	1.084290	-0.573159	-0.711180
C108	C	1.584290	-0.073159	-0.211180
C109	C	1.084334	-0.573067	-0.964029
C110	C	1.584334	-0.073067	-0.464029
C111	C	1.084348	-0.573039	-1.046014
C112	C	1.584348	-0.073039	-0.546014
C113	C	1.184788	-0.438670	-1.046047
C114	C	1.684788	0.061330	-0.546047
C115	C	1.184776	-0.438699	-0.964068
C116	C	1.684776	0.061301	-0.464068
C117	C	1.134546	-0.505900	-0.923062
C118	C	1.634546	-0.005900	-0.423062
C119	C	1.134440	-0.506105	-0.174269
C120	C	1.634440	-0.006105	0.325731
C121	C	1.134572	-0.505842	-0.087020
C122	C	1.634572	-0.005842	0.412980
H123	H	0.434028	-0.384062	-0.287339
H124	H	0.934028	0.115938	0.212661
C125	C	1.234848	-0.775146	-0.277865
C126	C	1.734848	-0.275146	0.222135
N127	N	1.234809	-0.684236	-0.277837
N128	N	1.734809	-0.184236	0.222163
H129	H	0.835650	-0.628165	-0.469123
H130	H	1.335650	-0.128165	0.030877
H131	H	1.043420	-0.627773	-0.930645
H132	H	1.543420	-0.127773	-0.430645
C133	C	1.240009	-0.364808	-0.918999
C134	C	1.740009	0.135192	-0.418999
N135	N	1.281609	-0.309148	-0.885053
N136	N	1.781609	0.190852	-0.385053
H137	H	0.942966	-1.105125	-0.569594
H138	H	1.442966	-0.605125	-0.069594
C139	C	0.675221	-0.647415	-0.483451
C140	C	1.175221	-0.147415	0.016549
N141	N	0.641276	-0.703186	-0.524962
N142	N	1.141276	-0.203186	-0.024962
H143	H	0.942876	-0.906056	-0.569557
H144	H	1.442876	-0.406056	-0.069557
C145	C	0.422367	-0.647420	-0.483497
C146	C	0.922367	-0.147420	0.016503
N147	N	0.388413	-0.703163	-0.525023
N148	N	0.888413	-0.203163	-0.025023
C149	C	0.594466	-0.364831	-0.272989
C150	C	1.094466	0.135169	0.227011
N151	N	0.628413	-0.309089	-0.231457
N152	N	1.128413	0.190911	0.268543
C153	C	1.029040	-0.647083	-0.666074
C154	C	1.529040	-0.147083	-0.166074
N155	N	0.987423	-0.702763	-0.632101
N156	N	1.487423	-0.202763	-0.132101
H157	H	1.225625	-0.384104	-0.677862
H158	H	1.725625	0.115896	-0.177862
C159	C	1.034138	-1.235999	-0.478615
C160	C	1.534138	-0.735999	0.021385
N161	N	1.034172	-1.326909	-0.478628
N162	N	1.534172	-0.826909	0.021372
C163	C	1.240041	-0.364746	-1.091154
C164	C	1.740041	0.135254	-0.591154
N165	N	1.281657	-0.309072	-1.125133
N166	N	1.781657	0.190928	-0.625133
H167	H	1.033958	-0.806515	-0.478512
H168	H	1.533958	-0.306515	0.021488
C169	C	0.847317	-0.364809	-0.272965
C170	C	1.347317	0.135191	0.227035
N171	N	0.881264	-0.309061	-0.231438
N172	N	1.381264	0.190939	0.268562
H173	H	1.225644	-0.384046	-0.826581
H174	H	1.725644	0.115954	-0.326581
C175	C	1.340369	-0.890340	-0.172557
C176	C	1.840369	-0.390340	0.327443
N177	N	1.381962	-0.844879	-0.130984
N178	N	1.881962	-0.344879	0.369016
C179	C	1.340468	-1.120768	-0.172607
C180	C	1.840468	-0.620768	0.327393
N181	N	1.382100	-1.166220	-0.131055
N182	N	1.882100	-0.666220	0.368945
C183	C	1.029108	-0.646921	-1.091083
C184	C	1.529108	-0.146921	-0.591083
N185	N	0.987499	-0.702569	-1.125029
N186	N	1.487499	-0.202569	-0.625029
C187	C	1.235047	-1.235985	-0.277974
C188	C	1.735047	-0.735985	0.222026
N189	N	1.235089	-1.326895	-0.277992
N190	N	1.735089	-0.826895	0.222008
C191	C	1.029061	-0.647006	-0.838233
C192	C	1.529061	-0.147006	-0.338233
N193	N	0.987452	-0.702650	-0.872181
N194	N	1.487452	-0.202650	-0.372181
H195	H	0.686874	-0.384047	-0.287311
H196	H	1.186874	0.115953	0.212689
H197	H	0.582803	-0.628188	-0.469151
H198	H	1.082803	-0.128188	0.030849
