data_functionalizedCrystal
_audit_creation_method	'MofGen! by Chris Wilmer'
_symmetry_space_group_name_H-M	'P1'
_symmetry_Int_Tables_number	1
_symmetry_cell_setting	triclinic
loop_
_symmetry_equiv_pos_as_xyz
  x,y,z
_cell_length_a	17.077404
_cell_length_b	25.639239
_cell_length_c	17.077396
_cell_angle_alpha	90.031074
_cell_angle_beta	90.019501
_cell_angle_gamma	90.038911
loop_
_atom_site_label
_atom_site_type_symbol
_atom_site_fract_x
_atom_site_fract_y
_atom_site_fract_z
Zn1	Zn	1.199968	-0.208148	0.443829
Zn2	Zn	1.199839	-0.295585	0.312557
Zn3	Zn	1.068700	-0.208166	0.312576
Zn4	Zn	1.068632	-0.295554	0.443780
O5	O	1.134285	-0.251863	0.378185
O6	O	1.309798	-0.219752	0.426427
O7	O	1.182418	-0.284010	0.202712
O8	O	1.086196	-0.134998	0.330016
O9	O	1.309703	-0.283992	0.329982
O10	O	1.182638	-0.134985	0.426446
O11	O	1.086071	-0.219783	0.202727
O12	O	0.958844	-0.219753	0.329969
O13	O	1.086080	-0.283939	0.553634
O14	O	0.958794	-0.283957	0.426364
O15	O	1.182572	-0.219722	0.553669
O16	O	1.182352	-0.368746	0.329935
O17	O	1.085954	-0.368724	0.426345
C18	C	0.930337	-0.251854	0.378164
C19	C	0.843087	-0.251862	0.378173
C20	C	0.802092	-0.285344	0.428285
C21	C	0.720111	-0.285345	0.428298
C22	C	0.679128	-0.251867	0.378194
C23	C	0.720129	-0.218382	0.328079
C24	C	0.802108	-0.218378	0.328071
C25	C	0.549259	-0.218392	0.328098
C26	C	0.467275	-0.218396	0.328105
C27	C	0.467262	-0.285358	0.428325
C28	C	0.549241	-0.285355	0.428317
C29	C	0.590237	-0.251871	0.378201
C30	C	1.134153	-0.387706	0.378150
C31	C	1.134168	-0.445820	0.378160
C32	C	1.184610	-0.806182	0.328071
C33	C	1.184641	-0.860787	0.328081
O34	O	1.227391	-0.889023	0.285454
N35	N	1.134423	-0.888102	0.378237
C36	C	1.084177	-0.860811	0.428392
O37	O	1.041467	-0.889059	0.471056
C38	C	1.084151	-0.806208	0.428385
C39	C	1.134367	-0.778895	0.378220
C40	C	1.234822	-0.778869	0.277910
C41	C	1.234790	-0.724269	0.277899
C42	C	1.184547	-0.696981	0.328048
C43	C	1.134335	-0.724294	0.378209
C44	C	1.033910	-0.778917	0.478543
C45	C	1.033889	-0.724310	0.478532
C46	C	1.084104	-0.696997	0.428367
C47	C	1.084060	-0.642406	0.428346
N48	N	1.134278	-0.615090	0.378190
C49	C	1.184521	-0.642378	0.328041
C50	C	1.084236	-0.975482	0.428404
C51	C	1.084258	-1.030084	0.428408
C52	C	1.184722	-1.030056	0.328098
C53	C	1.184696	-0.975452	0.328091
C54	C	1.134454	-0.948166	0.378248
C55	C	1.184450	-0.527713	0.328020
C56	C	1.184412	-0.473107	0.328011
C57	C	1.083951	-0.473140	0.428324
C58	C	1.083986	-0.527741	0.428331
C59	C	1.134242	-0.555026	0.378176
O60	O	1.041334	-0.614135	0.470954
O61	O	1.227232	-0.614123	0.285392
C62	C	1.339029	-0.251873	0.378208
C63	C	1.426279	-0.251877	0.378217
C64	C	1.134333	-0.251825	0.582930
C65	C	1.134353	-0.251808	0.670180
C66	C	1.134439	-0.115490	0.378239
C67	C	1.134505	-0.057376	0.378261
C68	C	1.134283	-0.251864	0.174238
C69	C	1.134415	-0.251733	0.086988
C70	C	1.184598	-0.218368	0.711190
C71	C	1.184608	-0.218350	0.793170
C72	C	1.134375	-0.251777	0.834139
C73	C	1.084124	-0.285219	0.793123
C74	C	1.084111	-0.285233	0.711144
C75	C	1.084156	-0.285187	0.963994
C76	C	1.084169	-0.285174	1.045978
C77	C	1.184652	-0.218304	1.046019
C78	C	1.184639	-0.218319	0.964040
C79	C	1.134389	-0.251762	0.923030
H80	H	0.433908	-0.191129	0.287315
N81	N	0.843963	-0.319534	0.479467
N82	N	0.917158	-0.319528	0.479456
H83	H	0.946730	-0.343674	0.515606
H84	H	1.043221	-0.312433	0.826487
N85	N	1.236003	-0.947554	0.276863
N86	N	1.285998	-0.917043	0.304520
H87	H	1.322237	-0.897342	0.268339
N88	N	1.286135	-0.806736	0.226664
N89	N	1.258558	-0.837238	0.176614
H90	H	1.294796	-0.856917	0.140413
N91	N	0.982610	-0.806800	0.529791
N92	N	0.937763	-0.782419	0.574563
H93	H	0.901530	-0.802109	0.610762
H94	H	1.225636	-1.052283	0.287266
H95	H	0.835486	-0.191112	0.287269
H96	H	1.043225	-0.312412	0.930606
H97	H	1.043264	-0.312391	1.079333
H98	H	0.582607	-0.312619	0.469112
H99	H	0.686754	-0.191121	0.287287
H100	H	1.043188	-0.312459	0.677755
H101	H	0.686736	-0.312609	0.469104
H102	H	1.225506	-0.191150	0.677838
H103	H	1.043317	-0.953267	0.469246
H104	H	1.225303	-0.450871	0.287158
H105	H	1.225524	-0.191121	0.826557
N106	N	1.032946	-1.057972	0.479643
N107	N	0.988089	-1.033595	0.524410
H108	H	0.951850	-1.053289	0.560599
N109	N	0.982566	-0.696447	0.529778
N110	N	0.937741	-0.720844	0.574562
H111	H	0.901493	-0.701167	0.610754
H112	H	1.043099	-0.549980	0.469182
N113	N	1.032629	-0.445253	0.479536
N114	N	1.032615	-0.396501	0.479513
H115	H	0.996370	-0.376803	0.515684
N116	N	1.235963	-0.184178	0.922202
N117	N	1.280825	-0.154322	0.958825
H118	H	1.317074	-0.130208	0.929277
N119	N	1.235979	-0.184147	1.087918
N120	N	1.235984	-0.184136	1.161112
H121	H	1.272234	-0.160015	1.190707
H122	H	0.433879	-0.312621	0.469133
N123	N	1.235777	-0.555571	0.276773
N124	N	1.230597	-0.549500	0.204337
H125	H	1.266842	-0.569175	0.168138
N126	N	0.591140	-0.184181	0.276921
N127	N	0.582033	-0.135940	0.282264
H128	H	0.611613	-0.111779	0.246122
N129	N	1.286091	-0.696381	0.226652
N130	N	1.330945	-0.720761	0.181885
H131	H	1.367180	-0.701069	0.145690
