data_functionalizedCrystal
_audit_creation_method	'MofGen! by Chris Wilmer'
_symmetry_space_group_name_H-M	'P1'
_symmetry_Int_Tables_number	1
_symmetry_cell_setting	triclinic
loop_
_symmetry_equiv_pos_as_xyz
  x,y,z
_cell_length_a	18.215407
_cell_length_b	12.759399
_cell_length_c	18.215399
_cell_angle_alpha	89.974619
_cell_angle_beta	89.983584
_cell_angle_gamma	90.012575
loop_
_atom_site_label
_atom_site_type_symbol
_atom_site_fract_x
_atom_site_fract_y
_atom_site_fract_z
Zn1	Zn	1.125118	-0.418344	-0.416074
Zn2	Zn	1.125049	-0.594043	-0.293014
Zn3	Zn	1.002052	-0.418370	-0.293027
Zn4	Zn	1.002038	-0.593974	-0.416045
O5	O	1.063564	-0.506183	-0.354540
O6	O	1.228093	-0.441669	-0.399756
O7	O	1.108710	-0.570779	-0.190031
O8	O	1.018412	-0.271346	-0.309367
O9	O	1.228042	-0.570754	-0.309344
O10	O	1.108828	-0.271326	-0.399769
O11	O	1.018345	-0.441714	-0.190041
O12	O	0.899066	-0.441647	-0.309339
O13	O	1.018388	-0.570636	-0.519033
O14	O	0.899055	-0.570662	-0.399720
O15	O	1.108815	-0.441602	-0.519054
O16	O	1.108696	-0.741055	-0.309316
O17	O	1.018320	-0.741004	-0.399707
C18	C	0.872358	-0.506150	-0.354528
C19	C	0.790559	-0.506162	-0.354541
C20	C	0.525515	-0.573471	-0.401536
C21	C	0.602374	-0.573462	-0.401533
C22	C	0.602354	-0.438918	-0.307556
C23	C	0.525497	-0.438933	-0.307557
C24	C	0.487080	-0.506208	-0.354551
C25	C	0.640796	-0.506184	-0.354547
C26	C	0.724129	-0.506174	-0.354543
C27	C	0.403741	-0.506220	-0.354554
C28	C	1.063519	-0.779150	-0.354523
C29	C	1.063567	-0.895927	-0.354541
C30	C	1.110679	-0.950780	-0.307528
C31	C	1.110727	-1.060504	-0.307552
C32	C	1.016543	-1.060512	-0.401605
C33	C	1.016500	-0.950790	-0.401583
C34	C	1.197593	-1.210385	-0.281362
C35	C	1.244699	-1.265242	-0.234338
C36	C	1.256025	-1.229693	-0.162532
C37	C	1.220234	-1.139288	-0.137736
C38	C	1.173123	-1.084436	-0.184756
C39	C	1.161811	-1.119984	-0.256572
C40	C	0.929633	-0.800907	-0.427766
C41	C	0.882517	-0.746054	-0.474783
C42	C	0.871184	-0.781601	-0.546590
C43	C	0.906961	-0.872009	-0.571384
C44	C	0.954077	-0.926862	-0.524367
C45	C	0.965412	-0.891308	-0.452560
C46	C	1.255517	-0.506216	-0.354552
C47	C	1.337316	-0.506230	-0.354557
C48	C	1.063607	-0.506108	-0.546493
C49	C	1.063626	-0.506077	-0.628292
C50	C	1.063630	-0.232149	-0.354573
C51	C	1.063657	-0.115373	-0.354587
C52	C	1.110738	-0.438798	-0.893362
C53	C	1.110730	-0.438826	-0.816503
C54	C	1.016573	-0.573203	-0.816471
C55	C	1.016586	-0.573179	-0.893328
C56	C	1.063668	-0.505971	-0.931771
C57	C	1.063646	-0.506023	-0.778055
C58	C	1.063636	-0.506054	-0.694722
C59	C	1.063679	-0.505940	-1.015111
C60	C	1.063564	-0.506181	-0.163334
C61	C	1.063688	-0.505917	-0.081535
H62	H	0.633643	-0.384144	-0.269296
C63	C	0.483731	-0.366086	-0.256434
C64	C	0.439616	-0.425523	-0.209185
C65	C	0.401142	-0.358467	-0.162068
H66	H	0.453692	-0.320333	-0.284537
H67	H	0.517601	-0.326042	-0.228406
H68	H	0.405749	-0.465549	-0.237210
H69	H	0.469636	-0.471274	-0.181066
H70	H	0.435012	-0.318423	-0.134041
H71	H	0.371107	-0.312717	-0.190178
H72	H	0.371210	-0.398785	-0.130000
H73	H	0.978240	-0.627920	-0.785161
C74	C	0.965466	-1.120269	-0.452591
C75	C	0.975570	-1.228101	-0.442534
C76	C	0.928520	-1.283179	-0.489482
H77	H	0.976153	-1.102354	-0.502074
H78	H	0.916003	-1.102411	-0.441766
H79	H	1.025022	-1.245951	-0.453364
H80	H	0.964878	-1.246047	-0.393060
H81	H	0.879057	-1.265321	-0.478656
H82	H	0.939211	-1.265255	-0.538962
H83	H	0.935365	-1.356348	-0.482659
C84	C	1.307102	-1.289442	-0.111519
C85	C	1.281089	-1.391912	-0.102519
C86	C	1.328130	-1.446989	-0.055544
H87	H	1.308759	-1.255462	-0.065161
H88	H	1.355002	-1.291287	-0.132128
H89	H	1.233201	-1.390061	-0.081908
H90	H	1.279435	-1.425920	-0.148864
H91	H	1.376030	-1.448835	-0.076153
H92	H	1.329783	-1.413001	-0.009189
H93	H	1.310491	-1.516524	-0.049436
C94	C	1.161704	-0.891024	-0.256488
C95	C	1.151571	-0.783192	-0.266514
C96	C	1.198559	-0.728116	-0.219503
H97	H	1.211182	-0.908813	-0.267259
H98	H	1.150963	-0.909010	-0.207019
H99	H	1.162318	-0.765214	-0.315972
H100	H	1.102104	-0.765372	-0.255738
H101	H	1.187817	-0.746102	-0.170034
H102	H	1.248033	-0.745914	-0.230278
H103	H	1.191685	-0.654947	-0.226295
C104	C	0.993031	-1.024886	-0.551371
C105	C	1.037234	-0.999529	-0.611717
C106	C	1.073140	-1.089794	-0.636605
H107	H	0.957694	-1.075737	-0.565573
H108	H	1.022755	-1.052458	-0.513114
H109	H	1.007513	-0.971973	-0.649967
H110	H	1.072584	-0.948693	-0.597533
H111	H	1.102863	-1.117366	-0.598348
H112	H	1.037797	-1.140639	-0.650803
H113	H	1.103140	-1.072600	-0.677548
C114	C	1.232381	-1.100772	-0.059728
C115	C	1.165273	-1.099466	-0.022242
C116	C	1.176437	-1.064001	0.049623
H117	H	1.252320	-1.031994	-0.060892
H118	H	1.265533	-1.146394	-0.035237
H119	H	1.132133	-1.053844	-0.046727
H120	H	1.145324	-1.168231	-0.021058
H121	H	1.209588	-1.109624	0.074114
H122	H	1.196377	-0.995226	0.048452
H123	H	1.130908	-1.063119	0.075068
C124	C	0.894595	-0.910413	-0.649385
C125	C	0.845693	-0.843009	-0.685261
C126	C	0.834287	-0.878344	-0.757120
H127	H	0.874582	-0.979146	-0.648215
H128	H	0.940047	-0.911354	-0.674971
H129	H	0.800249	-0.842079	-0.659682
H130	H	0.865692	-0.774273	-0.686452
H131	H	0.879740	-0.879285	-0.782706
H132	H	0.814277	-0.947076	-0.755942
H133	H	0.801112	-0.832611	-0.781472
H134	H	1.143984	-1.010829	-0.164568
H135	H	0.832816	-0.736930	-0.584871
C136	C	1.185459	-1.249008	-0.359346
C137	C	1.252575	-1.250377	-0.396816
C138	C	1.241427	-1.285970	-0.468653
H139	H	1.152321	-1.203453	-0.383897
H140	H	1.165516	-1.317794	-0.358105
H141	H	1.272507	-1.181601	-0.398061
H142	H	1.285723	-1.295935	-0.372287
H143	H	1.221484	-1.354756	-0.467412
H144	H	1.208287	-1.240411	-0.493198
H145	H	1.286963	-1.286912	-0.494084
H146	H	1.273840	-1.338849	-0.254534
C147	C	0.843715	-0.647785	-0.447997
C148	C	0.864212	-0.562630	-0.491967
C149	C	0.828479	-0.472091	-0.467320
H150	H	0.857184	-0.634318	-0.398517
H151	H	0.792096	-0.657597	-0.450943
H152	H	0.915819	-0.552818	-0.489013
H153	H	0.850742	-0.576062	-0.541448
H154	H	0.776860	-0.481902	-0.470266
H155	H	0.841951	-0.458634	-0.417840
H156	H	0.842376	-0.414304	-0.497154
H157	H	0.938863	-0.771950	-0.369296
C158	C	1.161939	-0.365798	-0.934968
C159	C	1.203174	-0.306999	-0.884876
C160	C	1.250357	-0.239752	-0.923175
H161	H	1.133885	-0.319915	-0.964957
H162	H	1.194041	-0.405959	-0.964932
H163	H	1.171076	-0.266841	-0.854925
H164	H	1.231243	-0.352855	-0.854886
H165	H	1.282459	-0.279913	-0.953139
H166	H	1.222297	-0.193875	-0.953162
H167	H	1.278345	-0.199855	-0.889193
H168	H	1.149060	-0.384128	-0.785233
C169	C	0.965397	-0.646154	-0.934903
C170	C	0.924144	-0.704992	-0.884788
C171	C	0.876979	-0.772216	-0.923060
H172	H	0.993465	-0.692015	-0.964884
H173	H	0.933305	-0.605975	-0.964873
H174	H	0.956231	-0.745168	-0.854831
H175	H	0.896061	-0.659159	-0.854806
H176	H	0.844887	-0.732036	-0.953030
H177	H	0.905053	-0.818070	-0.953039
H178	H	0.848978	-0.812138	-0.889063
C179	C	0.483763	-0.646341	-0.452643
C180	C	0.439672	-0.586942	-0.499895
C181	C	0.401209	-0.654036	-0.546990
H182	H	0.453709	-0.692094	-0.424523
H183	H	0.517640	-0.686383	-0.480668
H184	H	0.405799	-0.546918	-0.471873
H185	H	0.469708	-0.541192	-0.528031
H186	H	0.435086	-0.694078	-0.575016
H187	H	0.371159	-0.699786	-0.518865
H188	H	0.371294	-0.613744	-0.579061
H189	H	0.633665	-0.628236	-0.439792
