data_functionalizedCrystal
_audit_creation_method	'MofGen! by Chris Wilmer'
_symmetry_space_group_name_H-M	'P1'
_symmetry_Int_Tables_number	1
_symmetry_cell_setting	triclinic
loop_
_symmetry_equiv_pos_as_xyz
  x,y,z
_cell_length_a	29.839131
_cell_length_b	12.759401
_cell_length_c	29.839126
_cell_angle_alpha	89.972489
_cell_angle_beta	90.021998
_cell_angle_gamma	89.961559
loop_
_atom_site_label
_atom_site_type_symbol
_atom_site_fract_x
_atom_site_fract_y
_atom_site_fract_z
Zn1	Zn	-0.178933	-1.606105	0.254026
Zn2	Zn	-0.254051	-1.605904	0.178896
Zn3	Zn	-0.178932	-1.430394	0.178907
Zn4	Zn	-0.254033	-1.430314	0.253996
O5	O	-0.216487	-1.518179	0.216456
O6	O	-0.188906	-1.753099	0.244069
O7	O	-0.244093	-1.582572	0.116031
O8	O	-0.116065	-1.453820	0.188889
O9	O	-0.244094	-1.752952	0.188871
O10	O	-0.116066	-1.582914	0.244079
O11	O	-0.188903	-1.453625	0.116038
O12	O	-0.188886	-1.283362	0.188859
O13	O	-0.244064	-1.453683	0.316867
O14	O	-0.244062	-1.283303	0.244026
O15	O	-0.188888	-1.582837	0.316889
O16	O	-0.316915	-1.582494	0.188841
O17	O	-0.316902	-1.453489	0.244016
C18	C	-0.216472	-1.245212	0.216441
C19	C	-0.216477	-1.128435	0.216445
C20	C	-0.187716	-0.963842	0.187774
C21	C	-0.187708	-1.073566	0.187770
C22	C	-0.245253	-1.073575	0.245128
C23	C	-0.245259	-0.963853	0.245134
C24	C	-0.134693	-1.223561	0.171808
C25	C	-0.105922	-1.278417	0.143120
C26	C	-0.098963	-1.242753	0.099299
C27	C	-0.120781	-1.152233	0.084157
C28	C	-0.149556	-1.097382	0.112842
C29	C	-0.156507	-1.133045	0.156669
C30	C	-0.298274	-0.813856	0.261092
C31	C	-0.327051	-0.759003	0.289775
C32	C	-0.334015	-0.794665	0.333597
C33	C	-0.312205	-0.885188	0.348738
C34	C	-0.283428	-0.940041	0.320055
C35	C	-0.276463	-0.904371	0.276233
C36	C	-0.333210	-1.517989	0.216434
C37	C	-0.383144	-1.518004	0.216439
C38	C	-0.692782	-1.585475	0.187769
C39	C	-0.880455	-1.585604	0.187786
O40	O	-0.904714	-1.642819	0.163392
N41	N	-0.903929	-1.518397	0.216490
C42	C	-0.880482	-1.451158	0.245194
O43	O	-0.904755	-1.394004	0.269612
C44	C	-0.692810	-1.451034	0.245179
C45	C	-0.669338	-1.518238	0.216469
C46	C	-0.669310	-1.652674	0.159062
C47	C	-0.622394	-1.652637	0.159056
C48	C	-0.598951	-1.585400	0.187757
C49	C	-0.622423	-1.518201	0.216464
C50	C	-0.669364	-1.383800	0.273884
C51	C	-0.622443	-1.383777	0.273879
C52	C	-0.598971	-1.450981	0.245170
C53	C	-0.552064	-1.450927	0.245158
N54	N	-0.528589	-1.518134	0.216454
C55	C	-0.552033	-1.585371	0.187754
C56	C	-0.979013	-1.451226	0.245200
C57	C	-1.025931	-1.451255	0.245203
C58	C	-1.025900	-1.585704	0.187795
C59	C	-0.978981	-1.585668	0.187790
C60	C	-0.955538	-1.518433	0.216495
C61	C	-0.453507	-1.585287	0.187743
C62	C	-0.406587	-1.585241	0.187739
C63	C	-0.406622	-1.450797	0.245148
C64	C	-0.453538	-1.450839	0.245151
C65	C	-0.476979	-1.518092	0.216447
O66	O	-0.527775	-1.393750	0.269543
O67	O	-0.527752	-1.642532	0.163346
C68	C	-0.739697	-1.585512	0.187774
C69	C	-0.763169	-1.518312	0.216481
C70	C	-0.739726	-1.451076	0.245182
C71	C	-0.810087	-1.518342	0.216484
C72	C	-0.833530	-1.585578	0.187784
C73	C	-0.810056	-1.652785	0.159079
C74	C	-0.763140	-1.652748	0.159074
C75	C	-0.763200	-1.383869	0.273886
C76	C	-0.810116	-1.383910	0.273889
C77	C	-0.833559	-1.451147	0.245188
C78	C	-0.099309	-1.518398	0.216488
C79	C	-0.049374	-1.518492	0.216502
C80	C	-0.216474	-1.518273	0.333635
C81	C	-0.216469	-1.518314	0.383569
C82	C	-0.216498	-0.792212	0.216466
C83	C	-0.216492	-0.908989	0.216455
C84	C	-0.216467	-1.518146	0.099734
C85	C	-0.216346	-1.518309	0.049800
C86	C	-0.245146	-1.585442	0.740155
C87	C	-0.245177	-1.585444	0.552482
O88	O	-0.269630	-1.642508	0.528217
N89	N	-0.216447	-1.518309	0.529014
C90	C	-0.187709	-1.451164	0.552467
O91	O	-0.163276	-1.394054	0.528200
C92	C	-0.187680	-1.451158	0.740140
C93	C	-0.216409	-1.518304	0.763605
C94	C	-0.273873	-1.652582	0.763621
C95	C	-0.273863	-1.652585	0.810537
C96	C	-0.245126	-1.585448	0.833986
C97	C	-0.216399	-1.518307	0.810521
C98	C	-0.158945	-1.384008	0.763592
C99	C	-0.158941	-1.384011	0.810513
C100	C	-0.187670	-1.451157	0.833979
C101	C	-0.187653	-1.451173	0.880886
N102	N	-0.216383	-1.518308	0.904354
C103	C	-0.245120	-1.585445	0.880904
C104	C	-0.187725	-1.451173	0.453937
C105	C	-0.187732	-1.451176	0.407019
C106	C	-0.245201	-1.585455	0.407037
C107	C	-0.245192	-1.585457	0.453956
C108	C	-0.216456	-1.518308	0.477405
C109	C	-0.245097	-1.585447	0.979430
C110	C	-0.245083	-1.585447	1.026350
C111	C	-0.187616	-1.451165	1.026328
C112	C	-0.187628	-1.451168	0.979412
C113	C	-0.216372	-1.518313	0.955964
O114	O	-0.163216	-1.394130	0.905180
O115	O	-0.269556	-1.642530	0.905180
C116	C	-0.245156	-1.585439	0.693240
C117	C	-0.216429	-1.518299	0.669774
C118	C	-0.187692	-1.451161	0.693224
C119	C	-0.216435	-1.518301	0.622857
C120	C	-0.245172	-1.585439	0.599407
C121	C	-0.273903	-1.652574	0.622875
C122	C	-0.273893	-1.652577	0.669790
C123	C	-0.158962	-1.384026	0.669756
C124	C	-0.158974	-1.384029	0.622841
C125	C	-0.187710	-1.451167	0.599391
H126	H	-0.268676	-1.118258	0.268477
Br127	Br	-0.148617	-1.360056	1.058161
H128	H	-0.167321	-1.023685	0.100513
H129	H	-0.387528	-1.396050	0.268514
Br130	Br	-0.731293	-1.743961	0.120110
H131	H	-1.045038	-1.396521	0.268577
H132	H	-0.268586	-1.640133	0.473058
Br133	Br	-0.841881	-1.744030	0.120127
Br134	Br	-0.148733	-1.360009	0.485754
H135	H	-0.472587	-1.640054	0.164371
H136	H	-0.603286	-1.707363	0.135680
H137	H	-0.115117	-1.123210	0.048471
H138	H	-0.688467	-1.329071	0.297260
Br139	Br	-0.119969	-1.292875	0.701574
Br140	Br	-0.312860	-1.743706	0.842375
H141	H	-0.140353	-1.252601	0.207492
H142	H	-0.688392	-1.707432	0.135690
Br143	Br	-0.284074	-1.676584	1.058193
H144	H	-0.135551	-1.329328	0.744494
Br145	Br	-0.312885	-1.743708	0.701629
Br146	Br	-0.947131	-1.676875	0.148826
H147	H	-0.959929	-1.396472	0.268575
H148	H	-0.135540	-1.329329	0.829603
H149	H	-0.603359	-1.329028	0.297256
H150	H	-0.265668	-1.013750	0.332386
Br151	Br	-0.288823	-0.765449	0.201617
H152	H	-0.164228	-1.396506	0.960305
H153	H	-0.297299	-1.707243	0.603774
Br154	Br	-0.284202	-1.676568	0.375203
Br155	Br	-0.321658	-0.933600	0.408211
H156	H	-0.829222	-1.329175	0.297267
Br157	Br	-0.148733	-1.360063	0.375179
Br158	Br	-0.119977	-1.292899	0.591000
H159	H	-0.472650	-1.396119	0.268530
H160	H	-0.357451	-0.749998	0.356949
H161	H	-1.044995	-1.640450	0.164426
H162	H	-0.075536	-1.287425	0.075942
Br163	Br	-0.148674	-0.889387	0.148853
H164	H	-0.387478	-1.639966	0.164359
H165	H	-0.744116	-1.329118	0.297258
Br166	Br	-0.284107	-1.676571	0.947616
H167	H	-0.088158	-1.352118	0.155453
H168	H	-0.344812	-0.685296	0.277443
H169	H	-0.297276	-1.707255	0.744533
