data_functionalizedCrystal
_audit_creation_method	'MofGen! by Chris Wilmer'
_symmetry_space_group_name_H-M	'P1'
_symmetry_Int_Tables_number	1
_symmetry_cell_setting	triclinic
loop_
_symmetry_equiv_pos_as_xyz
  x,y,z
_cell_length_a	8.559649
_cell_length_b	8.559649
_cell_length_c	7.088929
_cell_angle_alpha	84.655564
_cell_angle_beta	95.324765
_cell_angle_gamma	69.778664
loop_
_atom_site_label
_atom_site_type_symbol
_atom_site_fract_x
_atom_site_fract_y
_atom_site_fract_z
O1	O	2.108184	-0.036317	-0.158969
O2	O	2.608184	0.463683	0.341031
O3	O	1.632698	0.047465	-0.158974
O4	O	2.132698	0.547465	0.341026
O5	O	1.912332	-0.232169	-0.158968
O6	O	2.412332	0.267831	0.341032
O7	O	1.828550	0.243317	-0.158975
O8	O	2.328550	0.743317	0.341025
O9	O	1.949711	-0.269615	0.159008
O10	O	2.449711	0.230385	0.659008
O11	O	1.670078	0.010019	0.159002
O12	O	2.170078	0.510019	0.659002
O13	O	2.145563	-0.073763	0.159007
O14	O	2.645563	0.426237	0.659007
Cu15	Cu	1.911233	-0.035291	0.188038
Cu16	Cu	2.411233	0.464709	0.688038
Cu17	Cu	1.867028	0.008993	-0.188005
Cu18	Cu	2.367028	0.508993	0.311995
O19	O	1.865929	0.205871	0.159001
O20	O	2.365929	0.705871	0.659001
C21	C	1.591079	0.035091	0.000013
C22	C	2.091079	0.535091	0.500013
C23	C	1.411379	0.053991	0.000011
C24	C	1.911379	0.553991	0.500011
C25	C	2.187182	-0.061389	0.000015
C26	C	2.687182	0.438611	0.500015
C27	C	2.366880	-0.080286	0.000005
C28	C	2.866880	0.419714	0.500005
N29	N	1.942337	-0.066440	0.452527
N30	N	2.442337	0.433560	0.952527
C31	C	1.937371	-0.311200	0.000017
C32	C	2.437371	0.188800	0.500017
C33	C	1.956269	-0.490899	0.000007
C34	C	2.456269	0.009101	0.500007
C35	C	1.840890	0.284903	0.000012
C36	C	2.340890	0.784903	0.500012
C37	C	1.821991	0.464603	0.000009
C38	C	2.321991	0.964603	0.500009
N39	N	1.835939	0.040128	-0.452494
N40	N	2.335939	0.540128	0.047506
H41	H	2.311999	0.183412	-0.000006
H42	H	2.811999	0.683412	0.499994
H43	H	2.085689	0.409722	0.000020
H44	H	2.585689	0.909722	0.500020
H45	H	1.725670	0.150564	0.465857
H46	H	2.225670	0.650564	0.965857
H47	H	2.466268	-0.209714	0.000002
H48	H	2.966268	0.290286	0.500002
H49	H	1.692564	0.563990	0.000017
H50	H	2.192564	1.063990	0.500017
H51	H	2.052624	-0.176873	0.534185
H52	H	2.552624	0.323127	1.034185
