data_functionalizedCrystal
_audit_creation_method	'MofGen! by Chris Wilmer'
_symmetry_space_group_name_H-M	'P1'
_symmetry_Int_Tables_number	1
_symmetry_cell_setting	triclinic
loop_
_symmetry_equiv_pos_as_xyz
  x,y,z
_cell_length_a	11.026607
_cell_length_b	12.837942
_cell_length_c	10.065875
_cell_angle_alpha	99.723749
_cell_angle_beta	79.302338
_cell_angle_gamma	101.707478
loop_
_atom_site_label
_atom_site_type_symbol
_atom_site_fract_x
_atom_site_fract_y
_atom_site_fract_z
O1	O	1.677813	0.431471	-0.113501
O2	O	1.318665	0.380952	-0.113502
O3	O	1.490274	0.253824	-0.113493
O4	O	1.506204	0.558600	-0.113509
O5	O	1.457565	0.278190	0.113494
O6	O	1.285956	0.405318	0.113485
O7	O	1.645104	0.455838	0.113486
Zn8	Zn	1.460337	0.434446	0.149525
Zn9	Zn	1.503433	0.402343	-0.149540
O10	O	1.473495	0.582966	0.113478
C11	C	1.256022	0.383815	-0.000008
C12	C	1.118096	0.356032	-0.000008
C13	C	1.053161	0.432745	-0.000013
C14	C	0.910607	0.404032	-0.000014
C15	C	1.468539	0.226382	0.000000
C16	C	1.452492	0.108310	-0.000002
C17	C	1.645414	-0.096651	-0.000030
C18	C	1.630342	-0.207590	-0.000032
C19	C	1.407280	-0.224509	-0.000019
C20	C	1.422351	-0.113570	-0.000017
C21	C	1.541422	-0.049645	-0.000020
C22	C	1.556491	0.061297	-0.000008
C23	C	1.333431	0.044375	-0.000004
C24	C	1.318359	-0.066563	-0.000007
C25	C	1.707748	0.452974	-0.000010
C26	C	1.845676	0.480756	-0.000019
C27	C	1.495231	0.610407	-0.000018
C28	C	1.511279	0.728478	-0.000025
N29	N	1.430934	0.456357	0.353629
N30	N	1.532844	0.380426	-0.353644
C31	C	1.493194	0.409958	0.421411
C32	C	1.470575	0.426831	0.578577
H33	H	0.895613	0.567697	-0.000014
C34	C	1.678644	0.238871	-0.000003
C35	C	1.687370	0.131568	-0.000014
H36	H	1.759445	0.282250	-0.000001
H37	H	1.646695	0.245079	-0.079148
H38	H	1.623886	0.262061	0.079164
H39	H	1.742121	0.108376	-0.079186
H40	H	1.719336	0.125355	0.079139
H41	H	1.221416	-0.118627	-0.000009
H42	H	1.248752	0.082660	0.000015
C43	C	1.413183	0.601569	0.622839
C44	C	1.376001	0.497324	0.657288
H45	H	1.354791	0.645083	0.671427
H46	H	1.493975	0.630857	0.646182
H47	H	1.415977	0.599465	0.527544
H48	H	1.373216	0.499428	0.752581
H49	H	1.295187	0.468029	0.633954
C50	C	1.229341	-0.285625	-0.116721
C51	C	1.276412	-0.294796	-0.000035
H52	H	1.148553	-0.329025	-0.116735
H53	H	1.223417	-0.212837	-0.116698
H54	H	1.284123	-0.308812	-0.195867
H55	H	1.221634	-0.271601	0.079112
H56	H	1.282328	-0.367599	-0.000046
H57	H	1.068156	0.269094	-0.000039
H58	H	1.742364	-0.044601	-0.000020
H59	H	1.715025	-0.245858	-0.000045
C60	C	1.550614	0.235226	0.377057
C61	C	1.587766	0.339486	0.342653
H62	H	1.609000	0.191725	0.328419
H63	H	1.547848	0.237302	0.472329
H64	H	1.469802	0.205938	0.353731
H65	H	1.668574	0.368778	0.365988
H66	H	1.590545	0.337414	0.247359
H67	H	1.602892	0.328202	0.588039
H68	H	1.360881	0.508568	0.411952
H69	H	1.103105	0.519680	-0.000010
H70	H	0.860672	0.317088	-0.000044
