data_functionalizedCrystal
_audit_creation_method	'MofGen! by Chris Wilmer'
_symmetry_space_group_name_H-M	'P1'
_symmetry_Int_Tables_number	1
_symmetry_cell_setting	triclinic
loop_
_symmetry_equiv_pos_as_xyz
  x,y,z
_cell_length_a	18.101398
_cell_length_b	18.050590
_cell_length_c	18.101390
_cell_angle_alpha	89.966356
_cell_angle_beta	89.974845
_cell_angle_gamma	90.016283
loop_
_atom_site_label
_atom_site_type_symbol
_atom_site_fract_x
_atom_site_fract_y
_atom_site_fract_z
Zn1	Zn	1.132188	-0.295676	-0.418844
Zn2	Zn	1.465522	0.037657	-0.085511
Zn3	Zn	1.798855	0.370991	0.247822
Zn4	Zn	1.132110	-0.419882	-0.295001
Zn5	Zn	1.465444	-0.086548	0.038332
Zn6	Zn	1.798777	0.246785	0.371665
Zn7	Zn	1.008346	-0.295705	-0.295005
Zn8	Zn	1.341680	0.037628	0.038329
Zn9	Zn	1.675013	0.370962	0.371662
Zn10	Zn	1.008325	-0.419824	-0.418789
Zn11	Zn	1.341658	-0.086490	-0.085456
Zn12	Zn	1.674992	0.246843	0.247878
O13	O	1.070243	-0.357772	-0.356910
O14	O	1.403576	-0.024438	-0.023576
O15	O	1.736909	0.308895	0.309757
O16	O	1.235811	-0.312164	-0.402438
O17	O	1.569144	0.021169	-0.069105
O18	O	1.902477	0.354502	0.264228
O19	O	1.115669	-0.403446	-0.191369
O20	O	1.449003	-0.070112	0.141965
O21	O	1.782336	0.263221	0.475298
O22	O	1.024816	-0.191777	-0.311457
O23	O	1.358149	0.141557	0.021877
O24	O	1.691482	0.474890	0.355210
O25	O	1.235754	-0.403418	-0.311451
O26	O	1.569087	-0.070084	0.021882
O27	O	1.902420	0.263249	0.355215
O28	O	1.115802	-0.191755	-0.402441
O29	O	1.449135	0.141578	-0.069108
O30	O	1.782469	0.474911	0.264225
O31	O	1.024740	-0.312214	-0.191371
O32	O	1.358074	0.021120	0.141962
O33	O	1.691407	0.354453	0.475296
O34	O	0.904711	-0.312158	-0.311403
O35	O	1.238044	0.021176	0.021930
O36	O	1.571377	0.354509	0.355264
O37	O	1.024779	-0.403319	-0.522429
O38	O	1.358113	-0.069986	-0.189096
O39	O	1.691446	0.263348	0.144238
O40	O	0.904695	-0.403347	-0.402347
O41	O	1.238028	-0.070014	-0.069013
O42	O	1.571362	0.263320	0.264320
O43	O	1.115781	-0.312108	-0.522470
O44	O	1.449114	0.021225	-0.189137
O45	O	1.782448	0.354559	0.144197
O46	O	1.115649	-0.523799	-0.311397
O47	O	1.448982	-0.190465	0.021936
O48	O	1.782315	0.142868	0.355269
O49	O	1.024704	-0.523756	-0.402344
O50	O	1.358037	-0.190423	-0.069010
O51	O	1.691371	0.142911	0.264323
C52	C	0.877832	-0.357750	-0.356870
C53	C	1.211165	-0.024416	-0.023536
C54	C	1.544499	0.308917	0.309797
C55	C	0.795518	-0.357758	-0.356870
C56	C	1.128851	-0.024425	-0.023537
C57	C	1.462185	0.308908	0.309797
C58	C	1.070186	-0.550724	-0.356880
C59	C	1.403519	-0.217390	-0.023547
C60	C	1.736852	0.115943	0.309786
C61	C	1.070229	-0.633269	-0.356892
C62	C	1.403562	-0.299936	-0.023559
C63	C	1.736896	0.033397	0.309774
C64	C	0.644809	-0.357774	-0.356903
C65	C	0.978143	-0.024440	-0.023570
C66	C	1.311476	0.308893	0.309763
C67	C	0.613441	-0.300317	-0.299779
C68	C	0.946774	0.033016	0.033554
C69	C	1.280107	0.366349	0.366888
C70	C	0.527823	-0.300101	-0.299967
C71	C	0.861156	0.033232	0.033367
C72	C	1.194489	0.366566	0.366700
C73	C	0.496427	-0.357788	-0.356935
C74	C	0.829760	-0.024455	-0.023601
C75	C	1.163094	0.308878	0.309732
C76	C	0.527563	-0.336891	-0.435070
C77	C	0.860896	-0.003558	-0.101737
C78	C	1.194229	0.329776	0.231596
C79	C	0.613208	-0.336465	-0.434722
C80	C	0.946541	-0.003132	-0.101388
C81	C	1.279874	0.330201	0.231945
C82	C	0.613223	-0.436276	-0.336581
C83	C	0.946556	-0.102943	-0.003247
C84	C	1.279889	0.230391	0.330086
C85	C	0.527571	-0.435862	-0.334878
C86	C	0.860905	-0.102529	-0.001545
C87	C	1.194238	0.230804	0.331789
C88	C	0.412567	-0.357798	-0.356957
C89	C	0.745901	-0.024465	-0.023624
C90	C	1.079234	0.308869	0.309709
C91	C	0.728669	-0.357762	-0.356886
C92	C	1.062002	-0.024429	-0.023552
C93	C	1.395336	0.308905	0.309781
C94	C	1.119788	-0.832716	-0.307505
C95	C	1.453121	-0.499383	0.025828
C96	C	1.786454	-0.166050	0.359162
C97	C	1.137877	-0.882043	-0.375097
C98	C	1.471211	-0.548710	-0.041763
C99	C	1.804544	-0.215377	0.291570
C100	C	1.070271	-0.784400	-0.356922
C101	C	1.403604	-0.451066	-0.023589
C102	C	1.736938	-0.117733	0.309745
C103	C	1.052257	-0.882154	-0.289361
C104	C	1.385590	-0.548821	0.043973
C105	C	1.718923	-0.215488	0.377306
C106	C	1.070313	-0.930385	-0.356945
C107	C	1.403646	-0.597052	-0.023611
C108	C	1.736980	-0.263718	0.309722
C109	C	1.088396	-0.832640	-0.424549
C110	C	1.421729	-0.499306	-0.091216
C111	C	1.755062	-0.165973	0.242117
C112	C	1.002743	-0.832746	-0.338768
C113	C	1.336077	-0.499413	-0.005434
C114	C	1.669410	-0.166080	0.327899
C115	C	1.020807	-0.882051	-0.406406
C116	C	1.354141	-0.548718	-0.073073
C117	C	1.687474	-0.215384	0.260261
C118	C	1.070249	-0.700302	-0.356908
C119	C	1.403582	-0.366968	-0.023575
C120	C	1.736915	-0.033635	0.309759
C121	C	1.070335	-1.014481	-0.356966
C122	C	1.403669	-0.681148	-0.023633
C123	C	1.737002	-0.347815	0.309701
C124	C	1.263404	-0.357794	-0.356951
C125	C	1.596738	-0.024461	-0.023617
C126	C	1.930071	0.308873	0.309716
C127	C	1.345719	-0.357804	-0.356968
C128	C	1.679052	-0.024470	-0.023635
C129	C	2.012385	0.308863	0.309699
C130	C	1.070287	-0.357704	-0.550072
C131	C	1.403620	-0.024370	-0.216738
C132	C	1.736953	0.308963	0.116595
C133	C	1.070305	-0.357675	-0.632386
C134	C	1.403639	-0.024342	-0.299053
C135	C	1.736972	0.308992	0.034281
C136	C	1.070320	-0.164066	-0.356956
C137	C	1.403653	0.169267	-0.023622
C138	C	1.736987	0.502601	0.309711
C139	C	1.070353	-0.081520	-0.356975
C140	C	1.403686	0.251813	-0.023642
C141	C	1.737019	0.585146	0.309692
C142	C	1.070345	-0.357629	-0.931477
C143	C	1.403679	-0.024295	-0.598144
C144	C	1.737012	0.309038	-0.264810
C145	C	1.127790	-0.300443	-0.900178
C146	C	1.461123	0.032890	-0.566844
C147	C	1.794456	0.366223	-0.233511
C148	C	1.127610	-0.300231	-0.814559
C149	C	1.460944	0.033102	-0.481226
C150	C	1.794277	0.366436	-0.147893
C151	C	1.070326	-0.357652	-0.783094
C152	C	1.403659	-0.024318	-0.449761
C153	C	1.736993	0.309015	-0.116428
C154	C	0.992305	-0.336386	-0.814161
C155	C	1.325638	-0.003052	-0.480827
C156	C	1.658971	0.330281	-0.147494
C157	C	0.992649	-0.335957	-0.899806
C158	C	1.325982	-0.002623	-0.566473
C159	C	1.659315	0.330710	-0.233139
C160	C	1.090235	-0.436227	-0.899890
C161	C	1.423568	-0.102894	-0.566557
C162	C	1.756902	0.230440	-0.233224
C163	C	1.091947	-0.435826	-0.814240
C164	C	1.425281	-0.102493	-0.480907
C165	C	1.758614	0.230840	-0.147574
C166	C	1.070310	-0.357666	-0.699235
C167	C	1.403644	-0.024332	-0.365902
C168	C	1.736977	0.309001	-0.032568
C169	C	1.070356	-0.357613	-1.015337
C170	C	1.403689	-0.024279	-0.682003
C171	C	1.737022	0.309054	-0.348670
C172	C	1.070241	-0.357786	-0.164499
C173	C	1.403575	-0.024452	0.168834
C174	C	1.736908	0.308881	0.502167
C175	C	1.070366	-0.357605	-0.082186
C176	C	1.403699	-0.024272	0.251148
C177	C	1.737033	0.309061	0.584481
H178	H	0.506768	-0.313140	-0.242040
H179	H	0.840101	0.020194	0.091293
H180	H	1.173434	0.353527	0.424627
H181	H	0.634788	-0.455358	-0.280556
H182	H	0.968121	-0.122025	0.052778
H183	H	1.301454	0.211309	0.386111
H184	H	0.945635	-0.811074	-0.323378
H185	H	1.278968	-0.477741	0.009956
H186	H	1.612302	-0.144408	0.343289
H187	H	1.048399	-0.478836	-0.920136
H188	H	1.381733	-0.145503	-0.586802
H189	H	1.715066	0.187830	-0.253469
H190	H	1.103593	-0.810983	-0.481743
H191	H	1.436926	-0.477650	-0.148410
H192	H	1.770260	-0.144316	0.184923
H193	H	1.195002	-0.903699	-0.390466
H194	H	1.528336	-0.570366	-0.057133
H195	H	1.861669	-0.237033	0.276200
H196	H	0.507348	-0.241936	-0.313459
H197	H	0.840681	0.091398	0.019874
H198	H	1.174014	0.424731	0.353207
H199	H	1.037003	-0.903903	-0.232215
H200	H	1.370336	-0.570570	0.101118
H201	H	1.703669	-0.237236	0.434451
H202	H	0.633984	-0.313207	-0.241660
H203	H	0.967318	0.020126	0.091674
H204	H	1.300651	0.353459	0.425007
H205	H	1.185465	-0.313549	-0.793557
H206	H	1.518798	0.019785	-0.460223
H207	H	1.852131	0.353118	-0.126890
H208	H	0.633506	-0.479080	-0.378187
H209	H	0.966840	-0.145746	-0.044854
H210	H	1.300173	0.187587	0.288480
H211	H	0.978951	-0.903577	-0.448254
H212	H	1.312284	-0.570243	-0.114921
H213	H	1.645618	-0.236910	0.218412
H214	H	1.185833	-0.313596	-0.920785
H215	H	1.519166	0.019737	-0.587452
H216	H	1.852500	0.353070	-0.254118
H217	H	1.114789	-0.242541	-0.921715
H218	H	1.448123	0.090793	-0.588381
H219	H	1.781456	0.424126	-0.255048
H220	H	0.633200	-0.279092	-0.451899
H221	H	0.966533	0.054242	-0.118565
H222	H	1.299866	0.387575	0.214768
H223	H	1.114444	-0.242004	-0.794086
H224	H	1.447777	0.091330	-0.460753
H225	H	1.781110	0.424663	-0.127419
H226	H	0.975789	-0.278502	-0.919796
H227	H	1.309122	0.054831	-0.586463
H228	H	1.642456	0.388165	-0.253129
H229	H	0.948391	-0.375796	-0.920509
H230	H	1.281725	-0.042463	-0.587175
H231	H	1.615058	0.290871	-0.253842
H232	H	0.507231	-0.377464	-0.478811
H233	H	0.840564	-0.044131	-0.145477
H234	H	1.173898	0.289202	0.187856
H235	H	1.146131	-0.455591	-0.921540
H236	H	1.479465	-0.122257	-0.588206
H237	H	1.812798	0.211076	-0.254873
H238	H	0.948342	-0.376754	-0.793777
H239	H	1.281675	-0.043421	-0.460444
H240	H	1.615008	0.289913	-0.127110
H241	H	0.975139	-0.279569	-0.792721
H242	H	1.308472	0.053764	-0.459388
H243	H	1.641805	0.387098	-0.126055
H244	H	1.149364	-0.451862	-0.793936
H245	H	1.482697	-0.118529	-0.460602
H246	H	1.816031	0.214804	-0.127269
H247	H	1.053151	-0.480723	-0.792819
H248	H	1.386485	-0.147390	-0.459485
H249	H	1.719818	0.185943	-0.126152
H250	H	0.634976	-0.242478	-0.313098
H251	H	0.968309	0.090856	0.020235
H252	H	1.301643	0.424189	0.353568
H253	H	0.633963	-0.376511	-0.478757
H254	H	0.967296	-0.043178	-0.145424
H255	H	1.300629	0.290155	0.187909
H256	H	0.506130	-0.280152	-0.452550
H257	H	0.839464	0.053181	-0.119217
H258	H	1.172797	0.386515	0.214116
H259	H	1.161676	-0.811053	-0.265758
H260	H	1.495009	-0.477720	0.067576
H261	H	1.828343	-0.144387	0.400909
H262	H	0.507218	-0.451626	-0.277374
H263	H	0.840552	-0.118292	0.055960
H264	H	1.173885	0.215041	0.389293
H265	H	0.506193	-0.480941	-0.373423
H266	H	0.839527	-0.147608	-0.040090
H267	H	1.172860	0.185726	0.293244
