data_functionalizedCrystal
_audit_creation_method	'MofGen! by Chris Wilmer'
_symmetry_space_group_name_H-M	'P1'
_symmetry_Int_Tables_number	1
_symmetry_cell_setting	triclinic
loop_
_symmetry_equiv_pos_as_xyz
  x,y,z
_cell_length_a	16.625548
_cell_length_b	16.120531
_cell_length_c	16.120256
_cell_angle_alpha	95.612324
_cell_angle_beta	87.121741
_cell_angle_gamma	87.066624
loop_
_atom_site_label
_atom_site_type_symbol
_atom_site_fract_x
_atom_site_fract_y
_atom_site_fract_z
Zn1	Zn	1.191118	0.356739	0.489435
Zn2	Zn	1.691118	0.856739	0.989435
Zn3	Zn	1.191002	0.489424	0.356737
Zn4	Zn	1.691002	0.989424	0.856737
Zn5	Zn	1.063483	0.349673	0.349681
Zn6	Zn	1.563483	0.849673	0.849681
Zn7	Zn	1.049030	0.496472	0.496460
Zn8	Zn	1.549030	0.996472	0.996460
O9	O	1.123658	0.423077	0.423078
O10	O	1.623658	0.923077	0.923078
O11	O	1.303934	0.374347	0.471846
O12	O	1.803934	0.874347	0.971846
O13	O	1.180086	0.464979	0.238839
O14	O	1.680086	0.964979	0.738839
O15	O	1.086511	0.233645	0.362327
O16	O	1.586511	0.733645	0.862327
O17	O	1.303848	0.471831	0.374353
O18	O	1.803848	0.971831	0.874353
O19	O	1.180284	0.238837	0.465004
O20	O	1.680284	0.738837	0.965004
O21	O	1.086399	0.362305	0.233655
O22	O	1.586399	0.862305	0.733655
O23	O	0.948734	0.369139	0.369138
O24	O	1.448734	0.869139	0.869138
O25	O	1.061878	0.483843	0.612490
O26	O	1.561878	0.983843	1.112490
O27	O	0.938116	0.476992	0.476976
O28	O	1.438116	0.976992	0.976976
O29	O	1.166269	0.381182	0.607329
O30	O	1.666269	0.881182	1.107329
O31	O	1.166071	0.607324	0.381164
O32	O	1.666071	1.107324	0.881164
O33	O	1.061765	0.612503	0.483818
O34	O	1.561765	1.112503	0.983818
C35	C	0.914169	0.423064	0.423054
C36	C	1.414169	0.923064	0.923054
C37	C	0.824546	0.423080	0.423065
C38	C	1.324546	0.923080	0.923065
C39	C	0.496369	0.423087	0.423101
C40	C	0.996369	0.923087	0.923101
C41	C	0.587678	0.423082	0.423088
C42	C	1.087678	0.923082	0.923088
C43	C	0.660455	0.423084	0.423082
C44	C	1.160455	0.923084	0.923082
C45	C	0.751770	0.423078	0.423071
C46	C	1.251770	0.923078	0.923071
C47	C	1.112358	0.640242	0.434037
C48	C	1.612358	1.140242	0.934037
C49	C	1.107597	0.733148	0.438753
C50	C	1.607597	1.233148	0.938753
C51	C	1.098907	0.903248	0.447381
C52	C	1.598907	1.403248	0.947381
C53	C	1.148442	0.942064	0.398728
C54	C	1.648442	1.442064	0.898728
C55	C	1.143607	1.036713	0.403528
C56	C	1.643607	1.536713	0.903528
C57	C	1.103741	0.808590	0.442582
C58	C	1.603741	1.308590	0.942582
C59	C	1.333965	0.423091	0.423103
C60	C	1.833965	0.923091	0.923103
C61	C	1.423585	0.423097	0.423113
C62	C	1.923585	0.923097	0.923113
C63	C	1.112474	0.434087	0.641084
C64	C	1.612474	0.934087	1.141084
C65	C	1.107708	0.438778	0.733986
C66	C	1.607708	0.938778	1.233986
C67	C	1.134995	1.205064	0.412079
C68	C	1.634995	1.705064	0.912079
C69	C	1.139755	1.112158	0.407353
C70	C	1.639755	1.612158	0.907353
C71	C	1.134848	0.412050	0.205917
C72	C	1.634848	0.912050	0.705917
C73	C	1.139782	0.407123	0.113004
C74	C	1.639782	0.907123	0.613004
C75	C	1.148511	0.398589	0.942914
C76	C	1.648511	0.898589	1.442914
C77	C	1.098982	0.447310	0.904070
C78	C	1.598982	0.947310	1.404070
C79	C	1.103839	0.442561	0.809426
C80	C	1.603839	0.942561	1.309426
C81	C	1.143655	0.403336	1.037566
C82	C	1.643655	0.903336	1.537566
H83	H	1.052870	0.941098	0.492635
H84	H	1.552870	1.441098	0.992635
F85	F	1.208617	0.892591	0.339569
F86	F	1.708617	1.392591	0.839569
F87	F	1.038791	0.506491	0.953507
F88	F	1.538791	1.006491	1.453507
F89	F	1.208690	0.339405	0.893477
F90	F	1.708690	0.839405	1.393477
