data_functionalizedCrystal
_audit_creation_method	'MofGen! by Chris Wilmer'
_symmetry_space_group_name_H-M	'P1'
_symmetry_Int_Tables_number	1
_symmetry_cell_setting	triclinic
loop_
_symmetry_equiv_pos_as_xyz
  x,y,z
_cell_length_a	17.699077
_cell_length_b	10.654545
_cell_length_c	16.776229
_cell_angle_alpha	90.001708
_cell_angle_beta	89.993430
_cell_angle_gamma	83.883002
loop_
_atom_site_label
_atom_site_type_symbol
_atom_site_fract_x
_atom_site_fract_y
_atom_site_fract_z
O1	O	1.005092	0.158762	-0.066274
O2	O	1.505092	0.658762	0.433726
O3	O	0.784844	0.179431	-0.066277
O4	O	1.284844	0.679431	0.433723
O5	O	0.900032	-0.013732	-0.066275
O6	O	1.400032	0.486268	0.433725
O7	O	0.889905	0.351925	-0.066276
O8	O	1.389905	0.851925	0.433724
O9	O	0.900015	-0.013721	0.066302
O10	O	1.400015	0.486279	0.566302
O11	O	0.784827	0.179441	0.066300
O12	O	1.284827	0.679441	0.566300
O13	O	1.005075	0.158772	0.066303
O14	O	1.505075	0.658772	0.566303
Zn15	Zn	0.894949	0.169108	0.087351
Zn16	Zn	1.394949	0.669108	0.587351
Zn17	Zn	0.894971	0.169095	-0.087325
Zn18	Zn	1.394971	0.669095	0.412675
O19	O	0.889888	0.351935	0.066301
O20	O	1.389888	0.851935	0.566301
C21	C	0.756634	0.178697	0.000011
C22	C	1.256634	0.678697	0.500011
C23	C	0.672602	0.176479	0.000009
C24	C	1.172602	0.676479	0.500009
C25	C	0.633118	0.175439	0.072278
C26	C	1.133118	0.675439	0.572278
C27	C	0.554163	0.173335	0.072279
C28	C	1.054163	0.673335	0.572279
C29	C	0.514691	0.172280	0.000010
C30	C	1.014691	0.672280	0.500010
C31	C	0.554180	0.173315	-0.072264
C32	C	1.054180	0.673315	0.427736
C33	C	0.633135	0.175411	-0.072264
C34	C	1.133135	0.675411	0.427736
C35	C	0.235763	0.164865	-0.072265
C36	C	0.735763	0.664865	0.427735
C37	C	0.156802	0.162773	-0.072260
C38	C	0.656802	0.662773	0.427740
C39	C	0.156790	0.162789	0.072277
C40	C	0.656790	0.662789	0.572277
C41	C	0.235745	0.164884	0.072277
C42	C	0.735745	0.664884	0.572277
C43	C	0.275228	0.165913	0.000004
C44	C	0.775228	0.665913	0.500004
C45	C	0.360841	0.168192	0.000004
C46	C	0.860841	0.668192	0.500004
C47	C	0.429078	0.170009	0.000009
C48	C	0.929078	0.670009	0.500009
C49	C	0.899279	-0.060511	0.000012
C50	C	1.399279	0.439489	0.500012
C51	C	0.897054	-0.199916	0.000007
C52	C	1.397054	0.300084	0.500007
C53	C	0.897082	-0.199935	-0.144532
C54	C	1.397082	0.300065	0.355468
C55	C	0.896053	-0.265437	-0.216801
C56	C	1.396053	0.234563	0.283199
C57	C	0.893962	-0.396419	-0.216802
C58	C	1.393962	0.103581	0.283198
C59	C	0.892898	-0.461902	-0.144526
C60	C	1.392898	0.038098	0.355474
C61	C	0.893927	-0.396401	-0.072257
C62	C	1.393927	0.103599	0.427743
C63	C	0.896020	-0.265416	-0.072263
C64	C	1.396020	0.234584	0.427737
C65	C	0.893894	-0.396380	0.072281
C66	C	1.393894	0.103620	0.572281
C67	C	0.895990	-0.265399	0.072283
C68	C	1.395990	0.234601	0.572283
C69	C	0.892830	-0.461863	0.144557
C70	C	1.392830	0.038137	0.644557
C71	C	0.893864	-0.396362	0.216828
C72	C	1.393864	0.103638	0.716828
C73	C	0.895956	-0.265372	0.216826
C74	C	1.395956	0.234628	0.716826
C75	C	0.897019	-0.199897	0.144553
C76	C	1.397019	0.300103	0.644553
C77	C	1.033285	0.159506	0.000013
C78	C	1.533285	0.659506	0.500013
C79	C	1.117318	0.161724	0.000010
C80	C	1.617318	0.661724	0.500010
C81	C	0.890640	0.398715	0.000012
C82	C	1.390640	0.898715	0.500012
C83	C	0.892865	0.538119	0.000012
C84	C	1.392865	1.038119	0.500012
N85	N	0.894939	0.169117	0.206562
N86	N	1.394939	0.669117	0.706562
N87	N	0.894986	0.169077	-0.206536
N88	N	1.394986	0.669077	0.293464
C89	C	0.945998	0.083575	0.751728
C90	C	1.445998	0.583575	1.251728
C91	C	0.945994	0.083584	0.668275
C92	C	1.445994	0.583584	1.168275
C93	C	0.894975	0.169089	0.626561
C94	C	1.394975	0.669089	1.126561
C95	C	0.843961	0.254600	0.668304
C96	C	1.343961	0.754600	1.168304
C97	C	0.843969	0.254596	0.751754
C98	C	1.343969	0.754596	1.251754
C99	C	0.843929	0.254619	0.331756
C100	C	1.343929	0.754619	0.831756
C101	C	0.843923	0.254613	0.248300
C102	C	1.343923	0.754613	0.748300
C103	C	0.945954	0.083606	0.248278
C104	C	1.445954	0.583606	0.748278
C105	C	0.945962	0.083602	0.331728
C106	C	1.445962	0.583602	0.831728
C107	C	0.894951	0.169117	0.373463
C108	C	1.394951	0.669117	0.873463
C109	C	0.894957	0.169108	0.463952
C110	C	1.394957	0.669108	0.963952
C111	C	0.894965	0.169093	0.536074
C112	C	1.394965	0.669093	1.036074
H113	H	0.522020	0.172468	0.131127
H114	H	1.022020	0.672468	0.631127
H115	H	0.802393	0.324245	0.365731
H116	H	1.302393	0.824245	0.865731
H117	H	0.802376	0.324247	0.214338
H118	H	1.302376	0.824247	0.714338
H119	H	0.802423	0.324226	0.634335
H120	H	1.302423	0.824226	1.134335
C121	C	1.002079	-0.010473	0.377609
C122	C	1.502079	0.489527	0.877609
N123	N	1.044347	-0.081334	0.412166
N124	N	1.544347	0.418666	0.912166
C125	C	0.899403	-0.055856	-0.144537
C126	C	1.399403	0.444144	0.355463
N127	N	0.901156	0.052665	-0.144543
N128	N	1.401156	0.552665	0.355457
C129	C	0.890579	-0.605982	-0.144531
C130	C	1.390579	-0.105982	0.355469
N131	N	0.888828	-0.714503	-0.144534
N132	N	1.388828	-0.214503	0.355466
C133	C	1.002066	-0.010464	0.202362
C134	C	1.502066	0.489536	0.702362
N135	N	1.044326	-0.081321	0.167779
N136	N	1.544326	0.418679	0.667779
C137	C	0.890517	-0.605944	0.144553
C138	C	1.390517	-0.105944	0.644553
N139	N	0.888773	-0.714467	0.144553
N140	N	1.388773	-0.214467	0.644553
H141	H	0.802431	0.324222	0.785735
H142	H	1.302431	0.824222	1.285735
H143	H	0.893117	-0.449749	-0.275649
H144	H	1.393117	0.050251	0.224351
H145	H	0.665250	0.176309	0.131127
H146	H	1.165250	0.676309	0.631127
C147	C	0.510758	0.172151	-0.151760
C148	C	1.010758	0.672151	0.348240
N149	N	0.478053	0.171278	-0.211638
N150	N	0.978053	0.671278	0.288362
H151	H	0.892993	-0.449688	0.275669
H152	H	1.392993	0.050312	0.775669
C153	C	0.899298	-0.055809	0.144543
C154	C	1.399298	0.444191	0.644543
N155	N	0.901003	0.052723	0.144533
N156	N	1.401003	0.552723	0.644533
C157	C	0.279160	0.166042	0.151778
C158	C	0.779160	0.666042	0.651778
N159	N	0.311860	0.166907	0.211659
N160	N	0.811860	0.666907	0.711659
C161	C	0.113385	0.161598	-0.151764
C162	C	0.613385	0.661598	0.348236
N163	N	0.080684	0.160710	-0.211644
N164	N	0.580684	0.660710	0.288356
C165	C	0.113354	0.161642	0.151780
C166	C	0.613354	0.661642	0.651780
N167	N	0.080638	0.160780	0.211660
N168	N	0.580638	0.660780	0.711660
C169	C	0.676566	0.176557	-0.151764
C170	C	1.176566	0.676557	0.348236
N171	N	0.709277	0.177417	-0.211647
N172	N	1.209277	0.677417	0.288353
C173	C	0.279184	0.165986	-0.151768
C174	C	0.779184	0.665986	0.348232
N175	N	0.311892	0.166825	-0.211654
N176	N	0.811892	0.666825	0.288346
H177	H	0.896918	-0.212106	-0.275646
H178	H	1.396918	0.287894	0.224354
H179	H	0.896782	-0.212046	0.275676
H180	H	1.396782	0.287954	0.775676
H181	H	0.987540	0.013942	0.785686
H182	H	1.487540	0.513942	1.285686
C183	C	1.002107	-0.010481	0.622369
C184	C	1.502107	0.489519	1.122369
N185	N	1.044373	-0.081336	0.587793
N186	N	1.544373	0.418664	1.087793
