data_functionalizedCrystal
_audit_creation_method	'MofGen! by Chris Wilmer'
_symmetry_space_group_name_H-M	'P1'
_symmetry_Int_Tables_number	1
_symmetry_cell_setting	triclinic
loop_
_symmetry_equiv_pos_as_xyz
  x,y,z
_cell_length_a	8.597227
_cell_length_b	10.065875
_cell_length_c	8.559649
_cell_angle_alpha	97.549942
_cell_angle_beta	77.621968
_cell_angle_gamma	73.516180
loop_
_atom_site_label
_atom_site_type_symbol
_atom_site_fract_x
_atom_site_fract_y
_atom_site_fract_z
O1	O	-2.136552	0.364760	-0.163747
O2	O	-1.664819	0.309283	-0.193314
O3	O	-1.942245	0.341907	0.054435
O4	O	-1.859126	0.332135	-0.411496
O5	O	-1.889320	0.108695	0.007005
O6	O	-1.611894	0.076070	-0.240745
O7	O	-2.083627	0.131547	-0.211177
Zn8	Zn	-1.839358	0.066781	-0.233492
Zn9	Zn	-1.909088	0.374049	-0.171000
O10	O	-1.806201	0.098922	-0.458927
C11	C	-1.578523	0.185640	-0.216502
C12	C	-1.400242	0.164674	-0.214913
N13	N	-1.791780	-0.142919	-0.276139
C14	C	-1.892526	-0.198851	-0.185828
C15	C	-1.855920	-0.360323	-0.218663
C16	C	-1.169919	0.255187	-0.188002
C17	C	-1.348189	0.276145	-0.189630
C18	C	-1.922082	0.226044	0.090306
C19	C	-1.940834	0.228257	0.267852
N20	N	-1.956680	0.583751	-0.128339
C21	C	-1.826364	0.214788	-0.494797
C22	C	-1.807615	0.212585	-0.672341
H23	H	-2.005874	-0.127197	-0.084194
N24	N	-1.469816	0.423804	-0.162555
H25	H	-1.409757	0.495214	-0.145454
H26	H	-1.515283	0.434471	-0.261277
H27	H	-1.308407	0.053197	-0.235347
H28	H	-2.070035	-0.344598	-0.026699
N29	N	-2.110921	0.248254	0.379950
H30	H	-2.192653	0.342012	0.377492
H31	H	-2.153264	0.169034	0.342245
N32	N	-1.637523	0.192562	0.215578
H33	H	-1.647787	0.193770	0.100379
H34	H	-1.595104	0.271714	0.253342
H35	H	-1.742555	-0.431975	-0.320292
H36	H	-1.678423	-0.214576	-0.377761
