data_functionalizedCrystal
_audit_creation_method	'MofGen! by Chris Wilmer'
_symmetry_space_group_name_H-M	'P1'
_symmetry_Int_Tables_number	1
_symmetry_cell_setting	triclinic
loop_
_symmetry_equiv_pos_as_xyz
  x,y,z
_cell_length_a	12.827893
_cell_length_b	12.827885
_cell_length_c	12.827892
_cell_angle_alpha	89.970214
_cell_angle_beta	90.015363
_cell_angle_gamma	89.980919
loop_
_atom_site_label
_atom_site_type_symbol
_atom_site_fract_x
_atom_site_fract_y
_atom_site_fract_z
Zn1	Zn	1.597670	-0.590843	-0.415983
Zn2	Zn	2.097670	-0.090843	0.084017
Zn3	Zn	1.597564	-0.416104	-0.590761
Zn4	Zn	2.097564	0.083896	-0.090761
Zn5	Zn	1.422911	-0.416118	-0.416034
Zn6	Zn	1.922911	0.083882	0.083966
Zn7	Zn	1.422896	-0.590804	-0.590683
Zn8	Zn	1.922896	-0.090804	-0.090683
O9	O	1.510260	-0.503467	-0.503365
O10	O	2.010260	-0.003467	-0.003365
O11	O	1.743892	-0.567674	-0.439179
O12	O	2.243892	-0.067674	0.060821
O13	O	1.574357	-0.269869	-0.567637
O14	O	2.074357	0.230131	-0.067637
O15	O	1.446144	-0.439318	-0.269791
O16	O	1.946144	0.060682	0.230209
O17	O	1.743814	-0.439294	-0.567587
O18	O	2.243814	0.060706	-0.067587
O19	O	1.574538	-0.567688	-0.269754
O20	O	2.074538	-0.067688	0.230246
O21	O	1.446041	-0.269880	-0.439266
O22	O	1.946041	0.230120	0.060734
O23	O	1.276673	-0.439280	-0.439190
O24	O	1.776673	0.060720	0.060810
O25	O	1.446118	-0.737046	-0.567455
O26	O	1.946118	-0.237046	-0.067455
O27	O	1.276662	-0.567621	-0.567504
O28	O	1.776662	-0.067621	-0.067504
O29	O	1.574524	-0.737074	-0.439104
O30	O	2.074524	-0.237074	0.060896
O31	O	1.574343	-0.439256	-0.736986
O32	O	2.074343	0.060744	-0.236986
O33	O	1.446016	-0.567608	-0.736929
O34	O	1.946016	-0.067608	-0.236929
C35	C	1.238750	-0.503448	-0.503345
C36	C	1.738750	-0.003448	-0.003345
C37	C	1.122597	-0.503465	-0.503362
C38	C	1.622597	-0.003465	-0.003362
C39	C	1.070774	-0.439854	-0.566804
C40	C	1.570774	0.060146	-0.066804
C41	C	0.950724	-0.439870	-0.566823
C42	C	1.450724	0.060130	-0.066823
C43	C	1.510331	-0.776038	-0.503265
C44	C	2.010331	-0.276038	-0.003265
C45	C	1.510362	-0.892191	-0.503222
C46	C	2.010362	-0.392191	-0.003222
C47	C	1.573907	-0.943990	-0.439697
C48	C	2.073907	-0.443990	0.060303
C49	C	1.573940	-1.064040	-0.439652
C50	C	2.073940	-0.564040	0.060348
C51	C	1.782830	-0.503487	-0.503386
C52	C	2.282830	-0.003487	-0.003386
C53	C	1.898983	-0.503495	-0.503395
C54	C	2.398983	-0.003495	-0.003395
C55	C	1.510195	-0.503449	-0.774875
C56	C	2.010195	-0.003449	-0.274875
C57	C	1.510262	-0.503476	-0.891028
C58	C	2.010262	-0.003476	-0.391028
C59	C	1.510249	-0.231957	-0.503390
C60	C	2.010249	0.268043	-0.003390
C61	C	1.510422	-0.115805	-0.503138
C62	C	2.010422	0.384195	-0.003138
C63	C	1.573838	-0.440034	-0.942807
C64	C	2.073838	0.059966	-0.442807
C65	C	1.573910	-0.440060	-1.062857
C66	C	2.073910	0.059940	-0.562857
C67	C	1.510354	-0.503509	-0.230795
C68	C	2.010354	-0.003509	0.269205
C69	C	1.510394	-0.503526	-0.114642
C70	C	2.010394	-0.003526	0.385358
H71	H	0.943543	-0.557953	-0.449072
H72	H	1.443543	-0.057953	0.050928
Cl73	Cl	1.426346	-0.587386	-1.045907
Cl74	Cl	1.926346	-0.087386	-0.545907
Cl75	Cl	1.657944	-0.356192	-1.131599
Cl76	Cl	2.157944	0.143808	-0.631599
Cl77	Cl	1.426310	-0.587375	-0.959797
Cl78	Cl	1.926310	-0.087375	-0.459797
H79	H	1.115283	-0.385386	-0.621110
H80	H	1.615283	0.114614	-0.121110
Cl81	Cl	1.657844	-0.875248	-0.355752
Cl82	Cl	2.157844	-0.375248	0.144248
H83	H	0.906157	-0.385408	-0.621136
H84	H	1.406157	0.114592	-0.121136
H85	H	1.078088	-0.557940	-0.449063
H86	H	1.578088	-0.057940	0.050937
H87	H	1.456019	-1.071266	-0.557531
H88	H	1.956019	-0.571266	-0.057531
Cl89	Cl	1.657946	-1.132809	-0.355685
Cl90	Cl	2.157946	-0.632809	0.144315
H91	H	1.455975	-0.936721	-0.557567
H92	H	1.955975	-0.436721	-0.057567
Cl93	Cl	1.657803	-0.356147	-0.874038
Cl94	Cl	2.157803	0.143853	-0.374038
