data_functionalizedCrystal
_audit_creation_method	'MofGen! by Chris Wilmer'
_symmetry_space_group_name_H-M	'P1'
_symmetry_Int_Tables_number	1
_symmetry_cell_setting	triclinic
loop_
_symmetry_equiv_pos_as_xyz
  x,y,z
_cell_length_a	12.645330
_cell_length_b	12.759395
_cell_length_c	12.759387
_cell_angle_alpha	90.018815
_cell_angle_beta	89.969429
_cell_angle_gamma	89.980771
loop_
_atom_site_label
_atom_site_type_symbol
_atom_site_fract_x
_atom_site_fract_y
_atom_site_fract_z
Zn1	Zn	-0.421928	-1.606229	-0.594015
Zn2	Zn	-0.599233	-1.606116	-0.418340
Zn3	Zn	-0.421989	-1.430533	-0.418352
Zn4	Zn	-0.599155	-1.430511	-0.593979
O5	O	-0.510576	-1.518347	-0.506172
O6	O	-0.445455	-1.753235	-0.570722
O7	O	-0.575780	-1.582786	-0.271320
O8	O	-0.273634	-1.453896	-0.441674
O9	O	-0.575721	-1.753152	-0.441654
O10	O	-0.273589	-1.582979	-0.570733
O11	O	-0.445560	-1.453786	-0.271329
O12	O	-0.445483	-1.283509	-0.441639
O13	O	-0.575586	-1.453858	-0.741005
O14	O	-0.575646	-1.283493	-0.570672
O15	O	-0.445379	-1.582958	-0.741032
O16	O	-0.747570	-1.582765	-0.441619
O17	O	-0.747512	-1.453748	-0.570660
C18	C	-0.510563	-1.245380	-0.506153
C19	C	-0.510583	-1.128603	-0.506171
C20	C	-0.786006	-1.518270	-0.506157
C21	C	-0.903836	-1.518334	-0.506186
C22	C	-0.510467	-1.518418	-0.780205
C23	C	-0.510420	-1.518449	-0.896982
C24	C	-1.071408	-1.437504	-0.587616
C25	C	-0.948848	-1.437091	-0.587354
C26	C	-0.948442	-1.488361	-0.395464
C27	C	-1.071040	-1.487868	-0.395958
C28	C	-1.070920	-1.629630	-0.534579
C29	C	-0.948312	-1.628948	-0.537001
C30	C	-0.234071	-1.518453	-0.506209
C31	C	-0.116241	-1.518498	-0.506225
C32	C	-0.510590	-1.792381	-0.506190
C33	C	-0.510596	-1.909157	-0.506198
C34	C	-0.646341	-1.128625	-0.640315
C35	C	-0.714228	-1.073775	-0.707390
C36	C	-0.714241	-0.964053	-0.707403
C37	C	-0.646357	-0.909179	-0.640335
C38	C	-0.578470	-0.964029	-0.573260
C39	C	-0.578467	-1.073753	-0.573253
C40	C	-0.442709	-0.964007	-0.439123
C41	C	-0.442700	-1.073729	-0.439103
C42	C	-0.374825	-0.909133	-0.372056
C43	C	-0.306942	-0.963983	-0.304974
C44	C	-0.306932	-1.073711	-0.304963
C45	C	-0.374813	-1.128579	-0.372028
C46	C	-0.374812	-1.384130	-0.897010
C47	C	-0.306987	-1.316989	-0.951885
C48	C	-0.306949	-1.317021	-1.061607
C49	C	-0.374745	-1.384198	-1.116456
C50	C	-0.442570	-1.451338	-1.061581
C51	C	-0.442599	-1.451301	-0.951857
C52	C	-0.578182	-1.585650	-1.061553
C53	C	-0.578216	-1.585626	-0.951831
C54	C	-0.645978	-1.652827	-1.116402
C55	C	-0.713799	-1.719974	-1.061527
C56	C	-0.713834	-1.719941	-0.951799
C57	C	-0.646041	-1.652766	-0.896956
C58	C	-0.510609	-1.518337	-0.233204
C59	C	-0.510357	-1.518510	-0.116428
H60	H	-0.918685	-1.455843	-0.669454
O61	O	-0.240906	-0.910843	-0.239799
C62	C	-0.181010	-0.982778	-0.180566
H63	H	-0.177387	-1.061016	-0.223589
H64	H	-0.219732	-0.994394	-0.100704
C65	C	-0.072617	-0.843885	-0.112787
C66	C	-0.068160	-0.939976	-0.165633
H67	H	-0.003008	-0.817482	-0.103570
H68	H	-0.112973	-0.795420	-0.152689
H69	H	-0.104891	-0.853578	-0.046240
H70	H	-0.035900	-0.930279	-0.232182
H71	H	-0.027796	-0.988438	-0.125740
O72	O	-0.780136	-1.127242	-0.772435
C73	C	-0.765556	-1.235847	-0.758062
H74	H	-0.730730	-1.250808	-0.677044
H75	H	-0.709182	-1.267026	-0.820479
C76	C	-0.915599	-1.273781	-0.866998
C77	C	-0.872834	-1.292156	-0.767487
H78	H	-0.981772	-1.308516	-0.872816
H79	H	-0.925420	-1.200612	-0.876685
H80	H	-0.868611	-1.299763	-0.919002
H81	H	-0.919816	-1.266162	-0.715486
H82	H	-0.863023	-1.365322	-0.757791
H83	H	-0.251643	-1.118363	-0.250350
O84	O	-0.779550	-1.785189	-1.114968
C85	C	-0.764999	-1.770792	-1.223577
H86	H	-0.683179	-1.736422	-1.238578
H87	H	-0.827864	-1.714821	-1.254692
C88	C	-0.875202	-1.919314	-1.261498
C89	C	-0.774706	-1.877109	-1.279923
H90	H	-0.881194	-1.984893	-1.296256
H91	H	-0.885009	-1.929011	-1.188326
H92	H	-0.927578	-1.872661	-1.287426
H93	H	-0.722333	-1.923754	-1.253982
H94	H	-0.764890	-1.867421	-1.353092
O95	O	-1.108213	-1.339765	-0.565674
C96	C	-1.067337	-1.267990	-0.639265
H97	H	-1.044124	-1.311556	-0.713830
H98	H	-0.994754	-1.227600	-0.605005
C99	C	-1.180605	-1.131787	-0.573627
C100	C	-1.152102	-1.185294	-0.665212
H101	H	-1.232888	-1.080773	-0.589629
H102	H	-1.208141	-1.180142	-0.524044
H103	H	-1.120111	-1.098138	-0.545086
H104	H	-1.212592	-1.218953	-0.693744
H105	H	-1.124578	-1.136943	-0.714800
O106	O	-0.780236	-0.910654	-0.772414
C107	C	-0.848654	-0.847164	-0.712484
H108	H	-0.811169	-0.830705	-0.632930
H109	H	-0.927198	-0.889425	-0.700801
C110	C	-0.913967	-0.763173	-0.867972
C111	C	-0.867923	-0.742950	-0.770267
H112	H	-0.925857	-0.698891	-0.903616
H113	H	-0.867876	-0.805950	-0.908350
H114	H	-0.979415	-0.798393	-0.858223
H115	H	-0.802471	-0.707743	-0.780018
H116	H	-0.914004	-0.700165	-0.729892
O117	O	-0.240986	-1.251786	-0.898722
C118	C	-0.135323	-1.274821	-0.925538
H119	H	-0.133107	-1.315238	-1.005203
H120	H	-0.099642	-1.328831	-0.863792
C121	C	-0.073816	-1.122789	-0.832780
C122	C	-0.071094	-1.172421	-0.930631
H123	H	-0.034195	-1.059625	-0.835917
H124	H	-0.145003	-1.107271	-0.814710
H125	H	-0.044084	-1.167807	-0.781336
H126	H	-0.100838	-1.127409	-0.982071
H127	H	0.000089	-1.187930	-0.948710
O128	O	-1.105338	-1.391021	-0.367140
C129	C	-1.167496	-1.399210	-0.275740
H130	H	-1.145933	-1.474167	-0.232091
H131	H	-1.254728	-1.401416	-0.298151
C132	C	-1.173167	-1.211859	-0.258200
C133	C	-1.146678	-1.303918	-0.204584
H134	H	-1.160331	-1.153077	-0.214309
H135	H	-1.131294	-1.206341	-0.319780
H136	H	-1.245860	-1.213712	-0.276873
H137	H	-1.073984	-1.302070	-0.185924
H138	H	-1.188539	-1.309434	-0.142999
H139	H	-0.919618	-1.354702	-0.568570
O140	O	-1.105646	-1.701499	-0.463807
C141	C	-1.170539	-1.651660	-0.388971
H142	H	-1.204065	-1.576340	-0.423671
H143	H	-1.121793	-1.632206	-0.316394
C144	C	-1.220807	-1.817754	-0.315774
C145	C	-1.261992	-1.725249	-0.358396
H146	H	-1.277218	-1.863147	-0.296909
H147	H	-1.177085	-1.851332	-0.366189
H148	H	-1.180186	-1.801528	-0.255298
H149	H	-1.302601	-1.741475	-0.418877
H150	H	-1.305724	-1.691675	-0.307990
O151	O	-0.374743	-1.383938	-0.790427
C152	C	-0.300343	-1.310274	-0.753783
H153	H	-0.285467	-1.248916	-0.817014
H154	H	-0.223058	-1.351969	-0.734336
C155	C	-0.361840	-1.331733	-0.576950
C156	C	-0.343575	-1.256366	-0.654608
H157	H	-0.388503	-1.298483	-0.515772
H158	H	-0.411962	-1.381364	-0.601637
H159	H	-0.297430	-1.366473	-0.560757
H160	H	-0.407986	-1.221638	-0.670809
H161	H	-0.293464	-1.206728	-0.629922
O162	O	-0.779758	-1.785258	-0.898659
C163	C	-0.839604	-1.844527	-0.970603
H164	H	-0.796156	-1.848211	-1.048825
H165	H	-0.920103	-1.806010	-0.982255
C166	C	-0.908291	-1.951801	-0.831712
C167	C	-0.854923	-1.956332	-0.927783
H168	H	-0.917745	-2.020766	-0.805298
H169	H	-0.867975	-1.911868	-0.783241
H170	H	-0.975367	-1.919698	-0.841435
H171	H	-0.787843	-1.988422	-0.918057
H172	H	-0.895228	-1.996273	-0.976252
H173	H	-0.374815	-1.217920	-0.372023
O174	O	-1.107636	-1.662433	-0.629224
C175	C	-1.065523	-1.762150	-0.652258
H176	H	-1.041500	-1.802704	-0.576312
H177	H	-0.993243	-1.753079	-0.704915
C178	C	-1.179119	-1.778741	-0.802156
C179	C	-1.149622	-1.828553	-0.708878
H180	H	-1.230992	-1.819700	-0.837086
H181	H	-1.207489	-1.711558	-0.786641
H182	H	-1.118877	-1.771184	-0.846025
H183	H	-1.209860	-1.836096	-0.665006
H184	H	-1.121264	-1.895739	-0.724387
H185	H	-0.374836	-0.819792	-0.372076
H186	H	-0.646365	-0.819838	-0.640361
O187	O	-0.645982	-1.652900	-0.790373
C188	C	-0.618816	-1.753600	-0.753715
H189	H	-0.572587	-1.797082	-0.816952
H190	H	-0.693883	-1.799068	-0.734228
C191	C	-0.606961	-1.690033	-0.576902
C192	C	-0.550175	-1.743436	-0.654569
H193	H	-0.564625	-1.683766	-0.515742
H194	H	-0.625268	-1.622191	-0.601598
H195	H	-0.669515	-1.727931	-0.560676
H196	H	-0.487630	-1.705531	-0.670803
H197	H	-0.531856	-1.811272	-0.629873
H198	H	-0.374717	-1.384208	-1.205797
H199	H	-1.100811	-1.456085	-0.669985
H200	H	-0.251721	-1.262348	-1.106286
O201	O	-1.106404	-1.555056	-0.321015
C202	C	-1.068935	-1.522594	-0.222144
H203	H	-1.049539	-1.435386	-0.224711
H204	H	-0.994626	-1.568745	-0.201412
C205	C	-1.178409	-1.649704	-0.135530
C206	C	-1.154595	-1.542592	-0.138680
H207	H	-1.231244	-1.662044	-0.084043
H208	H	-1.203649	-1.671578	-0.202141
H209	H	-1.116477	-1.688151	-0.118257
H210	H	-1.216522	-1.504148	-0.155965
H211	H	-1.129366	-1.520712	-0.072070
H212	H	-0.919288	-1.545483	-0.333165
H213	H	-0.917836	-1.407969	-0.371009
H214	H	-0.919153	-1.651552	-0.618486
H215	H	-0.917666	-1.692470	-0.482037
H216	H	-0.646345	-1.217966	-0.640303
H217	H	-0.645947	-1.652843	-1.205743
