data_functionalizedCrystal
_audit_creation_method	'MofGen! by Chris Wilmer'
_symmetry_space_group_name_H-M	'P1'
_symmetry_Int_Tables_number	1
_symmetry_cell_setting	triclinic
loop_
_symmetry_equiv_pos_as_xyz
  x,y,z
_cell_length_a	6.817900
_cell_length_b	7.076028
_cell_length_c	18.186725
_cell_angle_alpha	86.819990
_cell_angle_beta	110.086524
_cell_angle_gamma	117.700652
loop_
_atom_site_label
_atom_site_type_symbol
_atom_site_fract_x
_atom_site_fract_y
_atom_site_fract_z
V1	V	-4.229947	-0.658801	-0.106766
O2	O	-4.182027	-0.652716	0.006410
O3	O	-4.210433	-0.648086	-0.212929
O4	O	-4.256313	-0.948959	-0.104562
O5	O	-4.135830	-0.349760	-0.102707
V6	V	-4.700144	-0.622591	-0.093295
O7	O	-4.520437	-0.738229	-0.136315
O8	O	-4.859852	-0.543163	-0.063745
O9	O	-4.496452	-0.633306	0.012869
O10	O	-4.865461	-0.628676	-0.206470
O11	O	-4.911658	-0.931632	-0.097353
O12	O	-4.450573	-0.332433	-0.095499
C13	C	-4.060042	-0.636091	-0.238827
C14	C	-4.125872	-0.629265	-0.325613
C15	C	-4.404655	-0.630083	-0.451893
C16	C	-4.342804	-0.636473	-0.370347
C17	C	-3.970772	-0.615643	-0.362427
C18	C	-4.032617	-0.609238	-0.443971
C19	C	-4.310200	-0.645297	0.038763
C20	C	-4.222002	-0.652297	0.127178
C21	C	-4.251646	-0.261498	-0.099469
C22	C	-4.125529	-0.019875	-0.100588
V23	V	-4.333000	-0.644168	0.270969
O24	O	-4.251966	-0.632925	0.386117
O25	O	-4.349282	-0.644976	0.160417
O26	O	-4.394548	-0.945933	0.268753
O27	O	-4.206387	-0.329884	0.277032
V28	V	-4.743385	-0.549955	0.306469
O29	O	-4.612663	-0.696479	0.251710
O30	O	-4.865549	-0.445076	0.345690
O31	O	-4.527879	-0.575209	0.407123
O32	O	-4.929203	-0.547489	0.196526
O33	O	-4.974782	-0.850531	0.305612
O34	O	-4.482613	-0.274252	0.298788
C35	C	-4.354657	-0.607174	0.425434
C36	C	-4.249568	-0.616470	0.511297
C37	C	-4.296903	-0.223272	0.287243
C38	C	-4.152444	0.015921	0.285210
H39	H	-4.581304	-0.635967	-0.488311
H40	H	-3.794131	-0.609760	-0.325998
F41	F	-4.507865	-0.650944	-0.331175
F42	F	-3.867532	-0.594728	-0.483147
