data_functionalizedCrystal
_audit_creation_method	'MofGen! by Chris Wilmer'
_symmetry_space_group_name_H-M	'P1'
_symmetry_Int_Tables_number	1
_symmetry_cell_setting	triclinic
loop_
_symmetry_equiv_pos_as_xyz
  x,y,z
_cell_length_a	14.971482
_cell_length_b	12.837942
_cell_length_c	14.048226
_cell_angle_alpha	89.994377
_cell_angle_beta	89.994098
_cell_angle_gamma	89.220774
loop_
_atom_site_label
_atom_site_type_symbol
_atom_site_fract_x
_atom_site_fract_y
_atom_site_fract_z
O1	O	1.198338	0.135087	-0.079148
O2	O	1.698338	0.635087	0.420852
O3	O	0.939302	0.151270	-0.079152
O4	O	1.439302	0.651270	0.420848
O5	O	1.063076	-0.007731	-0.079144
O6	O	1.563076	0.492269	0.420856
O7	O	1.074564	0.294088	-0.079156
O8	O	1.574564	0.794088	0.420844
O9	O	1.063059	-0.007741	0.079177
O10	O	1.563059	0.492259	0.579177
O11	O	0.939285	0.151261	0.079169
O12	O	1.439285	0.651261	0.579169
O13	O	1.198321	0.135078	0.079174
O14	O	1.698321	0.635078	0.579174
Zn15	Zn	1.068800	0.143168	0.104308
Zn16	Zn	1.568800	0.643168	0.604308
Zn17	Zn	1.068823	0.143180	-0.104287
Zn18	Zn	1.568823	0.643180	0.395713
O19	O	1.074547	0.294079	0.079166
O20	O	1.574547	0.794079	0.579166
C21	C	0.905908	0.150542	0.000008
C22	C	1.405908	0.650542	0.500008
C23	C	0.806428	0.148376	0.000006
C24	C	1.306428	0.648376	0.500006
C25	C	0.759688	0.147350	0.086308
C26	C	1.259688	0.647350	0.586308
C27	C	0.666216	0.145298	0.086309
C28	C	1.166216	0.645298	0.586309
C29	C	0.619486	0.144278	0.000007
C30	C	1.119486	0.644278	0.500007
C31	C	0.666233	0.145301	-0.086301
C32	C	1.166233	0.645301	0.413699
C33	C	0.759703	0.147346	-0.086301
C34	C	1.259703	0.647346	0.413699
C35	C	0.471412	0.141041	-0.086295
C36	C	0.971412	0.641041	0.413705
C37	C	0.377935	0.138998	-0.086295
C38	C	0.877935	0.638998	0.413705
C39	C	0.377925	0.138993	0.086316
C40	C	0.877925	0.638993	0.586316
C41	C	0.471395	0.141038	0.086316
C42	C	0.971395	0.641038	0.586316
C43	C	0.518135	0.142062	0.000007
C44	C	1.018135	0.642062	0.500007
C45	C	1.059187	-0.046361	0.000016
C46	C	1.559187	0.453639	0.500016
C47	C	1.047613	-0.161453	0.000014
C48	C	1.547613	0.338547	0.500014
C49	C	1.186755	-0.402241	-0.000003
C50	C	1.686755	0.097759	0.499997
C51	C	1.175884	-0.510380	-0.000005
C52	C	1.675884	-0.010380	0.499995
C53	C	1.015001	-0.485872	0.000002
C54	C	1.515001	0.014128	0.500002
C55	C	1.025872	-0.377733	0.000004
C56	C	1.525872	0.122267	0.500004
C57	C	1.111752	-0.335921	0.000002
C58	C	1.611752	0.164079	0.500002
C59	C	1.122622	-0.227780	0.000011
C60	C	1.622622	0.272220	0.500011
C61	C	0.961739	-0.203275	0.000011
C62	C	1.461739	0.296725	0.500011
C63	C	0.950869	-0.311414	0.000010
C64	C	1.450869	0.188586	0.500010
C65	C	1.231715	0.135805	0.000011
C66	C	1.731715	0.635805	0.500011
C67	C	1.331195	0.137972	0.000007
C68	C	1.831195	0.637972	0.500007
C69	C	1.078436	0.332709	0.000003
C70	C	1.578436	0.832709	0.500003
C71	C	1.090010	0.447800	-0.000001
C72	C	1.590010	0.947800	0.499999
N73	N	1.068791	0.143159	0.246669
N74	N	1.568791	0.643159	0.746669
N75	N	1.068838	0.143181	-0.246648
N76	N	1.568838	0.643181	0.253352
C77	C	1.123620	0.072782	0.296491
C78	C	1.623620	0.572782	0.796491
C79	C	1.123626	0.072781	0.396148
C80	C	1.623626	0.572781	0.896148
C81	C	1.068807	0.143163	0.445982
C82	C	1.568807	0.643163	0.945982
C83	C	1.013972	0.213543	0.396154
C84	C	1.513972	0.713543	0.896154
C85	C	1.013962	0.213538	0.296498
C86	C	1.513962	0.713538	0.796498
C87	C	1.013999	0.213551	0.603868
C88	C	1.513999	0.713551	1.103868
C89	C	1.014010	0.213558	0.703531
C90	C	1.514010	0.713558	1.203531
C91	C	1.123662	0.072794	0.703518
C92	C	1.623662	0.572794	1.203518
C93	C	1.123652	0.072789	0.603862
C94	C	1.623652	0.572789	1.103862
C95	C	1.068818	0.143171	0.554041
C96	C	1.568818	0.643171	1.054041
H97	H	0.339890	0.138168	-0.156570
H98	H	0.839890	0.638168	0.343430
C99	C	0.953654	0.290966	0.241695
C100	C	1.453654	0.790966	0.741695
N101	N	0.908228	0.349288	0.200418
N102	N	1.408228	0.849288	0.700418
C103	C	1.281222	-0.356246	0.000001
C104	C	1.781222	0.143754	0.500001
N105	N	1.352377	-0.321604	0.000002
N106	N	1.852377	0.178396	0.500002
C107	C	0.953701	0.290975	0.758347
C108	C	1.453701	0.790975	1.258347
N109	N	0.908273	0.349286	0.799634
N110	N	1.408273	0.849286	1.299634
C111	C	0.811117	0.148476	-0.181240
C112	C	1.311117	0.648476	0.318760
N113	N	0.849840	0.149325	-0.252752
N114	N	1.349840	0.649325	0.247248
H115	H	0.509465	0.141875	-0.156577
H116	H	1.009465	0.641875	0.343423
C117	C	0.614827	0.144176	-0.181235
C118	C	1.114827	0.644176	0.318765
N119	N	0.576108	0.143333	-0.252740
N120	N	1.076108	0.643333	0.247260
C121	C	0.856406	-0.357419	0.000022
C122	C	1.356406	0.142581	0.500022
N123	N	0.785254	-0.392070	0.000038
N124	N	1.285254	0.107930	0.500038
H125	H	1.236960	-0.564374	-0.000013
H126	H	1.736960	-0.064374	0.499987
H127	H	0.945082	-0.519934	-0.000007
H128	H	1.445082	-0.019934	0.499993
C129	C	1.183918	-0.004664	0.450947
C130	C	1.683918	0.495336	0.950947
N131	N	1.229324	-0.063008	0.492222
N132	N	1.729324	0.436992	0.992222
C133	C	1.183925	-0.004646	0.241682
C134	C	1.683925	0.495354	0.741682
N135	N	1.229346	-0.062970	0.200403
N136	N	1.729346	0.437030	0.700403
C137	C	1.217090	-0.181789	0.000007
C138	C	1.717090	0.318211	0.500007
N139	N	1.288246	-0.147152	-0.000001
N140	N	1.788246	0.352848	0.499999
C141	C	0.522796	0.142160	0.181252
C142	C	1.022796	0.642160	0.681252
N143	N	0.561511	0.143002	0.252760
N144	N	1.061511	0.643002	0.752760
H145	H	0.900666	-0.149265	0.000024
H146	H	1.400666	0.350735	0.500024
H147	H	0.628165	0.144445	0.156585
H148	H	1.128165	0.644445	0.656585
C149	C	0.953668	0.290964	0.549067
C150	C	1.453668	0.790964	1.049067
N151	N	0.908227	0.349270	0.507790
N152	N	1.408227	0.849270	1.007790
C153	C	0.326509	0.137858	0.181257
C154	C	0.826509	0.637858	0.681257
N155	N	0.287779	0.137006	0.252764
N156	N	0.787779	0.637006	0.752764
H157	H	1.168294	0.015484	0.563288
H158	H	1.668294	0.515484	1.063288
C159	C	1.183977	-0.004631	0.758324
C160	C	1.683977	0.495369	1.258324
N161	N	1.229406	-0.062943	0.799608
N162	N	1.729406	0.437057	1.299608
H163	H	0.797728	0.148189	0.156585
H164	H	1.297728	0.648189	0.656585
H165	H	0.969333	0.270846	0.436735
H166	H	1.469333	0.770846	0.936735
