data_functionalizedCrystal
_audit_creation_method	'MofGen! by Chris Wilmer'
_symmetry_space_group_name_H-M	'P1'
_symmetry_Int_Tables_number	1
_symmetry_cell_setting	triclinic
loop_
_symmetry_equiv_pos_as_xyz
  x,y,z
_cell_length_a	17.640112
_cell_length_b	29.839131
_cell_length_c	17.640968
_cell_angle_alpha	101.231391
_cell_angle_beta	87.860920
_cell_angle_gamma	101.266684
loop_
_atom_site_label
_atom_site_type_symbol
_atom_site_fract_x
_atom_site_fract_y
_atom_site_fract_z
Zn1	Zn	1.247771	-0.012909	0.195080
Zn2	Zn	1.221948	-0.105602	0.068098
Zn3	Zn	1.095086	-0.042134	0.093726
Zn4	Zn	1.120692	-0.099688	0.220680
O5	O	1.171374	-0.065083	0.144396
O6	O	1.350620	-0.015449	0.156796
O7	O	1.183596	-0.111889	-0.034776
O8	O	1.115431	0.024621	0.107183
O9	O	1.331648	-0.083550	0.063503
O10	O	1.227608	0.046093	0.181647
O11	O	1.090391	-0.065260	-0.015947
O12	O	0.992208	-0.059525	0.132006
O13	O	1.159073	-0.073471	0.323557
O14	O	1.011020	-0.101810	0.225278
O15	O	1.252437	-0.009714	0.304749
O16	O	1.208425	-0.167697	0.088326
O17	O	1.134033	-0.163352	0.200427
C18	C	0.974058	-0.083197	0.184201
C19	C	0.889649	-0.090955	0.201248
C20	C	0.563036	-0.006143	0.014898
C21	C	0.483723	-0.013439	0.030927
C22	C	0.503332	-0.057573	0.127883
C23	C	0.582649	-0.050277	0.111866
C24	C	0.612494	-0.024563	0.055372
C25	C	0.632108	-0.068697	0.152339
C26	C	0.711417	-0.061405	0.136320
C27	C	0.741268	-0.035692	0.079827
C28	C	0.691803	-0.017270	0.039352
C29	C	0.602261	-0.094415	0.208829
C30	C	0.651719	-0.112835	0.249303
C31	C	0.731031	-0.105540	0.233287
C32	C	0.760882	-0.079827	0.176794
C33	C	0.780495	-0.123962	0.273762
C34	C	0.859805	-0.116670	0.257742
C35	C	0.840191	-0.072535	0.160775
C36	C	1.171229	-0.181824	0.144386
C37	C	1.171242	-0.231756	0.144393
C38	C	1.210213	-0.543616	0.086078
C39	C	1.210312	-0.731276	0.086088
O40	O	1.243332	-0.757439	0.036500
N41	N	1.171543	-0.752503	0.144421
C42	C	1.132750	-0.726811	0.202759
O43	O	1.099784	-0.749171	0.252379
C44	C	1.132656	-0.539151	0.202750
C45	C	1.171421	-0.517928	0.144409
C46	C	1.248976	-0.522392	0.027742
C47	C	1.248947	-0.475481	0.027738
C48	C	1.210155	-0.449792	0.086069
C49	C	1.171392	-0.471016	0.144405
C50	C	1.093868	-0.513459	0.261090
C51	C	1.093850	-0.466541	0.261084
C52	C	1.132615	-0.445318	0.202743
C53	C	1.132572	-0.398416	0.202732
N54	N	1.171341	-0.377189	0.144399
C55	C	1.210133	-0.402877	0.086068
C56	C	1.132802	-0.825336	0.202758
C57	C	1.132824	-0.872251	0.202759
C58	C	1.210387	-0.876713	0.086090
C59	C	1.210360	-0.829797	0.086086
C60	C	1.171571	-0.804109	0.144425
C61	C	1.210069	-0.304360	0.086062
C62	C	1.210034	-0.257444	0.086061
C63	C	1.132474	-0.252986	0.202733
C64	C	1.132505	-0.299898	0.202732
C65	C	1.171308	-0.325583	0.144393
O66	O	1.099577	-0.372224	0.252299
O67	O	1.243109	-0.380507	0.036464
C68	C	1.210242	-0.590527	0.086082
C69	C	1.171479	-0.611751	0.144418
C70	C	1.132687	-0.586063	0.202750
C71	C	1.171501	-0.658666	0.144420
C72	C	1.210293	-0.684354	0.086088
C73	C	1.249062	-0.663127	0.027755
C74	C	1.249033	-0.616215	0.027751
C75	C	1.093918	-0.607290	0.261082
C76	C	1.093949	-0.654202	0.261082
C77	C	1.132741	-0.679890	0.202750
C78	C	1.369461	-0.046899	0.104435
C79	C	1.453873	-0.039150	0.087407
C80	C	1.211491	-0.037673	0.342479
C81	C	1.228587	-0.025992	0.426890
C82	C	1.171544	0.052117	0.144418
C83	C	1.171616	0.102061	0.144428
C84	C	1.131457	-0.092351	-0.052925
C85	C	1.114508	-0.103892	-0.137366
C86	C	1.041792	-0.153550	0.753463
C87	C	1.057872	-0.142567	0.832777
C88	C	1.155084	-0.076183	0.813183
C89	C	1.139010	-0.087159	0.733867
C90	C	1.082364	-0.125843	0.704013
C91	C	1.179581	-0.059452	0.684417
C92	C	1.163511	-0.070429	0.605107
C93	C	1.106869	-0.109113	0.575246
C94	C	1.066293	-0.136820	0.624703
C95	C	1.236231	-0.020770	0.714271
C96	C	1.276802	0.006936	0.664821
C97	C	1.260728	-0.004039	0.585510
C98	C	1.204086	-0.042722	0.555650
C99	C	1.301304	0.023669	0.536054
C100	C	1.285233	0.012692	0.456744
C101	C	1.188016	-0.053699	0.476340
H102	H	1.241600	-0.240166	0.038551
O103	O	0.720934	0.007719	-0.015476
C104	C	0.801537	0.010193	-0.020947
H105	H	0.824226	0.004522	0.035427
H106	H	0.814874	-0.017866	-0.070608
C107	C	0.813049	0.065423	-0.105232
C108	C	0.840918	0.058462	-0.035990
H109	H	0.837343	0.095197	-0.114514
H110	H	0.758745	0.063755	-0.101548
H111	H	0.824165	0.042037	-0.146608
H112	H	0.829794	0.081844	0.005386
H113	H	0.895222	0.060135	-0.039667
O114	O	0.622827	-0.137765	0.304273
C115	C	0.657554	-0.115739	0.376074
H116	H	0.715484	-0.092952	0.366062
H117	H	0.618139	-0.093214	0.410725
C118	C	0.599329	-0.180877	0.433519
C119	C	0.670482	-0.152892	0.421222
H120	H	0.607300	-0.203794	0.461371
H121	H	0.575930	-0.195715	0.385146
H122	H	0.566490	-0.162100	0.462393
H123	H	0.703315	-0.171668	0.392341
H124	H	0.693887	-0.138058	0.469592
H125	H	1.280515	-0.458203	-0.019767
H126	H	0.587339	0.014805	-0.031094
O127	O	1.094736	-0.228099	0.259438
C128	C	1.060546	-0.256883	0.310950
H129	H	1.051641	-0.294880	0.280375
H130	H	1.100012	-0.251311	0.363039
C131	C	0.992853	-0.197859	0.375710
C132	C	0.981910	-0.244526	0.338154
H133	H	0.944348	-0.190235	0.392494
H134	H	1.015890	-0.178465	0.341008
H135	H	1.025744	-0.193221	0.419112
H136	H	0.949028	-0.249162	0.294747
H137	H	0.958866	-0.263920	0.372850
O138	O	1.247768	-0.329245	0.029314
C139	C	1.281985	-0.300441	-0.022159
H140	H	1.250319	-0.270244	-0.018530
H141	H	1.345281	-0.286259	-0.005936
C142	C	1.315529	-0.366017	-0.109658
C143	C	1.276632	-0.328930	-0.105205
H144	H	1.312230	-0.383590	-0.160885
H145	H	1.292478	-0.385422	-0.074979
H146	H	1.368271	-0.354192	-0.096135
H147	H	1.223888	-0.340755	-0.118719
H148	H	1.299673	-0.309527	-0.139889
H149	H	1.280569	-0.543302	-0.019760
O150	O	0.751601	-0.148895	0.328727
C151	C	0.786322	-0.126874	0.400533
H152	H	0.844252	-0.104085	0.390529
H153	H	0.746904	-0.104352	0.435186
C154	C	0.728094	-0.192018	0.457961
C155	C	0.799247	-0.164032	0.445673
H156	H	0.736064	-0.214938	0.485808
H157	H	0.704699	-0.206854	0.409584
H158	H	0.695252	-0.173245	0.486835
H159	H	0.832084	-0.182805	0.416791
H160	H	0.822648	-0.149200	0.494046
H161	H	0.900076	-0.131668	0.290701
H162	H	0.537681	-0.100352	0.221870
H163	H	1.347430	0.055163	0.560372
H164	H	0.443456	0.001566	-0.002031
H165	H	1.280600	-0.598939	-0.019756
O166	O	0.818307	-0.028691	0.064255
C167	C	0.840782	-0.072014	0.039254
H168	H	0.797676	-0.100322	0.061391
H169	H	0.842066	-0.080337	-0.026601
C170	C	0.974771	-0.035085	0.043813
C171	C	0.921830	-0.069853	0.071007
H172	H	1.024767	-0.033752	0.063397
H173	H	0.959630	-0.005897	0.060654
H174	H	0.975832	-0.042025	-0.011065
H175	H	0.920763	-0.062909	0.125884
H176	H	0.936974	-0.099040	0.054177
H177	H	1.141871	-0.085190	0.452035
O178	O	0.869241	-0.047487	0.105999
C179	C	0.923943	-0.008301	0.140048
H180	H	0.912176	0.000501	0.204694
H181	H	0.984559	-0.016313	0.130480
C182	C	0.932159	0.022627	0.023440
C183	C	0.917704	0.033440	0.102838
H184	H	0.928314	0.048374	0.000486
H185	H	0.895308	-0.003775	0.000499
H186	H	0.982672	0.015949	0.015478
H187	H	0.867188	0.040111	0.110799
H188	H	0.954546	0.059843	0.125780
O189	O	1.056172	-0.582309	0.317648
C190	C	0.998360	-0.565715	0.284257
H191	H	1.013540	-0.564175	0.221316
H192	H	0.940401	-0.590166	0.287214
C193	C	0.974352	-0.518530	0.406120
C194	C	0.992999	-0.516636	0.328815
H195	H	0.971042	-0.488257	0.433606
H196	H	1.013298	-0.529711	0.428617
H197	H	0.926054	-0.538909	0.408572
H198	H	1.041300	-0.496262	0.326363
H199	H	0.954060	-0.505450	0.306319
O200	O	1.248086	-0.809249	0.029377
C201	C	1.282306	-0.841991	-0.022116
H202	H	1.291223	-0.870881	0.008473
H203	H	1.242856	-0.857544	-0.074213
C204	C	1.349980	-0.782240	-0.086879
C205	C	1.360938	-0.817721	-0.049307
H206	H	1.398483	-0.767270	-0.103655
H207	H	1.326923	-0.760181	-0.052189
H208	H	1.317103	-0.795206	-0.130288
H209	H	1.393807	-0.804754	-0.005894
H210	H	1.384002	-0.839778	-0.083991
H211	H	1.241973	-0.897636	0.038594
O212	O	1.018361	-0.169520	0.880711
C213	C	0.964936	-0.206023	0.837347
H214	H	0.950875	-0.195685	0.781346
H215	H	0.990991	-0.238763	0.823292
C216	C	0.907642	-0.228336	0.953393
C217	C	0.890367	-0.215636	0.884615
H218	H	0.861646	-0.234267	0.982551
H219	H	0.943637	-0.203744	0.982609
H220	H	0.929356	-0.255617	0.941671
H221	H	0.868663	-0.188352	0.896338
H222	H	0.854366	-0.240224	0.855402
O223	O	0.474216	-0.082522	0.182760
C224	C	0.393606	-0.085021	0.188207
H225	H	0.377779	-0.054751	0.165620
H226	H	0.362863	-0.119313	0.152238
C227	C	0.387901	-0.119494	0.300997
C228	C	0.368463	-0.082314	0.273261
H229	H	0.372390	-0.117826	0.353462
H230	H	0.442209	-0.117812	0.297326
H231	H	0.362280	-0.148067	0.271016
H232	H	0.394091	-0.053742	0.303236
H233	H	0.314159	-0.083990	0.276939
H234	H	1.249315	-0.011835	0.778851
H235	H	1.101213	-0.804423	0.250266
O236	O	1.091394	-0.119766	0.498177
C237	C	1.158785	-0.128304	0.456985
H238	H	1.211803	-0.110286	0.493858
H239	H	1.157490	-0.167387	0.442584
C240	C	1.097414	-0.131308	0.336344
C241	C	1.162531	-0.109173	0.381630
H242	H	1.099724	-0.119509	0.289859
H243	H	1.052010	-0.125557	0.364095
H244	H	1.096342	-0.163876	0.324351
H245	H	1.163597	-0.076607	0.393629
H246	H	1.207936	-0.114918	0.353879
H247	H	1.101249	-0.889529	0.250261
H248	H	1.280645	-0.684051	-0.019742
H249	H	1.020148	-0.168312	0.600398
O250	O	1.056318	-0.534023	0.317860
C251	C	1.088180	-0.510522	0.390219
H252	H	1.149628	-0.491484	0.381849
H253	H	1.051455	-0.484302	0.418246
C254	C	1.014116	-0.569367	0.452988
C255	C	1.089590	-0.545988	0.442708
H256	H	1.014983	-0.591243	0.485368
H257	H	0.992647	-0.585199	0.404239
H258	H	0.983520	-0.547512	0.476341
H259	H	1.120182	-0.567841	0.419347
H260	H	1.111064	-0.530160	0.491454
O261	O	1.331926	0.044471	0.693768
C262	C	1.403672	0.038926	0.659094
H263	H	1.403043	0.000365	0.636511
H264	H	1.414224	0.058467	0.609055
C265	C	1.469412	0.105923	0.747053
C266	C	1.468642	0.058561	0.719323
H267	H	1.509490	0.118037	0.784203
H268	H	1.421075	0.109660	0.770413
H269	H	1.478203	0.122201	0.705348
H270	H	1.459842	0.042283	0.761026
H271	H	1.516979	0.054821	0.695971
O272	O	1.056293	-0.441546	0.317814
C273	C	1.109414	-0.403604	0.358169
H274	H	1.170193	-0.411555	0.350840
H275	H	1.107271	-0.371059	0.334157
C276	C	1.013586	-0.385617	0.453587
C277	C	1.088234	-0.395384	0.444591
H278	H	1.000520	-0.380545	0.506896
H279	H	0.977796	-0.411178	0.426398
H280	H	1.011809	-0.358497	0.433573
H281	H	1.090008	-0.422506	0.464596
H282	H	1.124025	-0.369827	0.471785
O283	O	1.056279	-0.674738	0.317835
C284	C	1.022023	-0.642002	0.369304
H285	H	1.053645	-0.605318	0.365669
H286	H	0.958720	-0.646206	0.353083
C287	C	0.988559	-0.695176	0.456813
C288	C	1.027402	-0.650119	0.452353
H289	H	0.991874	-0.700183	0.508042
H290	H	1.011635	-0.717231	0.422136
H291	H	0.935810	-0.698673	0.443291
H292	H	1.080151	-0.646624	0.465866
H293	H	1.004335	-0.628063	0.487035
O294	O	0.986857	-0.191151	0.724342
C295	C	1.020774	-0.222552	0.669749
H296	H	1.075948	-0.203061	0.646273
H297	H	1.035257	-0.250859	0.698620
C298	C	0.895965	-0.268883	0.631661
C299	C	0.963727	-0.244943	0.602823
H300	H	0.860775	-0.282696	0.590379
H301	H	0.873114	-0.247728	0.668443
H302	H	0.908044	-0.292468	0.655720
H303	H	0.951649	-0.221354	0.578773
H304	H	0.986575	-0.266093	0.566035
H305	H	1.100942	-0.317178	0.250240
H306	H	1.201208	-0.044687	0.837501
O307	O	1.324688	0.039667	0.408816
C308	C	1.378143	0.076158	0.452169
H309	H	1.358497	0.082685	0.514984
H310	H	1.437507	0.066166	0.448960
C311	C	1.407010	0.112683	0.341861
C312	C	1.382877	0.120702	0.419010
H313	H	1.409933	0.140160	0.321405
H314	H	1.370999	0.088098	0.312652
H315	H	1.456478	0.104356	0.339197
H316	H	1.333406	0.129024	0.421672
H317	H	1.418880	0.145290	0.448219
