data_functionalizedCrystal
_audit_creation_method	'MofGen! by Chris Wilmer'
_symmetry_space_group_name_H-M	'P1'
_symmetry_Int_Tables_number	1
_symmetry_cell_setting	triclinic
loop_
_symmetry_equiv_pos_as_xyz
  x,y,z
_cell_length_a	12.759401
_cell_length_b	16.959454
_cell_length_c	12.759401
_cell_angle_alpha	90.007055
_cell_angle_beta	90.006940
_cell_angle_gamma	90.021600
loop_
_atom_site_label
_atom_site_type_symbol
_atom_site_fract_x
_atom_site_fract_y
_atom_site_fract_z
Zn1	Zn	1.606082	-0.314787	0.594026
Zn2	Zn	1.605999	-0.446934	0.418349
Zn3	Zn	1.430424	-0.314777	0.418361
Zn4	Zn	1.430356	-0.446931	0.593986
O5	O	1.518215	-0.380858	0.506180
O6	O	1.753092	-0.332322	0.570733
O7	O	1.582703	-0.429401	0.271329
O8	O	1.453788	-0.204168	0.441685
O9	O	1.753031	-0.429410	0.441664
O10	O	1.582843	-0.204175	0.570746
O11	O	1.453708	-0.332305	0.271339
O12	O	1.283394	-0.332302	0.441647
O13	O	1.453673	-0.429405	0.741012
O14	O	1.283344	-0.429395	0.570677
O15	O	1.582778	-0.332319	0.741042
O16	O	1.582637	-0.557545	0.441625
O17	O	1.453593	-0.557543	0.570665
C18	C	1.245248	-0.380848	0.506160
C19	C	1.128471	-0.380863	0.506176
C20	C	1.073611	-0.431496	0.573256
C21	C	0.963887	-0.431499	0.573277
C22	C	0.963893	-0.330233	0.439128
C23	C	1.073615	-0.330227	0.439113
C24	C	0.813957	-0.459898	0.697138
C25	C	0.759093	-0.510544	0.764209
C26	C	0.794677	-0.587687	0.780159
C27	C	0.885124	-0.614201	0.729021
C28	C	0.939982	-0.563560	0.661942
C29	C	0.904400	-0.486405	0.646013
C30	C	1.223547	-0.301836	0.315251
C31	C	1.278407	-0.251198	0.248165
C32	C	1.242825	-0.174053	0.232205
C33	C	1.152375	-0.147542	0.283324
C34	C	1.097515	-0.198180	0.350409
C35	C	1.133105	-0.275324	0.366371
C36	C	1.518127	-0.586224	0.506163
C37	C	1.518186	-0.674080	0.506190
C38	C	1.451119	-1.045585	0.573364
C39	C	1.585604	-1.045527	0.439104
C40	C	1.585567	-0.962981	0.439094
C41	C	1.518304	-0.921733	0.506219
C42	C	1.451078	-0.963031	0.573354
C43	C	1.652784	-0.921677	0.371953
C44	C	1.652750	-0.839126	0.371939
C45	C	1.585491	-0.797877	0.439071
C46	C	1.518263	-0.839180	0.506210
C47	C	1.451001	-0.797932	0.573335
C48	C	1.383777	-0.839233	0.640480
C49	C	1.383820	-0.921782	0.640486
C50	C	1.585448	-0.715328	0.439065
C51	C	1.450960	-0.715378	0.573325
C52	C	1.792249	-0.380868	0.506202
C53	C	1.909025	-0.380872	0.506211
C54	C	1.518227	-0.380863	0.780214
C55	C	1.518232	-0.380865	0.896990
C56	C	1.518332	-0.174689	0.506221
C57	C	1.518382	-0.086833	0.506239
C58	C	1.585448	-0.330321	0.951869
C59	C	1.585439	-0.330319	1.061593
C60	C	1.450994	-0.431413	1.061550
C61	C	1.450999	-0.431410	0.951828
C62	C	1.623026	-0.237106	1.211569
C63	C	1.690259	-0.186568	1.266452
C64	C	1.792782	-0.174437	1.230860
C65	C	1.828093	-0.212855	1.140388
C66	C	1.760866	-0.263398	1.085511
C67	C	1.658328	-0.275514	1.121101
C68	C	1.413423	-0.524625	0.801850
C69	C	1.346200	-0.575173	0.746971
C70	C	1.243675	-0.587312	0.782560
C71	C	1.208368	-0.548909	0.873036
C72	C	1.275591	-0.498361	0.927915
C73	C	1.378114	-0.486220	0.892318
C74	C	1.518203	-0.380870	1.233213
C75	C	1.518218	-0.380867	1.116436
H76	H	1.118272	-0.472725	0.627865
F77	F	1.513904	-0.250003	1.249447
H78	H	1.640176	-0.681705	0.384391
F79	F	1.657185	-1.089428	0.367668
F80	F	1.657001	-0.276525	0.893511
H81	H	1.287498	-0.132827	0.177570
F82	F	1.312189	-0.795325	0.711912
H83	H	1.496905	-0.514739	0.772858
F84	F	1.724369	-0.965580	0.300522
H85	H	0.685452	-0.488949	0.805846
H86	H	1.252533	-0.364652	0.328249
H87	H	1.396258	-0.472567	1.106212
F88	F	1.864336	-0.120652	1.289276
H89	H	1.329089	-0.955417	0.695150
H90	H	1.707487	-0.805504	0.317268
H91	H	1.246835	-0.467091	1.001586
H92	H	1.352056	-0.272790	0.206541
H93	H	1.396190	-0.681799	0.627991
F94	F	1.379583	-1.089540	0.644825
H95	H	1.789617	-0.294679	1.011853
F96	F	1.937219	-0.199950	1.102524
F97	F	1.036234	-0.591773	0.607518
F98	F	1.099250	-0.561830	0.910919
F99	F	0.736287	-0.641585	0.851546
H100	H	0.914083	-0.677022	0.742004
H101	H	0.919216	-0.289009	0.384526
H102	H	1.661500	-0.155289	1.340115
H103	H	1.188946	-0.628480	0.737873
H104	H	0.784983	-0.397079	0.684169
F105	F	1.001245	-0.169964	0.404810
F106	F	1.383784	-0.616053	0.650683
F107	F	1.114497	-0.065438	0.266332
