data_functionalizedCrystal
_audit_creation_method	'MofGen! by Chris Wilmer'
_symmetry_space_group_name_H-M	'P1'
_symmetry_Int_Tables_number	1
_symmetry_cell_setting	triclinic
loop_
_symmetry_equiv_pos_as_xyz
  x,y,z
_cell_length_a	14.853563
_cell_length_b	15.186229
_cell_length_c	16.109301
_cell_angle_alpha	89.989142
_cell_angle_beta	96.452606
_cell_angle_gamma	90.008347
loop_
_atom_site_label
_atom_site_type_symbol
_atom_site_fract_x
_atom_site_fract_y
_atom_site_fract_z
O1	O	-1.196192	-0.073222	0.108539
O2	O	-0.933711	-0.073224	0.121474
O3	O	-1.072162	-0.073220	-0.006015
O4	O	-1.057741	-0.073226	0.236027
O5	O	-1.072142	0.073237	-0.006036
O6	O	-0.933690	0.073233	0.121453
O7	O	-1.196172	0.073236	0.108518
Zn8	Zn	-1.064928	0.096488	0.114982
Zn9	Zn	-1.064955	-0.096476	0.115010
O10	O	-1.057721	0.073232	0.236006
C11	C	-0.900113	0.000004	0.120878
C12	C	-0.800032	0.000003	0.119123
N13	N	-1.064916	0.228180	0.114963
C14	C	-1.071568	0.000008	-0.037001
C15	C	-1.069816	0.000004	-0.129298
C16	C	-0.753024	-0.079834	0.118312
C17	C	-0.753000	0.079840	0.118279
C18	C	-0.658970	0.079842	0.116627
C19	C	-0.611962	0.000005	0.115815
C20	C	-0.658985	-0.079834	0.116657
C21	C	-0.611941	0.159679	0.115776
C22	C	-0.517904	0.159684	0.114123
C23	C	-0.470894	0.079847	0.113317
C24	C	-0.517923	0.000004	0.114160
C25	C	-0.470915	-0.079832	0.113349
C26	C	-0.517942	-0.159676	0.114197
C27	C	-0.611975	-0.159672	0.115851
C28	C	-0.376861	0.079843	0.111663
C29	C	-0.376876	-0.079833	0.111693
C30	C	-0.229770	0.000007	0.109110
C31	C	-0.329853	0.000006	0.110852
C32	C	-1.010281	0.546133	0.064483
C33	C	-1.010275	0.453944	0.064471
C34	C	-1.119603	0.453885	0.165502
C35	C	-1.119614	0.546073	0.165509
C36	C	-1.064948	0.592195	0.115001
C37	C	-1.064930	0.407817	0.114982
C38	C	-1.064924	0.307861	0.114970
C39	C	-1.064956	0.692157	0.115012
N40	N	-1.064962	0.771831	0.115020
C41	C	-1.058315	0.000002	0.266993
C42	C	-1.060066	-0.000000	0.359290
C43	C	-0.983638	-0.000005	0.668182
C44	C	-0.981984	-0.000003	0.581460
C45	C	-1.146251	0.000011	0.561815
C46	C	-1.147904	0.000016	0.648536
C47	C	-1.066595	0.000004	0.701718
C48	C	-1.063288	0.000000	0.528274
C49	C	-1.061495	0.000002	0.434246
C50	C	-1.068387	0.000004	0.795752
H51	H	-0.338609	-0.144847	0.111038
C52	C	-0.890733	-0.000016	0.544570
H53	H	-0.901390	-0.000008	0.485305
H54	H	-0.857270	-0.051092	0.562827
H55	H	-0.857247	0.051060	0.562811
H56	H	-1.164135	0.583577	0.206647
C57	C	-1.179721	0.403148	0.221064
H58	H	-1.171879	0.341647	0.213833
H59	H	-1.241410	0.418242	0.205722
H60	H	-1.162948	0.418247	0.277927
C61	C	-0.663648	0.247491	0.116670
H62	H	-0.726384	0.236054	0.117788
H63	H	-0.655132	0.280295	0.067947
H64	H	-0.641337	0.280295	0.164842
H65	H	-0.791317	-0.144840	0.119006
C66	C	-0.804706	0.167653	0.119172
H67	H	-0.867443	0.156218	0.120283
H68	H	-0.796182	0.200459	0.070453
H69	H	-0.782399	0.200453	0.167348
C70	C	-0.894202	-0.000008	0.726679
H71	H	-0.844559	-0.000004	0.694283
H72	H	-0.891438	-0.051078	0.760929
H73	H	-0.891424	0.051074	0.760905
H74	H	-0.965761	0.416445	0.023334
H75	H	-1.215462	0.000025	0.675840
H76	H	-0.650272	-0.224676	0.116541
H77	H	-1.212450	0.000020	0.518504
H78	H	-0.479656	-0.224679	0.113532
H79	H	-0.479624	0.224698	0.113431
H80	H	-0.338575	0.144850	0.110980
H81	H	-0.965769	0.583683	0.023356
