data_functionalizedCrystal
_audit_creation_method	'MofGen! by Chris Wilmer'
_symmetry_space_group_name_H-M	'P1'
_symmetry_Int_Tables_number	1
_symmetry_cell_setting	triclinic
loop_
_symmetry_equiv_pos_as_xyz
  x,y,z
_cell_length_a	21.395362
_cell_length_b	12.827892
_cell_length_c	21.395355
_cell_angle_alpha	90.013138
_cell_angle_beta	90.043940
_cell_angle_gamma	90.031272
loop_
_atom_site_label
_atom_site_type_symbol
_atom_site_fract_x
_atom_site_fract_y
_atom_site_fract_z
Zn1	Zn	0.957926	-0.415711	0.354609
Zn2	Zn	0.957857	-0.590438	0.249841
Zn3	Zn	0.853141	-0.415760	0.249810
Zn4	Zn	0.853138	-0.590459	0.354546
O5	O	0.905516	-0.503092	0.302202
O6	O	1.045595	-0.438860	0.340751
O7	O	0.943938	-0.567278	0.162159
O8	O	0.867071	-0.269517	0.263725
O9	O	1.045544	-0.567231	0.263778
O10	O	0.944056	-0.269482	0.340721
O11	O	0.867004	-0.438943	0.162137
O12	O	0.765463	-0.438963	0.263664
O13	O	0.867067	-0.567267	0.442232
O14	O	0.765461	-0.567314	0.340613
O15	O	0.944054	-0.438881	0.442279
O16	O	0.943935	-0.736677	0.263717
O17	O	0.866999	-0.736692	0.340643
C18	C	0.742728	-0.503147	0.302129
C19	C	0.673087	-0.503196	0.302113
C20	C	0.640389	-0.570117	0.342120
C21	C	0.574953	-0.570091	0.342148
C22	C	0.542218	-0.503156	0.302157
C23	C	0.574924	-0.436222	0.262147
C24	C	0.640358	-0.436242	0.262125
C25	C	0.438492	-0.494737	0.245752
C26	C	0.373059	-0.494724	0.245773
C27	C	0.340398	-0.503088	0.302227
C28	C	0.373177	-0.511486	0.358661
C29	C	0.438611	-0.511506	0.358638
C30	C	0.471266	-0.503126	0.302177
C31	C	0.236747	-0.569984	0.342268
C32	C	0.171311	-0.569951	0.342297
C33	C	0.171283	-0.436087	0.262290
C34	C	0.236718	-0.436115	0.262267
C35	C	0.269446	-0.503069	0.302255
C36	C	0.905476	-0.774602	0.302191
C37	C	0.905517	-0.890755	0.302207
C38	C	0.943633	-0.942497	0.264184
C39	C	0.943675	-1.062548	0.264200
C40	C	1.068939	-0.503037	0.302275
C41	C	1.138580	-0.503014	0.302306
C42	C	0.905568	-0.503071	0.465625
C43	C	0.905590	-0.503062	0.535266
C44	C	0.905572	-0.230522	0.302227
C45	C	0.905596	-0.114369	0.302237
C46	C	0.905500	-0.503038	0.139414
C47	C	0.905599	-0.502752	0.069773
C48	C	0.945675	-0.436208	0.568005
C49	C	0.945674	-0.436163	0.633440
C50	C	0.905595	-0.502991	0.666135
C51	C	0.865501	-0.569849	0.633389
C52	C	0.865499	-0.569885	0.567954
C53	C	0.900634	-0.597087	0.769804
C54	C	0.900641	-0.597053	0.835237
C55	C	0.905598	-0.502880	0.867956
C56	C	0.910563	-0.408738	0.835233
C57	C	0.910560	-0.408774	0.769799
C58	C	0.905592	-0.502959	0.737087
C59	C	0.945685	-0.435972	0.971646
C60	C	0.945680	-0.435925	1.037083
C61	C	0.865510	-0.569621	1.037030
C62	C	0.865512	-0.569658	0.971595
C63	C	0.905603	-0.502835	0.938907
H64	H	0.666980	-0.381744	0.229546
H65	H	0.976236	-0.897922	0.231621
H66	H	0.976306	-1.107045	0.231645
H67	H	0.548267	-0.381721	0.229588
H68	H	0.832874	-0.624104	0.944939
F69	F	0.862937	-1.056218	0.344786
H70	H	0.832854	-0.624324	0.541299
H71	H	0.872919	-0.935333	0.334774
F72	F	0.988330	-0.364988	0.668290
F73	F	0.988341	-0.365084	0.533219
F74	F	0.822849	-0.640736	1.071822
F75	F	0.915840	-0.308584	0.734976
H76	H	0.346585	-0.518294	0.404631
H77	H	0.263341	-0.381626	0.229685
F78	F	0.271582	-0.641237	0.384828
F79	F	0.988350	-0.364850	0.936855
H80	H	0.667032	-0.624635	0.374682
H81	H	0.548326	-0.624586	0.374729
F82	F	0.822844	-0.640968	0.668185
F83	F	0.988354	-0.364778	1.071925
F84	F	0.473495	-0.520439	0.418698
F85	F	0.136511	-0.641176	0.384884
F86	F	0.895363	-0.697246	0.870056
F87	F	0.915842	-0.308505	0.870049
H88	H	0.896429	-0.673754	0.743170
F89	F	0.338179	-0.485787	0.185712
F90	F	0.136448	-0.364844	0.219732
H91	H	0.465080	-0.487922	0.199777
