data_functionalizedCrystal
_audit_creation_method	'MofGen! by Chris Wilmer'
_symmetry_space_group_name_H-M	'P1'
_symmetry_Int_Tables_number	1
_symmetry_cell_setting	triclinic
loop_
_symmetry_equiv_pos_as_xyz
  x,y,z
_cell_length_a	12.759401
_cell_length_b	16.120444
_cell_length_c	12.759393
_cell_angle_alpha	92.863624
_cell_angle_beta	89.981504
_cell_angle_gamma	92.926596
loop_
_atom_site_label
_atom_site_type_symbol
_atom_site_fract_x
_atom_site_fract_y
_atom_site_fract_z
Zn1	Zn	1.584964	-0.331854	-0.615151
Zn2	Zn	2.084964	0.168146	-0.115151
Zn3	Zn	1.575912	-0.471293	-0.448366
Zn4	Zn	2.075912	0.028707	0.051634
Zn5	Zn	1.409263	-0.331898	-0.439493
Zn6	Zn	1.909263	0.168102	0.060507
Zn7	Zn	1.400313	-0.471228	-0.624004
Zn8	Zn	1.900313	0.028772	-0.124004
O9	O	1.492613	-0.401568	-0.531754
O10	O	1.992613	0.098432	-0.031754
O11	O	1.730784	-0.350360	-0.593035
O12	O	2.230784	0.149640	-0.093035
O13	O	1.553764	-0.452847	-0.300171
O14	O	2.053764	0.047153	0.199829
O15	O	1.440104	-0.215227	-0.455376
O16	O	1.940104	0.284773	0.044624
O17	O	1.724134	-0.452804	-0.470499
O18	O	2.224134	0.047196	0.029501
O19	O	1.569191	-0.215194	-0.584432
O20	O	2.069191	0.284806	-0.084432
O21	O	1.431327	-0.350434	-0.293652
O22	O	1.931327	0.149566	0.206348
O23	O	1.261056	-0.350372	-0.463960
O24	O	1.761056	0.149628	0.036040
O25	O	1.424850	-0.452695	-0.769848
O26	O	1.924850	0.047305	-0.269848
O27	O	1.254480	-0.452737	-0.599519
O28	O	1.754480	0.047263	-0.099519
O29	O	1.560512	-0.350298	-0.763344
O30	O	2.060512	0.149702	-0.263344
O31	O	1.545085	-0.587950	-0.479083
O32	O	2.045085	-0.087950	0.020917
O33	O	1.416072	-0.587903	-0.608123
O34	O	1.916072	-0.087903	-0.108123
C35	C	1.219647	-0.401553	-0.531738
C36	C	1.719647	0.098447	-0.031738
C37	C	1.102869	-0.401567	-0.531758
C38	C	1.602869	0.098433	-0.031758
C39	C	1.044605	-0.454954	-0.602238
C40	C	1.544605	0.045046	-0.102238
C41	C	0.934880	-0.454964	-0.602250
C42	C	1.434880	0.045036	-0.102250
C43	C	0.941694	-0.348198	-0.461293
C44	C	1.441694	0.151802	0.038707
C45	C	1.051417	-0.348184	-0.461287
C46	C	1.551417	0.151816	0.038713
C47	C	1.096058	-0.508336	-0.672709
C48	C	1.596058	-0.008336	-0.172709
C49	C	1.037793	-0.561728	-0.743194
C50	C	1.537793	-0.061728	-0.243194
C51	C	0.928069	-0.561739	-0.743206
C52	C	1.428069	-0.061739	-0.243206
C53	C	0.876608	-0.508357	-0.672733
C54	C	1.376608	-0.008357	-0.172733
C55	C	1.478654	-0.618176	-0.545550
C56	C	1.978654	-0.118176	-0.045550
C57	C	1.472778	-0.710842	-0.551487
C58	C	1.972778	-0.210842	-0.051487
C59	C	1.523352	-0.921787	-0.501181
C60	C	2.023352	-0.421787	-0.001181
C61	C	1.462069	-0.880498	-0.562338
C62	C	1.962069	-0.380498	-0.062338
C63	C	1.468029	-0.786093	-0.556298
C64	C	1.968029	-0.286093	-0.056298
C65	C	1.517393	-1.016201	-0.507218
C66	C	2.017393	-0.516201	-0.007218
C67	C	1.766645	-0.401584	-0.531770
C68	C	2.266645	0.098416	-0.031770
C69	C	1.883422	-0.401591	-0.531776
C70	C	2.383422	0.098409	-0.031776
C71	C	1.492692	-0.401484	-0.805782
C72	C	1.992692	0.098516	-0.305782
C73	C	1.492726	-0.401448	-0.922556
C74	C	1.992726	0.098552	-0.422556
C75	C	1.506656	-0.184115	-0.517927
C76	C	2.006656	0.315885	-0.017927
C77	C	1.512640	-0.091449	-0.512035
C78	C	2.012640	0.408551	-0.012035
C79	C	1.563375	-0.348125	-0.974033
C80	C	2.063375	0.151875	-0.474033
C81	C	1.563402	-0.348095	-1.083755
C82	C	2.063402	0.151905	-0.583755
C83	C	1.422127	-0.454719	-1.090515
C84	C	1.922127	0.045281	-0.590515
C85	C	1.422096	-0.454744	-0.980794
C86	C	1.922096	0.045256	-0.480794
C87	C	1.634005	-0.294829	-0.915795
C88	C	2.134005	0.205171	-0.415795
C89	C	1.704660	-0.241502	-0.967272
C90	C	2.204660	0.258498	-0.467272
C91	C	1.704687	-0.241472	-1.076994
C92	C	2.204687	0.258528	-0.576994
C93	C	1.634058	-0.294769	-1.135240
C94	C	2.134058	0.205231	-0.635240
C95	C	1.492599	-0.401592	-0.258788
C96	C	1.992599	0.098408	0.241212
C97	C	1.492784	-0.401393	-0.141999
C98	C	1.992784	0.098607	0.358001
H99	H	1.079700	-0.605184	-0.800576
H100	H	1.579700	-0.105184	-0.300576
H101	H	1.580289	-0.886239	-0.444290
H102	H	2.080289	-0.386239	0.055710
H103	H	0.880633	-0.605207	-0.800605
H104	H	1.380633	-0.105207	-0.300605
H105	H	1.633993	-0.294850	-0.826454
H106	H	2.133993	0.205150	-0.326454
H107	H	0.899786	-0.304738	-0.403917
H108	H	1.399786	0.195262	0.096083
H109	H	1.762157	-0.198104	-0.919841
H110	H	2.262157	0.301896	-0.419841
Cl111	Cl	1.333348	-0.521719	-1.163738
Cl112	Cl	1.833348	-0.021719	-0.663738
H113	H	1.762211	-0.198044	-1.118903
H114	H	2.262211	0.301956	-0.618903
H115	H	0.787263	-0.508363	-0.672757
H116	H	1.287263	-0.008363	-0.172757
Cl117	Cl	1.634081	-0.294717	-1.273177
Cl118	Cl	2.134081	0.205283	-0.773177
H119	H	1.405127	-0.916050	-0.619231
H120	H	1.905127	-0.416050	-0.119231
Cl121	Cl	1.233997	-0.508329	-0.672695
Cl122	Cl	1.733997	-0.008329	-0.172695
Cl123	Cl	1.124668	-0.281068	-0.372682
Cl124	Cl	1.624668	0.218932	0.127318
Cl125	Cl	1.333277	-0.521780	-0.916075
Cl126	Cl	1.833277	-0.021780	-0.416075
