data_functionalizedCrystal
_audit_creation_method	'MofGen! by Chris Wilmer'
_symmetry_space_group_name_H-M	'P1'
_symmetry_Int_Tables_number	1
_symmetry_cell_setting	triclinic
loop_
_symmetry_equiv_pos_as_xyz
  x,y,z
_cell_length_a	10.489716
_cell_length_b	14.044220
_cell_length_c	13.101039
_cell_angle_alpha	93.667477
_cell_angle_beta	86.608673
_cell_angle_gamma	88.859007
loop_
_atom_site_label
_atom_site_type_symbol
_atom_site_fract_x
_atom_site_fract_y
_atom_site_fract_z
O1	O	1.714061	0.128536	-0.085209
O2	O	1.344138	0.141123	-0.085214
O3	O	1.523546	-0.003192	-0.085201
O4	O	1.534653	0.272851	-0.085222
O5	O	1.510676	0.007180	0.085228
O6	O	1.331268	0.151494	0.085215
O7	O	1.701191	0.138908	0.085220
Zn8	Zn	1.514186	0.146848	0.112277
Zn9	Zn	1.531143	0.133183	-0.112271
O10	O	1.521783	0.283223	0.085207
C11	C	1.512250	-0.033354	0.000013
C12	C	1.497750	-0.138677	0.000015
C13	C	1.290075	0.145363	0.000001
C14	C	1.148157	0.142533	-0.000001
C15	C	1.471243	-0.331519	-0.000000
C16	C	1.574081	-0.388457	-0.000002
C17	C	1.559332	-0.495761	-0.000011
C18	C	1.485990	-0.224205	0.000008
C19	C	1.059460	0.231032	-0.000010
C20	C	0.971025	0.189381	0.084029
C21	C	0.983718	0.179135	-0.084001
C22	C	1.061586	0.100924	0.084107
C23	C	1.074292	0.090686	-0.083998
C24	C	0.985897	0.048972	0.000061
C25	C	1.755254	0.134668	0.000003
C26	C	1.897172	0.137497	-0.000002
C27	C	1.533079	0.313384	-0.000010
C28	C	1.547579	0.418707	-0.000017
N29	N	1.502622	0.156173	0.265525
N30	N	1.542716	0.123850	-0.265518
C31	C	1.486890	0.168870	0.474566
C32	C	1.558444	0.111156	0.525447
C33	C	1.549691	0.118221	0.641764
C34	C	1.495642	0.161807	0.358238
H35	H	1.673206	-0.356620	-0.000070
H36	H	1.419063	0.223583	0.518359
H37	H	0.925966	0.231064	0.155070
H38	H	1.091932	0.308017	0.000063
O39	O	1.353089	-0.369650	0.000048
C40	C	1.364484	-0.469853	0.000017
H41	H	1.459072	-0.490332	0.032274
H42	H	1.361391	-0.502417	-0.081747
C43	C	1.137162	-0.482503	0.027242
C44	C	1.253332	-0.507656	0.066868
H45	H	1.068596	-0.505824	0.068474
H46	H	1.129483	-0.414995	0.027258
H47	H	1.134603	-0.509642	-0.040894
H48	H	1.255897	-0.480507	0.134998
H49	H	1.261009	-0.575161	0.066865
H50	H	1.626278	0.056441	0.481649
H51	H	0.953649	-0.028062	0.000115
O52	O	1.102489	0.061458	0.168851
C53	C	1.184448	-0.017449	0.138868
H54	H	1.226922	-0.009757	0.057772
H55	H	1.128038	-0.085923	0.140896
C56	C	1.240631	-0.030985	0.312528
C57	C	1.292808	-0.021533	0.212927
H58	H	1.307470	-0.033508	0.358213
H59	H	1.185410	0.022174	0.332729
H60	H	1.193624	-0.088046	0.314204
H61	H	1.339799	0.035533	0.211250
H62	H	1.348039	-0.074682	0.192727
O63	O	1.128034	0.041132	-0.168855
C64	C	1.088506	0.082665	-0.257283
H65	H	1.058313	0.160344	-0.237152
H66	H	1.004324	0.042017	-0.287940
C67	C	1.236914	-0.017395	-0.364381
C68	C	1.199841	0.078014	-0.339658
H69	H	1.305588	-0.020268	-0.415196
H70	H	1.263542	-0.045380	-0.304806
H71	H	1.166752	-0.051258	-0.389923
H72	H	1.269998	0.111872	-0.314105
H73	H	1.173227	0.106004	-0.399230
O74	O	0.942928	0.218690	-0.168732
C75	C	0.980169	0.314614	-0.168407
H76	H	1.065488	0.325113	-0.119205
H77	H	0.897332	0.363191	-0.135626
C78	C	0.912709	0.326697	-0.339230
C79	C	1.017505	0.339591	-0.278806
H80	H	0.935734	0.342107	-0.407329
H81	H	0.887614	0.262073	-0.339448
H82	H	0.843687	0.367180	-0.311900
H83	H	1.086519	0.299101	-0.306129
H84	H	1.042613	0.404209	-0.278595
