data_functionalizedCrystal
_audit_creation_method	'MofGen! by Chris Wilmer'
_symmetry_space_group_name_H-M	'P1'
_symmetry_Int_Tables_number	1
_symmetry_cell_setting	triclinic
loop_
_symmetry_equiv_pos_as_xyz
  x,y,z
_cell_length_a	12.759401
_cell_length_b	18.050582
_cell_length_c	12.759399
_cell_angle_alpha	89.980436
_cell_angle_beta	90.016641
_cell_angle_gamma	89.986894
loop_
_atom_site_label
_atom_site_type_symbol
_atom_site_fract_x
_atom_site_fract_y
_atom_site_fract_z
Zn1	Zn	1.606182	-0.419892	-0.418290
Zn2	Zn	1.606096	-0.295709	-0.593971
Zn3	Zn	1.430505	-0.295720	-0.418311
Zn4	Zn	1.430471	-0.419861	-0.593932
O5	O	1.518314	-0.357795	-0.506126
O6	O	1.753192	-0.403427	-0.441602
O7	O	1.582781	-0.191786	-0.570694
O8	O	1.453859	-0.312210	-0.271288
O9	O	1.753128	-0.312190	-0.570674
O10	O	1.582928	-0.403438	-0.271272
O11	O	1.453775	-0.191794	-0.441638
O12	O	1.283479	-0.312180	-0.441601
O13	O	1.453802	-0.523790	-0.570608
O14	O	1.283455	-0.403385	-0.570629
O15	O	1.582896	-0.523813	-0.441565
O16	O	1.582749	-0.312160	-0.740987
O17	O	1.453718	-0.403374	-0.740959
C18	C	1.245346	-0.357781	-0.506114
C19	C	1.128570	-0.357792	-0.506133
C20	C	1.518355	-0.551501	-0.506080
C21	C	1.518372	-0.634047	-0.506060
C22	C	1.073722	-0.405208	-0.573420
C23	C	0.963998	-0.405223	-0.573424
C24	C	0.963978	-0.310399	-0.438851
C25	C	1.073700	-0.310389	-0.438843
C26	C	0.814085	-0.492776	-0.611147
C27	C	0.759234	-0.540185	-0.678451
C28	C	0.794829	-0.551458	-0.780985
C29	C	0.885273	-0.515310	-0.816236
C30	C	0.940118	-0.467895	-0.748938
C31	C	0.904525	-0.456637	-0.646390
C32	C	1.223616	-0.222835	-0.401131
C33	C	1.278463	-0.175415	-0.333837
C34	C	1.242870	-0.164135	-0.231301
C35	C	1.152423	-0.200270	-0.196054
C36	C	1.097575	-0.247689	-0.263347
C37	C	1.133176	-0.258971	-0.365882
C38	C	1.448225	-0.833485	-0.576138
C39	C	1.544083	-0.882875	-0.601817
C40	C	1.518424	-0.785177	-0.505980
C41	C	1.422618	-0.882869	-0.480272
C42	C	1.518466	-0.931163	-0.505904
C43	C	1.614333	-0.833480	-0.531709
C44	C	1.492803	-0.833470	-0.410119
C45	C	1.588728	-0.882837	-0.435762
C46	C	1.518399	-0.701079	-0.506026
C47	C	1.518502	-1.015259	-0.505858
C48	C	1.792347	-0.357811	-0.506140
C49	C	1.909123	-0.357817	-0.506146
C50	C	1.518249	-0.357779	-0.779094
C51	C	1.518318	-0.357796	-0.895870
C52	C	1.518333	-0.164843	-0.506097
C53	C	1.518519	-0.082298	-0.505821
C54	C	1.585581	-0.310355	-0.950712
C55	C	1.585648	-0.310380	-1.060436
C56	C	1.451181	-0.405289	-1.060467
C57	C	1.451119	-0.405268	-0.950745
C58	C	1.709662	-0.283952	-1.210304
C59	C	1.776915	-0.236499	-1.265150
C60	C	1.793092	-0.164038	-1.229589
C61	C	1.742000	-0.139014	-1.139184
C62	C	1.674738	-0.186463	-1.084344
C63	C	1.658582	-0.258935	-1.119904
C64	C	1.327104	-0.431688	-0.800875
C65	C	1.259837	-0.479134	-0.746033
C66	C	1.243649	-0.551596	-0.781592
C67	C	1.294723	-0.576617	-0.872000
C68	C	1.361991	-0.529171	-0.926842
C69	C	1.378180	-0.456709	-0.891275
C70	C	1.518407	-0.357829	-0.232093
C71	C	1.518447	-0.357843	-0.115316
H72	H	1.118394	-0.443809	-0.628210
H73	H	1.352110	-0.145992	-0.362545
H74	H	1.023933	-0.277117	-0.234637
O75	O	1.386047	-0.451432	-1.113891
C76	C	1.445853	-0.499459	-1.177249
H77	H	1.525507	-0.473320	-1.193641
H78	H	1.457322	-0.554495	-1.134908
C79	C	1.290261	-0.544992	-1.261378
C80	C	1.388089	-0.512884	-1.281519
H81	H	1.254628	-0.553276	-1.325695
H82	H	1.249967	-0.512637	-1.218690
H83	H	1.299832	-0.590851	-1.226092
H84	H	1.378517	-0.467021	-1.316793
H85	H	1.428380	-0.545231	-1.324216
O86	O	1.278925	-0.647040	-0.906378
C87	C	1.208584	-0.683547	-0.838602
H88	H	1.209765	-0.655484	-0.758584
H89	H	1.126061	-0.680703	-0.872645
C90	C	1.240178	-0.799641	-0.924949
C91	C	1.241635	-0.765177	-0.826667
H92	H	1.260562	-0.849995	-0.917590
H93	H	1.287565	-0.775046	-0.970614
H94	H	1.171407	-0.797264	-0.953308
H95	H	1.310408	-0.767546	-0.798316
H96	H	1.194261	-0.789774	-0.780996
H97	H	1.013755	-0.438464	-0.777640
O98	O	1.694067	-0.354393	-1.244700
C99	C	1.725563	-0.404848	-1.166405
H100	H	1.784413	-0.376930	-1.112011
H101	H	1.654218	-0.423175	-1.119299
C102	C	1.704564	-0.507205	-1.284794
C103	C	1.776852	-0.472918	-1.217993
H104	H	1.736198	-0.549195	-1.316615
H105	H	1.683341	-0.473213	-1.337543
H106	H	1.645115	-0.522471	-1.245529
H107	H	1.836293	-0.457644	-1.257260
H108	H	1.798086	-0.506909	-1.165252
H109	H	0.785102	-0.483610	-0.527653
O110	O	1.118010	-0.189259	-0.096403
C111	C	1.185799	-0.139645	-0.044575
H112	H	1.265833	-0.140438	-0.084248
H113	H	1.151798	-0.081295	-0.048424
C114	C	1.099366	-0.162226	0.119558
C115	C	1.197669	-0.163204	0.070837
H116	H	1.106685	-0.176755	0.190751
H117	H	1.053692	-0.195650	0.084640
H118	H	1.071043	-0.113599	0.116340
H119	H	1.225984	-0.211832	0.074044
H120	H	1.243348	-0.129789	0.105758
O121	O	1.650710	-0.264169	-0.897358
C122	C	1.590906	-0.216163	-0.833965
H123	H	1.508182	-0.211530	-0.867105
H124	H	1.587219	-0.239106	-0.750791
C125	C	1.743910	-0.144684	-0.791602
C126	C	1.642310	-0.138988	-0.832310
H127	H	1.775619	-0.097079	-0.790576
H128	H	1.784202	-0.177027	-0.834308
H129	H	1.740824	-0.163805	-0.722294
H130	H	1.645399	-0.119875	-0.901620
H131	H	1.602019	-0.106639	-0.789615
O132	O	1.342809	-0.361248	-0.766513
C133	C	1.311285	-0.310791	-0.844794
H134	H	1.313383	-0.339307	-0.924472
H135	H	1.228176	-0.290945	-0.827827
C136	C	1.383706	-0.208942	-0.747733
C137	C	1.386291	-0.243963	-0.845596
H138	H	1.429970	-0.167717	-0.748226
H139	H	1.404942	-0.242934	-0.694991
H140	H	1.314445	-0.192410	-0.733605
H141	H	1.455548	-0.260502	-0.859717
H142	H	1.365069	-0.209971	-0.898341
H143	H	1.403582	-0.549550	-1.000454
O144	O	1.570138	-0.908813	-0.698419
C145	C	1.662147	-0.951782	-0.691138
H146	H	1.707941	-0.934918	-0.618223
H147	H	1.640378	-1.012911	-0.685627
C148	C	1.673954	-0.959638	-0.878677
C149	C	1.730203	-0.938921	-0.789127
H150	H	1.715933	-0.951708	-0.939123
H151	H	1.611964	-0.930691	-0.883583
H152	H	1.655817	-1.010578	-0.874071
H153	H	1.748328	-0.887981	-0.793729
H154	H	1.792199	-0.967859	-0.784224
O155	O	1.178180	-0.597597	-0.728316
C156	C	1.076747	-0.566644	-0.725798
H157	H	1.082170	-0.504138	-0.737390
H158	H	1.027279	-0.591802	-0.791136
C159	C	1.018785	-0.660053	-0.604893
C160	C	1.025446	-0.583281	-0.619120
H161	H	0.987137	-0.670318	-0.539091
H162	H	1.087121	-0.680909	-0.606591
H163	H	0.977564	-0.681008	-0.659347
H164	H	1.066677	-0.562328	-0.564674
H165	H	0.957116	-0.562422	-0.617410
O166	O	0.919726	-0.526363	-0.915862
C167	C	0.851910	-0.575949	-0.967710
H168	H	0.808647	-0.611061	-0.907353
H169	H	0.792745	-0.543333	-1.016272
C170	C	0.969330	-0.583616	-1.114410
C171	C	0.916200	-0.626746	-1.040279
H172	H	1.008985	-0.614949	-1.159178
H173	H	1.015017	-0.550207	-1.079482
H174	H	0.920016	-0.556439	-1.154868
H175	H	0.965514	-0.653915	-0.999815
H176	H	0.870522	-0.660161	-1.075203
O177	O	0.741619	-0.597621	-0.846265
C178	C	0.738994	-0.669379	-0.802659
H179	H	0.806864	-0.676154	-0.745325
H180	H	0.661668	-0.677785	-0.759526
C181	C	0.665544	-0.718935	-0.961164
C182	C	0.748908	-0.727258	-0.890751
H183	H	0.671654	-0.754638	-1.015502
H184	H	0.667308	-0.670590	-0.990541
H185	H	0.601114	-0.725938	-0.925207
H186	H	0.813335	-0.720245	-0.926705
H187	H	0.747155	-0.775603	-0.861381
O188	O	1.296295	-0.118067	-0.166055
C189	C	1.383737	-0.088566	-0.219158
H190	H	1.406207	-0.126799	-0.286607
H191	H	1.363267	-0.031440	-0.251344
C192	C	1.448954	-0.034906	-0.059733
C193	C	1.476557	-0.081867	-0.142570
H194	H	1.506209	-0.030770	-0.012491
H195	H	1.390041	-0.054779	-0.023957
H196	H	1.431895	0.012695	-0.086568
H197	H	1.493602	-0.129469	-0.115736
H198	H	1.535475	-0.062002	-0.178340
O199	O	1.710974	-0.807679	-0.557906
C200	C	1.703539	-0.764207	-0.649435
H201	H	1.630326	-0.780624	-0.695079
H202	H	1.698481	-0.703179	-0.627010
C203	C	1.891069	-0.756816	-0.661991
C204	C	1.801152	-0.776985	-0.718056
H205	H	1.951283	-0.764695	-0.704319
H206	H	1.896079	-0.786102	-0.600324
H207	H	1.886840	-0.705961	-0.643307
H208	H	1.805376	-0.827840	-0.736728
H209	H	1.796145	-0.747707	-0.779728
H210	H	1.648179	-0.904370	-0.376399
O211	O	1.466706	-0.807586	-0.313507
C212	C	1.365578	-0.832720	-0.286733
H213	H	1.320231	-0.846595	-0.361174
H214	H	1.372240	-0.884379	-0.235733
C215	C	1.363064	-0.754608	-0.134392
C216	C	1.307365	-0.771644	-0.225822
H217	H	1.327156	-0.716936	-0.096816
H218	H	1.431198	-0.737677	-0.152428
H219	H	1.368612	-0.797663	-0.091905
H220	H	1.301830	-0.728592	-0.268313
H221	H	1.239229	-0.788567	-0.207793
O222	O	1.325994	-0.908876	-0.454418
C223	C	1.327608	-0.986977	-0.453781
H224	H	1.394509	-1.007546	-0.505335
H225	H	1.339609	-1.007597	-0.370170
C226	C	1.140615	-0.991388	-0.433069
C227	C	1.222780	-1.016651	-0.496396
H228	H	1.075952	-1.009693	-0.459351
H229	H	1.139528	-0.938770	-0.433494
H230	H	1.150631	-1.008573	-0.363398
H231	H	1.212770	-0.999458	-0.566062
H232	H	1.223863	-1.069267	-0.495983
H233	H	1.633142	-0.166091	-1.010737
O234	O	1.757859	-0.068609	-1.104765
C235	C	1.828159	-0.032089	-1.172568
H236	H	1.877707	-0.074844	-1.215782
H237	H	1.782158	0.002296	-1.231776
C238	C	1.839304	0.071622	-1.055204
C239	C	1.900166	0.019110	-1.108273
H240	H	1.883719	0.103207	-1.015546
H241	H	1.791938	0.047020	-1.009525
H242	H	1.800974	0.100269	-1.104553
H243	H	1.938485	-0.009542	-1.058923
H244	H	1.947540	0.043709	-1.153942
H245	H	0.685595	-0.569618	-0.649739
H246	H	0.919291	-0.271804	-0.384067
H247	H	1.252611	-0.232022	-0.484621
H248	H	1.388915	-0.811816	-0.635546
H249	H	1.847853	-0.125401	-1.274251
H250	H	1.818515	-0.256880	-1.338757
H251	H	1.218256	-0.458757	-0.672413
