data_functionalizedCrystal
_audit_creation_method	'MofGen! by Chris Wilmer'
_symmetry_space_group_name_H-M	'P1'
_symmetry_Int_Tables_number	1
_symmetry_cell_setting	triclinic
loop_
_symmetry_equiv_pos_as_xyz
  x,y,z
_cell_length_a	16.974800
_cell_length_b	16.992695
_cell_length_c	15.186229
_cell_angle_alpha	89.995943
_cell_angle_beta	93.653458
_cell_angle_gamma	87.021674
loop_
_atom_site_label
_atom_site_type_symbol
_atom_site_fract_x
_atom_site_fract_y
_atom_site_fract_z
O1	O	1.055459	0.099873	0.002016
O2	O	0.826057	0.112614	-0.014340
O3	O	0.939839	-0.007898	-0.006220
O4	O	0.941678	0.220385	-0.006103
O5	O	0.939831	-0.007900	0.140236
O6	O	0.826049	0.112612	0.132117
O7	O	1.055451	0.099872	0.148473
Zn8	Zn	0.940749	0.106241	0.163548
Zn9	Zn	0.940760	0.106244	-0.029415
O10	O	0.941670	0.220383	0.140353
C11	C	0.796564	0.112130	0.056786
C12	C	0.708696	0.110683	0.050521
C13	C	0.667415	0.110000	0.127413
C14	C	0.584855	0.108627	0.121529
C15	C	0.543575	0.107943	0.038752
C16	C	0.584862	0.108624	-0.038146
C17	C	0.667422	0.109991	-0.032261
C18	C	0.296659	0.103850	0.012591
C19	C	0.214093	0.102485	0.006712
C20	C	0.214092	0.102487	0.166388
C21	C	0.296653	0.103859	0.172266
C22	C	0.337932	0.104535	0.095368
N23	N	0.459185	0.106543	0.032736
N24	N	0.422322	0.105930	0.101385
C25	C	0.937469	-0.037109	0.066839
C26	C	0.930409	-0.124145	0.066335
C27	C	0.998524	-0.174463	0.071193
C28	C	0.991887	-0.256242	0.070711
C29	C	0.917132	-0.287702	0.065378
C30	C	0.849012	-0.237378	0.060518
C31	C	0.855650	-0.155600	0.060993
C32	C	0.889618	-0.531268	0.063405
C33	C	0.882984	-0.613052	0.062932
C34	C	1.025860	-0.631911	0.073124
C35	C	1.032492	-0.550131	0.073604
C36	C	0.964371	-0.499814	0.068739
N37	N	0.910346	-0.371293	0.064889
N38	N	0.971159	-0.416224	0.069223
C39	C	1.084944	0.100355	0.077345
C40	C	1.172813	0.101802	0.083604
C41	C	0.944040	0.249594	0.067292
C42	C	0.951100	0.336630	0.067790
N43	N	0.940747	0.106239	0.295241
N44	N	0.940767	0.106239	-0.161107
C45	C	0.991149	0.052895	0.524560
C46	C	0.991151	0.052893	0.616750
C47	C	0.890360	0.159587	0.609566
C48	C	0.890354	0.159584	0.517378
C49	C	0.940753	0.106239	0.474878
C50	C	0.940761	0.106240	0.659256
C51	C	0.940763	0.106238	0.759212
C52	C	0.940750	0.106240	0.374915
H53	H	0.330257	0.104412	0.239671
H54	H	0.701031	0.110548	-0.094875
O55	O	1.091947	-0.680900	0.077797
C56	C	1.070063	-0.759826	0.076256
H57	H	1.007764	-0.762889	0.044089
H58	H	1.071564	-0.783486	0.146625
C59	C	1.204802	-0.806178	0.062477
C60	C	1.128288	-0.809941	0.022962
H61	H	1.240720	-0.837093	0.029606
H62	H	1.219547	-0.753005	0.063519
H63	H	1.206042	-0.825894	0.121117
H64	H	1.127047	-0.790216	-0.035672
H65	H	1.113544	-0.863113	0.021909
O66	O	1.071125	-0.143869	0.076527
C67	C	1.079233	-0.097121	0.152946
H68	H	1.036692	-0.116415	0.202930
H69	H	1.065075	-0.032607	0.134789
C70	C	1.216929	-0.083442	0.132037
C71	C	1.164684	-0.107144	0.193432
H72	H	1.269640	-0.089621	0.157009
H73	H	1.211466	-0.114935	0.080550
H74	H	1.205121	-0.029682	0.116911
H75	H	1.176486	-0.160905	0.208547
H76	H	1.170151	-0.075660	0.244922
O77	O	0.810380	-0.643648	0.057904
C78	C	0.802263	-0.690405	0.133167
H79	H	0.844795	-0.671112	0.189219
H80	H	0.816428	-0.754915	0.117032
C81	C	0.664573	-0.704090	0.092617
C82	C	0.716806	-0.680391	0.161463
H83	H	0.611859	-0.697917	0.110070
H84	H	0.670041	-0.672592	0.041909
H85	H	0.676387	-0.757848	0.079178
H86	H	0.704999	-0.626632	0.174893
H87	H	0.711334	-0.711880	0.212174
H88	H	1.032187	0.009454	0.657199
O89	O	0.174113	0.101859	0.241169
C90	C	0.228252	0.102732	0.315491
H91	H	0.285396	0.128520	0.296156
H92	H	0.241361	0.040006	0.340973
C93	C	0.122308	0.121913	0.412118
C94	C	0.192490	0.153592	0.388373
H95	H	0.100248	0.153282	0.457078
H96	H	0.085832	0.121322	0.362047
H97	H	0.133242	0.069642	0.433348
H98	H	0.181554	0.205858	0.367134
H99	H	0.228964	0.154193	0.438443
O100	O	1.105169	-0.519703	0.078753
C101	C	1.163868	-0.581652	0.082963
H102	H	1.138200	-0.637179	0.053397
H103	H	1.185115	-0.593258	0.154743
C104	C	1.265486	-0.490440	0.066853
C105	C	1.233962	-0.558636	0.030531
H106	H	1.308725	-0.476242	0.034514
H107	H	1.225940	-0.448703	0.064019
H108	H	1.283185	-0.500120	0.126668
H109	H	1.216254	-0.548952	-0.029279
H110	H	1.273506	-0.600371	0.033353
O111	O	0.823368	-0.482510	0.058724
C112	C	0.755967	-0.527817	0.053900
H113	H	0.772183	-0.588877	0.082780
H114	H	0.733296	-0.533609	-0.017978
C115	C	0.671149	-0.412005	0.071244
C116	C	0.691063	-0.486998	0.106722
H117	H	0.631111	-0.386825	0.103823
H118	H	0.716557	-0.381480	0.074491
H119	H	0.652261	-0.416842	0.011347
H120	H	0.709960	-0.482160	0.166614
H121	H	0.645656	-0.517522	0.103486
H122	H	0.788145	-0.262999	0.056170
H123	H	0.849327	0.203020	0.644180
O124	O	0.173917	0.101712	-0.073654
C125	C	0.130844	0.033044	-0.081504
H126	H	0.120028	0.010215	-0.012955
H127	H	0.165931	-0.013958	-0.118395
C128	C	0.064288	0.080405	-0.217034
C129	C	0.050998	0.052370	-0.132841
H130	H	0.015037	0.092325	-0.248705
H131	H	0.093309	0.126667	-0.211748
H132	H	0.093530	0.041232	-0.247766
H133	H	0.021766	0.091547	-0.102107
H134	H	0.021970	0.006115	-0.138123
H135	H	0.800183	-0.114632	0.057038
O136	O	0.841372	0.211483	0.469245
C137	C	0.796880	0.258558	0.526522
H138	H	0.829354	0.259431	0.594548
H139	H	0.736540	0.233134	0.532037
C140	C	0.746040	0.342074	0.406197
C141	C	0.785928	0.343152	0.489746
H142	H	0.739280	0.394255	0.383511
H143	H	0.776012	0.310357	0.367607
H144	H	0.695760	0.320883	0.410804
H145	H	0.836209	0.364333	0.485137
H146	H	0.755963	0.374875	0.528334
O147	O	1.040124	0.000997	0.483412
C148	C	1.084618	-0.046073	0.547038
H149	H	1.052150	-0.046936	0.610442
H150	H	1.144961	-0.020651	0.561133
C151	C	1.135444	-0.129607	0.433975
C152	C	1.095563	-0.130672	0.511847
H153	H	1.142199	-0.181790	0.412268
H154	H	1.105471	-0.097893	0.391109
H155	H	1.185726	-0.108418	0.445732
H156	H	1.045279	-0.151851	0.500087
H157	H	1.125528	-0.162391	0.554711
O158	O	0.336626	0.104541	-0.062192
C159	C	0.282486	0.103626	-0.136511
H160	H	0.221929	0.127467	-0.117421
H161	H	0.278028	0.040609	-0.161367
C162	C	0.385550	0.126262	-0.233352
C163	C	0.311174	0.155551	-0.209907
H164	H	0.403247	0.158288	-0.278628
H165	H	0.422026	0.126875	-0.183283
H166	H	0.381824	0.073748	-0.254060
H167	H	0.314903	0.208059	-0.189189
H168	H	0.274699	0.154947	-0.259975
O169	O	1.058134	-0.305008	0.075481
C170	C	1.125537	-0.259705	0.080276
H171	H	1.109321	-0.198648	0.106847
H172	H	1.148219	-0.253901	0.011633
C173	C	1.210346	-0.375525	0.109710
C174	C	1.190431	-0.300537	0.142352
H175	H	1.250378	-0.400713	0.147998
H176	H	1.164937	-0.406048	0.106477
H177	H	1.229244	-0.370679	0.052508
H178	H	1.171525	-0.305385	0.199548
H179	H	1.235839	-0.270016	0.145597
H180	H	0.551246	0.108061	-0.105545
H181	H	0.701018	0.110563	0.194819
H182	H	0.551248	0.108058	0.184143
