data_functionalizedCrystal
_audit_creation_method	'MofGen! by Chris Wilmer'
_symmetry_space_group_name_H-M	'P1'
_symmetry_Int_Tables_number	1
_symmetry_cell_setting	triclinic
loop_
_symmetry_equiv_pos_as_xyz
  x,y,z
_cell_length_a	18.050590
_cell_length_b	18.050582
_cell_length_c	18.050589
_cell_angle_alpha	90.018205
_cell_angle_beta	89.982614
_cell_angle_gamma	90.000767
loop_
_atom_site_label
_atom_site_type_symbol
_atom_site_fract_x
_atom_site_fract_y
_atom_site_fract_z
Zn1	Zn	1.135292	-0.419624	0.295921
Zn2	Zn	1.135203	-0.295444	0.420105
Zn3	Zn	1.011112	-0.295482	0.295910
Zn4	Zn	1.011060	-0.419626	0.420051
O5	O	1.073167	-0.357544	0.357997
O6	O	1.239205	-0.403134	0.312422
O7	O	1.118727	-0.191524	0.403648
O8	O	1.027644	-0.311965	0.191987
O9	O	1.239140	-0.311899	0.403659
O10	O	1.118879	-0.403172	0.191995
O11	O	1.027557	-0.191553	0.312402
O12	O	0.907180	-0.311967	0.312350
O13	O	1.027555	-0.523550	0.403567
O14	O	0.907142	-0.403175	0.403555
O15	O	1.118828	-0.523549	0.312370
O16	O	1.118676	-0.311901	0.524022
O17	O	1.027468	-0.403138	0.523982
C18	C	0.880215	-0.357576	0.357946
C19	C	0.797669	-0.357607	0.357942
C20	C	0.598219	-0.407088	0.407682
C21	C	0.548826	-0.425358	0.339967
C22	C	0.646538	-0.357571	0.357984
C23	C	0.548850	-0.339300	0.425737
C24	C	0.500553	-0.357537	0.358030
C25	C	0.598233	-0.375876	0.290233
C26	C	0.598261	-0.289787	0.376049
C27	C	0.548890	-0.308031	0.308287
C28	C	0.730637	-0.357592	0.357958
C29	C	0.416457	-0.357516	0.358047
C30	C	1.073196	-0.551250	0.357964
C31	C	1.073208	-0.633796	0.357950
C32	C	1.023612	-0.833247	0.407475
C33	C	1.091367	-0.882621	0.425641
C34	C	1.073245	-0.784926	0.357893
C35	C	1.005527	-0.882634	0.339706
C36	C	1.073274	-0.930911	0.357840
C37	C	1.141036	-0.833213	0.376095
C38	C	1.055150	-0.833221	0.290128
C39	C	1.122952	-0.882573	0.308269
C40	C	1.073227	-0.700828	0.357926
C41	C	1.073300	-1.015008	0.357807
C42	C	1.266872	-0.357512	0.358048
C43	C	1.349418	-0.357499	0.358070
C44	C	1.073077	-0.357532	0.550949
C45	C	1.073107	-0.357551	0.633494
C46	C	1.073180	-0.164592	0.357976
C47	C	1.073312	-0.082047	0.357781
C48	C	1.073277	-0.357573	0.164291
C49	C	1.073324	-0.357585	0.081745
C50	C	1.023557	-0.407148	0.832950
C51	C	1.005459	-0.339386	0.882381
C52	C	1.073180	-0.357561	0.784625
C53	C	1.091314	-0.425331	0.882276
C54	C	1.073249	-0.357576	0.930610
C55	C	1.055046	-0.289763	0.832968
C56	C	1.140933	-0.375754	0.832859
C57	C	1.122861	-0.307945	0.882267
C58	C	1.073138	-0.357553	0.700527
C59	C	1.073290	-0.357576	1.014706
H60	H	0.619992	-0.232494	0.391334
C61	C	0.966787	-0.463718	0.803686
C62	C	0.884178	-0.455265	0.823267
C63	C	0.827407	-0.511830	0.794001
C64	C	0.853246	-0.576846	0.745154
C65	C	0.935860	-0.585301	0.725571
C66	C	0.992630	-0.528737	0.754837
H67	H	0.865046	-0.407133	0.859429
H68	H	0.766251	-0.505570	0.808499
H69	H	0.811221	-0.618719	0.723490
H70	H	0.954991	-0.633433	0.689409
H71	H	1.053786	-0.534997	0.740339
C72	C	0.519546	-0.318435	0.503116
C73	C	0.539020	-0.366869	0.570571
C74	C	0.509719	-0.346011	0.647950
C75	C	0.460944	-0.276720	0.657875
C76	C	0.441468	-0.228282	0.590417
C77	C	0.470769	-0.249140	0.513038
H78	H	0.575129	-0.418167	0.563226
H79	H	0.524137	-0.381869	0.697886
H80	H	0.439254	-0.261280	0.715156
H81	H	0.405359	-0.176985	0.597762
H82	H	0.456350	-0.213282	0.463102
H83	H	1.164855	-0.265968	0.903785
H84	H	1.106625	-0.482637	0.903935
C85	C	0.519488	-0.502777	0.319343
C86	C	0.469574	-0.545381	0.373859
C87	C	0.440241	-0.622802	0.353241
C88	C	0.460821	-0.657619	0.278108
C89	C	0.510737	-0.615014	0.223588
C90	C	0.540070	-0.537594	0.244205
H91	H	0.454337	-0.519608	0.429481
H92	H	0.403290	-0.654340	0.393601
H93	H	0.439106	-0.714930	0.262846
H94	H	0.525974	-0.640788	0.167965
H95	H	0.577021	-0.506056	0.203845
C96	C	1.179734	-0.911666	0.251601
C97	C	1.262314	-0.891975	0.260002
C98	C	1.319099	-0.921076	0.203342
C99	C	1.293303	-0.969868	0.138280
C100	C	1.210718	-0.989562	0.129875
C101	C	1.153934	-0.960461	0.186536
H102	H	1.281413	-0.855854	0.308168
H103	H	1.380233	-0.906497	0.209564
H104	H	1.335338	-0.991410	0.096336
H105	H	1.191619	-1.025683	0.081710
H106	H	1.092799	-0.975040	0.180314
H107	H	1.039807	-0.811505	0.232860
C108	C	1.112066	-0.911944	0.503026
C109	C	1.128293	-0.857226	0.566448
C110	C	1.148984	-0.886546	0.643833
C111	C	1.153448	-0.970585	0.657797
C112	C	1.137220	-1.025308	0.594373
C113	C	1.116529	-0.995988	0.516987
H114	H	1.124989	-0.795011	0.556113
H115	H	1.160997	-0.846036	0.690784
H116	H	1.168765	-0.992289	0.715083
H117	H	1.140524	-1.087523	0.604708
H118	H	1.104516	-1.036498	0.470037
H119	H	1.198184	-0.391160	0.811091
C120	C	0.966963	-0.803979	0.464188
C121	C	0.901963	-0.755192	0.438283
C122	C	0.845319	-0.725922	0.494998
C123	C	0.853676	-0.745439	0.577617
C124	C	0.918680	-0.794227	0.603526
C125	C	0.975323	-0.823497	0.546812
H126	H	0.895774	-0.740743	0.377120
H127	H	0.797200	-0.689806	0.475818
H128	H	0.811746	-0.723771	0.619601
H129	H	0.924869	-0.808677	0.664690
H130	H	1.023443	-0.859614	0.565992
C131	C	0.519796	-0.251447	0.251474
C132	C	0.539468	-0.259964	0.168891
C133	C	0.510368	-0.203388	0.112076
C134	C	0.461595	-0.138294	0.137844
C135	C	0.441920	-0.129775	0.220432
C136	C	0.471021	-0.186352	0.277247
H137	H	0.575575	-0.308152	0.149812
H138	H	0.524932	-0.209695	0.050939
H139	H	0.440053	-0.096413	0.095786
H140	H	0.405814	-0.081587	0.239511
H141	H	0.456456	-0.180045	0.338384
H142	H	0.948246	-0.904342	0.324346
H143	H	0.619881	-0.449011	0.449636
C144	C	1.218441	-0.804017	0.396941
C145	C	1.281564	-0.858839	0.413877
C146	C	1.358966	-0.829642	0.434726
C147	C	1.373245	-0.745623	0.438638
C148	C	1.310120	-0.690796	0.421702
C149	C	1.232718	-0.719993	0.400853
H150	H	1.270996	-0.921039	0.410981
H151	H	1.405696	-0.870229	0.447263
H152	H	1.430543	-0.724010	0.454072
H153	H	1.320688	-0.628596	0.424598
H154	H	1.185988	-0.679406	0.388316
H155	H	1.039669	-0.232441	0.811399
C156	C	0.627407	-0.396821	0.212827
C157	C	0.711421	-0.400737	0.198506
C158	C	0.740597	-0.421680	0.121103
C159	C	0.685757	-0.438708	0.058020
C160	C	0.601738	-0.434793	0.072339
C161	C	0.572562	-0.413850	0.149742
H162	H	0.752021	-0.388131	0.245206
H163	H	0.802794	-0.424578	0.110503
H164	H	0.707355	-0.454211	0.000721
H165	H	0.561138	-0.447398	0.025639
H166	H	0.510365	-0.410951	0.160342
H167	H	0.948195	-0.324012	0.904150
