data_functionalizedCrystal
_audit_creation_method	'MofGen! by Chris Wilmer'
_symmetry_space_group_name_H-M	'P1'
_symmetry_Int_Tables_number	1
_symmetry_cell_setting	triclinic
loop_
_symmetry_equiv_pos_as_xyz
  x,y,z
_cell_length_a	21.295420
_cell_length_b	21.295417
_cell_length_c	12.645323
_cell_angle_alpha	89.966008
_cell_angle_beta	89.977363
_cell_angle_gamma	90.028757
loop_
_atom_site_label
_atom_site_type_symbol
_atom_site_fract_x
_atom_site_fract_y
_atom_site_fract_z
Zn1	Zn	0.962343	-0.250634	-0.599378
Zn2	Zn	1.462343	0.249366	-0.099378
Zn3	Zn	0.962249	-0.355908	-0.422090
Zn4	Zn	1.462249	0.144092	0.077910
Zn5	Zn	0.857070	-0.250654	-0.422122
Zn6	Zn	1.357070	0.249346	0.077878
Zn7	Zn	0.857035	-0.355866	-0.599305
Zn8	Zn	1.357035	0.144134	-0.099305
O9	O	0.909674	-0.303265	-0.510724
O10	O	1.409674	0.196735	-0.010724
O11	O	1.050420	-0.264608	-0.575877
O12	O	1.550420	0.235392	-0.075877
O13	O	0.948272	-0.341972	-0.273747
O14	O	1.448272	0.158028	0.226253
O15	O	0.871088	-0.162562	-0.445680
O16	O	1.371088	0.337438	0.054320
O17	O	1.050351	-0.341953	-0.445624
O18	O	1.550351	0.158047	0.054376
O19	O	0.948432	-0.162547	-0.575909
O20	O	1.448432	0.337453	-0.075909
O21	O	0.870997	-0.264642	-0.273771
O22	O	1.370997	0.235358	0.226229
O23	O	0.768976	-0.264601	-0.445609
O24	O	1.268976	0.235399	0.054391
O25	O	0.871029	-0.341880	-0.747662
O26	O	1.371029	0.158120	-0.247662
O27	O	0.768950	-0.341900	-0.575785
O28	O	1.268950	0.158100	-0.075785
O29	O	0.948398	-0.264567	-0.747716
O30	O	1.448398	0.235433	-0.247716
O31	O	0.948238	-0.443992	-0.445554
O32	O	1.448238	0.056008	0.054446
O33	O	0.870938	-0.443961	-0.575753
O34	O	1.370938	0.056039	-0.075753
C35	C	0.746122	-0.303248	-0.510693
C36	C	1.246122	0.196752	-0.010693
C37	C	0.676154	-0.303256	-0.510706
C38	C	1.176154	0.196744	-0.010706
C39	C	0.176700	-0.343589	-0.578440
C40	C	0.676700	0.156411	-0.078440
C41	C	0.242442	-0.343589	-0.578429
C42	C	0.742442	0.156411	-0.078429
C43	C	0.275315	-0.303280	-0.510757
C44	C	0.775315	0.196720	-0.010757
C45	C	0.242440	-0.262978	-0.443072
C46	C	0.742440	0.237022	0.056928
C47	C	0.176698	-0.262983	-0.443077
C48	C	0.676698	0.237017	0.056923
N49	N	0.378556	-0.248163	-0.502787
N50	N	0.878556	0.251837	-0.002787
N51	N	0.441007	-0.248160	-0.502788
N52	N	0.941007	0.251840	-0.002788
C53	C	0.473390	-0.303262	-0.510735
C54	C	0.973390	0.196738	-0.010735
N55	N	0.440961	-0.358369	-0.518701
N56	N	0.940961	0.141631	-0.018701
N57	N	0.378504	-0.358371	-0.518706
N58	N	0.878504	0.141629	-0.018706
C59	C	0.346600	-0.303269	-0.510743
C60	C	0.846600	0.196731	-0.010743
C61	C	0.577542	-0.343564	-0.578398
C62	C	1.077542	0.156436	-0.078398
C63	C	0.643286	-0.343565	-0.578380
C64	C	1.143286	0.156435	-0.078380
C65	C	0.643282	-0.262949	-0.443028
C66	C	1.143282	0.237051	0.056972
C67	C	0.577540	-0.262953	-0.443041
C68	C	1.077540	0.237047	0.056959
C69	C	0.544674	-0.303260	-0.510732
C70	C	1.044674	0.196740	-0.010732
C71	C	0.909592	-0.466817	-0.510665
C72	C	1.409592	0.033183	-0.010665
C73	C	0.909614	-0.536785	-0.510675
C74	C	1.409614	-0.036785	-0.010675
C75	C	0.949900	-0.569647	-0.442950
C76	C	1.449900	-0.069647	0.057050
C77	C	0.949929	-0.635389	-0.442974
C78	C	1.449929	-0.135389	0.057026
C79	C	0.909662	-0.668267	-0.510712
C80	C	1.409662	-0.168267	-0.010712
C81	C	0.869373	-0.635398	-0.578451
C82	C	1.369373	-0.135398	-0.078451
C83	C	0.869349	-0.569656	-0.578432
C84	C	1.369349	-0.069656	-0.078432
N85	N	0.854594	-0.771531	-0.518783
N86	N	1.354594	-0.271531	-0.018783
N87	N	0.854619	-0.833983	-0.518795
N88	N	1.354619	-0.333983	-0.018795
C89	C	0.909732	-0.866342	-0.510773
C90	C	1.409732	-0.366342	-0.010773
N91	N	0.964821	-0.833891	-0.502719
N92	N	1.464821	-0.333891	-0.002719
N93	N	0.964796	-0.771434	-0.502702
N94	N	1.464796	-0.271434	-0.002702
C95	C	0.909683	-0.739553	-0.510740
C96	C	1.409683	-0.239553	-0.010740
C97	C	0.950053	-0.970490	-0.443070
C98	C	1.450053	-0.470490	0.056930
C99	C	0.950084	-1.036233	-0.443101
C100	C	1.450084	-0.536233	0.056899
C101	C	0.869522	-1.036240	-0.578572
C102	C	1.369522	-0.536240	-0.078572
C103	C	0.869497	-0.970498	-0.578546
C104	C	1.369497	-0.470498	-0.078546
C105	C	0.909762	-0.937626	-0.510789
C106	C	1.409762	-0.437626	-0.010789
C107	C	1.073864	-0.303283	-0.510755
C108	C	1.573864	0.196717	-0.010755
C109	C	1.143832	-0.303290	-0.510768
C110	C	1.643832	0.196710	-0.010768
C111	C	0.909720	-0.303217	-0.787229
C112	C	1.409720	0.196783	-0.287229
C113	C	0.909740	-0.303196	-0.905059
C114	C	1.409740	0.196804	-0.405059
C115	C	0.909774	-0.139075	-0.510806
C116	C	1.409774	0.360925	-0.010806
C117	C	0.909817	-0.069107	-0.510841
C118	C	1.409817	0.430893	-0.010841
C119	C	0.860917	-0.351605	-1.072590
C120	C	1.360917	0.148395	-0.572590
C121	C	0.861045	-0.351844	-0.950030
C122	C	1.361045	0.148156	-0.450030
C123	C	0.976064	-0.321201	-0.949574
C124	C	1.476064	0.178799	-0.449574
C125	C	0.975796	-0.321505	-1.072173
C126	C	1.475796	0.178495	-0.572173
C127	C	0.892866	-0.236511	-1.072275
C128	C	1.392866	0.263489	-0.572275
C129	C	0.891387	-0.236911	-0.949669
C130	C	1.391387	0.263089	-0.449669
C131	C	0.909664	-0.303268	-0.235294
C132	C	1.409664	0.196732	0.264706
C133	C	0.909766	-0.303112	-0.117465
C134	C	1.409766	0.196888	0.382535
H135	H	0.670046	-0.376386	-0.633484
H136	H	1.170046	0.123614	-0.133484
N137	N	0.875092	-0.413783	-0.913294
N138	N	1.375092	0.086217	-0.413294
N139	N	0.925966	-0.439148	-0.937854
N140	N	1.425966	0.060852	-0.437854
H141	H	0.935897	-0.482897	-0.911929
H142	H	1.435897	0.017103	-0.411929
N143	N	0.543952	-0.221790	-0.373926
N144	N	1.043952	0.278210	0.126074
N145	N	0.507237	-0.243892	-0.306314
N146	N	1.007237	0.256108	0.193686
H147	H	0.483514	-0.214821	-0.257497
H148	H	0.983514	0.285179	0.242503
H149	H	0.811590	-0.340445	-1.102067
H150	H	1.311590	0.159555	-0.602067
H151	H	0.269209	-0.230159	-0.387971
H152	H	0.769209	0.269841	0.112029
N153	N	0.143116	-0.384759	-0.647567
N154	N	0.643116	0.115241	-0.147567
N155	N	0.106454	-0.362666	-0.715185
N156	N	0.606454	0.137334	-0.215185
H157	H	0.082732	-0.391743	-0.764002
H158	H	0.582732	0.108257	-0.264002
N159	N	1.023011	-0.279140	-1.109442
N160	N	1.523011	0.220860	-0.609442
N161	N	1.031227	-0.271821	-1.206552
N162	N	1.531227	0.228179	-0.706552
H163	H	1.064576	-0.241905	-1.232872
H164	H	1.564576	0.258095	-0.732872
H165	H	0.982737	-0.662151	-0.387824
H166	H	1.482737	-0.162151	0.112176
H167	H	0.990123	-0.370191	-1.100770
H168	H	1.490123	0.129809	-0.600770
N169	N	0.991032	-0.536081	-0.373734
N170	N	1.491032	-0.036081	0.126266
N171	N	1.027000	-0.565435	-0.313270
N172	N	1.527000	-0.065435	0.186730
H173	H	1.056051	-0.541728	-0.264386
H174	H	1.556051	-0.041728	0.235614
H175	H	0.836588	-0.662171	-0.633605
H176	H	1.336588	-0.162171	-0.133605
N177	N	0.828194	-0.536095	-0.647626
N178	N	1.328194	-0.036095	-0.147626
N179	N	0.792247	-0.565454	-0.708110
N180	N	1.292247	-0.065454	-0.208110
H181	H	0.763180	-0.541751	-0.756979
H182	H	1.263180	-0.041751	-0.256979
N183	N	0.991185	-0.936917	-0.373856
N184	N	1.491185	-0.436917	0.126144
N185	N	1.027157	-0.966270	-0.313395
N186	N	1.527157	-0.466270	0.186605
H187	H	1.056206	-0.942562	-0.264510
H188	H	1.556206	-0.442562	0.235490
N189	N	0.143132	-0.221815	-0.373939
N190	N	0.643132	0.278185	0.126061
N191	N	0.172486	-0.185830	-0.313514
N192	N	0.672486	0.314170	0.186486
H193	H	0.148779	-0.156754	-0.264683
H194	H	0.648779	0.343246	0.235317
H195	H	0.982893	-1.062988	-0.387953
H196	H	1.482893	-0.562988	0.112047
N197	N	0.276015	-0.384762	-0.647560
N198	N	0.776015	0.115238	-0.147560
N199	N	0.246663	-0.420748	-0.707986
N200	N	0.746663	0.079252	-0.207986
H201	H	0.270371	-0.449827	-0.756810
H202	H	0.770371	0.050173	-0.256810
N203	N	0.543965	-0.384748	-0.647514
N204	N	1.043965	0.115252	-0.147514
N205	N	0.507253	-0.424835	-0.610093
N206	N	1.007253	0.075165	-0.110093
H207	H	0.483540	-0.453923	-0.658905
H208	H	0.983540	0.046077	-0.158905
N209	N	0.676843	-0.221765	-0.373900
N210	N	1.176843	0.278235	0.126100
N211	N	0.647485	-0.185782	-0.313488
N212	N	1.147485	0.314218	0.186512
H213	H	0.671189	-0.156696	-0.264661
H214	H	1.171189	0.343304	0.235339
N215	N	0.937487	-0.191175	-1.108682
N216	N	1.437487	0.308825	-0.608682
N217	N	0.932404	-0.134976	-1.081532
N218	N	1.432404	0.365024	-0.581532
H219	H	0.963918	-0.102961	-1.107248
H220	H	1.463918	0.397039	-0.607248
N221	N	0.828397	-1.069826	-0.647766
N222	N	1.328397	-0.569826	-0.147766
N223	N	0.828424	-1.128523	-0.647777
N224	N	1.328424	-0.628523	-0.147777
H225	H	0.799380	-1.152246	-0.696650
H226	H	1.299380	-0.652246	-0.196650
N227	N	0.828340	-0.936936	-0.647732
N228	N	1.328340	-0.436936	-0.147732
N229	N	0.792392	-0.966296	-0.708213
N230	N	1.292392	-0.466296	-0.208213
H231	H	0.763324	-0.942594	-0.757082
H232	H	1.263324	-0.442594	-0.257082
N233	N	0.799347	-0.337722	-0.912259
N234	N	1.299347	0.162278	-0.412259
N235	N	0.770744	-0.376423	-0.855575
N236	N	1.270744	0.123577	-0.355575
H237	H	0.727167	-0.366453	-0.828902
H238	H	1.227167	0.133547	-0.328902
H239	H	0.871964	-0.400670	-1.103396
H240	H	1.371964	0.099330	-0.603396
N241	N	1.022942	-0.278291	-0.913035
N242	N	1.522942	0.221709	-0.413035
N243	N	1.007957	-0.233855	-0.853634
N244	N	1.507957	0.266145	-0.353634
H245	H	1.041063	-0.203548	-0.827827
H246	H	1.541063	0.296452	-0.327827
N247	N	0.994342	-0.381636	-0.911051
N248	N	1.494342	0.118364	-0.411051
N249	N	0.958636	-0.411551	-0.850825
N250	N	1.458636	0.088449	-0.350825
H251	H	0.971542	-0.454234	-0.823617
H252	H	1.471542	0.045766	-0.323617
H253	H	0.845346	-0.220099	-1.103184
H254	H	1.345346	0.279901	-0.603184
H255	H	0.842578	-0.223332	-0.920573
H256	H	1.342578	0.276668	-0.420573
H257	H	0.924368	-0.198870	-0.919057
H258	H	1.424368	0.301130	-0.419057
