data_functionalizedCrystal
_audit_creation_method	'MofGen! by Chris Wilmer'
_symmetry_space_group_name_H-M	'P1'
_symmetry_Int_Tables_number	1
_symmetry_cell_setting	triclinic
loop_
_symmetry_equiv_pos_as_xyz
  x,y,z
_cell_length_a	9.065218
_cell_length_b	9.016244
_cell_length_c	9.065218
_cell_angle_alpha	90.000343
_cell_angle_beta	85.015885
_cell_angle_gamma	90.007443
loop_
_atom_site_label
_atom_site_type_symbol
_atom_site_fract_x
_atom_site_fract_y
_atom_site_fract_z
O1	O	1.960408	0.123337	0.216351
O2	O	1.531123	0.123339	0.234097
O3	O	1.754639	0.123335	0.010582
O4	O	1.736893	0.123341	0.439866
O5	O	1.754606	-0.123346	0.010586
O6	O	1.531090	-0.123342	0.234102
O7	O	1.960375	-0.123343	0.216356
Cu8	Cu	1.745730	-0.145866	0.225229
Cu9	Cu	1.745769	0.145862	0.225224
O10	O	1.736860	-0.123339	0.439871
C11	C	1.476120	-0.000001	0.232394
C12	C	1.312277	-0.000000	0.227294
N13	N	1.745713	-0.351053	0.225233
C14	C	1.625777	-0.586083	0.344394
C15	C	1.626045	-0.414192	0.344844
C16	C	1.900128	-0.413391	0.260920
C17	C	1.899474	-0.585336	0.261764
C18	C	1.712765	-0.585598	0.069998
C19	C	1.709230	-0.413644	0.070988
C20	C	2.015378	0.000000	0.218059
C21	C	2.179221	0.000009	0.223158
C22	C	1.752917	-0.000003	-0.044403
C23	C	1.747817	0.000004	-0.208245
N24	N	1.745797	0.351048	0.225209
C25	C	1.738582	0.000002	0.494855
C26	C	1.743681	0.000004	0.658698
H27	H	1.511333	-0.372048	0.323277
H28	H	1.595631	-0.372902	0.043953
N29	N	1.811559	-0.359714	-0.045679
N30	N	1.913503	-0.273895	-0.016915
H31	H	1.985785	-0.235805	-0.099308
H32	H	1.991649	-0.372488	0.176509
N33	N	1.574405	-0.640011	0.027615
N34	N	1.473018	-0.551236	0.004603
H35	H	1.375293	-0.589659	-0.025318
H36	H	1.510706	-0.627476	0.323150
N37	N	1.937027	-0.359337	0.401397
N38	N	1.849860	-0.274922	0.475462
H39	H	1.875912	-0.236746	0.574678
N40	N	1.652683	-0.362582	0.489310
N41	N	1.671148	-0.453553	0.590114
H42	H	1.689938	-0.417107	0.692158
H43	H	1.800266	-0.626252	-0.018720
H44	H	1.646802	-0.629275	0.458880
H45	H	1.928267	-0.625423	0.375022
H46	H	1.991682	-0.626920	0.178489
