data_functionalizedCrystal
_audit_creation_method	'MofGen! by Chris Wilmer'
_symmetry_space_group_name_H-M	'P1'
_symmetry_Int_Tables_number	1
_symmetry_cell_setting	triclinic
loop_
_symmetry_equiv_pos_as_xyz
  x,y,z
_cell_length_a	19.188925
_cell_length_b	11.026607
_cell_length_c	18.266242
_cell_angle_alpha	90.008283
_cell_angle_beta	89.994078
_cell_angle_gamma	84.135717
loop_
_atom_site_label
_atom_site_type_symbol
_atom_site_fract_x
_atom_site_fract_y
_atom_site_fract_z
O1	O	0.292177	-1.608611	-0.060884
O2	O	0.792177	-1.108611	0.439116
O3	O	0.258907	-1.255482	-0.060884
O4	O	0.758907	-0.755482	0.439116
O5	O	0.175185	-1.442241	-0.060880
O6	O	0.675185	-0.942241	0.439120
O7	O	0.375899	-1.421853	-0.060888
O8	O	0.875899	-0.921853	0.439112
O9	O	0.175176	-1.442208	0.060882
O10	O	0.675176	-0.942208	0.560882
O11	O	0.258898	-1.255450	0.060878
O12	O	0.758898	-0.755450	0.560878
O13	O	0.292168	-1.608578	0.060878
O14	O	0.792168	-1.108578	0.560878
Zn15	Zn	0.275531	-1.432009	0.080210
Zn16	Zn	0.775531	-0.932009	0.580210
Zn17	Zn	0.275543	-1.432052	-0.080216
Zn18	Zn	0.775543	-0.932052	0.419784
O19	O	0.375889	-1.421820	0.060874
O20	O	0.875889	-0.921820	0.560874
C21	C	0.252765	-1.210288	-0.000003
C22	C	0.752765	-0.710288	0.499997
C23	C	0.234468	-1.075672	-0.000004
C24	C	0.734468	-0.575672	0.499996
C25	C	0.149085	-1.441565	0.000001
C26	C	0.649085	-0.941565	0.500001
C27	C	0.071329	-1.439587	-0.000001
C28	C	0.571329	-0.939587	0.499999
C29	C	0.298310	-1.653773	-0.000004
C30	C	0.798310	-1.153773	0.499996
C31	C	0.316607	-1.788389	-0.000009
C32	C	0.816607	-1.288389	0.499991
C33	C	-0.478164	-1.535921	-0.000019
C34	C	0.021836	-1.035921	0.499981
C35	C	-0.405103	-1.537791	-0.000013
C36	C	0.094897	-1.037791	0.499987
C37	C	-0.374134	-1.428207	-0.000013
C38	C	0.125866	-0.928207	0.499987
C39	C	-0.416233	-1.316745	-0.000001
C40	C	0.083767	-0.816745	0.499999
C41	C	-0.489293	-1.314879	-0.000001
C42	C	0.010707	-0.814879	0.499999
N43	N	-0.263561	-1.348884	-0.041458
N44	N	0.236439	-0.848884	0.458542
N45	N	-0.194157	-1.350665	-0.041460
N46	N	0.305843	-0.850665	0.458540
C47	C	-0.154009	-1.433824	-0.000014
C48	C	0.345991	-0.933824	0.499986
N49	N	-0.185887	-1.515154	0.041426
N50	N	0.314113	-1.015154	0.541426
N51	N	-0.255297	-1.513377	0.041425
N52	N	0.244703	-1.013377	0.541425
C53	C	-0.294914	-1.430219	-0.000013
C54	C	0.205086	-0.930219	0.499987
C55	C	-0.032698	-1.547306	-0.000013
C56	C	0.467302	-1.047306	0.499987
C57	C	0.040365	-1.549171	-0.000002
C58	C	0.540365	-1.049171	0.499998
C59	C	0.029233	-1.328123	0.000002
C60	C	0.529233	-0.828123	0.500002
C61	C	-0.043828	-1.326261	-0.000002
C62	C	0.456172	-0.826261	0.499998
C63	C	-0.074789	-1.435856	-0.000013
C64	C	0.425211	-0.935856	0.499987
C65	C	0.401989	-1.422495	-0.000008
C66	C	0.901989	-0.922495	0.499992
C67	C	0.479746	-1.424474	-0.000012
C68	C	0.979746	-0.924474	0.499988
N69	N	0.275523	-1.431988	0.189697
N70	N	0.775523	-0.931988	0.689697
C71	C	0.284988	-1.001596	-0.000006
C72	C	0.784988	-0.501596	0.499994
C73	C	0.266079	-0.862463	-0.000006
C74	C	0.766079	-0.362463	0.499994
C75	C	0.238478	-1.514711	0.228008
C76	C	0.738478	-1.014711	0.728008
C77	C	0.238476	-1.514718	0.304653
C78	C	0.738476	-1.014718	0.804653
C79	C	0.275532	-1.432014	0.342984
C80	C	0.775532	-0.932014	0.842984
C81	C	0.312579	-1.349275	0.304664
C82	C	0.812579	-0.849275	0.804664
C83	C	0.312575	-1.349262	0.228021
C84	C	0.812575	-0.849262	0.728021
N85	N	0.335331	-1.416247	0.463314
N86	N	0.835331	-0.916247	0.963314
N87	N	0.335334	-1.416267	0.536122
N88	N	0.835334	-0.916267	1.036122
C89	C	0.275547	-1.432045	0.573906
C90	C	0.775547	-0.932045	1.073906
N91	N	0.215758	-1.447828	0.536132
N92	N	0.715758	-0.947828	1.036132
N93	N	0.215756	-1.447815	0.463318
N94	N	0.715756	-0.947815	0.963318
C95	C	0.275541	-1.432018	0.426091
C96	C	0.775541	-0.932018	0.926091
C97	C	0.238496	-1.514781	0.695324
C98	C	0.738496	-1.014781	1.195324
C99	C	0.238492	-1.514779	0.771971
C100	C	0.738492	-1.014779	1.271971
C101	C	0.312602	-1.349342	0.771980
C102	C	0.812602	-0.849342	1.271980
C103	C	0.312599	-1.349337	0.695336
C104	C	0.812599	-0.849337	1.195336
C105	C	0.275548	-1.432063	0.657012
C106	C	0.775548	-0.932063	1.157012
N107	N	0.275548	-1.432072	0.810297
N108	N	0.775548	-0.932072	1.310297
H109	H	-0.503368	-1.625162	-0.000024
H110	H	-0.003368	-1.125162	0.499976
H111	H	0.342771	-1.281998	0.803189
H112	H	0.842771	-0.781998	1.303189
H113	H	0.342240	-1.041182	-0.000004
H114	H	0.842240	-0.541182	0.499996
H115	H	-0.391014	-1.227522	0.000001
H116	H	0.108986	-0.727522	0.500001
O117	O	0.348654	-1.268943	0.658230
O118	O	0.848654	-0.768943	1.158230
C119	C	0.381347	-1.195924	0.708494
C120	C	0.881347	-0.695924	1.208494
H121	H	0.388404	-1.245644	0.763120
H122	H	0.888404	-0.745644	1.263120
H123	H	0.434736	-1.177119	0.686343
H124	H	0.934736	-0.677119	1.186343
H125	H	0.347340	-1.105966	0.716662
H126	H	0.847340	-0.605966	1.216662
H127	H	0.342750	-1.281934	0.335877
H128	H	0.842750	-0.781934	0.835877
H129	H	0.177217	-1.036086	-0.000020
H130	H	0.677217	-0.536086	0.499980
O131	O	0.202420	-1.595106	0.190896
O132	O	0.702420	-1.095106	0.690896
C133	C	0.169736	-1.668141	0.241152
C134	C	0.669736	-1.168141	0.741152
H135	H	0.162688	-1.618438	0.295795
H136	H	0.662688	-1.118438	0.795795
H137	H	0.116343	-1.686941	0.219016
H138	H	0.616343	-1.186941	0.719016
H139	H	0.203745	-1.758101	0.249283
H140	H	0.703745	-1.258101	0.749283
H141	H	0.373862	-0.827967	-0.000006
H142	H	0.873862	-0.327967	0.499994
H143	H	0.054447	-1.238898	0.000008
H144	H	0.554447	-0.738898	0.500008
O145	O	0.197808	-0.815054	-0.000037
O146	O	0.697808	-0.315054	0.499963
C147	C	0.194126	-0.686692	-0.000018
C148	C	0.694126	-0.186692	0.499982
H149	H	0.244875	-0.656827	-0.023071
H150	H	0.744875	-0.156827	0.476929
H151	H	0.148185	-0.647979	-0.035368
H152	H	0.648185	-0.147979	0.464632
H153	H	0.186340	-0.651472	0.058397
H154	H	0.686340	-0.151472	0.558397
O155	O	-0.084749	-1.218031	0.000124
O156	O	0.415251	-0.718031	0.500124
C157	C	-0.127364	-1.210334	0.063175
C158	C	0.372636	-0.710334	0.563175
H159	H	-0.102194	-1.273600	0.107253
H160	H	0.397806	-0.773600	0.607253
H161	H	-0.133120	-1.112558	0.084341
H162	H	0.366880	-0.612558	0.584341
H163	H	-0.181237	-1.238620	0.048916
H164	H	0.318763	-0.738620	0.548916
H165	H	0.208308	-1.582084	0.335851
H166	H	0.708308	-1.082084	0.835851
O167	O	0.348628	-1.268860	0.190915
O168	O	0.848628	-0.768860	0.690915
C169	C	0.381319	-1.195836	0.241178
C170	C	0.881319	-0.695836	0.741178
H171	H	0.388374	-1.245551	0.295806
H172	H	0.888374	-0.745551	0.795806
H173	H	0.434708	-1.177031	0.219028
H174	H	0.934708	-0.677031	0.719028
H175	H	0.347310	-1.105878	0.249343
H176	H	0.847310	-0.605878	0.749343
O177	O	0.202438	-1.595173	0.658205
O178	O	0.702438	-1.095173	1.158205
C179	C	0.169747	-1.668202	0.708459
C180	C	0.669747	-1.168202	1.208459
H181	H	0.162695	-1.618495	0.763101
H182	H	0.662695	-1.118495	1.263101
H183	H	0.116356	-1.687000	0.686318
H184	H	0.616356	-1.187000	1.186318
H185	H	0.203754	-1.758163	0.716595
H186	H	0.703754	-1.258163	1.216595
O187	O	-0.530080	-1.206508	-0.000031
O188	O	-0.030080	-0.706508	0.499969
C189	C	-0.487084	-1.110182	-0.000007
C190	C	0.012916	-0.610182	0.499993
H191	H	-0.433369	-1.143915	-0.023057
H192	H	0.066631	-0.643915	0.476943
H193	H	-0.512081	-1.032354	-0.035358
H194	H	-0.012081	-0.532354	0.464642
H195	H	-0.481036	-1.076386	0.058409
H196	H	0.018964	-0.576386	0.558409
O197	O	0.202413	-1.594975	0.809220
O198	O	0.702413	-1.094975	1.309220
C199	C	0.151191	-1.530284	0.853582
C200	C	0.651191	-1.030284	1.353582
H201	H	0.137955	-1.434656	0.830499
H202	H	0.637955	-0.934656	1.330499
H203	H	0.101971	-1.580070	0.854449
H204	H	0.601971	-1.080070	1.354449
H205	H	0.172226	-1.523814	0.911667
H206	H	0.672226	-1.023814	1.411667
H207	H	-0.370827	-1.628547	-0.000019
H208	H	0.129173	-1.128547	0.499981
H209	H	-0.057907	-1.636545	-0.000021
H210	H	0.442093	-1.136545	0.499979
H211	H	0.074634	-1.639928	-0.000003
H212	H	0.574634	-1.139928	0.499997
