data_functionalizedCrystal
_audit_creation_method	'MofGen! by Chris Wilmer'
_symmetry_space_group_name_H-M	'P1'
_symmetry_Int_Tables_number	1
_symmetry_cell_setting	triclinic
loop_
_symmetry_equiv_pos_as_xyz
  x,y,z
_cell_length_a	13.897449
_cell_length_b	12.759400
_cell_length_c	12.759393
_cell_angle_alpha	90.031564
_cell_angle_beta	89.979470
_cell_angle_gamma	89.984036
loop_
_atom_site_label
_atom_site_type_symbol
_atom_site_fract_x
_atom_site_fract_y
_atom_site_fract_z
Zn1	Zn	1.474721	0.418168	-0.594038
Zn2	Zn	1.474624	0.593887	-0.418359
Zn3	Zn	1.313411	0.418227	-0.418372
Zn4	Zn	1.313400	0.593810	-0.593994
O5	O	1.394039	0.506023	-0.506191
O6	O	1.609690	0.441486	-0.570747
O7	O	1.453202	0.570642	-0.271339
O8	O	1.334854	0.271198	-0.441698
O9	O	1.609618	0.570586	-0.441676
O10	O	1.453368	0.271155	-0.570760
O11	O	1.334760	0.441585	-0.271349
O12	O	1.178428	0.441510	-0.441655
O13	O	1.334836	0.570454	-0.741021
O14	O	1.178420	0.570510	-0.570684
O15	O	1.453358	0.441411	-0.741054
O16	O	1.453192	0.740898	-0.441633
O17	O	1.334742	0.740841	-0.570671
C18	C	1.393982	0.778991	-0.506169
C19	C	1.394045	0.895767	-0.506194
C20	C	1.143425	0.506009	-0.506167
C21	C	1.036211	0.506028	-0.506181
C22	C	1.394106	0.505917	-0.780224
C23	C	1.394135	0.505872	-0.897001
C24	C	0.839915	0.506032	-0.506209
C25	C	0.949148	0.506027	-0.506191
C26	C	1.645632	0.506038	-0.506215
C27	C	1.752846	0.506044	-0.506226
C28	C	1.394123	0.231990	-0.506236
C29	C	1.394158	0.115213	-0.506255
C30	C	1.455791	0.950624	-0.439078
C31	C	1.455850	1.060348	-0.439111
C32	C	1.332410	1.060349	-0.573378
C33	C	1.332356	0.950627	-0.573350
C34	C	1.517480	0.895764	-0.371922
C35	C	1.579230	0.950621	-0.304800
C36	C	1.579289	1.060345	-0.304833
C37	C	1.517598	1.115212	-0.371987
C38	C	1.455858	0.438673	-0.951882
C39	C	1.455881	0.438635	-1.061606
C40	C	1.332456	0.573004	-1.061559
C41	C	1.332429	0.573036	-0.951836
C42	C	1.517564	0.371509	-0.897046
C43	C	1.579293	0.304305	-0.951927
C44	C	1.579316	0.304267	-1.061651
C45	C	1.517610	0.371433	-1.116494
C46	C	1.394027	0.506053	-0.233223
C47	C	1.394185	0.505802	-0.116447
H48	H	1.629462	0.905943	-0.250131
C49	C	1.647215	1.120690	-0.231007
C50	C	1.715070	1.060342	-0.157145
C51	C	1.782996	1.120684	-0.083314
C52	C	1.783068	1.241374	-0.083346
C53	C	1.715210	1.301728	-0.157211
C54	C	1.647284	1.241386	-0.231042
H55	H	1.715019	0.970994	-0.157119
H56	H	1.833229	1.076005	-0.028635
H57	H	1.833351	1.286042	-0.028692
H58	H	1.715261	1.391076	-0.157237
H59	H	1.597052	1.286065	-0.285722
H60	H	1.629571	0.249539	-1.106332
C61	C	1.264549	1.120700	-0.647238
C62	C	1.264604	1.241389	-0.647267
C63	C	1.196739	1.301739	-0.721126
C64	C	1.128819	1.241398	-0.794956
C65	C	1.128761	1.120701	-0.794929
C66	C	1.196626	1.060352	-0.721071
H67	H	1.314884	1.286063	-0.592611
H68	H	1.196782	1.391087	-0.721145
H69	H	1.078581	1.286072	-0.849630
H70	H	1.078480	1.076027	-0.849585
H71	H	1.196583	0.971004	-0.721052
H72	H	1.517623	0.371384	-1.205839
H73	H	1.282218	0.627687	-1.106221
H74	H	1.282078	0.905962	-0.628003
C75	C	1.647164	0.230424	-0.891605
C76	C	1.647146	0.230462	-0.770915
C77	C	1.715018	0.156578	-0.710596
C78	C	1.782909	0.082656	-0.770967
C79	C	1.782930	0.082614	-0.891664
C80	C	1.715057	0.156498	-0.951983
H81	H	1.596887	0.285187	-0.726219
H82	H	1.715002	0.156610	-0.621248
H83	H	1.833152	0.027962	-0.726315
H84	H	1.833189	0.027890	-0.936360
H85	H	1.715073	0.156467	-1.041331
H86	H	1.282154	0.627739	-0.907151
H87	H	1.517659	1.204557	-0.372017
H88	H	1.517436	0.806422	-0.371886
H89	H	1.517555	0.371534	-0.807703
