data_functionalizedCrystal
_audit_creation_method	'MofGen! by Chris Wilmer'
_symmetry_space_group_name_H-M	'P1'
_symmetry_Int_Tables_number	1
_symmetry_cell_setting	triclinic
loop_
_symmetry_equiv_pos_as_xyz
  x,y,z
_cell_length_a	16.956995
_cell_length_b	16.992695
_cell_length_c	17.766277
_cell_angle_alpha	89.995141
_cell_angle_beta	89.987113
_cell_angle_gamma	83.361347
loop_
_atom_site_label
_atom_site_type_symbol
_atom_site_fract_x
_atom_site_fract_y
_atom_site_fract_z
O1	O	1.060105	0.032363	-0.062646
O2	O	0.829695	0.059776	-0.062637
O3	O	0.943977	-0.068013	-0.062636
O4	O	0.945824	0.160152	-0.062648
O5	O	0.943954	-0.068015	0.062553
O6	O	0.829672	0.059775	0.062552
O7	O	1.060083	0.032361	0.062542
Cu8	Cu	0.944875	0.046068	0.073978
Cu9	Cu	0.944902	0.046069	-0.074072
O10	O	0.945801	0.160151	0.062541
C11	C	0.800065	0.061179	-0.000041
C12	C	0.711811	0.065352	-0.000037
C13	C	0.941589	-0.097073	-0.000041
C14	C	0.934498	-0.183657	-0.000041
C15	C	0.214500	0.096570	-0.000067
C16	C	0.297425	0.092643	-0.000066
C17	C	0.343815	0.018931	-0.000057
C18	C	0.307278	-0.050860	-0.000056
C19	C	0.224354	-0.046932	-0.000062
C20	C	0.592349	-0.000510	-0.000042
C21	C	0.675278	-0.004433	-0.000034
C22	C	0.665419	0.139071	-0.000046
C23	C	0.582495	0.142992	-0.000048
C24	C	0.545964	0.073202	-0.000051
N25	N	0.428578	0.014915	-0.000054
N26	N	0.461203	0.077218	-0.000059
C27	C	1.002913	-0.238332	-0.000043
C28	C	0.996246	-0.319686	-0.000050
C29	C	0.921163	-0.346365	-0.000050
C30	C	0.852743	-0.291683	-0.000050
C31	C	0.859411	-0.210331	-0.000048
C32	C	0.893527	-0.588171	-0.000059
C33	C	0.886865	-0.669531	-0.000058
C34	C	1.030368	-0.697528	-0.000060
C35	C	1.037029	-0.616172	-0.000054
C36	C	0.968609	-0.561498	-0.000058
N37	N	0.914346	-0.429522	-0.000054
N38	N	0.975427	-0.478343	-0.000059
C39	C	1.089713	0.030958	-0.000055
C40	C	1.177967	0.026785	-0.000064
C41	C	0.948189	0.189210	-0.000055
C42	C	0.955280	0.275795	-0.000060
N43	N	0.944862	0.046066	0.178108
C44	C	0.996036	0.090337	0.217484
C45	C	0.996048	0.090335	0.296286
C46	C	0.944872	0.046071	0.335709
C47	C	0.893694	0.001790	0.296323
C48	C	0.893689	0.001788	0.217523
C49	C	0.873140	0.048516	0.460571
C50	C	0.873144	0.048524	0.539370
C51	C	0.944887	0.046074	0.578755
C52	C	1.016629	0.043631	0.539331
C53	C	1.016624	0.043629	0.460531
C54	C	0.944872	0.046068	0.421154
C55	C	0.996078	0.090345	0.703577
C56	C	0.996091	0.090336	0.782380
C57	C	0.893730	0.001797	0.782416
C58	C	0.893724	0.001800	0.703614
C59	C	0.944897	0.046078	0.664199
N60	N	0.944915	0.046071	0.821797
H61	H	0.327165	0.149470	-0.000076
O62	O	1.051293	0.138090	0.824849
H63	H	1.091601	0.097912	0.860734
O64	O	0.795744	0.051129	0.418117
H65	H	0.796714	-0.002448	0.382242
H66	H	1.086072	-0.742052	-0.000058
O67	O	1.051234	0.138090	0.174976
H68	H	1.042632	0.130657	0.113565
H69	H	0.345056	-0.110878	-0.000052
O70	O	0.805879	-0.698310	-0.000066
H71	H	0.759422	-0.646625	-0.000077
O72	O	0.532458	0.222496	-0.000057
H73	H	0.571793	0.270364	-0.000063
H74	H	0.837815	-0.543665	-0.000062
O75	O	0.552950	-0.075779	-0.000042
H76	H	0.515383	-0.077415	0.050976
H77	H	0.695172	0.195890	-0.000045
O78	O	1.051273	0.138098	0.661062
H79	H	1.042663	0.130671	0.599651
H80	H	0.814727	0.050517	0.571463
O81	O	0.771758	-0.320451	-0.000041
H82	H	0.778613	-0.386207	-0.000032
O83	O	0.838491	-0.045950	0.338837
H84	H	0.847084	-0.038503	0.400247
O85	O	0.184948	-0.122201	-0.000048
H86	H	0.203247	-0.157368	-0.051064
O87	O	0.725319	-0.083941	-0.000032
H88	H	0.685987	-0.131811	-0.000044
H89	H	0.852062	-0.034245	0.814513
H90	H	0.852049	-0.034247	0.671554
O91	O	1.083895	-0.209558	-0.000051
H92	H	1.130347	-0.261247	-0.000063
H93	H	0.176733	0.156595	-0.000069
H94	H	0.803700	-0.165814	-0.000047
O95	O	1.051238	0.138093	0.338771
H96	H	1.086816	0.168886	0.298124
O97	O	1.093996	0.040978	0.418006
H98	H	1.143889	0.039266	0.458625
H99	H	0.852015	-0.034264	0.185463
O100	O	1.094019	0.040981	0.581796
H101	H	1.081975	0.041381	0.643214
H102	H	1.098170	-0.594458	-0.000054
O103	O	1.070035	-0.378659	-0.000040
H104	H	1.123364	-0.346441	-0.000026
