data_functionalizedCrystal
_audit_creation_method	'MofGen! by Chris Wilmer'
_symmetry_space_group_name_H-M	'P1'
_symmetry_Int_Tables_number	1
_symmetry_cell_setting	triclinic
loop_
_symmetry_equiv_pos_as_xyz
  x,y,z
_cell_length_a	16.992694
_cell_length_b	16.992695
_cell_length_c	16.053802
_cell_angle_alpha	92.741074
_cell_angle_beta	87.249047
_cell_angle_gamma	90.668223
loop_
_atom_site_label
_atom_site_type_symbol
_atom_site_fract_x
_atom_site_fract_y
_atom_site_fract_z
O1	O	1.053959	0.163815	-0.069325
O2	O	1.553959	0.663815	0.430675
O3	O	0.825560	0.161983	-0.069350
O4	O	1.325560	0.661983	0.430650
O5	O	0.938844	0.048699	-0.069331
O6	O	1.438844	0.548699	0.430669
O7	O	0.940676	0.277099	-0.069344
O8	O	1.440676	0.777099	0.430656
O9	O	0.932607	0.054907	0.069527
O10	O	1.432607	0.554907	0.569527
O11	O	0.819323	0.168191	0.069508
O12	O	1.319323	0.668191	0.569508
O13	O	1.047722	0.170023	0.069533
O14	O	1.547722	0.670023	0.569533
Zn15	Zn	0.932532	0.170093	0.091567
Zn16	Zn	1.432532	0.670093	0.591567
Zn17	Zn	0.940750	0.161913	-0.091384
Zn18	Zn	1.440750	0.661913	0.408616
O19	O	0.934438	0.283307	0.069514
O20	O	1.434438	0.783307	0.569514
C21	C	0.793082	0.162731	0.000076
C22	C	1.293082	0.662731	0.500076
C23	C	0.705597	0.155702	0.000067
C24	C	1.205597	0.655702	0.500067
C25	C	0.933370	0.022443	0.000098
C26	C	1.433370	0.522443	0.500098
C27	C	0.926341	-0.065042	0.000097
C28	C	1.426341	0.434958	0.500097
C29	C	0.659607	0.223520	0.000064
C30	C	1.159607	0.723520	0.500064
C31	C	0.577405	0.216911	0.000076
C32	C	1.077405	0.716911	0.500076
C33	C	0.541197	0.142484	0.000085
C34	C	1.041197	0.642484	0.500085
C35	C	0.587193	0.074661	0.000091
C36	C	1.087193	0.574661	0.500091
C37	C	0.669393	0.081270	0.000085
C38	C	1.169393	0.581270	0.500085
C39	C	0.295881	0.115090	0.000109
C40	C	0.795881	0.615090	0.500109
C41	C	0.213676	0.108486	0.000112
C42	C	0.713676	0.608486	0.500112
C43	C	0.203893	0.250737	0.000099
C44	C	0.703893	0.750737	0.500099
C45	C	0.286095	0.257339	0.000088
C46	C	0.786095	0.757339	0.500088
C47	C	0.332084	0.189517	0.000098
C48	C	0.832084	0.689517	0.500098
N49	N	0.457174	0.135727	0.000094
N50	N	0.957174	0.635727	0.500094
N51	N	0.416105	0.196275	0.000094
N52	N	0.916105	0.696275	0.500094
C53	C	0.994158	-0.111032	0.000105
C54	C	1.494158	0.388968	0.500105
C55	C	0.987550	-0.193233	0.000096
C56	C	1.487550	0.306767	0.500096
C57	C	0.913123	-0.229442	0.000086
C58	C	1.413123	0.270558	0.500086
C59	C	0.845300	-0.183446	0.000075
C60	C	1.345300	0.316554	0.500075
C61	C	0.851910	-0.101246	0.000078
C62	C	1.351910	0.398754	0.500078
C63	C	0.885729	-0.474757	0.000071
C64	C	1.385729	0.025243	0.500071
C65	C	0.879124	-0.556962	0.000071
C66	C	1.379124	-0.056962	0.500071
C67	C	1.021375	-0.566745	0.000091
C68	C	1.521375	-0.066745	0.500091
C69	C	1.027978	-0.484543	0.000099
C70	C	1.527978	0.015457	0.500099
C71	C	0.960155	-0.438554	0.000083
C72	C	1.460155	0.061446	0.500083
N73	N	0.906366	-0.313465	0.000079
N74	N	1.406366	0.186535	0.500079
N75	N	0.966913	-0.354533	0.000084
N76	N	1.466913	0.145467	0.500084
C77	C	1.080201	0.169275	0.000105
C78	C	1.580201	0.669275	0.500105
C79	C	1.167685	0.176304	0.000109
C80	C	1.667685	0.676304	0.500109
C81	C	0.939913	0.309563	0.000084
C82	C	1.439913	0.809563	0.500084
C83	C	0.946942	0.397047	0.000079
C84	C	1.446942	0.897047	0.500079
N85	N	0.926930	0.175675	0.216427
N86	N	1.426930	0.675675	0.716427
N87	N	0.946358	0.156325	-0.216243
N88	N	1.446358	0.656325	0.283757
C89	C	0.975152	0.127492	0.260129
C90	C	1.475152	0.627492	0.760129
C91	C	0.971241	0.131404	0.347535
C92	C	1.471241	0.631404	0.847535
C93	C	0.919110	0.183504	0.391237
C94	C	1.419110	0.683504	0.891237
C95	C	0.870883	0.231689	0.347529
C96	C	1.370883	0.731689	0.847529
C97	C	0.874791	0.227772	0.260125
C98	C	1.374791	0.727772	0.760125
C99	C	0.902039	0.200593	0.652644
C100	C	1.402039	0.700593	1.152644
C101	C	0.898136	0.204508	0.740055
C102	C	1.398136	0.704508	1.240055
C103	C	0.998493	0.104222	0.740054
C104	C	1.498493	0.604222	1.240054
C105	C	1.002400	0.100313	0.652648
C106	C	1.502400	0.600313	1.152648
C107	C	0.954169	0.148494	0.608948
C108	C	1.454169	0.648494	1.108948
N109	N	0.915113	0.187507	0.480580
N110	N	1.415113	0.687507	0.980580
N111	N	0.958163	0.144487	0.519606
N112	N	1.458163	0.644487	1.019606
H113	H	0.539963	0.272136	0.000072
H114	H	1.039963	0.772136	0.500072
H115	H	1.017605	0.085070	0.224552
H116	H	1.517605	0.585070	0.724552
H117	H	1.010506	0.092170	0.383116
H118	H	1.510506	0.592170	0.883116
H119	H	1.088584	-0.455068	0.000108
H120	H	1.588584	0.044932	0.500108
H121	H	0.855683	0.246937	0.775633
H122	H	1.355683	0.746937	1.275633
N123	N	0.798846	-0.596019	0.000058
N124	N	1.298846	-0.096019	0.500058
H125	H	0.756883	-0.554413	0.000046
H126	H	1.256883	-0.054413	0.500046
H127	H	0.795326	-0.632211	-0.051419
H128	H	1.295326	-0.132211	0.448581
H129	H	1.076592	-0.604198	0.000102
H130	H	1.576592	-0.104198	0.500102
H131	H	0.166440	0.305954	0.000092
H132	H	0.666440	0.805954	0.500092
N133	N	1.058627	0.044120	0.605513
N134	N	1.558627	0.544120	1.105513
H135	H	1.088582	0.014188	0.646462
H136	H	1.588582	0.514188	1.146462
H137	H	1.027933	0.005789	0.569258
H138	H	1.527933	0.505789	1.069258
H139	H	1.037759	0.064994	0.775643
H140	H	1.537759	0.564994	1.275643
H141	H	0.557705	0.014061	0.000110
H142	H	1.057705	0.514061	0.500110
N143	N	0.174620	0.028207	0.000117
N144	N	0.674620	0.528207	0.500117
H145	H	0.216226	-0.013756	0.000123
H146	H	0.716226	0.486244	0.500123
H147	H	0.138419	0.024672	0.051593
H148	H	0.638419	0.524672	0.551593
H149	H	0.835522	0.267007	0.224543
H150	H	1.335522	0.767007	0.724543
N151	N	0.325134	0.337621	0.000084
N152	N	0.825134	0.837621	0.500084
H153	H	0.356716	0.345840	0.051555
H154	H	0.856716	0.845840	0.551555
H155	H	0.361282	0.341185	-0.051428
H156	H	0.861282	0.841185	0.448572
N157	N	0.719004	0.008126	0.000083
N158	N	1.219004	0.508126	0.500083
H159	H	0.751020	0.010002	0.051557
H160	H	1.251020	0.510002	0.551557
H161	H	0.683545	-0.039988	0.000056
H162	H	1.183545	0.460012	0.500056
N163	N	0.765024	-0.222495	0.000058
N164	N	1.265024	0.277505	0.500058
H165	H	0.771126	-0.281547	0.000060
H166	H	1.271126	0.218453	0.500060
H167	H	0.732808	-0.203690	0.051530
H168	H	1.232808	0.296310	0.551530
H169	H	0.796685	-0.063801	0.000071
H170	H	1.296685	0.436199	0.500071
H171	H	0.862769	0.239826	0.617070
H172	H	1.362769	0.739826	1.117070
H173	H	0.333316	0.059864	0.000118
H174	H	0.833316	0.559864	0.500118
N175	N	1.074434	-0.071981	0.000125
N176	N	1.574434	0.428019	0.500125
H177	H	1.116392	-0.113592	0.000127
H178	H	1.616392	0.386408	0.500127
H179	H	1.082588	-0.040386	-0.051349
H180	H	1.582588	0.459614	0.448651
H181	H	1.042774	-0.230676	0.000105
H182	H	1.542774	0.269324	0.500105
H183	H	0.689081	0.284126	0.000056
H184	H	1.189081	0.784126	0.500056
N185	N	0.812581	-0.425161	0.000058
N186	N	1.312581	0.074839	0.500058
H187	H	0.764431	-0.460574	0.000055
H188	H	1.264431	0.039426	0.500055
H189	H	0.809911	-0.388544	0.051535
H190	H	1.309911	0.111456	0.551535
N191	N	0.814650	0.287878	0.394661
N192	N	1.314650	0.787878	0.894661
H193	H	0.819492	0.283051	0.456663
H194	H	1.319492	0.783051	0.956663
H195	H	0.827921	0.343613	0.379370
H196	H	1.327921	0.843613	0.879370
