data_functionalizedCrystal
_audit_creation_method	'MofGen! by Chris Wilmer'
_symmetry_space_group_name_H-M	'P1'
_symmetry_Int_Tables_number	1
_symmetry_cell_setting	triclinic
loop_
_symmetry_equiv_pos_as_xyz
  x,y,z
_cell_length_a	6.817900
_cell_length_b	17.982968
_cell_length_c	16.306198
_cell_angle_alpha	95.652097
_cell_angle_beta	76.532925
_cell_angle_gamma	77.548040
loop_
_atom_site_label
_atom_site_type_symbol
_atom_site_fract_x
_atom_site_fract_y
_atom_site_fract_z
V1	V	4.015003	-0.237820	-0.117510
O2	O	4.002825	-0.233015	0.004834
O3	O	3.966519	-0.236460	-0.232220
O4	O	3.961512	-0.341420	-0.116059
O5	O	4.007867	-0.127329	-0.112132
V6	V	4.499302	-0.224572	-0.102834
O7	O	4.274560	-0.266880	-0.149703
O8	O	4.689942	-0.195511	-0.070641
O9	O	4.324579	-0.225932	0.011876
O10	O	4.628877	-0.229376	-0.225178
O11	O	4.623835	-0.335062	-0.108212
O12	O	4.329587	-0.120972	-0.104285
C13	C	3.811664	-0.232777	-0.260173
C14	C	3.853275	-0.232356	-0.353953
C15	C	3.805276	-0.366662	-0.111997
C16	C	3.842823	-0.451357	-0.111570
C17	C	4.004302	-0.230815	-0.694699
C18	C	4.208174	-0.235296	-0.664167
C19	C	4.165203	-0.236029	-0.566678
C20	C	3.929377	-0.231579	-0.525651
C21	C	3.874455	-0.302252	-0.571330
C22	C	3.919167	-0.301902	-0.668948
C23	C	3.837910	-0.156191	-0.643332
C24	C	3.798255	-0.155752	-0.545681
C25	C	3.887022	-0.232013	-0.430112
C26	C	4.046653	-0.230386	-0.790238
C27	C	4.042380	-0.495038	-0.115596
C28	C	4.077648	-0.574618	-0.115195
C29	C	3.913360	-0.610516	-0.110772
C30	C	3.713785	-0.566829	-0.106742
C31	C	3.678516	-0.487250	-0.107138
C32	C	3.856013	-0.887762	-0.105145
C33	C	3.891299	-0.967348	-0.104752
C34	C	4.255145	-0.975131	-0.113201
C35	C	4.219877	-0.895551	-0.113597
C36	C	4.020304	-0.851871	-0.109563
C37	C	3.982064	-0.765581	-0.109997
C38	C	3.951600	-0.696805	-0.110344
C39	C	4.142777	-0.229612	0.039825
C40	C	4.080403	-0.230039	0.133603
C41	C	4.149165	-0.095725	-0.108350
C42	C	4.090856	-0.011029	-0.108773
H43	H	4.212620	-0.185519	-0.535551
H44	H	4.277324	-0.184598	-0.680523
H45	H	4.353663	-0.866328	-0.117203
Br46	Br	3.590157	-0.301311	-0.527080
H47	H	3.770097	-0.301753	-0.689322
H48	H	3.968141	-0.358368	-0.558263
Br49	Br	3.924663	-0.066089	-0.670889
Br50	Br	3.866305	-0.068543	-0.494408
Br51	Br	3.490816	-0.615547	-0.100739
Br52	Br	4.265366	-0.446329	-0.121608
Br53	Br	3.508889	-0.142985	-0.497454
Br54	Br	3.407673	-0.427966	-0.101661
H55	H	3.685924	-0.152200	-0.662487
Br56	Br	4.415256	-0.325019	-0.723715
Br57	Br	4.348491	-0.633899	-0.120669
H58	H	4.268732	-0.290450	-0.554616
H59	H	4.417649	-1.010705	-0.116482
H60	H	3.693530	-0.852211	-0.101890
Br61	Br	3.668320	-1.016067	-0.098751
H62	H	4.035675	-0.358085	-0.703161
