data_functionalizedCrystal
_audit_creation_method	'MofGen! by Chris Wilmer'
_symmetry_space_group_name_H-M	'P1'
_symmetry_Int_Tables_number	1
_symmetry_cell_setting	triclinic
loop_
_symmetry_equiv_pos_as_xyz
  x,y,z
_cell_length_a	14.560438
_cell_length_b	20.875641
_cell_length_c	20.875643
_cell_angle_alpha	119.909987
_cell_angle_beta	89.997977
_cell_angle_gamma	62.439823
loop_
_atom_site_label
_atom_site_type_symbol
_atom_site_fract_x
_atom_site_fract_y
_atom_site_fract_z
Zr1	Zr	0.926805	0.694341	0.105763
O2	O	0.792212	0.820582	0.209028
O3	O	0.963029	0.563086	0.070832
O4	O	0.976554	0.687109	0.204303
O5	O	0.773747	0.704013	-0.026002
O6	O	1.127694	0.687108	0.204302
O7	O	0.778688	0.696559	0.075557
O8	O	1.103500	0.465254	-0.034454
O9	O	0.797941	0.925867	0.212754
O10	O	1.097356	0.618930	0.059890
O11	O	0.980875	0.624493	-0.015901
O12	O	0.996799	0.770514	0.141245
O13	O	0.880318	0.776077	0.065453
Zr14	Zr	1.159977	0.706228	-0.056213
Zr15	Zr	1.167856	0.694340	0.105762
Zr16	Zr	0.918926	0.706229	-0.056212
Zr17	Zr	0.935941	0.862259	0.111706
Zr18	Zr	1.150841	0.538310	-0.062156
O19	O	1.123753	0.837483	-0.021282
O20	O	1.134956	0.820580	0.209026
O21	O	0.781009	0.837485	-0.021279
O22	O	1.294569	0.579987	-0.159478
O23	O	1.305773	0.563084	0.070829
O24	O	0.951826	0.579989	-0.159476
O25	O	1.313035	0.696556	0.075552
O26	O	1.110228	0.713460	-0.154754
O27	O	0.959088	0.713461	-0.154752
O28	O	1.308094	0.704010	-0.026007
O29	O	0.989544	0.925866	0.212753
O30	O	1.097238	0.474703	-0.163203
O31	O	1.288841	0.474702	-0.163204
O32	O	1.295104	0.465252	-0.034456
O33	O	0.791678	0.935316	0.084006
O34	O	0.983281	0.935315	0.084004
O35	O	1.089983	0.630055	-0.091695
O36	O	1.206464	0.624492	-0.015903
O37	O	1.105906	0.776076	0.065451
O38	O	0.989425	0.781639	-0.010340
C39	C	1.031963	0.490245	0.017342
C40	C	1.028084	0.418960	0.014819
C41	C	1.087061	0.382566	0.053196
C42	C	1.083419	0.315581	0.050819
C43	C	1.020794	0.284996	0.010068
C44	C	0.961815	0.321393	-0.028314
C45	C	0.965464	0.388372	-0.025941
C46	C	1.003367	0.084985	-0.001278
C47	C	0.999721	0.018003	-0.003646
C48	C	1.121327	0.012194	0.075486
C49	C	1.124965	0.079179	0.077859
C50	C	1.065991	0.115567	0.039474
N51	N	1.017067	0.216529	0.007638
N52	N	1.069724	0.184028	0.041899
C53	C	0.741873	0.700286	0.024777
C54	C	0.639540	0.700287	0.024778
C55	C	0.594186	0.696182	0.080729
C56	C	0.498038	0.696177	0.080725
C57	C	0.492604	0.704384	-0.031185
C58	C	0.588755	0.704383	-0.031183
C59	C	0.403637	0.640390	0.120650
C60	C	0.358269	0.636300	0.176612
C61	C	0.358131	0.683542	0.253313
C62	C	0.403345	0.734894	0.274065
C63	C	0.448703	0.738991	0.218106
C64	C	0.448856	0.691729	0.141397
C65	C	0.683153	0.760177	-0.071101
C66	C	0.728508	0.764281	-0.127057
C67	C	0.728644	0.717045	-0.203760
C68	C	0.683418	0.665707	-0.224511
C69	C	0.638063	0.661603	-0.168555
C70	C	0.637935	0.708837	-0.091853
C71	C	1.344909	0.700283	0.024773
C72	C	1.447242	0.700282	0.024772
C73	C	1.053247	0.685415	0.227381
C74	C	1.056591	0.680368	0.296143
C75	C	1.054819	0.910324	0.032208
C76	C	1.058697	0.981609	0.034731
C77	C	1.005675	0.757120	0.370914
C78	C	1.008832	0.752373	0.435521
C79	C	1.062899	0.670873	0.425356
C80	C	1.113823	0.594115	0.350577
C81	C	1.110672	0.598863	0.285972
C82	C	1.077958	0.648188	0.614021
C83	C	1.081103	0.643446	0.678634
C84	C	0.976113	0.801705	0.763575
C85	C	0.972961	0.806446	0.698964
C86	C	1.023889	0.729688	0.624191
N87	N	1.066125	0.666019	0.491393
N88	N	1.020670	0.734543	0.558155
C89	C	1.033534	0.715154	0.822169
C90	C	1.030186	0.720199	0.753405
C91	C	1.333481	0.490243	0.017340
C92	C	1.431935	0.418957	0.014816
C93	C	1.022107	0.505115	-0.185264
C94	C	1.014884	0.438876	-0.256549
C95	C	1.323626	0.505113	-0.185266
C96	C	1.418735	0.438874	-0.256552
C97	C	0.763156	0.895456	0.234816
C98	C	0.668047	0.961695	0.306102
C99	C	0.753301	0.910325	0.032210
C100	C	0.654847	0.981612	0.034734
C101	C	1.064674	0.895454	0.234814
C102	C	1.071898	0.961693	0.306099
C103	C	1.421218	0.382577	0.053201
C104	C	1.513718	0.315604	0.050845
C105	C	1.616934	0.285009	0.010100
C106	C	1.627649	0.321396	-0.028286
C107	C	1.535151	0.388372	-0.025926
C108	C	1.068444	0.410673	-0.329596
C109	C	1.061653	0.348445	-0.396582
C110	C	1.001307	0.314416	-0.390520
C111	C	0.947740	0.342624	-0.317466
C112	C	0.954526	0.404856	-0.250481
C113	C	1.524211	0.404863	-0.250467
C114	C	1.613586	0.342633	-0.317441
C115	C	1.597482	0.314410	-0.390500
C116	C	1.491995	0.348427	-0.396584
C117	C	1.402623	0.410661	-0.329611
C118	C	0.562571	0.995714	0.300017
C119	C	0.473197	1.057965	0.366992
C120	C	0.489301	1.086191	0.440052
C121	C	0.594788	1.052170	0.446135
C122	C	0.684160	0.989924	0.379161
C123	C	0.665565	1.017998	-0.003644
C124	C	0.573067	1.084988	-0.001270
C125	C	0.469851	1.115586	0.039478
C126	C	0.459135	1.079196	0.077861
C127	C	0.551633	1.012211	0.075491
C128	C	1.132253	0.995703	0.300012
C129	C	1.139061	1.057932	0.366986
C130	C	1.085507	1.086156	0.440046
C131	C	1.025150	1.052139	0.446131
C132	C	1.018349	0.989906	0.379158
H133	H	1.131444	0.285949	0.082068
H134	H	1.105279	0.325485	-0.456059
H135	H	0.995791	0.263743	-0.445069
H136	H	0.928937	0.872812	0.707250
H137	H	1.316742	0.438344	-0.334577
H138	H	0.981549	1.075129	0.505626
H139	H	0.549438	0.972736	0.240534
H140	H	1.692243	0.230472	0.008183
H141	H	0.607888	1.075160	0.505628
H142	H	1.699470	0.314942	-0.312474
H143	H	0.387314	1.085655	0.362023
H144	H	1.670265	0.263735	-0.445029
H145	H	0.910913	0.427810	-0.191006
H146	H	0.969197	0.962222	0.384125
H147	H	0.898607	0.314908	-0.312541
H148	H	1.478899	0.325439	-0.456078
H149	H	0.961639	0.823487	0.379201
H150	H	1.175864	0.972733	0.240530
H151	H	1.152133	0.536363	0.225090
H152	H	1.175959	0.104079	0.111042
H153	H	1.157852	0.527755	0.342305
H154	H	1.138052	0.407467	0.086384
H155	H	0.451244	0.707721	-0.076746
H156	H	0.917436	0.418006	-0.057189
H157	H	0.601238	0.619798	-0.185456
H158	H	1.337183	0.407486	0.086390
H159	H	1.169342	-0.017440	0.106736
H160	H	1.091054	1.136831	0.494573
H161	H	0.416520	1.136875	0.494580
H162	H	0.683525	0.627246	-0.286968
H163	H	1.537344	0.427832	-0.190984
H164	H	0.948718	-0.006895	-0.036830
H165	H	0.770041	0.962226	0.384125
H166	H	0.934651	0.864197	0.824459
H167	H	0.749600	0.993092	-0.036831
H168	H	0.967372	0.814873	0.496401
H169	H	0.485512	0.780804	0.235002
H170	H	1.125130	0.577075	0.670349
H171	H	0.542890	0.982587	0.106741
H172	H	0.581813	1.114606	-0.032529
H173	H	1.117584	0.438374	-0.334546
H174	H	0.394542	1.170129	0.041402
H175	H	0.375084	1.104118	0.111037
H176	H	1.504971	0.285985	0.082104
H177	H	1.188208	1.085623	0.362016
H178	H	1.711700	0.296476	-0.061460
H179	H	0.955351	0.114601	-0.032537
H180	H	0.910830	0.296482	-0.061499
H181	H	1.543892	0.417985	-0.057188
H182	H	0.635534	0.692845	0.126295
H183	H	0.403213	0.773370	0.336525
H184	H	0.321187	0.680211	0.298878
H185	H	0.765568	0.720399	-0.249317
H186	H	0.321459	0.594484	0.159709
H187	H	0.403761	0.601907	0.058193
H188	H	0.765323	0.806094	-0.110153
H189	H	0.683051	0.798641	-0.008644
H190	H	1.119428	0.585686	0.553146
