data_functionalizedCrystal
_audit_creation_method	'MofGen! by Chris Wilmer'
_symmetry_space_group_name_H-M	'P1'
_symmetry_Int_Tables_number	1
_symmetry_cell_setting	triclinic
loop_
_symmetry_equiv_pos_as_xyz
  x,y,z
_cell_length_a	12.759401
_cell_length_b	18.215406
_cell_length_c	12.759393
_cell_angle_alpha	90.021068
_cell_angle_beta	90.018292
_cell_angle_gamma	90.000960
loop_
_atom_site_label
_atom_site_type_symbol
_atom_site_fract_x
_atom_site_fract_y
_atom_site_fract_z
Zn1	Zn	1.606355	-0.292946	0.594050
Zn2	Zn	2.106355	0.207054	1.094050
Zn3	Zn	1.606292	-0.416030	0.418399
Zn4	Zn	2.106292	0.083970	0.918399
Zn5	Zn	1.430657	-0.292982	0.418389
Zn6	Zn	1.930657	0.207018	0.918389
Zn7	Zn	1.430688	-0.415975	0.594040
Zn8	Zn	1.930688	0.084025	1.094040
O9	O	1.518498	-0.354483	0.506220
O10	O	2.018498	0.145517	1.006220
O11	O	1.753367	-0.309281	0.570757
O12	O	2.253367	0.190719	1.070757
O13	O	1.582955	-0.399745	0.271376
O14	O	2.082955	0.100255	0.771376
O15	O	1.453977	-0.189993	0.441691
O16	O	1.953977	0.310007	0.941691
O17	O	1.753322	-0.399710	0.441707
O18	O	2.253322	0.100290	0.941707
O19	O	1.583061	-0.189966	0.570748
O20	O	2.083061	0.310034	1.070748
O21	O	1.453917	-0.309342	0.271369
O22	O	1.953917	0.190658	0.771369
O23	O	1.283640	-0.309290	0.441682
O24	O	1.783640	0.190710	0.941682
O25	O	1.454029	-0.399617	0.741063
O26	O	1.954029	0.100383	1.241063
O27	O	1.283663	-0.399652	0.570732
O28	O	1.783663	0.100348	1.070732
O29	O	1.583091	-0.309228	0.741070
O30	O	2.083091	0.190772	1.241070
O31	O	1.582985	-0.519007	0.441698
O32	O	2.082985	-0.019007	0.941698
O33	O	1.453969	-0.518967	0.570741
O34	O	1.953969	-0.018967	1.070741
C35	C	1.245531	-0.354470	0.506205
C36	C	1.745531	0.145530	1.006205
C37	C	1.128754	-0.354482	0.506224
C38	C	1.628754	0.145518	1.006224
C39	C	1.518502	-0.545689	0.506242
C40	C	2.018502	-0.045689	1.006242
C41	C	1.518600	-0.627488	0.506287
C42	C	2.018600	-0.127488	1.006287
C43	C	1.518571	-0.354413	0.780253
C44	C	2.018571	0.145587	1.280253
C45	C	1.518602	-0.354383	0.897030
C46	C	2.018602	0.145617	1.397030
C47	C	1.073931	-0.401609	0.573309
C48	C	1.573931	0.098391	1.073309
C49	C	0.964207	-0.401618	0.573321
C50	C	1.464207	0.098382	1.073321
C51	C	0.964138	-0.307371	0.439153
C52	C	1.464138	0.192629	0.939153
C53	C	1.073861	-0.307358	0.439147
C54	C	1.573861	0.192642	0.939147
C55	C	1.128825	-0.448732	0.640386
C56	C	1.628825	0.051268	1.140386
C57	C	1.074002	-0.495864	0.707476
C58	C	1.574002	0.004136	1.207476
C59	C	0.964278	-0.495873	0.707487
C60	C	1.464278	0.004127	1.207487
C61	C	0.909377	-0.448751	0.640409
C62	C	1.409377	0.051249	1.140409
C63	C	1.792531	-0.354497	0.506234
C64	C	2.292531	0.145503	1.006234
C65	C	1.909308	-0.354503	0.506241
C66	C	2.409308	0.145497	1.006241
C67	C	1.518523	-0.162530	0.506220
C68	C	2.018523	0.337470	1.006220
C69	C	1.518533	-0.080731	0.506220
C70	C	2.018533	0.419269	1.006220
C71	C	1.451353	0.107450	0.439057
C72	C	1.951353	0.607450	0.939057
C73	C	1.451361	0.184309	0.439070
C74	C	1.951361	0.684309	0.939070
C75	C	1.585783	0.184325	0.573457
C76	C	2.085783	0.684325	1.073457
C77	C	1.585769	0.107468	0.573449
C78	C	2.085769	0.607468	1.073449
C79	C	1.518555	0.069032	0.506243
C80	C	2.018555	0.569032	1.006243
C81	C	1.518578	0.222748	0.506264
C82	C	2.018578	0.722748	1.006264
C83	C	1.518588	0.306082	0.506278
C84	C	2.018588	0.806082	1.006278
C85	C	1.518543	-0.014307	0.506230
C86	C	2.018543	0.485693	1.006230
C87	C	1.518486	-0.354500	0.233252
C88	C	2.018486	0.145500	0.733252
C89	C	1.518659	-0.354323	0.116476
C90	C	2.018659	0.145677	0.616476
C91	C	1.585795	-0.401437	0.951893
C92	C	2.085795	0.098563	1.451893
C93	C	1.585827	-0.401406	1.061617
C94	C	2.085827	0.098594	1.561617
C95	C	1.451462	-0.307263	1.061605
C96	C	1.951462	0.192737	1.561605
C97	C	1.451437	-0.307291	0.951883
C98	C	1.951437	0.192709	1.451883
C99	C	1.652960	-0.448529	0.897039
C100	C	2.152960	0.051471	1.397039
C101	C	1.720158	-0.495588	0.951902
C102	C	2.220158	0.004412	1.451902
C103	C	1.720190	-0.495556	1.061627
C104	C	2.220190	0.004444	1.561627
C105	C	1.653023	-0.448466	1.116488
C106	C	2.153023	0.051534	1.616488
H107	H	1.218168	-0.448731	0.640382
H108	H	1.718168	0.051269	1.140382
Cl109	Cl	1.366852	0.059133	0.354575
Cl110	Cl	1.866852	0.559133	0.854575
Cl111	Cl	1.670250	0.059167	0.657926
Cl112	Cl	2.170250	0.559167	1.157926
Cl113	Cl	1.804601	-0.554776	0.882937
Cl114	Cl	2.304601	-0.054776	1.382937
Cl115	Cl	1.366869	0.232602	0.354610
Cl116	Cl	1.866869	0.732602	0.854610
Cl117	Cl	1.670275	0.232649	0.657940
Cl118	Cl	2.170275	0.732649	1.157940
Cl119	Cl	1.367027	-0.248071	1.130574
Cl120	Cl	1.867027	0.251929	1.630574
H121	H	1.653063	-0.448438	1.205832
H122	H	2.153063	0.051562	1.705832
H123	H	1.652939	-0.448562	0.807696
H124	H	2.152939	0.051438	1.307696
H125	H	1.396726	-0.268973	0.907213
H126	H	1.896726	0.231027	1.407213
H127	H	1.774913	-0.533869	1.106293
H128	H	2.274913	-0.033869	1.606293
H129	H	1.118710	-0.534224	0.762095
H130	H	1.618710	-0.034224	1.262095
H131	H	0.919644	-0.534244	0.762122
H132	H	1.419644	-0.034244	1.262122
Cl133	Cl	0.895119	-0.248138	0.354829
Cl134	Cl	1.395119	0.251862	0.854829
Cl135	Cl	1.142786	-0.248112	0.354810
Cl136	Cl	1.642786	0.251888	0.854810
Cl137	Cl	0.771436	-0.448758	0.640434
Cl138	Cl	1.271436	0.051242	1.140434
