data_functionalizedCrystal
_audit_creation_method	'MofGen! by Chris Wilmer'
_symmetry_space_group_name_H-M	'P1'
_symmetry_Int_Tables_number	1
_symmetry_cell_setting	triclinic
loop_
_symmetry_equiv_pos_as_xyz
  x,y,z
_cell_length_a	12.827893
_cell_length_b	11.169416
_cell_length_c	11.169409
_cell_angle_alpha	90.028030
_cell_angle_beta	90.023106
_cell_angle_gamma	90.011298
loop_
_atom_site_label
_atom_site_type_symbol
_atom_site_fract_x
_atom_site_fract_y
_atom_site_fract_z
Zn1	Zn	-1.597706	0.477767	-0.678684
Zn2	Zn	-1.264373	0.811101	-0.345350
Zn3	Zn	-0.931039	1.144434	-0.012017
Zn4	Zn	-1.597601	0.678508	-0.478016
Zn5	Zn	-1.264268	1.011841	-0.144682
Zn6	Zn	-0.930935	1.345174	0.188651
Zn7	Zn	-1.422942	0.477831	-0.478007
Zn8	Zn	-1.089608	0.811164	-0.144673
Zn9	Zn	-0.756275	1.144498	0.188660
Zn10	Zn	-1.422940	0.678401	-0.678649
Zn11	Zn	-1.089606	1.011734	-0.345316
Zn12	Zn	-0.756273	1.345067	-0.011982
O13	O	-1.510297	0.578127	-0.578339
O14	O	-1.176964	0.911460	-0.245005
O15	O	-0.843631	1.244793	0.088328
O16	O	-1.743928	0.504414	-0.652083
O17	O	-1.410595	0.837747	-0.318750
O18	O	-1.077262	1.171081	0.014584
O19	O	-1.574389	0.651959	-0.310065
O20	O	-1.241056	0.985292	0.023269
O21	O	-0.907723	1.318626	0.356602
O22	O	-1.446169	0.309873	-0.504638
O23	O	-1.112836	0.643206	-0.171304
O24	O	-0.779502	0.976540	0.162029
O25	O	-1.743851	0.651897	-0.504653
O26	O	-1.410518	0.985230	-0.171320
O27	O	-1.077185	1.318564	0.162014
O28	O	-1.574568	0.309826	-0.652074
O29	O	-1.241234	0.643159	-0.318741
O30	O	-0.907901	0.976493	0.014593
O31	O	-1.446068	0.504523	-0.310058
O32	O	-1.112734	0.837856	0.023275
O33	O	-0.779401	1.171189	0.356609
O34	O	-1.276705	0.504419	-0.504604
O35	O	-0.943372	0.837752	-0.171271
O36	O	-0.610039	1.171086	0.162063
O37	O	-1.446166	0.651715	-0.846603
O38	O	-1.112833	0.985048	-0.513270
O39	O	-0.779499	1.318381	-0.179937
O40	O	-1.276704	0.651777	-0.652015
O41	O	-0.943371	0.985110	-0.318682
O42	O	-0.610037	1.318443	0.014652
O43	O	-1.574566	0.504310	-0.846629
O44	O	-1.241233	0.837644	-0.513296
O45	O	-0.907899	1.170977	-0.179962
O46	O	-1.574388	0.846443	-0.504619
O47	O	-1.241054	1.179777	-0.171286
O48	O	-0.907721	1.513110	0.162047
O49	O	-1.446064	0.846365	-0.652024
O50	O	-1.112731	1.179698	-0.318691
O51	O	-0.779398	1.513031	0.014643
C52	C	-1.238787	0.578094	-0.578305
C53	C	-0.905454	0.911427	-0.244972
C54	C	-0.572121	1.244761	0.088361
C55	C	-1.122634	0.578109	-0.578320
C56	C	-0.789301	0.911442	-0.244986
C57	C	-0.455968	1.244776	0.088347
C58	C	-1.070887	0.505257	-0.651384
C59	C	-0.737554	0.838590	-0.318051
C60	C	-0.404221	1.171924	0.015282
C61	C	-0.950837	0.505271	-0.651401
C62	C	-0.617504	0.838604	-0.318067
C63	C	-0.284170	1.171937	0.015266
C64	C	-1.510243	0.889951	-0.578345
C65	C	-1.176909	1.223285	-0.245012
C66	C	-0.843576	1.556618	0.088322
C67	C	-1.510315	1.023351	-0.578388
C68	C	-1.176982	1.356685	-0.245055
C69	C	-0.843648	1.690018	0.088279
C70	C	-0.782867	0.578151	-0.578363
C71	C	-0.449534	0.911484	-0.245030
C72	C	-0.116201	1.244817	0.088303
C73	C	-0.899020	0.578136	-0.578349
C74	C	-0.565687	0.911469	-0.245016
C75	C	-0.232354	1.244802	0.088318
C76	C	-1.510377	0.577993	-0.891381
C77	C	-1.177044	0.911327	-0.558048
C78	C	-0.843711	1.244660	-0.224715
C79	C	-1.510412	0.577937	-1.024781
C80	C	-1.177078	0.911270	-0.691448
C81	C	-0.843745	1.244603	-0.358115
C82	C	-1.510370	1.265084	-0.578371
C83	C	-1.177037	1.598418	-0.245038
C84	C	-0.843703	1.931751	0.088296
C85	C	-1.510374	1.131684	-0.578417
C86	C	-1.177041	1.465018	-0.245083
C87	C	-0.843707	1.798351	0.088250
C88	C	-1.510277	0.578173	-0.266514
C89	C	-1.176944	0.911506	0.066819
C90	C	-0.843611	1.244840	0.400153
C91	C	-1.510446	0.577892	-0.133115
C92	C	-1.177112	0.911225	0.200219
C93	C	-0.843779	1.244558	0.533552
H94	H	-0.906336	0.442903	-0.713958
H95	H	-0.573003	0.776237	-0.380625
H96	H	-0.239669	1.109570	-0.047291
H97	H	-0.943515	0.640517	-0.515799
H98	H	-0.610182	0.973850	-0.182466
H99	H	-0.276848	1.307183	0.150868
H100	H	-1.078060	0.640488	-0.515776
H101	H	-0.744727	0.973821	-0.182443
H102	H	-0.411393	1.307154	0.150891
H103	H	-1.115462	0.442871	-0.713921
H104	H	-0.782128	0.776205	-0.380588
H105	H	-0.448795	1.109538	-0.047255
