data_functionalizedCrystal
_audit_creation_method	'MofGen! by Chris Wilmer'
_symmetry_space_group_name_H-M	'P1'
_symmetry_Int_Tables_number	1
_symmetry_cell_setting	triclinic
loop_
_symmetry_equiv_pos_as_xyz
  x,y,z
_cell_length_a	6.817900
_cell_length_b	9.582860
_cell_length_c	15.199413
_cell_angle_alpha	97.703646
_cell_angle_beta	89.522168
_cell_angle_gamma	68.793233
loop_
_atom_site_label
_atom_site_type_symbol
_atom_site_fract_x
_atom_site_fract_y
_atom_site_fract_z
V1	V	-3.923978	0.205701	0.274045
O2	O	-3.872263	-0.011279	0.268994
O3	O	-3.915809	0.409212	0.272012
O4	O	-3.812679	0.201926	0.393639
O5	O	-3.976107	0.197443	0.146525
V6	V	-4.410544	0.179820	0.258812
O7	O	-4.178563	0.262474	0.307460
O8	O	-4.606156	0.123048	0.225397
O9	O	-4.195506	-0.023691	0.260846
O10	O	-4.579656	0.396801	0.263863
O11	O	-4.475812	0.188079	0.386332
O12	O	-4.298637	0.183596	0.139219
C13	C	-3.772632	0.458843	0.267647
C14	C	-3.846820	0.625212	0.266781
C15	C	-3.641078	0.194426	0.422794
C16	C	-3.631628	0.192686	0.520561
C17	C	-4.133567	0.191098	0.110059
C18	C	-4.122046	0.192869	0.010454
V19	V	-3.845076	0.204155	-0.138294
O20	O	-3.779804	0.195894	-0.265814
O21	O	-3.956988	0.200382	-0.018701
O22	O	-4.060108	0.407668	-0.140329
O23	O	-3.675971	-0.012826	-0.143344
V24	V	-3.331623	0.178264	-0.153525
O25	O	-3.649461	0.260923	-0.104879
O26	O	-3.077037	0.121487	-0.186939
O27	O	-3.442920	0.182042	-0.273119
O28	O	-3.279497	0.186523	-0.026005
O29	O	-3.383330	0.395244	-0.148475
O30	O	-3.339800	-0.025244	-0.151492
C31	C	-4.002028	-0.073313	0.265208
C32	C	-3.907075	-0.239681	0.266079
C33	C	-4.253586	0.457294	-0.144692
C34	C	-4.348533	0.623662	-0.145563
C35	C	-3.614520	0.189544	-0.302275
C36	C	-3.623966	0.191283	-0.400042
C37	C	-3.482978	-0.074871	-0.147127
C38	C	-3.408789	-0.241239	-0.146258
