data_functionalizedCrystal
_audit_creation_method	'MofGen! by Chris Wilmer'
_symmetry_space_group_name_H-M	'P1'
_symmetry_Int_Tables_number	1
_symmetry_cell_setting	triclinic
loop_
_symmetry_equiv_pos_as_xyz
  x,y,z
_cell_length_a	15.712078
_cell_length_b	15.538191
_cell_length_c	14.185569
_cell_angle_alpha	82.127072
_cell_angle_beta	107.170411
_cell_angle_gamma	83.426622
loop_
_atom_site_label
_atom_site_type_symbol
_atom_site_fract_x
_atom_site_fract_y
_atom_site_fract_z
O1	O	0.976850	0.479383	-0.083583
O2	O	0.745510	0.414661	-0.083542
O3	O	0.906211	0.325411	-0.083576
O4	O	0.816149	0.568633	-0.083550
O5	O	0.953682	0.299049	0.083249
O6	O	0.792981	0.388300	0.083282
O7	O	1.024321	0.453021	0.083241
Cu8	Cu	0.912986	0.418254	0.098494
Cu9	Cu	0.856846	0.449429	-0.098795
O10	O	0.863620	0.542272	0.083275
C11	C	0.740361	0.390908	-0.000125
C12	C	0.654297	0.359393	-0.000110
C13	C	0.203248	0.626945	-0.000151
C14	C	0.122375	0.597319	-0.000179
C15	C	0.189567	0.448854	-0.000197
C16	C	0.270446	0.478468	-0.000174
C17	C	0.277280	0.567514	-0.000150
C18	C	0.344478	0.419037	-0.000173
C19	C	0.425351	0.448648	-0.000144
C20	C	0.432194	0.537690	-0.000117
C21	C	0.358153	0.597125	-0.000122
C22	C	0.337644	0.329990	-0.000189
C23	C	0.411676	0.270559	-0.000188
C24	C	0.492549	0.300171	-0.000167
C25	C	0.499392	0.389213	-0.000140
C26	C	0.566590	0.240736	-0.000163
C27	C	0.647463	0.270347	-0.000134
C28	C	0.580265	0.418824	-0.000112
C29	C	0.939369	0.280382	-0.000168
C30	C	0.967434	0.185482	-0.000183
C31	C	0.688589	-0.198400	-0.000112
C32	C	0.714983	-0.287571	-0.000115
C33	C	0.863444	-0.258857	-0.000141
C34	C	0.837061	-0.169680	-0.000144
C35	C	0.749632	-0.139460	-0.000128
C36	C	0.898104	-0.110740	-0.000160
C37	C	0.871723	-0.021573	-0.000157
C38	C	0.784300	0.008655	-0.000138
C39	C	0.723251	-0.050292	-0.000125
C40	C	0.985534	-0.140964	-0.000168
C41	C	1.046578	-0.082024	-0.000184
C42	C	1.020195	0.007146	-0.000189
C43	C	0.932772	0.037374	-0.000170
C44	C	1.081243	0.066093	-0.000202
C45	C	1.054863	0.155261	-0.000199
C46	C	0.906391	0.126542	-0.000167
C47	C	1.029470	0.476775	-0.000178
C48	C	1.115532	0.508291	-0.000200
C49	C	0.830462	0.587301	-0.000135
C50	C	0.802395	0.682202	-0.000127
N51	N	0.952478	0.396328	0.237257
N52	N	0.817362	0.471350	-0.237558
C53	C	0.701347	0.535730	0.604959
C54	C	0.731265	0.519129	0.709974
C55	C	0.873574	0.440148	0.709906
C56	C	0.843666	0.456739	0.604889
C57	C	0.757552	0.504531	0.552423
C58	C	0.899871	0.425540	0.552353
C59	C	0.869967	0.442133	0.447344
C60	C	0.783858	0.489925	0.394872
C61	C	0.727648	0.521124	0.447415
C62	C	0.985987	0.377753	0.604820
C63	C	1.042192	0.346554	0.552284
C64	C	1.012286	0.363141	0.447274
C65	C	0.926176	0.410934	0.394801
C66	C	1.068495	0.331943	0.394731
C67	C	1.038591	0.348536	0.289722
C68	C	0.896272	0.427527	0.289793
H69	H	0.363716	0.669635	-0.000100
O70	O	0.821397	0.155827	-0.000295
C71	C	0.758099	0.138979	-0.086705
H72	H	0.790161	0.082866	-0.115512
H73	H	0.696612	0.119733	-0.067269
H74	H	0.736339	0.200712	-0.147205
O75	O	0.719455	0.212624	0.000040
C76	C	0.792813	0.211661	0.086443
H77	H	0.766540	0.235311	0.146831
H78	H	0.831691	0.141751	0.115433
H79	H	0.839525	0.257138	0.066935
O80	O	0.050356	0.654992	-0.000317
C81	C	-0.022989	0.655987	-0.086745
H82	H	-0.014120	0.591653	-0.115566
H83	H	-0.088555	0.663508	-0.067327
H84	H	-0.025601	0.713605	-0.147228
H85	H	0.685488	0.544541	0.752744
O86	O	0.603618	-0.168962	-0.000280
C87	C	0.559348	-0.104575	-0.086664
H88	H	0.592243	-0.113763	-0.147059
H89	H	0.485137	-0.111671	-0.115658
H90	H	0.564867	-0.036226	-0.067129
H91	H	1.007008	-0.213570	-0.000180
O92	O	0.586909	0.505343	-0.000264
C93	C	0.607151	0.540568	-0.086630
H94	H	0.584673	0.499072	-0.147037
H95	H	0.570121	0.611153	-0.115620
H96	H	0.683025	0.539963	-0.067073
O97	O	0.655553	-0.344700	-0.000153
C98	C	0.572740	-0.298905	-0.000113
H99	H	0.566713	-0.226144	-0.031695
H100	H	0.514660	-0.327056	-0.048542
H101	H	0.569881	-0.306484	0.079925
O102	O	1.014938	0.361520	0.706825
C103	C	0.956327	0.313148	0.741943
H104	H	0.919687	0.276931	0.681436
H105	H	0.997074	0.263378	0.812181
H106	H	0.904826	0.360019	0.760608
O107	O	0.638382	-0.020846	0.000018
C108	C	0.643262	0.016203	0.086433
H109	H	0.711962	0.037473	0.115232
H110	H	0.587766	0.075901	0.067007
H111	H	0.634004	-0.034805	0.146936
O112	O	1.131455	-0.111524	-0.000245
C113	C	1.141660	-0.202869	-0.000215
H114	H	1.072477	-0.222401	-0.031781
H115	H	1.185311	-0.219937	-0.048662
H116	H	1.175443	-0.240133	0.079818
O117	O	0.812672	0.474086	0.238862
C118	C	0.806234	0.558555	0.264542
H119	H	0.876750	0.575974	0.293385
H120	H	0.764217	0.609030	0.195490
H121	H	0.772530	0.558966	0.325512
H122	H	1.138613	0.293037	0.437462
H123	H	0.762824	0.081261	-0.000130
O124	O	1.166108	0.036715	-0.000389
C125	C	1.161228	-0.000384	-0.086772
H126	H	1.093970	0.027877	-0.147157
H127	H	1.218934	0.015880	-0.115785
H128	H	1.166833	-0.074905	-0.067229
H129	H	0.498049	0.561797	-0.000090
H130	H	1.104571	0.203252	-0.000211
O131	O	0.183018	0.362322	-0.000048
C132	C	0.247797	0.310724	0.086334
H133	H	0.267539	0.352745	0.146743
H134	H	0.218097	0.252987	0.115308
H135	H	0.310136	0.284717	0.066804
O136	O	0.754678	0.506156	0.292866
C137	C	0.666613	0.555008	0.257828
H138	H	0.654361	0.591388	0.318359
H139	H	0.658852	0.604668	0.187570
H140	H	0.615416	0.508472	0.239222
O141	O	0.209892	0.713464	-0.000304
C142	C	0.230134	0.748688	-0.086670
H143	H	0.207656	0.707192	-0.147077
H144	H	0.193104	0.819274	-0.115660
H145	H	0.306008	0.748083	-0.067112
H146	H	1.084360	0.323131	0.246947
H147	H	1.112308	0.307643	0.595013
O148	O	0.259015	0.301291	-0.000398
C149	C	0.189005	0.345793	-0.086795
H150	H	0.219041	0.371098	-0.147165
H151	H	0.141138	0.298579	-0.115821
H152	H	0.150223	0.403686	-0.067265
O153	O	0.644047	0.567683	0.396484
C154	C	0.637610	0.652152	0.422164
H155	H	0.708126	0.669571	0.451007
H156	H	0.595593	0.702627	0.353112
H157	H	0.603906	0.652563	0.483134
O158	O	0.404867	0.184100	-0.000257
C159	C	0.317619	0.170701	-0.000254
H160	H	0.268720	0.235453	-0.031827
H161	H	0.294571	0.119698	-0.048707
H162	H	0.319015	0.146119	0.079773
O163	O	0.559850	0.154277	-0.000358
C164	C	0.490501	0.146368	-0.086756
H165	H	0.478638	0.206967	-0.147135
H166	H	0.511051	0.084957	-0.115765
H167	H	0.425737	0.140785	-0.067234
O168	O	0.617682	0.582201	0.554141
C169	C	0.574469	0.606158	0.623025
H170	H	0.627447	0.606334	0.697866
H171	H	0.532631	0.674732	0.592697
H172	H	0.528386	0.556785	0.634212
O173	O	0.957286	0.393844	0.760825
C174	C	1.022838	0.438350	0.735111
H175	H	0.993659	0.511108	0.706262
H176	H	1.084710	0.431161	0.804145
H177	H	1.043155	0.408772	0.674133
H178	H	0.934630	-0.283476	-0.000150
