data_functionalizedCrystal
_audit_creation_method	'MofGen! by Chris Wilmer'
_symmetry_space_group_name_H-M	'P1'
_symmetry_Int_Tables_number	1
_symmetry_cell_setting	triclinic
loop_
_symmetry_equiv_pos_as_xyz
  x,y,z
_cell_length_a	29.839131
_cell_length_b	21.395364
_cell_length_c	21.395355
_cell_angle_alpha	90.025600
_cell_angle_beta	89.979828
_cell_angle_gamma	89.961079
loop_
_atom_site_label
_atom_site_type_symbol
_atom_site_fract_x
_atom_site_fract_y
_atom_site_fract_z
Zn1	Zn	-0.178935	-0.957812	-0.354272
Zn2	Zn	0.154398	-0.624479	-0.020938
Zn3	Zn	0.487731	-0.291146	0.312395
Zn4	Zn	-0.254051	-0.957695	-0.249491
Zn5	Zn	0.079283	-0.624362	0.083842
Zn6	Zn	0.412616	-0.291029	0.417175
Zn7	Zn	-0.178932	-0.853027	-0.249506
Zn8	Zn	0.154401	-0.519694	0.083827
Zn9	Zn	0.487735	-0.186361	0.417160
Zn10	Zn	-0.254036	-0.852977	-0.354229
Zn11	Zn	0.079298	-0.519644	-0.020896
Zn12	Zn	0.412631	-0.186310	0.312437
O13	O	-0.216488	-0.905378	-0.301875
O14	O	0.116845	-0.572045	0.031459
O15	O	0.450178	-0.238711	0.364792
O16	O	-0.188907	-1.045475	-0.340384
O17	O	0.144426	-0.712141	-0.007050
O18	O	0.477760	-0.378808	0.326283
O19	O	-0.244091	-0.943783	-0.161815
O20	O	0.089242	-0.610450	0.171518
O21	O	0.422576	-0.277116	0.504851
O22	O	-0.116065	-0.866997	-0.263428
O23	O	0.217268	-0.533664	0.069905
O24	O	0.550601	-0.200331	0.403239
O25	O	-0.244094	-1.045389	-0.263402
O26	O	0.089239	-0.712055	0.069932
O27	O	0.422573	-0.378722	0.403265
O28	O	-0.116068	-0.943982	-0.340398
O29	O	0.217266	-0.610649	-0.007065
O30	O	0.550599	-0.277316	0.326268
O31	O	-0.188902	-0.866884	-0.161827
O32	O	0.144432	-0.533551	0.171507
O33	O	0.477765	-0.200217	0.504840
O34	O	-0.188887	-0.765343	-0.263387
O35	O	0.144446	-0.432009	0.069946
O36	O	0.477779	-0.098676	0.403280
O37	O	-0.244069	-0.866911	-0.441913
O38	O	0.089265	-0.533578	-0.108580
O39	O	0.422598	-0.200245	0.224754
O40	O	-0.244066	-0.765306	-0.340326
O41	O	0.089268	-0.431972	-0.006993
O42	O	0.422601	-0.098639	0.326340
O43	O	-0.188893	-0.943934	-0.441944
O44	O	0.144441	-0.610600	-0.108611
O45	O	0.477774	-0.277267	0.224723
O46	O	-0.316916	-0.943734	-0.263361
O47	O	0.016418	-0.610401	0.069973
O48	O	0.349751	-0.277067	0.403306
O49	O	-0.316905	-0.866798	-0.340312
O50	O	0.016428	-0.533465	-0.006978
O51	O	0.349762	-0.200131	0.326355
C52	C	-0.216475	-0.742590	-0.301854
C53	C	0.116859	-0.409257	0.031479
C54	C	0.450192	-0.075924	0.364813
C55	C	-0.216480	-0.672949	-0.301860
C56	C	0.116854	-0.339616	0.031473
C57	C	0.450187	-0.006282	0.364806
C58	C	-0.333211	-0.905265	-0.301844
C59	C	0.000122	-0.571931	0.031490
C60	C	0.333456	-0.238598	0.364823
C61	C	-0.383145	-0.905274	-0.301851
C62	C	-0.049812	-0.571940	0.031482
C63	C	0.283521	-0.238607	0.364815
C64	C	-0.245265	-0.171150	-0.341887
C65	C	0.088069	0.162183	-0.008554
C66	C	0.421402	0.495517	0.324780
C67	C	-0.245266	-0.236585	-0.341882
C68	C	0.088068	0.096748	-0.008548
C69	C	0.421401	0.430081	0.324785
C70	C	-0.216492	-0.269311	-0.301885
C71	C	0.116842	0.064023	0.031448
C72	C	0.450175	0.397356	0.364782
C73	C	-0.187723	-0.236595	-0.261879
C74	C	0.145610	0.096738	0.071454
C75	C	0.478944	0.430071	0.404787
C76	C	-0.187726	-0.171161	-0.261882
C77	C	0.145607	0.162172	0.071452
C78	C	0.478940	0.495506	0.404785
C79	C	-0.176006	-0.373010	-0.297037
C80	C	0.157327	-0.039677	0.036297
C81	C	0.490661	0.293656	0.369630
C82	C	-0.176002	-0.438443	-0.297039
C83	C	0.157331	-0.105110	0.036294
C84	C	0.490665	0.228224	0.369628
C85	C	-0.216482	-0.471132	-0.301874
C86	C	0.116851	-0.137798	0.031459
C87	C	0.450185	0.195535	0.364792
C88	C	-0.256967	-0.438379	-0.306720
C89	C	0.076366	-0.105046	0.026613
C90	C	0.409699	0.228288	0.359946
C91	C	-0.256970	-0.372945	-0.306723
C92	C	0.076363	-0.039611	0.026611
C93	C	0.409696	0.293722	0.359944
C94	C	-0.216485	-0.340263	-0.301878
C95	C	0.116848	-0.006930	0.031456
C96	C	0.450182	0.326403	0.364789
C97	C	-0.245252	-0.574792	-0.341868
C98	C	0.088081	-0.241458	-0.008535
C99	C	0.421415	0.091875	0.324799
C100	C	-0.245253	-0.640228	-0.341858
C101	C	0.088080	-0.306895	-0.008525
C102	C	0.421413	0.026438	0.324809
C103	C	-0.187707	-0.640237	-0.261859
C104	C	0.145627	-0.306904	0.071474
C105	C	0.478960	0.026430	0.404808
C106	C	-0.187709	-0.574802	-0.261866
C107	C	0.145624	-0.241468	0.071468
C108	C	0.478957	0.091865	0.404801
C109	C	-0.216481	-0.542083	-0.301874
C110	C	0.116852	-0.208750	0.031460
C111	C	0.450185	0.124584	0.364793
C112	C	-0.692782	-0.945511	-0.261865
C113	C	-0.359449	-0.612178	0.071468
C114	C	-0.026115	-0.278845	0.404802
C115	C	-0.880455	-0.945589	-0.261889
C116	C	-0.547122	-0.612255	0.071444
C117	C	-0.213788	-0.278922	0.404777
O118	O	-0.904714	-0.979711	-0.227868
O119	O	-0.571380	-0.646377	0.105466
O120	O	-0.238047	-0.313044	0.438799
N121	N	-0.903930	-0.905508	-0.301922
N122	N	-0.570597	-0.572175	0.031411
N123	N	-0.237264	-0.238841	0.364745
C124	C	-0.880485	-0.865408	-0.341954
C125	C	-0.547152	-0.532074	-0.008621
C126	C	-0.213818	-0.198741	0.324712
O127	O	-0.904759	-0.831323	-0.376010
O128	O	-0.571425	-0.497989	-0.042676
O129	O	-0.238092	-0.164656	0.290657
C130	C	-0.692813	-0.865334	-0.341933
C131	C	-0.359479	-0.532001	-0.008599
C132	C	-0.026146	-0.198667	0.324734
C133	C	-0.669340	-0.905413	-0.301893
C134	C	-0.336006	-0.572080	0.031440
C135	C	-0.002673	-0.238746	0.364774
C136	C	-0.669309	-0.985588	-0.221829
C137	C	-0.335975	-0.652254	0.111504
C138	C	-0.002642	-0.318921	0.444838
C139	C	-0.622393	-0.985566	-0.221821
C140	C	-0.289060	-0.652232	0.111512
C141	C	0.044273	-0.318899	0.444846
C142	C	-0.598951	-0.945467	-0.261849
C143	C	-0.265618	-0.612134	0.071485
C144	C	0.067716	-0.278800	0.404818
C145	C	-0.622424	-0.905391	-0.301885
C146	C	-0.289091	-0.572058	0.031449
C147	C	0.044243	-0.238724	0.364782
C148	C	-0.669368	-0.825237	-0.381968
C149	C	-0.336035	-0.491904	-0.048634
C150	C	-0.002701	-0.158571	0.284699
C151	C	-0.622447	-0.825224	-0.381960
C152	C	-0.289114	-0.491890	-0.048626
C153	C	0.044220	-0.158557	0.284707
C154	C	-0.598974	-0.865303	-0.341920
C155	C	-0.265641	-0.531969	-0.008587
C156	C	0.067693	-0.198636	0.324747
C157	C	-0.552066	-0.865270	-0.341905
C158	C	-0.218733	-0.531937	-0.008571
C159	C	0.114600	-0.198604	0.324762
N160	N	-0.528591	-0.905351	-0.301872
N161	N	-0.195258	-0.572018	0.031461
N162	N	0.138076	-0.238685	0.364795
C163	C	-0.552033	-0.945450	-0.261844
C164	C	-0.218700	-0.612116	0.071489
C165	C	0.114634	-0.278783	0.404823
C166	C	-0.979016	-0.865448	-0.341962
C167	C	-0.645682	-0.532115	-0.008629
C168	C	-0.312349	-0.198782	0.324705
C169	C	-1.025933	-0.865466	-0.341967
C170	C	-0.692600	-0.532133	-0.008633
C171	C	-0.359267	-0.198799	0.324700
C172	C	-1.025900	-0.945648	-0.261902
C173	C	-0.692567	-0.612315	0.071431
C174	C	-0.359233	-0.278981	0.404764
C175	C	-0.978981	-0.945627	-0.261895
C176	C	-0.645648	-0.612293	0.071438
C177	C	-0.312315	-0.278960	0.404772
C178	C	-0.955540	-0.905529	-0.301929
C179	C	-0.622207	-0.572196	0.031404
C180	C	-0.288873	-0.238863	0.364737
C181	C	-0.453507	-0.945400	-0.261830
C182	C	-0.120174	-0.612066	0.071504
C183	C	0.213159	-0.278733	0.404837
C184	C	-0.406588	-0.945372	-0.261823
C185	C	-0.073254	-0.612039	0.071510
C186	C	0.260079	-0.278705	0.404843
C187	C	-0.406625	-0.865193	-0.341890
C188	C	-0.073292	-0.531859	-0.008556
C189	C	0.260042	-0.198526	0.324777
C190	C	-0.453541	-0.865218	-0.341894
C191	C	-0.120207	-0.531884	-0.008561
C192	C	0.213126	-0.198551	0.324773
C193	C	-0.476981	-0.905326	-0.301862
C194	C	-0.143647	-0.571993	0.031471
C195	C	0.189686	-0.238660	0.364805
O196	O	-0.527779	-0.831171	-0.375913
O197	O	-0.194445	-0.497838	-0.042580
O198	O	0.138888	-0.164505	0.290753
O199	O	-0.527751	-0.979539	-0.227804
O200	O	-0.194418	-0.646206	0.105530
O201	O	0.138915	-0.312873	0.438863
C202	C	-0.739697	-0.945534	-0.261873
C203	C	-0.406364	-0.612200	0.071460
C204	C	-0.073031	-0.278867	0.404794
C205	C	-0.763171	-0.905457	-0.301909
C206	C	-0.429837	-0.572124	0.031424
C207	C	-0.096504	-0.238791	0.364758
C208	C	-0.739728	-0.865359	-0.341937
C209	C	-0.406395	-0.532026	-0.008604
C210	C	-0.073062	-0.198692	0.324730
C211	C	-0.810088	-0.905475	-0.301914
C212	C	-0.476755	-0.572142	0.031420
C213	C	-0.143422	-0.238808	0.364753
C214	C	-0.833531	-0.945573	-0.261886
C215	C	-0.500197	-0.612240	0.071447
C216	C	-0.166864	-0.278907	0.404781
C217	C	-0.810055	-0.985654	-0.221853
C218	C	-0.476722	-0.652321	0.111480
C219	C	-0.143388	-0.318987	0.444813
C220	C	-0.763140	-0.985632	-0.221845
C221	C	-0.429806	-0.652299	0.111488
C222	C	-0.096473	-0.318965	0.444821
C223	C	-0.763204	-0.825278	-0.381970
C224	C	-0.429870	-0.491945	-0.048636
C225	C	-0.096537	-0.158611	0.284697
C226	C	-0.810119	-0.825303	-0.381974
C227	C	-0.476786	-0.491970	-0.048641
C228	C	-0.143453	-0.158636	0.284693
C229	C	-0.833562	-0.865401	-0.341946
C230	C	-0.500228	-0.532068	-0.008613
C231	C	-0.166895	-0.198735	0.324721
C232	C	-0.099310	-0.905509	-0.301920
C233	C	0.234023	-0.572175	0.031414
C234	C	0.567357	-0.238842	0.364747
C235	C	-0.049376	-0.905564	-0.301939
C236	C	0.283958	-0.572231	0.031395
C237	C	0.617291	-0.238898	0.364728
C238	C	-0.216479	-0.905430	-0.465298
C239	C	0.116854	-0.572097	-0.131965
C240	C	0.450187	-0.238763	0.201369
C241	C	-0.216475	-0.905452	-0.534939
C242	C	0.116858	-0.572119	-0.201606
C243	C	0.450191	-0.238785	0.131727
C244	C	-0.216500	-0.068801	-0.301892
C245	C	0.116833	0.264532	0.031441
C246	C	0.450167	0.597865	0.364775
C247	C	-0.216498	-0.138442	-0.301889
C248	C	0.116835	0.194891	0.031444
C249	C	0.450169	0.528224	0.364777
C250	C	-0.187744	-0.945556	-0.567670
C251	C	0.145589	-0.612223	-0.234336
C252	C	0.478923	-0.278889	0.098997
C253	C	-0.187725	-0.945555	-0.633105
C254	C	0.145608	-0.612222	-0.299772
C255	C	0.478942	-0.278888	0.033562
C256	C	-0.216445	-0.905457	-0.665808
C257	C	0.116888	-0.572124	-0.332474
C258	C	0.450222	-0.238790	0.000859
C259	C	-0.245178	-0.865346	-0.633070
C260	C	0.088155	-0.532012	-0.299736
C261	C	0.421488	-0.198679	0.033597
C262	C	-0.245194	-0.865343	-0.567635
C263	C	0.088140	-0.532010	-0.234302
C264	C	0.421473	-0.198676	0.099031
C265	C	-0.256896	-0.900471	-0.769472
C266	C	0.076437	-0.567137	-0.436138
C267	C	0.409771	-0.233804	-0.102805
C268	C	-0.256881	-0.900477	-0.834905
C269	C	0.076452	-0.567144	-0.501571
C270	C	0.409785	-0.233811	-0.168238
C271	C	-0.216397	-0.905461	-0.867629
C272	C	0.116936	-0.572128	-0.534295
C273	C	0.450269	-0.238794	-0.200962
C274	C	-0.175927	-0.910451	-0.834912
C275	C	0.157407	-0.577117	-0.501578
C276	C	0.490740	-0.243784	-0.168245
C277	C	-0.175942	-0.910448	-0.769477
C278	C	0.157391	-0.577115	-0.436144
C279	C	0.490725	-0.243782	-0.102811
C280	C	-0.216431	-0.905455	-0.736760
C281	C	0.116902	-0.572122	-0.403427
C282	C	0.450235	-0.238788	-0.070093
C283	C	-0.187643	-0.945566	-0.971311
C284	C	0.145691	-0.612233	-0.637978
C285	C	0.479024	-0.278899	-0.304645
C286	C	-0.187623	-0.945561	-1.036748
C287	C	0.145711	-0.612227	-0.703415
C288	C	0.479044	-0.278894	-0.370081
C289	C	-0.245080	-0.865354	-1.036711
C290	C	0.088253	-0.532021	-0.703378
C291	C	0.421587	-0.198688	-0.370045
C292	C	-0.245096	-0.865356	-0.971276
C293	C	0.088237	-0.532023	-0.637943
C294	C	0.421571	-0.198690	-0.304609
C295	C	-0.216378	-0.905465	-0.938580
C296	C	0.116955	-0.572132	-0.605247
C297	C	0.450289	-0.238799	-0.271913
C298	C	-0.216465	-0.905362	-0.139087
C299	C	0.116868	-0.572029	0.194246
C300	C	0.450202	-0.238696	0.527580
C301	C	-0.216342	-0.905462	-0.069446
C302	C	0.116991	-0.572128	0.263887
C303	C	0.450324	-0.238795	0.597220
H304	H	-0.268695	-0.144515	-0.374462
H305	H	0.064639	0.188819	-0.041129
H306	H	0.397972	0.522152	0.292204
H307	H	-0.472653	-0.832584	-0.374500
H308	H	-0.139320	-0.499251	-0.041166
H309	H	0.194013	-0.165917	0.292167
F310	F	-0.275743	-0.822669	-0.667875
F311	F	0.057591	-0.489335	-0.334541
F312	F	0.390924	-0.156002	-0.001208
H313	H	-0.829150	-1.018302	-0.189259
H314	H	-0.495817	-0.684969	0.144074
H315	H	-0.162483	-0.351635	0.477407
F316	F	-0.835096	-0.782640	-0.424591
F317	F	-0.501763	-0.449307	-0.091258
F318	F	-0.168429	-0.115974	0.242075
H319	H	-0.164280	-0.666881	-0.229291
H320	H	0.169053	-0.333548	0.104042
H321	H	0.502387	-0.000215	0.437376
H322	H	-0.268691	-0.263221	-0.374455
H323	H	0.064643	0.070112	-0.041121
H324	H	0.397976	0.403445	0.292212
H325	H	-0.164359	-0.978215	-0.541053
H326	H	0.168974	-0.644882	-0.207719
H327	H	0.502308	-0.311548	0.125614
F328	F	-0.275678	-0.822674	-0.936441
F329	F	0.057655	-0.489341	-0.603107
F330	F	0.390989	-0.156008	-0.269774
H331	H	-0.143040	-0.346401	-0.293089
H332	H	0.190293	-0.013067	0.040244
H333	H	0.523626	0.320266	0.373578
H334	H	-0.289935	-0.346280	-0.310667
H335	H	0.043398	-0.012947	0.022666
H336	H	0.376732	0.320386	0.355999
H337	H	-0.744031	-1.018268	-0.189241
H338	H	-0.410698	-0.684935	0.144092
H339	H	-0.077364	-0.351602	0.477425
F340	F	-0.299988	-0.895180	-0.734650
F341	F	0.033345	-0.561847	-0.401317
F342	F	0.366678	-0.228514	-0.067984
H343	H	-0.289835	-0.896418	-0.861538
H344	H	0.043498	-0.563085	-0.528204
H345	H	0.376832	-0.229751	-0.194871
F346	F	-0.157101	-0.271425	-0.219310
F347	F	0.176232	0.061909	0.114023
F348	F	0.509566	0.395242	0.447357
F349	F	-0.157088	-0.539990	-0.219298
F350	F	0.176245	-0.206657	0.114035
F351	F	0.509578	0.126676	0.447368
H352	H	-0.688472	-0.792598	-0.414569
H353	H	-0.355139	-0.459264	-0.081236
H354	H	-0.021805	-0.125931	0.252097
F355	F	-1.050857	-0.988322	-0.219300
F356	F	-0.717524	-0.654989	0.114033
F357	F	-0.384190	-0.321656	0.447367
F358	F	-0.132837	-0.915757	-0.869733
F359	F	0.200496	-0.582424	-0.536400
F360	F	0.533829	-0.249091	-0.203067
H361	H	-1.045041	-0.832824	-0.374565
H362	H	-0.711708	-0.499490	-0.041232
H363	H	-0.378375	-0.166157	0.292102
H364	H	-0.744121	-0.792626	-0.414566
H365	H	-0.410787	-0.459292	-0.081233
H366	H	-0.077454	-0.125959	0.252101
H367	H	-0.143036	-0.465105	-0.293100
H368	H	0.190297	-0.131772	0.040233
H369	H	0.523631	0.201561	0.373567
F370	F	-0.300053	-0.473163	-0.311865
F371	F	0.033281	-0.139830	0.021468
F372	F	0.366614	0.193504	0.354801
F373	F	-0.381668	-0.822521	-0.384490
F374	F	-0.048335	-0.489188	-0.051156
F375	F	0.284999	-0.155854	0.282177
F376	F	-0.694251	-1.028271	-0.179223
F377	F	-0.360917	-0.694937	0.154110
F378	F	-0.027584	-0.361604	0.487444
F379	F	-0.597417	-1.028231	-0.179212
F380	F	-0.264084	-0.694897	0.154121
F381	F	0.069250	-0.361564	0.487455
F382	F	-0.275875	-0.539968	-0.384445
F383	F	0.057459	-0.206634	-0.051111
F384	F	0.390792	0.126699	0.282222
F385	F	-0.954004	-0.988284	-0.219280
F386	F	-0.620670	-0.654951	0.114053
F387	F	-0.287337	-0.321618	0.447387
H388	H	-0.268589	-0.832683	-0.540987
H389	H	0.064744	-0.499350	-0.207653
H390	H	0.398077	-0.166016	0.125680
H391	H	-0.268682	-0.666858	-0.374427
H392	H	0.064652	-0.333524	-0.041094
H393	H	0.397985	-0.000191	0.292239
H394	H	-0.164326	-0.978211	-0.659759
H395	H	0.169007	-0.644878	-0.326426
H396	H	0.502341	-0.311544	0.006907
F397	F	-0.157107	-0.136350	-0.219309
F398	F	0.176226	0.196983	0.114024
F399	F	0.509560	0.530316	0.447357
F400	F	-0.381608	-0.988031	-0.219205
F401	F	-0.048275	-0.654698	0.114128
F402	F	0.285058	-0.321365	0.447461
H403	H	-0.472587	-0.978061	-0.229233
H404	H	-0.139253	-0.644728	0.104100
H405	H	0.194080	-0.311395	0.437433
H406	H	-0.164256	-0.978222	-0.944689
H407	H	0.169077	-0.644888	-0.611356
H408	H	0.502410	-0.311555	-0.278022
F409	F	-0.954073	-0.822767	-0.384574
F410	F	-0.620740	-0.489434	-0.051241
F411	F	-0.287406	-0.156101	0.282092
F412	F	-0.275643	-0.822674	-1.071512
F413	F	0.057690	-0.489341	-0.738178
F414	F	0.391024	-0.156007	-0.404845
H415	H	-0.603363	-0.792572	-0.414563
H416	H	-0.270030	-0.459239	-0.081229
H417	H	0.063303	-0.125905	0.252104
F418	F	-0.132872	-0.915756	-0.734660
F419	F	0.200462	-0.582422	-0.401327
F420	F	0.533795	-0.249089	-0.067993
F421	F	-0.157046	-0.988254	-1.071582
F422	F	0.176287	-0.654921	-0.738249
F423	F	0.509620	-0.321587	-0.404915
