data_functionalizedCrystal
_audit_creation_method	'MofGen! by Chris Wilmer'
_symmetry_space_group_name_H-M	'P1'
_symmetry_Int_Tables_number	1
_symmetry_cell_setting	triclinic
loop_
_symmetry_equiv_pos_as_xyz
  x,y,z
_cell_length_a	16.625548
_cell_length_b	18.215405
_cell_length_c	18.215407
_cell_angle_alpha	89.985182
_cell_angle_beta	90.010073
_cell_angle_gamma	89.974047
loop_
_atom_site_label
_atom_site_type_symbol
_atom_site_fract_x
_atom_site_fract_y
_atom_site_fract_z
Zn1	Zn	1.232583	0.293085	0.416099
Zn2	Zn	1.732583	0.793085	0.916099
Zn3	Zn	1.232506	0.416123	0.293027
Zn4	Zn	1.732506	0.916123	0.793027
Zn5	Zn	1.097770	0.293077	0.293047
Zn6	Zn	1.597770	0.793077	0.793047
Zn7	Zn	1.097710	0.416117	0.416052
Zn8	Zn	1.597710	0.916117	0.916052
O9	O	1.165142	0.354600	0.354556
O10	O	1.665142	0.854600	0.854556
O11	O	1.345405	0.309412	0.399785
O12	O	1.845405	0.809412	0.899785
O13	O	1.214625	0.399799	0.190046
O14	O	1.714625	0.899799	0.690046
O15	O	1.115711	0.190094	0.309398
O16	O	1.615711	0.690094	0.809398
O17	O	1.345348	0.399807	0.309364
O18	O	1.845348	0.899807	0.809364
O19	O	1.214758	0.190100	0.399804
O20	O	1.714758	0.690100	0.899804
O21	O	1.115635	0.309398	0.190060
O22	O	1.615635	0.809398	0.690060
O23	O	0.984930	0.309392	0.309353
O24	O	1.484930	0.809392	0.809353
O25	O	1.115609	0.399797	0.519043
O26	O	1.615609	0.899797	1.019043
O27	O	0.984885	0.399789	0.399724
O28	O	1.484885	0.899789	0.899724
O29	O	1.214700	0.309407	0.519077
O30	O	1.714700	0.809407	1.019077
O31	O	1.214567	0.519106	0.309319
O32	O	1.714567	1.019106	0.809319
O33	O	1.115533	0.519102	0.399705
O34	O	1.615533	1.019102	0.899705
C35	C	1.165057	0.545807	0.354521
C36	C	1.665057	1.045807	0.854521
C37	C	1.165094	0.627606	0.354531
C38	C	1.665094	1.127606	0.854531
C39	C	0.955651	0.354590	0.354536
C40	C	1.455651	0.854590	0.854536
C41	C	0.866030	0.354603	0.354545
C42	C	1.366030	0.854603	0.854545
C43	C	1.165156	0.354602	0.546509
C44	C	1.665156	0.854602	1.046509
C45	C	1.165162	0.354603	0.628308
C46	C	1.665162	0.854603	1.128308
C47	C	0.537855	0.354608	0.354576
C48	C	1.037855	0.854608	0.854576
C49	C	0.629163	0.354604	0.354565
C50	C	1.129163	0.854604	0.854565
C51	C	0.701939	0.354606	0.354560
C52	C	1.201939	0.854606	0.854560
C53	C	0.793254	0.354602	0.354550
C54	C	1.293254	0.854602	0.854550
C55	C	1.375451	0.354611	0.354578
C56	C	1.875451	0.854611	0.854578
C57	C	1.465072	0.354616	0.354587
C58	C	1.965072	0.854616	0.854587
C59	C	1.165250	0.162647	0.354608
C60	C	1.665250	0.662647	0.854608
C61	C	1.165295	0.080848	0.354630
C62	C	1.665295	0.580848	0.854630
C63	C	1.216782	0.815777	0.307553
C64	C	1.716782	1.315777	0.807553
C65	C	1.216818	0.892636	0.307571
C66	C	1.716818	1.392636	0.807571
C67	C	1.113605	0.892671	0.401613
C68	C	1.613605	1.392671	0.901613
C69	C	1.113574	0.815814	0.401598
C70	C	1.613574	1.315814	0.901598
C71	C	1.165161	0.777369	0.354564
C72	C	1.665161	1.277369	0.854564
C73	C	1.165229	0.931085	0.354597
C74	C	1.665229	1.431085	0.854597
C75	C	1.165267	1.014419	0.354616
C76	C	1.665267	1.514419	0.854616
C77	C	1.165124	0.694030	0.354545
C78	C	1.665124	1.194030	0.854545
C79	C	1.216743	0.307544	0.816521
C80	C	1.716743	0.807544	1.316521
C81	C	1.216738	0.307544	0.893380
C82	C	1.716738	0.807544	1.393380
C83	C	1.113555	0.401673	0.893333
C84	C	1.613555	0.901673	1.393333
C85	C	1.113556	0.401669	0.816476
C86	C	1.613556	0.901669	1.316476
C87	C	1.165154	0.354606	0.778072
C88	C	1.665154	0.854606	1.278072
C89	C	1.165149	0.354609	0.931788
C90	C	1.665149	0.854609	1.431788
C91	C	1.165144	0.354609	1.015121
C92	C	1.665144	0.854609	1.515121
C93	C	1.165159	0.354604	0.694733
C94	C	1.665159	0.854604	1.194733
C95	C	1.165129	0.354614	1.163350
C96	C	1.665129	0.854614	1.663350
C97	C	1.165141	0.354612	1.081551
C98	C	1.665141	0.854612	1.581551
H99	H	1.258789	0.784477	0.269256
H100	H	1.758789	1.284477	0.769256
O101	O	1.267091	0.929956	0.262030
O102	O	1.767091	1.429956	0.762030
C103	C	1.319140	0.974334	0.304017
C104	C	1.819140	1.474334	0.804017
H105	H	1.323992	0.951142	0.361984
H106	H	1.823992	1.451142	0.861984
H107	H	1.294278	1.032618	0.306521
H108	H	1.794278	1.532618	0.806521
C109	C	1.397063	1.003892	0.197001
C110	C	1.897063	1.503892	0.697001
C111	C	1.403029	0.975403	0.268195
C112	C	1.903029	1.475403	0.768195
H113	H	1.448809	1.004555	0.174903
H114	H	1.948809	1.504555	0.674903
H115	H	1.361996	0.973996	0.168713
H116	H	1.861996	1.473996	0.668713
H117	H	1.376342	1.052460	0.199098
H118	H	1.876342	1.552460	0.699098
H119	H	1.423740	0.926834	0.266097
H120	H	1.923740	1.426834	0.766097
H121	H	1.438102	1.005292	0.296482
H122	H	1.938102	1.505292	0.796482
H123	H	1.071603	0.923983	0.439905
H124	H	1.571603	1.423983	0.939905
H125	H	1.071538	0.784540	0.439884
H126	H	1.571538	1.284540	0.939884
H127	H	1.258755	0.269221	0.785255
H128	H	1.758755	0.769221	1.285255
H129	H	1.258745	0.269221	0.924682
H130	H	1.758745	0.769221	1.424682
O131	O	1.063515	0.447367	0.930754
O132	O	1.563515	0.947367	1.430754
C133	C	1.074562	0.437268	1.006836
C134	C	1.574562	0.937268	1.506836
H135	H	1.136800	0.413168	1.017351
H136	H	1.636800	0.913168	1.517351
H137	H	1.026756	0.398078	1.028651
H138	H	1.526756	0.898078	1.528651
C139	C	0.990691	0.541332	1.033355
C140	C	1.490691	1.041332	1.533355
C141	C	1.067136	0.511738	1.046270
C142	C	1.567136	1.011738	1.546270
H143	H	0.986107	0.587268	1.057681
H144	H	1.486107	1.087268	1.557681
H145	H	0.983246	0.548135	0.982097
H146	H	1.483246	1.048135	1.482097
H147	H	0.950861	0.508667	1.051534
H148	H	1.450861	1.008667	1.551534
H149	H	1.106963	0.544399	1.028083
H150	H	1.606963	1.044399	1.528083
H151	H	1.074587	0.504943	1.097526
H152	H	1.574587	1.004943	1.597526
H153	H	1.071541	0.439991	0.785169
H154	H	1.571541	0.939991	1.285169
